
     RDKit          3D

 32 36  0  0  0  0  0  0  0  0999 V2000
   -5.4240    1.3200   -1.9660 C   0  0  0  0  0  0  0  0  0  0  0  0
   -5.4960    0.5170   -0.6940 C   0  0  0  0  0  0  0  0  0  0  0  0
   -6.5960    0.3230    0.0070 C   0  0  0  0  0  0  0  0  0  0  0  0
   -6.3060   -0.5120    1.2000 C   0  0  0  0  0  0  0  0  0  0  0  0
   -4.8590   -0.7740    1.0790 C   0  0  0  0  0  0  0  0  0  0  0  0
   -4.4130   -0.1760   -0.0110 C   0  0  0  0  0  0  0  0  0  0  0  0
   -3.0050   -0.1780   -0.5190 C   0  0  0  0  0  0  0  0  0  0  0  0
   -2.1240   -0.9380    0.3380 N   0  0  0  0  0  0  0  0  0  0  0  0
   -1.7000   -0.2350    1.5100 C   0  0  0  0  0  0  0  0  0  0  0  0
   -0.2130    0.0760    1.5110 C   0  0  2  0  0  0  0  0  0  0  0  0
    0.0910    0.9470    0.3000 C   0  0  0  0  0  0  0  0  0  0  0  0
    1.5050    1.2250    0.2260 N   0  0  0  0  0  0  0  0  0  0  0  0
    1.7310    2.1690   -0.8480 C   0  0  0  0  0  0  0  0  0  0  0  0
    1.0270    3.4360   -0.6350 C   0  0  0  0  0  0  0  0  0  0  0  0
    1.6160    4.3730    0.1910 C   0  0  0  0  0  0  0  0  0  0  0  0
    0.9880    5.5770    0.4110 C   0  0  0  0  0  0  0  0  0  0  0  0
   -0.2100    5.8410   -0.1860 C   0  0  0  0  0  0  0  0  0  0  0  0
   -0.7520    4.9200   -0.9750 N   0  0  0  0  0  0  0  0  0  0  0  0
   -0.1830    3.7370   -1.2200 C   0  0  0  0  0  0  0  0  0  0  0  0
    2.2350    0.0080   -0.1730 C   0  0  0  0  0  0  0  0  0  0  0  0
    1.7590   -1.1530    0.6190 C   0  0  0  0  0  0  0  0  0  0  0  0
    2.5530   -2.2990    0.5250 C   0  0  0  0  0  0  0  0  0  0  0  0
    3.7090   -2.3340   -0.2750 N   0  0  0  0  0  0  0  0  0  0  0  0
    3.6250   -2.1690   -1.6950 C   0  0  0  0  0  0  0  0  0  0  0  0
    4.5170   -3.2650   -2.2950 C   0  0  0  0  0  0  0  0  0  0  0  0
    5.8000   -2.9870   -1.9250 O   0  0  0  0  0  0  0  0  0  0  0  0
    6.0440   -3.1070   -0.5700 C   0  0  0  0  0  0  0  0  0  0  0  0
    5.0020   -2.5330    0.3130 C   0  0  0  0  0  0  0  0  0  0  0  0
    2.1250   -3.3570    1.2510 N   0  0  0  0  0  0  0  0  0  0  0  0
    1.0210   -3.3240    2.0100 C   0  0  0  0  0  0  0  0  0  0  0  0
    0.2550   -2.2410    2.1100 N   0  0  0  0  0  0  0  0  0  0  0  0
    0.6270   -1.1400    1.4060 C   0  0  0  0  0  0  0  0  0  0  0  0
  1  2  1  0
  2  3  2  0
  2  6  1  0
  3  4  1  0
  4  5  1  0
  5  6  2  0
  6  7  1  0
  7  8  1  0
  8  9  1  0
 10  9  1  6
 10 11  1  0
 10 32  1  0
 11 12  1  0
 12 13  1  0
 12 20  1  0
 13 14  1  0
 14 15  2  0
 14 19  1  0
 15 16  1  0
 16 17  2  0
 17 18  1  0
 18 19  2  0
 20 21  1  0
 21 22  2  0
 21 32  1  0
 22 23  1  0
 22 29  1  0
 23 24  1  0
 23 28  1  0
 24 25  1  0
 25 26  1  0
 26 27  1  0
 27 28  1  0
 29 30  2  0
 30 31  1  0
 31 32  2  0
M  CHG  2   8   1  31   1
M  END
