
     RDKit          3D

 32 36  0  0  0  0  0  0  0  0999 V2000
    6.6860    3.6290   -0.2020 C   0  0  0  0  0  0  0  0  0  0  0  0
    7.2680    2.6000   -1.1160 C   0  0  0  0  0  0  0  0  0  0  0  0
    6.2790    1.9100   -1.8970 N   0  0  0  0  0  0  0  0  0  0  0  0
    5.3430    1.0220   -1.2610 C   0  0  0  0  0  0  0  0  0  0  0  0
    5.4190    0.8310   -0.0060 N   0  0  0  0  0  0  0  0  0  0  0  0
    4.5040   -0.0400    0.6320 C   0  0  0  0  0  0  0  0  0  0  0  0
    4.9650   -1.0590    1.4500 C   0  0  0  0  0  0  0  0  0  0  0  0
    4.0900   -1.9020    2.0770 C   0  0  0  0  0  0  0  0  0  0  0  0
    2.7330   -1.6940    1.8630 C   0  0  0  0  0  0  0  0  0  0  0  0
    2.2660   -0.6860    1.0550 C   0  0  0  0  0  0  0  0  0  0  0  0
    0.8050   -0.4680    0.8400 C   0  0  0  0  0  0  0  0  0  0  0  0
    0.2560   -1.5410    0.1470 N   0  0  0  0  0  0  0  0  0  0  0  0
    0.7140   -1.9040   -1.1180 C   0  0  0  0  0  0  0  0  0  0  0  0
    1.2630   -3.3220   -1.0370 C   0  0  0  0  0  0  0  0  0  0  0  0
    0.5340   -4.1400   -0.0940 N   0  0  0  0  0  0  0  0  0  0  0  0
   -0.8040   -3.6540    0.1470 C   0  0  0  0  0  0  0  0  0  0  0  0
   -0.8170   -2.2580    0.7220 C   0  0  2  0  0  0  0  0  0  0  0  0
   -2.1580   -1.6660    0.4300 C   0  0  0  0  0  0  0  0  0  0  0  0
   -3.2380   -2.4610    0.1270 C   0  0  0  0  0  0  0  0  0  0  0  0
   -4.4590   -1.8750   -0.1480 C   0  0  0  0  0  0  0  0  0  0  0  0
   -4.6470   -0.5140   -0.1320 C   0  0  0  0  0  0  0  0  0  0  0  0
   -5.8650    0.0420   -0.4080 C   0  0  0  0  0  0  0  0  0  0  0  0
   -6.0220    1.4240   -0.3860 C   0  0  0  0  0  0  0  0  0  0  0  0
   -4.9250    2.1950   -0.0810 C   0  0  0  0  0  0  0  0  0  0  0  0
   -3.7100    1.6090    0.1940 C   0  0  0  0  0  0  0  0  0  0  0  0
   -3.5310    0.2460    0.1780 C   0  0  0  0  0  0  0  0  0  0  0  0
   -2.3580   -0.3360    0.4410 N   0  0  0  0  0  0  0  0  0  0  0  0
   -5.0870    3.6880   -0.0580 C   0  0  0  0  0  0  0  0  0  0  0  0
   -6.5510    4.0170    0.0620 C   0  0  0  0  0  0  0  0  0  0  0  0
   -7.2890    3.3590   -0.9360 O   0  0  0  0  0  0  0  0  0  0  0  0
   -7.3720    2.0050   -0.6910 C   0  0  0  0  0  0  0  0  0  0  0  0
    3.1900    0.1150    0.4610 N   0  0  0  0  0  0  0  0  0  0  0  0
  1  2  1  0
  2  3  1  0
  3  4  1  0
  4  5  2  3
  5  6  1  0
  6  7  2  0
  6 32  1  0
  7  8  1  0
  8  9  2  0
  9 10  1  0
 10 11  1  0
 10 32  2  0
 11 12  1  0
 12 13  1  0
 12 17  1  0
 13 14  1  0
 14 15  1  0
 15 16  1  0
 16 17  1  0
 17 18  1  6
 18 19  2  0
 18 27  1  0
 19 20  1  0
 20 21  2  0
 21 22  1  0
 21 26  1  0
 22 23  2  0
 23 24  1  0
 23 31  1  0
 24 25  2  0
 24 28  1  0
 25 26  1  0
 26 27  2  0
 28 29  1  0
 29 30  1  0
 30 31  1  0
M  CHG  2   5   1  15   1
M  END
