
     RDKit          3D

 33 34  0  0  0  0  0  0  0  0999 V2000
    6.8250   -1.2080    0.2620 N   0  0  0  0  0  0  0  0  0  0  0  0
    6.0020   -1.8890   -0.7140 C   0  0  1  0  0  0  0  0  0  0  0  0
    4.6550   -1.2560   -0.8660 C   0  0  0  0  0  0  0  0  0  0  0  0
    3.8670   -1.2680    0.4220 C   0  0  0  0  0  0  0  0  0  0  0  0
    2.5220   -0.6190    0.2190 C   0  0  0  0  0  0  0  0  0  0  0  0
    2.3260   -0.0940   -0.8750 O   0  0  0  0  0  0  0  0  0  0  0  0
    1.5800   -0.6430    1.2560 N   0  0  0  0  0  0  0  0  0  0  0  0
    0.2780   -0.0690    1.2570 C   0  0  1  0  0  0  0  0  0  0  0  0
   -0.0270    0.6470   -0.0380 C   0  0  0  0  0  0  0  0  0  0  0  0
    1.1320    2.0580   -0.1700 S   0  0  0  0  0  0  0  0  0  0  0  0
    0.8260    3.0180   -1.6760 C   0  0  0  0  0  0  0  0  0  0  0  0
   -0.5100    3.6670   -1.5960 C   0  0  0  0  0  0  0  0  0  0  0  0
   -0.6410    4.9170   -1.0020 C   0  0  0  0  0  0  0  0  0  0  0  0
   -1.8820    5.5200   -0.9340 C   0  0  0  0  0  0  0  0  0  0  0  0
   -2.9890    4.8800   -1.4560 C   0  0  0  0  0  0  0  0  0  0  0  0
   -2.8420    3.6370   -2.0430 C   0  0  0  0  0  0  0  0  0  0  0  0
   -1.6100    3.0340   -2.1130 C   0  0  0  0  0  0  0  0  0  0  0  0
   -0.7500   -0.9850    1.7220 C   0  0  0  0  0  0  0  0  0  0  0  0
   -0.4560   -2.1710    2.1070 O   0  0  0  0  0  0  0  0  0  0  0  0
   -2.1370   -0.6470    1.7860 N   0  0  0  0  0  0  0  0  0  0  0  0
   -3.1750   -1.5390    2.2490 C   0  0  1  0  0  0  0  0  0  0  0  0
   -3.8640   -0.8980    3.3900 C   0  0  0  0  0  0  0  0  0  0  0  0
   -3.4820    0.2370    3.7590 O   0  0  0  0  0  0  0  0  0  0  0  0
   -4.9080   -1.4750    4.0800 O   0  0  0  0  0  0  0  0  0  0  0  0
   -4.1360   -1.8560    1.1430 C   0  0  0  0  0  0  0  0  0  0  0  0
   -4.6140   -3.1380    0.9580 C   0  0  0  0  0  0  0  0  0  0  0  0
   -5.4980   -3.4270   -0.0830 C   0  0  0  0  0  0  0  0  0  0  0  0
   -5.9190   -2.4470   -0.9590 C   0  0  0  0  0  0  0  0  0  0  0  0
   -5.4370   -1.1750   -0.7680 C   0  0  0  0  0  0  0  0  0  0  0  0
   -4.5620   -0.8830    0.2640 C   0  0  0  0  0  0  0  0  0  0  0  0
    6.7070   -1.9540   -2.0080 C   0  0  0  0  0  0  0  0  0  0  0  0
    6.1350   -2.4980   -3.0020 O   0  0  0  0  0  0  0  0  0  0  0  0
    7.9770   -1.4440   -2.1880 O   0  0  0  0  0  0  0  0  0  0  0  0
  2  1  1  1
  2  3  1  0
  2 31  1  0
  3  4  1  0
  4  5  1  0
  5  6  2  0
  5  7  1  0
  7  8  1  0
  8  9  1  6
  8 18  1  0
  9 10  1  0
 10 11  1  0
 11 12  1  0
 12 13  2  0
 12 17  1  0
 13 14  1  0
 14 15  2  0
 15 16  1  0
 16 17  2  0
 18 19  2  0
 18 20  1  0
 21 20  1  6
 21 22  1  0
 21 25  1  0
 22 23  2  0
 22 24  1  0
 25 26  2  0
 25 30  1  0
 26 27  1  0
 27 28  2  0
 28 29  1  0
 29 30  2  0
 31 32  2  0
 31 33  1  0
M  CHG  1   1   1
M  END
