
     RDKit          3D

 32 36  0  0  0  0  0  0  0  0999 V2000
   -2.1190   -1.7600   -2.4420 C   0  0  0  0  0  0  0  0  0  0  0  0
   -2.1730   -1.1380   -1.0420 C   0  0  1  0  0  0  0  0  0  0  0  0
   -1.5750   -1.9860   -0.0630 N   0  0  0  0  0  0  0  0  0  0  0  0
   -0.3960   -1.4860    0.5670 C   0  0  0  0  0  0  0  0  0  0  0  0
    0.4900   -0.8200   -0.4350 C   0  0  2  0  0  0  0  0  0  0  0  0
    1.1480   -1.9600   -1.2350 C   0  0  0  0  0  0  0  0  0  0  0  0
    2.5910   -2.0000   -0.7360 C   0  0  0  0  0  0  0  0  0  0  0  0
    2.8460   -0.5400   -0.5390 C   0  0  2  0  0  0  0  0  0  0  0  0
    4.0850   -0.2510    0.1480 N   0  0  0  0  0  0  0  0  0  0  0  0
    5.1440    0.5170   -0.3990 C   0  0  0  0  0  0  0  0  0  0  0  0
    4.9840    0.9730   -1.5610 O   0  0  0  0  0  0  0  0  0  0  0  0
    6.3810    0.7820    0.3400 C   0  0  0  0  0  0  0  0  0  0  0  0
    6.6680    0.3640    1.5520 C   0  0  0  0  0  0  0  0  0  0  0  0
    8.0140    0.8340    1.9610 C   0  0  2  0  0  0  0  0  0  0  0  0
    7.9410    1.8920    2.8660 O   0  0  0  0  0  0  0  0  0  0  0  0
    8.6070    1.2740    0.6410 C   0  0  0  0  0  0  0  0  0  0  0  0
    7.4520    1.5230   -0.1340 O   0  0  0  0  0  0  0  0  0  0  0  0
    1.6480   -0.0960    0.2520 C   0  0  0  0  0  0  0  0  0  0  0  0
   -0.1290    0.1210   -1.2950 N   0  0  0  0  0  0  0  0  0  0  0  0
   -1.5860    0.2360   -1.1530 C   0  0  2  0  0  0  0  0  0  0  0  0
   -1.9520    1.0630   -0.0200 C   0  0  0  0  0  0  0  0  0  0  0  0
   -1.0230    1.6370    0.6920 O   0  0  0  0  0  0  0  0  0  0  0  0
   -3.2430    1.3260    0.4340 N   0  0  0  0  0  0  0  0  0  0  0  0
   -3.4830    1.8480    1.7870 C   0  0  0  0  0  0  0  0  0  0  0  0
   -4.7380    1.3530    2.4140 C   0  0  0  0  0  0  0  0  0  0  0  0
   -5.3570    0.1390    1.7530 C   0  0  0  0  0  0  0  0  0  0  0  0
   -5.4800    0.4440    0.2790 C   0  0  0  0  0  0  0  0  0  0  0  0
   -6.6120    0.1490   -0.4100 C   0  0  0  0  0  0  0  0  0  0  0  0
   -6.7050    0.4650   -1.7660 C   0  0  0  0  0  0  0  0  0  0  0  0
   -5.6030    1.0800   -2.3490 C   0  0  0  0  0  0  0  0  0  0  0  0
   -4.4640    1.3750   -1.6500 C   0  0  0  0  0  0  0  0  0  0  0  0
   -4.3920    1.0570   -0.3290 C   0  0  0  0  0  0  0  0  0  0  0  0
  2  1  1  6
  2  3  1  0
  2 20  1  0
  3  4  1  0
  5  4  1  1
  5  6  1  0
  5 18  1  0
  5 19  1  0
  6  7  1  0
  7  8  1  0
  8  9  1  1
  8 18  1  0
  9 10  1  0
 10 11  2  0
 10 12  1  0
 12 13  2  0
 12 17  1  0
 13 14  1  0
 14 15  1  1
 14 16  1  0
 16 17  1  0
 19 20  1  0
 20 21  1  1
 21 22  2  0
 21 23  1  0
 23 24  1  0
 23 32  1  0
 24 25  1  0
 25 26  1  0
 26 27  1  0
 27 28  2  0
 27 32  1  0
 28 29  1  0
 29 30  2  0
 30 31  1  0
 31 32  2  0
M  CHG  1   3   1
M  END
