
     RDKit          3D

 33 36  0  0  0  0  0  0  0  0999 V2000
    6.3090    3.6610   -1.9580 C   0  0  0  0  0  0  0  0  0  0  0  0
    5.8940    2.3930   -1.2860 C   0  0  0  0  0  0  0  0  0  0  0  0
    4.5400    2.1870   -1.0280 C   0  0  0  0  0  0  0  0  0  0  0  0
    4.0960    1.0380   -0.4110 C   0  0  0  0  0  0  0  0  0  0  0  0
    2.6830    0.8910   -0.1730 C   0  0  0  0  0  0  0  0  0  0  0  0
    1.8760    1.8210   -0.5470 O   0  0  0  0  0  0  0  0  0  0  0  0
    2.0030   -0.1400    0.4230 O   0  0  0  0  0  0  0  0  0  0  0  0
    0.6330   -0.1960    0.6100 C   0  0  1  0  0  0  0  0  0  0  0  0
   -0.0590   -1.3320   -0.0630 C   0  0  0  0  0  0  0  0  0  0  0  0
   -1.4960   -1.2080    0.2210 N   0  0  0  0  0  0  0  0  0  0  0  0
   -2.1880   -0.2790   -0.6000 C   0  0  0  0  0  0  0  0  0  0  0  0
   -1.5510    0.3800   -1.4900 O   0  0  0  0  0  0  0  0  0  0  0  0
   -3.6210   -0.0510   -0.4600 C   0  0  2  0  0  0  0  0  0  0  0  0
   -4.4990   -1.2080   -0.8670 C   0  0  0  0  0  0  0  0  0  0  0  0
   -5.8080   -1.0320   -0.0880 C   0  0  0  0  0  0  0  0  0  0  0  0
   -6.1420    0.4320    0.0100 C   0  0  0  0  0  0  0  0  0  0  0  0
   -5.5930    1.2600   -1.1200 C   0  0  1  0  0  0  0  0  0  0  0  0
   -5.8570    2.6640   -0.7650 N   0  0  0  0  0  0  0  0  0  0  0  0
   -4.0960    1.1440   -1.2770 C   0  0  0  0  0  0  0  0  0  0  0  0
   -2.2360   -1.9210    1.2420 C   0  0  1  0  0  0  0  0  0  0  0  0
   -2.1530   -3.4280    1.0090 C   0  0  0  0  0  0  0  0  0  0  0  0
   -1.5570   -1.7170    2.5760 C   0  0  0  0  0  0  0  0  0  0  0  0
   -2.0610   -2.3910    3.5050 O   0  0  0  0  0  0  0  0  0  0  0  0
   -0.4680   -0.9040    2.9290 N   0  0  0  0  0  0  0  0  0  0  0  0
    0.3680   -0.1320    2.0750 C   0  0  0  0  0  0  0  0  0  0  0  0
    0.9950    0.7700    2.6890 O   0  0  0  0  0  0  0  0  0  0  0  0
    5.0040    0.0870   -0.0480 C   0  0  0  0  0  0  0  0  0  0  0  0
    4.6690   -1.0870    0.5680 C   0  0  0  0  0  0  0  0  0  0  0  0
    5.6320   -2.0220    0.9170 C   0  0  0  0  0  0  0  0  0  0  0  0
    6.9660   -1.7880    0.6470 C   0  0  0  0  0  0  0  0  0  0  0  0
    7.2930   -0.6040    0.0260 C   0  0  0  0  0  0  0  0  0  0  0  0
    6.3570    0.3300   -0.3240 C   0  0  0  0  0  0  0  0  0  0  0  0
    6.7740    1.4720   -0.9350 N   0  0  0  0  0  0  0  0  0  0  0  0
  1  2  1  0
  2  3  2  0
  2 33  1  0
  3  4  1  0
  4  5  1  0
  4 27  2  0
  5  6  2  0
  5  7  1  0
  8  7  1  1
  8  9  1  0
  8 25  1  0
  9 10  1  0
 10 11  1  0
 10 20  1  0
 11 12  2  0
 13 11  1  6
 13 14  1  0
 13 19  1  0
 14 15  1  0
 15 16  1  0
 16 17  1  0
 17 18  1  1
 17 19  1  0
 20 21  1  6
 20 22  1  0
 22 23  2  0
 22 24  1  0
 24 25  1  0
 25 26  2  0
 27 28  1  0
 27 32  1  0
 28 29  2  0
 29 30  1  0
 30 31  2  0
 31 32  1  0
 32 33  2  0
M  CHG  2  18   1  33   1
M  END
