
     RDKit          3D

 32 35  0  0  0  0  0  0  0  0999 V2000
    8.4730    2.8090   -0.9560 C   0  0  0  0  0  0  0  0  0  0  0  0
    7.2090    2.5410   -0.2240 C   0  0  0  0  0  0  0  0  0  0  0  0
    7.2690    2.3600    1.1340 C   0  0  0  0  0  0  0  0  0  0  0  0
    6.1030    2.1130    1.8160 C   0  0  0  0  0  0  0  0  0  0  0  0
    4.9250    2.0560    1.1160 C   0  0  0  0  0  0  0  0  0  0  0  0
    4.8120    2.2280   -0.2430 C   0  0  0  0  0  0  0  0  0  0  0  0
    3.6460    2.1110   -1.0500 C   0  0  0  0  0  0  0  0  0  0  0  0
    2.4920    1.6470   -1.0680 C   0  0  0  0  0  0  0  0  0  0  0  0
    1.5870    0.9030   -0.2580 C   0  0  0  0  0  0  0  0  0  0  0  0
    1.8900    0.3090    1.0430 C   0  0  0  0  0  0  0  0  0  0  0  0
    2.9670   -0.6570    0.8950 N   0  0  1  0  0  0  0  0  0  0  0  0
    3.5710   -1.0400    2.1460 C   0  0  0  0  0  0  0  0  0  0  0  0
    4.2810   -2.3360    1.7280 C   0  0  0  0  0  0  0  0  0  0  0  0
    3.1600   -3.0320    0.9860 C   0  0  0  0  0  0  0  0  0  0  0  0
    2.3880   -1.9110    0.3740 C   0  0  0  0  0  0  0  0  0  0  0  0
    0.3240    0.6470   -0.7030 C   0  0  0  0  0  0  0  0  0  0  0  0
   -0.6840   -0.0730   -0.0200 N   0  0  0  0  0  0  0  0  0  0  0  0
   -1.8520   -0.1020   -0.8470 C   0  0  0  0  0  0  0  0  0  0  0  0
   -3.1070   -0.7130   -0.5680 N   0  0  0  0  0  0  0  0  0  0  0  0
   -3.4860   -1.7040   -1.5550 C   0  0  0  0  0  0  0  0  0  0  0  0
   -4.9860   -1.6690   -1.8190 C   0  0  0  0  0  0  0  0  0  0  0  0
   -5.4590   -0.2590   -1.5730 C   0  0  0  0  0  0  0  0  0  0  0  0
   -6.0970   -0.1870   -0.2290 C   0  0  1  0  0  0  0  0  0  0  0  0
   -7.3160   -0.9300   -0.1070 N   0  0  0  0  0  0  0  0  0  0  0  0
   -7.8040   -0.7510    1.2590 C   0  0  0  0  0  0  0  0  0  0  0  0
   -8.3170   -0.5930   -1.0770 C   0  0  0  0  0  0  0  0  0  0  0  0
   -5.1410   -0.7190    0.8050 C   0  0  0  0  0  0  0  0  0  0  0  0
   -3.7310   -0.2210    0.6260 C   0  0  0  0  0  0  0  0  0  0  0  0
   -1.6160    0.5290   -1.9350 N   0  0  0  0  0  0  0  0  0  0  0  0
   -0.2730    1.0470   -1.9600 C   0  0  0  0  0  0  0  0  0  0  0  0
    0.1440    1.6950   -2.9470 O   0  0  0  0  0  0  0  0  0  0  0  0
    6.0400    2.4740   -0.8510 N   0  0  0  0  0  0  0  0  0  0  0  0
  1  2  1  0
  2  3  2  0
  2 32  1  0
  3  4  1  0
  4  5  2  0
  5  6  1  0
  6  7  1  0
  6 32  2  0
  7  8  2  3
  8  9  1  0
  9 10  1  0
  9 16  2  3
 11 10  1  1
 11 12  1  0
 11 15  1  0
 12 13  1  0
 13 14  1  0
 14 15  1  0
 16 17  1  0
 16 30  1  0
 17 18  1  0
 18 19  1  0
 18 29  2  0
 19 20  1  0
 19 28  1  0
 20 21  1  0
 21 22  1  0
 22 23  1  0
 23 24  1  6
 23 27  1  0
 24 25  1  0
 24 26  1  0
 27 28  1  0
 29 30  1  0
 30 31  2  0
M  CHG  2  11   1  32   1
M  END
