
     RDKit          3D

 33 36  0  0  0  0  0  0  0  0999 V2000
    4.3120    3.1340    0.2220 C   0  0  0  0  0  0  0  0  0  0  0  0
    3.8230    2.7690   -1.1630 C   0  0  0  0  0  0  0  0  0  0  0  0
    3.4480    1.3120   -1.2470 C   0  0  1  0  0  0  0  0  0  0  0  0
    4.6140    0.4300   -0.9350 C   0  0  0  0  0  0  0  0  0  0  0  0
    2.3520    1.1010   -0.2970 N   0  0  0  0  0  0  0  0  0  0  0  0
    2.2480   -0.3120    0.0260 C   0  0  0  0  0  0  0  0  0  0  0  0
    0.7470   -0.7020    0.1540 C   0  0  2  0  0  0  0  0  0  0  0  0
    0.2230    0.0390    1.1690 O   0  0  0  0  0  0  0  0  0  0  0  0
   -0.4790    1.1400    1.3810 C   0  0  0  0  0  0  0  0  0  0  0  0
   -0.0730    2.3390    1.2650 O   0  0  0  0  0  0  0  0  0  0  0  0
   -1.9240    1.0540    1.8110 C   0  0  0  0  0  0  0  0  0  0  0  0
   -2.6910    2.2690    1.4070 C   0  0  0  0  0  0  0  0  0  0  0  0
   -2.2190    3.4500    2.0110 C   0  0  0  0  0  0  0  0  0  0  0  0
   -2.7480    4.6840    1.7860 C   0  0  0  0  0  0  0  0  0  0  0  0
   -3.7800    4.7490    0.9360 N   0  0  0  0  0  0  0  0  0  0  0  0
   -4.2450    3.6480    0.3550 C   0  0  0  0  0  0  0  0  0  0  0  0
   -3.7310    2.3500    0.5560 C   0  0  0  0  0  0  0  0  0  0  0  0
   -4.4430    1.2830   -0.1640 C   0  0  0  0  0  0  0  0  0  0  0  0
   -3.7230    0.3120   -0.8840 N   0  0  0  0  0  0  0  0  0  0  0  0
   -2.6050    0.7220   -1.6600 C   0  0  0  0  0  0  0  0  0  0  0  0
   -2.0440   -0.5420   -2.3370 C   0  0  2  0  0  0  0  0  0  0  0  0
   -3.0590   -0.9640   -3.2180 O   0  0  0  0  0  0  0  0  0  0  0  0
   -1.9090   -1.5830   -1.2780 C   0  0  0  0  0  0  0  0  0  0  0  0
   -0.8530   -2.5540   -1.4960 N   0  0  0  0  0  0  0  0  0  0  0  0
    0.0410   -3.0330   -0.4990 C   0  0  0  0  0  0  0  0  0  0  0  0
    0.1680   -4.4270   -0.3100 C   0  0  0  0  0  0  0  0  0  0  0  0
    0.9800   -4.9640    0.6570 C   0  0  0  0  0  0  0  0  0  0  0  0
    1.6920   -4.1140    1.4650 C   0  0  0  0  0  0  0  0  0  0  0  0
    1.5670   -2.7560    1.2760 C   0  0  0  0  0  0  0  0  0  0  0  0
    0.7550   -2.1770    0.3060 C   0  0  0  0  0  0  0  0  0  0  0  0
    2.4360   -4.8740    2.3600 O   0  0  0  0  0  0  0  0  0  0  0  0
    1.8680   -6.1740    2.3270 C   0  0  0  0  0  0  0  0  0  0  0  0
    1.2800   -6.2780    1.0460 O   0  0  0  0  0  0  0  0  0  0  0  0
  1  2  1  0
  2  3  1  0
  3  4  1  1
  3  5  1  0
  5  6  1  0
  7  6  1  1
  7  8  1  0
  7 30  1  0
  8  9  1  0
  9 10  2  0
  9 11  1  0
 11 12  1  0
 12 13  2  0
 12 17  1  0
 13 14  1  0
 14 15  2  0
 15 16  1  0
 16 17  2  0
 17 18  1  0
 18 19  1  0
 19 20  1  0
 20 21  1  0
 21 22  1  6
 21 23  1  0
 23 24  1  0
 24 25  1  0
 25 26  2  0
 25 30  1  0
 26 27  1  0
 27 28  2  0
 27 33  1  0
 28 29  1  0
 28 31  1  0
 29 30  2  0
 31 32  1  0
 32 33  1  0
M  CHG  2   5   1  19   1
M  END
