
     RDKit          3D

 22 23  0  0  0  0  0  0  0  0999 V2000
   -6.3160    1.5830    0.6800 N   0  0  0  0  0  0  0  0  0  0  0  0
   -4.9610    1.2390    0.4140 C   0  0  0  0  0  0  0  0  0  0  0  0
   -4.5430   -0.0530    0.6580 C   0  0  0  0  0  0  0  0  0  0  0  0
   -3.2360   -0.4090    0.4080 C   0  0  0  0  0  0  0  0  0  0  0  0
   -2.7730   -1.7150    0.6440 O   0  0  0  0  0  0  0  0  0  0  0  0
   -2.3180    0.4930   -0.0850 C   0  0  0  0  0  0  0  0  0  0  0  0
   -0.9990    0.1380   -0.3380 O   0  0  0  0  0  0  0  0  0  0  0  0
   -0.5810   -0.3630   -1.5950 C   0  0  0  0  0  0  0  0  0  0  0  0
    0.9030   -0.6480   -1.5330 C   0  0  0  0  0  0  0  0  0  0  0  0
    1.4080   -1.0990   -2.5830 O   0  0  0  0  0  0  0  0  0  0  0  0
    1.6450   -0.4150   -0.3650 N   0  0  0  0  0  0  0  0  0  0  0  0
    3.0210   -0.6570   -0.2240 C   0  0  0  0  0  0  0  0  0  0  0  0
    3.8100   -1.3380   -1.1090 C   0  0  0  0  0  0  0  0  0  0  0  0
    5.1870   -1.5050   -0.8700 C   0  0  0  0  0  0  0  0  0  0  0  0
    5.8880   -2.1920   -1.8000 F   0  0  0  0  0  0  0  0  0  0  0  0
    5.7800   -0.9880    0.2610 C   0  0  0  0  0  0  0  0  0  0  0  0
    4.9930   -0.2910    1.1750 C   0  0  0  0  0  0  0  0  0  0  0  0
    5.7580    0.3870    2.6510 S   0  0  0  0  0  0  0  0  0  0  0  0
    3.6730   -0.1550    0.9040 C   0  0  0  0  0  0  0  0  0  0  0  0
   -2.7500    1.7810   -0.3240 C   0  0  0  0  0  0  0  0  0  0  0  0
   -1.8680    2.6900   -0.8090 F   0  0  0  0  0  0  0  0  0  0  0  0
   -4.0480    2.1580   -0.0820 C   0  0  0  0  0  0  0  0  0  0  0  0
  1  2  1  0
  2  3  2  0
  2 22  1  0
  3  4  1  0
  4  5  1  0
  4  6  2  0
  6  7  1  0
  6 20  1  0
  7  8  1  0
  8  9  1  0
  9 10  2  0
  9 11  1  0
 11 12  1  0
 12 13  2  0
 12 19  1  0
 13 14  1  0
 14 15  1  0
 14 16  2  0
 16 17  1  0
 17 18  1  0
 17 19  2  0
 20 21  1  0
 20 22  2  0
M  END
