
     RDKit          3D

 21 22  0  0  0  0  0  0  0  0999 V2000
   -5.3780    0.2830    0.4520 C   0  0  0  0  0  0  0  0  0  0  0  0
   -4.1510    0.5630   -0.3110 C   0  0  0  0  0  0  0  0  0  0  0  0
   -4.0030    1.1430   -1.5400 C   0  0  0  0  0  0  0  0  0  0  0  0
   -2.7100    1.2110   -1.8750 N   0  0  0  0  0  0  0  0  0  0  0  0
   -1.9480    0.6640   -0.8540 C   0  0  0  0  0  0  0  0  0  0  0  0
   -0.4900    0.6000   -0.8890 C   0  0  0  0  0  0  0  0  0  0  0  0
    0.1140    1.2550   -1.7890 O   0  0  0  0  0  0  0  0  0  0  0  0
    0.2900   -0.1290   -0.0100 N   0  0  0  0  0  0  0  0  0  0  0  0
    1.6960   -0.2630    0.0600 C   0  0  0  0  0  0  0  0  0  0  0  0
    2.5370    0.3750   -0.8200 C   0  0  0  0  0  0  0  0  0  0  0  0
    3.9410    0.2440   -0.7540 C   0  0  0  0  0  0  0  0  0  0  0  0
    4.9890    1.0680   -1.8870 S   0  0  2  0  0  0  0  0  0  0  0  0
    5.3030    0.2260   -3.0810 O   0  0  0  0  0  0  0  0  0  0  0  0
    6.2600    1.4860   -1.2330 O   0  0  0  0  0  0  0  0  0  0  0  0
    4.4170   -0.5650    0.2510 C   0  0  0  0  0  0  0  0  0  0  0  0
    3.5870   -1.2120    1.1410 C   0  0  0  0  0  0  0  0  0  0  0  0
    4.1110   -2.0020    2.1180 F   0  0  0  0  0  0  0  0  0  0  0  0
    2.2220   -1.0660    1.0520 C   0  0  0  0  0  0  0  0  0  0  0  0
    1.3560   -1.7950    2.0500 C   0  0  0  0  0  0  0  0  0  0  0  0
   -2.8430    0.2690    0.1050 C   0  0  0  0  0  0  0  0  0  0  0  0
   -2.5640   -0.3550    1.4130 C   0  0  0  0  0  0  0  0  0  0  0  0
  1  2  1  0
  2  3  2  0
  2 20  1  0
  3  4  1  0
  4  5  1  0
  5  6  1  0
  5 20  2  0
  6  7  2  0
  6  8  1  0
  8  9  1  0
  9 10  2  0
  9 18  1  0
 10 11  1  0
 12 11  1  1
 11 15  2  0
 12 13  2  0
 12 14  2  0
 15 16  1  0
 16 17  1  0
 16 18  2  0
 18 19  1  0
 20 21  1  0
M  END
