
     RDKit          3D

 22 23  0  0  0  0  0  0  0  0999 V2000
   -5.0140    0.7220    1.0900 C   0  0  0  0  0  0  0  0  0  0  0  0
   -3.8440   -0.1870    1.0510 C   0  0  0  0  0  0  0  0  0  0  0  0
   -3.6280   -0.9940    2.0610 C   0  0  0  0  0  0  0  0  0  0  0  0
   -2.5890   -1.8520    2.1010 F   0  0  0  0  0  0  0  0  0  0  0  0
   -4.4630   -0.9920    3.1230 F   0  0  0  0  0  0  0  0  0  0  0  0
   -2.9320   -0.1430   -0.1480 C   0  0  0  0  0  0  0  0  0  0  0  0
   -3.4990   -0.0650   -1.3780 C   0  0  0  0  0  0  0  0  0  0  0  0
   -4.7990   -0.0200   -1.8360 N   0  0  0  0  0  0  0  0  0  0  0  0
   -2.0200   -0.0220   -2.4800 S   0  0  0  0  0  0  0  0  0  0  0  0
   -0.8410   -0.1130   -1.1700 C   0  0  0  0  0  0  0  0  0  0  0  0
    0.5600   -0.1250   -1.1830 C   0  0  0  0  0  0  0  0  0  0  0  0
    1.2310   -0.0680   -2.4870 C   0  0  0  0  0  0  0  0  0  0  0  0
    1.2500   -0.1960    0.0070 C   0  0  0  0  0  0  0  0  0  0  0  0
    2.6870   -0.2050    0.0770 C   0  0  0  0  0  0  0  0  0  0  0  0
    3.4480   -0.1220   -0.9360 O   0  0  0  0  0  0  0  0  0  0  0  0
    3.3350   -0.3070    1.3000 O   0  0  0  0  0  0  0  0  0  0  0  0
    4.7310   -0.3160    1.4090 C   0  0  0  0  0  0  0  0  0  0  0  0
    5.4100    0.9130    0.8990 C   0  0  0  0  0  0  0  0  0  0  0  0
    6.7930    0.7190    1.0930 O   0  0  0  0  0  0  0  0  0  0  0  0
    0.4960   -0.2510    1.1410 C   0  0  0  0  0  0  0  0  0  0  0  0
   -0.8280   -0.2370    1.1250 N   0  0  0  0  0  0  0  0  0  0  0  0
   -1.5880   -0.1680   -0.0270 C   0  0  0  0  0  0  0  0  0  0  0  0
  1  2  1  0
  2  3  2  3
  2  6  1  0
  3  4  1  0
  3  5  1  0
  6  7  2  0
  6 22  1  0
  7  8  1  0
  7  9  1  0
  9 10  1  0
 10 11  2  0
 10 22  1  0
 11 12  1  0
 11 13  1  0
 13 14  1  0
 13 20  2  0
 14 15  2  0
 14 16  1  0
 16 17  1  0
 17 18  1  0
 18 19  1  0
 20 21  1  0
 21 22  2  0
M  END
