
     RDKit          3D

  9 10  0  0  0  0  0  0  0  0999 V2000
    2.0270    0.9090    0.0690 C   0  0  0  0  0  0  0  0  0  0  0  0
    2.1350   -0.4640    0.0090 C   0  0  0  0  0  0  0  0  0  0  0  0
    1.0000   -1.2720   -0.0430 C   0  0  0  0  0  0  0  0  0  0  0  0
   -0.2640   -0.7130   -0.0350 C   0  0  0  0  0  0  0  0  0  0  0  0
   -1.4880   -1.2330   -0.0760 N   0  0  0  0  0  0  0  0  0  0  0  0
   -2.4380   -0.2820   -0.0470 C   0  0  0  0  0  0  0  0  0  0  0  0
   -1.7440    0.9150    0.0160 C   0  0  0  0  0  0  0  0  0  0  0  0
   -0.3830    0.6780    0.0250 C   0  0  0  0  0  0  0  0  0  0  0  0
    0.7590    1.4480    0.0750 C   0  0  0  0  0  0  0  0  0  0  0  0
  1  2  2  0
  1  9  1  0
  2  3  1  0
  3  4  2  0
  4  5  1  0
  4  8  1  0
  5  6  1  0
  6  7  2  0
  7  8  1  0
  8  9  2  0
M  END
