
     RDKit          3D

 24 25  0  0  0  0  0  0  0  0999 V2000
   -8.3770   -1.5180   -0.7160 C   0  0  0  0  0  0  0  0  0  0  0  0
   -7.7170   -0.2770   -0.8350 O   0  0  0  0  0  0  0  0  0  0  0  0
   -6.3170   -0.1770   -0.4560 C   0  0  0  0  0  0  0  0  0  0  0  0
   -5.9020   -1.2750   -0.0630 O   0  0  0  0  0  0  0  0  0  0  0  0
   -5.6720    1.0880   -0.5850 C   0  0  0  0  0  0  0  0  0  0  0  0
   -6.6260    2.2320   -1.1420 C   0  0  0  0  0  0  0  0  0  0  0  0
   -4.5130    1.5360   -0.3620 C   0  0  0  0  0  0  0  0  0  0  0  0
   -3.2600    1.1680    0.0910 N   0  0  0  0  0  0  0  0  0  0  0  0
   -2.6640   -0.0050    0.5540 C   0  0  0  0  0  0  0  0  0  0  0  0
   -3.4240   -1.0320    0.5910 O   0  0  0  0  0  0  0  0  0  0  0  0
   -1.2970   -0.1810    0.9920 C   0  0  0  0  0  0  0  0  0  0  0  0
   -0.2850    0.5870    1.0930 C   0  0  0  0  0  0  0  0  0  0  0  0
   -0.1700    2.0070    0.7730 C   0  0  0  0  0  0  0  0  0  0  0  0
    0.9430   -0.0490    1.6050 N   0  0  0  0  0  0  0  0  0  0  0  0
    2.1380   -0.0260    0.8480 C   0  0  0  0  0  0  0  0  0  0  0  0
    2.3700    0.6410   -0.2120 N   0  0  0  0  0  0  0  0  0  0  0  0
    3.6630    0.4260   -0.7020 N   0  0  0  0  0  0  0  0  0  0  0  0
    4.2900   -0.4010    0.0580 C   0  0  0  0  0  0  0  0  0  0  0  0
    5.6730   -0.8560   -0.1560 C   0  0  0  0  0  0  0  0  0  0  0  0
    6.3390   -1.7130    0.6210 C   0  0  0  0  0  0  0  0  0  0  0  0
    7.7200   -1.9250    0.0760 C   0  0  0  0  0  0  0  0  0  0  0  0
    7.9310   -0.5970   -0.6690 C   0  0  0  0  0  0  0  0  0  0  0  0
    6.5530   -0.4390   -1.2730 C   0  0  0  0  0  0  0  0  0  0  0  0
    3.3700   -0.7920    1.1560 C   0  0  0  0  0  0  0  0  0  0  0  0
  1  2  1  0
  2  3  1  0
  3  4  2  0
  3  5  1  0
  5  6  1  0
  5  7  2  3
  7  8  1  0
  8  9  1  0
  9 10  2  0
  9 11  1  0
 11 12  2  3
 12 13  1  0
 12 14  1  0
 14 15  1  0
 15 16  2  0
 15 24  1  0
 16 17  1  0
 17 18  2  0
 18 19  1  0
 18 24  1  0
 19 20  2  0
 19 23  1  0
 20 21  1  0
 21 22  1  0
 22 23  1  0
M  END
