
     RDKit          3D

 24 25  0  0  0  0  0  0  0  0999 V2000
   -5.8260    2.2550    0.3230 C   0  0  0  0  0  0  0  0  0  0  0  0
   -4.4330    1.8430    0.5350 C   0  0  0  0  0  0  0  0  0  0  0  0
   -4.0480    0.5810    0.7360 C   0  0  0  0  0  0  0  0  0  0  0  0
   -2.6690    0.3140    0.9270 N   0  0  0  0  0  0  0  0  0  0  0  0
   -1.9590    0.5810    2.1380 N   0  0  0  0  0  0  0  0  0  0  0  0
   -0.6220    0.1900    1.9430 C   0  0  0  0  0  0  0  0  0  0  0  0
    0.4260    0.3270    3.0180 C   0  0  0  0  0  0  0  0  0  0  0  0
   -0.4500   -0.2930    0.7290 C   0  0  0  0  0  0  0  0  0  0  0  0
    0.8260   -0.7680    0.2550 C   0  0  0  0  0  0  0  0  0  0  0  0
    1.9940   -0.0250    0.3920 C   0  0  0  0  0  0  0  0  0  0  0  0
    3.2340   -0.4630   -0.0230 C   0  0  0  0  0  0  0  0  0  0  0  0
    4.4170    0.3690    0.1420 C   0  0  0  0  0  0  0  0  0  0  0  0
    4.2650    1.5050    0.6630 O   0  0  0  0  0  0  0  0  0  0  0  0
    5.7270    0.0120   -0.2330 N   0  0  0  0  0  0  0  0  0  0  0  0
    6.8590    0.9330   -0.0240 C   0  0  0  0  0  0  0  0  0  0  0  0
    3.3360   -1.6730   -0.5910 N   0  0  0  0  0  0  0  0  0  0  0  0
    2.2210   -2.4470   -0.7500 C   0  0  0  0  0  0  0  0  0  0  0  0
    2.3690   -3.5880   -1.2950 O   0  0  0  0  0  0  0  0  0  0  0  0
    0.9790   -2.0030   -0.3330 C   0  0  0  0  0  0  0  0  0  0  0  0
   -1.7610   -0.2310    0.0230 C   0  0  0  0  0  0  0  0  0  0  0  0
   -1.8400   -0.6490   -1.2270 C   0  0  0  0  0  0  0  0  0  0  0  0
   -2.9840   -0.6590   -2.0700 C   0  0  0  0  0  0  0  0  0  0  0  0
   -2.8250   -1.1930   -3.4850 C   0  0  0  0  0  0  0  0  0  0  0  0
   -4.1140   -0.2740   -1.7770 O   0  0  0  0  0  0  0  0  0  0  0  0
  1  2  1  0
  2  3  2  3
  3  4  1  0
  4  5  1  0
  4 20  1  0
  5  6  1  0
  6  7  1  0
  6  8  2  0
  8  9  1  0
  8 20  1  0
  9 10  1  0
  9 19  2  0
 10 11  2  0
 11 12  1  0
 11 16  1  0
 12 13  2  0
 12 14  1  0
 14 15  1  0
 16 17  1  0
 17 18  2  0
 17 19  1  0
 20 21  2  3
 21 22  1  0
 22 23  1  0
 22 24  2  0
M  END
