
     RDKit          3D

 24 25  0  0  0  0  0  0  0  0999 V2000
    3.9960    1.0030    2.6040 C   0  0  0  0  0  0  0  0  0  0  0  0
    3.9170    0.9410    1.1270 C   0  0  0  0  0  0  0  0  0  0  0  0
    4.7990    0.1610    0.4620 C   0  0  0  0  0  0  0  0  0  0  0  0
    5.8090   -0.6020    1.2160 C   0  0  0  0  0  0  0  0  0  0  0  0
    6.7040   -1.3430    0.3190 C   0  0  0  0  0  0  0  0  0  0  0  0
    6.6100   -1.3500   -0.9970 C   0  0  0  0  0  0  0  0  0  0  0  0
    5.5900   -0.6040   -1.7080 C   0  0  0  0  0  0  0  0  0  0  0  0
    4.7210    0.1180   -0.9880 C   0  0  0  0  0  0  0  0  0  0  0  0
    3.6530    0.8910   -1.7070 C   0  0  0  0  0  0  0  0  0  0  0  0
    2.4240    0.3340   -1.2420 N   0  0  0  0  0  0  0  0  0  0  0  0
    1.2400    0.8090   -1.7030 C   0  0  0  0  0  0  0  0  0  0  0  0
    1.2110    1.7720   -2.5670 O   0  0  0  0  0  0  0  0  0  0  0  0
   -0.0280    0.4550   -1.4220 N   0  0  0  0  0  0  0  0  0  0  0  0
   -1.2640    0.0440   -1.0890 C   0  0  0  0  0  0  0  0  0  0  0  0
   -2.1270    0.7520   -1.7460 O   0  0  0  0  0  0  0  0  0  0  0  0
   -1.6430   -0.9290   -0.2320 N   0  0  0  0  0  0  0  0  0  0  0  0
   -3.0220   -1.2460    0.0060 C   0  0  0  0  0  0  0  0  0  0  0  0
   -3.7050   -0.0530    0.5600 C   0  0  0  0  0  0  0  0  0  0  0  0
   -2.9910    0.9950    0.7240 O   0  0  0  0  0  0  0  0  0  0  0  0
   -5.0750   -0.0690    0.8920 N   0  0  0  0  0  0  0  0  0  0  0  0
   -5.8370    1.0250    1.4340 C   0  0  0  0  0  0  0  0  0  0  0  0
   -7.1270    0.9310    0.6150 C   0  0  0  0  0  0  0  0  0  0  0  0
   -7.3720   -0.5750    0.6690 C   0  0  0  0  0  0  0  0  0  0  0  0
   -5.9730   -1.1840    0.7520 C   0  0  0  0  0  0  0  0  0  0  0  0
  1  2  1  0
  2  3  2  3
  3  4  1  0
  3  8  1  0
  4  5  1  0
  5  6  2  0
  6  7  1  0
  7  8  2  0
  8  9  1  0
  9 10  1  0
 10 11  1  0
 11 12  2  0
 11 13  1  0
 13 14  1  0
 14 15  2  0
 14 16  1  0
 16 17  1  0
 17 18  1  0
 18 19  2  0
 18 20  1  0
 20 21  1  0
 20 24  1  0
 21 22  1  0
 22 23  1  0
 23 24  1  0
M  END
