
     RDKit          3D

 24 24  0  0  0  0  0  0  0  0999 V2000
   -6.9650    1.1870   -2.3700 C   0  0  0  0  0  0  0  0  0  0  0  0
   -6.6020    0.8530   -1.1270 C   0  0  0  0  0  0  0  0  0  0  0  0
   -5.3130    1.1770   -0.6570 N   0  0  0  0  0  0  0  0  0  0  0  0
   -4.9980    2.5550   -0.4040 C   0  0  0  0  0  0  0  0  0  0  0  0
   -4.3530    0.1670   -0.4460 C   0  0  0  0  0  0  0  0  0  0  0  0
   -3.1090    0.5170   -0.6650 C   0  0  0  0  0  0  0  0  0  0  0  0
   -1.7520   -0.0760   -0.6150 C   0  0  0  0  0  0  0  0  0  0  0  0
   -1.3020   -1.3020   -0.7480 C   0  0  0  0  0  0  0  0  0  0  0  0
    0.0290   -1.5320   -0.6440 N   0  0  0  0  0  0  0  0  0  0  0  0
    1.0680   -0.6050   -0.1650 C   0  0  0  0  0  0  0  0  0  0  0  0
    0.8030    0.4840    0.2250 O   0  0  0  0  0  0  0  0  0  0  0  0
    2.3260   -1.2820   -0.2810 N   0  0  0  0  0  0  0  0  0  0  0  0
    3.3020   -0.0600    0.4380 C   0  0  0  0  0  0  0  0  0  0  0  0
    2.7290    0.8920    0.8070 O   0  0  0  0  0  0  0  0  0  0  0  0
    4.6850   -0.4660    0.4480 C   0  0  0  0  0  0  0  0  0  0  0  0
    5.5800    0.4910    1.1980 C   0  0  1  0  0  0  0  0  0  0  0  0
    6.9950   -0.0430    1.1170 C   0  0  0  0  0  0  0  0  0  0  0  0
    5.4760    1.8480    0.5950 C   0  0  0  0  0  0  0  0  0  0  0  0
    5.2060    0.5250    2.6750 C   0  0  0  0  0  0  0  0  0  0  0  0
   -2.0470   -2.5770   -0.9870 C   0  0  0  0  0  0  0  0  0  0  0  0
   -3.2530   -3.0300   -0.7200 C   0  0  0  0  0  0  0  0  0  0  0  0
   -4.4220   -2.4370   -0.0430 C   0  0  0  0  0  0  0  0  0  0  0  0
   -5.0750   -3.2730    0.6000 O   0  0  0  0  0  0  0  0  0  0  0  0
   -4.8810   -1.1020   -0.0270 N   0  0  0  0  0  0  0  0  0  0  0  0
  1  2  2  0
  2  3  1  0
  3  4  1  0
  3  5  1  0
  5  6  2  0
  5 24  1  0
  6  7  1  0
  7  8  2  0
  8  9  1  0
  8 20  1  0
  9 10  1  0
 10 11  2  0
 10 12  1  0
 12 13  1  0
 13 14  2  0
 13 15  1  0
 15 16  1  0
 16 17  1  1
 16 18  1  0
 16 19  1  0
 20 21  2  0
 21 22  1  0
 22 23  2  0
 22 24  1  0
M  END
