
     RDKit          3D

 28 29  0  0  0  0  0  0  0  0999 V2000
    5.5860    5.9350    0.8430 C   0  0  0  0  0  0  0  0  0  0  0  0
    4.6060    5.2890    0.7720 C   0  0  0  0  0  0  0  0  0  0  0  0
    3.4280    4.4940    0.7050 C   0  0  0  0  0  0  0  0  0  0  0  0
    3.6130    3.1000    0.4810 N   0  0  0  0  0  0  0  0  0  0  0  0
    2.4390    2.2910    0.2720 C   0  0  0  0  0  0  0  0  0  0  0  0
    1.3700    3.0330    0.2930 O   0  0  0  0  0  0  0  0  0  0  0  0
    2.2630    0.9380    0.0700 N   0  0  0  0  0  0  0  0  0  0  0  0
    0.9090    0.5760   -0.2540 C   0  0  0  0  0  0  0  0  0  0  0  0
   -0.0380    0.2050    0.8120 C   0  0  0  0  0  0  0  0  0  0  0  0
   -1.3820   -0.0400    0.2610 C   0  0  0  0  0  0  0  0  0  0  0  0
   -1.6530    0.5470   -0.8430 O   0  0  0  0  0  0  0  0  0  0  0  0
   -2.4010   -0.8350    0.7930 N   0  0  0  0  0  0  0  0  0  0  0  0
   -3.6620   -0.9430    0.1040 C   0  0  0  0  0  0  0  0  0  0  0  0
   -4.0490    0.0620   -1.3370 S   0  0  0  0  0  0  0  0  0  0  0  0
   -5.6340   -0.6490   -1.6110 C   0  0  0  0  0  0  0  0  0  0  0  0
   -6.5920   -0.2870   -2.7160 C   0  0  0  0  0  0  0  0  0  0  0  0
   -5.7770   -1.6110   -0.5880 C   0  0  0  0  0  0  0  0  0  0  0  0
   -4.7430   -1.7350    0.2760 C   0  0  0  0  0  0  0  0  0  0  0  0
   -5.0650   -2.8740    1.2290 C   0  0  0  0  0  0  0  0  0  0  0  0
   -6.5140   -3.1690    1.0310 C   0  0  0  0  0  0  0  0  0  0  0  0
   -6.8830   -2.6030   -0.2600 C   0  0  0  0  0  0  0  0  0  0  0  0
    3.3220   -0.0080    0.2220 C   0  0  1  0  0  0  0  0  0  0  0  0
    3.8890    0.1510    1.6380 C   0  0  0  0  0  0  0  0  0  0  0  0
    2.8390   -1.4450    0.0430 C   0  0  0  0  0  0  0  0  0  0  0  0
    4.4190    0.1220   -0.7190 C   0  0  0  0  0  0  0  0  0  0  0  0
    4.5870    0.9250   -1.6600 O   0  0  0  0  0  0  0  0  0  0  0  0
    5.5110   -0.7970   -0.5890 O   0  0  0  0  0  0  0  0  0  0  0  0
    6.6260   -0.7010   -1.4990 C   0  0  0  0  0  0  0  0  0  0  0  0
  1  2  3  0
  2  3  1  0
  3  4  1  0
  4  5  1  0
  5  6  2  0
  5  7  1  0
  7  8  1  0
  7 22  1  0
  8  9  1  0
  9 10  1  0
 10 11  2  0
 10 12  1  0
 12 13  1  0
 13 14  1  0
 13 18  2  0
 14 15  1  0
 15 16  1  0
 15 17  2  0
 17 18  1  0
 17 21  1  0
 18 19  1  0
 19 20  1  0
 20 21  1  0
 22 23  1  1
 22 24  1  0
 22 25  1  0
 25 26  2  0
 25 27  1  0
 27 28  1  0
M  END
