
     RDKit          3D

 10 10  0  0  0  0  0  0  0  0999 V2000
    3.5540    0.0770    1.1680 C   0  0  0  0  0  0  0  0  0  0  0  0
    2.2540   -0.6130    0.7430 C   0  0  0  0  0  0  0  0  0  0  0  0
    1.3620    0.4620    0.1890 C   0  0  0  0  0  0  0  0  0  0  0  0
    0.0300   -0.0420   -0.2810 C   0  0  2  0  0  0  0  0  0  0  0  0
    0.1150   -1.0610   -1.3680 C   0  0  0  0  0  0  0  0  0  0  0  0
   -0.6810    1.1730   -0.8720 C   0  0  0  0  0  0  0  0  0  0  0  0
   -2.1290    0.9020   -1.1290 C   0  0  0  0  0  0  0  0  0  0  0  0
   -2.8420    0.5000    0.1610 C   0  0  0  0  0  0  0  0  0  0  0  0
   -2.1910   -0.7910    0.6140 C   0  0  0  0  0  0  0  0  0  0  0  0
   -0.7520   -0.4970    0.9140 C   0  0  0  0  0  0  0  0  0  0  0  0
  1  2  1  0
  2  3  1  0
  3  4  1  0
  4  5  1  6
  4  6  1  0
  4 10  1  0
  6  7  1  0
  7  8  1  0
  8  9  1  0
  9 10  1  0
M  END
