
     RDKit          3D

 10  9  0  0  0  0  0  0  0  0999 V2000
    3.8030    1.0930    0.0230 C   0  0  0  0  0  0  0  0  0  0  0  0
    2.9340    0.0930   -0.0790 C   0  0  0  0  0  0  0  0  0  0  0  0
    3.2000   -1.1640    0.6690 C   0  0  0  0  0  0  0  0  0  0  0  0
    1.7200    0.2190   -0.9190 C   0  0  0  0  0  0  0  0  0  0  0  0
    0.4540    0.0500   -0.0990 C   0  0  0  0  0  0  0  0  0  0  0  0
   -0.7810    0.1750   -0.9420 C   0  0  0  0  0  0  0  0  0  0  0  0
   -1.9890   -0.0030   -0.0640 C   0  0  1  0  0  0  0  0  0  0  0  0
   -1.9540    1.0820    0.9980 C   0  0  0  0  0  0  0  0  0  0  0  0
   -3.2830    0.1750   -0.8290 C   0  0  0  0  0  0  0  0  0  0  0  0
   -2.0310   -1.3300    0.6280 C   0  0  0  0  0  0  0  0  0  0  0  0
  1  2  2  0
  2  3  1  0
  2  4  1  0
  4  5  1  0
  5  6  1  0
  6  7  1  0
  7  8  1  1
  7  9  1  0
  7 10  1  0
M  END
