
     RDKit          3D

 19 19  0  0  0  0  0  0  0  0999 V2000
    4.2570   -0.8170   -1.1980 C   0  0  0  0  0  0  0  0  0  0  0  0
    3.7380   -0.9750    0.0790 O   0  0  0  0  0  0  0  0  0  0  0  0
    2.8690    0.0840    0.3670 C   0  0  2  0  0  0  0  0  0  0  0  0
    3.3730    0.8020    1.4490 O   0  0  0  0  0  0  0  0  0  0  0  0
    3.6430    2.0940    1.0650 C   0  0  0  0  0  0  0  0  0  0  0  0
    1.5640   -0.3630    0.6310 O   0  0  0  0  0  0  0  0  0  0  0  0
    0.5060    0.0750   -0.1390 C   0  0  0  0  0  0  0  0  0  0  0  0
    0.7640    0.8780   -1.0690 O   0  0  0  0  0  0  0  0  0  0  0  0
   -0.8630   -0.3630    0.0950 C   0  0  0  0  0  0  0  0  0  0  0  0
   -1.8770    0.0270   -0.5990 N   0  0  0  0  0  0  0  0  0  0  0  0
   -3.1690   -0.4380   -0.3150 N   0  0  0  0  0  0  0  0  0  0  0  0
   -4.1920   -0.0770   -1.0010 C   0  0  0  0  0  0  0  0  0  0  0  0
   -4.0540    0.8220   -2.0930 N   0  0  0  0  0  0  0  0  0  0  0  0
   -5.4390   -0.5740   -0.6650 O   0  0  0  0  0  0  0  0  0  0  0  0
   -3.3430   -1.3430    0.7890 C   0  0  2  0  0  0  0  0  0  0  0  0
   -3.7230   -0.4000    2.2480 Cl  0  0  0  0  0  0  0  0  0  0  0  0
   -2.2070   -2.0840    0.9860 O   0  0  0  0  0  0  0  0  0  0  0  0
   -1.1520   -1.2920    1.1540 N   0  0  0  0  0  0  0  0  0  0  0  0
   -0.0440   -1.3370    2.6820 Br  0  0  0  0  0  0  0  0  0  0  0  0
  1  2  1  0
  3  2  1  1
  3  4  1  0
  3  6  1  0
  4  5  1  0
  6  7  1  0
  7  8  2  0
  7  9  1  0
  9 10  2  0
  9 18  1  0
 10 11  1  0
 11 12  2  3
 11 15  1  0
 12 13  1  0
 12 14  1  0
 15 16  1  1
 15 17  1  0
 17 18  1  0
 18 19  1  0
M  CHG  1  11   1
M  END
