
     RDKit          3D

 27 28  0  0  0  0  0  0  0  0999 V2000
   -3.6080    2.0030    1.7380 C   0  0  0  0  0  0  0  0  0  0  0  0
   -4.4840    1.1330    0.9510 C   0  0  0  0  0  0  0  0  0  0  0  0
   -3.9820    0.4760   -0.1120 C   0  0  0  0  0  0  0  0  0  0  0  0
   -2.6070    0.7100   -0.3570 N   0  0  0  0  0  0  0  0  0  0  0  0
   -1.5740   -0.2450   -0.1000 C   0  0  0  0  0  0  0  0  0  0  0  0
   -1.8820   -1.3620    0.3880 O   0  0  0  0  0  0  0  0  0  0  0  0
   -0.1670    0.0810   -0.4050 C   0  0  0  0  0  0  0  0  0  0  0  0
    0.2820    1.2520   -0.9320 C   0  0  0  0  0  0  0  0  0  0  0  0
    1.6200    1.1440   -1.0540 N   0  0  0  0  0  0  0  0  0  0  0  0
    1.9690   -0.0700   -0.6080 C   0  0  0  0  0  0  0  0  0  0  0  0
    3.2760   -0.5330   -0.5820 O   0  0  0  0  0  0  0  0  0  0  0  0
    4.3660    0.2500   -1.0330 C   0  0  0  0  0  0  0  0  0  0  0  0
    4.4950    1.5100   -0.2650 C   0  0  0  0  0  0  0  0  0  0  0  0
    3.6780    1.7380    0.6470 O   0  0  0  0  0  0  0  0  0  0  0  0
    5.4930    2.3930   -0.5600 O   0  0  0  0  0  0  0  0  0  0  0  0
    5.6790    3.6270    0.1370 C   0  0  0  0  0  0  0  0  0  0  0  0
    0.8650   -0.7590   -0.1940 N   0  0  0  0  0  0  0  0  0  0  0  0
    0.8410   -2.0550    0.3310 C   0  0  0  0  0  0  0  0  0  0  0  0
    0.8500   -2.3900    1.5490 N   0  0  0  0  0  0  0  0  0  0  0  0
    0.8200   -3.7340    1.8720 C   0  0  0  0  0  0  0  0  0  0  0  0
    0.4030   -4.1860    3.0030 O   0  0  0  0  0  0  0  0  0  0  0  0
    1.3130   -4.6420    0.7970 C   0  0  0  0  0  0  0  0  0  0  0  0
    0.8050   -3.5620   -0.6190 S   0  0  0  0  0  0  0  0  0  0  0  0
   -4.8290   -0.3880   -0.8980 C   0  0  0  0  0  0  0  0  0  0  0  0
   -6.1790   -0.5260   -0.4500 O   0  0  0  0  0  0  0  0  0  0  0  0
   -4.4370   -1.0250   -1.9590 C   0  0  0  0  0  0  0  0  0  0  0  0
   -2.8360   -0.9550   -2.6300 Cl  0  0  0  0  0  0  0  0  0  0  0  0
  1  2  1  0
  2  3  2  3
  3  4  1  0
  3 24  1  0
  4  5  1  0
  5  6  2  0
  5  7  1  0
  7  8  2  0
  7 17  1  0
  8  9  1  0
  9 10  2  0
 10 11  1  0
 10 17  1  0
 11 12  1  0
 12 13  1  0
 13 14  2  0
 13 15  1  0
 15 16  1  0
 17 18  1  0
 18 19  2  0
 18 23  1  0
 19 20  1  0
 20 21  2  0
 20 22  1  0
 22 23  1  0
 24 25  1  0
 24 26  2  3
 26 27  1  0
M  END
