
     RDKit          3D

 18 18  0  0  0  0  0  0  0  0999 V2000
    0.9370    0.0530    1.4180 C   0  0  0  0  0  0  0  0  0  0  0  0
    1.3200   -0.0080    0.0570 N   0  0  0  0  0  0  0  0  0  0  0  0
    2.6300    0.4160   -0.2780 C   0  0  0  0  0  0  0  0  0  0  0  0
    3.5960   -0.5820    0.2990 C   0  0  0  0  0  0  0  0  0  0  0  0
    3.2810   -1.5420    0.9430 O   0  0  0  0  0  0  0  0  0  0  0  0
    5.0570   -0.3400    0.0360 C   0  0  0  0  0  0  0  0  0  0  0  0
    5.2600    0.8150   -0.7080 O   0  0  0  0  0  0  0  0  0  0  0  0
    0.3390    0.1530   -0.8860 N   0  0  0  0  0  0  0  0  0  0  0  0
   -0.3170   -1.5750   -1.3150 Br  0  0  0  0  0  0  0  0  0  0  0  0
   -0.6820    1.0020   -0.5240 O   0  0  0  0  0  0  0  0  0  0  0  0
   -2.0170    0.6110   -0.5580 C   0  0  0  0  0  0  0  0  0  0  0  0
   -3.0500    1.6710   -0.4210 C   0  0  0  0  0  0  0  0  0  0  0  0
   -2.9180    2.3470    0.7950 O   0  0  0  0  0  0  0  0  0  0  0  0
   -4.1360    3.5320    0.8650 Cl  0  0  0  0  0  0  0  0  0  0  0  0
   -2.2720   -0.6350   -0.7050 N   0  0  0  0  0  0  0  0  0  0  0  0
   -3.6130   -1.1060   -0.7480 C   0  0  0  0  0  0  0  0  0  0  0  0
   -4.0840   -2.0290    0.2390 N   0  0  0  0  0  0  0  0  0  0  0  0
   -4.4340   -0.7460   -1.6300 O   0  0  0  0  0  0  0  0  0  0  0  0
  1  2  1  0
  2  3  1  0
  2  8  1  0
  3  4  1  0
  4  5  2  0
  4  6  1  0
  6  7  1  0
  8  9  1  0
  8 10  1  0
 10 11  1  0
 11 12  1  0
 11 15  2  0
 12 13  1  0
 13 14  1  0
 15 16  1  0
 16 17  1  0
 16 18  2  0
 15  9  1  0
M  CHG  2  15   1  17   1
M  END
