
     RDKit          3D

 26 27  0  0  0  0  0  0  0  0999 V2000
    9.5810    0.9990    0.9540 C   0  0  0  0  0  0  0  0  0  0  0  0
    8.1830    1.2050    0.8450 O   0  0  0  0  0  0  0  0  0  0  0  0
    7.4320    0.2250    0.2060 C   0  0  0  0  0  0  0  0  0  0  0  0
    7.9660   -0.8220   -0.2660 O   0  0  0  0  0  0  0  0  0  0  0  0
    5.9570    0.4700    0.1050 C   0  0  0  0  0  0  0  0  0  0  0  0
    5.3910   -0.6240   -0.5640 O   0  0  0  0  0  0  0  0  0  0  0  0
    4.0220   -0.6480   -0.7910 C   0  0  0  0  0  0  0  0  0  0  0  0
    3.5440    0.2080   -1.6900 C   0  0  0  0  0  0  0  0  0  0  0  0
    2.1320    0.2190   -1.9580 C   0  0  0  0  0  0  0  0  0  0  0  0
    1.3170   -0.6080   -1.3240 C   0  0  0  0  0  0  0  0  0  0  0  0
   -0.1550   -0.6120   -1.5890 C   0  0  0  0  0  0  0  0  0  0  0  0
   -0.8930   -0.3070   -0.3710 N   0  0  0  0  0  0  0  0  0  0  0  0
   -2.3120   -0.2650   -0.4240 C   0  0  0  0  0  0  0  0  0  0  0  0
   -2.9140   -0.4900   -1.5130 O   0  0  0  0  0  0  0  0  0  0  0  0
   -3.1160    0.0210    0.7000 N   0  0  0  0  0  0  0  0  0  0  0  0
   -4.5560    0.0540    0.6060 C   0  0  0  0  0  0  0  0  0  0  0  0
   -5.3030    0.3280    1.6870 N   0  0  0  0  0  0  0  0  0  0  0  0
   -6.6570    0.3700    1.6460 C   0  0  0  0  0  0  0  0  0  0  0  0
   -7.3170    0.1260    0.4600 C   0  0  0  0  0  0  0  0  0  0  0  0
   -8.6960    0.1570    0.3700 O   0  0  0  0  0  0  0  0  0  0  0  0
   -9.4350    0.4510    1.5390 C   0  0  0  0  0  0  0  0  0  0  0  0
   -6.5170   -0.1510   -0.6240 C   0  0  0  0  0  0  0  0  0  0  0  0
   -7.3460   -0.4670   -2.1540 Cl  0  0  0  0  0  0  0  0  0  0  0  0
   -5.1790   -0.1860   -0.5550 N   0  0  0  0  0  0  0  0  0  0  0  0
    1.8180   -1.5630   -0.3280 C   0  0  0  0  0  0  0  0  0  0  0  0
    3.1950   -1.5250   -0.1130 O   0  0  0  0  0  0  0  0  0  0  0  0
  1  2  1  0
  2  3  1  0
  3  4  2  0
  3  5  1  0
  5  6  1  0
  6  7  1  0
  7  8  2  0
  7 26  1  0
  8  9  1  0
  9 10  2  0
 10 11  1  0
 10 25  1  0
 11 12  1  0
 12 13  1  0
 13 14  2  0
 13 15  1  0
 15 16  1  0
 16 17  2  0
 16 24  1  0
 17 18  1  0
 18 19  2  0
 19 20  1  0
 19 22  1  0
 20 21  1  0
 22 23  1  0
 22 24  2  0
 25 26  1  0
M  END
