
     RDKit          3D

  8  8  0  0  0  0  0  0  0  0999 V2000
   -2.8650   -0.1760   -0.7360 C   0  0  0  0  0  0  0  0  0  0  0  0
   -1.7150   -0.7550    0.0230 C   0  0  0  0  0  0  0  0  0  0  0  0
   -0.5870    0.1980    0.2580 C   0  0  2  0  0  0  0  0  0  0  0  0
    0.0220    0.7280   -1.0060 C   0  0  0  0  0  0  0  0  0  0  0  0
    1.3900    1.3280   -0.7170 C   0  0  0  0  0  0  0  0  0  0  0  0
    2.3840    0.2930   -0.2700 C   0  0  0  0  0  0  0  0  0  0  0  0
    1.6030   -0.9740    0.0410 C   0  0  0  0  0  0  0  0  0  0  0  0
    0.5000   -0.5530    1.0080 C   0  0  0  0  0  0  0  0  0  0  0  0
  1  2  1  0
  3  2  1  6
  3  4  1  0
  3  8  1  0
  4  5  1  0
  5  6  1  0
  6  7  1  0
  7  8  1  0
M  END
