
     RDKit          3D

  8  8  0  0  0  0  0  0  0  0999 V2000
    2.2150    0.8290   -0.5830 C   0  0  0  0  0  0  0  0  0  0  0  0
    1.1600    0.5720    0.4280 C   0  0  0  0  0  0  0  0  0  0  0  0
    0.1400   -0.4430    0.0450 C   0  0  2  0  0  0  0  0  0  0  0  0
    0.8120   -1.7540   -0.2060 C   0  0  0  0  0  0  0  0  0  0  0  0
   -0.7480   -0.0940   -1.0880 C   0  0  0  0  0  0  0  0  0  0  0  0
   -1.8010    0.8530   -0.5450 C   0  0  0  0  0  0  0  0  0  0  0  0
   -1.8260    0.5860    0.9310 C   0  0  0  0  0  0  0  0  0  0  0  0
   -0.8560   -0.5290    1.2120 C   0  0  0  0  0  0  0  0  0  0  0  0
  1  2  1  0
  2  3  1  0
  3  4  1  6
  3  5  1  0
  3  8  1  0
  5  6  1  0
  6  7  1  0
  7  8  1  0
M  END
