
     RDKit          3D

  7  7  0  0  0  0  0  0  0  0999 V2000
    1.1430   -0.3510    1.4830 C   0  0  0  0  0  0  0  0  0  0  0  0
    0.5210   -0.1560    0.1330 C   0  0  2  0  0  0  0  0  0  0  0  0
    1.5720   -0.4490   -0.9320 C   0  0  0  0  0  0  0  0  0  0  0  0
    0.0230    1.2400   -0.0920 C   0  0  0  0  0  0  0  0  0  0  0  0
   -1.4990    1.1060    0.0520 C   0  0  0  0  0  0  0  0  0  0  0  0
   -1.7070   -0.2100   -0.7120 C   0  0  0  0  0  0  0  0  0  0  0  0
   -0.6720   -1.0840   -0.0120 C   0  0  0  0  0  0  0  0  0  0  0  0
  2  1  1  1
  2  3  1  0
  2  4  1  0
  2  7  1  0
  4  5  1  0
  5  6  1  0
  6  7  1  0
M  END
