
     RDKit          3D

 23 23  0  0  0  0  0  0  0  0999 V2000
   -0.7040    4.6180   -0.9960 C   0  0  0  0  0  0  0  0  0  0  0  0
    0.1790    4.6750    0.2430 C   0  0  0  0  0  0  0  0  0  0  0  0
    0.2100    3.3020    0.8960 C   0  0  0  0  0  0  0  0  0  0  0  0
    0.7660    2.3400   -0.0970 C   0  0  0  0  0  0  0  0  0  0  0  0
    0.8460    0.9270    0.4430 C   0  0  2  0  0  0  0  0  0  0  0  0
    1.3890    0.0330   -0.5510 N   0  0  0  0  0  0  0  0  0  0  0  0
    2.5400   -0.7820   -0.2770 C   0  0  0  0  0  0  0  0  0  0  0  0
    3.0250   -0.6550    0.8760 O   0  0  0  0  0  0  0  0  0  0  0  0
    3.0790   -1.6930   -1.3170 C   0  0  0  0  0  0  0  0  0  0  0  0
    4.2600   -2.4530   -0.8180 C   0  0  0  0  0  0  0  0  0  0  0  0
    3.8700   -3.2650    0.3420 C   0  0  0  0  0  0  0  0  0  0  0  0
    2.6980   -3.2550    0.7570 O   0  0  0  0  0  0  0  0  0  0  0  0
    4.8080   -4.0450    0.9780 O   0  0  0  0  0  0  0  0  0  0  0  0
   -0.8500    0.4030    0.8170 P   0  0  1  0  0  0  0  0  0  0  0  0
   -1.1550    0.4520    2.2760 O   0  0  0  0  0  0  0  0  0  0  0  0
   -1.9860    1.3810    0.0060 O   0  0  0  0  0  0  0  0  0  0  0  0
   -1.1050   -1.2070    0.2280 O   0  0  0  0  0  0  0  0  0  0  0  0
   -2.3540   -1.7620    0.1800 C   0  0  0  0  0  0  0  0  0  0  0  0
   -2.8190   -2.4650    1.2670 C   0  0  0  0  0  0  0  0  0  0  0  0
   -4.0700   -3.0160    1.2090 C   0  0  0  0  0  0  0  0  0  0  0  0
   -4.8710   -2.8850    0.0950 C   0  0  0  0  0  0  0  0  0  0  0  0
   -4.3770   -2.1770   -0.9740 C   0  0  0  0  0  0  0  0  0  0  0  0
   -3.1270   -1.6100   -0.9500 C   0  0  0  0  0  0  0  0  0  0  0  0
  1  2  1  0
  2  3  1  0
  3  4  1  0
  5  4  1  6
  5  6  1  0
  5 14  1  0
  6  7  1  0
  7  8  2  0
  7  9  1  0
  9 10  1  0
 10 11  1  0
 11 12  2  0
 11 13  1  0
 14 15  2  0
 14 16  1  6
 14 17  1  0
 17 18  1  0
 18 19  2  0
 18 23  1  0
 19 20  1  0
 20 21  2  0
 21 22  1  0
 22 23  2  0
M  END
