
     RDKit          3D

 24 26  0  0  0  0  0  0  0  0999 V2000
    6.8440    2.2780    0.6310 C   0  0  0  0  0  0  0  0  0  0  0  0
    5.6460    1.3850    0.4890 C   0  0  0  0  0  0  0  0  0  0  0  0
    4.7810    1.2120    1.5600 C   0  0  0  0  0  0  0  0  0  0  0  0
    3.6670    0.3880    1.4410 C   0  0  0  0  0  0  0  0  0  0  0  0
    3.3790   -0.2800    0.2750 C   0  0  0  0  0  0  0  0  0  0  0  0
    1.9110   -1.3520    0.1560 P   0  0  0  0  0  0  0  0  0  0  0  0
    2.4420   -3.0960    0.2790 C   0  0  0  0  0  0  0  0  0  0  0  0
    0.8040   -0.9630   -1.2340 C   0  0  0  0  0  0  0  0  0  0  0  0
   -0.4680   -0.2870   -0.9760 C   0  0  0  0  0  0  0  0  0  0  0  0
   -1.5460   -0.9170   -0.1280 C   0  0  1  0  0  0  0  0  0  0  0  0
   -1.8060   -2.1760   -0.8630 C   0  0  0  0  0  0  0  0  0  0  0  0
   -1.0480   -1.1740    1.2520 C   0  0  0  0  0  0  0  0  0  0  0  0
   -0.7360   -0.0600    2.1450 C   0  0  0  0  0  0  0  0  0  0  0  0
   -1.0650    1.3020    1.6740 C   0  0  0  0  0  0  0  0  0  0  0  0
   -2.2930    1.1720    0.8400 C   0  0  0  0  0  0  0  0  0  0  0  0
   -3.2210    2.2000    0.9600 C   0  0  0  0  0  0  0  0  0  0  0  0
   -4.3900    2.2140    0.2490 C   0  0  0  0  0  0  0  0  0  0  0  0
   -4.6270    1.1610   -0.6080 C   0  0  0  0  0  0  0  0  0  0  0  0
   -5.8990    1.1480   -1.4120 C   0  0  0  0  0  0  0  0  0  0  0  0
   -3.7540    0.0940   -0.7880 C   0  0  0  0  0  0  0  0  0  0  0  0
   -4.0810   -0.9780   -1.7340 C   0  0  0  0  0  0  0  0  0  0  0  0
   -2.5740    0.1350   -0.0320 C   0  0  0  0  0  0  0  0  0  0  0  0
    4.2570   -0.0870   -0.7690 C   0  0  0  0  0  0  0  0  0  0  0  0
    5.3620    0.7220   -0.6730 C   0  0  0  0  0  0  0  0  0  0  0  0
  1  2  1  0
  2  3  2  0
  2 24  1  0
  3  4  1  0
  4  5  2  0
  5  6  1  0
  5 23  1  0
  6  7  1  0
  6  8  1  0
  8  9  1  0
  9 10  1  0
 10 11  1  6
 10 12  1  0
 10 22  1  0
 12 13  1  0
 13 14  1  0
 14 15  1  0
 15 16  2  0
 15 22  1  0
 16 17  1  0
 17 18  2  0
 18 19  1  0
 18 20  1  0
 20 21  1  0
 20 22  2  0
 23 24  2  0
M  END
