
     RDKit          3D

 24 26  0  0  0  0  0  0  0  0999 V2000
   -1.6620   -3.4020   -1.5080 C   0  0  0  0  0  0  0  0  0  0  0  0
   -0.9060   -2.0980   -1.3720 C   0  0  0  0  0  0  0  0  0  0  0  0
   -0.9010   -1.5680    0.0190 C   0  0  2  0  0  0  0  0  0  0  0  0
   -0.2650   -2.4910    1.0450 C   0  0  0  0  0  0  0  0  0  0  0  0
   -2.3340   -1.4360    0.5050 C   0  0  0  0  0  0  0  0  0  0  0  0
   -3.3280   -0.9370   -0.4500 C   0  0  0  0  0  0  0  0  0  0  0  0
   -3.2980    0.5680   -0.3860 C   0  0  0  0  0  0  0  0  0  0  0  0
   -4.5180    1.1430   -0.5120 C   0  0  0  0  0  0  0  0  0  0  0  0
   -4.6480    2.5200   -0.4600 C   0  0  0  0  0  0  0  0  0  0  0  0
   -6.0100    3.1220   -0.6030 C   0  0  0  0  0  0  0  0  0  0  0  0
   -3.5220    3.2680   -0.2820 C   0  0  0  0  0  0  0  0  0  0  0  0
   -2.2810    2.7050   -0.1530 C   0  0  0  0  0  0  0  0  0  0  0  0
   -2.1650    1.3120   -0.2070 C   0  0  0  0  0  0  0  0  0  0  0  0
   -0.7550    0.9280   -0.0620 C   0  0  0  0  0  0  0  0  0  0  0  0
   -0.1890   -0.2710    0.0360 C   0  0  0  0  0  0  0  0  0  0  0  0
    1.2780   -0.2550    0.2350 C   0  0  0  0  0  0  0  0  0  0  0  0
    1.9460    0.8910    0.6140 C   0  0  0  0  0  0  0  0  0  0  0  0
    3.3280    0.9590    0.7370 C   0  0  0  0  0  0  0  0  0  0  0  0
    4.0990   -0.1410    0.4790 C   0  0  0  0  0  0  0  0  0  0  0  0
    5.9180   -0.0490    0.6410 P   0  0  0  0  0  0  0  0  0  0  0  0
    6.7030    0.5810   -0.9250 C   0  0  0  0  0  0  0  0  0  0  0  0
    6.4170    1.0900    2.0230 C   0  0  0  0  0  0  0  0  0  0  0  0
    3.4770   -1.2930    0.1020 C   0  0  0  0  0  0  0  0  0  0  0  0
    2.0950   -1.3370   -0.0140 C   0  0  0  0  0  0  0  0  0  0  0  0
  1  2  1  0
  2  3  1  0
  3  4  1  1
  3  5  1  0
  3 15  1  0
  5  6  1  0
  6  7  1  0
  7  8  2  0
  7 13  1  0
  8  9  1  0
  9 10  1  0
  9 11  2  0
 11 12  1  0
 12 13  2  0
 13 14  1  0
 14 15  2  0
 15 16  1  0
 16 17  2  0
 16 24  1  0
 17 18  1  0
 18 19  2  0
 19 20  1  0
 19 23  1  0
 20 21  1  0
 20 22  1  0
 23 24  2  0
M  END
