
     RDKit          3D

 24 27  0  0  0  0  0  0  0  0999 V2000
    3.1810    2.0410    0.9600 C   0  0  0  0  0  0  0  0  0  0  0  0
    2.1280    1.1660    0.3890 C   0  0  0  0  0  0  0  0  0  0  0  0
    2.4180   -0.0380   -0.2080 C   0  0  0  0  0  0  0  0  0  0  0  0
    3.8050   -0.4900   -0.3190 C   0  0  0  0  0  0  0  0  0  0  0  0
    4.0860   -1.7980    0.0520 C   0  0  0  0  0  0  0  0  0  0  0  0
    5.3730   -2.2800   -0.0380 C   0  0  0  0  0  0  0  0  0  0  0  0
    6.4090   -1.4880   -0.4940 C   0  0  0  0  0  0  0  0  0  0  0  0
    6.1460   -0.1890   -0.8650 C   0  0  0  0  0  0  0  0  0  0  0  0
    4.8430    0.2780   -0.7670 C   0  0  0  0  0  0  0  0  0  0  0  0
    1.3800   -0.8290   -0.7200 C   0  0  0  0  0  0  0  0  0  0  0  0
    0.0580   -0.4480   -0.6520 C   0  0  0  0  0  0  0  0  0  0  0  0
   -0.2170    0.7620   -0.0510 C   0  0  0  0  0  0  0  0  0  0  0  0
    0.8000    1.5440    0.4550 C   0  0  0  0  0  0  0  0  0  0  0  0
    0.4820    2.8410    1.0880 C   0  0  0  0  0  0  0  0  0  0  0  0
   -1.6440    1.1640    0.0210 C   0  0  0  0  0  0  0  0  0  0  0  0
   -2.5500   -0.2970    0.7800 P   0  0  0  0  0  0  0  0  0  0  0  0
   -4.3250   -0.2410    0.3340 C   0  0  0  0  0  0  0  0  0  0  0  0
   -4.9020    0.7990   -0.3460 C   0  0  0  0  0  0  0  0  0  0  0  0
   -6.2510    0.7460   -0.6350 C   0  0  0  0  0  0  0  0  0  0  0  0
   -7.0220   -0.3310   -0.2530 C   0  0  0  0  0  0  0  0  0  0  0  0
   -6.4570   -1.3860    0.4310 C   0  0  0  0  0  0  0  0  0  0  0  0
   -5.1060   -1.3050    0.7060 C   0  0  0  0  0  0  0  0  0  0  0  0
   -1.8240   -1.8090   -0.0250 C   0  0  0  0  0  0  0  0  0  0  0  0
   -1.0210   -1.3150   -1.2090 C   0  0  0  0  0  0  0  0  0  0  0  0
  1  2  1  0
  2  3  2  0
  2 13  1  0
  3  4  1  0
  3 10  1  0
  4  5  2  0
  4  9  1  0
  5  6  1  0
  6  7  2  0
  7  8  1  0
  8  9  2  0
 10 11  2  0
 11 12  1  0
 11 24  1  0
 12 13  2  0
 12 15  1  0
 13 14  1  0
 15 16  1  0
 16 17  1  0
 16 23  1  0
 17 18  2  0
 17 22  1  0
 18 19  1  0
 19 20  2  0
 20 21  1  0
 21 22  2  0
 23 24  1  0
M  END
