
     RDKit          3D

 25 27  0  0  0  0  0  0  0  0999 V2000
    6.1100    3.3390   -1.0010 C   0  0  0  0  0  0  0  0  0  0  0  0
    5.4220    3.0190    0.3190 C   0  0  0  0  0  0  0  0  0  0  0  0
    4.6730    1.7390    0.2330 C   0  0  0  0  0  0  0  0  0  0  0  0
    3.3890    1.6940    0.4290 C   0  0  0  0  0  0  0  0  0  0  0  0
    2.6390    0.4550    0.3500 C   0  0  0  0  0  0  0  0  0  0  0  0
    3.1970   -0.7710    0.0650 C   0  0  0  0  0  0  0  0  0  0  0  0
    2.4530   -1.9290   -0.0030 C   0  0  0  0  0  0  0  0  0  0  0  0
    1.0920   -1.9190    0.2140 C   0  0  0  0  0  0  0  0  0  0  0  0
    0.5050   -0.7100    0.5030 C   0  0  0  0  0  0  0  0  0  0  0  0
    1.2520    0.4450    0.5690 C   0  0  0  0  0  0  0  0  0  0  0  0
   -0.9510   -1.0220    0.7060 C   0  0  1  0  0  0  0  0  0  0  0  0
   -1.7990    0.1400    0.7100 C   0  0  0  0  0  0  0  0  0  0  0  0
   -1.6050    1.0920    1.6940 C   0  0  0  0  0  0  0  0  0  0  0  0
   -2.3540    2.2330    1.7940 C   0  0  0  0  0  0  0  0  0  0  0  0
   -2.1550    3.2580    2.8430 C   0  0  0  0  0  0  0  0  0  0  0  0
   -3.3400    2.4260    0.8650 C   0  0  0  0  0  0  0  0  0  0  0  0
   -3.5510    1.4910   -0.1240 C   0  0  0  0  0  0  0  0  0  0  0  0
   -2.7780    0.3330   -0.2110 C   0  0  0  0  0  0  0  0  0  0  0  0
   -3.1990   -0.7920   -1.5700 P   0  0  0  0  0  0  0  0  0  0  0  0
   -3.6520    0.2040   -3.0730 C   0  0  0  0  0  0  0  0  0  0  0  0
   -4.6220   -1.9020   -1.1870 C   0  0  0  0  0  0  0  0  0  0  0  0
   -1.1300   -2.0840   -0.3020 C   0  0  0  0  0  0  0  0  0  0  0  0
    0.0430   -3.0060    0.1800 C   0  0  2  0  0  0  0  0  0  0  0  0
   -0.3010   -3.5360    1.5240 C   0  0  0  0  0  0  0  0  0  0  0  0
    0.3380   -4.0630   -0.8280 C   0  0  0  0  0  0  0  0  0  0  0  0
  1  2  1  0
  2  3  1  0
  3  4  2  3
  4  5  1  0
  5  6  2  0
  5 10  1  0
  6  7  1  0
  7  8  2  0
  8  9  1  0
  8 23  1  0
  9 10  2  0
  9 11  1  0
 11 12  1  6
 11 22  1  0
 12 13  2  0
 12 18  1  0
 13 14  1  0
 14 15  1  0
 14 16  2  0
 16 17  1  0
 17 18  2  0
 18 19  1  0
 19 20  1  0
 19 21  1  0
 22 23  1  0
 23 24  1  1
 23 25  1  0
M  END
