
     RDKit          3D

  8  8  0  0  0  0  0  0  0  0999 V2000
   -2.2580    0.9400    0.6460 O   0  0  0  0  0  0  0  0  0  0  0  0
   -1.1820    0.4520   -0.0780 C   0  0  1  0  0  0  0  0  0  0  0  0
   -0.0350    1.3890    0.0260 C   0  0  0  0  0  0  0  0  0  0  0  0
    1.2860    0.8310   -0.3620 C   0  0  0  0  0  0  0  0  0  0  0  0
    1.5090   -0.5940    0.0370 C   0  0  1  0  0  0  0  0  0  0  0  0
    1.5850   -0.7230    1.8080 Cl  0  0  0  0  0  0  0  0  0  0  0  0
    0.3210   -1.3940   -0.5000 C   0  0  0  0  0  0  0  0  0  0  0  0
   -0.8510   -0.9600    0.3870 C   0  0  0  0  0  0  0  0  0  0  0  0
  2  1  1  1
  2  3  1  0
  2  8  1  0
  3  4  1  0
  4  5  1  0
  5  6  1  1
  5  7  1  0
  7  8  1  0
M  END
