
     RDKit          3D

 23 26  0  0  0  0  0  0  0  0999 V2000
   -1.9650   -1.3590   -2.2910 C   0  0  0  0  0  0  0  0  0  0  0  0
   -2.7230   -1.0180   -1.0530 C   0  0  2  0  0  0  0  0  0  0  0  0
   -3.7220   -2.1160   -0.6900 C   0  0  0  0  0  0  0  0  0  0  0  0
   -3.5490    0.2600   -1.2030 C   0  0  0  0  0  0  0  0  0  0  0  0
   -3.4280    0.9690    0.0870 C   0  0  2  0  0  0  0  0  0  0  0  0
   -4.1890    2.2710    0.1780 C   0  0  0  0  0  0  0  0  0  0  0  0
   -3.5190    2.8540    1.4210 C   0  0  0  0  0  0  0  0  0  0  0  0
   -2.0980    2.2580    1.4560 C   0  0  0  0  0  0  0  0  0  0  0  0
   -2.0210    1.5290    0.1820 C   0  0  1  0  0  0  0  0  0  0  0  0
   -1.0170    0.4410    0.0130 C   0  0  1  0  0  0  0  0  0  0  0  0
    0.1670    0.5440    0.8640 C   0  0  0  0  0  0  0  0  0  0  0  0
    0.1470    1.4440    1.7320 O   0  0  0  0  0  0  0  0  0  0  0  0
    1.3710   -0.2660    0.8370 C   0  0  1  0  0  0  0  0  0  0  0  0
    1.2340   -1.7410    1.0420 C   0  0  0  0  0  0  0  0  0  0  0  0
    2.6430   -2.1890    1.5140 C   0  0  0  0  0  0  0  0  0  0  0  0
    3.4530   -2.0390    0.4140 O   0  0  0  0  0  0  0  0  0  0  0  0
    3.5360   -0.8020   -0.1460 C   0  0  1  0  0  0  0  0  0  0  0  0
    4.4410    0.1590    0.5740 C   0  0  0  0  0  0  0  0  0  0  0  0
    5.0240    1.0650   -0.5170 C   0  0  0  0  0  0  0  0  0  0  0  0
    4.7120    0.4150   -1.8230 C   0  0  0  0  0  0  0  0  0  0  0  0
    4.3070   -0.9760   -1.4660 C   0  0  0  0  0  0  0  0  0  0  0  0
    2.2150   -0.1160   -0.4240 C   0  0  0  0  0  0  0  0  0  0  0  0
   -1.7600   -0.8950    0.1390 C   0  0  0  0  0  0  0  0  0  0  0  0
  2  1  1  6
  2  3  1  0
  2  4  1  0
  2 23  1  0
  5  4  1  6
  5  6  1  0
  5  9  1  0
  6  7  1  0
  7  8  1  0
  9  8  1  1
  9 10  1  0
 10 11  1  1
 10 23  1  0
 11 12  2  0
 13 11  1  6
 13 14  1  0
 13 22  1  0
 14 15  1  0
 15 16  1  0
 16 17  1  0
 17 18  1  1
 17 21  1  0
 17 22  1  0
 18 19  1  0
 19 20  1  0
 20 21  1  0
M  END
