
     RDKit          3D

 23 26  0  0  0  0  0  0  0  0999 V2000
    5.2950   -2.2160    0.2060 C   0  0  0  0  0  0  0  0  0  0  0  0
    3.8820   -2.2200   -0.3610 C   0  0  0  0  0  0  0  0  0  0  0  0
    3.0310   -1.1870    0.2520 C   0  0  0  0  0  0  0  0  0  0  0  0
    3.4630   -0.4570    1.0970 O   0  0  0  0  0  0  0  0  0  0  0  0
    1.6310   -1.0550   -0.1810 C   0  0  2  0  0  0  0  0  0  0  0  0
    1.4450   -0.7870   -1.6530 C   0  0  0  0  0  0  0  0  0  0  0  0
    0.1280   -0.0310   -1.7710 C   0  0  0  0  0  0  0  0  0  0  0  0
   -0.3160    0.3530   -0.3990 C   0  0  2  0  0  0  0  0  0  0  0  0
   -1.4820   -0.3680    0.1330 C   0  0  1  0  0  0  0  0  0  0  0  0
   -2.6530   -0.1080   -0.8040 C   0  0  0  0  0  0  0  0  0  0  0  0
   -3.2250   -1.3670   -1.3870 C   0  0  0  0  0  0  0  0  0  0  0  0
   -3.8040   -2.1900   -0.2670 C   0  0  0  0  0  0  0  0  0  0  0  0
   -2.8160   -2.2920    0.8280 C   0  0  2  0  0  0  0  0  0  0  0  0
   -3.2430   -1.6690    2.1260 C   0  0  0  0  0  0  0  0  0  0  0  0
   -1.4120   -1.7980    0.4260 C   0  0  0  0  0  0  0  0  0  0  0  0
   -0.7900    1.8170   -0.4450 C   0  0  0  0  0  0  0  0  0  0  0  0
    0.2640    2.7780    0.0010 C   0  0  1  0  0  0  0  0  0  0  0  0
   -0.0930    4.2030   -0.3650 C   0  0  0  0  0  0  0  0  0  0  0  0
    0.5160    4.6230    0.9770 C   0  0  0  0  0  0  0  0  0  0  0  0
    0.2660    3.1800    1.4340 C   0  0  0  0  0  0  0  0  0  0  0  0
    1.4370    2.4090   -0.5760 O   0  0  0  0  0  0  0  0  0  0  0  0
    1.9490    1.3230    0.1020 C   0  0  0  0  0  0  0  0  0  0  0  0
    0.9750    0.2160    0.3850 C   0  0  2  0  0  0  0  0  0  0  0  0
  1  2  1  0
  2  3  1  0
  3  4  2  0
  5  3  1  6
  5  6  1  0
  5 23  1  0
  6  7  1  0
  8  7  1  6
  8  9  1  0
  8 16  1  0
  8 23  1  0
  9 10  1  6
  9 15  1  0
 10 11  1  0
 11 12  1  0
 12 13  1  0
 13 14  1  1
 13 15  1  0
 17 16  1  1
 17 18  1  0
 17 20  1  0
 17 21  1  0
 18 19  1  0
 19 20  1  0
 21 22  1  0
 23 22  1  6
M  END
