
     RDKit          3D

 23 26  0  0  0  0  0  0  0  0999 V2000
   -5.0770    0.1340    0.6280 C   0  0  0  0  0  0  0  0  0  0  0  0
   -4.4660   -0.9140   -0.2240 C   0  0  0  0  0  0  0  0  0  0  0  0
   -5.0920   -1.9610   -0.3630 O   0  0  0  0  0  0  0  0  0  0  0  0
   -3.1670   -0.7760   -0.9080 C   0  0  1  0  0  0  0  0  0  0  0  0
   -3.2630    0.5220   -1.7320 C   0  0  0  0  0  0  0  0  0  0  0  0
   -2.1870    1.4230   -1.0950 C   0  0  0  0  0  0  0  0  0  0  0  0
   -1.1690    0.4120   -0.8100 C   0  0  1  0  0  0  0  0  0  0  0  0
    0.0130    0.7290   -0.0070 C   0  0  2  0  0  0  0  0  0  0  0  0
    0.6490    2.0610   -0.2930 C   0  0  0  0  0  0  0  0  0  0  0  0
    1.7010    2.2600    0.8090 C   0  0  0  0  0  0  0  0  0  0  0  0
    2.6960    1.1800    0.5740 C   0  0  0  0  0  0  0  0  0  0  0  0
    3.9760    1.5150    0.6310 C   0  0  0  0  0  0  0  0  0  0  0  0
    5.0470    0.5350    0.4160 C   0  0  0  0  0  0  0  0  0  0  0  0
    6.2480    0.7660    0.7060 O   0  0  0  0  0  0  0  0  0  0  0  0
    4.7410   -0.8030   -0.1680 C   0  0  0  0  0  0  0  0  0  0  0  0
    3.3440   -0.7390   -0.7260 C   0  0  0  0  0  0  0  0  0  0  0  0
    2.3420   -0.2090    0.2880 C   0  0  1  0  0  0  0  0  0  0  0  0
    2.5980   -1.0080    1.5730 C   0  0  0  0  0  0  0  0  0  0  0  0
    0.9780   -0.4390   -0.2230 C   0  0  1  0  0  0  0  0  0  0  0  0
    0.2980   -1.6510    0.3780 C   0  0  0  0  0  0  0  0  0  0  0  0
   -1.0630   -1.9040   -0.1570 C   0  0  0  0  0  0  0  0  0  0  0  0
   -1.9600   -0.6820   -0.0720 C   0  0  2  0  0  0  0  0  0  0  0  0
   -2.1890   -0.3450    1.3520 C   0  0  0  0  0  0  0  0  0  0  0  0
  1  2  1  0
  2  3  2  0
  4  2  1  1
  4  5  1  0
  4 22  1  0
  5  6  1  0
  7  6  1  1
  7  8  1  0
  7 22  1  0
  8  9  1  6
  8 19  1  0
  9 10  1  0
 10 11  1  0
 11 12  2  0
 11 17  1  0
 12 13  1  0
 13 14  2  0
 13 15  1  0
 15 16  1  0
 16 17  1  0
 17 18  1  1
 17 19  1  0
 19 20  1  1
 20 21  1  0
 21 22  1  0
 22 23  1  1
M  END
