
     RDKit          3D

 23 26  0  0  0  0  0  0  0  0999 V2000
    2.1110   -1.9950   -1.8320 C   0  0  0  0  0  0  0  0  0  0  0  0
    1.8710   -1.5830   -0.3970 C   0  0  2  0  0  0  0  0  0  0  0  0
    3.0720   -1.9320    0.4040 C   0  0  0  0  0  0  0  0  0  0  0  0
    0.6910   -2.3750    0.1230 C   0  0  0  0  0  0  0  0  0  0  0  0
   -0.3840   -1.5730   -0.1570 O   0  0  0  0  0  0  0  0  0  0  0  0
   -0.0310   -0.2470    0.0970 C   0  0  2  0  0  0  0  0  0  0  0  0
   -0.3790    0.0130    1.5370 C   0  0  0  0  0  0  0  0  0  0  0  0
   -1.7210   -0.5980    1.7940 C   0  0  0  0  0  0  0  0  0  0  0  0
   -2.7490   -0.3980    0.7650 C   0  0  1  0  0  0  0  0  0  0  0  0
   -3.7660    0.6440    1.2430 C   0  0  0  0  0  0  0  0  0  0  0  0
   -4.2420    1.3400    0.0170 C   0  0  0  0  0  0  0  0  0  0  0  0
   -3.3410    0.9650   -1.1220 C   0  0  0  0  0  0  0  0  0  0  0  0
   -2.3390   -0.0390   -0.5980 C   0  0  2  0  0  0  0  0  0  0  0  0
   -2.4420   -1.2620   -1.5040 C   0  0  0  0  0  0  0  0  0  0  0  0
   -0.9620    0.6060   -0.7300 C   0  0  1  0  0  0  0  0  0  0  0  0
   -1.0130    2.0420   -0.2520 C   0  0  0  0  0  0  0  0  0  0  0  0
   -0.6250    0.6340   -2.1850 C   0  0  0  0  0  0  0  0  0  0  0  0
    1.3900   -0.1740   -0.2430 C   0  0  1  0  0  0  0  0  0  0  0  0
    2.2480    0.6450    0.6370 C   0  0  0  0  0  0  0  0  0  0  0  0
    1.9000    1.1860    1.6720 O   0  0  0  0  0  0  0  0  0  0  0  0
    3.6820    0.8580    0.2660 C   0  0  2  0  0  0  0  0  0  0  0  0
    4.6670    1.2760    1.2860 C   0  0  0  0  0  0  0  0  0  0  0  0
    4.1060    2.3340    0.4200 C   0  0  0  0  0  0  0  0  0  0  0  0
  2  1  1  6
  2  3  1  0
  2  4  1  0
  2 18  1  0
  4  5  1  0
  5  6  1  0
  6  7  1  1
  6 15  1  0
  6 18  1  0
  7  8  1  0
  9  8  1  1
  9 10  1  0
  9 13  1  0
 10 11  1  0
 11 12  1  0
 12 13  1  0
 13 14  1  6
 13 15  1  0
 15 16  1  1
 15 17  1  0
 18 19  1  1
 19 20  2  0
 21 19  1  1
 21 22  1  0
 21 23  1  0
 22 23  1  0
M  END
