
     RDKit          3D

 23 26  0  0  0  0  0  0  0  0999 V2000
   -2.9830    3.3100   -0.2460 C   0  0  0  0  0  0  0  0  0  0  0  0
   -1.5790    2.8760   -0.5920 C   0  0  0  0  0  0  0  0  0  0  0  0
   -1.3900    1.4810   -0.0450 C   0  0  2  0  0  0  0  0  0  0  0  0
    0.0170    0.9640   -0.3550 C   0  0  0  0  0  0  0  0  0  0  0  0
    0.1080   -0.3820    0.2790 C   0  0  2  0  0  0  0  0  0  0  0  0
    1.4680   -0.9890    0.2910 C   0  0  1  0  0  0  0  0  0  0  0  0
    2.0290   -1.1770   -1.1170 C   0  0  0  0  0  0  0  0  0  0  0  0
    3.4670   -1.0320   -0.8380 C   0  0  1  0  0  0  0  0  0  0  0  0
    4.3770   -0.6020   -1.8990 C   0  0  0  0  0  0  0  0  0  0  0  0
    5.4680    0.1290   -1.0970 C   0  0  0  0  0  0  0  0  0  0  0  0
    4.8410    0.4090    0.2800 C   0  0  0  0  0  0  0  0  0  0  0  0
    3.4060    0.2750   -0.0110 C   0  0  2  0  0  0  0  0  0  0  0  0
    2.4880   -0.1500    1.0540 C   0  0  1  0  0  0  0  0  0  0  0  0
    1.9150    0.8410    1.8070 O   0  0  0  0  0  0  0  0  0  0  0  0
    2.1630    0.7400    3.1620 C   0  0  0  0  0  0  0  0  0  0  0  0
   -0.8090   -1.3080   -0.4860 C   0  0  0  0  0  0  0  0  0  0  0  0
   -2.2580   -0.8570   -0.3630 C   0  0  2  0  0  0  0  0  0  0  0  0
   -2.6950   -1.1950    1.0410 C   0  0  0  0  0  0  0  0  0  0  0  0
   -4.1630   -1.3850    1.1890 C   0  0  0  0  0  0  0  0  0  0  0  0
   -4.8030   -2.1070    0.0220 C   0  0  0  0  0  0  0  0  0  0  0  0
   -4.3310   -1.3870   -1.2350 C   0  0  0  0  0  0  0  0  0  0  0  0
   -2.9700   -1.5730   -1.3230 O   0  0  0  0  0  0  0  0  0  0  0  0
   -2.4450    0.5960   -0.6300 C   0  0  0  0  0  0  0  0  0  0  0  0
  1  2  1  0
  3  2  1  6
  3  4  1  0
  3 23  1  0
  5  4  1  6
  5  6  1  0
  5 16  1  0
  6  7  1  6
  6 13  1  0
  8  7  1  6
  8  9  1  0
  8 12  1  0
  9 10  1  0
 10 11  1  0
 12 11  1  1
 12 13  1  0
 13 14  1  6
 14 15  1  0
 17 16  1  1
 17 18  1  0
 17 22  1  0
 17 23  1  0
 18 19  1  0
 19 20  1  0
 20 21  1  0
 21 22  1  0
M  END
