
     RDKit          3D

 22 25  0  0  0  0  0  0  0  0999 V2000
    0.1210   -0.9770    2.0330 O   0  0  0  0  0  0  0  0  0  0  0  0
    1.0350   -0.3190    1.5880 C   0  0  0  0  0  0  0  0  0  0  0  0
    2.4570   -0.6840    1.8930 C   0  0  0  0  0  0  0  0  0  0  0  0
    3.2680   -0.8530    0.6520 C   0  0  2  0  0  0  0  0  0  0  0  0
    4.5710   -0.0650    0.7180 C   0  0  0  0  0  0  0  0  0  0  0  0
    5.5390   -0.5700   -0.3150 C   0  0  0  0  0  0  0  0  0  0  0  0
    4.7840   -1.0610   -1.5160 C   0  0  0  0  0  0  0  0  0  0  0  0
    3.5640   -0.1900   -1.6970 C   0  0  0  0  0  0  0  0  0  0  0  0
    2.5480   -0.3950   -0.5930 C   0  0  2  0  0  0  0  0  0  0  0  0
    1.8520    0.9320   -0.3870 C   0  0  0  0  0  0  0  0  0  0  0  0
    0.8320    0.8760    0.7250 C   0  0  1  0  0  0  0  0  0  0  0  0
   -0.5830    0.7430    0.1400 C   0  0  2  0  0  0  0  0  0  0  0  0
   -0.8700    1.8950   -0.7320 C   0  0  0  0  0  0  0  0  0  0  0  0
   -2.1170    2.6480   -0.4800 C   0  0  0  0  0  0  0  0  0  0  0  0
   -3.0050    2.1050    0.5800 C   0  0  0  0  0  0  0  0  0  0  0  0
   -2.7500    0.6380    0.8700 C   0  0  1  0  0  0  0  0  0  0  0  0
   -3.1680   -0.2460   -0.2580 C   0  0  1  0  0  0  0  0  0  0  0  0
   -2.8880   -1.6810    0.1120 C   0  0  0  0  0  0  0  0  0  0  0  0
   -4.2510   -2.2940    0.3510 C   0  0  0  0  0  0  0  0  0  0  0  0
   -5.1270   -1.5790   -0.6250 C   0  0  0  0  0  0  0  0  0  0  0  0
   -4.6640   -0.1430   -0.4730 C   0  0  0  0  0  0  0  0  0  0  0  0
   -1.4230    0.5160    1.1930 O   0  0  0  0  0  0  0  0  0  0  0  0
  1  2  2  0
  2  3  1  0
  2 11  1  0
  4  3  1  1
  4  5  1  0
  4  9  1  0
  5  6  1  0
  6  7  1  0
  7  8  1  0
  9  8  1  6
  9 10  1  0
 11 10  1  6
 11 12  1  0
 12 13  1  1
 12 22  1  0
 13 14  1  0
 14 15  1  0
 16 15  1  6
 16 17  1  0
 16 22  1  0
 17 18  1  1
 17 21  1  0
 18 19  1  0
 19 20  1  0
 20 21  1  0
M  END
