
     RDKit          3D

 30 32  0  0  0  0  0  0  0  0999 V2000
   -5.1230   -4.0270   -0.5450 C   0  0  0  0  0  0  0  0  0  0  0  0
   -4.5680   -2.8020    0.0870 C   0  0  0  0  0  0  0  0  0  0  0  0
   -5.3150   -1.7830    0.5390 N   0  0  0  0  0  0  0  0  0  0  0  0
   -4.4670   -0.8910    1.0250 N   0  0  0  0  0  0  0  0  0  0  0  0
   -3.2090   -1.3350    0.8840 C   0  0  0  0  0  0  0  0  0  0  0  0
   -1.9960   -0.6100    1.3110 C   0  0  0  0  0  0  0  0  0  0  0  0
   -1.4490    0.2820    0.2240 C   0  0  2  0  0  0  0  0  0  0  0  0
   -2.5150    1.3200   -0.1760 C   0  0  0  0  0  0  0  0  0  0  0  0
   -1.1580   -0.5220   -0.9890 C   0  0  0  0  0  0  0  0  0  0  0  0
   -0.2660    1.0450    0.7870 C   0  0  1  0  0  0  0  0  0  0  0  0
    0.8230    0.1330    1.2530 C   0  0  0  0  0  0  0  0  0  0  0  0
    1.4000   -0.6340    0.2030 O   0  0  0  0  0  0  0  0  0  0  0  0
    2.4120   -1.5360    0.4900 C   0  0  0  0  0  0  0  0  0  0  0  0
    2.7660   -1.6280    1.6920 O   0  0  0  0  0  0  0  0  0  0  0  0
    3.0770   -2.3660   -0.5000 C   0  0  0  0  0  0  0  0  0  0  0  0
    4.0400   -3.2440   -0.2570 C   0  0  0  0  0  0  0  0  0  0  0  0
    4.4760   -3.8970   -1.4760 C   0  0  0  0  0  0  0  0  0  0  0  0
    3.7850   -3.4200   -2.4440 N   0  0  0  0  0  0  0  0  0  0  0  0
    2.8610   -2.4350   -1.9400 C   0  0  0  0  0  0  0  0  0  0  0  0
    2.0190   -1.7410   -2.6070 N   0  0  0  0  0  0  0  0  0  0  0  0
    0.2430    1.9930   -0.1980 N   0  0  0  0  0  0  0  0  0  0  0  0
    1.1200    3.0510    0.1220 C   0  0  0  0  0  0  0  0  0  0  0  0
    1.4460    3.4060    1.4080 C   0  0  0  0  0  0  0  0  0  0  0  0
    2.3000    4.4840    1.6780 C   0  0  0  0  0  0  0  0  0  0  0  0
    2.8450    5.2300    0.6640 C   0  0  0  0  0  0  0  0  0  0  0  0
    3.6740    6.2750    0.9530 F   0  0  0  0  0  0  0  0  0  0  0  0
    2.5270    4.8870   -0.6310 C   0  0  0  0  0  0  0  0  0  0  0  0
    1.6880    3.8280   -0.8880 C   0  0  0  0  0  0  0  0  0  0  0  0
    1.3010    3.4170   -2.5640 Cl  0  0  0  0  0  0  0  0  0  0  0  0
   -3.2910   -2.4960    0.3130 O   0  0  0  0  0  0  0  0  0  0  0  0
  1  2  1  0
  2  3  2  0
  2 30  1  0
  3  4  1  0
  4  5  2  0
  5  6  1  0
  5 30  1  0
  6  7  1  0
  7  8  1  6
  7  9  1  0
  7 10  1  0
 10 11  1  6
 10 21  1  0
 11 12  1  0
 12 13  1  0
 13 14  2  0
 13 15  1  0
 15 16  2  0
 15 19  1  0
 16 17  1  0
 17 18  2  0
 18 19  1  0
 19 20  2  0
 21 22  1  0
 22 23  2  0
 22 28  1  0
 23 24  1  0
 24 25  2  0
 25 26  1  0
 25 27  1  0
 27 28  2  0
 28 29  1  0
M  END
