
     RDKit          3D

 30 32  0  0  0  0  0  0  0  0999 V2000
    1.9400   -3.5840   -1.4520 C   0  0  0  0  0  0  0  0  0  0  0  0
    1.2410   -2.7120   -2.4710 C   0  0  0  0  0  0  0  0  0  0  0  0
    0.2100   -2.0010   -1.8970 O   0  0  0  0  0  0  0  0  0  0  0  0
    0.2320   -1.0680   -0.8940 C   0  0  0  0  0  0  0  0  0  0  0  0
   -0.9530   -0.4820   -0.4640 C   0  0  0  0  0  0  0  0  0  0  0  0
   -1.0150    0.4460    0.5190 C   0  0  0  0  0  0  0  0  0  0  0  0
   -2.1530    1.0830    1.0110 N   0  0  0  0  0  0  0  0  0  0  0  0
   -3.4860    0.9260    0.6050 C   0  0  0  0  0  0  0  0  0  0  0  0
   -3.7340    0.1330   -0.3000 O   0  0  0  0  0  0  0  0  0  0  0  0
   -4.6140    1.6890    1.2360 C   0  0  0  0  0  0  0  0  0  0  0  0
   -5.8750    1.3380    0.6330 N   0  0  0  0  0  0  0  0  0  0  0  0
   -6.7450    0.2610    1.0890 C   0  0  0  0  0  0  0  0  0  0  0  0
   -7.6970    0.0610   -0.0440 C   0  0  0  0  0  0  0  0  0  0  0  0
   -7.8200    1.4240   -0.7390 C   0  0  0  0  0  0  0  0  0  0  0  0
   -6.4690    1.9740   -0.4870 C   0  0  0  0  0  0  0  0  0  0  0  0
   -5.9120    2.8710   -1.1540 O   0  0  0  0  0  0  0  0  0  0  0  0
    0.2050    0.7850    1.0830 C   0  0  0  0  0  0  0  0  0  0  0  0
    1.4280    0.2160    0.6780 C   0  0  0  0  0  0  0  0  0  0  0  0
    2.6140    0.6110    1.3370 N   0  0  0  0  0  0  0  0  0  0  0  0
    3.8970    0.4660    0.8100 C   0  0  0  0  0  0  0  0  0  0  0  0
    4.1490   -0.0480   -0.3880 N   0  0  0  0  0  0  0  0  0  0  0  0
    5.3570   -0.1870   -0.8900 C   0  0  0  0  0  0  0  0  0  0  0  0
    5.6550   -0.7620   -2.2330 C   0  0  0  0  0  0  0  0  0  0  0  0
    6.4350    0.2250   -0.1320 C   0  0  0  0  0  0  0  0  0  0  0  0
    7.7190    0.1320   -0.5440 F   0  0  0  0  0  0  0  0  0  0  0  0
    6.1880    0.7680    1.1300 C   0  0  0  0  0  0  0  0  0  0  0  0
    7.3220    1.2310    1.9910 C   0  0  0  0  0  0  0  0  0  0  0  0
    7.9160    2.7890    1.3750 Cl  0  0  0  0  0  0  0  0  0  0  0  0
    4.9490    0.8860    1.5900 N   0  0  0  0  0  0  0  0  0  0  0  0
    1.4340   -0.7150   -0.3160 C   0  0  0  0  0  0  0  0  0  0  0  0
  1  2  1  0
  2  3  1  0
  3  4  1  0
  4  5  2  0
  4 30  1  0
  5  6  1  0
  6  7  1  0
  6 17  2  0
  7  8  1  0
  8  9  2  0
  8 10  1  0
 10 11  1  0
 11 12  1  0
 11 15  1  0
 12 13  1  0
 13 14  1  0
 14 15  1  0
 15 16  2  0
 17 18  1  0
 18 19  1  0
 18 30  2  0
 19 20  1  0
 20 21  2  0
 20 29  1  0
 21 22  1  0
 22 23  1  0
 22 24  2  0
 24 25  1  0
 24 26  1  0
 26 27  1  0
 26 29  2  0
 27 28  1  0
M  END
