
     RDKit          3D

 29 31  0  0  0  0  0  0  0  0999 V2000
    0.9460    2.1350   -2.9720 C   0  0  0  0  0  0  0  0  0  0  0  0
    1.8780    1.5540   -2.0250 N   0  0  0  0  0  0  0  0  0  0  0  0
    1.0430    0.9620   -0.9680 C   0  0  0  0  0  0  0  0  0  0  0  0
    1.9160    0.3160    0.0930 C   0  0  0  0  0  0  0  0  0  0  0  0
    3.2360    0.3350    0.0240 N   0  0  0  0  0  0  0  0  0  0  0  0
    4.0150   -0.1210    0.7920 C   0  0  0  0  0  0  0  0  0  0  0  0
    5.4900   -0.2550    0.9840 C   0  0  0  0  0  0  0  0  0  0  0  0
    5.9950   -0.8310    1.9690 O   0  0  0  0  0  0  0  0  0  0  0  0
    6.2880    0.2850    0.0290 O   0  0  0  0  0  0  0  0  0  0  0  0
    7.7200    0.2410    0.0670 C   0  0  0  0  0  0  0  0  0  0  0  0
    2.9030   -0.8330    2.0540 S   0  0  0  0  0  0  0  0  0  0  0  0
    1.3980   -0.3100    1.1890 C   0  0  0  0  0  0  0  0  0  0  0  0
    0.0590   -0.5750    1.7110 C   0  0  0  0  0  0  0  0  0  0  0  0
   -0.0260   -1.1760    2.8450 O   0  0  0  0  0  0  0  0  0  0  0  0
   -1.1490   -0.2480    1.1130 N   0  0  0  0  0  0  0  0  0  0  0  0
   -2.4470   -0.4810    1.6250 C   0  0  0  0  0  0  0  0  0  0  0  0
   -2.6620   -0.4640    3.0020 C   0  0  0  0  0  0  0  0  0  0  0  0
   -3.9410   -0.4760    3.5100 C   0  0  0  0  0  0  0  0  0  0  0  0
   -5.0320   -0.5050    2.6710 C   0  0  0  0  0  0  0  0  0  0  0  0
   -6.2850   -0.5130    3.2080 F   0  0  0  0  0  0  0  0  0  0  0  0
   -4.8320   -0.5240    1.3300 C   0  0  0  0  0  0  0  0  0  0  0  0
   -3.5200   -0.5160    0.7900 C   0  0  0  0  0  0  0  0  0  0  0  0
   -3.4040   -0.7430   -0.6440 C   0  0  0  0  0  0  0  0  0  0  0  0
   -4.3640   -0.4020   -1.5400 C   0  0  0  0  0  0  0  0  0  0  0  0
   -3.9860   -0.7550   -2.8800 C   0  0  0  0  0  0  0  0  0  0  0  0
   -4.6290   -0.5790   -3.9530 O   0  0  0  0  0  0  0  0  0  0  0  0
   -2.7100   -1.3620   -2.8010 N   0  0  0  0  0  0  0  0  0  0  0  0
   -2.3460   -1.3590   -1.3980 C   0  0  0  0  0  0  0  0  0  0  0  0
   -1.2430   -1.8550   -0.9960 O   0  0  0  0  0  0  0  0  0  0  0  0
  1  2  1  0
  2  3  1  0
  3  4  1  0
  4  5  1  0
  4 12  2  0
  5  6  2  0
  6  7  1  0
  6 11  1  0
  7  8  2  0
  7  9  1  0
  9 10  1  0
 11 12  1  0
 12 13  1  0
 13 14  2  0
 13 15  1  0
 15 16  1  0
 16 17  2  0
 16 22  1  0
 17 18  1  0
 18 19  2  0
 19 20  1  0
 19 21  1  0
 21 22  2  0
 22 23  1  0
 23 24  2  0
 23 28  1  0
 24 25  1  0
 25 26  2  0
 25 27  1  0
 27 28  1  0
 28 29  2  0
M  END
