
     RDKit          3D

 28 30  0  0  0  0  0  0  0  0999 V2000
   -3.4310   -0.6050   -2.0730 C   0  0  0  0  0  0  0  0  0  0  0  0
   -3.6360   -0.3130   -0.6210 C   0  0  0  0  0  0  0  0  0  0  0  0
   -4.8310   -0.0310   -0.0290 N   0  0  0  0  0  0  0  0  0  0  0  0
   -4.6470    0.1770    1.2720 N   0  0  0  0  0  0  0  0  0  0  0  0
   -3.3440    0.0440    1.5890 C   0  0  0  0  0  0  0  0  0  0  0  0
   -2.7410    0.2030    2.9520 C   0  0  0  0  0  0  0  0  0  0  0  0
   -2.7220   -0.2620    0.3990 C   0  0  0  0  0  0  0  0  0  0  0  0
   -1.3020   -0.4960    0.2490 N   0  0  0  0  0  0  0  0  0  0  0  0
   -0.5070    0.6400   -0.0340 C   0  0  0  0  0  0  0  0  0  0  0  0
   -1.1570    1.7690   -0.1200 O   0  0  0  0  0  0  0  0  0  0  0  0
    0.9000    0.7210   -0.2480 C   0  0  0  0  0  0  0  0  0  0  0  0
    1.4260    1.9480   -0.4390 C   0  0  0  0  0  0  0  0  0  0  0  0
    0.7630    3.2010   -0.4480 C   0  0  0  0  0  0  0  0  0  0  0  0
    0.0960    3.8420    0.5960 C   0  0  0  0  0  0  0  0  0  0  0  0
   -0.3690    5.0220    0.0670 C   0  0  0  0  0  0  0  0  0  0  0  0
    0.0160    5.0770   -1.2610 C   0  0  0  0  0  0  0  0  0  0  0  0
    0.6810    3.9890   -1.5360 O   0  0  0  0  0  0  0  0  0  0  0  0
    1.8840   -0.3290   -0.3040 C   0  0  0  0  0  0  0  0  0  0  0  0
    3.0990    0.0940   -0.5100 O   0  0  0  0  0  0  0  0  0  0  0  0
    1.7870   -1.7110   -0.1820 N   0  0  0  0  0  0  0  0  0  0  0  0
    2.8990   -2.5920   -0.2810 C   0  0  0  0  0  0  0  0  0  0  0  0
    2.8740   -3.8370    0.3670 C   0  0  0  0  0  0  0  0  0  0  0  0
    3.9330   -4.7260    0.2520 C   0  0  0  0  0  0  0  0  0  0  0  0
    3.8960   -5.9330    0.8870 F   0  0  0  0  0  0  0  0  0  0  0  0
    4.9690   -4.3750   -0.4830 O   0  0  0  0  0  0  0  0  0  0  0  0
    5.0600   -3.2330   -1.1140 C   0  0  0  0  0  0  0  0  0  0  0  0
    6.0780   -2.9940   -1.7830 O   0  0  0  0  0  0  0  0  0  0  0  0
    4.0010   -2.3060   -1.0190 C   0  0  0  0  0  0  0  0  0  0  0  0
  1  2  1  0
  2  3  2  0
  2  7  1  0
  3  4  1  0
  4  5  1  0
  5  6  1  0
  5  7  2  0
  7  8  1  0
  8  9  1  0
  9 10  2  0
  9 11  1  0
 11 12  2  3
 11 18  1  0
 12 13  1  0
 13 14  2  0
 13 17  1  0
 14 15  1  0
 15 16  2  0
 16 17  1  0
 18 19  2  0
 18 20  1  0
 20 21  1  0
 21 22  1  0
 21 28  2  0
 22 23  2  0
 23 24  1  0
 23 25  1  0
 25 26  1  0
 26 27  2  0
 26 28  1  0
M  END
