
     RDKit          3D

 30 32  0  0  0  0  0  0  0  0999 V2000
   -6.6810   -2.4160   -1.2620 C   0  0  0  0  0  0  0  0  0  0  0  0
   -7.3870   -1.4960   -0.6620 C   0  0  0  0  0  0  0  0  0  0  0  0
   -8.6900   -1.3490   -0.9810 F   0  0  0  0  0  0  0  0  0  0  0  0
   -6.7520   -0.6260    0.3700 C   0  0  0  0  0  0  0  0  0  0  0  0
   -7.3690    0.3110    1.0250 C   0  0  0  0  0  0  0  0  0  0  0  0
   -6.4730    0.9990    1.9790 C   0  0  0  0  0  0  0  0  0  0  0  0
   -5.2900    0.0660    2.0710 C   0  0  0  0  0  0  0  0  0  0  0  0
   -5.3430   -0.6990    0.7850 C   0  0  2  0  0  0  0  0  0  0  0  0
   -4.4210   -0.0040   -0.1850 C   0  0  0  0  0  0  0  0  0  0  0  0
   -2.9900   -0.0990    0.1940 C   0  0  0  0  0  0  0  0  0  0  0  0
   -2.6990   -0.6180    1.2910 O   0  0  0  0  0  0  0  0  0  0  0  0
   -1.9580    0.3680   -0.6400 N   0  0  0  0  0  0  0  0  0  0  0  0
   -0.5750    0.3320   -0.4020 C   0  0  0  0  0  0  0  0  0  0  0  0
    0.0680   -0.0260    0.7420 C   0  0  0  0  0  0  0  0  0  0  0  0
    1.4350   -0.0150    0.8090 C   0  0  0  0  0  0  0  0  0  0  0  0
    2.2560    0.3530   -0.2650 C   0  0  0  0  0  0  0  0  0  0  0  0
    3.6840    0.2750   -0.0860 C   0  0  0  0  0  0  0  0  0  0  0  0
    4.1120   -0.0600    1.1210 O   0  0  0  0  0  0  0  0  0  0  0  0
    4.7280    0.4900   -0.9950 N   0  0  0  0  0  0  0  0  0  0  0  0
    4.6460    1.0110   -2.3270 C   0  0  0  0  0  0  0  0  0  0  0  0
    4.3810   -0.3600   -3.4630 Cl  0  0  0  0  0  0  0  0  0  0  0  0
    6.0860    0.1590   -0.5200 C   0  0  0  0  0  0  0  0  0  0  0  0
    7.2210    0.1450   -1.2650 C   0  0  0  0  0  0  0  0  0  0  0  0
    8.2810   -0.2240   -0.4480 C   0  0  0  0  0  0  0  0  0  0  0  0
    7.7330   -0.4180    0.7660 N   0  0  0  0  0  0  0  0  0  0  0  0
    8.5280   -0.8210    1.9200 C   0  0  0  0  0  0  0  0  0  0  0  0
    6.4180   -0.1880    0.7240 N   0  0  0  0  0  0  0  0  0  0  0  0
    1.6050    0.7010   -1.3740 N   0  0  0  0  0  0  0  0  0  0  0  0
    0.2490    0.6960   -1.4540 C   0  0  0  0  0  0  0  0  0  0  0  0
   -0.2280    1.0470   -2.5570 O   0  0  0  0  0  0  0  0  0  0  0  0
  1  2  2  0
  2  3  1  0
  2  4  1  0
  4  5  2  0
  4  8  1  0
  5  6  1  0
  6  7  1  0
  7  8  1  0
  8  9  1  6
  9 10  1  0
 10 11  2  0
 10 12  1  0
 12 13  1  0
 13 14  2  0
 13 29  1  0
 14 15  1  0
 15 16  2  0
 16 17  1  0
 16 28  1  0
 17 18  2  0
 17 19  1  0
 19 20  1  0
 19 22  1  0
 20 21  1  0
 22 23  1  0
 22 27  2  0
 23 24  2  0
 24 25  1  0
 25 26  1  0
 25 27  1  0
 28 29  1  0
 29 30  2  0
M  END
