
     RDKit          3D

 30 32  0  0  0  0  0  0  0  0999 V2000
   -6.8250    0.6250    3.5570 C   0  0  0  0  0  0  0  0  0  0  0  0
   -6.5980   -0.0810    2.2570 C   0  0  1  0  0  0  0  0  0  0  0  0
   -7.4960    0.4000    1.1460 C   0  0  0  0  0  0  0  0  0  0  0  0
   -5.1800    0.0240    1.7970 C   0  0  0  0  0  0  0  0  0  0  0  0
   -4.1830    0.6120    2.3470 N   0  0  0  0  0  0  0  0  0  0  0  0
   -3.0300    0.4660    1.5780 N   0  0  0  0  0  0  0  0  0  0  0  0
   -3.2630   -0.2190    0.5210 C   0  0  0  0  0  0  0  0  0  0  0  0
   -2.3080   -0.5980   -0.5520 C   0  0  0  0  0  0  0  0  0  0  0  0
   -2.6670   -1.2670   -1.5280 O   0  0  0  0  0  0  0  0  0  0  0  0
   -0.9830   -0.1570   -0.4010 N   0  0  0  0  0  0  0  0  0  0  0  0
    0.0440   -0.4250   -1.3290 C   0  0  0  0  0  0  0  0  0  0  0  0
   -0.1130   -0.9270   -2.5900 C   0  0  0  0  0  0  0  0  0  0  0  0
    0.9950   -1.1670   -3.4170 C   0  0  0  0  0  0  0  0  0  0  0  0
    2.2750   -0.9100   -2.9970 C   0  0  0  0  0  0  0  0  0  0  0  0
    2.4460   -0.4000   -1.7200 C   0  0  0  0  0  0  0  0  0  0  0  0
    1.3580   -0.1650   -0.9100 C   0  0  0  0  0  0  0  0  0  0  0  0
    3.7530   -0.1530   -1.3330 O   0  0  0  0  0  0  0  0  0  0  0  0
    4.8780   -0.3650   -2.0910 C   0  0  0  0  0  0  0  0  0  0  0  0
    6.2040   -0.0820   -1.6130 C   0  0  0  0  0  0  0  0  0  0  0  0
    7.5300   -0.4550   -2.8130 Cl  0  0  0  0  0  0  0  0  0  0  0  0
    6.6600    0.3790   -0.5170 C   0  0  0  0  0  0  0  0  0  0  0  0
    5.9410    0.7920    0.6740 C   0  0  0  0  0  0  0  0  0  0  0  0
    6.7590    1.2880    1.8020 C   0  0  0  0  0  0  0  0  0  0  0  0
    6.2680    1.6670    2.8650 O   0  0  0  0  0  0  0  0  0  0  0  0
    4.6800    0.7570    0.8010 N   0  0  0  0  0  0  0  0  0  0  0  0
    4.0020    1.1670    1.9760 C   0  0  0  0  0  0  0  0  0  0  0  0
    4.1550    0.3100    3.0640 F   0  0  0  0  0  0  0  0  0  0  0  0
    4.7300   -0.8620   -3.3390 C   0  0  0  0  0  0  0  0  0  0  0  0
    3.4190   -1.1370   -3.7980 N   0  0  0  0  0  0  0  0  0  0  0  0
   -4.6940   -0.5840    0.5460 C   0  0  0  0  0  0  0  0  0  0  0  0
  2  1  1  1
  2  3  1  0
  2  4  1  0
  4  5  2  0
  4 30  1  0
  5  6  1  0
  6  7  2  0
  7  8  1  0
  7 30  1  0
  8  9  2  0
  8 10  1  0
 10 11  1  0
 11 12  2  0
 11 16  1  0
 12 13  1  0
 13 14  2  0
 14 15  1  0
 14 29  1  0
 15 16  2  0
 15 17  1  0
 17 18  1  0
 18 19  1  0
 18 28  2  0
 19 20  1  0
 19 21  2  3
 21 22  1  0
 22 23  1  0
 22 25  2  3
 23 24  2  0
 25 26  1  0
 26 27  1  0
 28 29  1  0
M  END
