
     RDKit          3D

 31 34  0  0  0  0  0  0  0  0999 V2000
    8.9910    1.3160    1.0330 C   0  0  0  0  0  0  0  0  0  0  0  0
    7.6770    0.9100    0.4190 C   0  0  0  0  0  0  0  0  0  0  0  0
    7.7260    0.3730   -0.6980 O   0  0  0  0  0  0  0  0  0  0  0  0
    6.4450    1.1160    1.0520 N   0  0  0  0  0  0  0  0  0  0  0  0
    5.1620    0.7800    0.5800 C   0  0  0  0  0  0  0  0  0  0  0  0
    4.0870    1.0170    1.4200 C   0  0  0  0  0  0  0  0  0  0  0  0
    2.7780    0.7250    1.0640 C   0  0  0  0  0  0  0  0  0  0  0  0
    2.4900    0.1760   -0.1660 C   0  0  0  0  0  0  0  0  0  0  0  0
    1.1550   -0.1520   -0.5610 N   0  0  0  0  0  0  0  0  0  0  0  0
    0.7340   -0.6160   -1.8500 C   0  0  0  0  0  0  0  0  0  0  0  0
    1.2960   -0.4000   -2.9380 O   0  0  0  0  0  0  0  0  0  0  0  0
   -0.5130   -1.4130   -1.6560 C   0  0  2  0  0  0  0  0  0  0  0  0
   -1.5660   -1.0270   -2.6560 C   0  0  1  0  0  0  0  0  0  0  0  0
   -2.8090   -1.8500   -2.3940 C   0  0  0  0  0  0  0  0  0  0  0  0
   -3.2040   -1.8360   -0.9280 C   0  0  0  0  0  0  0  0  0  0  0  0
   -2.4210   -0.7300   -0.2540 C   0  0  2  0  0  0  0  0  0  0  0  0
   -2.8880   -0.4540    1.0730 N   0  0  0  0  0  0  0  0  0  0  0  0
   -4.1740   -0.0900    1.4530 C   0  0  0  0  0  0  0  0  0  0  0  0
   -5.0440    0.0120    0.5340 O   0  0  0  0  0  0  0  0  0  0  0  0
   -4.6390    0.1820    2.7260 O   0  0  0  0  0  0  0  0  0  0  0  0
   -5.9680    0.5390    3.0450 C   0  0  0  0  0  0  0  0  0  0  0  0
   -6.3190    1.7870    2.3120 C   0  0  0  0  0  0  0  0  0  0  0  0
   -5.4860    2.3760    1.5570 O   0  0  0  0  0  0  0  0  0  0  0  0
   -7.5670    2.3860    2.4020 O   0  0  0  0  0  0  0  0  0  0  0  0
   -2.5720    0.5300   -1.0660 C   0  0  0  0  0  0  0  0  0  0  0  0
   -1.9590    0.4280   -2.4420 C   0  0  0  0  0  0  0  0  0  0  0  0
   -0.9670   -1.1610   -0.2580 C   0  0  2  0  0  0  0  0  0  0  0  0
   -0.0370   -0.1150    0.2200 C   0  0  0  0  0  0  0  0  0  0  0  0
   -0.2540    0.6930    1.1730 O   0  0  0  0  0  0  0  0  0  0  0  0
    3.5470   -0.0580   -0.9970 C   0  0  0  0  0  0  0  0  0  0  0  0
    4.8700    0.2390   -0.6330 C   0  0  0  0  0  0  0  0  0  0  0  0
  1  2  1  0
  2  3  2  0
  2  4  1  0
  4  5  1  0
  5  6  2  0
  5 31  1  0
  6  7  1  0
  7  8  2  0
  8  9  1  0
  8 30  1  0
  9 10  1  0
  9 28  1  0
 10 11  2  0
 12 10  1  6
 12 13  1  0
 12 27  1  0
 13 14  1  0
 13 26  1  1
 14 15  1  0
 15 16  1  0
 16 17  1  1
 16 25  1  0
 16 27  1  0
 17 18  1  0
 18 19  2  0
 18 20  1  0
 20 21  1  0
 21 22  1  0
 22 23  2  0
 22 24  1  0
 25 26  1  0
 27 28  1  6
 28 29  2  0
 30 31  2  0
M  END
