
     RDKit          3D

 21 21  0  0  0  0  0  0  0  0999 V2000
   -2.8830   -1.4230    0.3200 N   0  0  0  0  0  0  0  0  0  0  0  0
   -1.6980   -1.1730    0.7780 C   0  0  0  0  0  0  0  0  0  0  0  0
   -0.7860   -0.5140   -0.1150 N   0  0  0  0  0  0  0  0  0  0  0  0
   -1.2560    0.0150   -1.3700 C   0  0  0  0  0  0  0  0  0  0  0  0
   -0.1700    0.6580   -2.1640 C   0  0  2  0  0  0  0  0  0  0  0  0
   -0.7690    1.1360   -3.3680 O   0  0  0  0  0  0  0  0  0  0  0  0
   -0.9660   -0.0050   -4.1410 C   0  0  0  0  0  0  0  0  0  0  0  0
   -0.0140   -0.9640   -3.7270 O   0  0  0  0  0  0  0  0  0  0  0  0
    0.7800   -0.3800   -2.7140 C   0  0  0  0  0  0  0  0  0  0  0  0
    1.9750   -0.6470   -2.3560 N   0  0  0  0  0  0  0  0  0  0  0  0
    2.5560    0.0970   -1.2990 C   0  0  0  0  0  0  0  0  0  0  0  0
    2.7840    1.3480   -1.4370 O   0  0  0  0  0  0  0  0  0  0  0  0
    2.9170   -0.4300   -0.0740 O   0  0  0  0  0  0  0  0  0  0  0  0
    3.4900    0.2770    0.9780 C   0  0  0  0  0  0  0  0  0  0  0  0
    2.6900    1.3890    1.4950 C   0  0  0  0  0  0  0  0  0  0  0  0
    1.5640    1.7500    1.0840 O   0  0  0  0  0  0  0  0  0  0  0  0
    3.2430    2.1200    2.5590 O   0  0  0  0  0  0  0  0  0  0  0  0
   -1.2960   -1.5210    2.0890 N   0  0  0  0  0  0  0  0  0  0  0  0
   -2.5740   -1.8050    3.3360 P   0  0  0  0  0  0  0  0  0  0  0  0
   -3.8950   -0.6820    3.0940 O   0  0  0  0  0  0  0  0  0  0  0  0
   -1.9080   -1.4950    4.9210 O   0  0  0  0  0  0  0  0  0  0  0  0
  1  2  2  0
  2  3  1  0
  2 18  1  0
  3  4  1  0
  5  4  1  1
  5  6  1  0
  5  9  1  0
  6  7  1  0
  7  8  1  0
  8  9  1  0
  9 10  2  3
 10 11  1  0
 11 12  2  0
 11 13  1  0
 13 14  1  0
 14 15  1  0
 15 16  2  0
 15 17  1  0
 18 19  1  0
 19 20  1  0
 19 21  1  0
M  END
