
     RDKit          3D

 20 20  0  0  0  0  0  0  0  0999 V2000
   -1.2500   -0.8390    0.4290 O   0  0  0  0  0  0  0  0  0  0  0  0
   -1.2410    0.4070    0.5900 C   0  0  0  0  0  0  0  0  0  0  0  0
    0.0330    1.1410    0.3840 C   0  0  0  0  0  0  0  0  0  0  0  0
    1.1090    0.2420    0.0110 N   0  0  0  0  0  0  0  0  0  0  0  0
    2.4130    0.7120   -0.2370 C   0  0  0  0  0  0  0  0  0  0  0  0
    2.6040    1.9530   -0.1200 O   0  0  0  0  0  0  0  0  0  0  0  0
    3.5060   -0.1210   -0.6060 N   0  0  0  0  0  0  0  0  0  0  0  0
    3.3750   -1.5240   -0.7580 C   0  0  0  0  0  0  0  0  0  0  0  0
    4.4120   -2.2040   -1.0940 N   0  0  0  0  0  0  0  0  0  0  0  0
    5.6600   -1.6880   -1.3220 O   0  0  0  0  0  0  0  0  0  0  0  0
    6.0300   -0.3810   -0.8980 C   0  0  1  0  0  0  0  0  0  0  0  0
    6.9130    0.1840   -1.8170 O   0  0  0  0  0  0  0  0  0  0  0  0
    4.7940    0.4410   -0.8380 C   0  0  0  0  0  0  0  0  0  0  0  0
    4.8390    1.6990   -0.9950 O   0  0  0  0  0  0  0  0  0  0  0  0
   -2.4480    1.0420    0.9600 N   0  0  0  0  0  0  0  0  0  0  0  0
   -3.6950    0.3850    1.1700 C   0  0  0  0  0  0  0  0  0  0  0  0
   -4.1930   -0.3480   -0.0590 C   0  0  0  0  0  0  0  0  0  0  0  0
   -5.8190   -1.1830    0.2770 P   0  0  0  0  0  0  0  0  0  0  0  0
   -6.2040   -1.0500    1.9650 O   0  0  0  0  0  0  0  0  0  0  0  0
   -7.1010   -0.3860   -0.6110 O   0  0  0  0  0  0  0  0  0  0  0  0
  1  2  2  0
  2  3  1  0
  2 15  1  0
  3  4  1  0
  4  5  1  0
  5  6  2  0
  5  7  1  0
  7  8  1  0
  7 13  1  0
  8  9  2  0
  9 10  1  0
 10 11  1  0
 11 12  1  6
 11 13  1  0
 13 14  2  0
 15 16  1  0
 16 17  1  0
 17 18  1  0
 18 19  1  0
 18 20  1  0
M  END
