
     RDKit          3D

 20 20  0  0  0  0  0  0  0  0999 V2000
    3.5010    0.4700    1.4160 N   0  0  0  0  0  0  0  0  0  0  0  0
    3.5910   -0.4120    0.4540 C   0  0  0  0  0  0  0  0  0  0  0  0
    2.5100   -0.5440   -0.4590 N   0  0  0  0  0  0  0  0  0  0  0  0
    1.1590   -0.1780   -0.0850 C   0  0  0  0  0  0  0  0  0  0  0  0
    0.2340   -0.4120   -1.2120 C   0  0  0  0  0  0  0  0  0  0  0  0
    0.6800   -0.8670   -2.2920 O   0  0  0  0  0  0  0  0  0  0  0  0
   -1.1440   -0.1290   -1.0870 N   0  0  0  0  0  0  0  0  0  0  0  0
   -2.1770   -0.3090   -2.1160 C   0  0  0  0  0  0  0  0  0  0  0  0
   -3.3980   -0.5640   -1.2500 C   0  0  2  0  0  0  0  0  0  0  0  0
   -4.5810   -0.4240   -1.9630 O   0  0  0  0  0  0  0  0  0  0  0  0
   -3.2380    0.4850   -0.1910 C   0  0  1  0  0  0  0  0  0  0  0  0
   -3.9830    0.2120    0.9750 O   0  0  0  0  0  0  0  0  0  0  0  0
   -4.9090    1.1250    1.4510 C   0  0  0  0  0  0  0  0  0  0  0  0
   -5.0650    2.2020    0.8150 O   0  0  0  0  0  0  0  0  0  0  0  0
   -5.6680    0.8940    2.6020 O   0  0  0  0  0  0  0  0  0  0  0  0
   -1.7580    0.3980    0.1150 C   0  0  0  0  0  0  0  0  0  0  0  0
    4.7710   -1.1990    0.3690 N   0  0  0  0  0  0  0  0  0  0  0  0
    6.1860   -0.8390    1.4240 P   0  0  0  0  0  0  0  0  0  0  0  0
    7.5130   -0.3070    0.4360 O   0  0  0  0  0  0  0  0  0  0  0  0
    5.7690    0.4490    2.5100 O   0  0  0  0  0  0  0  0  0  0  0  0
  1  2  2  0
  2  3  1  0
  2 17  1  0
  3  4  1  0
  4  5  1  0
  5  6  2  0
  5  7  1  0
  7  8  1  0
  7 16  1  0
  8  9  1  0
  9 10  1  6
  9 11  1  0
 11 12  1  1
 11 16  1  0
 12 13  1  0
 13 14  2  0
 13 15  1  0
 17 18  1  0
 18 19  1  0
 18 20  1  0
M  END
