
     RDKit          3D

 20 21  0  0  0  0  0  0  0  0999 V2000
    0.6250   -1.8350   -1.2510 C   0  0  0  0  0  0  0  0  0  0  0  0
    0.8840   -0.6400   -0.3940 C   0  0  1  0  0  0  0  0  0  0  0  0
    2.2620   -0.5050    0.1170 C   0  0  0  0  0  0  0  0  0  0  0  0
    2.8900   -1.6180    0.7300 O   0  0  0  0  0  0  0  0  0  0  0  0
    4.5530   -1.1550    1.0770 P   0  0  0  0  0  0  0  0  0  0  0  0
    4.5600    0.5520    1.5190 O   0  0  0  0  0  0  0  0  0  0  0  0
    5.5490   -1.2710   -0.3460 O   0  0  0  0  0  0  0  0  0  0  0  0
    0.4910    0.5460   -1.1060 N   0  0  0  0  0  0  0  0  0  0  0  0
   -0.2380    1.3660   -0.2060 C   0  0  0  0  0  0  0  0  0  0  0  0
   -0.3410    2.5760   -0.0810 O   0  0  0  0  0  0  0  0  0  0  0  0
   -0.9440    0.2060    0.6560 C   0  0  1  0  0  0  0  0  0  0  0  0
   -1.4620    1.1380    1.8010 C   0  0  0  0  0  0  0  0  0  0  0  0
   -2.6450    1.6280    1.1200 O   0  0  0  0  0  0  0  0  0  0  0  0
   -2.4640    2.9570    0.9160 O   0  0  0  0  0  0  0  0  0  0  0  0
   -2.1770   -0.1790   -0.0400 C   0  0  0  0  0  0  0  0  0  0  0  0
   -2.5620   -0.3040   -1.3060 N   0  0  0  0  0  0  0  0  0  0  0  0
   -3.8370   -0.6900   -1.3540 C   0  0  0  0  0  0  0  0  0  0  0  0
   -4.3110   -0.8160   -0.1100 N   0  0  0  0  0  0  0  0  0  0  0  0
   -3.3040   -0.5050    0.7260 N   0  0  0  0  0  0  0  0  0  0  0  0
    0.0260   -0.6190    0.7560 O   0  0  0  0  0  0  0  0  0  0  0  0
  2  1  1  6
  2  3  1  0
  2  8  1  0
  2 20  1  0
  3  4  1  0
  4  5  1  0
  5  6  1  0
  5  7  1  0
  8  9  1  0
  9 10  2  0
  9 11  1  0
 11 12  1  1
 11 15  1  0
 11 20  1  0
 12 13  1  0
 13 14  1  0
 15 16  1  0
 15 19  2  0
 16 17  2  0
 17 18  1  0
 18 19  1  0
M  END
