
     RDKit          3D

 20 20  0  0  0  0  0  0  0  0999 V2000
   -2.5320   -0.2090    1.8460 N   0  0  0  0  0  0  0  0  0  0  0  0
   -2.1840   -0.3490    0.6290 C   0  0  0  0  0  0  0  0  0  0  0  0
   -2.6190    0.5630   -0.3660 N   0  0  0  0  0  0  0  0  0  0  0  0
   -3.8700    1.7770    0.0760 P   0  0  0  0  0  0  0  0  0  0  0  0
   -3.8360    3.0700   -1.0580 O   0  0  0  0  0  0  0  0  0  0  0  0
   -5.4150    0.9820    0.0210 O   0  0  0  0  0  0  0  0  0  0  0  0
   -1.3470   -1.4500    0.3100 N   0  0  0  0  0  0  0  0  0  0  0  0
   -1.7430   -2.7950    0.0380 C   0  0  0  0  0  0  0  0  0  0  0  0
   -0.5750   -3.3860   -0.6780 C   0  0  0  0  0  0  0  0  0  0  0  0
   -0.5770   -4.4390   -1.3990 O   0  0  0  0  0  0  0  0  0  0  0  0
    0.5260   -2.5430   -0.3940 N   0  0  0  0  0  0  0  0  0  0  0  0
    0.0750   -1.3420    0.2150 C   0  0  0  0  0  0  0  0  0  0  0  0
    0.8260   -0.3180    0.6200 C   0  0  0  0  0  0  0  0  0  0  0  0
    2.1740   -0.3860    0.4510 O   0  0  0  0  0  0  0  0  0  0  0  0
    3.0690    0.6940    0.4200 C   0  0  2  0  0  0  0  0  0  0  0  0
    2.6560    1.5890   -0.7290 C   0  0  0  0  0  0  0  0  0  0  0  0
    1.3340    2.0040   -0.4490 O   0  0  0  0  0  0  0  0  0  0  0  0
    4.4510    0.2010    0.2810 C   0  0  0  0  0  0  0  0  0  0  0  0
    4.6440   -1.0360    0.2120 O   0  0  0  0  0  0  0  0  0  0  0  0
    5.5610    1.0290    0.2210 O   0  0  0  0  0  0  0  0  0  0  0  0
  1  2  2  0
  2  3  1  0
  2  7  1  0
  3  4  1  0
  4  5  1  0
  4  6  1  0
  7  8  1  0
  7 12  1  0
  8  9  1  0
  9 10  2  0
  9 11  1  0
 11 12  1  0
 12 13  2  3
 13 14  1  0
 14 15  1  0
 15 16  1  6
 15 18  1  0
 16 17  1  0
 18 19  2  0
 18 20  1  0
M  END
