
     RDKit          3D

 42 45  0  0  0  0  0  0  0  0999 V2000
   -8.5350   -1.0210   -0.0370 C   0  0  0  0  0  0  0  0  0  0  0  0
   -7.5720   -1.8080   -0.8140 N   0  0  0  0  0  0  0  0  0  0  0  0
   -7.9030   -2.3680   -2.0970 C   0  0  0  0  0  0  0  0  0  0  0  0
   -6.2680   -1.9920   -0.2620 C   0  0  0  0  0  0  0  0  0  0  0  0
   -6.0010   -3.1540    0.4210 C   0  0  0  0  0  0  0  0  0  0  0  0
   -4.7990   -3.2880    1.0280 C   0  0  0  0  0  0  0  0  0  0  0  0
   -3.8730   -2.2430    0.9390 C   0  0  0  0  0  0  0  0  0  0  0  0
   -4.1040   -1.0670    0.2630 C   0  0  0  0  0  0  0  0  0  0  0  0
   -3.1260   -0.0730    0.1920 C   0  0  0  0  0  0  0  0  0  0  0  0
   -1.6750   -0.3420    1.0550 S   0  0  2  0  0  0  0  0  0  0  0  0
   -1.1570   -1.7320    0.6030 O   0  0  0  0  0  0  0  0  0  0  0  0
   -2.0120   -0.4340    2.5520 O   0  0  0  0  0  0  0  0  0  0  0  0
   -0.4230    0.7790    0.9110 N   0  0  0  0  0  0  0  0  0  0  0  0
    0.1660    0.9890   -0.3200 C   0  0  1  0  0  0  0  0  0  0  0  0
    0.6200    2.1560   -1.0260 C   0  0  0  0  0  0  0  0  0  0  0  0
    1.6780    3.0510   -0.5720 C   0  0  0  0  0  0  0  0  0  0  0  0
    1.6030    3.8910    0.6140 C   0  0  0  0  0  0  0  0  0  0  0  0
    0.7690    5.0280    0.6420 N   0  0  0  0  0  0  0  0  0  0  0  0
   -0.4640    5.2480    0.7070 C   0  0  0  0  0  0  0  0  0  0  0  0
   -0.9410    6.6080    0.7130 N   0  0  0  0  0  0  0  0  0  0  0  0
   -1.4420    4.2430    0.7810 N   0  0  0  0  0  0  0  0  0  0  0  0
    1.1270   -0.2030   -0.5690 C   0  0  0  0  0  0  0  0  0  0  0  0
    0.6520   -1.0860   -1.3270 O   0  0  0  0  0  0  0  0  0  0  0  0
    2.3920   -0.3710   -0.0440 N   0  0  0  0  0  0  0  0  0  0  0  0
    3.1080    0.3270    0.9760 C   0  0  0  0  0  0  0  0  0  0  0  0
    2.9020   -0.5790    2.2310 C   0  0  0  0  0  0  0  0  0  0  0  0
    3.3730   -1.9420    1.8650 C   0  0  0  0  0  0  0  0  0  0  0  0
    4.0620   -1.9930    0.5200 C   0  0  0  0  0  0  0  0  0  0  0  0
    3.2230   -1.4940   -0.6360 C   0  0  2  0  0  0  0  0  0  0  0  0
    4.1270   -0.9090   -1.6640 C   0  0  0  0  0  0  0  0  0  0  0  0
    4.9160   -1.9070   -2.4230 C   0  0  0  0  0  0  0  0  0  0  0  0
    5.7740   -2.8130   -1.7220 C   0  0  0  0  0  0  0  0  0  0  0  0
    5.4450   -4.0640   -1.7200 O   0  0  0  0  0  0  0  0  0  0  0  0
    6.9720   -2.3700   -1.0360 C   0  0  0  0  0  0  0  0  0  0  0  0
    7.6350   -1.3510   -0.7990 N   0  0  0  0  0  0  0  0  0  0  0  0
    8.6970   -1.2220   -0.1110 C   0  0  0  0  0  0  0  0  0  0  0  0
    9.2310   -2.3760    0.4850 C   0  0  0  0  0  0  0  0  0  0  0  0
    7.9790   -3.5940   -0.1110 S   0  0  0  0  0  0  0  0  0  0  0  0
   -3.4140    1.0790   -0.5340 C   0  0  0  0  0  0  0  0  0  0  0  0
   -4.6400    1.1850   -1.1380 C   0  0  0  0  0  0  0  0  0  0  0  0
   -5.6170    0.1860   -1.0600 C   0  0  0  0  0  0  0  0  0  0  0  0
   -5.3410   -0.9510   -0.3530 C   0  0  0  0  0  0  0  0  0  0  0  0
  1  2  1  0
  2  3  1  0
  2  4  1  0
  4  5  2  0
  4 42  1  0
  5  6  1  0
  6  7  2  0
  7  8  1  0
  8  9  2  0
  8 42  1  0
  9 10  1  0
  9 39  1  0
 10 11  2  0
 10 12  2  0
 10 13  1  1
 13 14  1  0
 14 15  1  1
 14 22  1  0
 15 16  1  0
 16 17  1  0
 17 18  1  0
 18 19  2  3
 19 20  1  0
 19 21  1  0
 22 23  2  0
 22 24  1  0
 24 25  1  0
 24 29  1  0
 25 26  1  0
 26 27  1  0
 27 28  1  0
 28 29  1  0
 29 30  1  6
 30 31  1  0
 31 32  1  0
 32 33  2  0
 32 34  1  0
 34 35  2  0
 34 38  1  0
 35 36  1  0
 36 37  2  0
 37 38  1  0
 39 40  2  0
 40 41  1  0
 41 42  2  0
M  CHG  1  18   1
M  END
