
     RDKit          3D

 42 47  0  0  0  0  0  0  0  0999 V2000
   -1.2220   -1.1510    3.5490 C   0  0  0  0  0  0  0  0  0  0  0  0
   -2.1780   -0.2790    3.6490 C   0  0  0  0  0  0  0  0  0  0  0  0
   -3.1070    0.3890    2.8670 C   0  0  0  0  0  0  0  0  0  0  0  0
   -3.8080    1.2440    3.7020 O   0  0  0  0  0  0  0  0  0  0  0  0
   -3.6340    0.5510    1.5820 C   0  0  0  0  0  0  0  0  0  0  0  0
   -3.3670   -0.0350    0.4290 C   0  0  0  0  0  0  0  0  0  0  0  0
   -2.3580   -1.0910    0.3110 C   0  0  2  0  0  0  0  0  0  0  0  0
   -1.0520   -0.5680   -0.0650 C   0  0  0  0  0  0  0  0  0  0  0  0
    0.0130   -1.3090   -0.2850 O   0  0  0  0  0  0  0  0  0  0  0  0
    0.6560   -2.1410    0.4690 C   0  0  0  0  0  0  0  0  0  0  0  0
    1.8480   -2.7890   -0.2020 C   0  0  0  0  0  0  0  0  0  0  0  0
    2.8450   -2.0290   -0.6510 O   0  0  0  0  0  0  0  0  0  0  0  0
    3.1610   -1.0760   -1.5300 C   0  0  0  0  0  0  0  0  0  0  0  0
    2.2680   -0.5450   -2.4400 C   0  0  0  0  0  0  0  0  0  0  0  0
    2.7080    0.4540   -3.3120 C   0  0  0  0  0  0  0  0  0  0  0  0
    3.9880    0.9160   -3.2930 C   0  0  0  0  0  0  0  0  0  0  0  0
    4.8720    0.3700   -2.3740 C   0  0  0  0  0  0  0  0  0  0  0  0
    4.4930   -0.6050   -1.5010 C   0  0  0  0  0  0  0  0  0  0  0  0
    5.3370   -1.1520   -0.5930 O   0  0  0  0  0  0  0  0  0  0  0  0
    6.6650   -0.8910   -0.3220 C   0  0  0  0  0  0  0  0  0  0  0  0
    6.9670    0.4820    0.1240 C   0  0  0  0  0  0  0  0  0  0  0  0
    5.9920    1.2870    0.2460 O   0  0  0  0  0  0  0  0  0  0  0  0
    8.3030    0.8970    0.4100 N   0  0  0  0  0  0  0  0  0  0  0  0
    8.5960    2.2700    0.8600 C   0  0  0  0  0  0  0  0  0  0  0  0
   10.2190    2.5140    0.0770 S   0  0  0  0  0  0  0  0  0  0  0  0
   10.5820    0.7890   -0.2240 N   0  0  0  0  0  0  0  0  0  0  0  0
    9.4550    0.1150    0.3180 C   0  0  0  0  0  0  0  0  0  0  0  0
    9.5070   -1.1090    0.6870 O   0  0  0  0  0  0  0  0  0  0  0  0
   -2.8660   -1.9960   -0.8570 C   0  0  0  0  0  0  0  0  0  0  0  0
   -2.7610   -1.2440   -1.9870 O   0  0  0  0  0  0  0  0  0  0  0  0
   -3.5410   -0.1480   -2.0470 C   0  0  0  0  0  0  0  0  0  0  0  0
   -4.0700    0.4080   -0.7850 C   0  0  2  0  0  0  0  0  0  0  0  0
   -4.0810    1.8850   -0.8580 N   0  0  0  0  0  0  0  0  0  0  0  0
   -4.6980    2.4450    0.2920 C   0  0  1  0  0  0  0  0  0  0  0  0
   -6.1150    2.7260   -0.0630 C   0  0  0  0  0  0  0  0  0  0  0  0
   -6.5610    3.6840   -0.6770 O   0  0  0  0  0  0  0  0  0  0  0  0
   -6.9020    1.5980    0.4810 C   0  0  0  0  0  0  0  0  0  0  0  0
   -8.0820    1.0070    0.4250 C   0  0  0  0  0  0  0  0  0  0  0  0
   -8.0920   -0.1480    1.3360 C   0  0  0  0  0  0  0  0  0  0  0  0
   -6.7490   -0.1390    1.9250 C   0  0  0  0  0  0  0  0  0  0  0  0
   -6.0770    0.8660    1.4270 C   0  0  0  0  0  0  0  0  0  0  0  0
   -4.7810    1.5520    1.4590 C   0  0  1  0  0  0  0  0  0  0  0  0
  1  2  2  0
  2  3  1  0
  3  4  2  0
  3  5  1  0
  5  6  2  0
 42  5  1  6
  6  7  1  0
  6 32  1  0
  7  8  1  6
  7 29  1  0
  8  9  1  0
  9 10  1  0
 10 11  1  0
 11 12  1  0
 12 13  1  0
 13 14  2  0
 13 18  1  0
 14 15  1  0
 15 16  2  0
 16 17  1  0
 17 18  2  0
 18 19  1  0
 19 20  1  0
 20 21  1  0
 21 22  2  0
 21 23  1  0
 23 24  1  0
 23 27  1  0
 24 25  1  0
 25 26  1  0
 26 27  1  0
 27 28  2  0
 29 30  1  0
 30 31  1  0
 32 31  1  6
 32 33  1  0
 34 33  1  6
 34 35  1  0
 34 42  1  0
 35 36  2  0
 35 37  1  0
 37 38  2  0
 37 41  1  0
 38 39  1  0
 39 40  1  0
 40 41  2  0
 41 42  1  0
M  END
