
     RDKit          3D

 42 45  0  0  0  0  0  0  0  0999 V2000
   -3.2640   -3.6520   -2.4890 C   0  0  0  0  0  0  0  0  0  0  0  0
   -3.4940   -2.5570   -1.4330 C   0  0  0  0  0  0  0  0  0  0  0  0
   -2.2920   -1.7320   -1.2420 C   0  0  1  0  0  0  0  0  0  0  0  0
   -1.8880   -1.0290   -2.5290 C   0  0  0  0  0  0  0  0  0  0  0  0
   -2.3310   -1.1960   -3.6810 O   0  0  0  0  0  0  0  0  0  0  0  0
   -0.8700   -0.1130   -2.1500 N   0  0  0  0  0  0  0  0  0  0  0  0
    0.2110    0.4680   -2.9380 C   0  0  1  0  0  0  0  0  0  0  0  0
    0.0560    1.9780   -2.9550 C   0  0  0  0  0  0  0  0  0  0  0  0
    1.5280    0.1410   -2.3890 C   0  0  0  0  0  0  0  0  0  0  0  0
    2.5520    0.6830   -2.8240 O   0  0  0  0  0  0  0  0  0  0  0  0
    1.6210   -0.7890   -1.3710 O   0  0  0  0  0  0  0  0  0  0  0  0
    2.8390   -1.1800   -0.7620 C   0  0  2  0  0  0  0  0  0  0  0  0
    3.1210   -2.6150   -1.1390 C   0  0  0  0  0  0  0  0  0  0  0  0
    2.7790   -0.9590    0.7080 C   0  0  2  0  0  0  0  0  0  0  0  0
    2.5610    0.3790    1.0330 O   0  0  0  0  0  0  0  0  0  0  0  0
    3.9300   -1.4690    1.4980 C   0  0  2  0  0  0  0  0  0  0  0  0
    3.5770   -1.3490    2.8650 O   0  0  0  0  0  0  0  0  0  0  0  0
    5.1390   -0.5740    1.3730 C   0  0  0  0  0  0  0  0  0  0  0  0
    6.3120   -0.8400    0.7160 C   0  0  0  0  0  0  0  0  0  0  0  0
    7.1310    0.2490    0.8600 C   0  0  0  0  0  0  0  0  0  0  0  0
    8.4240    0.5650    0.4240 C   0  0  0  0  0  0  0  0  0  0  0  0
    8.9900    1.7760    0.7410 C   0  0  0  0  0  0  0  0  0  0  0  0
    8.2870    2.6870    1.4890 C   0  0  0  0  0  0  0  0  0  0  0  0
    8.9800    4.2930    1.9370 S   0  0  0  0  0  0  0  0  0  0  0  0
    7.0210    2.3590    1.9060 C   0  0  0  0  0  0  0  0  0  0  0  0
    6.4130    1.1540    1.6120 C   0  0  0  0  0  0  0  0  0  0  0  0
    5.2490    0.6220    1.8880 O   0  0  0  0  0  0  0  0  0  0  0  0
   -1.0840    0.1920   -0.7660 C   0  0  0  0  0  0  0  0  0  0  0  0
   -0.4170    0.9510   -0.0260 O   0  0  0  0  0  0  0  0  0  0  0  0
   -2.3040   -0.5940   -0.3280 C   0  0  0  0  0  0  0  0  0  0  0  0
   -3.0090   -0.1800    0.6840 C   0  0  0  0  0  0  0  0  0  0  0  0
   -2.6840    1.0430    1.3320 N   0  0  0  0  0  0  0  0  0  0  0  0
   -2.9350    2.3210    0.7850 C   0  0  0  0  0  0  0  0  0  0  0  0
   -4.3270    2.8150    0.7410 C   0  0  0  0  0  0  0  0  0  0  0  0
   -4.6830    3.9550    1.3720 C   0  0  0  0  0  0  0  0  0  0  0  0
   -6.0320    4.1820    1.1630 O   0  0  0  0  0  0  0  0  0  0  0  0
   -6.3880    3.5550   -0.0770 C   0  0  0  0  0  0  0  0  0  0  0  0
   -5.5450    2.2850    0.1000 C   0  0  0  0  0  0  0  0  0  0  0  0
   -4.0650   -0.9220    1.2590 N   0  0  0  0  0  0  0  0  0  0  0  0
   -5.3700   -1.1080    0.6760 C   0  0  0  0  0  0  0  0  0  0  0  0
   -3.8680   -1.5540    2.5800 C   0  0  0  0  0  0  0  0  0  0  0  0
   -3.8640   -3.0320    2.4460 C   0  0  0  0  0  0  0  0  0  0  0  0
  1  2  1  0
  3  2  1  6
  3  4  1  0
  3 30  1  0
  4  5  2  0
  4  6  1  0
  6  7  1  0
  6 28  1  0
  7  8  1  1
  7  9  1  0
  9 10  2  0
  9 11  1  0
 11 12  1  0
 12 13  1  1
 12 14  1  0
 14 15  1  6
 14 16  1  0
 16 17  1  1
 16 18  1  0
 18 19  2  0
 18 27  1  0
 19 20  1  0
 20 21  2  0
 20 26  1  0
 21 22  1  0
 22 23  2  0
 23 24  1  0
 23 25  1  0
 25 26  2  0
 26 27  1  0
 28 29  2  0
 28 30  1  0
 30 31  2  3
 31 32  1  0
 31 39  1  0
 32 33  1  0
 33 34  1  0
 34 35  2  0
 34 38  1  0
 35 36  1  0
 36 37  1  0
 37 38  1  0
 39 40  1  0
 39 41  1  0
 41 42  1  0
M  END
