
     RDKit          3D

 42 46  0  0  0  0  0  0  0  0999 V2000
    6.4890    1.6360   -3.2770 C   0  0  0  0  0  0  0  0  0  0  0  0
    5.7790    2.5360   -2.3180 C   0  0  0  0  0  0  0  0  0  0  0  0
    5.4350    1.6650   -1.1240 N   0  0  0  0  0  0  0  0  0  0  0  0
    6.4550    1.7030   -0.1420 C   0  0  0  0  0  0  0  0  0  0  0  0
    7.6260    0.8130   -0.2530 C   0  0  1  0  0  0  0  0  0  0  0  0
    8.6050    1.0540    0.9240 C   0  0  0  0  0  0  0  0  0  0  0  0
    9.3850   -0.2590    0.8400 C   0  0  0  0  0  0  0  0  0  0  0  0
    8.4640   -1.2280    0.5490 O   0  0  0  0  0  0  0  0  0  0  0  0
    7.3840   -0.6350   -0.0910 C   0  0  0  0  0  0  0  0  0  0  0  0
    4.2140    1.0420   -1.2100 C   0  0  0  0  0  0  0  0  0  0  0  0
    3.5180    1.3460   -2.2910 O   0  0  0  0  0  0  0  0  0  0  0  0
    3.5810    0.1150   -0.2720 C   0  0  2  0  0  0  0  0  0  0  0  0
    3.2470   -1.2410   -0.8750 C   0  0  0  0  0  0  0  0  0  0  0  0
    4.4650   -2.3140   -1.4700 S   0  0  0  0  0  0  0  0  0  0  0  0
    5.3270   -3.2060   -0.1590 C   0  0  0  0  0  0  0  0  0  0  0  0
    2.2060    0.6840    0.0420 N   0  0  0  0  0  0  0  0  0  0  0  0
    1.8090    0.9080    1.3710 C   0  0  0  0  0  0  0  0  0  0  0  0
    2.5430    0.6590    2.3400 O   0  0  0  0  0  0  0  0  0  0  0  0
    0.4350    1.4720    1.6460 C   0  0  2  0  0  0  0  0  0  0  0  0
   -0.3480    0.3820    2.2760 C   0  0  0  0  0  0  0  0  0  0  0  0
   -1.3590    0.1530    1.4630 C   0  0  0  0  0  0  0  0  0  0  0  0
   -2.4730   -0.6740    1.3590 O   0  0  0  0  0  0  0  0  0  0  0  0
   -3.4500    0.0750    0.5480 C   0  0  2  0  0  0  0  0  0  0  0  0
   -3.8990    1.0370    1.3670 O   0  0  0  0  0  0  0  0  0  0  0  0
   -4.2490   -0.8730   -0.1370 C   0  0  0  0  0  0  0  0  0  0  0  0
   -3.4590   -1.6780   -0.8830 O   0  0  0  0  0  0  0  0  0  0  0  0
   -5.6240   -1.2480   -0.2890 C   0  0  0  0  0  0  0  0  0  0  0  0
   -6.0140   -2.2510   -1.0910 O   0  0  0  0  0  0  0  0  0  0  0  0
   -7.2900   -2.4200   -1.0820 C   0  0  0  0  0  0  0  0  0  0  0  0
   -8.0900   -3.3250   -1.7530 C   0  0  0  0  0  0  0  0  0  0  0  0
   -9.4410   -3.2830   -1.5610 C   0  0  0  0  0  0  0  0  0  0  0  0
   -9.9840   -2.3560   -0.7160 C   0  0  0  0  0  0  0  0  0  0  0  0
   -9.1990   -1.4230   -0.0190 C   0  0  0  0  0  0  0  0  0  0  0  0
   -9.8390   -0.4310    0.8560 C   0  0  0  0  0  0  0  0  0  0  0  0
   -7.8470   -1.4730   -0.2170 C   0  0  0  0  0  0  0  0  0  0  0  0
   -6.7630   -0.7450    0.2720 C   0  0  0  0  0  0  0  0  0  0  0  0
   -6.9450    0.3580    1.2300 C   0  0  0  0  0  0  0  0  0  0  0  0
   -6.9100    1.7220    0.6110 C   0  0  0  0  0  0  0  0  0  0  0  0
   -7.0710    2.7260    1.5790 O   0  0  0  0  0  0  0  0  0  0  0  0
   -2.4820    0.6860   -0.5100 C   0  0  0  0  0  0  0  0  0  0  0  0
   -1.2900    1.0440    0.3220 C   0  0  0  0  0  0  0  0  0  0  0  0
   -0.2580    1.7830    0.4590 N   0  0  0  0  0  0  0  0  0  0  0  0
  1  2  1  0
  2  3  1  0
  3  4  1  0
  3 10  1  0
  5  4  1  1
  5  6  1  0
  5  9  1  0
  6  7  1  0
  7  8  1  0
  8  9  1  0
 10 11  2  0
 10 12  1  0
 12 13  1  6
 12 16  1  0
 13 14  1  0
 14 15  1  0
 16 17  1  0
 17 18  2  0
 19 17  1  6
 19 20  1  0
 19 42  1  0
 20 21  2  0
 21 22  1  0
 21 41  1  0
 22 23  1  0
 23 24  1  1
 23 25  1  0
 23 40  1  0
 25 26  2  0
 25 27  1  0
 27 28  1  0
 27 36  2  0
 28 29  1  0
 29 30  2  0
 29 35  1  0
 30 31  1  0
 31 32  2  0
 32 33  1  0
 33 34  1  0
 33 35  2  0
 35 36  1  0
 36 37  1  0
 37 38  1  0
 38 39  1  0
 40 41  1  0
 41 42  2  0
M  END
