
     RDKit          3D

 20 19  0  0  0  0  0  0  0  0999 V2000
    5.7820    1.4320    0.0700 C   0  0  0  0  0  0  0  0  0  0  0  0
    4.3530    1.5200    0.2340 C   0  0  0  0  0  0  0  0  0  0  0  0
    3.5860    0.5680    0.7310 C   0  0  0  0  0  0  0  0  0  0  0  0
    2.1370    0.9310    0.7860 C   0  0  0  0  0  0  0  0  0  0  0  0
    1.3760    0.0250   -0.0220 O   0  0  0  0  0  0  0  0  0  0  0  0
   -0.0020    0.2310   -0.1760 C   0  0  0  0  0  0  0  0  0  0  0  0
   -0.4720    1.1990    0.4080 O   0  0  0  0  0  0  0  0  0  0  0  0
   -0.7980   -0.6260   -0.9570 N   0  0  0  0  0  0  0  0  0  0  0  0
   -2.1880   -0.4960   -1.1710 C   0  0  0  0  0  0  0  0  0  0  0  0
   -2.7740   -1.5560   -2.0610 C   0  0  0  0  0  0  0  0  0  0  0  0
   -2.7560   -2.7360   -1.3570 O   0  0  0  0  0  0  0  0  0  0  0  0
   -2.8570    0.4410   -0.6580 N   0  0  0  0  0  0  0  0  0  0  0  0
   -2.3640    1.4260    0.1360 O   0  0  0  0  0  0  0  0  0  0  0  0
   -4.3210    0.5270   -0.8840 C   0  0  0  0  0  0  0  0  0  0  0  0
   -4.8800    0.6310    0.5550 C   0  0  0  0  0  0  0  0  0  0  0  0
   -4.4750   -0.5230    1.2110 O   0  0  0  0  0  0  0  0  0  0  0  0
    4.0190   -0.7240    1.1830 C   0  0  0  0  0  0  0  0  0  0  0  0
    5.7670   -1.0790    0.9860 Cl  0  0  0  0  0  0  0  0  0  0  0  0
    3.3050   -1.6790    1.7140 C   0  0  0  0  0  0  0  0  0  0  0  0
    1.6080   -1.6940    2.0520 Cl  0  0  0  0  0  0  0  0  0  0  0  0
  1  2  1  0
  2  3  2  3
  3  4  1  0
  3 17  1  0
  4  5  1  0
  5  6  1  0
  6  7  2  0
  6  8  1  0
  8  9  1  0
  9 10  1  0
  9 12  2  3
 10 11  1  0
 12 13  1  0
 12 14  1  0
 14 15  1  0
 15 16  1  0
 17 18  1  0
 17 19  2  3
 19 20  1  0
M  CHG  2  12   1  13  -1
M  END
