
     RDKit          3D

 20 19  0  0  0  0  0  0  0  0999 V2000
   -3.1970    0.0690   -5.6150 C   0  0  0  0  0  0  0  0  0  0  0  0
   -2.4820   -0.0510   -4.3300 N   0  0  0  0  0  0  0  0  0  0  0  0
   -2.5610   -1.2810   -3.6230 C   0  0  0  0  0  0  0  0  0  0  0  0
   -3.2590   -2.2210   -4.1540 O   0  0  0  0  0  0  0  0  0  0  0  0
   -1.8980   -1.5060   -2.3560 C   0  0  0  0  0  0  0  0  0  0  0  0
   -2.0990   -3.0970   -1.6060 Cl  0  0  0  0  0  0  0  0  0  0  0  0
   -1.1800   -0.5770   -1.7840 C   0  0  0  0  0  0  0  0  0  0  0  0
   -0.5170   -0.8850   -0.4590 C   0  0  0  0  0  0  0  0  0  0  0  0
    0.1890    0.0770    0.0700 C   0  0  0  0  0  0  0  0  0  0  0  0
    0.9290    0.0900    1.3030 C   0  0  0  0  0  0  0  0  0  0  0  0
    1.5900    1.2210    1.6420 C   0  0  0  0  0  0  0  0  0  0  0  0
    1.5320    2.6070    0.5980 Cl  0  0  0  0  0  0  0  0  0  0  0  0
    2.3430    1.2230    2.9060 C   0  0  2  0  0  0  0  0  0  0  0  0
    1.8120    2.3010    3.8320 C   0  0  0  0  0  0  0  0  0  0  0  0
    2.5020    2.3000    5.0350 O   0  0  0  0  0  0  0  0  0  0  0  0
    3.7360    1.4800    2.6550 N   0  0  0  0  0  0  0  0  0  0  0  0
    4.1290    1.6590    1.5010 O   0  0  0  0  0  0  0  0  0  0  0  0
    4.6120    1.5240    3.6950 O   0  0  0  0  0  0  0  0  0  0  0  0
   -0.7410   -2.1110    0.0020 O   0  0  0  0  0  0  0  0  0  0  0  0
   -0.3900   -2.7400    1.1580 C   0  0  0  0  0  0  0  0  0  0  0  0
  1  2  1  0
  2  3  1  0
  3  4  2  0
  3  5  1  0
  5  6  1  0
  5  7  2  3
  7  8  1  0
  8  9  2  3
  8 19  1  0
  9 10  1  0
 10 11  2  3
 11 12  1  0
 11 13  1  0
 13 14  1  1
 13 16  1  0
 14 15  1  0
 16 17  2  0
 16 18  1  0
 19 20  1  0
M  CHG  2  16   1  18  -1
M  END
