
     RDKit          3D

 19 19  0  0  0  0  0  0  0  0999 V2000
   -5.5090    0.6760   -1.5960 O   0  0  0  0  0  0  0  0  0  0  0  0
   -5.1930    0.3420   -0.4550 C   0  0  0  0  0  0  0  0  0  0  0  0
   -3.9660   -0.4760   -0.3190 C   0  0  0  0  0  0  0  0  0  0  0  0
   -2.8020    0.4540   -0.6750 C   0  0  0  0  0  0  0  0  0  0  0  0
   -1.5480   -0.2610   -0.5710 N   0  0  0  0  0  0  0  0  0  0  0  0
   -0.3120    0.3820   -0.8500 C   0  0  0  0  0  0  0  0  0  0  0  0
   -0.2680    1.5900   -1.1950 O   0  0  0  0  0  0  0  0  0  0  0  0
    0.9070   -0.2800   -0.7590 O   0  0  0  0  0  0  0  0  0  0  0  0
    2.1390    0.3880   -1.0440 C   0  0  0  0  0  0  0  0  0  0  0  0
    3.2330   -0.6530   -0.8380 C   0  0  2  0  0  0  0  0  0  0  0  0
    3.1690   -1.0260    0.6460 C   0  0  0  0  0  0  0  0  0  0  0  0
    4.6220   -1.4200    0.8610 C   0  0  0  0  0  0  0  0  0  0  0  0
    5.3060   -0.4150   -0.0120 C   0  0  2  0  0  0  0  0  0  0  0  0
    5.5400    0.8900    0.7210 C   0  0  0  0  0  0  0  0  0  0  0  0
    6.3570    1.9970   -0.4240 Cl  0  0  0  0  0  0  0  0  0  0  0  0
    4.4820   -0.1630   -1.0740 O   0  0  0  0  0  0  0  0  0  0  0  0
   -5.9950    0.7360    0.7030 C   0  0  0  0  0  0  0  0  0  0  0  0
   -5.4420    0.2540    1.9250 N   0  0  0  0  0  0  0  0  0  0  0  0
   -5.6790   -1.0880    2.0210 O   0  0  0  0  0  0  0  0  0  0  0  0
  1  2  2  0
  2  3  1  0
  2 17  1  0
  3  4  1  0
  4  5  1  0
  5  6  1  0
  6  7  2  0
  6  8  1  0
  8  9  1  0
 10  9  1  1
 10 11  1  0
 10 16  1  0
 11 12  1  0
 12 13  1  0
 13 14  1  1
 13 16  1  0
 14 15  1  0
 17 18  1  0
 18 19  1  0
M  CHG  2  18   1  19  -1
M  END
