
     RDKit          3D

  6  5  0  0  0  0  0  0  0  0999 V2000
    2.7120   -0.1000   -0.4630 C   0  0  0  0  0  0  0  0  0  0  0  0
    1.4760   -0.4900   -0.3610 C   0  0  0  0  0  0  0  0  0  0  0  0
    0.4080    0.4700   -0.0990 C   0  0  0  0  0  0  0  0  0  0  0  0
   -0.8470    0.0880    0.0060 C   0  0  0  0  0  0  0  0  0  0  0  0
   -1.2030   -1.2750   -0.1330 N   0  0  0  0  0  0  0  0  0  0  0  0
   -1.8450    1.0500    0.2600 N   0  0  0  0  0  0  0  0  0  0  0  0
  1  2  2  0
  2  3  1  0
  3  4  2  3
  4  5  1  0
  4  6  1  0
M  CHG  1   6   1
M  END
