
     RDKit          3D

  6  5  0  0  0  0  0  0  0  0999 V2000
   -1.9830    0.7670   -0.3410 C   0  0  0  0  0  0  0  0  0  0  0  0
   -0.6760    0.7480   -0.4770 C   0  0  0  0  0  0  0  0  0  0  0  0
    0.1310   -0.2520    0.1730 C   0  0  0  0  0  0  0  0  0  0  0  0
   -0.5210   -1.2250    0.9700 N   0  0  0  0  0  0  0  0  0  0  0  0
    1.4430   -0.2630    0.0300 C   0  0  0  0  0  0  0  0  0  0  0  0
    2.1390    0.6930   -0.7600 N   0  0  0  0  0  0  0  0  0  0  0  0
  1  2  2  0
  2  3  1  0
  3  4  1  0
  3  5  2  3
  5  6  1  0
M  CHG  1   4   1
M  END
