
     RDKit          3D

  6  5  0  0  0  0  0  0  0  0999 V2000
   -2.1200   -0.8350    0.0010 C   0  0  0  0  0  0  0  0  0  0  0  0
   -1.3400    0.3670    0.4060 C   0  0  0  0  0  0  0  0  0  0  0  0
   -0.0830    0.5670    0.0450 C   0  0  0  0  0  0  0  0  0  0  0  0
    0.5400    1.7690    0.5100 N   0  0  0  0  0  0  0  0  0  0  0  0
    0.6630   -0.4090   -0.8100 C   0  0  0  0  0  0  0  0  0  0  0  0
    1.8400   -0.9150   -0.1210 N   0  0  0  0  0  0  0  0  0  0  0  0
  1  2  1  0
  2  3  2  3
  3  4  1  0
  3  5  1  0
  5  6  1  0
M  CHG  2   4   1   6   1
M  END
