
     RDKit          3D

  6  5  0  0  0  0  0  0  0  0999 V2000
   -2.3110   -0.3570   -0.9610 N   0  0  0  0  0  0  0  0  0  0  0  0
   -1.4510   -0.2280    0.1970 C   0  0  0  0  0  0  0  0  0  0  0  0
   -0.5510    0.9250    0.1210 C   0  0  0  0  0  0  0  0  0  0  0  0
    0.7330    0.7830    0.1480 C   0  0  0  0  0  0  0  0  0  0  0  0
    1.4950   -0.4450    0.2530 C   0  0  0  0  0  0  0  0  0  0  0  0
    2.8070   -0.3770    0.2650 N   0  0  0  0  0  0  0  0  0  0  0  0
  1  2  1  0
  2  3  1  0
  3  4  2  3
  4  5  1  0
  5  6  2  0
M  CHG  1   6   1
M  END
