
     RDKit          3D

  6  5  0  0  0  0  0  0  0  0999 V2000
   -2.8080   -0.4710    0.6220 N   0  0  0  0  0  0  0  0  0  0  0  0
   -1.7770    0.2240   -0.0650 C   0  0  0  0  0  0  0  0  0  0  0  0
   -0.3890   -0.0450    0.4770 C   0  0  0  0  0  0  0  0  0  0  0  0
    0.5700    0.7710   -0.3670 C   0  0  0  0  0  0  0  0  0  0  0  0
    2.0020    0.5970    0.0660 C   0  0  0  0  0  0  0  0  0  0  0  0
    2.4640   -0.7560   -0.0150 N   0  0  0  0  0  0  0  0  0  0  0  0
  1  2  1  0
  2  3  1  0
  3  4  1  0
  4  5  1  0
  5  6  1  0
M  CHG  2   1   1   6   1
M  END
