
     RDKit          3D

 42 45  0  0  0  0  0  0  0  0999 V2000
   -3.1040    1.8630   -1.8400 C   0  0  0  0  0  0  0  0  0  0  0  0
   -3.2030    1.3200   -0.4170 C   0  0  2  0  0  0  0  0  0  0  0  0
   -2.1410    0.4160   -0.1400 N   0  0  0  0  0  0  0  0  0  0  0  0
   -1.3980    0.6800    1.0750 C   0  0  0  0  0  0  0  0  0  0  0  0
   -0.3910   -0.4430    1.1970 C   0  0  0  0  0  0  0  0  0  0  0  0
    0.1220   -0.7790    2.2900 O   0  0  0  0  0  0  0  0  0  0  0  0
   -0.0170   -1.0990    0.0850 O   0  0  0  0  0  0  0  0  0  0  0  0
    0.8200   -2.1240   -0.1730 C   0  0  0  0  0  0  0  0  0  0  0  0
    2.2460   -2.0910    0.2720 C   0  0  0  0  0  0  0  0  0  0  0  0
    2.9500   -1.0030   -0.2200 O   0  0  0  0  0  0  0  0  0  0  0  0
    3.1070   -0.4960   -1.4470 C   0  0  0  0  0  0  0  0  0  0  0  0
    2.4810   -1.0860   -2.4030 O   0  0  0  0  0  0  0  0  0  0  0  0
    3.8850    0.6640   -1.8610 C   0  0  0  0  0  0  0  0  0  0  0  0
    3.5380    1.3070   -3.0610 C   0  0  0  0  0  0  0  0  0  0  0  0
    4.1020    2.5170   -3.4100 C   0  0  0  0  0  0  0  0  0  0  0  0
    5.0120    3.1010   -2.5730 C   0  0  0  0  0  0  0  0  0  0  0  0
    5.3380    2.4500   -1.4070 C   0  0  0  0  0  0  0  0  0  0  0  0
    4.7970    1.2370   -1.0260 C   0  0  0  0  0  0  0  0  0  0  0  0
    5.3760    0.5600    0.1560 C   0  0  0  0  0  0  0  0  0  0  0  0
    5.1420   -0.6370    0.4380 O   0  0  0  0  0  0  0  0  0  0  0  0
    6.2030    1.2560    0.9590 O   0  0  0  0  0  0  0  0  0  0  0  0
    6.9110    0.9280    2.0710 C   0  0  0  0  0  0  0  0  0  0  0  0
    7.9150   -0.1510    1.7740 C   0  0  0  0  0  0  0  0  0  0  0  0
    8.0210   -1.3200    2.4480 C   0  0  0  0  0  0  0  0  0  0  0  0
    9.0670   -2.2100    2.2190 C   0  0  0  0  0  0  0  0  0  0  0  0
   10.0200   -1.8820    1.2730 C   0  0  0  0  0  0  0  0  0  0  0  0
    9.9020   -0.6870    0.5840 C   0  0  0  0  0  0  0  0  0  0  0  0
    8.8820    0.1850    0.8100 C   0  0  0  0  0  0  0  0  0  0  0  0
    8.7520    1.3940    0.1140 O   0  0  0  0  0  0  0  0  0  0  0  0
   -4.5660    0.7580   -0.1730 C   0  0  0  0  0  0  0  0  0  0  0  0
   -4.8320    0.0660    1.0020 C   0  0  0  0  0  0  0  0  0  0  0  0
   -6.0770   -0.4500    1.2880 C   0  0  0  0  0  0  0  0  0  0  0  0
   -7.1170   -0.3060    0.4140 C   0  0  0  0  0  0  0  0  0  0  0  0
   -6.8570    0.3770   -0.7610 C   0  0  0  0  0  0  0  0  0  0  0  0
   -5.6190    0.9090   -1.0720 C   0  0  0  0  0  0  0  0  0  0  0  0
   -7.9650    0.5330   -1.7340 C   0  0  0  0  0  0  0  0  0  0  0  0
   -9.0700   -0.2150   -1.4660 O   0  0  0  0  0  0  0  0  0  0  0  0
   -9.5210   -0.1520   -0.1360 C   0  0  0  0  0  0  0  0  0  0  0  0
   -8.4850   -0.8170    0.6680 C   0  0  0  0  0  0  0  0  0  0  0  0
   -8.6820   -1.7450    1.5420 C   0  0  0  0  0  0  0  0  0  0  0  0
   -9.9400   -2.3780    1.9310 C   0  0  0  0  0  0  0  0  0  0  0  0
  -11.0130   -2.2010    1.5090 N   0  0  0  0  0  0  0  0  0  0  0  0
  2  1  1  6
  2  3  1  0
  2 30  1  0
  3  4  1  0
  4  5  1  0
  5  6  2  0
  5  7  1  0
  7  8  1  0
  8  9  1  0
  9 10  1  0
 10 11  1  0
 11 12  2  0
 11 13  1  0
 13 14  2  0
 13 18  1  0
 14 15  1  0
 15 16  2  0
 16 17  1  0
 17 18  2  0
 18 19  1  0
 19 20  2  0
 19 21  1  0
 21 22  1  0
 22 23  1  0
 23 24  2  0
 23 28  1  0
 24 25  1  0
 25 26  2  0
 26 27  1  0
 27 28  2  0
 28 29  1  0
 30 31  2  0
 30 35  1  0
 31 32  1  0
 32 33  2  0
 33 34  1  0
 33 39  1  0
 34 35  2  0
 34 36  1  0
 36 37  1  0
 37 38  1  0
 38 39  1  0
 39 40  2  3
 40 41  1  0
 41 42  2  0
M  CHG  1   3   1
M  END
