
     RDKit          3D

 42 45  0  0  0  0  0  0  0  0999 V2000
   -7.4610    0.4370   -0.0580 C   0  0  0  0  0  0  0  0  0  0  0  0
   -6.2020    0.1100   -0.0200 C   0  0  0  0  0  0  0  0  0  0  0  0
   -5.1390    1.1230   -0.3060 C   0  0  0  0  0  0  0  0  0  0  0  0
   -5.3920    2.2750   -0.6190 O   0  0  0  0  0  0  0  0  0  0  0  0
   -3.7490    0.6230   -0.1820 C   0  0  0  0  0  0  0  0  0  0  0  0
   -2.8770    1.4540    0.3660 C   0  0  0  0  0  0  0  0  0  0  0  0
   -3.1650    2.8140    0.8630 C   0  0  1  0  0  0  0  0  0  0  0  0
   -2.7740    2.9600    2.3330 C   0  0  0  0  0  0  0  0  0  0  0  0
   -2.1770    3.6100    0.1980 O   0  0  0  0  0  0  0  0  0  0  0  0
   -1.5110    0.9630    0.4240 N   0  0  0  0  0  0  0  0  0  0  0  0
   -1.0990   -0.3190   -0.0720 C   0  0  0  0  0  0  0  0  0  0  0  0
    0.3100   -0.6210   -0.0150 C   0  0  0  0  0  0  0  0  0  0  0  0
    0.6200   -1.8150   -0.4090 O   0  0  0  0  0  0  0  0  0  0  0  0
    1.4300    0.0980    0.3720 N   0  0  0  0  0  0  0  0  0  0  0  0
    1.5740    1.4390    0.8210 C   0  0  0  0  0  0  0  0  0  0  0  0
    1.4390    1.6450    2.3060 C   0  0  0  0  0  0  0  0  0  0  0  0
    2.7020   -0.6590    0.2910 C   0  0  0  0  0  0  0  0  0  0  0  0
    2.7090   -1.8550   -0.0560 O   0  0  0  0  0  0  0  0  0  0  0  0
    3.9700   -0.0430    0.6080 C   0  0  0  0  0  0  0  0  0  0  0  0
    4.5270    0.0000    1.8650 C   0  0  0  0  0  0  0  0  0  0  0  0
    3.9510   -0.5510    3.1450 C   0  0  0  0  0  0  0  0  0  0  0  0
    5.7110    0.6340    1.7670 N   0  0  0  0  0  0  0  0  0  0  0  0
    5.9450    0.9980    0.5180 N   0  0  0  0  0  0  0  0  0  0  0  0
    7.0850    1.6970   -0.0410 C   0  0  0  0  0  0  0  0  0  0  0  0
    8.1380    0.7130   -0.4770 C   0  0  0  0  0  0  0  0  0  0  0  0
    7.9180   -0.6790   -0.2980 N   0  0  0  0  0  0  0  0  0  0  0  0
    9.2040    1.0810   -0.9930 O   0  0  0  0  0  0  0  0  0  0  0  0
    4.8790    0.5910   -0.2280 C   0  0  0  0  0  0  0  0  0  0  0  0
    4.7550    0.7930   -1.6750 C   0  0  0  0  0  0  0  0  0  0  0  0
    3.8030    1.9120   -1.9990 C   0  0  0  0  0  0  0  0  0  0  0  0
   -2.0120   -1.1320   -0.6120 C   0  0  0  0  0  0  0  0  0  0  0  0
   -1.7180   -2.4130   -1.1600 C   0  0  0  0  0  0  0  0  0  0  0  0
   -0.6410   -3.0210   -1.1420 O   0  0  0  0  0  0  0  0  0  0  0  0
   -2.7830   -3.2060   -1.8960 C   0  0  0  0  0  0  0  0  0  0  0  0
   -2.3480   -3.3650   -3.3570 C   0  0  0  0  0  0  0  0  0  0  0  0
   -3.4080   -0.7470   -0.5020 C   0  0  1  0  0  0  0  0  0  0  0  0
   -4.3080   -1.6700    0.2720 C   0  0  0  0  0  0  0  0  0  0  0  0
   -4.2140   -2.7660    0.9710 C   0  0  0  0  0  0  0  0  0  0  0  0
   -2.7680   -3.6670    1.3460 Cl  0  0  0  0  0  0  0  0  0  0  0  0
   -5.6330   -3.3350    1.1730 C   0  0  0  0  0  0  0  0  0  0  0  0
   -6.4230   -2.1280    1.0150 C   0  0  0  0  0  0  0  0  0  0  0  0
   -5.6940   -1.2250    0.2900 C   0  0  0  0  0  0  0  0  0  0  0  0
  1  2  2  0
  2  3  1  0
  2 42  1  0
  3  4  2  0
  3  5  1  0
  5  6  2  0
  5 36  1  0
  6  7  1  0
  6 10  1  0
  7  8  1  1
  7  9  1  0
 10 11  1  0
 11 12  1  0
 11 31  2  0
 12 13  2  0
 12 14  1  0
 14 15  1  0
 14 17  1  0
 15 16  1  0
 17 18  2  0
 17 19  1  0
 19 20  1  0
 19 28  2  0
 20 21  1  0
 20 22  2  0
 22 23  1  0
 23 24  1  0
 23 28  1  0
 24 25  1  0
 25 26  1  0
 25 27  2  0
 28 29  1  0
 29 30  1  0
 31 32  1  0
 36 31  1  1
 32 33  2  0
 32 34  1  0
 34 35  1  0
 36 37  1  0
 37 38  2  0
 37 42  1  0
 38 39  1  0
 38 40  1  0
 40 41  1  0
 41 42  2  0
M  END
