
     RDKit          3D

 42 45  0  0  0  0  0  0  0  0999 V2000
    3.8340   -2.5630   -1.8930 C   0  0  0  0  0  0  0  0  0  0  0  0
    2.8080   -1.6290   -1.2800 C   0  0  0  0  0  0  0  0  0  0  0  0
    2.1690   -0.8040   -2.3740 C   0  0  0  0  0  0  0  0  0  0  0  0
    1.1810    0.1010   -1.8200 N   0  0  0  0  0  0  0  0  0  0  0  0
    1.7790    1.3910   -1.4420 C   0  0  0  0  0  0  0  0  0  0  0  0
    1.7870    1.4380    0.0390 C   0  0  0  0  0  0  0  0  0  0  0  0
    2.8930    1.5910    0.7170 C   0  0  0  0  0  0  0  0  0  0  0  0
    4.2400    1.7420    0.1680 C   0  0  0  0  0  0  0  0  0  0  0  0
    4.5870    2.6640   -0.7910 C   0  0  0  0  0  0  0  0  0  0  0  0
    5.8760    2.7230   -1.2770 C   0  0  0  0  0  0  0  0  0  0  0  0
    6.8790    1.8780   -0.8380 C   0  0  0  0  0  0  0  0  0  0  0  0
    6.5540    0.9530    0.1180 C   0  0  0  0  0  0  0  0  0  0  0  0
    5.2440    0.8900    0.6140 C   0  0  0  0  0  0  0  0  0  0  0  0
    7.7690    0.1570    0.4510 C   0  0  0  0  0  0  0  0  0  0  0  0
    8.6530    0.3600   -0.7410 C   0  0  0  0  0  0  0  0  0  0  0  0
    8.3310    1.7580   -1.2260 C   0  0  0  0  0  0  0  0  0  0  0  0
    0.5080    1.3090    0.7560 C   0  0  0  0  0  0  0  0  0  0  0  0
    0.4880    1.3450    2.0020 O   0  0  0  0  0  0  0  0  0  0  0  0
   -0.6640    1.1490    0.0420 O   0  0  0  0  0  0  0  0  0  0  0  0
   -1.8900    1.0260    0.7200 C   0  0  1  0  0  0  0  0  0  0  0  0
   -2.8360    2.0720    0.2790 C   0  0  0  0  0  0  0  0  0  0  0  0
   -2.5620    3.2690    0.0810 O   0  0  0  0  0  0  0  0  0  0  0  0
   -4.1010    1.5190    0.1120 O   0  0  0  0  0  0  0  0  0  0  0  0
   -4.0430    0.1500    0.1910 C   0  0  0  0  0  0  0  0  0  0  0  0
   -5.0510   -0.6860    0.1690 C   0  0  0  0  0  0  0  0  0  0  0  0
   -6.4540   -0.3320    0.0560 C   0  0  0  0  0  0  0  0  0  0  0  0
   -7.3230   -1.2720    0.0490 O   0  0  0  0  0  0  0  0  0  0  0  0
   -6.9800    0.9650   -0.0500 N   0  0  0  0  0  0  0  0  0  0  0  0
   -8.4190    1.2240   -0.1600 C   0  0  0  0  0  0  0  0  0  0  0  0
   -8.6880    2.7000   -0.2590 C   0  0  0  0  0  0  0  0  0  0  0  0
   -8.0200    3.2560   -1.4460 C   0  0  0  0  0  0  0  0  0  0  0  0
   -7.3500    2.5180   -2.1950 O   0  0  0  0  0  0  0  0  0  0  0  0
   -8.1320    4.5940   -1.7340 O   0  0  0  0  0  0  0  0  0  0  0  0
   -2.6170   -0.2360    0.3080 C   0  0  2  0  0  0  0  0  0  0  0  0
   -2.3980   -1.3610    1.2200 C   0  0  0  0  0  0  0  0  0  0  0  0
   -1.8850   -2.5780    0.7550 C   0  0  0  0  0  0  0  0  0  0  0  0
   -1.6870   -3.6200    1.6280 C   0  0  0  0  0  0  0  0  0  0  0  0
   -1.9770   -3.5120    2.9670 C   0  0  0  0  0  0  0  0  0  0  0  0
   -1.7600   -4.5900    3.8050 O   0  0  0  0  0  0  0  0  0  0  0  0
   -1.2390   -5.8040    3.2930 C   0  0  0  0  0  0  0  0  0  0  0  0
   -2.4780   -2.3290    3.4290 C   0  0  0  0  0  0  0  0  0  0  0  0
   -2.6920   -1.2470    2.5660 C   0  0  0  0  0  0  0  0  0  0  0  0
  1  2  1  0
  2  3  1  0
  3  4  1  0
  4  5  1  0
  5  6  1  0
  6  7  2  3
  6 17  1  0
  7  8  1  0
  8  9  2  0
  8 13  1  0
  9 10  1  0
 10 11  2  0
 11 12  1  0
 11 16  1  0
 12 13  2  0
 12 14  1  0
 14 15  1  0
 15 16  1  0
 17 18  2  0
 17 19  1  0
 20 19  1  6
 20 21  1  0
 20 34  1  0
 21 22  2  0
 21 23  1  0
 23 24  1  0
 24 25  2  3
 24 34  1  0
 25 26  1  0
 26 27  2  0
 26 28  1  0
 28 29  1  0
 29 30  1  0
 30 31  1  0
 31 32  2  0
 31 33  1  0
 34 35  1  1
 35 36  2  0
 35 42  1  0
 36 37  1  0
 37 38  2  0
 38 39  1  0
 38 41  1  0
 39 40  1  0
 41 42  2  0
M  CHG  1   4   1
M  END
