
     RDKit          3D

 17 18  0  0  0  0  0  0  0  0999 V2000
   -1.3180    0.4430   -2.2320 O   0  0  0  0  0  0  0  0  0  0  0  0
   -2.3250    0.8370   -1.3620 C   0  0  1  0  0  0  0  0  0  0  0  0
   -3.0270   -0.3990   -0.8460 C   0  0  0  0  0  0  0  0  0  0  0  0
   -4.1660   -0.0930   -0.1200 O   0  0  0  0  0  0  0  0  0  0  0  0
   -4.0040    1.0270    0.6970 C   0  0  0  0  0  0  0  0  0  0  0  0
   -2.5270    1.2250    1.0340 C   0  0  0  0  0  0  0  0  0  0  0  0
   -1.8530    1.6860   -0.2370 C   0  0  2  0  0  0  0  0  0  0  0  0
   -2.2820    3.0050   -0.4580 O   0  0  0  0  0  0  0  0  0  0  0  0
   -0.3540    1.7360   -0.0990 C   0  0  0  0  0  0  0  0  0  0  0  0
    0.3830    0.1240    0.1870 S   0  0  0  0  0  0  0  0  0  0  0  0
    2.1830    0.3600    0.3290 C   0  0  0  0  0  0  0  0  0  0  0  0
    2.8710   -0.9340    0.5690 C   0  0  0  0  0  0  0  0  0  0  0  0
    3.5870   -1.1430    1.6390 C   0  0  0  0  0  0  0  0  0  0  0  0
    4.2740   -2.4290    1.8830 C   0  0  0  0  0  0  0  0  0  0  0  0
    4.0700   -3.3610    0.8600 O   0  0  0  0  0  0  0  0  0  0  0  0
    3.3160   -3.1420   -0.2700 C   0  0  0  0  0  0  0  0  0  0  0  0
    2.7190   -1.9760   -0.4450 C   0  0  0  0  0  0  0  0  0  0  0  0
  2  1  1  1
  2  3  1  0
  2  7  1  0
  3  4  1  0
  4  5  1  0
  5  6  1  0
  6  7  1  0
  7  8  1  6
  7  9  1  0
  9 10  1  0
 10 11  1  0
 11 12  1  0
 12 13  2  0
 12 17  1  0
 13 14  1  0
 14 15  1  0
 15 16  1  0
 16 17  2  0
M  END
