
     RDKit          3D

 18 18  0  0  0  0  0  0  0  0999 V2000
    4.0140    1.5790    1.6540 O   0  0  0  0  0  0  0  0  0  0  0  0
    3.7300    0.2960    1.2320 C   0  0  0  0  0  0  0  0  0  0  0  0
    2.3530    0.1940    0.6040 C   0  0  1  0  0  0  0  0  0  0  0  0
    2.2270    1.0940   -0.6000 C   0  0  0  0  0  0  0  0  0  0  0  0
    0.9390    1.6380   -0.6670 O   0  0  0  0  0  0  0  0  0  0  0  0
    0.2480    1.1030   -1.7830 C   0  0  0  0  0  0  0  0  0  0  0  0
   -1.0090    1.8600   -1.9500 C   0  0  0  0  0  0  0  0  0  0  0  0
   -2.1700    1.6530   -1.4210 C   0  0  0  0  0  0  0  0  0  0  0  0
   -2.6560    0.6420   -0.5010 C   0  0  0  0  0  0  0  0  0  0  0  0
   -3.6310    0.9750    0.3770 C   0  0  0  0  0  0  0  0  0  0  0  0
   -4.2670   -0.2100    1.5220 S   0  0  0  0  0  0  0  0  0  0  0  0
   -2.1930   -0.7630   -0.4250 C   0  0  2  0  0  0  0  0  0  0  0  0
   -3.2820   -1.6200   -0.0910 O   0  0  0  0  0  0  0  0  0  0  0  0
   -1.1800   -0.9870    0.6560 C   0  0  1  0  0  0  0  0  0  0  0  0
   -1.7340   -1.3170    1.8940 O   0  0  0  0  0  0  0  0  0  0  0  0
   -0.1270   -2.0380    0.2650 C   0  0  0  0  0  0  0  0  0  0  0  0
    1.0300   -1.7670    0.9480 O   0  0  0  0  0  0  0  0  0  0  0  0
    2.0570   -1.2350    0.2070 C   0  0  0  0  0  0  0  0  0  0  0  0
  1  2  1  0
  3  2  1  6
  3  4  1  0
  3 18  1  0
  4  5  1  0
  5  6  1  0
  6  7  1  0
  7  8  2  0
  8  9  1  0
  9 10  2  3
  9 12  1  0
 10 11  1  0
 12 13  1  1
 12 14  1  0
 14 15  1  1
 14 16  1  0
 16 17  1  0
 17 18  1  0
M  END
