
     RDKit          3D

 41 44  0  0  0  0  0  0  0  0999 V2000
   -7.5630    4.4100    1.5540 C   0  0  0  0  0  0  0  0  0  0  0  0
   -6.3680    4.3290    0.6720 C   0  0  0  0  0  0  0  0  0  0  0  0
   -5.8510    5.3730    0.1960 O   0  0  0  0  0  0  0  0  0  0  0  0
   -5.7510    3.0540    0.3240 C   0  0  0  0  0  0  0  0  0  0  0  0
   -6.2750    1.8850    0.8170 C   0  0  0  0  0  0  0  0  0  0  0  0
   -5.6740    0.6890    0.4740 C   0  0  0  0  0  0  0  0  0  0  0  0
   -4.5630    0.5750   -0.3450 C   0  0  0  0  0  0  0  0  0  0  0  0
   -3.9330   -0.6940   -0.6640 C   0  0  2  0  0  0  0  0  0  0  0  0
   -3.7150   -0.8600   -2.1880 C   0  0  0  0  0  0  0  0  0  0  0  0
   -4.5870   -1.9440   -0.2400 C   0  0  0  0  0  0  0  0  0  0  0  0
   -5.8800   -2.3950   -0.6880 C   0  0  2  0  0  0  0  0  0  0  0  0
   -6.1590   -3.7510    0.0340 C   0  0  0  0  0  0  0  0  0  0  0  0
   -6.1060   -2.7260   -2.1270 C   0  0  0  0  0  0  0  0  0  0  0  0
   -2.5540   -0.7480   -0.1370 N   0  0  0  0  0  0  0  0  0  0  0  0
   -2.2820   -0.5660    1.2300 C   0  0  0  0  0  0  0  0  0  0  0  0
   -3.2980   -0.3520    1.9630 O   0  0  0  0  0  0  0  0  0  0  0  0
   -0.9500   -0.6040    1.8580 C   0  0  0  0  0  0  0  0  0  0  0  0
    0.1300   -0.8490    0.9670 N   0  0  0  0  0  0  0  0  0  0  0  0
    1.4670   -0.9030    1.5070 C   0  0  0  0  0  0  0  0  0  0  0  0
    1.5600   -0.7240    2.7420 O   0  0  0  0  0  0  0  0  0  0  0  0
    2.5760   -1.1410    0.6770 N   0  0  0  0  0  0  0  0  0  0  0  0
    3.8900   -1.2170    1.1510 C   0  0  0  0  0  0  0  0  0  0  0  0
    4.2580   -1.3910    2.4580 C   0  0  0  0  0  0  0  0  0  0  0  0
    5.6110   -1.4320    2.8390 C   0  0  0  0  0  0  0  0  0  0  0  0
    6.5900   -1.2940    1.8640 C   0  0  0  0  0  0  0  0  0  0  0  0
    6.2460   -1.1180    0.5410 C   0  0  0  0  0  0  0  0  0  0  0  0
    4.9150   -1.0810    0.1950 C   0  0  0  0  0  0  0  0  0  0  0  0
    7.4590   -0.9970   -0.3010 C   0  0  1  0  0  0  0  0  0  0  0  0
    7.6970    0.4200   -0.7410 C   0  0  0  0  0  0  0  0  0  0  0  0
    7.7090    0.6530   -2.0290 C   0  0  0  0  0  0  0  0  0  0  0  0
    7.9160    1.9220   -2.7400 C   0  0  0  0  0  0  0  0  0  0  0  0
    8.1740    3.2580   -1.5980 S   0  0  0  0  0  0  0  0  0  0  0  0
    9.5370    3.8940   -1.9180 O   0  0  0  0  0  0  0  0  0  0  0  0
    8.1030    2.6480    0.0350 C   0  0  0  0  0  0  0  0  0  0  0  0
    7.8890    1.3900    0.3020 C   0  0  0  0  0  0  0  0  0  0  0  0
    8.5700   -1.5030    0.5840 C   0  0  0  0  0  0  0  0  0  0  0  0
    8.0510   -1.2910    1.9360 C   0  0  0  0  0  0  0  0  0  0  0  0
    8.6960   -1.1330    2.9900 O   0  0  0  0  0  0  0  0  0  0  0  0
   -4.0360    1.7590   -0.8380 C   0  0  0  0  0  0  0  0  0  0  0  0
   -2.8630    1.8690   -1.6980 C   0  0  0  0  0  0  0  0  0  0  0  0
   -4.6490    2.9680   -0.4880 C   0  0  0  0  0  0  0  0  0  0  0  0
  1  2  1  0
  2  3  2  0
  2  4  1  0
  4  5  2  0
  4 41  1  0
  5  6  1  0
  6  7  2  0
  7  8  1  0
  7 39  1  0
  8  9  1  6
  8 10  1  0
  8 14  1  0
 10 11  1  0
 11 12  1  1
 11 13  1  0
 14 15  1  0
 15 16  2  0
 15 17  1  0
 17 18  1  0
 18 19  1  0
 19 20  2  0
 19 21  1  0
 21 22  1  0
 22 23  2  0
 22 27  1  0
 23 24  1  0
 24 25  2  0
 25 26  1  0
 25 37  1  0
 26 27  2  0
 26 28  1  0
 28 29  1  1
 28 36  1  0
 29 30  2  0
 29 35  1  0
 30 31  1  0
 32 31  1  6
 32 33  2  0
 32 34  1  0
 34 35  2  0
 36 37  1  0
 37 38  2  0
 39 40  1  0
 39 41  2  0
M  END
