
     RDKit          3D

 41 44  0  0  0  0  0  0  0  0999 V2000
    9.8000    2.9960   -1.5940 C   0  0  0  0  0  0  0  0  0  0  0  0
    8.4820    2.8550   -2.0220 O   0  0  0  0  0  0  0  0  0  0  0  0
    7.6840    1.8160   -1.6430 C   0  0  0  0  0  0  0  0  0  0  0  0
    6.3830    1.8280   -2.1740 C   0  0  0  0  0  0  0  0  0  0  0  0
    5.4920    0.8270   -1.8570 C   0  0  0  0  0  0  0  0  0  0  0  0
    5.8840   -0.2080   -1.0010 C   0  0  0  0  0  0  0  0  0  0  0  0
    7.1540   -0.2280   -0.4770 C   0  0  0  0  0  0  0  0  0  0  0  0
    8.0180    0.7760   -0.8080 C   0  0  0  0  0  0  0  0  0  0  0  0
    7.5160   -1.3240    0.4130 C   0  0  1  0  0  0  0  0  0  0  0  0
    7.2500   -0.8690    1.8110 C   0  0  0  0  0  0  0  0  0  0  0  0
    5.9260   -0.5130    2.1550 N   0  0  0  0  0  0  0  0  0  0  0  0
    8.1640   -0.8070    2.6500 O   0  0  0  0  0  0  0  0  0  0  0  0
    6.8400   -2.6110    0.1160 C   0  0  0  0  0  0  0  0  0  0  0  0
    5.4800   -2.5820   -0.4730 C   0  0  0  0  0  0  0  0  0  0  0  0
    4.9950   -1.2550   -0.6690 N   0  0  0  0  0  0  0  0  0  0  0  0
    3.5780   -0.9720   -0.5080 C   0  0  0  0  0  0  0  0  0  0  0  0
    3.2930    0.2340   -0.5060 O   0  0  0  0  0  0  0  0  0  0  0  0
    2.6750   -2.0600   -0.3710 C   0  0  0  0  0  0  0  0  0  0  0  0
    1.4380   -2.2000   -0.1880 C   0  0  0  0  0  0  0  0  0  0  0  0
    0.3090   -1.3190   -0.0280 C   0  0  0  0  0  0  0  0  0  0  0  0
   -0.8700   -1.9160    0.1750 C   0  0  0  0  0  0  0  0  0  0  0  0
   -2.1060   -1.1820    0.3570 C   0  0  0  0  0  0  0  0  0  0  0  0
   -3.3890   -1.5780    0.6030 N   0  0  0  0  0  0  0  0  0  0  0  0
   -4.1710   -0.4940    0.7260 C   0  0  0  0  0  0  0  0  0  0  0  0
   -5.6260   -0.5070    1.0600 C   0  0  2  0  0  0  0  0  0  0  0  0
   -5.8750    0.3890    2.1300 O   0  0  0  0  0  0  0  0  0  0  0  0
   -6.1060   -1.8720    1.4880 C   0  0  2  0  0  0  0  0  0  0  0  0
   -7.6230   -1.6760    1.7560 C   0  0  0  0  0  0  0  0  0  0  0  0
   -5.5330   -2.3530    2.7900 C   0  0  0  0  0  0  0  0  0  0  0  0
   -5.9380   -1.2910    4.1850 S   0  0  0  0  0  0  0  0  0  0  0  0
   -5.0600   -1.7600    5.3670 O   0  0  0  0  0  0  0  0  0  0  0  0
   -3.3790    0.6090    0.5500 C   0  0  0  0  0  0  0  0  0  0  0  0
   -3.7250    2.0200    0.5070 C   0  0  0  0  0  0  0  0  0  0  0  0
   -4.0230    2.6380   -0.8050 C   0  0  0  0  0  0  0  0  0  0  0  0
   -5.1120    2.1330   -1.6620 C   0  0  1  0  0  0  0  0  0  0  0  0
   -5.1220    3.0670   -2.9050 C   0  0  0  0  0  0  0  0  0  0  0  0
   -4.8350    0.7680   -2.2180 C   0  0  0  0  0  0  0  0  0  0  0  0
   -6.4600    2.2870   -1.0390 C   0  0  0  0  0  0  0  0  0  0  0  0
   -2.0410    0.1700    0.3130 C   0  0  0  0  0  0  0  0  0  0  0  0
   -0.8190    0.9320    0.0680 C   0  0  0  0  0  0  0  0  0  0  0  0
    0.4100    0.1370   -0.0990 C   0  0  0  0  0  0  0  0  0  0  0  0
  1  2  1  0
  2  3  1  0
  3  4  2  0
  3  8  1  0
  4  5  1  0
  5  6  2  0
  6  7  1  0
  6 15  1  0
  7  8  2  0
  7  9  1  0
  9 10  1  1
  9 13  1  0
 10 11  1  0
 10 12  2  0
 13 14  1  0
 14 15  1  0
 15 16  1  0
 16 17  2  0
 16 18  1  0
 18 19  2  3
 19 20  1  0
 20 21  2  0
 20 41  1  0
 21 22  1  0
 22 23  1  0
 22 39  2  0
 23 24  1  0
 24 25  1  0
 24 32  2  0
 25 26  1  1
 25 27  1  0
 27 28  1  1
 27 29  1  0
 29 30  1  0
 30 31  2  0
 32 33  1  0
 32 39  1  0
 33 34  1  0
 34 35  1  0
 35 36  1  6
 35 37  1  0
 35 38  1  0
 39 40  1  0
 40 41  1  0
M  END
