
     RDKit          3D

 41 44  0  0  0  0  0  0  0  0999 V2000
   -4.9950   -4.3870    0.7120 C   0  0  0  0  0  0  0  0  0  0  0  0
   -4.5330   -4.5970   -0.7020 C   0  0  0  0  0  0  0  0  0  0  0  0
   -3.3190   -3.7660   -1.0420 C   0  0  0  0  0  0  0  0  0  0  0  0
   -3.6480   -2.3710   -0.8760 N   0  0  0  0  0  0  0  0  0  0  0  0
   -2.6670   -1.3290   -1.1340 C   0  0  0  0  0  0  0  0  0  0  0  0
   -1.5640   -1.7730   -1.4750 O   0  0  0  0  0  0  0  0  0  0  0  0
   -3.0680    0.0580   -0.9640 C   0  0  0  0  0  0  0  0  0  0  0  0
   -4.2910    0.4800   -1.3770 C   0  0  0  0  0  0  0  0  0  0  0  0
   -5.2090   -0.3880   -2.1590 C   0  0  0  0  0  0  0  0  0  0  0  0
   -4.6590    1.7920   -1.1170 C   0  0  0  0  0  0  0  0  0  0  0  0
   -3.8110    2.6360   -0.4630 C   0  0  0  0  0  0  0  0  0  0  0  0
   -4.1250    3.8390   -0.2140 O   0  0  0  0  0  0  0  0  0  0  0  0
   -2.5600    2.2040   -0.0420 N   0  0  0  0  0  0  0  0  0  0  0  0
   -1.8180    3.1650    0.7580 C   0  0  0  0  0  0  0  0  0  0  0  0
   -2.1520    2.7880    2.2140 C   0  0  0  0  0  0  0  0  0  0  0  0
   -2.1890    0.9560   -0.2820 C   0  0  0  0  0  0  0  0  0  0  0  0
   -0.9470    0.3600    0.2260 C   0  0  0  0  0  0  0  0  0  0  0  0
   -1.1770   -0.8010    0.9180 C   0  0  0  0  0  0  0  0  0  0  0  0
   -0.1950   -1.6510    1.5100 C   0  0  0  0  0  0  0  0  0  0  0  0
    1.0700   -1.3390    1.3740 C   0  0  0  0  0  0  0  0  0  0  0  0
    1.4300   -0.1750    0.6160 C   0  0  0  0  0  0  0  0  0  0  0  0
    2.7160   -0.0140    0.2620 C   0  0  0  0  0  0  0  0  0  0  0  0
    3.7510   -0.9420    0.5910 C   0  0  0  0  0  0  0  0  0  0  0  0
    3.7090   -2.3190    0.3780 C   0  0  0  0  0  0  0  0  0  0  0  0
    4.7150   -3.1820    0.7260 C   0  0  0  0  0  0  0  0  0  0  0  0
    5.8420   -2.6920    1.3180 C   0  0  0  0  0  0  0  0  0  0  0  0
    6.9080   -3.6740    1.6770 C   0  0  0  0  0  0  0  0  0  0  0  0
    5.9340   -1.3510    1.5480 C   0  0  0  0  0  0  0  0  0  0  0  0
    4.9290   -0.4830    1.2030 C   0  0  0  0  0  0  0  0  0  0  0  0
    5.1140    0.9770    1.4930 C   0  0  0  0  0  0  0  0  0  0  0  0
    0.4170    0.8120    0.1940 C   0  0  1  0  0  0  0  0  0  0  0  0
    0.9410    1.6560   -0.9050 C   0  0  0  0  0  0  0  0  0  0  0  0
    0.8250    1.2060   -2.2560 C   0  0  0  0  0  0  0  0  0  0  0  0
    0.2450    0.1230   -2.5210 O   0  0  0  0  0  0  0  0  0  0  0  0
    1.3100    1.8710   -3.3620 O   0  0  0  0  0  0  0  0  0  0  0  0
    1.5540    2.7970   -0.6330 C   0  0  0  0  0  0  0  0  0  0  0  0
    2.1370    3.7830   -1.5500 C   0  0  0  0  0  0  0  0  0  0  0  0
    1.5820    5.1720   -1.1220 C   0  0  0  0  0  0  0  0  0  0  0  0
    1.7690    4.9890    0.6590 S   0  0  0  0  0  0  0  0  0  0  0  0
    0.5180    5.4220    1.4080 O   0  0  0  0  0  0  0  0  0  0  0  0
    1.8500    3.2430    0.7260 N   0  0  0  0  0  0  0  0  0  0  0  0
  1  2  1  0
  2  3  1  0
  3  4  1  0
  4  5  1  0
  5  6  2  0
  5  7  1  0
  7  8  1  0
  7 16  2  0
  8  9  1  0
  8 10  2  0
 10 11  1  0
 11 12  2  0
 11 13  1  0
 13 14  1  0
 13 16  1  0
 14 15  1  0
 16 17  1  0
 17 18  2  0
 17 31  1  0
 18 19  1  0
 19 20  2  0
 20 21  1  0
 21 22  2  3
 21 31  1  0
 22 23  1  0
 23 24  2  0
 23 29  1  0
 24 25  1  0
 25 26  2  0
 26 27  1  0
 26 28  1  0
 28 29  2  0
 29 30  1  0
 31 32  1  6
 32 33  1  0
 32 36  2  3
 33 34  2  0
 33 35  1  0
 36 37  1  0
 36 41  1  0
 37 38  1  0
 39 38  1  6
 39 40  2  0
 39 41  1  0
M  END
