
     RDKit          3D

 41 45  0  0  0  0  0  0  0  0999 V2000
   11.1590    0.5140    0.5320 C   0  0  0  0  0  0  0  0  0  0  0  0
    9.8740    0.1020    1.2650 C   0  0  0  0  0  0  0  0  0  0  0  0
    8.9180   -0.5450    0.3010 C   0  0  0  0  0  0  0  0  0  0  0  0
    7.6800   -0.9780    1.0150 C   0  0  0  0  0  0  0  0  0  0  0  0
    6.6730   -1.6160    0.0730 C   0  0  2  0  0  0  0  0  0  0  0  0
    7.2670   -2.7110   -0.5180 O   0  0  0  0  0  0  0  0  0  0  0  0
    6.1890   -0.6520   -0.9660 C   0  0  0  0  0  0  0  0  0  0  0  0
    5.0560   -1.4550   -2.0580 S   0  0  0  0  0  0  0  0  0  0  0  0
    3.4810   -1.9540   -1.4390 C   0  0  0  0  0  0  0  0  0  0  0  0
    2.6140   -0.7860   -1.0950 C   0  0  0  0  0  0  0  0  0  0  0  0
    2.8090    0.4180   -1.7490 C   0  0  0  0  0  0  0  0  0  0  0  0
    1.9460    1.4510   -1.6310 C   0  0  0  0  0  0  0  0  0  0  0  0
    0.8440    1.2950   -0.8440 C   0  0  0  0  0  0  0  0  0  0  0  0
    0.5630    0.1000   -0.1330 C   0  0  0  0  0  0  0  0  0  0  0  0
   -0.5190    0.0900    0.5860 O   0  0  0  0  0  0  0  0  0  0  0  0
   -1.4560   -0.2190    1.4170 C   0  0  0  0  0  0  0  0  0  0  0  0
   -2.8230    0.3190    1.4550 C   0  0  0  0  0  0  0  0  0  0  0  0
   -3.3830    1.0470    2.4900 C   0  0  0  0  0  0  0  0  0  0  0  0
   -2.5490    1.7820    3.5160 C   0  0  0  0  0  0  0  0  0  0  0  0
   -4.7130    1.0410    2.4500 N   0  0  0  0  0  0  0  0  0  0  0  0
   -5.1100    0.3260    1.4030 C   0  0  0  0  0  0  0  0  0  0  0  0
   -3.9370   -0.1510    0.7470 C   0  0  0  0  0  0  0  0  0  0  0  0
   -3.8730   -0.7500   -0.4220 C   0  0  0  0  0  0  0  0  0  0  0  0
   -2.5150   -0.8050   -0.9180 N   0  0  0  0  0  0  0  0  0  0  0  0
   -2.0490   -1.9850   -1.4910 C   0  0  0  0  0  0  0  0  0  0  0  0
   -0.8880   -2.0820   -1.9350 O   0  0  0  0  0  0  0  0  0  0  0  0
   -2.9710   -3.0720   -1.5490 N   0  0  0  0  0  0  0  0  0  0  0  0
   -4.3560   -2.9600   -1.3460 C   0  0  0  0  0  0  0  0  0  0  0  0
   -4.9090   -1.5230   -1.1840 C   0  0  2  0  0  0  0  0  0  0  0  0
   -5.1130   -1.0410   -2.4640 O   0  0  0  0  0  0  0  0  0  0  0  0
   -6.1580   -1.6930   -0.4180 C   0  0  0  0  0  0  0  0  0  0  0  0
   -6.9670   -0.4920   -0.0990 C   0  0  1  0  0  0  0  0  0  0  0  0
   -8.3370   -1.0210    0.3050 C   0  0  0  0  0  0  0  0  0  0  0  0
   -6.3690    0.2570    1.0150 C   0  0  0  0  0  0  0  0  0  0  0  0
   -7.3840    1.1250    1.7180 C   0  0  0  0  0  0  0  0  0  0  0  0
   -8.0900    2.0420    0.7190 C   0  0  0  0  0  0  0  0  0  0  0  0
    1.5090   -0.9220   -0.3030 C   0  0  0  0  0  0  0  0  0  0  0  0
   -0.0160    2.3730   -0.7530 O   0  0  0  0  0  0  0  0  0  0  0  0
    0.3850    3.7010   -1.0250 C   0  0  0  0  0  0  0  0  0  0  0  0
    1.8620    3.8070   -1.1730 C   0  0  0  0  0  0  0  0  0  0  0  0
    2.2650    2.7900   -2.2580 C   0  0  0  0  0  0  0  0  0  0  0  0
  1  2  1  0
  2  3  1  0
  3  4  1  0
  4  5  1  0
  5  6  1  6
  5  7  1  0
  7  8  1  0
  8  9  1  0
  9 10  1  0
 10 11  2  0
 10 37  1  0
 11 12  1  0
 12 13  2  0
 12 41  1  0
 13 14  1  0
 13 38  1  0
 14 15  1  0
 14 37  2  0
 15 16  1  0
 16 17  1  0
 17 18  2  0
 17 22  1  0
 18 19  1  0
 18 20  1  0
 20 21  1  0
 21 22  1  0
 21 34  2  0
 22 23  2  0
 23 24  1  0
 23 29  1  0
 24 25  1  0
 25 26  2  0
 25 27  1  0
 27 28  1  0
 28 29  1  0
 29 30  1  6
 29 31  1  0
 31 32  1  0
 32 33  1  1
 32 34  1  0
 34 35  1  0
 35 36  1  0
 38 39  1  0
 39 40  1  0
 40 41  1  0
M  END
