
     RDKit          3D

 41 45  0  0  0  0  0  0  0  0999 V2000
   10.4390    2.2800   -1.4590 C   0  0  0  0  0  0  0  0  0  0  0  0
    9.0690    2.2900   -0.8240 C   0  0  0  0  0  0  0  0  0  0  0  0
    8.6950    3.0030    0.2110 O   0  0  0  0  0  0  0  0  0  0  0  0
    7.4390    2.7900    0.5230 C   0  0  0  0  0  0  0  0  0  0  0  0
    6.5830    3.2720    1.4980 C   0  0  0  0  0  0  0  0  0  0  0  0
    5.2830    2.8360    1.5600 C   0  0  0  0  0  0  0  0  0  0  0  0
    4.7740    1.9160    0.6740 C   0  0  0  0  0  0  0  0  0  0  0  0
    3.4710    1.4770    0.7340 O   0  0  0  0  0  0  0  0  0  0  0  0
    2.9630    0.5410   -0.1870 C   0  0  0  0  0  0  0  0  0  0  0  0
    1.5640    0.2650    0.1370 C   0  0  0  0  0  0  0  0  0  0  0  0
    1.0440    0.7680    1.1620 O   0  0  0  0  0  0  0  0  0  0  0  0
    0.7590   -0.5610   -0.6730 N   0  0  0  0  0  0  0  0  0  0  0  0
   -0.6090   -0.7990   -0.3010 C   0  0  1  0  0  0  0  0  0  0  0  0
   -1.4470   -0.0360   -1.2800 C   0  0  0  0  0  0  0  0  0  0  0  0
   -2.2560   -0.8560   -1.9110 C   0  0  0  0  0  0  0  0  0  0  0  0
   -2.0850   -2.2590   -1.4610 C   0  0  2  0  0  0  0  0  0  0  0  0
   -3.3310   -2.7280   -0.8070 C   0  0  0  0  0  0  0  0  0  0  0  0
   -4.1730   -3.3400   -1.5230 O   0  0  0  0  0  0  0  0  0  0  0  0
   -3.6560   -2.5390    0.5590 N   0  0  0  0  0  0  0  0  0  0  0  0
   -4.8630   -2.9850    1.0980 C   0  0  0  0  0  0  0  0  0  0  0  0
   -5.3260   -4.2960    1.3270 C   0  0  0  0  0  0  0  0  0  0  0  0
   -4.9450   -5.5010    1.2420 C   0  0  0  0  0  0  0  0  0  0  0  0
   -3.7920   -6.2910    0.8680 C   0  0  0  0  0  0  0  0  0  0  0  0
   -2.3400   -5.4610    0.4330 Cl  0  0  0  0  0  0  0  0  0  0  0  0
   -5.7120   -1.9560    1.4160 C   0  0  0  0  0  0  0  0  0  0  0  0
   -5.3570   -0.5630    1.2040 C   0  0  0  0  0  0  0  0  0  0  0  0
   -6.3040    0.3680    0.7600 C   0  0  0  0  0  0  0  0  0  0  0  0
   -5.9800    1.6990    0.5640 C   0  0  0  0  0  0  0  0  0  0  0  0
   -6.9150    2.6220    0.1250 C   0  0  0  0  0  0  0  0  0  0  0  0
   -8.5400    2.0670   -0.1810 Cl  0  0  0  0  0  0  0  0  0  0  0  0
   -6.6090    3.9520   -0.0770 C   0  0  0  0  0  0  0  0  0  0  0  0
   -5.3130    4.3650    0.1750 C   0  0  0  0  0  0  0  0  0  0  0  0
   -4.3440    3.4810    0.6150 C   0  0  0  0  0  0  0  0  0  0  0  0
   -4.6960    2.1470    0.8050 C   0  0  0  0  0  0  0  0  0  0  0  0
   -3.7830    1.2090    1.2410 C   0  0  0  0  0  0  0  0  0  0  0  0
   -4.1260   -0.0770    1.4230 N   0  0  0  0  0  0  0  0  0  0  0  0
   -0.9440   -2.2400   -0.5050 C   0  0  0  0  0  0  0  0  0  0  0  0
    5.6300    1.4450   -0.2880 C   0  0  0  0  0  0  0  0  0  0  0  0
    6.9360    1.8660   -0.3710 C   0  0  0  0  0  0  0  0  0  0  0  0
    7.9710    1.5580   -1.2150 C   0  0  0  0  0  0  0  0  0  0  0  0
    7.9220    0.6010   -2.3460 C   0  0  0  0  0  0  0  0  0  0  0  0
  1  2  1  0
  2  3  1  0
  2 40  2  0
  3  4  1  0
  4  5  2  0
  4 39  1  0
  5  6  1  0
  6  7  2  0
  7  8  1  0
  7 38  1  0
  8  9  1  0
  9 10  1  0
 10 11  2  0
 10 12  1  0
 13 12  1  6
 13 14  1  0
 13 37  1  0
 14 15  2  0
 15 16  1  0
 16 17  1  1
 16 37  1  0
 17 18  2  0
 17 19  1  0
 19 20  1  0
 20 21  1  0
 20 25  2  3
 21 22  2  3
 22 23  1  0
 23 24  1  0
 25 26  1  0
 26 27  2  0
 26 36  1  0
 27 28  1  0
 28 29  2  0
 28 34  1  0
 29 30  1  0
 29 31  1  0
 31 32  2  0
 32 33  1  0
 33 34  2  0
 34 35  1  0
 35 36  2  0
 38 39  2  0
 39 40  1  0
 40 41  1  0
M  END
