
     RDKit          3D

 17 17  0  0  0  0  0  0  0  0999 V2000
    4.7900    0.5680    1.3670 C   0  0  0  0  0  0  0  0  0  0  0  0
    3.7110    1.1670    0.8040 O   0  0  0  0  0  0  0  0  0  0  0  0
    3.5650    1.0040   -0.5300 C   0  0  0  0  0  0  0  0  0  0  0  0
    3.4220   -0.4200   -0.9590 C   0  0  1  0  0  0  0  0  0  0  0  0
    4.5690   -1.1690   -0.6650 O   0  0  0  0  0  0  0  0  0  0  0  0
    2.2120   -1.0240   -0.2790 C   0  0  0  0  0  0  0  0  0  0  0  0
    1.0470   -0.2790   -0.6050 N   0  0  0  0  0  0  0  0  0  0  0  0
   -0.2510   -0.6710   -0.0490 C   0  0  0  0  0  0  0  0  0  0  0  0
   -0.2040   -1.6540    0.6810 O   0  0  0  0  0  0  0  0  0  0  0  0
   -1.3820    0.1350   -0.4270 C   0  0  0  0  0  0  0  0  0  0  0  0
   -2.7370   -0.1780    0.0580 C   0  0  0  0  0  0  0  0  0  0  0  0
   -3.0300   -1.1650    0.8180 C   0  0  0  0  0  0  0  0  0  0  0  0
   -4.3000   -1.6430    1.4060 C   0  0  0  0  0  0  0  0  0  0  0  0
   -5.6630   -0.6020    0.9450 S   0  0  0  0  0  0  0  0  0  0  0  0
   -5.0380    0.6870   -0.0950 C   0  0  0  0  0  0  0  0  0  0  0  0
   -3.7670    0.7730   -0.4110 C   0  0  0  0  0  0  0  0  0  0  0  0
   -3.3510    1.8850   -1.2690 C   0  0  0  0  0  0  0  0  0  0  0  0
  1  2  1  0
  2  3  1  0
  3  4  1  0
  4  5  1  1
  4  6  1  0
  6  7  1  0
  7  8  1  0
  8  9  2  0
  8 10  1  0
 10 11  1  0
 11 12  2  0
 11 16  1  0
 12 13  1  0
 13 14  1  0
 14 15  1  0
 15 16  2  0
 16 17  1  0
M  END
