
     RDKit          3D

 17 17  0  0  0  0  0  0  0  0999 V2000
    3.7890   -2.2780   -0.4140 C   0  0  0  0  0  0  0  0  0  0  0  0
    3.8570   -0.8070   -0.1360 C   0  0  0  0  0  0  0  0  0  0  0  0
    2.5910   -0.1920   -0.3120 O   0  0  0  0  0  0  0  0  0  0  0  0
    2.3950    1.1600   -0.1150 C   0  0  0  0  0  0  0  0  0  0  0  0
    3.4050    1.8200    0.2300 O   0  0  0  0  0  0  0  0  0  0  0  0
    1.1210    1.8510   -0.2810 C   0  0  0  0  0  0  0  0  0  0  0  0
    0.9590    3.1220   -0.0940 C   0  0  0  0  0  0  0  0  0  0  0  0
    1.9380    4.0520    0.2910 N   0  0  0  0  0  0  0  0  0  0  0  0
   -0.7380    3.5680   -0.4200 S   0  0  0  0  0  0  0  0  0  0  0  0
   -1.0570    2.0250   -1.3920 C   0  0  0  0  0  0  0  0  0  0  0  0
   -0.0880    1.1500   -0.6640 C   0  0  0  0  0  0  0  0  0  0  0  0
   -0.3320   -0.1210   -0.4020 C   0  0  0  0  0  0  0  0  0  0  0  0
   -1.5590   -0.8390   -0.7920 C   0  0  0  0  0  0  0  0  0  0  0  0
   -2.3150   -1.3730    0.4080 C   0  0  1  0  0  0  0  0  0  0  0  0
   -2.7060   -0.2170    1.3060 C   0  0  0  0  0  0  0  0  0  0  0  0
   -3.5970   -2.0040   -0.0940 C   0  0  0  0  0  0  0  0  0  0  0  0
   -4.3320   -2.5130    0.9780 O   0  0  0  0  0  0  0  0  0  0  0  0
  1  2  1  0
  2  3  1  0
  3  4  1  0
  4  5  2  0
  4  6  1  0
  6  7  2  0
  6 11  1  0
  7  8  1  0
  7  9  1  0
  9 10  1  0
 10 11  1  0
 11 12  2  3
 12 13  1  0
 13 14  1  0
 14 15  1  1
 14 16  1  0
 16 17  1  0
M  END
