
     RDKit          3D

 17 17  0  0  0  0  0  0  0  0999 V2000
   -5.8250   -0.3540    0.3520 C   0  0  0  0  0  0  0  0  0  0  0  0
   -5.2740    0.4630   -0.7690 C   0  0  0  0  0  0  0  0  0  0  0  0
   -3.8750    0.3410   -0.9260 O   0  0  0  0  0  0  0  0  0  0  0  0
   -2.9470    0.6650    0.0370 C   0  0  0  0  0  0  0  0  0  0  0  0
   -3.3440    1.1010    1.1340 O   0  0  0  0  0  0  0  0  0  0  0  0
   -1.5010    0.4990   -0.2260 C   0  0  1  0  0  0  0  0  0  0  0  0
   -1.2860   -0.0300   -1.5650 N   0  0  0  0  0  0  0  0  0  0  0  0
   -0.8350    1.8870   -0.2310 C   0  0  0  0  0  0  0  0  0  0  0  0
    0.4870    1.6480   -0.9170 C   0  0  0  0  0  0  0  0  0  0  0  0
    1.3180    0.5660   -0.3270 C   0  0  0  0  0  0  0  0  0  0  0  0
    0.6290   -0.5460    0.3570 C   0  0  1  0  0  0  0  0  0  0  0  0
    1.5510   -1.0910    1.8150 S   0  0  0  0  0  0  0  0  0  0  0  0
    3.1260   -1.8670    1.4390 C   0  0  0  0  0  0  0  0  0  0  0  0
    4.1290   -0.9160    0.8760 C   0  0  0  0  0  0  0  0  0  0  0  0
    5.3590   -1.5700    0.6080 O   0  0  0  0  0  0  0  0  0  0  0  0
    6.1920   -0.5540    0.0880 C   0  0  0  0  0  0  0  0  0  0  0  0
   -0.7820   -0.2710    0.8230 C   0  0  0  0  0  0  0  0  0  0  0  0
  1  2  1  0
  2  3  1  0
  3  4  1  0
  4  5  2  0
  4  6  1  0
  6  7  1  6
  6  8  1  0
  6 17  1  0
  8  9  1  0
  9 10  1  0
 10 11  1  0
 11 12  1  1
 11 17  1  0
 12 13  1  0
 13 14  1  0
 14 15  1  0
 15 16  1  0
M  END
