
     RDKit          3D

 17 17  0  0  0  0  0  0  0  0999 V2000
   -2.6180   -4.3900   -0.3310 C   0  0  0  0  0  0  0  0  0  0  0  0
   -1.6350   -3.6510    0.5050 C   0  0  0  0  0  0  0  0  0  0  0  0
   -1.0890   -4.2710    1.4630 O   0  0  0  0  0  0  0  0  0  0  0  0
   -1.3470   -2.2920    0.2040 N   0  0  0  0  0  0  0  0  0  0  0  0
   -0.4080   -1.5640    1.0100 C   0  0  0  0  0  0  0  0  0  0  0  0
    0.1240   -2.2170    1.9710 O   0  0  0  0  0  0  0  0  0  0  0  0
   -0.0730   -0.1530    0.7530 C   0  0  2  0  0  0  0  0  0  0  0  0
   -1.2820    0.7470    0.7820 C   0  0  0  0  0  0  0  0  0  0  0  0
   -0.9060    2.1660    0.5210 C   0  0  0  0  0  0  0  0  0  0  0  0
   -1.3310    2.9280   -0.4690 C   0  0  0  0  0  0  0  0  0  0  0  0
   -0.7240    4.2560   -0.3660 C   0  0  0  0  0  0  0  0  0  0  0  0
    0.1230    4.1660    0.8350 C   0  0  0  0  0  0  0  0  0  0  0  0
    0.0130    2.9500    1.3470 C   0  0  0  0  0  0  0  0  0  0  0  0
    0.8950    0.0040   -0.7410 S   0  0  0  0  0  0  0  0  0  0  0  0
    2.5020   -0.7890   -0.4490 C   0  0  0  0  0  0  0  0  0  0  0  0
    3.3970   -0.7110   -1.6500 C   0  0  0  0  0  0  0  0  0  0  0  0
    3.6400    0.6170   -1.9980 O   0  0  0  0  0  0  0  0  0  0  0  0
  1  2  1  0
  2  3  2  0
  2  4  1  0
  4  5  1  0
  5  6  2  0
  5  7  1  0
  7  8  1  6
  7 14  1  0
  8  9  1  0
  9 10  2  0
  9 13  1  0
 10 11  1  0
 11 12  1  0
 12 13  2  0
 14 15  1  0
 15 16  1  0
 16 17  1  0
M  END
