
     RDKit          3D

 17 18  0  0  0  0  0  0  0  0999 V2000
    5.2480    0.5230   -0.3830 C   0  0  0  0  0  0  0  0  0  0  0  0
    3.8930    1.0680   -0.5380 C   0  0  0  0  0  0  0  0  0  0  0  0
    2.8030    0.2700   -0.3960 C   0  0  0  0  0  0  0  0  0  0  0  0
    1.4990    0.8480   -0.5570 C   0  0  0  0  0  0  0  0  0  0  0  0
    0.3730    0.1210   -0.3560 C   0  0  0  0  0  0  0  0  0  0  0  0
   -0.8910    0.7830   -0.5390 C   0  0  0  0  0  0  0  0  0  0  0  0
   -0.7570    2.0540   -0.9460 O   0  0  0  0  0  0  0  0  0  0  0  0
   -2.2230    0.4000   -0.3900 N   0  0  0  0  0  0  0  0  0  0  0  0
   -3.3250    1.3540   -0.7720 C   0  0  0  0  0  0  0  0  0  0  0  0
   -4.2210    1.1940    0.4360 C   0  0  0  0  0  0  0  0  0  0  0  0
   -4.3830   -0.3340    0.3640 C   0  0  0  0  0  0  0  0  0  0  0  0
   -2.9010   -0.7420    0.1010 C   0  0  0  0  0  0  0  0  0  0  0  0
    0.5670   -1.2710   -0.0130 C   0  0  0  0  0  0  0  0  0  0  0  0
   -0.5390   -2.1070    0.2090 O   0  0  0  0  0  0  0  0  0  0  0  0
    1.7540   -1.8470    0.1110 C   0  0  0  0  0  0  0  0  0  0  0  0
    3.0090   -1.1440   -0.0850 C   0  0  1  0  0  0  0  0  0  0  0  0
    3.8710   -1.8620   -1.4830 Cl  0  0  0  0  0  0  0  0  0  0  0  0
  1  2  1  0
  2  3  2  3
  3  4  1  0
  3 16  1  0
  4  5  2  0
  5  6  1  0
  5 13  1  0
  6  7  2  0
  6  8  1  0
  8  9  1  0
  8 12  1  0
  9 10  1  0
 10 11  1  0
 11 12  1  0
 13 14  1  0
 13 15  2  0
 15 16  1  0
 16 17  1  6
M  END
