
     RDKit          3D

 17 19  0  0  0  0  0  0  0  0999 V2000
   -4.5220   -0.9360   -0.1580 C   0  0  0  0  0  0  0  0  0  0  0  0
   -3.1700   -1.3910   -0.1490 O   0  0  0  0  0  0  0  0  0  0  0  0
   -2.1190   -0.5090   -0.0070 C   0  0  0  0  0  0  0  0  0  0  0  0
   -2.3830    0.8390    0.1270 C   0  0  0  0  0  0  0  0  0  0  0  0
   -1.3460    1.7390    0.2700 C   0  0  0  0  0  0  0  0  0  0  0  0
   -1.7350    3.4370    0.4370 Cl  0  0  0  0  0  0  0  0  0  0  0  0
   -0.0430    1.2880    0.2780 C   0  0  0  0  0  0  0  0  0  0  0  0
    1.1200    1.9410    0.4000 N   0  0  0  0  0  0  0  0  0  0  0  0
    2.1580    1.0800    0.3520 C   0  0  0  0  0  0  0  0  0  0  0  0
    3.5190    1.2500    0.4290 C   0  0  0  0  0  0  0  0  0  0  0  0
    4.3360    0.1500    0.3460 C   0  0  0  0  0  0  0  0  0  0  0  0
    3.7690   -1.1110    0.1850 C   0  0  0  0  0  0  0  0  0  0  0  0
    2.4120   -1.2660    0.1090 C   0  0  0  0  0  0  0  0  0  0  0  0
    1.5820   -0.1780    0.1900 C   0  0  0  0  0  0  0  0  0  0  0  0
    0.2080   -0.0690    0.1420 C   0  0  0  0  0  0  0  0  0  0  0  0
   -0.8310   -0.9800   -0.0020 C   0  0  0  0  0  0  0  0  0  0  0  0
   -0.5570   -2.3270   -0.1360 O   0  0  0  0  0  0  0  0  0  0  0  0
  1  2  1  0
  2  3  1  0
  3  4  2  0
  3 16  1  0
  4  5  1  0
  5  6  1  0
  5  7  2  0
  7  8  1  0
  7 15  1  0
  8  9  1  0
  9 10  2  0
  9 14  1  0
 10 11  1  0
 11 12  2  0
 12 13  1  0
 13 14  2  0
 14 15  1  0
 15 16  2  0
 16 17  1  0
M  END
