
     RDKit          3D

 17 18  0  0  0  0  0  0  0  0999 V2000
    4.1600    1.9090    2.6980 N   0  0  0  0  0  0  0  0  0  0  0  0
    3.9760    1.0720    1.6700 C   0  0  0  0  0  0  0  0  0  0  0  0
    5.3660    0.2090    1.0770 Cl  0  0  0  0  0  0  0  0  0  0  0  0
    2.6420    0.9540    1.1470 C   0  0  0  0  0  0  0  0  0  0  0  0
    2.2440    0.2050    0.1520 C   0  0  0  0  0  0  0  0  0  0  0  0
    2.9360   -0.7160   -0.7350 C   0  0  0  0  0  0  0  0  0  0  0  0
    4.1440   -0.9460   -0.8550 O   0  0  0  0  0  0  0  0  0  0  0  0
    1.8610   -1.3960   -1.5490 C   0  0  0  0  0  0  0  0  0  0  0  0
    0.9230   -0.1690   -1.7120 C   0  0  0  0  0  0  0  0  0  0  0  0
    0.7870    0.1690   -0.2860 C   0  0  0  0  0  0  0  0  0  0  0  0
   -0.2430    0.3630    0.4480 C   0  0  0  0  0  0  0  0  0  0  0  0
   -0.0580    0.6500    1.8620 O   0  0  0  0  0  0  0  0  0  0  0  0
   -1.6520    0.3480    0.1060 C   0  0  2  0  0  0  0  0  0  0  0  0
   -2.4530   -0.6730    0.9120 C   0  0  0  0  0  0  0  0  0  0  0  0
   -3.8390   -0.5220    0.2720 C   0  0  0  0  0  0  0  0  0  0  0  0
   -3.6520    0.1800   -1.0410 C   0  0  0  0  0  0  0  0  0  0  0  0
   -2.1050    0.0590   -1.2630 C   0  0  0  0  0  0  0  0  0  0  0  0
  1  2  2  0
  2  3  1  0
  2  4  1  0
  4  5  2  3
  5  6  1  0
  5 10  1  0
  6  7  2  0
  6  8  1  0
  8  9  1  0
  9 10  1  0
 10 11  2  3
 11 12  1  0
 13 11  1  6
 13 14  1  0
 13 17  1  0
 14 15  1  0
 15 16  1  0
 16 17  1  0
M  END
