
     RDKit          3D

 17 18  0  0  0  0  0  0  0  0999 V2000
    5.7660   -0.1220    1.1170 C   0  0  0  0  0  0  0  0  0  0  0  0
    4.5740   -0.3510    0.3440 C   0  0  0  0  0  0  0  0  0  0  0  0
    4.7380   -1.5370   -0.9760 Cl  0  0  0  0  0  0  0  0  0  0  0  0
    3.4170    0.2260    0.4190 C   0  0  0  0  0  0  0  0  0  0  0  0
    2.3090   -0.1270   -0.4340 C   0  0  0  0  0  0  0  0  0  0  0  0
    1.1160    0.3030   -0.5830 C   0  0  0  0  0  0  0  0  0  0  0  0
    0.1810    1.3250   -0.0560 C   0  0  0  0  0  0  0  0  0  0  0  0
   -1.1540    0.6580   -0.1290 C   0  0  0  0  0  0  0  0  0  0  0  0
   -2.3170    0.9280    0.6040 C   0  0  0  0  0  0  0  0  0  0  0  0
   -3.3910    0.0980    0.4510 C   0  0  0  0  0  0  0  0  0  0  0  0
   -4.6590    0.1980    1.2510 C   0  0  0  0  0  0  0  0  0  0  0  0
   -5.6930    0.4910    0.2720 O   0  0  0  0  0  0  0  0  0  0  0  0
   -3.2620   -0.9870   -0.4330 C   0  0  0  0  0  0  0  0  0  0  0  0
   -4.2790   -1.7180   -0.5160 O   0  0  0  0  0  0  0  0  0  0  0  0
   -2.1530   -1.2100   -1.1150 N   0  0  0  0  0  0  0  0  0  0  0  0
   -1.0660   -0.4060   -0.9990 C   0  0  0  0  0  0  0  0  0  0  0  0
    0.2230   -0.3280   -1.6770 C   0  0  0  0  0  0  0  0  0  0  0  0
  1  2  1  0
  2  3  1  0
  2  4  2  3
  4  5  1  0
  5  6  2  3
  6  7  1  0
  6 17  1  0
  7  8  1  0
  8  9  1  0
  8 16  2  0
  9 10  2  0
 10 11  1  0
 10 13  1  0
 11 12  1  0
 13 14  2  0
 13 15  1  0
 15 16  1  0
 16 17  1  0
M  END
