
     RDKit          3D

 17 19  0  0  0  0  0  0  0  0999 V2000
    1.8730   -1.8050    0.1060 O   0  0  0  0  0  0  0  0  0  0  0  0
    0.9050   -1.0090    0.0710 C   0  0  0  0  0  0  0  0  0  0  0  0
   -0.4330   -1.5760   -0.0110 C   0  0  0  0  0  0  0  0  0  0  0  0
   -0.5730   -2.8950   -0.0440 C   0  0  0  0  0  0  0  0  0  0  0  0
   -1.9350   -3.4560   -0.1270 C   0  0  0  0  0  0  0  0  0  0  0  0
   -2.9250   -2.4890   -0.1540 O   0  0  0  0  0  0  0  0  0  0  0  0
   -2.7730   -1.1180   -0.1220 C   0  0  0  0  0  0  0  0  0  0  0  0
   -1.5480   -0.6230   -0.0510 C   0  0  0  0  0  0  0  0  0  0  0  0
   -1.2630    0.8070   -0.0080 C   0  0  0  0  0  0  0  0  0  0  0  0
   -2.2570    1.6830   -0.0890 C   0  0  0  0  0  0  0  0  0  0  0  0
   -2.0220    3.1660   -0.0490 C   0  0  0  0  0  0  0  0  0  0  0  0
   -2.8730    3.9030    1.3250 Cl  0  0  0  0  0  0  0  0  0  0  0  0
    0.1080    1.3500    0.1200 C   0  0  0  0  0  0  0  0  0  0  0  0
    1.1590    0.3630    0.1120 N   0  0  0  0  0  0  0  0  0  0  0  0
    2.5210    0.8630    0.1510 C   0  0  2  0  0  0  0  0  0  0  0  0
    3.5810    0.2660   -0.7320 C   0  0  0  0  0  0  0  0  0  0  0  0
    3.6300    0.1790    0.8080 C   0  0  0  0  0  0  0  0  0  0  0  0
  1  2  2  0
  2  3  1  0
  2 14  1  0
  3  4  2  0
  3  8  1  0
  4  5  1  0
  5  6  1  0
  6  7  1  0
  7  8  2  0
  8  9  1  0
  9 10  2  3
  9 13  1  0
 10 11  1  0
 11 12  1  0
 13 14  1  0
 15 14  1  6
 15 16  1  0
 15 17  1  0
 16 17  1  0
M  END
