
     RDKit          3D

 17 18  0  0  0  0  0  0  0  0999 V2000
    5.4320    0.3210   -0.1510 C   0  0  0  0  0  0  0  0  0  0  0  0
    4.0370    0.6360    0.2970 C   0  0  0  0  0  0  0  0  0  0  0  0
    3.8200    2.2700    1.0270 Cl  0  0  0  0  0  0  0  0  0  0  0  0
    3.0120   -0.1420    0.1940 C   0  0  0  0  0  0  0  0  0  0  0  0
    3.2260   -1.4860   -0.4320 C   0  0  0  0  0  0  0  0  0  0  0  0
    1.6660    0.2170    0.6050 C   0  0  0  0  0  0  0  0  0  0  0  0
    1.2160    1.1490    1.5040 C   0  0  0  0  0  0  0  0  0  0  0  0
   -0.1510    1.1330    1.5160 C   0  0  0  0  0  0  0  0  0  0  0  0
   -0.5610    0.1760    0.6110 C   0  0  0  0  0  0  0  0  0  0  0  0
   -2.0160   -0.0440    0.3840 C   0  0  2  0  0  0  0  0  0  0  0  0
   -2.6820   -0.0160    1.6050 O   0  0  0  0  0  0  0  0  0  0  0  0
   -2.3530   -1.2830   -0.3950 C   0  0  0  0  0  0  0  0  0  0  0  0
   -3.8610   -1.3900   -0.4370 C   0  0  0  0  0  0  0  0  0  0  0  0
   -4.4780   -0.2750    0.0920 O   0  0  0  0  0  0  0  0  0  0  0  0
   -4.0710    0.8710   -0.5710 C   0  0  0  0  0  0  0  0  0  0  0  0
   -2.5930    1.1200   -0.4570 C   0  0  0  0  0  0  0  0  0  0  0  0
    0.5240   -0.3520    0.0850 N   0  0  0  0  0  0  0  0  0  0  0  0
  1  2  1  0
  2  3  1  0
  2  4  2  3
  4  5  1  0
  4  6  1  0
  6  7  2  0
  6 17  1  0
  7  8  1  0
  8  9  2  0
  9 10  1  0
  9 17  1  0
 10 11  1  1
 10 12  1  0
 10 16  1  0
 12 13  1  0
 13 14  1  0
 14 15  1  0
 15 16  1  0
M  END
