
     RDKit          3D

 21 21  0  0  0  0  0  0  0  0999 V2000
    3.6530    2.8160   -0.1380 O   0  0  0  0  0  0  0  0  0  0  0  0
    3.1310    1.7870    0.2260 C   0  0  0  0  0  0  0  0  0  0  0  0
    3.5770    0.4580   -0.2530 C   0  0  0  0  0  0  0  0  0  0  0  0
    2.5280   -0.4050   -0.4150 O   0  0  0  0  0  0  0  0  0  0  0  0
    2.6940   -1.5540    0.2840 N   0  0  0  0  0  0  0  0  0  0  0  0
    2.0840   -2.7830   -0.0870 C   0  0  0  0  0  0  0  0  0  0  0  0
    2.4810   -3.7850    0.5670 O   0  0  0  0  0  0  0  0  0  0  0  0
    1.1490   -2.9530   -1.0470 O   0  0  0  0  0  0  0  0  0  0  0  0
    0.0290   -2.2110   -1.3940 C   0  0  0  0  0  0  0  0  0  0  0  0
   -0.5960   -1.4290   -0.2860 C   0  0  0  0  0  0  0  0  0  0  0  0
   -1.2720   -0.1870   -0.8130 C   0  0  1  0  0  0  0  0  0  0  0  0
   -2.1500    0.4150    0.1810 N   0  0  0  0  0  0  0  0  0  0  0  0
   -3.5500    0.5100   -0.0180 C   0  0  0  0  0  0  0  0  0  0  0  0
   -4.0250    0.0540   -1.0880 O   0  0  0  0  0  0  0  0  0  0  0  0
   -4.4880    1.1110    0.9580 C   0  0  0  0  0  0  0  0  0  0  0  0
   -3.8320    1.5730    2.0950 O   0  0  0  0  0  0  0  0  0  0  0  0
   -0.3470    0.8470   -1.2640 C   0  0  0  0  0  0  0  0  0  0  0  0
   -0.2560    1.0720   -2.4980 O   0  0  0  0  0  0  0  0  0  0  0  0
    0.4370    1.5950   -0.4020 O   0  0  0  0  0  0  0  0  0  0  0  0
    0.9900    1.0600    0.7010 O   0  0  0  0  0  0  0  0  0  0  0  0
    2.0060    1.8640    1.1870 C   0  0  0  0  0  0  0  0  0  0  0  0
  1  2  2  0
  2  3  1  0
  2 21  1  0
  3  4  1  0
  4  5  1  0
  5  6  1  0
  6  7  2  0
  6  8  1  0
  8  9  1  0
  9 10  1  0
 10 11  1  0
 11 12  1  1
 11 17  1  0
 12 13  1  0
 13 14  2  0
 13 15  1  0
 15 16  1  0
 17 18  2  0
 17 19  1  0
 19 20  1  0
 20 21  1  0
M  END
