
     RDKit          3D

 21 21  0  0  0  0  0  0  0  0999 V2000
   -1.7710    3.5470   -0.5260 O   0  0  0  0  0  0  0  0  0  0  0  0
   -2.0910    2.3350   -0.7780 C   0  0  0  0  0  0  0  0  0  0  0  0
   -2.7550    1.6110    0.3360 C   0  0  0  0  0  0  0  0  0  0  0  0
   -2.9590    0.2780    0.0560 O   0  0  0  0  0  0  0  0  0  0  0  0
   -2.8390   -0.4520    1.2360 C   0  0  0  0  0  0  0  0  0  0  0  0
   -1.4600   -1.0850    1.3510 C   0  0  0  0  0  0  0  0  0  0  0  0
   -1.1360   -1.7240    0.1150 N   0  0  0  0  0  0  0  0  0  0  0  0
    0.1730   -2.1640   -0.2620 C   0  0  0  0  0  0  0  0  0  0  0  0
    0.1900   -3.2550   -0.9490 O   0  0  0  0  0  0  0  0  0  0  0  0
    1.3350   -1.5270    0.0510 O   0  0  0  0  0  0  0  0  0  0  0  0
    1.7210   -0.2280   -0.2000 C   0  0  0  0  0  0  0  0  0  0  0  0
    2.9210    0.2530    0.0610 C   0  0  0  0  0  0  0  0  0  0  0  0
    3.9150   -0.6680    0.6620 C   0  0  0  0  0  0  0  0  0  0  0  0
    3.4010   -1.9330    0.8610 O   0  0  0  0  0  0  0  0  0  0  0  0
    4.3120   -2.6980    1.3890 O   0  0  0  0  0  0  0  0  0  0  0  0
    0.7430    0.7070   -0.8000 C   0  0  1  0  0  0  0  0  0  0  0  0
    1.3430    1.7830   -1.4430 O   0  0  0  0  0  0  0  0  0  0  0  0
   -0.1350    0.0030   -1.6580 O   0  0  0  0  0  0  0  0  0  0  0  0
   -1.2040    0.5430   -2.3120 C   0  0  0  0  0  0  0  0  0  0  0  0
   -1.7070   -0.1660   -3.2530 O   0  0  0  0  0  0  0  0  0  0  0  0
   -1.7980    1.8060   -2.0450 N   0  0  0  0  0  0  0  0  0  0  0  0
  1  2  2  0
  2  3  1  0
  2 21  1  0
  3  4  1  0
  4  5  1  0
  5  6  1  0
  6  7  1  0
  7  8  1  0
  8  9  2  0
  8 10  1  0
 10 11  1  0
 11 12  2  3
 11 16  1  0
 12 13  1  0
 13 14  1  0
 14 15  1  0
 16 17  1  6
 16 18  1  0
 18 19  1  0
 19 20  2  0
 19 21  1  0
M  END
