
     RDKit          3D

 10  9  0  0  0  0  0  0  0  0999 V2000
    2.1620    1.8050   -1.4650 O   0  0  0  0  0  0  0  0  0  0  0  0
    1.6000    1.0840   -0.6390 C   0  0  0  0  0  0  0  0  0  0  0  0
    2.4310    0.6260    0.5130 C   0  0  0  0  0  0  0  0  0  0  0  0
    1.7310   -0.1730    1.3850 O   0  0  0  0  0  0  0  0  0  0  0  0
    0.2060    0.7540   -0.8650 C   0  0  0  0  0  0  0  0  0  0  0  0
   -0.1590   -0.0670    0.2210 O   0  0  0  0  0  0  0  0  0  0  0  0
   -1.6270   -0.5430    0.1800 P   0  0  0  0  0  0  0  0  0  0  0  0
   -2.9930   -1.2400    0.1390 O   0  0  0  0  0  0  0  0  0  0  0  0
   -1.2080   -1.3910   -1.1880 O   0  0  0  0  0  0  0  0  0  0  0  0
   -2.2360    0.9610   -0.0220 O   0  0  0  0  0  0  0  0  0  0  0  0
  1  2  2  0
  2  3  1  0
  2  5  1  0
  3  4  1  0
  5  6  1  0
  6  7  1  0
  7  8  1  0
  7  9  1  0
  7 10  1  0
M  END
