
     RDKit          3D

 30 31  0  0  0  0  0  0  0  0999 V2000
   -3.5270    0.0900   -3.8580 C   0  0  0  0  0  0  0  0  0  0  0  0
   -3.1140   -0.7970   -2.7810 O   0  0  0  0  0  0  0  0  0  0  0  0
   -3.3670   -0.3290   -1.5170 N   0  0  0  0  0  0  0  0  0  0  0  0
   -2.4970   -0.3230   -0.6100 C   0  0  0  0  0  0  0  0  0  0  0  0
   -1.1580   -0.7750   -0.6690 N   0  0  0  0  0  0  0  0  0  0  0  0
   -0.3570   -0.3890    0.2410 C   0  0  0  0  0  0  0  0  0  0  0  0
    1.0460   -0.6670    0.4520 C   0  0  0  0  0  0  0  0  0  0  0  0
    1.6140   -1.0990    1.6210 C   0  0  0  0  0  0  0  0  0  0  0  0
    2.9310   -0.9650    1.4640 O   0  0  0  0  0  0  0  0  0  0  0  0
    3.2010   -0.4810    0.2740 C   0  0  0  0  0  0  0  0  0  0  0  0
    4.5430   -0.1670   -0.2350 C   0  0  0  0  0  0  0  0  0  0  0  0
    4.9060   -0.1340   -1.4710 C   0  0  0  0  0  0  0  0  0  0  0  0
    6.3260    0.1830   -1.7340 C   0  0  0  0  0  0  0  0  0  0  0  0
    6.8330    0.3240   -2.8970 N   0  0  0  0  0  0  0  0  0  0  0  0
    7.1800    0.3330   -0.6810 O   0  0  0  0  0  0  0  0  0  0  0  0
    8.4080   -0.0630   -0.5420 O   0  0  0  0  0  0  0  0  0  0  0  0
    8.8230    0.3720    0.6610 O   0  0  0  0  0  0  0  0  0  0  0  0
    5.2760    0.7200    0.7670 C   0  0  0  0  0  0  0  0  0  0  0  0
    6.0480    1.5860    0.3130 O   0  0  0  0  0  0  0  0  0  0  0  0
    5.0490    0.5170    2.1060 O   0  0  0  0  0  0  0  0  0  0  0  0
    2.0500   -0.3090   -0.3420 N   0  0  0  0  0  0  0  0  0  0  0  0
   -0.8670    0.5570    1.2560 N   0  0  0  0  0  0  0  0  0  0  0  0
   -1.9580    1.2760    1.0170 O   0  0  0  0  0  0  0  0  0  0  0  0
   -2.9500    0.3740    0.6640 C   0  0  1  0  0  0  0  0  0  0  0  0
   -4.0310    1.1950    0.3210 O   0  0  0  0  0  0  0  0  0  0  0  0
   -5.2250    0.8510    0.6100 C   0  0  0  0  0  0  0  0  0  0  0  0
   -5.4870    0.5090    2.1010 C   0  0  0  0  0  0  0  0  0  0  0  0
   -6.8220    0.2170    2.0590 O   0  0  0  0  0  0  0  0  0  0  0  0
   -7.2160   -0.9810    2.4000 O   0  0  0  0  0  0  0  0  0  0  0  0
   -8.0420   -1.3030    1.2990 O   0  0  0  0  0  0  0  0  0  0  0  0
  1  2  1  0
  2  3  1  0
  3  4  2  3
  4  5  1  0
  4 24  1  0
  5  6  2  0
  6  7  1  0
  6 22  1  0
  7  8  2  0
  7 21  1  0
  8  9  1  0
  9 10  1  0
 10 11  1  0
 10 21  2  0
 11 12  2  3
 11 18  1  0
 12 13  1  0
 13 14  2  0
 13 15  1  0
 15 16  1  0
 16 17  1  0
 18 19  2  0
 18 20  1  0
 22 23  1  0
 23 24  1  0
 24 25  1  6
 25 26  1  0
 26 27  1  0
 27 28  1  0
 28 29  1  0
 29 30  1  0
M  END
