
     RDKit          3D

 30 33  0  0  0  0  0  0  0  0999 V2000
    1.1790    2.5950    0.4760 C   0  0  0  0  0  0  0  0  0  0  0  0
    1.8070    1.3440    0.1100 N   0  0  0  0  0  0  0  0  0  0  0  0
    1.0990    0.1150   -0.0360 C   0  0  0  0  0  0  0  0  0  0  0  0
    1.6770   -0.9500   -0.3490 O   0  0  0  0  0  0  0  0  0  0  0  0
   -0.2460    0.1000    0.1740 O   0  0  0  0  0  0  0  0  0  0  0  0
   -1.1260   -0.9660    0.0880 C   0  0  2  0  0  0  0  0  0  0  0  0
   -0.7650   -2.0320    0.9840 O   0  0  0  0  0  0  0  0  0  0  0  0
   -0.8010   -3.3590    0.5930 C   0  0  0  0  0  0  0  0  0  0  0  0
   -0.3670   -4.2870    1.3430 O   0  0  0  0  0  0  0  0  0  0  0  0
   -1.3080   -3.7810   -0.6390 O   0  0  0  0  0  0  0  0  0  0  0  0
   -1.9670   -2.7660   -1.4090 C   0  0  0  0  0  0  0  0  0  0  0  0
   -1.0710   -1.5420   -1.3050 C   0  0  1  0  0  0  0  0  0  0  0  0
   -1.4880   -0.5090   -2.2340 N   0  0  0  0  0  0  0  0  0  0  0  0
   -2.7240    0.1380   -1.9640 C   0  0  0  0  0  0  0  0  0  0  0  0
   -3.3120    0.6980   -2.9360 O   0  0  0  0  0  0  0  0  0  0  0  0
   -3.2280    0.1270   -0.6560 N   0  0  0  0  0  0  0  0  0  0  0  0
   -4.5150    0.7250   -0.3850 C   0  0  0  0  0  0  0  0  0  0  0  0
   -4.3310    1.7100    0.7500 C   0  0  0  0  0  0  0  0  0  0  0  0
   -3.7000    1.0790    1.8010 O   0  0  0  0  0  0  0  0  0  0  0  0
   -2.4090    0.6540    1.4890 C   0  0  0  0  0  0  0  0  0  0  0  0
   -2.5090   -0.4570    0.4290 C   0  0  2  0  0  0  0  0  0  0  0  0
    3.2380    1.3830   -0.1100 C   0  0  0  0  0  0  0  0  0  0  0  0
    3.9300    2.1810   -0.9410 N   0  0  0  0  0  0  0  0  0  0  0  0
    5.2090    1.8960   -0.8460 O   0  0  0  0  0  0  0  0  0  0  0  0
    5.3580    0.9430    0.0180 C   0  0  0  0  0  0  0  0  0  0  0  0
    6.6070    0.3930    0.3610 O   0  0  0  0  0  0  0  0  0  0  0  0
    6.6080   -0.5880    1.2690 O   0  0  0  0  0  0  0  0  0  0  0  0
    7.8430   -1.0220    1.3980 O   0  0  0  0  0  0  0  0  0  0  0  0
    8.4310   -0.8560    0.2430 O   0  0  0  0  0  0  0  0  0  0  0  0
    4.1540    0.6030    0.4910 N   0  0  0  0  0  0  0  0  0  0  0  0
  1  2  1  0
  2  3  1  0
  2 22  1  0
  3  4  2  0
  3  5  1  0
  6  5  1  6
  6  7  1  0
  6 12  1  0
  6 21  1  0
  7  8  1  0
  8  9  2  0
  8 10  1  0
 10 11  1  0
 12 11  1  1
 12 13  1  0
 13 14  1  0
 14 15  2  0
 14 16  1  0
 16 17  1  0
 16 21  1  0
 17 18  1  0
 18 19  1  0
 19 20  1  0
 21 20  1  1
 22 23  2  0
 22 30  1  0
 23 24  1  0
 24 25  1  0
 25 26  1  0
 25 30  2  0
 26 27  1  0
 27 28  1  0
 28 29  1  0
M  END
