
     RDKit          3D

 30 31  0  0  0  0  0  0  0  0999 V2000
   -0.7960    5.0540    0.8000 O   0  0  0  0  0  0  0  0  0  0  0  0
    0.4000    5.0580    0.4300 C   0  0  0  0  0  0  0  0  0  0  0  0
    1.0310    6.2950    0.3660 O   0  0  0  0  0  0  0  0  0  0  0  0
    1.0250    3.8380    0.1080 N   0  0  0  0  0  0  0  0  0  0  0  0
    0.3410    2.6020    0.1830 C   0  0  0  0  0  0  0  0  0  0  0  0
    0.8860    1.4060   -0.1070 C   0  0  0  0  0  0  0  0  0  0  0  0
    2.2140    1.4850   -0.4960 O   0  0  0  0  0  0  0  0  0  0  0  0
    3.1810    0.5580   -0.2680 C   0  0  0  0  0  0  0  0  0  0  0  0
    4.6440    0.9090   -0.3280 C   0  0  0  0  0  0  0  0  0  0  0  0
    5.2990   -0.3580   -0.3100 O   0  0  0  0  0  0  0  0  0  0  0  0
    5.1530   -1.4610    0.4580 C   0  0  0  0  0  0  0  0  0  0  0  0
    6.2390   -1.7150    1.1860 O   0  0  0  0  0  0  0  0  0  0  0  0
    4.2410   -2.3770    0.7060 O   0  0  0  0  0  0  0  0  0  0  0  0
    3.3090   -3.2620    0.3260 C   0  0  0  0  0  0  0  0  0  0  0  0
    1.8990   -2.7730    0.6140 C   0  0  0  0  0  0  0  0  0  0  0  0
    0.7830   -3.0950    1.2340 N   0  0  0  0  0  0  0  0  0  0  0  0
   -0.0820   -2.0790    1.1280 O   0  0  0  0  0  0  0  0  0  0  0  0
    0.4780   -1.1100    0.4430 C   0  0  0  0  0  0  0  0  0  0  0  0
    1.6690   -1.5670    0.1480 N   0  0  0  0  0  0  0  0  0  0  0  0
    0.0460    0.2320    0.0140 C   0  0  0  0  0  0  0  0  0  0  0  0
   -1.2490    0.4140   -0.2950 C   0  0  0  0  0  0  0  0  0  0  0  0
   -2.1670   -0.6070   -0.2310 N   0  0  0  0  0  0  0  0  0  0  0  0
   -3.6060   -0.4330   -0.5560 C   0  0  0  0  0  0  0  0  0  0  0  0
   -3.9450    0.6320   -0.8980 O   0  0  0  0  0  0  0  0  0  0  0  0
   -4.2420   -1.6970   -0.3400 N   0  0  0  0  0  0  0  0  0  0  0  0
   -5.8330   -1.1780   -0.8200 C   0  0  0  0  0  0  0  0  0  0  0  0
   -5.9120   -0.0790   -1.1300 O   0  0  0  0  0  0  0  0  0  0  0  0
   -6.7250   -2.1760   -0.7460 O   0  0  0  0  0  0  0  0  0  0  0  0
   -8.0250   -1.9080   -1.1010 O   0  0  0  0  0  0  0  0  0  0  0  0
   -8.5690   -3.1020   -1.3310 O   0  0  0  0  0  0  0  0  0  0  0  0
  1  2  2  0
  2  3  1  0
  2  4  1  0
  4  5  1  0
  5  6  2  3
  6  7  1  0
  6 20  1  0
  7  8  1  0
  8  9  1  0
  9 10  1  0
 10 11  1  0
 11 12  2  0
 11 13  1  0
 13 14  1  0
 14 15  1  0
 15 16  2  0
 15 19  1  0
 16 17  1  0
 17 18  1  0
 18 19  2  0
 18 20  1  0
 20 21  2  3
 21 22  1  0
 22 23  1  0
 23 24  2  0
 23 25  1  0
 25 26  1  0
 26 27  2  0
 26 28  1  0
 28 29  1  0
 29 30  1  0
M  END
