
     RDKit          3D

 30 32  0  0  0  0  0  0  0  0999 V2000
    0.6680    1.9220    0.2030 O   0  0  0  0  0  0  0  0  0  0  0  0
    0.0890    1.3860   -0.8420 C   0  0  0  0  0  0  0  0  0  0  0  0
    0.7370    0.2550   -1.3710 N   0  0  0  0  0  0  0  0  0  0  0  0
    1.9570   -0.1940   -1.8720 C   0  0  0  0  0  0  0  0  0  0  0  0
    2.0290   -0.2890   -3.1710 O   0  0  0  0  0  0  0  0  0  0  0  0
    3.1790   -0.5860   -1.2150 N   0  0  0  0  0  0  0  0  0  0  0  0
    4.4030   -0.0200   -1.6580 C   0  0  0  0  0  0  0  0  0  0  0  0
    4.5320    0.8130   -2.5870 O   0  0  0  0  0  0  0  0  0  0  0  0
    5.6090   -0.3860   -1.0390 O   0  0  0  0  0  0  0  0  0  0  0  0
    6.7870    0.1140   -1.4140 O   0  0  0  0  0  0  0  0  0  0  0  0
    7.7150   -0.5760   -0.7880 O   0  0  0  0  0  0  0  0  0  0  0  0
    7.9050   -0.1180    0.4420 O   0  0  0  0  0  0  0  0  0  0  0  0
    3.2630   -1.5530   -0.1060 C   0  0  0  0  0  0  0  0  0  0  0  0
    2.4680   -1.2020    1.0960 C   0  0  0  0  0  0  0  0  0  0  0  0
    1.4210   -2.0950    1.4630 O   0  0  0  0  0  0  0  0  0  0  0  0
    0.1990   -1.5940    1.9940 C   0  0  0  0  0  0  0  0  0  0  0  0
   -0.5560   -1.7710    3.0830 N   0  0  0  0  0  0  0  0  0  0  0  0
   -1.6490   -0.9540    2.9960 C   0  0  0  0  0  0  0  0  0  0  0  0
   -1.5750   -0.2550    1.8270 N   0  0  0  0  0  0  0  0  0  0  0  0
   -0.4770   -0.6820    1.3030 N   0  0  0  0  0  0  0  0  0  0  0  0
   -2.4410    0.7380    1.2910 C   0  0  0  0  0  0  0  0  0  0  0  0
   -2.8330    1.6500    2.1220 O   0  0  0  0  0  0  0  0  0  0  0  0
   -2.9510    0.8690   -0.0730 C   0  0  2  0  0  0  0  0  0  0  0  0
   -4.4450    1.3210    0.1550 C   0  0  0  0  0  0  0  0  0  0  0  0
   -5.0770    1.4220   -1.0590 O   0  0  0  0  0  0  0  0  0  0  0  0
   -5.2390    0.1290   -1.5560 C   0  0  0  0  0  0  0  0  0  0  0  0
   -3.9720   -0.3370   -1.8870 O   0  0  0  0  0  0  0  0  0  0  0  0
   -3.1320   -0.4400   -0.7990 C   0  0  0  0  0  0  0  0  0  0  0  0
   -2.4010    1.9810   -0.9170 C   0  0  0  0  0  0  0  0  0  0  0  0
   -1.0680    2.0490   -1.2210 O   0  0  0  0  0  0  0  0  0  0  0  0
  1  2  2  0
  2  3  1  0
  2 30  1  0
  3  4  1  0
  4  5  2  0
  4  6  1  0
  6  7  1  0
  6 13  1  0
  7  8  2  0
  7  9  1  0
  9 10  1  0
 10 11  1  0
 11 12  1  0
 13 14  1  0
 14 15  1  0
 15 16  1  0
 16 17  1  0
 16 20  2  0
 17 18  2  0
 18 19  1  0
 19 20  1  0
 19 21  1  0
 21 22  2  0
 21 23  1  0
 23 24  1  1
 23 28  1  0
 23 29  1  0
 24 25  1  0
 25 26  1  0
 26 27  1  0
 27 28  1  0
 29 30  1  0
M  END
