
     RDKit          3D

 31 31  0  0  0  0  0  0  0  0999 V2000
    0.9030    3.3810   -4.8220 N   0  0  0  0  0  0  0  0  0  0  0  0
    1.0280    3.1130   -3.4220 C   0  0  0  0  0  0  0  0  0  0  0  0
    1.8700    3.7250   -2.7560 O   0  0  0  0  0  0  0  0  0  0  0  0
    0.1810    2.1480   -2.8280 N   0  0  0  0  0  0  0  0  0  0  0  0
    0.3230    1.8880   -1.3970 C   0  0  0  0  0  0  0  0  0  0  0  0
    1.1920    2.5480   -0.8120 O   0  0  0  0  0  0  0  0  0  0  0  0
   -0.4990    0.9210   -0.7180 C   0  0  0  0  0  0  0  0  0  0  0  0
   -1.4300    0.4710   -1.5220 O   0  0  0  0  0  0  0  0  0  0  0  0
   -0.4500    0.4400    0.5760 N   0  0  0  0  0  0  0  0  0  0  0  0
   -1.5330   -0.4150    1.0090 C   0  0  0  0  0  0  0  0  0  0  0  0
   -1.3390   -0.8300    2.2310 O   0  0  0  0  0  0  0  0  0  0  0  0
   -2.7190   -0.8850    0.4240 C   0  0  0  0  0  0  0  0  0  0  0  0
   -3.1200   -0.6260   -0.7450 O   0  0  0  0  0  0  0  0  0  0  0  0
   -3.6470   -1.7540    1.1250 N   0  0  0  0  0  0  0  0  0  0  0  0
   -3.4860   -2.1980    2.4800 C   0  0  0  0  0  0  0  0  0  0  0  0
   -2.6910   -3.4560    2.5840 C   0  0  0  0  0  0  0  0  0  0  0  0
   -2.2600   -3.9860    1.5880 O   0  0  0  0  0  0  0  0  0  0  0  0
   -4.7830   -2.1900    0.4000 C   0  0  0  0  0  0  0  0  0  0  0  0
   -5.6380   -2.9470    0.9200 O   0  0  0  0  0  0  0  0  0  0  0  0
   -5.0140   -1.8080   -0.9120 O   0  0  0  0  0  0  0  0  0  0  0  0
    0.5890    0.6950    1.5750 C   0  0  0  0  0  0  0  0  0  0  0  0
    0.3620    0.2270    2.7960 N   0  0  0  0  0  0  0  0  0  0  0  0
    1.4010    0.5210    3.6790 C   0  0  0  0  0  0  0  0  0  0  0  0
    1.4510    0.1850    4.9340 O   0  0  0  0  0  0  0  0  0  0  0  0
    2.3300    1.2120    2.9820 O   0  0  0  0  0  0  0  0  0  0  0  0
    1.9040    1.2580    1.5980 C   0  0  1  0  0  0  0  0  0  0  0  0
    2.9580    0.3390    0.9510 C   0  0  0  0  0  0  0  0  0  0  0  0
    2.8290    0.1360   -0.3740 O   0  0  0  0  0  0  0  0  0  0  0  0
    4.0980   -0.9160   -0.9120 P   0  0  0  0  0  0  0  0  0  0  0  0
    5.1410   -1.3650    0.4130 O   0  0  0  0  0  0  0  0  0  0  0  0
    5.0960   -0.1200   -2.1080 O   0  0  0  0  0  0  0  0  0  0  0  0
  1  2  1  0
  2  3  2  0
  2  4  1  0
  4  5  1  0
  5  6  2  0
  5  7  1  0
  7  8  2  0
  7  9  1  0
  9 10  1  0
  9 21  1  0
 10 11  2  0
 10 12  1  0
 12 13  2  0
 12 14  1  0
 14 15  1  0
 14 18  1  0
 15 16  1  0
 16 17  2  0
 18 19  2  0
 18 20  1  0
 21 22  2  0
 21 26  1  0
 22 23  1  0
 23 24  2  0
 23 25  1  0
 25 26  1  0
 26 27  1  6
 27 28  1  0
 28 29  1  0
 29 30  1  0
 29 31  1  0
M  END
