
     RDKit          3D

 29 32  0  0  0  0  0  0  0  0999 V2000
   -6.2290   -3.7450    0.3720 O   0  0  0  0  0  0  0  0  0  0  0  0
   -4.9720   -3.6480    0.4080 C   0  0  0  0  0  0  0  0  0  0  0  0
   -4.2210   -2.4650    0.7510 N   0  0  0  0  0  0  0  0  0  0  0  0
   -2.9500   -2.6310    0.1010 C   0  0  1  0  0  0  0  0  0  0  0  0
   -2.7200   -4.1220    0.1310 C   0  0  0  0  0  0  0  0  0  0  0  0
   -4.0360   -4.6300    0.1320 O   0  0  0  0  0  0  0  0  0  0  0  0
   -3.0530   -2.2170   -1.2730 O   0  0  0  0  0  0  0  0  0  0  0  0
   -2.3830   -1.0610   -1.3310 N   0  0  0  0  0  0  0  0  0  0  0  0
   -1.7270   -0.8440   -0.2460 C   0  0  0  0  0  0  0  0  0  0  0  0
   -0.8710    0.4020   -0.1130 C   0  0  2  0  0  0  0  0  0  0  0  0
    0.4500   -0.1080   -0.6590 C   0  0  0  0  0  0  0  0  0  0  0  0
    0.6040   -0.1690   -1.8320 O   0  0  0  0  0  0  0  0  0  0  0  0
    1.3780   -0.4530    0.2310 O   0  0  0  0  0  0  0  0  0  0  0  0
    2.6470   -0.9300    0.0560 C   0  0  0  0  0  0  0  0  0  0  0  0
    3.3950   -0.0120   -0.9330 C   0  0  0  0  0  0  0  0  0  0  0  0
    4.6970   -0.5300   -0.8800 O   0  0  0  0  0  0  0  0  0  0  0  0
    5.3340    0.6740   -0.4580 O   0  0  0  0  0  0  0  0  0  0  0  0
    6.0970    0.1080    0.5830 O   0  0  0  0  0  0  0  0  0  0  0  0
    7.2550   -0.0840   -0.0640 O   0  0  0  0  0  0  0  0  0  0  0  0
    7.3810   -1.3620   -0.2290 O   0  0  0  0  0  0  0  0  0  0  0  0
   -0.7020    0.7300    1.2200 O   0  0  0  0  0  0  0  0  0  0  0  0
   -0.2480    2.0730    1.1020 C   0  0  0  0  0  0  0  0  0  0  0  0
   -1.1960    2.5920    0.0470 C   0  0  2  0  0  0  0  0  0  0  0  0
   -0.6140    3.6960   -0.8080 C   0  0  0  0  0  0  0  0  0  0  0  0
   -1.3940    4.7880   -0.4560 O   0  0  0  0  0  0  0  0  0  0  0  0
   -1.9900    4.4570    0.7590 C   0  0  0  0  0  0  0  0  0  0  0  0
   -2.3560    3.1000    0.5790 O   0  0  0  0  0  0  0  0  0  0  0  0
   -1.3590    1.4730   -0.7640 O   0  0  0  0  0  0  0  0  0  0  0  0
   -1.9330   -1.8600    0.6630 O   0  0  0  0  0  0  0  0  0  0  0  0
  1  2  2  0
  2  3  1  0
  2  6  1  0
  3  4  1  0
  4  5  1  6
  4  7  1  0
  4 29  1  0
  5  6  1  0
  7  8  1  0
  8  9  2  0
  9 10  1  0
  9 29  1  0
 10 11  1  6
 10 21  1  0
 10 28  1  0
 11 12  2  0
 11 13  1  0
 13 14  1  0
 14 15  1  0
 15 16  1  0
 16 17  1  0
 17 18  1  0
 18 19  1  0
 19 20  1  0
 21 22  1  0
 23 22  1  1
 23 24  1  0
 23 27  1  0
 23 28  1  0
 24 25  1  0
 25 26  1  0
 26 27  1  0
M  END
