
     RDKit          3D

 28 29  0  0  0  0  0  0  0  0999 V2000
   -3.1600    3.9400   -0.6050 O   0  0  0  0  0  0  0  0  0  0  0  0
   -2.8910    2.7930   -0.1380 C   0  0  0  0  0  0  0  0  0  0  0  0
   -3.7800    2.0400    0.6080 N   0  0  0  0  0  0  0  0  0  0  0  0
   -4.4230    0.9740    0.3190 C   0  0  0  0  0  0  0  0  0  0  0  0
   -5.3150    0.4210    1.3950 C   0  0  2  0  0  0  0  0  0  0  0  0
   -5.0120   -0.9600    1.8620 C   0  0  0  0  0  0  0  0  0  0  0  0
   -6.1640   -1.3960    1.1730 O   0  0  0  0  0  0  0  0  0  0  0  0
   -6.6410   -0.0980    0.9310 C   0  0  0  0  0  0  0  0  0  0  0  0
   -4.3860    0.2760   -0.9140 N   0  0  0  0  0  0  0  0  0  0  0  0
   -3.2160   -0.0130   -1.6700 C   0  0  0  0  0  0  0  0  0  0  0  0
   -3.2090    0.3500   -2.9050 O   0  0  0  0  0  0  0  0  0  0  0  0
   -2.1090   -0.6590   -1.1290 O   0  0  0  0  0  0  0  0  0  0  0  0
   -1.8120   -0.7560    0.1510 O   0  0  0  0  0  0  0  0  0  0  0  0
   -0.4430   -0.8640    0.3850 C   0  0  0  0  0  0  0  0  0  0  0  0
    0.3100   -0.2740   -0.6130 O   0  0  0  0  0  0  0  0  0  0  0  0
    1.1160    0.7040   -0.0330 C   0  0  1  0  0  0  0  0  0  0  0  0
    1.5830    0.1900    1.1760 O   0  0  0  0  0  0  0  0  0  0  0  0
    2.2270    0.9900   -0.8260 O   0  0  0  0  0  0  0  0  0  0  0  0
    2.9710   -0.1940   -0.9750 C   0  0  0  0  0  0  0  0  0  0  0  0
    4.1890    0.0720   -1.8380 C   0  0  0  0  0  0  0  0  0  0  0  0
    4.9570   -1.0390   -2.0220 O   0  0  0  0  0  0  0  0  0  0  0  0
    5.4970   -1.6360   -0.9290 C   0  0  0  0  0  0  0  0  0  0  0  0
    6.4410   -0.8080   -0.1080 C   0  0  0  0  0  0  0  0  0  0  0  0
    5.8690    0.3400    0.4130 O   0  0  0  0  0  0  0  0  0  0  0  0
    6.8010    0.9650    1.1040 O   0  0  0  0  0  0  0  0  0  0  0  0
    0.3930    1.8810    0.1760 O   0  0  0  0  0  0  0  0  0  0  0  0
   -0.8550    1.6670    0.4910 O   0  0  0  0  0  0  0  0  0  0  0  0
   -1.6220    2.2980   -0.4130 O   0  0  0  0  0  0  0  0  0  0  0  0
  1  2  2  0
  2  3  1  0
  2 28  1  0
  3  4  2  0
  5  4  1  6
  4  9  1  0
  5  6  1  0
  5  8  1  0
  6  7  1  0
  7  8  1  0
  9 10  1  0
 10 11  2  0
 10 12  1  0
 12 13  1  0
 13 14  1  0
 14 15  1  0
 15 16  1  0
 16 17  1  1
 16 18  1  0
 16 26  1  0
 18 19  1  0
 19 20  1  0
 20 21  1  0
 21 22  1  0
 22 23  1  0
 23 24  1  0
 24 25  1  0
 26 27  1  0
 27 28  1  0
M  END
