
     RDKit          3D

 28 28  0  0  0  0  0  0  0  0999 V2000
   -5.9380    2.3100   -1.1600 O   0  0  0  0  0  0  0  0  0  0  0  0
   -5.4010    2.2800   -0.0250 C   0  0  0  0  0  0  0  0  0  0  0  0
   -6.0550    2.9400    1.0080 O   0  0  0  0  0  0  0  0  0  0  0  0
   -4.2010    1.6100    0.1650 O   0  0  0  0  0  0  0  0  0  0  0  0
   -3.6230    0.9730   -0.9560 C   0  0  0  0  0  0  0  0  0  0  0  0
   -2.3160    0.2860   -0.5860 C   0  0  2  0  0  0  0  0  0  0  0  0
   -2.5370   -0.7660    0.4760 C   0  0  0  0  0  0  0  0  0  0  0  0
   -1.5960   -1.7610    0.3290 O   0  0  0  0  0  0  0  0  0  0  0  0
   -0.7800   -1.9210    1.4240 C   0  0  0  0  0  0  0  0  0  0  0  0
    0.3900   -2.7890    1.0600 C   0  0  0  0  0  0  0  0  0  0  0  0
    0.4400   -2.9220   -0.3770 N   0  0  0  0  0  0  0  0  0  0  0  0
    1.2220   -2.0980   -1.2290 C   0  0  0  0  0  0  0  0  0  0  0  0
    1.7560   -2.6350   -2.2350 O   0  0  0  0  0  0  0  0  0  0  0  0
    1.4340   -0.6380   -0.9820 C   0  0  1  0  0  0  0  0  0  0  0  0
    2.8110   -0.4300   -1.0500 O   0  0  0  0  0  0  0  0  0  0  0  0
    3.2860    0.0480    0.0950 O   0  0  0  0  0  0  0  0  0  0  0  0
    4.6350    0.1680    0.3350 C   0  0  0  0  0  0  0  0  0  0  0  0
    5.4340   -0.1910   -0.5690 O   0  0  0  0  0  0  0  0  0  0  0  0
    5.1920    0.6580    1.5080 O   0  0  0  0  0  0  0  0  0  0  0  0
    6.5790    0.7540    1.6890 C   0  0  0  0  0  0  0  0  0  0  0  0
    7.2980    0.3710    0.7280 O   0  0  0  0  0  0  0  0  0  0  0  0
    7.1090    1.2470    2.8690 O   0  0  0  0  0  0  0  0  0  0  0  0
    0.7470    0.0500   -2.0090 O   0  0  0  0  0  0  0  0  0  0  0  0
    0.3460    1.3700   -1.9300 C   0  0  0  0  0  0  0  0  0  0  0  0
    0.5970    2.1840   -2.8910 O   0  0  0  0  0  0  0  0  0  0  0  0
   -0.3520    1.9190   -0.8230 N   0  0  0  0  0  0  0  0  0  0  0  0
   -1.3280    1.2650   -0.0630 C   0  0  0  0  0  0  0  0  0  0  0  0
   -1.3990    1.5070    1.1710 O   0  0  0  0  0  0  0  0  0  0  0  0
  1  2  2  0
  2  3  1  0
  2  4  1  0
  4  5  1  0
  6  5  1  1
  6  7  1  0
  6 27  1  0
  7  8  1  0
  8  9  1  0
  9 10  1  0
 10 11  1  0
 11 12  1  0
 12 13  2  0
 12 14  1  0
 14 15  1  6
 14 23  1  0
 15 16  1  0
 16 17  1  0
 17 18  2  0
 17 19  1  0
 19 20  1  0
 20 21  2  0
 20 22  1  0
 23 24  1  0
 24 25  2  0
 24 26  1  0
 26 27  1  0
 27 28  2  0
M  END
