
     RDKit          3D

 28 29  0  0  0  0  0  0  0  0999 V2000
    1.5340   -2.0170   -0.1120 O   0  0  0  0  0  0  0  0  0  0  0  0
    2.2330   -0.9800    0.0230 C   0  0  0  0  0  0  0  0  0  0  0  0
    3.6340   -0.9470    0.4360 C   0  0  0  0  0  0  0  0  0  0  0  0
    4.2360    0.0630   -0.6000 C   0  0  0  0  0  0  0  0  0  0  0  0
    5.5770    0.2630   -0.2540 N   0  0  0  0  0  0  0  0  0  0  0  0
    6.0170    1.2230    0.6660 O   0  0  0  0  0  0  0  0  0  0  0  0
    6.7340    0.4170    1.4790 O   0  0  0  0  0  0  0  0  0  0  0  0
    7.7000   -0.0920    0.5500 C   0  0  0  0  0  0  0  0  0  0  0  0
    6.7850   -0.3820   -0.6330 C   0  0  0  0  0  0  0  0  0  0  0  0
    6.9720   -1.0020   -1.6650 O   0  0  0  0  0  0  0  0  0  0  0  0
    1.6410    0.3050   -0.2420 O   0  0  0  0  0  0  0  0  0  0  0  0
    0.2740    0.1920   -0.6900 C   0  0  0  0  0  0  0  0  0  0  0  0
   -0.3870   -0.5410    0.3660 O   0  0  0  0  0  0  0  0  0  0  0  0
   -1.6260   -0.8770    0.1620 N   0  0  0  0  0  0  0  0  0  0  0  0
   -2.7370   -0.3830    0.3900 C   0  0  0  0  0  0  0  0  0  0  0  0
   -4.0300   -1.1070    0.0100 C   0  0  1  0  0  0  0  0  0  0  0  0
   -3.8670   -2.3470   -0.7660 C   0  0  0  0  0  0  0  0  0  0  0  0
   -5.2090   -2.7910   -0.9140 O   0  0  0  0  0  0  0  0  0  0  0  0
   -5.4600   -2.8020   -2.2490 O   0  0  0  0  0  0  0  0  0  0  0  0
   -4.7600   -0.9600    1.2200 C   0  0  0  0  0  0  0  0  0  0  0  0
   -5.6290   -1.6640    1.7720 O   0  0  0  0  0  0  0  0  0  0  0  0
   -4.3560    0.2490    1.8470 O   0  0  0  0  0  0  0  0  0  0  0  0
   -3.2510    0.8290    1.0390 C   0  0  2  0  0  0  0  0  0  0  0  0
   -3.8510    1.6860    0.0960 O   0  0  0  0  0  0  0  0  0  0  0  0
   -3.8190    3.0850    0.3060 C   0  0  0  0  0  0  0  0  0  0  0  0
   -3.2640    3.4090    1.3700 O   0  0  0  0  0  0  0  0  0  0  0  0
   -4.3750    3.9460   -0.6190 O   0  0  0  0  0  0  0  0  0  0  0  0
   -4.3250    5.3150   -0.3900 O   0  0  0  0  0  0  0  0  0  0  0  0
  1  2  2  0
  2  3  1  0
  2 11  1  0
  3  4  1  0
  4  5  1  0
  5  6  1  0
  5  9  1  0
  6  7  1  0
  7  8  1  0
  8  9  1  0
  9 10  2  0
 11 12  1  0
 12 13  1  0
 13 14  1  0
 14 15  2  3
 15 16  1  0
 15 23  1  0
 16 17  1  1
 16 20  1  0
 17 18  1  0
 18 19  1  0
 20 21  2  0
 20 22  1  0
 22 23  1  0
 23 24  1  6
 24 25  1  0
 25 26  2  0
 25 27  1  0
 27 28  1  0
M  END
