
     RDKit          3D

 31 33  0  0  0  0  0  0  0  0999 V2000
   -4.8320    3.1290    2.1060 C   0  0  0  0  0  0  0  0  0  0  0  0
   -4.3870    2.6290    0.7490 C   0  0  1  0  0  0  0  0  0  0  0  0
   -3.0640    1.9900    0.8050 C   0  0  0  0  0  0  0  0  0  0  0  0
   -2.0130    2.5940    1.1150 O   0  0  0  0  0  0  0  0  0  0  0  0
   -3.2270    0.6180    0.4510 N   0  0  0  0  0  0  0  0  0  0  0  0
   -2.4700   -0.6430    0.2710 C   0  0  0  0  0  0  0  0  0  0  0  0
   -1.0930   -0.7120    0.7260 C   0  0  0  0  0  0  0  0  0  0  0  0
   -0.4650    0.4380    0.7950 O   0  0  0  0  0  0  0  0  0  0  0  0
   -0.2790   -1.7610    1.1290 N   0  0  0  0  0  0  0  0  0  0  0  0
    1.1200   -1.6680    1.5220 C   0  0  0  0  0  0  0  0  0  0  0  0
    2.0720   -1.2200    0.4870 C   0  0  0  0  0  0  0  0  0  0  0  0
    1.8330    0.0170   -0.0160 O   0  0  0  0  0  0  0  0  0  0  0  0
    2.9210    0.5510   -1.2110 P   0  0  0  0  0  0  0  0  0  0  0  0
    2.7050   -0.2370   -2.7350 O   0  0  0  0  0  0  0  0  0  0  0  0
    4.6870    0.5310   -0.6630 C   0  0  1  0  0  0  0  0  0  0  0  0
    5.6410    0.4930   -1.8370 C   0  0  0  0  0  0  0  0  0  0  0  0
    7.0170    0.8550   -1.2810 C   0  0  0  0  0  0  0  0  0  0  0  0
    7.0200    0.6900    0.2340 C   0  0  0  0  0  0  0  0  0  0  0  0
    6.1550    1.5690    0.8530 O   0  0  0  0  0  0  0  0  0  0  0  0
    4.9900    1.7940    0.1180 C   0  0  0  0  0  0  0  0  0  0  0  0
   -3.3660   -1.5300   -0.0850 C   0  0  0  0  0  0  0  0  0  0  0  0
   -3.1340   -2.9360   -0.4120 C   0  0  0  0  0  0  0  0  0  0  0  0
   -1.8640   -3.5310   -0.5090 N   0  0  0  0  0  0  0  0  0  0  0  0
   -4.1020   -3.7330   -0.6330 O   0  0  0  0  0  0  0  0  0  0  0  0
   -4.6950   -0.9930   -0.1680 N   0  0  0  0  0  0  0  0  0  0  0  0
   -5.9410   -1.5740   -0.5150 C   0  0  0  0  0  0  0  0  0  0  0  0
   -6.9910   -0.8350   -0.4930 O   0  0  0  0  0  0  0  0  0  0  0  0
   -6.2100   -2.8660   -0.8910 O   0  0  0  0  0  0  0  0  0  0  0  0
   -4.5730    0.3990    0.1850 C   0  0  0  0  0  0  0  0  0  0  0  0
   -5.2780    1.5280    0.3430 C   0  0  0  0  0  0  0  0  0  0  0  0
   -6.6410    1.6640    0.1580 O   0  0  0  0  0  0  0  0  0  0  0  0
  2  1  1  1
  2  3  1  0
  2 30  1  0
  3  4  2  0
  3  5  1  0
  5  6  1  0
  5 29  1  0
  6  7  1  0
  6 21  2  0
  7  8  2  0
  7  9  1  0
  9 10  1  0
 10 11  1  0
 11 12  1  0
 12 13  1  0
 13 14  1  0
 15 13  1  6
 15 16  1  0
 15 20  1  0
 16 17  1  0
 17 18  1  0
 18 19  1  0
 19 20  1  0
 21 22  1  0
 21 25  1  0
 22 23  1  0
 22 24  2  0
 25 26  1  0
 25 29  1  0
 26 27  2  0
 26 28  1  0
 29 30  2  0
 30 31  1  0
M  END
