
     RDKit          3D

 31 33  0  0  0  0  0  0  0  0999 V2000
   -5.3120   -5.5200   -0.3210 O   0  0  0  0  0  0  0  0  0  0  0  0
   -4.3210   -4.7780   -0.4450 C   0  0  0  0  0  0  0  0  0  0  0  0
   -4.4140   -3.3700   -0.1490 C   0  0  0  0  0  0  0  0  0  0  0  0
   -3.3760   -2.5260   -0.2660 C   0  0  0  0  0  0  0  0  0  0  0  0
   -3.5820   -1.1410    0.0560 C   0  0  0  0  0  0  0  0  0  0  0  0
   -2.7680   -0.1340    0.0250 C   0  0  0  0  0  0  0  0  0  0  0  0
   -3.1220    1.2770    0.3980 C   0  0  0  0  0  0  0  0  0  0  0  0
   -4.3100    1.8340    0.2860 C   0  0  0  0  0  0  0  0  0  0  0  0
   -4.5720    3.2110    0.6700 C   0  0  0  0  0  0  0  0  0  0  0  0
   -5.7080    3.8020    0.5820 N   0  0  0  0  0  0  0  0  0  0  0  0
   -5.6120    5.0810    1.0220 O   0  0  0  0  0  0  0  0  0  0  0  0
   -4.2510    5.4170    1.2340 C   0  0  0  0  0  0  0  0  0  0  0  0
   -3.6610    4.1180    1.1910 O   0  0  0  0  0  0  0  0  0  0  0  0
   -1.9160    1.8720    0.9080 N   0  0  0  0  0  0  0  0  0  0  0  0
   -0.9160    0.8520    0.8330 C   0  0  0  0  0  0  0  0  0  0  0  0
    0.0850    0.6490    1.5200 O   0  0  0  0  0  0  0  0  0  0  0  0
   -1.3720    0.0190   -0.3380 C   0  0  1  0  0  0  0  0  0  0  0  0
   -0.5320   -1.1080   -0.6960 C   0  0  0  0  0  0  0  0  0  0  0  0
    0.6330   -0.4460   -1.3470 N   0  0  0  0  0  0  0  0  0  0  0  0
    1.8450   -1.1220   -1.6420 C   0  0  0  0  0  0  0  0  0  0  0  0
    2.8840   -1.0630   -0.6210 C   0  0  0  0  0  0  0  0  0  0  0  0
    2.7120   -0.4490    0.4470 O   0  0  0  0  0  0  0  0  0  0  0  0
    4.1050   -1.7210   -0.8650 N   0  0  0  0  0  0  0  0  0  0  0  0
    5.1800   -1.7080    0.0840 C   0  0  0  0  0  0  0  0  0  0  0  0
    5.6390   -0.3090    0.3160 C   0  0  0  0  0  0  0  0  0  0  0  0
    7.0430   -0.2250    1.5350 P   0  0  0  0  0  0  0  0  0  0  0  0
    8.4810   -0.7400    0.6900 O   0  0  0  0  0  0  0  0  0  0  0  0
    7.2670    1.4480    1.9500 O   0  0  0  0  0  0  0  0  0  0  0  0
    0.2180    0.9050   -1.5960 C   0  0  0  0  0  0  0  0  0  0  0  0
    0.9970    1.8500   -1.8780 O   0  0  0  0  0  0  0  0  0  0  0  0
   -1.1870    0.9070   -1.4550 O   0  0  0  0  0  0  0  0  0  0  0  0
  1  2  2  0
  2  3  1  0
  3  4  2  3
  4  5  1  0
  5  6  2  3
  6  7  1  0
  6 17  1  0
  7  8  2  3
  7 14  1  0
  8  9  1  0
  9 10  2  0
  9 13  1  0
 10 11  1  0
 11 12  1  0
 12 13  1  0
 14 15  1  0
 15 16  2  0
 15 17  1  0
 17 18  1  6
 17 31  1  0
 18 19  1  0
 19 20  1  0
 19 29  1  0
 20 21  1  0
 21 22  2  0
 21 23  1  0
 23 24  1  0
 24 25  1  0
 25 26  1  0
 26 27  1  0
 26 28  1  0
 29 30  2  0
 29 31  1  0
M  END
