
     RDKit          3D

 30 32  0  0  0  0  0  0  0  0999 V2000
   -5.5370    1.9170   -1.4600 O   0  0  0  0  0  0  0  0  0  0  0  0
   -4.9980    1.7290   -0.3550 C   0  0  0  0  0  0  0  0  0  0  0  0
   -5.6330    2.1490    0.8120 O   0  0  0  0  0  0  0  0  0  0  0  0
   -3.7300    1.0870   -0.1950 N   0  0  0  0  0  0  0  0  0  0  0  0
   -2.6890    1.8320   -0.1910 C   0  0  0  0  0  0  0  0  0  0  0  0
   -2.7080    3.1920   -0.3300 O   0  0  0  0  0  0  0  0  0  0  0  0
   -1.6350    3.9940   -0.7050 C   0  0  0  0  0  0  0  0  0  0  0  0
   -0.4190    3.1870   -1.0070 C   0  0  0  0  0  0  0  0  0  0  0  0
   -0.2960    2.0930   -0.0340 N   0  0  0  0  0  0  0  0  0  0  0  0
   -1.3550    1.1480   -0.0200 C   0  0  0  0  0  0  0  0  0  0  0  0
   -1.2710   -0.1200    0.1410 C   0  0  0  0  0  0  0  0  0  0  0  0
   -0.1720   -1.0110    0.3190 C   0  0  0  0  0  0  0  0  0  0  0  0
   -0.5310   -2.2930    0.4850 N   0  0  0  0  0  0  0  0  0  0  0  0
   -1.6070   -2.9420    0.5290 O   0  0  0  0  0  0  0  0  0  0  0  0
   -2.8120   -3.1070    1.1570 C   0  0  0  0  0  0  0  0  0  0  0  0
   -3.5400   -4.2850    0.4890 C   0  0  1  0  0  0  0  0  0  0  0  0
   -4.8780   -4.7050    0.9570 C   0  0  0  0  0  0  0  0  0  0  0  0
   -4.7040   -3.9670   -0.3530 C   0  0  0  0  0  0  0  0  0  0  0  0
    1.2800   -0.7930    0.3250 C   0  0  1  0  0  0  0  0  0  0  0  0
    1.7760   -0.2070   -0.9490 C   0  0  0  0  0  0  0  0  0  0  0  0
    3.0250   -0.7210   -1.3210 O   0  0  0  0  0  0  0  0  0  0  0  0
    3.9340   -0.8620   -0.3240 C   0  0  0  0  0  0  0  0  0  0  0  0
    4.1840    0.3000    0.5760 C   0  0  1  0  0  0  0  0  0  0  0  0
    4.7090    1.5280   -0.1170 C   0  0  0  0  0  0  0  0  0  0  0  0
    6.3280    1.0430   -0.9120 P   0  0  0  0  0  0  0  0  0  0  0  0
    6.2960    1.1280   -2.6210 O   0  0  0  0  0  0  0  0  0  0  0  0
    7.6370    1.9210   -0.1890 O   0  0  0  0  0  0  0  0  0  0  0  0
    3.0580    0.5950    1.5070 C   0  0  0  0  0  0  0  0  0  0  0  0
    3.2920    1.4300    2.3920 O   0  0  0  0  0  0  0  0  0  0  0  0
    1.7410   -0.0170    1.4440 N   0  0  0  0  0  0  0  0  0  0  0  0
  1  2  2  0
  2  3  1  0
  2  4  1  0
  4  5  2  3
  5  6  1  0
  5 10  1  0
  6  7  1  0
  7  8  1  0
  8  9  1  0
  9 10  1  0
 10 11  2  3
 11 12  1  0
 12 13  2  3
 19 12  1  6
 13 14  1  0
 14 15  1  0
 16 15  1  1
 16 17  1  0
 16 18  1  0
 17 18  1  0
 19 20  1  0
 19 30  1  0
 20 21  1  0
 21 22  1  0
 22 23  1  0
 23 24  1  6
 23 28  1  0
 24 25  1  0
 25 26  1  0
 25 27  1  0
 28 29  2  0
 28 30  1  0
M  END
