
     RDKit          3D

 19 20  0  0  0  0  0  0  0  0999 V2000
   -4.6690   -0.1260    0.0920 N   0  0  0  0  0  0  0  0  0  0  0  0
   -3.7910    0.1620   -0.9680 C   0  0  0  0  0  0  0  0  0  0  0  0
   -4.2080    0.0180   -2.1440 O   0  0  0  0  0  0  0  0  0  0  0  0
   -2.4050    0.6250   -0.6770 C   0  0  2  0  0  0  0  0  0  0  0  0
   -1.4140   -0.2840   -1.3770 C   0  0  0  0  0  0  0  0  0  0  0  0
   -0.0660    0.0360   -0.8420 C   0  0  0  0  0  0  0  0  0  0  0  0
    0.0260    0.0800    0.4690 C   0  0  0  0  0  0  0  0  0  0  0  0
    1.2060    0.3620    1.1090 O   0  0  0  0  0  0  0  0  0  0  0  0
    2.3900    0.0090    0.4890 C   0  0  0  0  0  0  0  0  0  0  0  0
    2.9200   -1.2370    0.7370 C   0  0  0  0  0  0  0  0  0  0  0  0
    2.2630   -2.1190    1.6010 O   0  0  0  0  0  0  0  0  0  0  0  0
    4.0650   -1.5760    0.1370 N   0  0  0  0  0  0  0  0  0  0  0  0
    4.6950   -0.7380   -0.6880 N   0  0  0  0  0  0  0  0  0  0  0  0
    4.2130    0.4690   -0.9490 C   0  0  0  0  0  0  0  0  0  0  0  0
    4.8290    1.2570   -1.7410 O   0  0  0  0  0  0  0  0  0  0  0  0
    3.0380    0.8740   -0.3610 C   0  0  0  0  0  0  0  0  0  0  0  0
    2.5200    2.1400   -0.6250 O   0  0  0  0  0  0  0  0  0  0  0  0
   -1.1930   -0.1870    1.2590 C   0  0  0  0  0  0  0  0  0  0  0  0
   -2.2210    0.6920    0.7340 N   0  0  0  0  0  0  0  0  0  0  0  0
  1  2  1  0
  2  3  2  0
  4  2  1  1
  4  5  1  0
  4 19  1  0
  5  6  1  0
  6  7  2  0
  7  8  1  0
  7 18  1  0
  8  9  1  0
  9 10  1  0
  9 16  2  0
 10 11  1  0
 10 12  2  0
 12 13  1  0
 13 14  1  0
 14 15  2  0
 14 16  1  0
 16 17  1  0
 18 19  1  0
M  CHG  1  19   1
M  END
