
     RDKit          3D

 19 20  0  0  0  0  0  0  0  0999 V2000
    0.8000    0.8720   -1.3170 C   0  0  0  0  0  0  0  0  0  0  0  0
    1.6640   -0.0240   -0.4570 C   0  0  1  0  0  0  0  0  0  0  0  0
    3.0720    0.0980   -1.0400 C   0  0  0  0  0  0  0  0  0  0  0  0
    4.0740   -0.6630   -0.3900 N   0  0  0  0  0  0  0  0  0  0  0  0
    1.5420   -0.1290    0.9720 C   0  0  1  0  0  0  0  0  0  0  0  0
    0.4530    0.1270    1.8930 C   0  0  0  0  0  0  0  0  0  0  0  0
    0.6900   -0.2720    3.1180 O   0  0  0  0  0  0  0  0  0  0  0  0
   -0.7990    0.7110    1.7500 N   0  0  0  0  0  0  0  0  0  0  0  0
   -1.1960    2.0310    1.3170 C   0  0  0  0  0  0  0  0  0  0  0  0
   -2.5000    1.9480    0.4980 C   0  0  0  0  0  0  0  0  0  0  0  0
   -3.1470    0.8450    0.9490 O   0  0  0  0  0  0  0  0  0  0  0  0
   -3.4620   -0.1640    0.1170 C   0  0  0  0  0  0  0  0  0  0  0  0
   -2.6700   -0.3490   -1.0700 N   0  0  0  0  0  0  0  0  0  0  0  0
   -1.8610   -1.4800   -1.3770 C   0  0  0  0  0  0  0  0  0  0  0  0
   -1.8250   -1.8470   -2.6230 O   0  0  0  0  0  0  0  0  0  0  0  0
   -1.0860   -2.2630   -0.4970 N   0  0  0  0  0  0  0  0  0  0  0  0
   -0.0010   -1.9060    0.3410 C   0  0  0  0  0  0  0  0  0  0  0  0
   -0.1850   -2.1360    1.5750 O   0  0  0  0  0  0  0  0  0  0  0  0
    1.2920   -1.3210    0.0210 C   0  0  1  0  0  0  0  0  0  0  0  0
  2  1  1  6
  2  3  1  0
  2  5  1  0
  2 19  1  0
  3  4  1  0
  5  6  1  6
  5 19  1  0
  6  7  2  0
  6  8  1  0
  8  9  1  0
  9 10  1  0
 10 11  1  0
 11 12  1  0
 12 13  1  0
 13 14  1  0
 14 15  2  0
 14 16  1  0
 16 17  1  0
 17 18  2  0
 19 17  1  6
M  CHG  1   4   1
M  END
