
     RDKit          3D

 12 12  0  0  0  0  0  0  0  0999 V2000
   -2.4210    0.0520   -1.3630 O   0  0  0  0  0  0  0  0  0  0  0  0
   -2.7470    0.0120   -0.1620 C   0  0  0  0  0  0  0  0  0  0  0  0
   -4.0860   -0.0860    0.1670 O   0  0  0  0  0  0  0  0  0  0  0  0
   -1.7680    0.0660    0.9450 C   0  0  0  0  0  0  0  0  0  0  0  0
   -0.3720    0.1700    0.4510 C   0  0  0  0  0  0  0  0  0  0  0  0
    0.2260    1.4010    0.2280 C   0  0  0  0  0  0  0  0  0  0  0  0
    1.5250    1.5050   -0.2320 C   0  0  0  0  0  0  0  0  0  0  0  0
    2.2780    0.3870   -0.4860 C   0  0  0  0  0  0  0  0  0  0  0  0
    3.5930    0.4720   -0.9520 O   0  0  0  0  0  0  0  0  0  0  0  0
    1.7080   -0.8490   -0.2730 C   0  0  0  0  0  0  0  0  0  0  0  0
    2.4910   -1.9660   -0.5380 O   0  0  0  0  0  0  0  0  0  0  0  0
    0.4070   -0.9410    0.1870 C   0  0  0  0  0  0  0  0  0  0  0  0
  1  2  2  0
  2  3  1  0
  2  4  1  0
  4  5  1  0
  5  6  2  0
  5 12  1  0
  6  7  1  0
  7  8  2  0
  8  9  1  0
  8 10  1  0
 10 11  1  0
 10 12  2  0
M  END
