
     RDKit          3D

 16 17  0  0  0  0  0  0  0  0999 V2000
   -4.3870    2.4080    0.2400 O   0  0  0  0  0  0  0  0  0  0  0  0
   -4.0120    1.0900    0.8060 S   0  0  1  0  0  0  0  0  0  0  0  0
   -4.4960    0.9010    2.2080 O   0  0  0  0  0  0  0  0  0  0  0  0
   -4.5050   -0.2670   -0.2520 C   0  0  0  0  0  0  0  0  0  0  0  0
   -3.2200   -1.0420   -0.3610 C   0  0  0  0  0  0  0  0  0  0  0  0
   -2.0880   -0.0870   -0.3970 C   0  0  2  0  0  0  0  0  0  0  0  0
   -1.9710    0.5520   -1.6310 O   0  0  0  0  0  0  0  0  0  0  0  0
   -0.8010   -0.8600   -0.1820 C   0  0  0  0  0  0  0  0  0  0  0  0
    0.3950    0.0340   -0.2040 C   0  0  0  0  0  0  0  0  0  0  0  0
    1.5800   -0.7690    0.0070 N   0  0  0  0  0  0  0  0  0  0  0  0
    2.8880   -0.2110    0.0400 C   0  0  0  0  0  0  0  0  0  0  0  0
    3.2610    0.8570    0.7140 C   0  0  0  0  0  0  0  0  0  0  0  0
    4.7250    1.1170    0.4860 C   0  0  0  0  0  0  0  0  0  0  0  0
    5.2290   -0.1680    0.0290 N   0  0  0  0  0  0  0  0  0  0  0  0
    4.0910   -0.7080   -0.6700 C   0  0  0  0  0  0  0  0  0  0  0  0
   -2.2290    0.8820    0.7380 C   0  0  0  0  0  0  0  0  0  0  0  0
  1  2  2  0
  2  3  2  0
  2  4  1  6
  2 16  1  0
  4  5  1  0
  5  6  1  0
  6  7  1  6
  6  8  1  0
  6 16  1  0
  8  9  1  0
  9 10  1  0
 10 11  1  0
 11 12  2  0
 11 15  1  0
 12 13  1  0
 13 14  1  0
 14 15  1  0
M  END
