
     RDKit          3D

 16 17  0  0  0  0  0  0  0  0999 V2000
    6.2660    0.1430   -0.2110 N   0  0  0  0  0  0  0  0  0  0  0  0
    4.9670    0.6660   -0.0170 C   0  0  0  0  0  0  0  0  0  0  0  0
    4.7570    1.8390    0.3890 O   0  0  0  0  0  0  0  0  0  0  0  0
    3.8070   -0.1910   -0.3000 C   0  0  0  0  0  0  0  0  0  0  0  0
    2.2460    0.6810    0.0170 S   0  0  0  0  0  0  0  0  0  0  0  0
    0.8970   -0.4670   -0.3630 C   0  0  0  0  0  0  0  0  0  0  0  0
   -0.4610    0.1750   -0.1270 C   0  0  2  0  0  0  0  0  0  0  0  0
   -0.5710    1.2950   -0.9530 O   0  0  0  0  0  0  0  0  0  0  0  0
   -0.5860    0.6560    1.3110 C   0  0  0  0  0  0  0  0  0  0  0  0
   -1.9280    1.3480    1.4120 C   0  0  0  0  0  0  0  0  0  0  0  0
   -2.9930    0.3510    1.0940 C   0  0  0  0  0  0  0  0  0  0  0  0
   -2.4720   -0.9530    0.7280 N   0  0  0  0  0  0  0  0  0  0  0  0
   -3.4960   -1.6680    0.2250 O   0  0  0  0  0  0  0  0  0  0  0  0
   -3.6380   -1.3530   -1.1000 C   0  0  0  0  0  0  0  0  0  0  0  0
   -2.4400   -0.5190   -1.5110 C   0  0  0  0  0  0  0  0  0  0  0  0
   -1.5060   -0.8470   -0.3650 C   0  0  1  0  0  0  0  0  0  0  0  0
  1  2  1  0
  2  3  2  0
  2  4  1  0
  4  5  1  0
  5  6  1  0
  6  7  1  0
  7  8  1  6
  7  9  1  0
  7 16  1  0
  9 10  1  0
 10 11  1  0
 11 12  1  0
 12 13  1  0
 12 16  1  0
 13 14  1  0
 14 15  1  0
 16 15  1  6
M  END
