
     RDKit          3D

 16 17  0  0  0  0  0  0  0  0999 V2000
   -0.7490   -3.0380   -0.2000 C   0  0  0  0  0  0  0  0  0  0  0  0
    0.1700   -2.0590    0.4570 C   0  0  0  0  0  0  0  0  0  0  0  0
    0.2340   -0.7420   -0.2820 C   0  0  1  0  0  0  0  0  0  0  0  0
   -1.0320   -0.0620   -0.3900 C   0  0  0  0  0  0  0  0  0  0  0  0
   -2.0790   -0.4280   -1.1910 N   0  0  0  0  0  0  0  0  0  0  0  0
   -3.2030    0.2840   -1.2000 C   0  0  0  0  0  0  0  0  0  0  0  0
   -4.1760   -0.0600   -1.9470 O   0  0  0  0  0  0  0  0  0  0  0  0
   -3.3920    1.3770   -0.4520 N   0  0  0  0  0  0  0  0  0  0  0  0
   -2.3970    1.7850    0.3550 C   0  0  0  0  0  0  0  0  0  0  0  0
   -2.5170    2.8070    1.0840 O   0  0  0  0  0  0  0  0  0  0  0  0
   -1.2350    1.0440    0.3610 C   0  0  0  0  0  0  0  0  0  0  0  0
    0.2630    1.3120    1.2990 S   0  0  0  0  0  0  0  0  0  0  0  0
    1.2670    0.1080    0.3500 C   0  0  2  0  0  0  0  0  0  0  0  0
    2.1700    0.8390   -0.5810 C   0  0  0  0  0  0  0  0  0  0  0  0
    3.1480    1.6480    0.2820 C   0  0  0  0  0  0  0  0  0  0  0  0
    4.0230    2.3560   -0.5350 O   0  0  0  0  0  0  0  0  0  0  0  0
  1  2  1  0
  3  2  1  1
  3  4  1  0
  3 13  1  0
  4  5  1  0
  4 11  2  0
  5  6  1  0
  6  7  2  0
  6  8  1  0
  8  9  1  0
  9 10  2  0
  9 11  1  0
 11 12  1  0
 12 13  1  0
 13 14  1  6
 14 15  1  0
 15 16  1  0
M  END
