
     RDKit          3D

 16 17  0  0  0  0  0  0  0  0999 V2000
   -4.5630    1.3030   -0.5430 N   0  0  0  0  0  0  0  0  0  0  0  0
   -3.2360    0.3380   -0.0530 S   0  0  1  0  0  0  0  0  0  0  0  0
   -2.7060    1.0250    1.2480 O   0  0  0  0  0  0  0  0  0  0  0  0
   -3.6840   -1.0200    0.2020 O   0  0  0  0  0  0  0  0  0  0  0  0
   -1.9050    0.5480   -1.1290 N   0  0  0  0  0  0  0  0  0  0  0  0
   -0.9520   -0.5110   -0.9790 C   0  0  0  0  0  0  0  0  0  0  0  0
   -0.2800   -0.4570    0.3850 C   0  0  1  0  0  0  0  0  0  0  0  0
   -0.8700   -1.6510    1.2260 C   0  0  0  0  0  0  0  0  0  0  0  0
    0.3880   -2.0750    1.9800 C   0  0  0  0  0  0  0  0  0  0  0  0
    1.4000   -1.2000    1.6340 O   0  0  0  0  0  0  0  0  0  0  0  0
    1.1280   -0.8630    0.3420 C   0  0  2  0  0  0  0  0  0  0  0  0
    2.0000    0.2380   -0.0930 C   0  0  0  0  0  0  0  0  0  0  0  0
    1.6900    1.4840   -0.4430 C   0  0  0  0  0  0  0  0  0  0  0  0
    2.9340    2.2310   -0.8080 C   0  0  0  0  0  0  0  0  0  0  0  0
    3.9740    1.2120   -0.5470 C   0  0  0  0  0  0  0  0  0  0  0  0
    3.4430    0.1480   -0.0980 C   0  0  0  0  0  0  0  0  0  0  0  0
  2  1  1  6
  2  3  2  0
  2  4  2  0
  2  5  1  0
  5  6  1  0
  7  6  1  6
  7  8  1  0
  7 11  1  0
  8  9  1  0
  9 10  1  0
 10 11  1  0
 11 12  1  1
 12 13  2  0
 12 16  1  0
 13 14  1  0
 14 15  1  0
 15 16  2  0
M  END
