
     RDKit          3D

  7  7  0  0  0  0  0  0  0  0999 V2000
    2.1300   -0.0800    0.5140 C   0  0  0  0  0  0  0  0  0  0  0  0
    1.4550   -0.4840   -0.7500 C   0  0  0  0  0  0  0  0  0  0  0  0
   -0.0100   -0.1410   -0.7900 C   0  0  1  0  0  0  0  0  0  0  0  0
   -0.7510   -0.8290    0.3380 C   0  0  0  0  0  0  0  0  0  0  0  0
   -1.6180    0.3090    0.8600 C   0  0  0  0  0  0  0  0  0  0  0  0
   -1.6210    1.2160   -0.3540 C   0  0  0  0  0  0  0  0  0  0  0  0
   -0.2570    1.2120   -0.6680 O   0  0  0  0  0  0  0  0  0  0  0  0
  1  2  1  0
  3  2  1  1
  3  4  1  0
  3  7  1  0
  4  5  1  0
  5  6  1  0
  6  7  1  0
M  END
