
     RDKit          3D

  7  7  0  0  0  0  0  0  0  0999 V2000
    2.5060    0.9700   -0.0510 O   0  0  0  0  0  0  0  0  0  0  0  0
    1.6440    0.6170    1.0210 C   0  0  0  0  0  0  0  0  0  0  0  0
    0.9890   -0.6970    0.7830 C   0  0  0  0  0  0  0  0  0  0  0  0
    0.1530   -0.8850   -0.3960 C   0  0  0  0  0  0  0  0  0  0  0  0
   -1.0900   -0.1410   -0.6280 C   0  0  1  0  0  0  0  0  0  0  0  0
   -2.2440   -0.2280    0.3170 C   0  0  0  0  0  0  0  0  0  0  0  0
   -1.5660    1.1090   -0.0780 C   0  0  0  0  0  0  0  0  0  0  0  0
  1  2  1  0
  2  3  1  0
  3  4  1  0
  5  4  1  1
  5  6  1  0
  5  7  1  0
  6  7  1  0
M  END
