
     RDKit          3D

  7  7  0  0  0  0  0  0  0  0999 V2000
    2.6800   -0.4680    0.3110 C   0  0  0  0  0  0  0  0  0  0  0  0
    1.6890    0.4760    0.1150 O   0  0  0  0  0  0  0  0  0  0  0  0
    0.4250   -0.0440   -0.0030 C   0  0  1  0  0  0  0  0  0  0  0  0
   -0.4650    0.5420    1.0780 C   0  0  0  0  0  0  0  0  0  0  0  0
   -1.8720    0.5250    0.5150 C   0  0  0  0  0  0  0  0  0  0  0  0
   -1.7400   -0.0550   -0.8820 C   0  0  0  0  0  0  0  0  0  0  0  0
   -0.3120    0.3700   -1.2300 C   0  0  0  0  0  0  0  0  0  0  0  0
  1  2  1  0
  3  2  1  6
  3  4  1  0
  3  7  1  0
  4  5  1  0
  5  6  1  0
  6  7  1  0
M  END
