
     RDKit          3D

  7  7  0  0  0  0  0  0  0  0999 V2000
    2.7290   -0.0610   -0.7860 O   0  0  0  0  0  0  0  0  0  0  0  0
    1.8760   -0.3210    0.2840 C   0  0  0  0  0  0  0  0  0  0  0  0
    0.4610   -0.5620   -0.1990 C   0  0  1  0  0  0  0  0  0  0  0  0
   -0.4790   -0.8460    0.9490 C   0  0  0  0  0  0  0  0  0  0  0  0
   -1.7790   -0.2360    0.4110 C   0  0  0  0  0  0  0  0  0  0  0  0
   -1.2740    1.1050   -0.0750 C   0  0  0  0  0  0  0  0  0  0  0  0
   -0.0690    0.6690   -0.8940 C   0  0  0  0  0  0  0  0  0  0  0  0
  1  2  1  0
  3  2  1  1
  3  4  1  0
  3  7  1  0
  4  5  1  0
  5  6  1  0
  6  7  1  0
M  END
