
     RDKit          3D

 29 32  0  0  0  0  0  0  0  0999 V2000
   -6.5010    0.8690   -0.6950 C   0  0  0  0  0  0  0  0  0  0  0  0
   -5.1210    0.6830   -0.4570 O   0  0  0  0  0  0  0  0  0  0  0  0
   -4.4630   -0.3330   -1.1360 C   0  0  0  0  0  0  0  0  0  0  0  0
   -5.1300   -1.1510   -2.0220 C   0  0  0  0  0  0  0  0  0  0  0  0
   -4.4270   -2.1630   -2.6850 C   0  0  0  0  0  0  0  0  0  0  0  0
   -3.0690   -2.3610   -2.4690 C   0  0  0  0  0  0  0  0  0  0  0  0
   -2.3940   -1.5490   -1.5860 C   0  0  0  0  0  0  0  0  0  0  0  0
   -1.0260   -1.6780   -1.3090 O   0  0  0  0  0  0  0  0  0  0  0  0
   -0.1910   -0.5890   -1.5910 C   0  0  0  0  0  0  0  0  0  0  0  0
   -0.3540    0.1400   -2.7480 C   0  0  0  0  0  0  0  0  0  0  0  0
    0.4840    1.2060   -2.9940 C   0  0  0  0  0  0  0  0  0  0  0  0
    1.4740    1.5150   -2.0560 C   0  0  0  0  0  0  0  0  0  0  0  0
    2.3040    2.5900   -2.3230 O   0  0  0  0  0  0  0  0  0  0  0  0
    1.6590    0.8060   -0.8930 C   0  0  0  0  0  0  0  0  0  0  0  0
    2.7310    1.1880    0.0190 C   0  0  0  0  0  0  0  0  0  0  0  0
    3.5310    2.1150   -0.3900 O   0  0  0  0  0  0  0  0  0  0  0  0
    2.9480    0.6010    1.3300 C   0  0  0  0  0  0  0  0  0  0  0  0
    1.9710    0.2720    2.2280 C   0  0  0  0  0  0  0  0  0  0  0  0
    2.5850   -0.2200    3.3450 N   0  0  0  0  0  0  0  0  0  0  0  0
    3.9380   -0.2050    3.1610 C   0  0  0  0  0  0  0  0  0  0  0  0
    4.1770    0.3080    1.9020 C   0  0  0  0  0  0  0  0  0  0  0  0
    5.3950    0.4580    1.4100 C   0  0  0  0  0  0  0  0  0  0  0  0
    6.5730    0.0780    2.1980 C   0  0  0  0  0  0  0  0  0  0  0  0
    6.2320   -0.4360    3.4640 O   0  0  0  0  0  0  0  0  0  0  0  0
    4.9440   -0.5660    3.9160 C   0  0  0  0  0  0  0  0  0  0  0  0
    0.8090   -0.2600   -0.6670 C   0  0  0  0  0  0  0  0  0  0  0  0
   -3.1100   -0.5660   -0.9510 C   0  0  0  0  0  0  0  0  0  0  0  0
   -2.4370    0.2550   -0.0600 O   0  0  0  0  0  0  0  0  0  0  0  0
   -2.3410   -0.1000    1.2930 C   0  0  0  0  0  0  0  0  0  0  0  0
  1  2  1  0
  2  3  1  0
  3  4  2  0
  3 27  1  0
  4  5  1  0
  5  6  2  0
  6  7  1  0
  7  8  1  0
  7 27  2  0
  8  9  1  0
  9 10  2  0
  9 26  1  0
 10 11  1  0
 11 12  2  0
 12 13  1  0
 12 14  1  0
 14 15  1  0
 14 26  2  0
 15 16  2  0
 15 17  1  0
 17 18  2  0
 17 21  1  0
 18 19  1  0
 19 20  1  0
 20 21  1  0
 20 25  2  0
 21 22  2  0
 22 23  1  0
 23 24  1  0
 24 25  1  0
 27 28  1  0
 28 29  1  0
M  END
