
     RDKit          3D

 29 31  0  0  0  0  0  0  0  0999 V2000
   -6.3670    2.2200   -1.7690 C   0  0  0  0  0  0  0  0  0  0  0  0
   -5.0210    1.6230   -1.5930 C   0  0  0  0  0  0  0  0  0  0  0  0
   -4.3100    1.4760   -2.7300 C   0  0  0  0  0  0  0  0  0  0  0  0
   -2.9850    0.9000   -2.6370 C   0  0  0  0  0  0  0  0  0  0  0  0
   -2.4470    0.5170   -1.4970 C   0  0  0  0  0  0  0  0  0  0  0  0
   -1.1140   -0.0600   -1.4210 C   0  0  0  0  0  0  0  0  0  0  0  0
   -0.5270   -0.4610   -0.3080 C   0  0  0  0  0  0  0  0  0  0  0  0
    0.8230   -1.0300   -0.3240 C   0  0  0  0  0  0  0  0  0  0  0  0
    1.5680   -1.0710    0.7760 C   0  0  0  0  0  0  0  0  0  0  0  0
    2.8930   -1.6060    0.8560 C   0  0  0  0  0  0  0  0  0  0  0  0
    3.5110   -1.5980    1.9470 O   0  0  0  0  0  0  0  0  0  0  0  0
    3.5770   -2.1540   -0.2170 O   0  0  0  0  0  0  0  0  0  0  0  0
    4.8940   -2.6680   -0.0680 C   0  0  0  0  0  0  0  0  0  0  0  0
    5.8400   -1.6150    0.3980 C   0  0  0  0  0  0  0  0  0  0  0  0
    6.5780   -0.7760   -0.3940 C   0  0  0  0  0  0  0  0  0  0  0  0
    7.3040    0.0240    0.4400 C   0  0  0  0  0  0  0  0  0  0  0  0
    6.9870   -0.3510    1.7210 C   0  0  0  0  0  0  0  0  0  0  0  0
    7.5090    0.2130    3.0020 C   0  0  0  0  0  0  0  0  0  0  0  0
    6.1200   -1.3220    1.6450 O   0  0  0  0  0  0  0  0  0  0  0  0
    1.3880   -1.5730   -1.5660 C   0  0  0  0  0  0  0  0  0  0  0  0
    0.4760   -1.3880   -2.7230 C   0  0  0  0  0  0  0  0  0  0  0  0
   -0.3100   -0.2470   -2.5640 O   0  0  0  0  0  0  0  0  0  0  0  0
   -3.1800    0.6740   -0.3660 O   0  0  0  0  0  0  0  0  0  0  0  0
   -4.5120    1.2290   -0.2970 C   0  0  0  0  0  0  0  0  0  0  0  0
   -5.0560    1.3000    0.8560 C   0  0  0  0  0  0  0  0  0  0  0  0
   -4.1130    0.7510    1.9810 C   0  0  0  0  0  0  0  0  0  0  0  0
   -6.2880    1.7260    1.3780 C   0  0  0  0  0  0  0  0  0  0  0  0
   -6.4940    1.6310    2.8510 N   0  0  0  0  0  0  0  0  0  0  0  0
   -7.2650    2.1850    0.7790 O   0  0  0  0  0  0  0  0  0  0  0  0
  1  2  1  0
  2  3  2  0
  2 24  1  0
  3  4  1  0
  4  5  2  0
  5  6  1  0
  5 23  1  0
  6  7  2  0
  6 22  1  0
  7  8  1  0
  8  9  2  3
  8 20  1  0
  9 10  1  0
 10 11  2  0
 10 12  1  0
 12 13  1  0
 13 14  1  0
 14 15  2  0
 14 19  1  0
 15 16  1  0
 16 17  2  0
 17 18  1  0
 17 19  1  0
 20 21  1  0
 21 22  1  0
 23 24  1  0
 24 25  2  3
 25 26  1  0
 25 27  1  0
 27 28  1  0
 27 29  2  0
M  END
