
     RDKit          3D

 29 32  0  0  0  0  0  0  0  0999 V2000
    5.3580   -2.6560   -1.6760 C   0  0  0  0  0  0  0  0  0  0  0  0
    5.8790   -2.2930   -0.4160 O   0  0  0  0  0  0  0  0  0  0  0  0
    5.1090   -1.5330    0.4420 C   0  0  0  0  0  0  0  0  0  0  0  0
    3.8410   -1.1270    0.0840 C   0  0  0  0  0  0  0  0  0  0  0  0
    3.0970   -0.3680    0.9660 C   0  0  0  0  0  0  0  0  0  0  0  0
    1.8260    0.0770    0.6880 O   0  0  0  0  0  0  0  0  0  0  0  0
    1.6510    1.2970    0.0740 C   0  0  0  0  0  0  0  0  0  0  0  0
    2.7650    2.0740   -0.2620 C   0  0  0  0  0  0  0  0  0  0  0  0
    2.6120    3.2970   -0.8770 C   0  0  0  0  0  0  0  0  0  0  0  0
    1.3380    3.7210   -1.1450 C   0  0  0  0  0  0  0  0  0  0  0  0
    0.2170    2.9410   -0.8070 C   0  0  0  0  0  0  0  0  0  0  0  0
    0.3530    1.7270   -0.1980 C   0  0  0  0  0  0  0  0  0  0  0  0
   -0.7100    0.8910    0.1700 N   0  0  0  0  0  0  0  0  0  0  0  0
   -2.0910    1.0980    0.0050 C   0  0  0  0  0  0  0  0  0  0  0  0
   -2.4850    2.1490   -0.5340 O   0  0  0  0  0  0  0  0  0  0  0  0
   -3.1160    0.1090    0.4510 C   0  0  2  0  0  0  0  0  0  0  0  0
   -2.8740   -1.2280   -0.2490 C   0  0  0  0  0  0  0  0  0  0  0  0
   -4.0170   -2.0400   -0.0580 O   0  0  0  0  0  0  0  0  0  0  0  0
   -5.2870   -1.5320   -0.2440 C   0  0  0  0  0  0  0  0  0  0  0  0
   -6.3800   -2.3320   -0.5260 C   0  0  0  0  0  0  0  0  0  0  0  0
   -7.6350   -1.7940   -0.7060 C   0  0  0  0  0  0  0  0  0  0  0  0
   -7.8010   -0.4310   -0.6020 C   0  0  0  0  0  0  0  0  0  0  0  0
   -6.7410    0.3980   -0.3230 C   0  0  0  0  0  0  0  0  0  0  0  0
   -5.4790   -0.1750   -0.1460 C   0  0  0  0  0  0  0  0  0  0  0  0
   -4.3840    0.6270    0.1370 O   0  0  0  0  0  0  0  0  0  0  0  0
    3.6320   -0.0250    2.1960 C   0  0  0  0  0  0  0  0  0  0  0  0
    4.8970   -0.4240    2.5670 C   0  0  0  0  0  0  0  0  0  0  0  0
    5.6220   -1.1800    1.6730 C   0  0  0  0  0  0  0  0  0  0  0  0
    6.8910   -1.5830    2.0370 O   0  0  0  0  0  0  0  0  0  0  0  0
  1  2  1  0
  2  3  1  0
  3  4  2  0
  3 28  1  0
  4  5  1  0
  5  6  1  0
  5 26  2  0
  6  7  1  0
  7  8  2  0
  7 12  1  0
  8  9  1  0
  9 10  2  0
 10 11  1  0
 11 12  2  0
 12 13  1  0
 13 14  1  0
 14 15  2  0
 16 14  1  6
 16 17  1  0
 16 25  1  0
 17 18  1  0
 18 19  1  0
 19 20  2  0
 19 24  1  0
 20 21  1  0
 21 22  2  0
 22 23  1  0
 23 24  2  0
 24 25  1  0
 26 27  1  0
 27 28  2  0
 28 29  1  0
M  END
