
     RDKit          3D

 31 34  0  0  0  0  0  0  0  0999 V2000
   -4.4110    3.1850   -1.9420 C   0  0  0  0  0  0  0  0  0  0  0  0
   -4.1740    1.9440   -1.1660 C   0  0  0  0  0  0  0  0  0  0  0  0
   -4.9080    1.6660   -0.0470 C   0  0  0  0  0  0  0  0  0  0  0  0
   -4.6440    0.5020    0.6310 C   0  0  0  0  0  0  0  0  0  0  0  0
   -5.4410    0.1830    1.8610 C   0  0  0  0  0  0  0  0  0  0  0  0
   -3.6590   -0.4040    0.2210 C   0  0  0  0  0  0  0  0  0  0  0  0
   -2.9220   -0.1300   -0.8980 C   0  0  0  0  0  0  0  0  0  0  0  0
   -1.8500   -0.9960   -1.4080 C   0  0  2  0  0  0  0  0  0  0  0  0
   -2.3010   -2.3730   -1.7510 C   0  0  0  0  0  0  0  0  0  0  0  0
   -3.0100   -3.3170   -0.4690 Cl  0  0  0  0  0  0  0  0  0  0  0  0
   -0.6270   -0.9400   -0.5940 N   0  0  0  0  0  0  0  0  0  0  0  0
    0.5250   -0.4500   -1.1850 C   0  0  0  0  0  0  0  0  0  0  0  0
    0.3660   -0.0960   -2.4270 O   0  0  0  0  0  0  0  0  0  0  0  0
    1.8580   -0.2590   -0.6920 C   0  0  0  0  0  0  0  0  0  0  0  0
    2.2530   -0.5730    0.5870 C   0  0  0  0  0  0  0  0  0  0  0  0
    3.5620   -0.3760    1.0360 C   0  0  0  0  0  0  0  0  0  0  0  0
    4.5100    0.1480    0.1940 C   0  0  0  0  0  0  0  0  0  0  0  0
    4.1630    0.4740   -1.0820 C   0  0  0  0  0  0  0  0  0  0  0  0
    2.8570    0.2790   -1.5350 C   0  0  0  0  0  0  0  0  0  0  0  0
    2.6000    0.6250   -2.7970 O   0  0  0  0  0  0  0  0  0  0  0  0
    5.3030    0.9830   -1.7270 O   0  0  0  0  0  0  0  0  0  0  0  0
    6.4600    0.4990   -1.0480 C   0  0  1  0  0  0  0  0  0  0  0  0
    7.5940    1.5170   -1.1720 C   0  0  0  0  0  0  0  0  0  0  0  0
    5.9700    0.4730    0.3760 C   0  0  0  0  0  0  0  0  0  0  0  0
   -0.7210   -1.3840    0.7310 C   0  0  0  0  0  0  0  0  0  0  0  0
   -1.0640   -0.4470    1.6950 C   0  0  0  0  0  0  0  0  0  0  0  0
   -1.1880   -0.8410    2.9960 C   0  0  0  0  0  0  0  0  0  0  0  0
   -0.9710   -2.1630    3.3360 C   0  0  0  0  0  0  0  0  0  0  0  0
   -0.6400   -3.0450    2.3820 N   0  0  0  0  0  0  0  0  0  0  0  0
   -0.5010   -2.7250    1.0860 C   0  0  0  0  0  0  0  0  0  0  0  0
   -3.2100    1.0620   -1.5700 C   0  0  0  0  0  0  0  0  0  0  0  0
  1  2  1  0
  2  3  2  0
  2 31  1  0
  3  4  1  0
  4  5  1  0
  4  6  2  0
  6  7  1  0
  7  8  1  0
  7 31  2  0
  8  9  1  1
  8 11  1  0
  9 10  1  0
 11 12  1  0
 11 25  1  0
 12 13  2  0
 12 14  1  0
 14 15  2  0
 14 19  1  0
 15 16  1  0
 16 17  2  0
 17 18  1  0
 17 24  1  0
 18 19  2  0
 18 21  1  0
 19 20  1  0
 21 22  1  0
 22 23  1  1
 22 24  1  0
 25 26  2  0
 25 30  1  0
 26 27  1  0
 27 28  2  0
 28 29  1  0
 29 30  2  0
M  END
