
     RDKit          3D

 29 32  0  0  0  0  0  0  0  0999 V2000
   -1.5510   -0.4430   -2.2440 O   0  0  0  0  0  0  0  0  0  0  0  0
   -1.6370   -1.2310   -1.2510 C   0  0  0  0  0  0  0  0  0  0  0  0
   -2.8500   -1.1680   -0.4140 C   0  0  0  0  0  0  0  0  0  0  0  0
   -3.8200   -0.3170   -0.7010 C   0  0  0  0  0  0  0  0  0  0  0  0
   -5.0460   -0.1750    0.0510 C   0  0  0  0  0  0  0  0  0  0  0  0
   -5.3060   -0.9240    1.1770 C   0  0  0  0  0  0  0  0  0  0  0  0
   -6.4810   -0.7970    1.8930 C   0  0  0  0  0  0  0  0  0  0  0  0
   -7.4660    0.1090    1.4940 C   0  0  0  0  0  0  0  0  0  0  0  0
   -7.2250    0.8670    0.3700 C   0  0  0  0  0  0  0  0  0  0  0  0
   -6.0380    0.7180   -0.3240 C   0  0  0  0  0  0  0  0  0  0  0  0
   -8.3400    1.6700    0.1980 O   0  0  0  0  0  0  0  0  0  0  0  0
   -9.2240    1.5250    1.2780 C   0  0  0  0  0  0  0  0  0  0  0  0
   -8.7100    0.4390    2.0070 O   0  0  0  0  0  0  0  0  0  0  0  0
   -0.6240   -2.1540   -0.9270 N   0  0  0  0  0  0  0  0  0  0  0  0
    0.5690   -2.2630   -1.6980 C   0  0  0  0  0  0  0  0  0  0  0  0
    1.5190   -1.1570   -1.3910 C   0  0  0  0  0  0  0  0  0  0  0  0
    1.6290   -0.0320   -2.1790 C   0  0  0  0  0  0  0  0  0  0  0  0
    2.5300    0.9920   -1.8750 C   0  0  0  0  0  0  0  0  0  0  0  0
    3.3270    0.8940   -0.7800 C   0  0  0  0  0  0  0  0  0  0  0  0
    3.2210   -0.2450    0.0240 C   0  0  0  0  0  0  0  0  0  0  0  0
    2.3310   -1.2480   -0.2830 C   0  0  0  0  0  0  0  0  0  0  0  0
    3.9970   -0.5130    1.2310 C   0  0  0  0  0  0  0  0  0  0  0  0
    3.4600   -1.3500    2.0010 O   0  0  0  0  0  0  0  0  0  0  0  0
    5.3000    0.0580    1.6550 C   0  0  0  0  0  0  0  0  0  0  0  0
    5.9530    0.7480    0.4960 C   0  0  2  0  0  0  0  0  0  0  0  0
    7.4400    0.7750    0.5720 C   0  0  0  0  0  0  0  0  0  0  0  0
    7.9480    1.4120    1.6750 O   0  0  0  0  0  0  0  0  0  0  0  0
    5.3140    2.0980    0.2700 C   0  0  0  0  0  0  0  0  0  0  0  0
    4.1840    1.9880   -0.5910 O   0  0  0  0  0  0  0  0  0  0  0  0
  1  2  2  0
  2  3  1  0
  2 14  1  0
  3  4  2  3
  4  5  1  0
  5  6  2  0
  5 10  1  0
  6  7  1  0
  7  8  2  0
  8  9  1  0
  8 13  1  0
  9 10  2  0
  9 11  1  0
 11 12  1  0
 12 13  1  0
 14 15  1  0
 15 16  1  0
 16 17  2  0
 16 21  1  0
 17 18  1  0
 18 19  2  0
 19 20  1  0
 19 29  1  0
 20 21  2  0
 20 22  1  0
 22 23  2  0
 22 24  1  0
 24 25  1  0
 25 26  1  1
 25 28  1  0
 26 27  1  0
 28 29  1  0
M  END
