
     RDKit          3D

 29 32  0  0  0  0  0  0  0  0999 V2000
    5.6340   -0.1510   -3.8420 N   0  0  0  0  0  0  0  0  0  0  0  0
    5.9210    0.0780   -2.6200 C   0  0  0  0  0  0  0  0  0  0  0  0
    7.2150    0.3210   -2.2400 O   0  0  0  0  0  0  0  0  0  0  0  0
    4.8530    0.0790   -1.6280 C   0  0  0  0  0  0  0  0  0  0  0  0
    5.1940    0.3210   -0.3700 C   0  0  0  0  0  0  0  0  0  0  0  0
    6.5210    0.5640   -0.0180 O   0  0  0  0  0  0  0  0  0  0  0  0
    7.0110    0.4370    1.2960 C   0  0  0  0  0  0  0  0  0  0  0  0
    6.0310    0.8570    2.3340 C   0  0  0  0  0  0  0  0  0  0  0  0
    4.6190    0.5990    1.9600 C   0  0  0  0  0  0  0  0  0  0  0  0
    3.6820    0.6190    2.9570 C   0  0  0  0  0  0  0  0  0  0  0  0
    2.3420    0.3900    2.7100 C   0  0  0  0  0  0  0  0  0  0  0  0
    1.8850    0.1310    1.4480 C   0  0  0  0  0  0  0  0  0  0  0  0
    0.5730   -0.1110    1.0930 O   0  0  0  0  0  0  0  0  0  0  0  0
    0.0010   -1.3680    1.0670 C   0  0  0  0  0  0  0  0  0  0  0  0
    0.7410   -2.3320    1.3900 O   0  0  0  0  0  0  0  0  0  0  0  0
   -1.4240   -1.6070    0.6790 C   0  0  0  0  0  0  0  0  0  0  0  0
   -2.0890   -0.4280    0.3540 O   0  0  0  0  0  0  0  0  0  0  0  0
   -3.4210   -0.5140   -0.0240 C   0  0  0  0  0  0  0  0  0  0  0  0
   -4.1200   -1.7010   -0.0950 C   0  0  0  0  0  0  0  0  0  0  0  0
   -5.4430   -1.7590   -0.4730 C   0  0  0  0  0  0  0  0  0  0  0  0
   -6.1330   -0.6110   -0.8020 C   0  0  0  0  0  0  0  0  0  0  0  0
   -5.4540    0.5860   -0.7380 C   0  0  0  0  0  0  0  0  0  0  0  0
   -4.1350    0.6260   -0.3580 C   0  0  0  0  0  0  0  0  0  0  0  0
   -6.3880    1.6770   -1.1310 C   0  0  1  0  0  0  0  0  0  0  0  0
   -6.3980    1.8730   -2.5110 O   0  0  0  0  0  0  0  0  0  0  0  0
   -7.7360    1.0870   -0.7530 C   0  0  0  0  0  0  0  0  0  0  0  0
   -7.5460   -0.3540   -1.2420 C   0  0  0  0  0  0  0  0  0  0  0  0
    2.8410    0.1100    0.4310 C   0  0  0  0  0  0  0  0  0  0  0  0
    4.1890    0.3370    0.6610 C   0  0  0  0  0  0  0  0  0  0  0  0
  1  2  2  0
  2  3  1  0
  2  4  1  0
  4  5  2  3
  5  6  1  0
  5 29  1  0
  6  7  1  0
  7  8  1  0
  8  9  1  0
  9 10  2  0
  9 29  1  0
 10 11  1  0
 11 12  2  0
 12 13  1  0
 12 28  1  0
 13 14  1  0
 14 15  2  0
 14 16  1  0
 16 17  1  0
 17 18  1  0
 18 19  2  0
 18 23  1  0
 19 20  1  0
 20 21  2  0
 21 22  1  0
 21 27  1  0
 22 23  2  0
 22 24  1  0
 24 25  1  6
 24 26  1  0
 26 27  1  0
 28 29  2  0
M  END
