
     RDKit          3D

 19 18  0  0  0  0  0  0  0  0999 V2000
   -5.1970   -1.5590   -1.5400 C   0  0  0  0  0  0  0  0  0  0  0  0
   -4.3040   -1.0890   -0.5750 O   0  0  0  0  0  0  0  0  0  0  0  0
   -3.4680    0.2940   -1.2130 P   0  0  0  0  0  0  0  0  0  0  0  0
   -1.9940   -0.2700   -1.9360 O   0  0  0  0  0  0  0  0  0  0  0  0
   -1.0170   -0.2880   -0.9550 C   0  0  0  0  0  0  0  0  0  0  0  0
    0.3160   -0.7690   -1.4860 C   0  0  1  0  0  0  0  0  0  0  0  0
    0.7720    0.1580   -2.5930 C   0  0  0  0  0  0  0  0  0  0  0  0
    1.9970   -0.2480   -3.1110 O   0  0  0  0  0  0  0  0  0  0  0  0
    1.2750   -0.8380   -0.3770 C   0  0  0  0  0  0  0  0  0  0  0  0
    0.9400   -0.5260    0.7960 O   0  0  0  0  0  0  0  0  0  0  0  0
    2.6020   -1.2480   -0.5360 O   0  0  0  0  0  0  0  0  0  0  0  0
    3.5270   -1.3200    0.5100 C   0  0  0  0  0  0  0  0  0  0  0  0
    3.7660    0.0060    1.1950 C   0  0  2  0  0  0  0  0  0  0  0  0
    4.2970    1.0320    0.2210 C   0  0  0  0  0  0  0  0  0  0  0  0
    4.8380   -0.2400    2.2540 C   0  0  0  0  0  0  0  0  0  0  0  0
   -3.0430    1.3100    0.1290 O   0  0  0  0  0  0  0  0  0  0  0  0
   -4.3600    1.3170    1.2730 P   0  0  0  0  0  0  0  0  0  0  0  0
   -3.6490    1.3730    2.9770 C   0  0  0  0  0  0  0  0  0  0  0  0
   -5.4350    2.6410    0.9910 O   0  0  0  0  0  0  0  0  0  0  0  0
  1  2  1  0
  2  3  1  0
  3  4  1  0
  3 16  1  0
  4  5  1  0
  6  5  1  1
  6  7  1  0
  6  9  1  0
  7  8  1  0
  9 10  2  0
  9 11  1  0
 11 12  1  0
 12 13  1  0
 13 14  1  6
 13 15  1  0
 16 17  1  0
 17 18  1  0
 17 19  1  0
M  END
