
     RDKit          3D

 19 18  0  0  0  0  0  0  0  0999 V2000
   -4.6900    2.9220   -1.2390 C   0  0  0  0  0  0  0  0  0  0  0  0
   -4.1130    2.3760    0.0340 C   0  0  0  0  0  0  0  0  0  0  0  0
   -3.6930    1.0600   -0.1650 O   0  0  0  0  0  0  0  0  0  0  0  0
   -3.0190    0.3790    1.2700 P   0  0  0  0  0  0  0  0  0  0  0  0
   -1.3070    1.0090    1.5300 C   0  0  0  0  0  0  0  0  0  0  0  0
   -0.4460    0.4550    0.5520 O   0  0  0  0  0  0  0  0  0  0  0  0
    0.8940    0.7120    0.4560 C   0  0  0  0  0  0  0  0  0  0  0  0
    1.4250    1.5040    1.2960 O   0  0  0  0  0  0  0  0  0  0  0  0
    1.7330    0.1740   -0.4970 O   0  0  0  0  0  0  0  0  0  0  0  0
    3.1100    0.4850   -0.5360 C   0  0  1  0  0  0  0  0  0  0  0  0
    3.8760   -0.7930   -0.2940 C   0  0  0  0  0  0  0  0  0  0  0  0
    3.4650   -1.3140    1.0690 C   0  0  0  0  0  0  0  0  0  0  0  0
    4.3960   -2.8830    1.3810 P   0  0  0  0  0  0  0  0  0  0  0  0
    3.4750    1.0990   -1.8250 C   0  0  0  0  0  0  0  0  0  0  0  0
    2.5890    1.2660   -2.6880 O   0  0  0  0  0  0  0  0  0  0  0  0
    4.7760    1.4910   -2.0970 O   0  0  0  0  0  0  0  0  0  0  0  0
   -2.9690   -1.3420    1.1730 O   0  0  0  0  0  0  0  0  0  0  0  0
   -2.5610   -1.7630   -0.0840 C   0  0  0  0  0  0  0  0  0  0  0  0
   -2.5420   -3.2840   -0.0930 C   0  0  0  0  0  0  0  0  0  0  0  0
  1  2  1  0
  2  3  1  0
  3  4  1  0
  4  5  1  0
  4 17  1  0
  5  6  1  0
  6  7  1  0
  7  8  2  0
  7  9  1  0
  9 10  1  0
 10 11  1  6
 10 14  1  0
 11 12  1  0
 12 13  1  0
 14 15  2  0
 14 16  1  0
 17 18  1  0
 18 19  1  0
M  END
