
     RDKit          3D

 21 21  0  0  0  0  0  0  0  0999 V2000
   -2.3380   -0.4670    0.7590 C   0  0  0  0  0  0  0  0  0  0  0  0
   -1.7600    0.2260   -0.4590 C   0  0  1  0  0  0  0  0  0  0  0  0
   -0.5630   -0.4400   -0.8090 O   0  0  0  0  0  0  0  0  0  0  0  0
    0.5070   -0.5250    0.0740 C   0  0  0  0  0  0  0  0  0  0  0  0
    0.3600    0.0180    1.2000 O   0  0  0  0  0  0  0  0  0  0  0  0
    1.7160   -1.1930   -0.2690 N   0  0  0  0  0  0  0  0  0  0  0  0
    2.7690   -1.2260    0.7220 C   0  0  0  0  0  0  0  0  0  0  0  0
    3.9880   -1.9500    0.2570 C   0  0  0  0  0  0  0  0  0  0  0  0
    4.5920   -1.4070   -0.8910 O   0  0  0  0  0  0  0  0  0  0  0  0
    5.0790   -0.1180   -0.8840 C   0  0  0  0  0  0  0  0  0  0  0  0
    5.0220    0.6390    0.1150 O   0  0  0  0  0  0  0  0  0  0  0  0
    5.6730    0.3800   -2.0590 O   0  0  0  0  0  0  0  0  0  0  0  0
   -2.7380    0.0720   -1.5820 C   0  0  0  0  0  0  0  0  0  0  0  0
   -4.0830    0.4720   -1.2350 N   0  0  0  0  0  0  0  0  0  0  0  0
   -4.5750    1.4330   -0.3050 C   0  0  0  0  0  0  0  0  0  0  0  0
   -5.8000    1.4520   -0.0290 O   0  0  0  0  0  0  0  0  0  0  0  0
   -3.7830    2.4400    0.3920 C   0  0  0  0  0  0  0  0  0  0  0  0
   -4.3950    3.3070    1.0900 O   0  0  0  0  0  0  0  0  0  0  0  0
   -2.3800    2.5680    0.3820 O   0  0  0  0  0  0  0  0  0  0  0  0
   -1.4830    1.6540   -0.1540 C   0  0  0  0  0  0  0  0  0  0  0  0
   -0.3080    2.0800   -0.4100 O   0  0  0  0  0  0  0  0  0  0  0  0
  2  1  1  1
  2  3  1  0
  2 13  1  0
  2 20  1  0
  3  4  1  0
  4  5  2  0
  4  6  1  0
  6  7  1  0
  7  8  1  0
  8  9  1  0
  9 10  1  0
 10 11  2  0
 10 12  1  0
 13 14  1  0
 14 15  1  0
 15 16  2  0
 15 17  1  0
 17 18  2  0
 17 19  1  0
 19 20  1  0
 20 21  2  0
M  END
