
     RDKit          3D

 19 18  0  0  0  0  0  0  0  0999 V2000
   -4.1700   -1.0340   -2.2350 C   0  0  0  0  0  0  0  0  0  0  0  0
   -2.6890   -0.4460   -2.2170 C   0  0  0  0  0  0  0  0  0  0  0  0
   -2.2890   -0.8420   -1.0000 O   0  0  0  0  0  0  0  0  0  0  0  0
   -1.8640    0.4930    0.0680 P   0  0  0  0  0  0  0  0  0  0  0  0
   -2.2960   -0.1620    1.8030 C   0  0  0  0  0  0  0  0  0  0  0  0
   -2.8700    0.8070    2.6730 C   0  0  0  0  0  0  0  0  0  0  0  0
   -4.2750    1.2570    2.2310 C   0  0  0  0  0  0  0  0  0  0  0  0
   -4.2400    2.0660    0.6000 P   0  0  0  0  0  0  0  0  0  0  0  0
   -5.5270    2.1350   -0.2830 O   0  0  0  0  0  0  0  0  0  0  0  0
   -0.0620    0.6740    0.1380 O   0  0  0  0  0  0  0  0  0  0  0  0
    0.4560   -0.1420   -0.8630 C   0  0  0  0  0  0  0  0  0  0  0  0
    1.8490   -0.5260   -0.6720 C   0  0  0  0  0  0  0  0  0  0  0  0
    2.8570    0.4420   -0.6610 O   0  0  0  0  0  0  0  0  0  0  0  0
    4.1680   -0.0810   -0.3380 C   0  0  0  0  0  0  0  0  0  0  0  0
    4.1840   -1.3210   -0.1060 O   0  0  0  0  0  0  0  0  0  0  0  0
    5.3310    0.5900   -0.2570 O   0  0  0  0  0  0  0  0  0  0  0  0
    6.4870   -0.0870    0.1030 C   0  0  0  0  0  0  0  0  0  0  0  0
    7.7800    0.6840    0.2210 C   0  0  0  0  0  0  0  0  0  0  0  0
    6.4230   -1.3010    0.3170 O   0  0  0  0  0  0  0  0  0  0  0  0
  1  2  1  0
  2  3  1  0
  3  4  1  0
  4  5  1  0
  4 10  1  0
  5  6  1  0
  6  7  1  0
  7  8  1  0
  8  9  2  0
 10 11  1  0
 11 12  1  0
 12 13  1  0
 13 14  1  0
 14 15  2  0
 14 16  1  0
 16 17  1  0
 17 18  1  0
 17 19  2  0
M  END
