
     RDKit          3D

 13 13  0  0  0  0  0  0  0  0999 V2000
   -2.7180   -2.6910    0.6900 O   0  0  0  0  0  0  0  0  0  0  0  0
   -1.7300   -1.9480    0.7690 N   0  0  0  0  0  0  0  0  0  0  0  0
   -0.6040   -2.4040    1.4070 O   0  0  0  0  0  0  0  0  0  0  0  0
   -1.6770   -0.6290    0.2340 C   0  0  0  0  0  0  0  0  0  0  0  0
   -2.8060    0.1440    0.0830 C   0  0  0  0  0  0  0  0  0  0  0  0
   -2.7760    1.4190   -0.4340 C   0  0  0  0  0  0  0  0  0  0  0  0
   -1.5580    1.9340   -0.8130 C   0  0  0  0  0  0  0  0  0  0  0  0
   -0.4100    1.1540   -0.6620 C   0  0  0  0  0  0  0  0  0  0  0  0
   -0.4160   -0.1230   -0.1470 C   0  0  0  0  0  0  0  0  0  0  0  0
    0.6440   -0.9430    0.0320 O   0  0  0  0  0  0  0  0  0  0  0  0
    1.9860   -0.8650   -0.1750 C   0  0  0  0  0  0  0  0  0  0  0  0
    2.6820    0.1980    0.6370 C   0  0  0  0  0  0  0  0  0  0  0  0
    4.0560    0.1350    0.3000 O   0  0  0  0  0  0  0  0  0  0  0  0
  1  2  2  0
  2  3  1  0
  2  4  1  0
  4  5  2  0
  4  9  1  0
  5  6  1  0
  6  7  2  0
  7  8  1  0
  8  9  2  0
  9 10  1  0
 10 11  1  0
 11 12  1  0
 12 13  1  0
M  CHG  2   2   1   3  -1
M  END
