
     RDKit          3D

 13 12  0  0  0  0  0  0  0  0999 V2000
    3.7030    0.7730    0.1410 C   0  0  0  0  0  0  0  0  0  0  0  0
    3.3270   -0.2020   -0.9640 C   0  0  0  0  0  0  0  0  0  0  0  0
    2.0970   -0.8310   -0.7110 O   0  0  0  0  0  0  0  0  0  0  0  0
    0.8870   -0.1080   -0.5650 C   0  0  0  0  0  0  0  0  0  0  0  0
    1.0410    1.1220   -0.6860 O   0  0  0  0  0  0  0  0  0  0  0  0
   -0.3580   -0.8100   -0.3040 C   0  0  0  0  0  0  0  0  0  0  0  0
   -1.5350   -0.2500   -0.1540 C   0  0  0  0  0  0  0  0  0  0  0  0
   -2.7240   -1.1670    0.1170 C   0  0  0  0  0  0  0  0  0  0  0  0
   -1.8290    1.1790   -0.2290 C   0  0  0  0  0  0  0  0  0  0  0  0
   -2.3870    1.7080    1.1010 C   0  0  0  0  0  0  0  0  0  0  0  0
   -0.2950   -2.2570   -0.1990 N   0  0  0  0  0  0  0  0  0  0  0  0
   -0.8140   -2.8270    0.7640 O   0  0  0  0  0  0  0  0  0  0  0  0
    0.3330   -2.9940   -1.1560 O   0  0  0  0  0  0  0  0  0  0  0  0
  1  2  1  0
  2  3  1  0
  3  4  1  0
  4  5  2  0
  4  6  1  0
  6  7  2  3
  6 11  1  0
  7  8  1  0
  7  9  1  0
  9 10  1  0
 11 12  2  0
 11 13  1  0
M  CHG  2  11   1  13  -1
M  END
