
     RDKit          3D

 13 13  0  0  0  0  0  0  0  0999 V2000
   -3.7050   -2.3290   -0.2400 O   0  0  0  0  0  0  0  0  0  0  0  0
   -3.7780   -1.0980   -0.3260 N   0  0  0  0  0  0  0  0  0  0  0  0
   -5.0100   -0.5250   -0.4230 O   0  0  0  0  0  0  0  0  0  0  0  0
   -2.5870   -0.2910   -0.3220 C   0  0  0  0  0  0  0  0  0  0  0  0
   -2.6570    1.0720   -0.4170 C   0  0  0  0  0  0  0  0  0  0  0  0
   -1.5000    1.8080   -0.4100 C   0  0  0  0  0  0  0  0  0  0  0  0
   -0.2810    1.1730   -0.3100 C   0  0  0  0  0  0  0  0  0  0  0  0
   -0.1990   -0.1960   -0.2140 C   0  0  0  0  0  0  0  0  0  0  0  0
    1.0290   -0.8420   -0.1120 O   0  0  0  0  0  0  0  0  0  0  0  0
    2.1930   -0.0600   -0.1090 C   0  0  0  0  0  0  0  0  0  0  0  0
    3.4490   -0.8620    0.0050 C   0  0  0  0  0  0  0  0  0  0  0  0
    4.5380    0.0070   -0.0010 O   0  0  0  0  0  0  0  0  0  0  0  0
   -1.3620   -0.9260   -0.2210 C   0  0  0  0  0  0  0  0  0  0  0  0
  1  2  2  0
  2  3  1  0
  2  4  1  0
  4  5  2  0
  4 13  1  0
  5  6  1  0
  6  7  2  0
  7  8  1  0
  8  9  1  0
  8 13  2  0
  9 10  1  0
 10 11  1  0
 11 12  1  0
M  CHG  2   2   1   3  -1
M  END
