
     RDKit          3D

 13 13  0  0  0  0  0  0  0  0999 V2000
    3.6070   -0.4690   -0.1940 C   0  0  0  0  0  0  0  0  0  0  0  0
    2.7400    0.6160   -0.0810 O   0  0  0  0  0  0  0  0  0  0  0  0
    1.3570    0.4930   -0.0320 C   0  0  0  0  0  0  0  0  0  0  0  0
    0.5390    1.5960    0.0800 C   0  0  0  0  0  0  0  0  0  0  0  0
   -0.8370    1.4970    0.1300 C   0  0  0  0  0  0  0  0  0  0  0  0
   -1.6400    2.6360    0.2450 O   0  0  0  0  0  0  0  0  0  0  0  0
   -1.4650    0.2720    0.0690 C   0  0  0  0  0  0  0  0  0  0  0  0
   -2.9480    0.1300    0.1210 C   0  0  0  0  0  0  0  0  0  0  0  0
   -0.6450   -0.8300   -0.0430 C   0  0  0  0  0  0  0  0  0  0  0  0
   -1.2320   -2.1330   -0.1130 N   0  0  0  0  0  0  0  0  0  0  0  0
   -2.3230   -2.3850   -0.6170 O   0  0  0  0  0  0  0  0  0  0  0  0
   -0.5160   -3.1990    0.4300 O   0  0  0  0  0  0  0  0  0  0  0  0
    0.7380   -0.7360   -0.0940 C   0  0  0  0  0  0  0  0  0  0  0  0
  1  2  1  0
  2  3  1  0
  3  4  2  0
  3 13  1  0
  4  5  1  0
  5  6  1  0
  5  7  2  0
  7  8  1  0
  7  9  1  0
  9 10  1  0
  9 13  2  0
 10 11  2  0
 10 12  1  0
M  CHG  2  10   1  12  -1
M  END
