
     RDKit          3D

 27 31  0  0  0  0  0  0  0  0999 V2000
    7.9200    0.2460   -1.1940 C   0  0  0  0  0  0  0  0  0  0  0  0
    6.7870   -0.2510   -1.8070 C   0  0  0  0  0  0  0  0  0  0  0  0
    5.5930   -0.2670   -1.1770 N   0  0  0  0  0  0  0  0  0  0  0  0
    5.4920    0.2060    0.0680 C   0  0  0  0  0  0  0  0  0  0  0  0
    6.5870    0.7110    0.7220 C   0  0  0  0  0  0  0  0  0  0  0  0
    7.8000    0.7290    0.0860 C   0  0  0  0  0  0  0  0  0  0  0  0
    6.1690    1.1140    1.9720 C   0  0  0  0  0  0  0  0  0  0  0  0
    4.8210    0.8340    2.0260 C   0  0  0  0  0  0  0  0  0  0  0  0
    4.3960    0.2810    0.8750 N   0  0  0  0  0  0  0  0  0  0  0  0
    3.0910   -0.1470    0.5330 C   0  0  0  0  0  0  0  0  0  0  0  0
    2.3910    0.4360   -0.4980 C   0  0  0  0  0  0  0  0  0  0  0  0
    1.1150    0.0240   -0.8400 C   0  0  0  0  0  0  0  0  0  0  0  0
    0.5370   -0.9990   -0.1240 C   0  0  0  0  0  0  0  0  0  0  0  0
   -0.8070   -1.5410   -0.3720 C   0  0  0  0  0  0  0  0  0  0  0  0
   -1.8530   -0.9300    0.3840 N   0  0  0  0  0  0  0  0  0  0  0  0
   -3.1020   -1.5880    0.0140 C   0  0  0  0  0  0  0  0  0  0  0  0
   -3.7170   -0.8520   -1.1540 C   0  0  0  0  0  0  0  0  0  0  0  0
   -4.2200    0.4940   -0.7360 C   0  0  1  0  0  0  0  0  0  0  0  0
   -5.6200    0.4320   -0.2960 N   0  0  0  0  0  0  0  0  0  0  0  0
   -6.0750    0.0920    0.9200 C   0  0  0  0  0  0  0  0  0  0  0  0
   -7.4620    0.1530    0.9460 C   0  0  0  0  0  0  0  0  0  0  0  0
   -7.8250    0.5500   -0.3240 C   0  0  0  0  0  0  0  0  0  0  0  0
   -6.6880    0.7030   -1.0250 N   0  0  0  0  0  0  0  0  0  0  0  0
   -3.3560    1.0060    0.3880 C   0  0  0  0  0  0  0  0  0  0  0  0
   -1.9350    0.4880    0.1390 C   0  0  0  0  0  0  0  0  0  0  0  0
    1.2520   -1.5440    0.8760 N   0  0  0  0  0  0  0  0  0  0  0  0
    2.4780   -1.1390    1.1960 N   0  0  0  0  0  0  0  0  0  0  0  0
  1  2  2  0
  1  6  1  0
  2  3  1  0
  3  4  2  0
  4  5  1  0
  4  9  1  0
  5  6  2  0
  5  7  1  0
  7  8  2  0
  8  9  1  0
  9 10  1  0
 10 11  2  0
 10 27  1  0
 11 12  1  0
 12 13  2  0
 13 14  1  0
 13 26  1  0
 14 15  1  0
 15 16  1  0
 15 25  1  0
 16 17  1  0
 17 18  1  0
 18 19  1  1
 18 24  1  0
 19 20  1  0
 19 23  1  0
 20 21  2  0
 21 22  1  0
 22 23  2  0
 24 25  1  0
 26 27  2  0
M  END
