
     RDKit          3D

 26 30  0  0  0  0  0  0  0  0999 V2000
   -4.8030   -2.1190    0.0550 C   0  0  0  0  0  0  0  0  0  0  0  0
   -4.3820   -1.3970    1.0850 C   0  0  0  0  0  0  0  0  0  0  0  0
   -3.0690   -0.7270    1.1870 C   0  0  2  0  0  0  0  0  0  0  0  0
   -3.2110    0.7440    1.4800 C   0  0  0  0  0  0  0  0  0  0  0  0
   -3.9490    1.4480    0.4650 N   0  0  0  0  0  0  0  0  0  0  0  0
   -5.2540    1.6940    0.3440 C   0  0  0  0  0  0  0  0  0  0  0  0
   -5.4880    2.3950   -0.7800 N   0  0  0  0  0  0  0  0  0  0  0  0
   -4.2930    2.5770   -1.3530 C   0  0  0  0  0  0  0  0  0  0  0  0
   -3.3670    1.9970   -0.5880 N   0  0  0  0  0  0  0  0  0  0  0  0
   -2.1720   -0.9820    0.0100 C   0  0  1  0  0  0  0  0  0  0  0  0
   -0.7590   -0.9710    0.4010 C   0  0  0  0  0  0  0  0  0  0  0  0
   -0.1120   -1.7060    1.3900 C   0  0  0  0  0  0  0  0  0  0  0  0
    1.1800   -1.3470    1.3650 N   0  0  0  0  0  0  0  0  0  0  0  0
    1.4120   -0.4440    0.4420 N   0  0  0  0  0  0  0  0  0  0  0  0
    2.6820    0.1630    0.1390 C   0  0  0  0  0  0  0  0  0  0  0  0
    2.7060    1.3580   -0.4490 N   0  0  0  0  0  0  0  0  0  0  0  0
    3.8700    1.9770   -0.7570 C   0  0  0  0  0  0  0  0  0  0  0  0
    5.0760    1.3750   -0.4650 C   0  0  0  0  0  0  0  0  0  0  0  0
    5.0210    0.1330    0.1470 C   0  0  0  0  0  0  0  0  0  0  0  0
    3.8390   -0.4430    0.4340 N   0  0  0  0  0  0  0  0  0  0  0  0
    6.4110   -0.3430    0.3770 C   0  0  0  0  0  0  0  0  0  0  0  0
    7.1710    0.9670    0.4610 C   0  0  0  0  0  0  0  0  0  0  0  0
    6.4990    1.7610   -0.6590 C   0  0  0  0  0  0  0  0  0  0  0  0
    0.2350   -0.2000   -0.1610 C   0  0  0  0  0  0  0  0  0  0  0  0
   -2.4780   -2.3810   -0.5210 C   0  0  0  0  0  0  0  0  0  0  0  0
   -3.8910   -2.2830   -1.1100 C   0  0  0  0  0  0  0  0  0  0  0  0
  1  2  2  0
  1 26  1  0
  2  3  1  0
  3  4  1  6
  3 10  1  0
  4  5  1  0
  5  6  1  0
  5  9  1  0
  6  7  2  0
  7  8  1  0
  8  9  2  0
 10 11  1  1
 10 25  1  0
 11 12  1  0
 11 24  2  0
 12 13  2  0
 13 14  1  0
 14 15  1  0
 14 24  1  0
 15 16  2  0
 15 20  1  0
 16 17  1  0
 17 18  2  0
 18 19  1  0
 18 23  1  0
 19 20  2  0
 19 21  1  0
 21 22  1  0
 22 23  1  0
 25 26  1  0
M  END
