
     RDKit          3D

 27 31  0  0  0  0  0  0  0  0999 V2000
   -2.2900    2.2100    3.1780 C   0  0  0  0  0  0  0  0  0  0  0  0
   -1.9300    1.1520    2.2290 C   0  0  0  0  0  0  0  0  0  0  0  0
   -1.1740    0.0800    2.5060 N   0  0  0  0  0  0  0  0  0  0  0  0
   -1.0590   -0.6530    1.4250 N   0  0  0  0  0  0  0  0  0  0  0  0
   -1.7200   -0.1030    0.4190 C   0  0  0  0  0  0  0  0  0  0  0  0
   -2.2690    1.0340    0.9270 N   0  0  0  0  0  0  0  0  0  0  0  0
   -3.0380    1.7170   -0.0950 C   0  0  0  0  0  0  0  0  0  0  0  0
   -3.3070    0.6010   -1.0990 C   0  0  0  0  0  0  0  0  0  0  0  0
   -2.0720   -0.2780   -0.9720 C   0  0  0  0  0  0  0  0  0  0  0  0
   -1.5640   -0.9230   -1.9850 C   0  0  0  0  0  0  0  0  0  0  0  0
   -2.2560   -0.8630   -3.3110 C   0  0  0  0  0  0  0  0  0  0  0  0
   -1.7680   -1.4840   -4.3570 C   0  0  0  0  0  0  0  0  0  0  0  0
   -0.5470   -2.2510   -4.2820 C   0  0  0  0  0  0  0  0  0  0  0  0
    0.0810   -2.3350   -3.1800 N   0  0  0  0  0  0  0  0  0  0  0  0
   -0.3880   -1.6820   -1.9870 N   0  0  0  0  0  0  0  0  0  0  0  0
    0.4180   -1.8270   -0.8360 C   0  0  0  0  0  0  0  0  0  0  0  0
    0.4650   -2.9790   -0.0580 C   0  0  0  0  0  0  0  0  0  0  0  0
    1.3360   -3.0580    1.0150 C   0  0  0  0  0  0  0  0  0  0  0  0
    2.1570   -1.9910    1.3090 C   0  0  0  0  0  0  0  0  0  0  0  0
    2.0960   -0.8680    0.5330 C   0  0  0  0  0  0  0  0  0  0  0  0
    2.9590    0.2990    0.8130 C   0  0  0  0  0  0  0  0  0  0  0  0
    3.8610    0.3530    1.8390 C   0  0  0  0  0  0  0  0  0  0  0  0
    4.6630    1.4750    2.0770 C   0  0  0  0  0  0  0  0  0  0  0  0
    4.5190    2.5480    1.2340 C   0  0  0  0  0  0  0  0  0  0  0  0
    3.6040    2.4750    0.2070 C   0  0  0  0  0  0  0  0  0  0  0  0
    2.8490    1.3860    0.0030 N   0  0  0  0  0  0  0  0  0  0  0  0
    1.2410   -0.8280   -0.4970 N   0  0  0  0  0  0  0  0  0  0  0  0
  1  2  1  0
  2  3  2  0
  2  6  1  0
  3  4  1  0
  4  5  2  0
  5  6  1  0
  5  9  1  0
  6  7  1  0
  7  8  1  0
  8  9  1  0
  9 10  2  3
 10 11  1  0
 10 15  1  0
 11 12  2  0
 12 13  1  0
 13 14  2  0
 14 15  1  0
 15 16  1  0
 16 17  2  0
 16 27  1  0
 17 18  1  0
 18 19  2  0
 19 20  1  0
 20 21  1  0
 20 27  2  0
 21 22  2  0
 21 26  1  0
 22 23  1  0
 23 24  2  0
 24 25  1  0
 25 26  2  0
M  END
