
     RDKit          3D

 20 20  0  0  0  0  0  0  0  0999 V2000
   -3.5460   -2.2350   -0.0370 C   0  0  0  0  0  0  0  0  0  0  0  0
   -2.5430   -1.4860    0.5290 O   0  0  0  0  0  0  0  0  0  0  0  0
   -1.9280   -0.6110   -0.3330 C   0  0  2  0  0  0  0  0  0  0  0  0
   -0.5700   -0.8550   -0.5070 O   0  0  0  0  0  0  0  0  0  0  0  0
   -0.1420   -2.0470    0.0090 C   0  0  0  0  0  0  0  0  0  0  0  0
    1.1860   -1.9540    0.7260 C   0  0  1  0  0  0  0  0  0  0  0  0
    1.4410   -3.2250    1.2570 O   0  0  0  0  0  0  0  0  0  0  0  0
    2.3070   -1.5260   -0.1670 C   0  0  2  0  0  0  0  0  0  0  0  0
    3.3410   -2.4830   -0.0900 O   0  0  0  0  0  0  0  0  0  0  0  0
    2.9430   -0.2210    0.3150 C   0  0  1  0  0  0  0  0  0  0  0  0
    4.3710   -0.2400    0.2100 N   0  0  0  0  0  0  0  0  0  0  0  0
    2.4230    0.9580   -0.5060 C   0  0  0  0  0  0  0  0  0  0  0  0
    1.5590    1.6590    0.3000 O   0  0  0  0  0  0  0  0  0  0  0  0
    1.1070    2.8440   -0.2340 C   0  0  0  0  0  0  0  0  0  0  0  0
   -0.1040    3.2690    0.5910 C   0  0  0  0  0  0  0  0  0  0  0  0
   -1.2930    3.0160   -0.0450 O   0  0  0  0  0  0  0  0  0  0  0  0
   -1.3800    1.7860   -0.6490 C   0  0  0  0  0  0  0  0  0  0  0  0
   -2.1720    0.7990    0.1810 C   0  0  1  0  0  0  0  0  0  0  0  0
   -3.6510    1.0940    0.1240 C   0  0  0  0  0  0  0  0  0  0  0  0
   -4.1250    0.9980   -1.1920 O   0  0  0  0  0  0  0  0  0  0  0  0
  1  2  1  0
  3  2  1  1
  3  4  1  0
  3 18  1  0
  4  5  1  0
  5  6  1  0
  6  7  1  6
  6  8  1  0
  8  9  1  1
  8 10  1  0
 10 11  1  6
 10 12  1  0
 12 13  1  0
 13 14  1  0
 14 15  1  0
 15 16  1  0
 16 17  1  0
 17 18  1  0
 18 19  1  6
 19 20  1  0
M  CHG  1  11   1
M  END
