
     RDKit          3D

  9  9  0  0  0  0  0  0  0  0999 V2000
    2.0100    0.7470    1.0970 O   0  0  0  0  0  0  0  0  0  0  0  0
    2.0850    0.2040   -0.0510 C   0  0  0  0  0  0  0  0  0  0  0  0
    2.9630    0.7960   -0.9410 O   0  0  0  0  0  0  0  0  0  0  0  0
    1.2460   -0.9800   -0.3240 C   0  0  0  0  0  0  0  0  0  0  0  0
   -0.1760   -0.4920   -0.2060 C   0  0  0  0  0  0  0  0  0  0  0  0
   -0.8800   -0.1820    0.9240 C   0  0  0  0  0  0  0  0  0  0  0  0
   -2.1540    0.2260    0.7780 C   0  0  0  0  0  0  0  0  0  0  0  0
   -2.6770    0.3140   -0.4080 C   0  0  0  0  0  0  0  0  0  0  0  0
   -1.3230   -0.2070   -1.5200 S   0  0  0  0  0  0  0  0  0  0  0  0
  1  2  2  0
  2  3  1  0
  2  4  1  0
  4  5  1  0
  5  6  2  0
  5  9  1  0
  6  7  1  0
  7  8  2  0
  8  9  1  0
M  END
