
     RDKit          3D

 20 21  0  0  0  0  0  0  0  0999 V2000
    0.8290   -3.1720   -0.7230 N   0  0  0  0  0  0  0  0  0  0  0  0
    0.2260   -1.9770   -1.2460 C   0  0  2  0  0  0  0  0  0  0  0  0
    1.2780   -1.1430   -1.9510 C   0  0  0  0  0  0  0  0  0  0  0  0
    1.5060   -0.4750   -0.6140 C   0  0  1  0  0  0  0  0  0  0  0  0
    1.7090    0.8840   -0.7750 O   0  0  0  0  0  0  0  0  0  0  0  0
    2.8360    1.2320   -0.0350 C   0  0  0  0  0  0  0  0  0  0  0  0
    3.1200    2.5920   -0.1390 O   0  0  0  0  0  0  0  0  0  0  0  0
    4.2330    2.9550    0.5890 C   0  0  0  0  0  0  0  0  0  0  0  0
    4.1390    2.7090    1.9360 O   0  0  0  0  0  0  0  0  0  0  0  0
    0.0380   -0.8420   -0.2880 C   0  0  1  0  0  0  0  0  0  0  0  0
   -0.8230    0.2490   -0.8040 C   0  0  0  0  0  0  0  0  0  0  0  0
   -2.2160   -0.0850   -1.1780 C   0  0  1  0  0  0  0  0  0  0  0  0
   -3.0760   -0.6320   -0.0640 C   0  0  0  0  0  0  0  0  0  0  0  0
   -4.4320   -0.2620   -0.2640 O   0  0  0  0  0  0  0  0  0  0  0  0
   -4.6240    1.0750   -0.0160 C   0  0  0  0  0  0  0  0  0  0  0  0
   -3.3870    1.8080   -0.5280 C   0  0  0  0  0  0  0  0  0  0  0  0
   -2.8460    1.1140   -1.5930 O   0  0  0  0  0  0  0  0  0  0  0  0
   -0.0200   -1.1780    1.1650 C   0  0  1  0  0  0  0  0  0  0  0  0
   -0.2060    0.0410    1.8600 O   0  0  0  0  0  0  0  0  0  0  0  0
   -0.9550   -2.1080    1.5330 O   0  0  0  0  0  0  0  0  0  0  0  0
  2  1  1  1
  2  3  1  0
  2 10  1  0
  3  4  1  0
  4  5  1  6
  4 10  1  0
  5  6  1  0
  6  7  1  0
  7  8  1  0
  8  9  1  0
 10 11  1  6
 10 18  1  0
 12 11  1  1
 12 13  1  0
 12 17  1  0
 13 14  1  0
 14 15  1  0
 15 16  1  0
 16 17  1  0
 18 19  1  1
 18 20  1  0
M  CHG  1   1   1
M  END
