
     RDKit          3D

 20 20  0  0  0  0  0  0  0  0999 V2000
    5.0650    1.1130   -1.1600 C   0  0  0  0  0  0  0  0  0  0  0  0
    4.1160    0.1710   -0.6540 O   0  0  0  0  0  0  0  0  0  0  0  0
    2.8350    0.1820   -1.1170 C   0  0  0  0  0  0  0  0  0  0  0  0
    2.4720    1.0060   -1.9810 O   0  0  0  0  0  0  0  0  0  0  0  0
    1.7520   -0.7830   -0.6360 C   0  0  1  0  0  0  0  0  0  0  0  0
    2.3880   -1.5500    0.2740 O   0  0  0  0  0  0  0  0  0  0  0  0
    0.6640    0.1300   -0.2070 C   0  0  0  0  0  0  0  0  0  0  0  0
   -0.6110   -0.4070    0.3420 C   0  0  1  0  0  0  0  0  0  0  0  0
   -1.5470    0.7050    0.6800 C   0  0  2  0  0  0  0  0  0  0  0  0
   -2.8080    0.1920    1.2580 N   0  0  0  0  0  0  0  0  0  0  0  0
   -2.0630    1.6110   -0.4100 C   0  0  1  0  0  0  0  0  0  0  0  0
   -2.9290    2.5190    0.3830 O   0  0  0  0  0  0  0  0  0  0  0  0
   -1.1320    2.5930   -1.0290 C   0  0  0  0  0  0  0  0  0  0  0  0
   -0.3350    3.2420   -0.0950 O   0  0  0  0  0  0  0  0  0  0  0  0
   -1.1570   -1.3320   -0.7230 C   0  0  0  0  0  0  0  0  0  0  0  0
   -2.1020   -2.3860   -0.2970 C   0  0  0  0  0  0  0  0  0  0  0  0
   -1.7810   -3.0880    0.8270 O   0  0  0  0  0  0  0  0  0  0  0  0
   -0.5010   -2.7340    1.2640 C   0  0  0  0  0  0  0  0  0  0  0  0
   -0.3690   -1.2880    1.5620 C   0  0  1  0  0  0  0  0  0  0  0  0
    0.8620   -1.0620    2.1290 O   0  0  0  0  0  0  0  0  0  0  0  0
  1  2  1  0
  2  3  1  0
  3  4  2  0
  3  5  1  0
  5  6  1  1
  5  7  1  0
  8  7  1  6
  8  9  1  0
  8 15  1  0
  8 19  1  0
  9 10  1  6
  9 11  1  0
 11 12  1  1
 11 13  1  0
 13 14  1  0
 15 16  1  0
 16 17  1  0
 17 18  1  0
 18 19  1  0
 19 20  1  6
M  CHG  1  10   1
M  END
