
     RDKit          3D

 41 43  0  0  0  0  0  0  0  0999 V2000
    5.4340   -4.4160    4.1730 C   0  0  0  0  0  0  0  0  0  0  0  0
    4.3830   -3.7570    3.3820 C   0  0  0  0  0  0  0  0  0  0  0  0
    4.6010   -2.9530    2.3640 C   0  0  0  0  0  0  0  0  0  0  0  0
    3.4160   -2.3970    1.7110 N   0  0  0  0  0  0  0  0  0  0  0  0
    3.1330   -1.0350    1.8490 C   0  0  0  0  0  0  0  0  0  0  0  0
    4.0560   -0.4630    2.6270 O   0  0  0  0  0  0  0  0  0  0  0  0
    2.1070   -0.1680    1.3590 C   0  0  0  0  0  0  0  0  0  0  0  0
    2.1660    1.1510    1.8670 C   0  0  0  0  0  0  0  0  0  0  0  0
    3.1820    1.4780    2.8070 N   0  0  0  0  0  0  0  0  0  0  0  0
    1.2770    2.0400    1.4730 N   0  0  0  0  0  0  0  0  0  0  0  0
    0.2910    1.8270    0.6200 C   0  0  0  0  0  0  0  0  0  0  0  0
   -0.5720    2.9420    0.1980 C   0  0  0  0  0  0  0  0  0  0  0  0
    0.1550    0.5440    0.0700 C   0  0  0  0  0  0  0  0  0  0  0  0
   -1.0040    0.2810   -0.7180 C   0  0  0  0  0  0  0  0  0  0  0  0
   -1.4140   -0.8810   -1.4680 C   0  0  0  0  0  0  0  0  0  0  0  0
   -1.8990    1.2930   -0.8170 N   0  0  0  0  0  0  0  0  0  0  0  0
   -3.0610    1.1170   -1.5680 N   0  0  0  0  0  0  0  0  0  0  0  0
   -4.3330    0.7260   -1.1260 C   0  0  0  0  0  0  0  0  0  0  0  0
   -5.2340    0.5980   -2.0510 O   0  0  0  0  0  0  0  0  0  0  0  0
   -4.7730    0.4440    0.2290 C   0  0  0  0  0  0  0  0  0  0  0  0
   -6.0370    0.0400    0.5350 C   0  0  0  0  0  0  0  0  0  0  0  0
   -7.2930   -0.1970   -0.6360 Cl  0  0  0  0  0  0  0  0  0  0  0  0
   -6.1090   -0.1300    1.9720 C   0  0  0  0  0  0  0  0  0  0  0  0
   -4.7930    0.2170    2.4950 C   0  0  0  0  0  0  0  0  0  0  0  0
   -4.0210    0.5500    1.4460 C   0  0  0  0  0  0  0  0  0  0  0  0
   -2.7140    0.9370    1.6230 F   0  0  0  0  0  0  0  0  0  0  0  0
   -2.9460    1.3780   -2.9890 C   0  0  0  0  0  0  0  0  0  0  0  0
   -3.9590    1.1930   -3.6940 O   0  0  0  0  0  0  0  0  0  0  0  0
   -1.7220    1.8440   -3.6060 C   0  0  1  0  0  0  0  0  0  0  0  0
   -1.7610    1.6480   -5.1430 C   0  0  0  0  0  0  0  0  0  0  0  0
   -2.8230    2.6250   -5.4950 C   0  0  0  0  0  0  0  0  0  0  0  0
   -2.7770    3.6320   -4.6300 C   0  0  0  0  0  0  0  0  0  0  0  0
   -1.6790    3.3940   -3.6370 C   0  0  0  0  0  0  0  0  0  0  0  0
    1.0900   -0.4270    0.4630 C   0  0  0  0  0  0  0  0  0  0  0  0
    1.0240   -1.7840   -0.1490 C   0  0  0  0  0  0  0  0  0  0  0  0
    0.2380   -2.9770    0.8820 Cl  0  0  0  0  0  0  0  0  0  0  0  0
    5.9200   -2.6470    1.8860 C   0  0  0  0  0  0  0  0  0  0  0  0
    6.9920   -3.2480    2.5940 O   0  0  0  0  0  0  0  0  0  0  0  0
    6.2230   -1.8710    0.8630 C   0  0  0  0  0  0  0  0  0  0  0  0
    7.5160   -1.6680    0.5260 F   0  0  0  0  0  0  0  0  0  0  0  0
    5.2980   -1.2760    0.1050 F   0  0  0  0  0  0  0  0  0  0  0  0
  1  2  1  0
  2  3  2  3
  3  4  1  0
  3 37  1  0
  4  5  1  0
  5  6  2  0
  5  7  1  0
  7  8  2  0
  7 34  1  0
  8  9  1  0
  8 10  1  0
 10 11  2  0
 11 12  1  0
 11 13  1  0
 13 14  1  0
 13 34  2  0
 14 15  1  0
 14 16  2  3
 16 17  1  0
 17 18  1  0
 17 27  1  0
 18 19  2  0
 18 20  1  0
 20 21  2  0
 20 25  1  0
 21 22  1  0
 21 23  1  0
 23 24  1  0
 24 25  2  0
 25 26  1  0
 27 28  2  0
 29 27  1  1
 29 30  1  0
 29 33  1  0
 30 31  1  0
 31 32  2  0
 32 33  1  0
 34 35  1  0
 35 36  1  0
 37 38  1  0
 37 39  2  3
 39 40  1  0
 39 41  1  0
M  END
