
     RDKit          3D

 41 43  0  0  0  0  0  0  0  0999 V2000
    2.3960   -0.2600    3.0000 C   0  0  0  0  0  0  0  0  0  0  0  0
    2.7920   -0.1660    1.5860 N   0  0  0  0  0  0  0  0  0  0  0  0
    1.7830   -0.3840    0.6270 C   0  0  0  0  0  0  0  0  0  0  0  0
    1.9380   -0.3440   -0.6190 O   0  0  0  0  0  0  0  0  0  0  0  0
    0.3700   -0.7000    1.0670 C   0  0  0  0  0  0  0  0  0  0  0  0
   -0.5090   -0.7520   -0.1520 C   0  0  0  0  0  0  0  0  0  0  0  0
   -0.5580    0.5000   -0.9020 C   0  0  0  0  0  0  0  0  0  0  0  0
   -1.5120    1.3400   -0.7350 N   0  0  0  0  0  0  0  0  0  0  0  0
   -2.5230    1.0410    0.1890 N   0  0  0  0  0  0  0  0  0  0  0  0
   -2.5180    1.2960    1.5050 C   0  0  0  0  0  0  0  0  0  0  0  0
   -3.6750    0.8760    2.0880 C   0  0  0  0  0  0  0  0  0  0  0  0
   -4.4200    0.3340    1.0520 C   0  0  0  0  0  0  0  0  0  0  0  0
   -3.7200    0.4330   -0.1200 C   0  0  0  0  0  0  0  0  0  0  0  0
   -4.0410   -0.0780   -1.4220 C   0  0  0  0  0  0  0  0  0  0  0  0
   -5.0620   -0.3990   -2.0960 C   0  0  0  0  0  0  0  0  0  0  0  0
   -6.4820   -0.4340   -1.9730 C   0  0  0  0  0  0  0  0  0  0  0  0
   -7.1940   -0.9540   -2.9430 O   0  0  0  0  0  0  0  0  0  0  0  0
   -7.2700    0.0390   -0.9200 N   0  0  0  0  0  0  0  0  0  0  0  0
   -8.7140   -0.0790   -0.9260 C   0  0  0  0  0  0  0  0  0  0  0  0
   -9.4740    0.9260   -1.4830 C   0  0  0  0  0  0  0  0  0  0  0  0
   -8.8730    2.0200   -2.0300 F   0  0  0  0  0  0  0  0  0  0  0  0
  -10.8530    0.8680   -1.5110 C   0  0  0  0  0  0  0  0  0  0  0  0
  -11.4980   -0.2350   -0.9620 C   0  0  0  0  0  0  0  0  0  0  0  0
  -12.8520   -0.2610   -1.0050 F   0  0  0  0  0  0  0  0  0  0  0  0
  -10.7620   -1.2520   -0.4000 C   0  0  0  0  0  0  0  0  0  0  0  0
  -11.6040   -2.6130    0.2780 Cl  0  0  0  0  0  0  0  0  0  0  0  0
   -9.3670   -1.1610   -0.3880 C   0  0  0  0  0  0  0  0  0  0  0  0
   -8.6390   -2.1520    0.1600 F   0  0  0  0  0  0  0  0  0  0  0  0
    4.1090    0.1250    1.3050 C   0  0  0  0  0  0  0  0  0  0  0  0
    4.9780    0.3130    2.2360 O   0  0  0  0  0  0  0  0  0  0  0  0
    4.6430    0.2480    0.0050 N   0  0  0  0  0  0  0  0  0  0  0  0
    6.0360    0.5520   -0.2480 C   0  0  0  0  0  0  0  0  0  0  0  0
    6.9910   -0.4500    0.2860 C   0  0  0  0  0  0  0  0  0  0  0  0
    8.4020   -0.1170    0.0110 C   0  0  0  0  0  0  0  0  0  0  0  0
    9.1910    0.4190    1.0030 C   0  0  0  0  0  0  0  0  0  0  0  0
   10.5120    0.7640    0.8240 C   0  0  0  0  0  0  0  0  0  0  0  0
   11.4770    1.4520    2.1390 Cl  0  0  0  0  0  0  0  0  0  0  0  0
   11.0950    0.5710   -0.4060 C   0  0  0  0  0  0  0  0  0  0  0  0
   10.3380    0.0380   -1.4150 C   0  0  0  0  0  0  0  0  0  0  0  0
    9.0170   -0.3000   -1.2130 C   0  0  0  0  0  0  0  0  0  0  0  0
    8.2840   -0.8440   -2.2780 O   0  0  0  0  0  0  0  0  0  0  0  0
  1  2  1  0
  2  3  1  0
  2 29  1  0
  3  4  2  0
  3  5  1  0
  5  6  1  0
  6  7  1  0
  7  8  2  3
  8  9  1  0
  9 10  1  0
  9 13  1  0
 10 11  2  0
 11 12  1  0
 12 13  2  0
 13 14  1  0
 14 15  2  3
 15 16  1  0
 16 17  2  0
 16 18  1  0
 18 19  1  0
 19 20  2  0
 19 27  1  0
 20 21  1  0
 20 22  1  0
 22 23  2  0
 23 24  1  0
 23 25  1  0
 25 26  1  0
 25 27  2  0
 27 28  1  0
 29 30  2  0
 29 31  1  0
 31 32  1  0
 32 33  1  0
 33 34  1  0
 34 35  2  0
 34 40  1  0
 35 36  1  0
 36 37  1  0
 36 38  2  0
 38 39  1  0
 39 40  2  0
 40 41  1  0
M  END
