
     RDKit          3D

 41 43  0  0  0  0  0  0  0  0999 V2000
   -7.1440   -2.9960    1.5110 C   0  0  0  0  0  0  0  0  0  0  0  0
   -6.2060   -2.9100    0.5520 C   0  0  0  0  0  0  0  0  0  0  0  0
   -4.7940   -2.9800    0.8790 C   0  0  0  0  0  0  0  0  0  0  0  0
   -4.3340   -3.1810    2.5530 Cl  0  0  0  0  0  0  0  0  0  0  0  0
   -3.8550   -2.9040   -0.0280 C   0  0  0  0  0  0  0  0  0  0  0  0
   -2.4770   -2.9730    0.3030 N   0  0  0  0  0  0  0  0  0  0  0  0
   -1.7560   -1.9450    1.0270 C   0  0  0  0  0  0  0  0  0  0  0  0
   -1.6760   -0.7290    0.1410 C   0  0  0  0  0  0  0  0  0  0  0  0
   -0.9410    0.4160    0.8120 C   0  0  0  0  0  0  0  0  0  0  0  0
   -0.2340    0.1940    1.9610 C   0  0  0  0  0  0  0  0  0  0  0  0
    0.4750    1.2380    2.6450 N   0  0  0  0  0  0  0  0  0  0  0  0
    1.3550    2.1890    2.2940 N   0  0  0  0  0  0  0  0  0  0  0  0
    2.3530    2.3540    1.5130 C   0  0  0  0  0  0  0  0  0  0  0  0
    2.9380    3.7430    1.5940 C   0  0  0  0  0  0  0  0  0  0  0  0
    2.8700    4.4980    0.2960 C   0  0  0  0  0  0  0  0  0  0  0  0
    3.0380    1.4940    0.5920 C   0  0  0  0  0  0  0  0  0  0  0  0
    4.3410    1.5400    0.8170 O   0  0  0  0  0  0  0  0  0  0  0  0
    2.7480    0.6130   -0.4810 N   0  0  0  0  0  0  0  0  0  0  0  0
    3.4640   -0.6620   -0.4480 C   0  0  0  0  0  0  0  0  0  0  0  0
    2.8420   -1.7740    0.2500 C   0  0  0  0  0  0  0  0  0  0  0  0
    1.9830   -2.6860   -0.3180 C   0  0  0  0  0  0  0  0  0  0  0  0
    1.6350   -3.5690    0.6780 C   0  0  0  0  0  0  0  0  0  0  0  0
    2.3030   -3.1430    1.8040 C   0  0  0  0  0  0  0  0  0  0  0  0
    2.1980   -3.8410    3.1380 C   0  0  0  0  0  0  0  0  0  0  0  0
    3.0050   -2.0910    1.5400 O   0  0  0  0  0  0  0  0  0  0  0  0
    1.9260    0.8150   -1.6560 C   0  0  0  0  0  0  0  0  0  0  0  0
    1.5780   -0.1740   -2.3920 O   0  0  0  0  0  0  0  0  0  0  0  0
    1.4070    2.0950   -2.1600 C   0  0  0  0  0  0  0  0  0  0  0  0
    1.9610    2.5240   -3.3810 C   0  0  0  0  0  0  0  0  0  0  0  0
    1.6640    3.7350   -3.9720 C   0  0  0  0  0  0  0  0  0  0  0  0
    0.7880    4.6040   -3.3810 C   0  0  0  0  0  0  0  0  0  0  0  0
    0.4470    5.7980   -3.8880 F   0  0  0  0  0  0  0  0  0  0  0  0
    0.2380    4.1940   -2.1950 C   0  0  0  0  0  0  0  0  0  0  0  0
    0.4940    2.9830   -1.5480 C   0  0  0  0  0  0  0  0  0  0  0  0
   -0.2850    2.6930   -0.3830 N   0  0  0  0  0  0  0  0  0  0  0  0
   -1.1050    1.7410    0.1910 C   0  0  0  0  0  0  0  0  0  0  0  0
   -2.3950    2.0720    0.2060 O   0  0  0  0  0  0  0  0  0  0  0  0
   -4.2260   -2.7500   -1.4560 C   0  0  2  0  0  0  0  0  0  0  0  0
   -4.9390   -1.5850   -1.5880 F   0  0  0  0  0  0  0  0  0  0  0  0
   -5.0510   -3.8210   -1.8280 F   0  0  0  0  0  0  0  0  0  0  0  0
   -2.7910   -2.7760   -2.5140 Cl  0  0  0  0  0  0  0  0  0  0  0  0
  1  2  2  0
  2  3  1  0
  3  4  1  0
  3  5  2  3
  5  6  1  0
  5 38  1  0
  6  7  1  0
  7  8  1  0
  8  9  1  0
  9 10  2  0
  9 36  1  0
 10 11  1  0
 11 12  1  0
 12 13  2  0
 13 14  1  0
 13 16  1  0
 14 15  1  0
 16 17  2  0
 16 18  1  0
 18 19  1  0
 18 26  1  0
 19 20  1  0
 20 21  2  0
 20 25  1  0
 21 22  1  0
 22 23  2  0
 23 24  1  0
 23 25  1  0
 26 27  2  0
 26 28  1  0
 28 29  2  0
 28 34  1  0
 29 30  1  0
 30 31  2  0
 31 32  1  0
 31 33  1  0
 33 34  2  0
 34 35  1  0
 35 36  1  0
 36 37  2  0
 38 39  1  1
 38 40  1  0
 38 41  1  0
M  END
