
     RDKit          3D

 40 45  0  0  0  0  0  0  0  0999 V2000
    6.2030    4.9820    0.2770 C   0  0  0  0  0  0  0  0  0  0  0  0
    5.7820    3.7740    1.0870 C   0  0  2  0  0  0  0  0  0  0  0  0
    6.8500    2.7310    1.0970 C   0  0  0  0  0  0  0  0  0  0  0  0
    6.3900    1.4200    1.1750 O   0  0  0  0  0  0  0  0  0  0  0  0
    5.0920    1.0160    0.9570 C   0  0  0  0  0  0  0  0  0  0  0  0
    4.7180   -0.2710    1.0040 N   0  0  0  0  0  0  0  0  0  0  0  0
    3.4820   -0.7300    0.8030 C   0  0  0  0  0  0  0  0  0  0  0  0
    3.1030   -2.0150    0.8520 O   0  0  0  0  0  0  0  0  0  0  0  0
    3.6130   -3.2510    1.0640 C   0  0  0  0  0  0  0  0  0  0  0  0
    4.6250   -3.6520    0.0670 C   0  0  0  0  0  0  0  0  0  0  0  0
    4.4270   -4.7420   -0.7050 C   0  0  0  0  0  0  0  0  0  0  0  0
    5.6010   -4.8590   -1.5700 C   0  0  0  0  0  0  0  0  0  0  0  0
    6.4520   -3.7640   -1.2030 N   0  0  0  0  0  0  0  0  0  0  0  0
    5.9000   -3.0740   -0.2720 C   0  0  0  0  0  0  0  0  0  0  0  0
    2.4700    0.2160    0.5150 C   0  0  0  0  0  0  0  0  0  0  0  0
    1.1490   -0.2360    0.2970 N   0  0  0  0  0  0  0  0  0  0  0  0
    0.0130    0.5440   -0.0010 C   0  0  0  0  0  0  0  0  0  0  0  0
    0.1070    1.7820   -0.0980 O   0  0  0  0  0  0  0  0  0  0  0  0
   -1.3050   -0.1570   -0.1940 C   0  0  0  0  0  0  0  0  0  0  0  0
   -2.3440    0.8820   -0.4940 C   0  0  2  0  0  0  0  0  0  0  0  0
   -2.4030    1.8280    0.6780 C   0  0  0  0  0  0  0  0  0  0  0  0
   -2.1620    3.0340    0.5600 O   0  0  0  0  0  0  0  0  0  0  0  0
   -2.7570    1.2190    1.9150 N   0  0  0  0  0  0  0  0  0  0  0  0
   -3.6120    0.0830    1.9450 C   0  0  0  0  0  0  0  0  0  0  0  0
   -3.9790   -0.5490    3.0980 C   0  0  0  0  0  0  0  0  0  0  0  0
   -4.8160   -1.6570    3.0180 C   0  0  0  0  0  0  0  0  0  0  0  0
   -5.2730   -2.1170    1.7930 C   0  0  0  0  0  0  0  0  0  0  0  0
   -4.9020   -1.4770    0.6270 C   0  0  0  0  0  0  0  0  0  0  0  0
   -4.0740   -0.3790    0.7060 C   0  0  0  0  0  0  0  0  0  0  0  0
   -3.6990    0.2720   -0.4960 N   0  0  0  0  0  0  0  0  0  0  0  0
   -4.5360    0.4040   -1.6150 C   0  0  0  0  0  0  0  0  0  0  0  0
   -3.9600    0.9740   -2.6310 O   0  0  0  0  0  0  0  0  0  0  0  0
   -5.9140    0.0240   -1.8380 C   0  0  2  0  0  0  0  0  0  0  0  0
   -6.5370    0.8460   -2.9970 C   0  0  0  0  0  0  0  0  0  0  0  0
   -8.0270    0.7270   -2.8160 C   0  0  0  0  0  0  0  0  0  0  0  0
   -8.3480    1.3080   -1.4390 C   0  0  0  0  0  0  0  0  0  0  0  0
   -6.9650    0.5740   -0.4760 S   0  0  0  0  0  0  0  0  0  0  0  0
    2.8480    1.5290    0.4660 C   0  0  0  0  0  0  0  0  0  0  0  0
    4.1470    1.9760    0.6800 C   0  0  0  0  0  0  0  0  0  0  0  0
    4.5310    3.2890    0.6320 O   0  0  0  0  0  0  0  0  0  0  0  0
  2  1  1  6
  2  3  1  0
  2 40  1  0
  3  4  1  0
  4  5  1  0
  5  6  2  0
  5 39  1  0
  6  7  1  0
  7  8  1  0
  7 15  2  0
  8  9  1  0
  9 10  1  0
 10 11  2  0
 10 14  1  0
 11 12  1  0
 12 13  1  0
 13 14  2  0
 15 16  1  0
 15 38  1  0
 16 17  1  0
 17 18  2  0
 17 19  1  0
 20 19  1  1
 20 21  1  0
 20 30  1  0
 21 22  2  0
 21 23  1  0
 23 24  1  0
 24 25  2  0
 24 29  1  0
 25 26  1  0
 26 27  2  0
 27 28  1  0
 28 29  2  0
 29 30  1  0
 30 31  1  0
 31 32  2  0
 33 31  1  1
 33 34  1  0
 33 37  1  0
 34 35  1  0
 35 36  1  0
 36 37  1  0
 38 39  2  0
 39 40  1  0
M  CHG  1  13   1
M  END
