
     RDKit          3D

 40 43  0  0  0  0  0  0  0  0999 V2000
    8.5670    1.5550    1.3320 C   0  0  0  0  0  0  0  0  0  0  0  0
    8.3250    0.8980    0.0170 C   0  0  0  0  0  0  0  0  0  0  0  0
    8.1870   -0.5680    0.0320 C   0  0  1  0  0  0  0  0  0  0  0  0
    9.4120   -1.1040    0.5850 O   0  0  0  0  0  0  0  0  0  0  0  0
    7.0350   -1.2660    0.5880 C   0  0  0  0  0  0  0  0  0  0  0  0
    5.7120   -0.9670    0.1550 N   0  0  0  0  0  0  0  0  0  0  0  0
    5.0640    0.2540    0.3820 C   0  0  0  0  0  0  0  0  0  0  0  0
    5.5580    1.2020    0.9970 O   0  0  0  0  0  0  0  0  0  0  0  0
    3.7010    0.4310   -0.1450 C   0  0  0  0  0  0  0  0  0  0  0  0
    3.1460   -0.5190   -0.7770 O   0  0  0  0  0  0  0  0  0  0  0  0
    3.0450    1.6640    0.0700 N   0  0  0  0  0  0  0  0  0  0  0  0
    1.7340    1.7900   -0.4510 N   0  0  0  0  0  0  0  0  0  0  0  0
    0.6960    0.9730    0.0440 C   0  0  0  0  0  0  0  0  0  0  0  0
    1.0170    0.1390    0.9620 O   0  0  0  0  0  0  0  0  0  0  0  0
   -0.7410    1.0260   -0.4460 C   0  0  1  0  0  0  0  0  0  0  0  0
   -1.3110   -0.1670   -0.0990 N   0  0  0  0  0  0  0  0  0  0  0  0
   -2.1340   -1.0140    0.0330 C   0  0  0  0  0  0  0  0  0  0  0  0
   -1.8510   -2.3250    0.6590 C   0  0  0  0  0  0  0  0  0  0  0  0
   -2.7820   -3.2300    0.7720 C   0  0  0  0  0  0  0  0  0  0  0  0
   -4.1950   -3.0640    0.2970 C   0  0  0  0  0  0  0  0  0  0  0  0
   -4.8950   -4.3210    0.0930 C   0  0  0  0  0  0  0  0  0  0  0  0
   -4.6390   -5.4000    0.8570 C   0  0  0  0  0  0  0  0  0  0  0  0
   -5.4510   -6.5450    0.4460 C   0  0  0  0  0  0  0  0  0  0  0  0
   -6.1390   -6.0720   -0.7530 C   0  0  0  0  0  0  0  0  0  0  0  0
   -5.7990   -4.7790   -0.9110 C   0  0  0  0  0  0  0  0  0  0  0  0
   -6.2290   -4.1400   -2.0320 F   0  0  0  0  0  0  0  0  0  0  0  0
   -4.4870   -1.9230   -0.2480 C   0  0  0  0  0  0  0  0  0  0  0  0
   -3.5120   -0.8660   -0.4090 C   0  0  0  0  0  0  0  0  0  0  0  0
   -4.1250    0.1540   -0.9890 C   0  0  0  0  0  0  0  0  0  0  0  0
   -5.4740   -0.1880   -1.1930 N   0  0  0  0  0  0  0  0  0  0  0  0
   -5.7380   -1.3880   -0.7670 C   0  0  0  0  0  0  0  0  0  0  0  0
   -7.1110   -1.9250   -0.6600 C   0  0  0  0  0  0  0  0  0  0  0  0
   -1.4240    2.1170    0.3590 C   0  0  0  0  0  0  0  0  0  0  0  0
   -2.0740    1.7600    1.3990 O   0  0  0  0  0  0  0  0  0  0  0  0
   -1.3910    3.4760    0.0360 N   0  0  0  0  0  0  0  0  0  0  0  0
   -0.7390    4.0840   -1.0920 C   0  0  0  0  0  0  0  0  0  0  0  0
   -1.5990    5.2810   -1.3610 C   0  0  0  0  0  0  0  0  0  0  0  0
   -1.9480    5.7720    0.0200 C   0  0  1  0  0  0  0  0  0  0  0  0
   -3.1650    6.4540    0.0340 O   0  0  0  0  0  0  0  0  0  0  0  0
   -2.0460    4.5250    0.8300 C   0  0  0  0  0  0  0  0  0  0  0  0
  1  2  1  0
  2  3  1  0
  3  4  1  1
  3  5  1  0
  5  6  1  0
  6  7  1  0
  7  8  2  0
  7  9  1  0
  9 10  2  0
  9 11  1  0
 11 12  1  0
 12 13  1  0
 13 14  2  0
 13 15  1  0
 15 16  1  1
 15 33  1  0
 16 17  2  3
 17 18  1  0
 17 28  1  0
 18 19  2  0
 19 20  1  0
 20 21  1  0
 20 27  2  0
 21 22  2  0
 21 25  1  0
 22 23  1  0
 23 24  1  0
 24 25  2  0
 25 26  1  0
 27 28  1  0
 27 31  1  0
 28 29  2  0
 29 30  1  0
 30 31  2  0
 31 32  1  0
 33 34  2  0
 33 35  1  0
 35 36  1  0
 35 40  1  0
 36 37  1  0
 37 38  1  0
 38 39  1  6
 38 40  1  0
M  END
