
     RDKit          3D

 39 43  0  0  0  0  0  0  0  0999 V2000
    8.8380   -2.0660   -0.3070 C   0  0  0  0  0  0  0  0  0  0  0  0
    7.6410   -1.4890    0.1420 O   0  0  0  0  0  0  0  0  0  0  0  0
    6.8420   -1.1160   -0.9470 C   0  0  0  0  0  0  0  0  0  0  0  0
    5.5390   -0.5440   -0.3620 C   0  0  2  0  0  0  0  0  0  0  0  0
    4.9840   -1.5310    0.4260 O   0  0  0  0  0  0  0  0  0  0  0  0
    4.6400   -0.1100   -1.4880 C   0  0  0  0  0  0  0  0  0  0  0  0
    3.4200    0.4590   -1.1100 N   0  0  0  0  0  0  0  0  0  0  0  0
    2.4140   -0.0790   -0.2670 C   0  0  0  0  0  0  0  0  0  0  0  0
    2.6450   -1.1450    0.3050 O   0  0  0  0  0  0  0  0  0  0  0  0
    1.1760    0.5790   -0.0810 N   0  0  0  0  0  0  0  0  0  0  0  0
    0.1590    0.1290    0.8630 C   0  0  1  0  0  0  0  0  0  0  0  0
   -1.0790    0.8920    0.6900 C   0  0  0  0  0  0  0  0  0  0  0  0
   -1.0250    2.2770    0.8400 C   0  0  0  0  0  0  0  0  0  0  0  0
   -2.1620    3.0070    0.6110 C   0  0  0  0  0  0  0  0  0  0  0  0
   -3.3110    2.4170    0.2460 N   0  0  0  0  0  0  0  0  0  0  0  0
   -3.4200    1.0920    0.0900 C   0  0  0  0  0  0  0  0  0  0  0  0
   -4.5090    0.5810   -0.2320 O   0  0  0  0  0  0  0  0  0  0  0  0
   -2.2660    0.3020    0.3180 C   0  0  0  0  0  0  0  0  0  0  0  0
   -2.4670   -1.0890    0.4050 N   0  0  0  0  0  0  0  0  0  0  0  0
   -3.4300   -1.8950   -0.2280 C   0  0  0  0  0  0  0  0  0  0  0  0
   -3.6360   -3.0860    0.3190 O   0  0  0  0  0  0  0  0  0  0  0  0
   -4.1680   -1.5900   -1.3710 N   0  0  0  0  0  0  0  0  0  0  0  0
   -5.1080   -2.5670   -1.8610 C   0  0  0  0  0  0  0  0  0  0  0  0
   -4.7990   -3.8810   -1.8010 C   0  0  0  0  0  0  0  0  0  0  0  0
   -5.7380   -4.8190   -2.2290 C   0  0  0  0  0  0  0  0  0  0  0  0
   -6.9460   -4.3490   -2.6960 C   0  0  0  0  0  0  0  0  0  0  0  0
   -7.8390   -5.2750   -3.1030 F   0  0  0  0  0  0  0  0  0  0  0  0
   -7.2560   -3.0020   -2.7550 C   0  0  0  0  0  0  0  0  0  0  0  0
   -6.3150   -2.0770   -2.3280 C   0  0  0  0  0  0  0  0  0  0  0  0
   -1.3370   -1.8240    0.9590 C   0  0  0  0  0  0  0  0  0  0  0  0
   -1.6070   -2.9560    1.4640 O   0  0  0  0  0  0  0  0  0  0  0  0
    0.0250   -1.3330    0.9600 C   0  0  2  0  0  0  0  0  0  0  0  0
    0.7270   -1.8590    2.2520 C   0  0  0  0  0  0  0  0  0  0  0  0
   -1.8210    4.4100    0.8820 C   0  0  0  0  0  0  0  0  0  0  0  0
   -2.0550    5.6700    0.6620 C   0  0  0  0  0  0  0  0  0  0  0  0
   -1.1720    6.4930    1.4060 N   0  0  0  0  0  0  0  0  0  0  0  0
   -0.0600    5.6520    1.8050 C   0  0  0  0  0  0  0  0  0  0  0  0
   -0.6910    4.3190    1.8830 C   0  0  2  0  0  0  0  0  0  0  0  0
    0.0990    3.1970    1.2000 C   0  0  0  0  0  0  0  0  0  0  0  0
  1  2  1  0
  2  3  1  0
  3  4  1  0
  4  5  1  6
  4  6  1  0
  6  7  1  0
  7  8  1  0
  8  9  2  0
  8 10  1  0
 11 10  1  6
 11 12  1  0
 11 32  1  0
 12 13  1  0
 12 18  2  0
 13 14  2  0
 13 39  1  0
 14 15  1  0
 14 34  1  0
 15 16  1  0
 16 17  2  0
 16 18  1  0
 18 19  1  0
 19 20  1  0
 19 30  1  0
 20 21  2  0
 20 22  1  0
 22 23  1  0
 23 24  2  0
 23 29  1  0
 24 25  1  0
 25 26  2  0
 26 27  1  0
 26 28  1  0
 28 29  2  0
 30 31  2  0
 30 32  1  0
 32 33  1  1
 34 35  2  0
 34 38  1  0
 35 36  1  0
 36 37  1  0
 38 37  1  6
 38 39  1  0
M  END
