
     RDKit          3D

 31 32  0  0  0  0  0  0  0  0999 V2000
    2.1130   -0.3640   -1.7700 C   0  0  0  0  0  0  0  0  0  0  0  0
    3.5200   -0.5770   -2.0310 C   0  0  0  0  0  0  0  0  0  0  0  0
    4.5060   -0.0750   -1.3150 C   0  0  0  0  0  0  0  0  0  0  0  0
    5.8720   -0.4320   -1.7760 C   0  0  0  0  0  0  0  0  0  0  0  0
    7.0020   -0.1070   -1.2900 C   0  0  0  0  0  0  0  0  0  0  0  0
    8.1940   -0.6090   -1.9590 O   0  0  0  0  0  0  0  0  0  0  0  0
    9.3590   -1.3590   -0.8780 P   0  0  0  0  0  0  0  0  0  0  0  0
   10.4780   -2.2540   -1.8870 O   0  0  0  0  0  0  0  0  0  0  0  0
    8.5020   -2.4310    0.1790 O   0  0  0  0  0  0  0  0  0  0  0  0
    4.4000    0.7510   -0.2320 C   0  0  0  0  0  0  0  0  0  0  0  0
    5.5300    1.1490    0.3470 O   0  0  0  0  0  0  0  0  0  0  0  0
    3.4470    1.3340    0.4750 N   0  0  0  0  0  0  0  0  0  0  0  0
    2.4000    1.7690    1.0560 C   0  0  0  0  0  0  0  0  0  0  0  0
    3.0110    2.7760    1.9020 O   0  0  0  0  0  0  0  0  0  0  0  0
    1.1550    1.9870    1.4660 N   0  0  0  0  0  0  0  0  0  0  0  0
    0.0400    1.2160    1.2770 C   0  0  0  0  0  0  0  0  0  0  0  0
    0.1060    0.3050    0.4780 O   0  0  0  0  0  0  0  0  0  0  0  0
   -1.1200    1.5340    2.0550 C   0  0  0  0  0  0  0  0  0  0  0  0
   -1.2060    2.5750    2.7760 O   0  0  0  0  0  0  0  0  0  0  0  0
   -2.1930    0.7020    2.0530 O   0  0  0  0  0  0  0  0  0  0  0  0
   -3.3480    1.0110    2.8530 C   0  0  0  0  0  0  0  0  0  0  0  0
   -4.3240   -0.1250    2.6680 C   0  0  0  0  0  0  0  0  0  0  0  0
   -4.7460   -0.3050    1.3010 N   0  0  0  0  0  0  0  0  0  0  0  0
   -5.9180    0.3820    0.7640 C   0  0  0  0  0  0  0  0  0  0  0  0
   -6.5700   -0.3590   -0.3650 C   0  0  1  0  0  0  0  0  0  0  0  0
   -6.1020    0.1550   -1.7140 C   0  0  0  0  0  0  0  0  0  0  0  0
   -4.7190   -0.4500   -1.7990 C   0  0  0  0  0  0  0  0  0  0  0  0
   -4.7410   -1.5960   -0.8220 C   0  0  2  0  0  0  0  0  0  0  0  0
   -6.1560   -1.7600   -0.4470 N   0  0  0  0  0  0  0  0  0  0  0  0
   -4.0560   -1.1510    0.4050 C   0  0  0  0  0  0  0  0  0  0  0  0
   -2.8910   -1.5210    0.6330 O   0  0  0  0  0  0  0  0  0  0  0  0
  1  2  1  0
  2  3  2  3
  3  4  1  0
  3 10  1  0
  4  5  2  3
  5  6  1  0
  6  7  1  0
  7  8  1  0
  7  9  1  0
 10 11  2  0
 10 12  1  0
 12 13  1  0
 13 14  2  0
 13 15  1  0
 15 16  1  0
 16 17  2  0
 16 18  1  0
 18 19  2  0
 18 20  1  0
 20 21  1  0
 21 22  1  0
 22 23  1  0
 23 24  1  0
 23 30  1  0
 25 24  1  1
 25 26  1  0
 25 29  1  0
 26 27  1  0
 28 27  1  6
 28 29  1  0
 28 30  1  0
 30 31  2  0
M  END
