
     RDKit          3D

 30 32  0  0  0  0  0  0  0  0999 V2000
   -0.1560    4.7960   -3.9850 O   0  0  0  0  0  0  0  0  0  0  0  0
   -0.7180    4.7600   -2.8580 C   0  0  0  0  0  0  0  0  0  0  0  0
   -1.3070    5.9580   -2.4320 O   0  0  0  0  0  0  0  0  0  0  0  0
   -0.7610    3.5950   -2.0650 N   0  0  0  0  0  0  0  0  0  0  0  0
   -1.8800    3.2370   -1.5570 C   0  0  0  0  0  0  0  0  0  0  0  0
   -3.0560    3.9160   -1.7330 O   0  0  0  0  0  0  0  0  0  0  0  0
   -4.2850    3.6700   -1.1290 C   0  0  0  0  0  0  0  0  0  0  0  0
   -4.0560    2.9100    0.1590 C   0  0  0  0  0  0  0  0  0  0  0  0
   -3.2580    1.7360   -0.2190 N   0  0  0  0  0  0  0  0  0  0  0  0
   -1.9590    2.0110   -0.7130 C   0  0  0  0  0  0  0  0  0  0  0  0
   -0.8830    1.3090   -0.5110 C   0  0  0  0  0  0  0  0  0  0  0  0
   -0.8230    0.1080    0.2840 C   0  0  0  0  0  0  0  0  0  0  0  0
   -1.8820   -0.3370    0.8580 N   0  0  0  0  0  0  0  0  0  0  0  0
   -1.9000   -1.4740    1.6290 O   0  0  0  0  0  0  0  0  0  0  0  0
   -2.2590   -2.7010    1.0160 C   0  0  0  0  0  0  0  0  0  0  0  0
   -2.2020   -3.7860    2.0690 C   0  0  1  0  0  0  0  0  0  0  0  0
   -3.0640   -3.6960    3.2770 C   0  0  0  0  0  0  0  0  0  0  0  0
   -3.4400   -4.6380    2.1940 C   0  0  0  0  0  0  0  0  0  0  0  0
    0.4570   -0.6420    0.4600 C   0  0  1  0  0  0  0  0  0  0  0  0
    0.9940   -1.1080   -0.8740 C   0  0  0  0  0  0  0  0  0  0  0  0
    1.8830   -2.1530   -0.6060 O   0  0  0  0  0  0  0  0  0  0  0  0
    3.1560   -1.6670   -0.7690 C   0  0  0  0  0  0  0  0  0  0  0  0
    3.7480   -1.0230    0.4330 C   0  0  1  0  0  0  0  0  0  0  0  0
    4.9460   -0.1890   -0.0410 C   0  0  0  0  0  0  0  0  0  0  0  0
    6.2170   -1.2260   -0.8690 P   0  0  0  0  0  0  0  0  0  0  0  0
    7.4500   -1.6360    0.2770 O   0  0  0  0  0  0  0  0  0  0  0  0
    6.9050   -0.2770   -2.1720 O   0  0  0  0  0  0  0  0  0  0  0  0
    2.8490   -0.1080    1.1440 C   0  0  0  0  0  0  0  0  0  0  0  0
    3.4520    0.5770    2.0380 O   0  0  0  0  0  0  0  0  0  0  0  0
    1.4710    0.1940    1.0700 N   0  0  0  0  0  0  0  0  0  0  0  0
  1  2  2  0
  2  3  1  0
  2  4  1  0
  4  5  2  3
  5  6  1  0
  5 10  1  0
  6  7  1  0
  7  8  1  0
  8  9  1  0
  9 10  1  0
 10 11  2  3
 11 12  1  0
 12 13  2  3
 19 12  1  6
 13 14  1  0
 14 15  1  0
 16 15  1  6
 16 17  1  0
 16 18  1  0
 17 18  1  0
 19 20  1  0
 19 30  1  0
 20 21  1  0
 21 22  1  0
 22 23  1  0
 23 24  1  6
 23 28  1  0
 24 25  1  0
 25 26  1  0
 25 27  1  0
 28 29  2  0
 28 30  1  0
M  END
