
     RDKit          3D

 30 32  0  0  0  0  0  0  0  0999 V2000
   -6.0410    1.0980    2.1190 O   0  0  0  0  0  0  0  0  0  0  0  0
   -4.9830    0.8180    1.5080 C   0  0  0  0  0  0  0  0  0  0  0  0
   -3.8560    0.2650    2.2280 N   0  0  0  0  0  0  0  0  0  0  0  0
   -2.5910    0.1600    1.5700 C   0  0  0  0  0  0  0  0  0  0  0  0
   -1.5360    0.1110    2.2050 O   0  0  0  0  0  0  0  0  0  0  0  0
   -2.6700    0.1210    0.1070 C   0  0  2  0  0  0  0  0  0  0  0  0
   -1.3800   -0.0120   -0.6080 C   0  0  0  0  0  0  0  0  0  0  0  0
   -1.1310    0.9300   -1.3930 O   0  0  0  0  0  0  0  0  0  0  0  0
   -0.5050   -1.0720   -0.4440 N   0  0  0  0  0  0  0  0  0  0  0  0
   -0.9330   -2.1580    0.4640 C   0  0  0  0  0  0  0  0  0  0  0  0
   -0.8130   -3.4730   -0.2920 C   0  0  0  0  0  0  0  0  0  0  0  0
   -0.6300   -3.1590   -1.6350 O   0  0  0  0  0  0  0  0  0  0  0  0
    0.6650   -2.6590   -1.7620 C   0  0  0  0  0  0  0  0  0  0  0  0
    0.7750   -1.2720   -1.0480 C   0  0  1  0  0  0  0  0  0  0  0  0
    1.1260   -0.2320   -2.0480 C   0  0  0  0  0  0  0  0  0  0  0  0
    1.3010    1.0500   -1.5840 O   0  0  0  0  0  0  0  0  0  0  0  0
    1.8540   -1.3680    0.0040 C   0  0  0  0  0  0  0  0  0  0  0  0
    3.1760   -1.5500   -0.2800 N   0  0  0  0  0  0  0  0  0  0  0  0
    4.0710   -0.6270   -0.7920 C   0  0  0  0  0  0  0  0  0  0  0  0
    4.4100    0.5060    0.2040 C   0  0  0  0  0  0  0  0  0  0  0  0
    5.0390   -0.1050    1.4600 C   0  0  0  0  0  0  0  0  0  0  0  0
    5.4140    1.2990    2.6180 P   0  0  0  0  0  0  0  0  0  0  0  0
    3.9460    2.1620    2.9550 O   0  0  0  0  0  0  0  0  0  0  0  0
    6.6090    2.3530    1.9230 O   0  0  0  0  0  0  0  0  0  0  0  0
   -3.4780    1.2460   -0.2760 N   0  0  0  0  0  0  0  0  0  0  0  0
   -3.2920    2.5080   -0.8540 C   0  0  0  0  0  0  0  0  0  0  0  0
   -2.2450    3.1740   -1.0310 O   0  0  0  0  0  0  0  0  0  0  0  0
   -4.6290    3.0620   -1.2950 C   0  0  0  0  0  0  0  0  0  0  0  0
   -5.6100    2.3060   -0.4080 C   0  0  0  0  0  0  0  0  0  0  0  0
   -4.9160    1.0680    0.0360 C   0  0  2  0  0  0  0  0  0  0  0  0
  1  2  2  0
  2  3  1  0
  2 30  1  0
  3  4  1  0
  4  5  2  0
  4  6  1  0
  6  7  1  6
  6 25  1  0
  7  8  2  0
  7  9  1  0
  9 10  1  0
  9 14  1  0
 10 11  1  0
 11 12  1  0
 12 13  1  0
 13 14  1  0
 14 15  1  6
 14 17  1  0
 15 16  1  0
 17 18  1  0
 18 19  1  0
 19 20  1  0
 20 21  1  0
 21 22  1  0
 22 23  1  0
 22 24  1  0
 25 26  1  0
 25 30  1  0
 26 27  2  0
 26 28  1  0
 28 29  1  0
 30 29  1  1
M  END
