
     RDKit          3D

 18 18  0  0  0  0  0  0  0  0999 V2000
    4.8130    1.2910   -0.5840 C   0  0  0  0  0  0  0  0  0  0  0  0
    5.2750   -0.0990   -0.3600 C   0  0  0  0  0  0  0  0  0  0  0  0
    4.6770   -0.8650    0.7520 C   0  0  0  0  0  0  0  0  0  0  0  0
    3.2270   -1.1420    0.7390 C   0  0  0  0  0  0  0  0  0  0  0  0
    2.3270    0.0420    0.7360 C   0  0  0  0  0  0  0  0  0  0  0  0
    0.8520   -0.3570    0.7590 C   0  0  0  0  0  0  0  0  0  0  0  0
    0.4320   -1.1800   -0.4060 C   0  0  0  0  0  0  0  0  0  0  0  0
   -1.0300   -1.5220   -0.2780 C   0  0  0  0  0  0  0  0  0  0  0  0
   -1.8810   -0.2970   -0.2400 C   0  0  0  0  0  0  0  0  0  0  0  0
   -3.3450   -0.6780   -0.1210 C   0  0  0  0  0  0  0  0  0  0  0  0
   -4.2240    0.4990   -0.0790 C   0  0  0  0  0  0  0  0  0  0  0  0
   -5.0450    0.8110    0.9180 C   0  0  0  0  0  0  0  0  0  0  0  0
   -5.2170    0.0820    2.0940 O   0  0  0  0  0  0  0  0  0  0  0  0
   -5.7550    2.0570    0.5940 C   0  0  0  0  0  0  0  0  0  0  0  0
   -6.6100    2.6350    1.3230 O   0  0  0  0  0  0  0  0  0  0  0  0
   -5.3150    2.4970   -0.6800 N   0  0  0  0  0  0  0  0  0  0  0  0
   -4.3640    1.5430   -1.1140 C   0  0  0  0  0  0  0  0  0  0  0  0
   -3.7420    1.5770   -2.1970 O   0  0  0  0  0  0  0  0  0  0  0  0
  1  2  1  0
  2  3  1  0
  3  4  1  0
  4  5  1  0
  5  6  1  0
  6  7  1  0
  7  8  1  0
  8  9  1  0
  9 10  1  0
 10 11  1  0
 11 12  2  0
 11 17  1  0
 12 13  1  0
 12 14  1  0
 14 15  2  0
 14 16  1  0
 16 17  1  0
 17 18  2  0
M  END
