
     RDKit          3D

 13 13  0  0  0  0  0  0  0  0999 V2000
    4.1360   -0.0500   -0.1840 O   0  0  0  0  0  0  0  0  0  0  0  0
    2.9560   -0.1200   -0.9010 C   0  0  0  0  0  0  0  0  0  0  0  0
    1.7640    0.1780    0.0170 C   0  0  0  0  0  0  0  0  0  0  0  0
    0.5850    0.1140   -0.6720 O   0  0  0  0  0  0  0  0  0  0  0  0
   -0.5430    0.3580    0.0670 C   0  0  2  0  0  0  0  0  0  0  0  0
   -0.6000    1.7120    0.7170 C   0  0  0  0  0  0  0  0  0  0  0  0
   -0.5350    2.6690   -0.2920 O   0  0  0  0  0  0  0  0  0  0  0  0
   -0.8060   -0.7650    1.0560 C   0  0  0  0  0  0  0  0  0  0  0  0
   -1.5140   -1.7760    0.1810 C   0  0  2  0  0  0  0  0  0  0  0  0
   -0.8520   -2.9980    0.1360 O   0  0  0  0  0  0  0  0  0  0  0  0
   -1.6040   -1.2190   -1.0930 O   0  0  0  0  0  0  0  0  0  0  0  0
   -1.7850    0.1360   -0.8140 C   0  0  2  0  0  0  0  0  0  0  0  0
   -1.7960    0.9380   -1.9130 O   0  0  0  0  0  0  0  0  0  0  0  0
  1  2  1  0
  2  3  1  0
  3  4  1  0
  4  5  1  0
  5  6  1  1
  5  8  1  0
  5 12  1  0
  6  7  1  0
  8  9  1  0
  9 10  1  6
  9 11  1  0
 11 12  1  0
 12 13  1  6
M  END
