
     RDKit          3D

 12 12  0  0  0  0  0  0  0  0999 V2000
    3.3020    0.2350   -0.8280 C   0  0  0  0  0  0  0  0  0  0  0  0
    1.9730   -0.5050   -0.7450 C   0  0  0  0  0  0  0  0  0  0  0  0
    1.2100    0.1330    0.2230 O   0  0  0  0  0  0  0  0  0  0  0  0
   -0.0010   -0.4840    0.3490 C   0  0  1  0  0  0  0  0  0  0  0  0
   -0.2660   -0.9840    1.7750 C   0  0  0  0  0  0  0  0  0  0  0  0
   -1.6290   -1.0730    1.9160 O   0  0  0  0  0  0  0  0  0  0  0  0
   -2.2350   -0.3310    0.9320 C   0  0  2  0  0  0  0  0  0  0  0  0
   -2.7070   -1.2230   -0.0590 O   0  0  0  0  0  0  0  0  0  0  0  0
   -1.1650    0.5030    0.2590 C   0  0  1  0  0  0  0  0  0  0  0  0
   -0.9210    1.5970    1.0470 O   0  0  0  0  0  0  0  0  0  0  0  0
   -1.5060    0.8290   -1.1660 C   0  0  0  0  0  0  0  0  0  0  0  0
   -0.4270    1.5190   -1.7100 O   0  0  0  0  0  0  0  0  0  0  0  0
  1  2  1  0
  2  3  1  0
  4  3  1  1
  4  5  1  0
  4  9  1  0
  5  6  1  0
  6  7  1  0
  7  8  1  6
  7  9  1  0
  9 10  1  1
  9 11  1  0
 11 12  1  0
M  END
