
     RDKit          3D

 13 13  0  0  0  0  0  0  0  0999 V2000
    0.4570    2.1000    0.2500 C   0  0  0  0  0  0  0  0  0  0  0  0
    0.5960    0.5950    0.1070 C   0  0  1  0  0  0  0  0  0  0  0  0
    2.0190    0.3190   -0.3070 C   0  0  1  0  0  0  0  0  0  0  0  0
    2.8720    0.8670    0.6220 O   0  0  0  0  0  0  0  0  0  0  0  0
    2.2910   -1.1380   -0.5370 C   0  0  0  0  0  0  0  0  0  0  0  0
    3.6100   -1.2430   -0.9990 O   0  0  0  0  0  0  0  0  0  0  0  0
    0.3000    0.0470    1.3550 O   0  0  0  0  0  0  0  0  0  0  0  0
   -1.1110    0.1000    1.3170 C   0  0  0  0  0  0  0  0  0  0  0  0
   -1.3340   -0.5210   -0.0570 C   0  0  1  0  0  0  0  0  0  0  0  0
   -2.7050   -0.1810   -0.5980 C   0  0  1  0  0  0  0  0  0  0  0  0
   -3.7190   -0.7570    0.1210 O   0  0  0  0  0  0  0  0  0  0  0  0
   -2.8650    1.1910   -0.6150 O   0  0  0  0  0  0  0  0  0  0  0  0
   -0.3220    0.0680   -0.7930 O   0  0  0  0  0  0  0  0  0  0  0  0
  2  1  1  1
  2  3  1  0
  2  7  1  0
  2 13  1  0
  3  4  1  1
  3  5  1  0
  5  6  1  0
  7  8  1  0
  9  8  1  1
  9 10  1  0
  9 13  1  0
 10 11  1  1
 10 12  1  0
M  END
