
     RDKit          3D

 12 12  0  0  0  0  0  0  0  0999 V2000
   -3.7520    1.7790    0.0430 C   0  0  0  0  0  0  0  0  0  0  0  0
   -3.0540    0.6800    0.1800 C   0  0  0  0  0  0  0  0  0  0  0  0
   -1.5890    0.5550    0.1500 C   0  0  0  0  0  0  0  0  0  0  0  0
   -1.2250   -0.6740   -0.1630 C   0  0  0  0  0  0  0  0  0  0  0  0
    0.4700   -1.3000   -0.3190 S   0  0  0  0  0  0  0  0  0  0  0  0
    1.5740    0.0860    0.0520 C   0  0  0  0  0  0  0  0  0  0  0  0
    2.9990   -0.3000   -0.0420 C   0  0  0  0  0  0  0  0  0  0  0  0
    3.3020   -1.4810   -0.3510 O   0  0  0  0  0  0  0  0  0  0  0  0
    3.9880    0.6100    0.2030 O   0  0  0  0  0  0  0  0  0  0  0  0
    5.3820    0.2850    0.1250 C   0  0  0  0  0  0  0  0  0  0  0  0
   -2.4560   -1.4760   -0.3800 C   0  0  0  0  0  0  0  0  0  0  0  0
   -3.5070   -0.7220    0.3980 C   0  0  0  0  0  0  0  0  0  0  0  0
  1  2  2  0
  2  3  1  0
  2 12  1  0
  3  4  2  0
  4  5  1  0
  4 11  1  0
  5  6  1  0
  6  7  1  0
  7  8  2  0
  7  9  1  0
  9 10  1  0
 11 12  1  0
M  END
