
     RDKit          3D

 12 12  0  0  0  0  0  0  0  0999 V2000
    4.0570    0.1010    1.0580 C   0  0  0  0  0  0  0  0  0  0  0  0
    3.7550   -1.1730    0.3630 C   0  0  0  0  0  0  0  0  0  0  0  0
    2.7760   -1.2200   -0.5120 C   0  0  0  0  0  0  0  0  0  0  0  0
    1.9480   -0.0350   -0.8400 C   0  0  0  0  0  0  0  0  0  0  0  0
    0.6020   -0.2810   -0.5460 O   0  0  0  0  0  0  0  0  0  0  0  0
   -0.0980    0.8670   -0.8790 C   0  0  0  0  0  0  0  0  0  0  0  0
   -1.5910    0.6840   -0.5870 C   0  0  1  0  0  0  0  0  0  0  0  0
   -2.1240   -0.3850   -1.4940 C   0  0  0  0  0  0  0  0  0  0  0  0
   -3.7240   -1.0260   -0.9310 S   0  0  0  0  0  0  0  0  0  0  0  0
   -3.8820   -0.6060    0.8310 C   0  0  0  0  0  0  0  0  0  0  0  0
   -3.1310    0.6900    1.0490 C   0  0  0  0  0  0  0  0  0  0  0  0
   -1.7830    0.4230    0.7470 O   0  0  0  0  0  0  0  0  0  0  0  0
  1  2  1  0
  2  3  2  3
  3  4  1  0
  4  5  1  0
  5  6  1  0
  7  6  1  1
  7  8  1  0
  7 12  1  0
  8  9  1  0
  9 10  1  0
 10 11  1  0
 11 12  1  0
M  END
