
     RDKit          3D

 12 12  0  0  0  0  0  0  0  0999 V2000
    4.1530   -0.0680   -0.4420 C   0  0  0  0  0  0  0  0  0  0  0  0
    3.1650    1.4270   -0.5150 S   0  0  0  0  0  0  0  0  0  0  0  0
    2.0330    1.5830    0.8670 C   0  0  0  0  0  0  0  0  0  0  0  0
    0.9920    0.5200    0.8050 C   0  0  0  0  0  0  0  0  0  0  0  0
    0.2130    0.5610   -0.3730 O   0  0  0  0  0  0  0  0  0  0  0  0
   -0.7970   -0.4210   -0.4650 C   0  0  0  0  0  0  0  0  0  0  0  0
   -0.6800   -1.7180   -0.6400 C   0  0  0  0  0  0  0  0  0  0  0  0
   -2.0070   -2.3800   -0.6780 C   0  0  0  0  0  0  0  0  0  0  0  0
   -2.9280   -1.2580   -0.4980 C   0  0  0  0  0  0  0  0  0  0  0  0
   -2.2350   -0.1390   -0.3770 C   0  0  0  0  0  0  0  0  0  0  0  0
   -2.7870    1.2410   -0.1750 C   0  0  0  0  0  0  0  0  0  0  0  0
   -2.3510    1.8180    0.9930 O   0  0  0  0  0  0  0  0  0  0  0  0
  1  2  1  0
  2  3  1  0
  3  4  1  0
  4  5  1  0
  5  6  1  0
  6  7  2  0
  6 10  1  0
  7  8  1  0
  8  9  1  0
  9 10  2  0
 10 11  1  0
 11 12  1  0
M  END
