
     RDKit          3D

 12 12  0  0  0  0  0  0  0  0999 V2000
    2.9880    2.0120   -0.6090 O   0  0  0  0  0  0  0  0  0  0  0  0
    2.1100    1.2480   -0.1240 C   0  0  0  0  0  0  0  0  0  0  0  0
    1.2760    1.8380    0.8170 O   0  0  0  0  0  0  0  0  0  0  0  0
    2.0380   -0.1320   -0.5660 C   0  0  1  0  0  0  0  0  0  0  0  0
    2.2820   -1.2340    0.8770 S   0  0  0  0  0  0  0  0  0  0  0  0
    0.7830   -0.4920   -1.3050 C   0  0  0  0  0  0  0  0  0  0  0  0
   -0.4440   -0.2990   -0.5190 C   0  0  0  0  0  0  0  0  0  0  0  0
   -0.9310   -1.3250    0.2480 C   0  0  0  0  0  0  0  0  0  0  0  0
   -2.0740   -1.1850    0.9960 C   0  0  0  0  0  0  0  0  0  0  0  0
   -2.7780   -0.0070    1.0050 C   0  0  0  0  0  0  0  0  0  0  0  0
   -2.3080    1.0400    0.2420 C   0  0  0  0  0  0  0  0  0  0  0  0
   -1.1490    0.8780   -0.5090 C   0  0  0  0  0  0  0  0  0  0  0  0
  1  2  2  0
  2  3  1  0
  2  4  1  0
  4  5  1  1
  4  6  1  0
  6  7  1  0
  7  8  2  0
  7 12  1  0
  8  9  1  0
  9 10  2  0
 10 11  1  0
 11 12  2  0
M  END
