
     RDKit          3D

 12 12  0  0  0  0  0  0  0  0999 V2000
    3.3600    0.8630    1.0440 C   0  0  0  0  0  0  0  0  0  0  0  0
    3.7310   -0.0550    0.0970 O   0  0  0  0  0  0  0  0  0  0  0  0
    2.7640   -0.9690   -0.2650 C   0  0  0  0  0  0  0  0  0  0  0  0
    1.5200   -0.3390   -0.8460 C   0  0  0  0  0  0  0  0  0  0  0  0
    0.5320   -1.4260   -1.2080 C   0  0  0  0  0  0  0  0  0  0  0  0
   -0.9970   -0.8480   -1.8920 S   0  0  0  0  0  0  0  0  0  0  0  0
   -2.0610    0.0080   -0.7690 C   0  0  0  0  0  0  0  0  0  0  0  0
   -3.1810    0.6190   -1.1040 C   0  0  0  0  0  0  0  0  0  0  0  0
   -3.8050    1.2290    0.1020 C   0  0  0  0  0  0  0  0  0  0  0  0
   -2.8580    0.8680    1.1800 C   0  0  0  0  0  0  0  0  0  0  0  0
   -1.8480    0.1560    0.6540 C   0  0  0  0  0  0  0  0  0  0  0  0
   -0.8030   -0.3180    1.4640 O   0  0  0  0  0  0  0  0  0  0  0  0
  1  2  1  0
  2  3  1  0
  3  4  1  0
  4  5  1  0
  5  6  1  0
  6  7  1  0
  7  8  2  0
  7 11  1  0
  8  9  1  0
  9 10  1  0
 10 11  2  0
 11 12  1  0
M  END
