
     RDKit          3D

 23 25  0  0  0  0  0  0  0  0999 V2000
    2.8480    0.8600   -1.4900 O   0  0  0  0  0  0  0  0  0  0  0  0
    1.9830    0.3290   -0.7320 C   0  0  0  0  0  0  0  0  0  0  0  0
    2.4210   -0.6970    0.2280 C   0  0  0  0  0  0  0  0  0  0  0  0
    3.8810   -0.7900    0.1680 N   0  0  0  0  0  0  0  0  0  0  0  0
    4.6770   -0.0260    0.9720 C   0  0  0  0  0  0  0  0  0  0  0  0
    4.2630    0.8200    1.8350 O   0  0  0  0  0  0  0  0  0  0  0  0
    5.9500   -0.3300    0.6850 N   0  0  0  0  0  0  0  0  0  0  0  0
    5.9520   -1.2520   -0.2650 N   0  0  0  0  0  0  0  0  0  0  0  0
    4.6780   -1.5460   -0.5930 C   0  0  0  0  0  0  0  0  0  0  0  0
    4.2560   -2.3850   -1.4640 O   0  0  0  0  0  0  0  0  0  0  0  0
    0.6440    0.7820   -0.8790 N   0  0  0  0  0  0  0  0  0  0  0  0
    0.1760    1.7130   -1.7450 C   0  0  0  0  0  0  0  0  0  0  0  0
   -1.1430    1.8280   -1.4960 N   0  0  0  0  0  0  0  0  0  0  0  0
   -1.4810    0.9980   -0.5110 C   0  0  0  0  0  0  0  0  0  0  0  0
   -2.7940    0.8090    0.0860 C   0  0  2  0  0  0  0  0  0  0  0  0
   -2.7970    1.1360    1.4640 O   0  0  0  0  0  0  0  0  0  0  0  0
   -3.3390   -0.5830   -0.1310 C   0  0  0  0  0  0  0  0  0  0  0  0
   -4.0630   -0.9580    1.1530 C   0  0  0  0  0  0  0  0  0  0  0  0
   -4.7700    0.1380    1.6410 O   0  0  0  0  0  0  0  0  0  0  0  0
   -5.2260    1.2610    0.4060 P   0  0  0  0  0  0  0  0  0  0  0  0
   -6.3470    0.4290   -0.6570 O   0  0  0  0  0  0  0  0  0  0  0  0
   -3.7650    1.6840   -0.4600 O   0  0  0  0  0  0  0  0  0  0  0  0
   -0.3590    0.3620   -0.1470 N   0  0  0  0  0  0  0  0  0  0  0  0
  1  2  2  0
  2  3  1  0
  2 11  1  0
  3  4  1  0
  4  5  1  0
  4  9  1  0
  5  6  2  0
  5  7  1  0
  7  8  1  0
  8  9  1  0
  9 10  2  0
 11 12  1  0
 11 23  1  0
 12 13  2  0
 13 14  1  0
 14 15  1  0
 14 23  2  0
 15 16  1  1
 15 17  1  0
 15 22  1  0
 17 18  1  0
 18 19  1  0
 19 20  1  0
 20 21  1  0
 20 22  1  0
M  END
