
     RDKit          3D

 23 24  0  0  0  0  0  0  0  0999 V2000
   -1.0170    0.8780   -1.4660 C   0  0  0  0  0  0  0  0  0  0  0  0
   -0.2750    0.4410   -0.3330 N   0  0  0  0  0  0  0  0  0  0  0  0
   -0.0210    1.5030    0.6230 C   0  0  0  0  0  0  0  0  0  0  0  0
    0.8560    2.4810   -0.0710 C   0  0  0  0  0  0  0  0  0  0  0  0
    0.2330    3.5070   -0.5220 O   0  0  0  0  0  0  0  0  0  0  0  0
    2.2940    2.3300   -0.2480 C   0  0  0  0  0  0  0  0  0  0  0  0
    2.6980    2.7810   -1.3860 O   0  0  0  0  0  0  0  0  0  0  0  0
    3.0520    1.7810    0.7020 O   0  0  0  0  0  0  0  0  0  0  0  0
    3.6900    0.6250    1.0080 C   0  0  0  0  0  0  0  0  0  0  0  0
    3.3070   -0.5830    0.2450 C   0  0  0  0  0  0  0  0  0  0  0  0
    4.0610   -1.4900   -0.3690 N   0  0  0  0  0  0  0  0  0  0  0  0
    3.2430   -2.3760   -0.9100 N   0  0  0  0  0  0  0  0  0  0  0  0
    1.9720   -2.0390   -0.6450 C   0  0  0  0  0  0  0  0  0  0  0  0
    2.0410   -0.9230    0.0740 N   0  0  0  0  0  0  0  0  0  0  0  0
    0.6910   -2.6030   -0.9650 N   0  0  0  0  0  0  0  0  0  0  0  0
   -0.5160   -1.8780   -0.7760 C   0  0  0  0  0  0  0  0  0  0  0  0
   -1.5150   -2.1520   -1.4900 O   0  0  0  0  0  0  0  0  0  0  0  0
   -0.6800   -0.7970    0.2280 C   0  0  2  0  0  0  0  0  0  0  0  0
   -2.1240   -0.8070    0.6830 C   0  0  0  0  0  0  0  0  0  0  0  0
   -2.3870    0.1420    1.6480 O   0  0  0  0  0  0  0  0  0  0  0  0
   -4.0780   -0.0030    2.0580 P   0  0  0  0  0  0  0  0  0  0  0  0
   -4.9330   -0.3120    0.5730 O   0  0  0  0  0  0  0  0  0  0  0  0
   -4.5920    1.5580    2.6340 O   0  0  0  0  0  0  0  0  0  0  0  0
  1  2  1  0
  2  3  1  0
  2 18  1  0
  3  4  1  0
  4  5  2  0
  4  6  1  0
  6  7  2  0
  6  8  1  0
  8  9  1  0
  9 10  1  0
 10 11  2  0
 10 14  1  0
 11 12  1  0
 12 13  1  0
 13 14  2  0
 13 15  1  0
 15 16  1  0
 16 17  2  0
 16 18  1  0
 18 19  1  6
 19 20  1  0
 20 21  1  0
 21 22  1  0
 21 23  1  0
M  END
