
     RDKit          3D

 16 16  0  0  0  0  0  0  0  0999 V2000
    4.9100   -0.6330   -2.1170 O   0  0  0  0  0  0  0  0  0  0  0  0
    4.2230   -0.8960   -1.1250 O   0  0  0  0  0  0  0  0  0  0  0  0
    4.2110    0.0990   -0.1100 C   0  0  0  0  0  0  0  0  0  0  0  0
    2.8360    0.6540   -0.3310 C   0  0  0  0  0  0  0  0  0  0  0  0
    2.3510    1.4780    0.6970 O   0  0  0  0  0  0  0  0  0  0  0  0
    1.1880    0.6700    0.9490 O   0  0  0  0  0  0  0  0  0  0  0  0
    0.2840    1.0390    0.0450 C   0  0  0  0  0  0  0  0  0  0  0  0
   -0.6480    0.0370   -0.4650 C   0  0  0  0  0  0  0  0  0  0  0  0
   -1.7270   -0.5760    0.2420 C   0  0  1  0  0  0  0  0  0  0  0  0
   -2.6990   -1.7090   -1.0580 Br  0  0  0  0  0  0  0  0  0  0  0  0
   -1.5450   -1.3560    1.3240 O   0  0  0  0  0  0  0  0  0  0  0  0
   -2.6570   -1.4540    1.9900 O   0  0  0  0  0  0  0  0  0  0  0  0
   -3.5970   -0.5840    1.5390 C   0  0  0  0  0  0  0  0  0  0  0  0
   -2.7310    0.4420    0.7430 C   0  0  2  0  0  0  0  0  0  0  0  0
   -3.4280    0.9100   -0.3230 O   0  0  0  0  0  0  0  0  0  0  0  0
   -4.6950    1.0950   -0.1740 O   0  0  0  0  0  0  0  0  0  0  0  0
  1  2  1  0
  2  3  1  0
  3  4  1  0
  4  5  1  0
  5  6  1  0
  6  7  1  0
  7  8  1  0
  8  9  1  0
  9 10  1  6
  9 11  1  0
  9 14  1  0
 11 12  1  0
 12 13  1  0
 13 14  1  0
 14 15  1  6
 15 16  1  0
M  END
