
     RDKit          3D

 21 22  0  0  0  0  0  0  0  0999 V2000
    6.1210    1.3670    1.3110 O   0  0  0  0  0  0  0  0  0  0  0  0
    5.4260   -0.0140    1.2220 P   0  0  0  0  0  0  0  0  0  0  0  0
    4.1210   -0.1890    0.0910 O   0  0  0  0  0  0  0  0  0  0  0  0
    3.4770   -1.3790    0.3640 C   0  0  0  0  0  0  0  0  0  0  0  0
    2.3230   -1.5890   -0.5930 C   0  0  0  0  0  0  0  0  0  0  0  0
    1.3540   -0.5140   -0.4840 N   0  0  0  0  0  0  0  0  0  0  0  0
    1.5390    0.6230   -1.3280 C   0  0  0  0  0  0  0  0  0  0  0  0
    2.4900    0.7230   -2.1460 O   0  0  0  0  0  0  0  0  0  0  0  0
    0.5950    1.6360   -1.1990 O   0  0  0  0  0  0  0  0  0  0  0  0
   -0.4680    1.5750   -0.3160 C   0  0  0  0  0  0  0  0  0  0  0  0
   -1.0620    2.5620    0.1780 O   0  0  0  0  0  0  0  0  0  0  0  0
   -0.9400    0.2180    0.0740 C   0  0  2  0  0  0  0  0  0  0  0  0
   -1.5990   -0.4920   -1.0980 C   0  0  0  0  0  0  0  0  0  0  0  0
   -2.8780    0.0490   -1.0280 O   0  0  0  0  0  0  0  0  0  0  0  0
   -3.1850    0.1270    0.3240 C   0  0  2  0  0  0  0  0  0  0  0  0
   -4.1380    1.2230    0.5560 C   0  0  0  0  0  0  0  0  0  0  0  0
   -3.8950    2.1720    1.3390 O   0  0  0  0  0  0  0  0  0  0  0  0
   -5.3580    1.2360   -0.1010 O   0  0  0  0  0  0  0  0  0  0  0  0
   -1.9600    0.2310    1.0530 N   0  0  0  0  0  0  0  0  0  0  0  0
    0.2570   -0.5560    0.4130 C   0  0  0  0  0  0  0  0  0  0  0  0
    0.3470   -1.2400    1.4450 O   0  0  0  0  0  0  0  0  0  0  0  0
  1  2  2  0
  2  3  1  0
  3  4  1  0
  4  5  1  0
  5  6  1  0
  6  7  1  0
  6 20  1  0
  7  8  2  0
  7  9  1  0
  9 10  1  0
 10 11  2  0
 10 12  1  0
 12 13  1  6
 12 19  1  0
 12 20  1  0
 13 14  1  0
 14 15  1  0
 15 16  1  6
 15 19  1  0
 16 17  2  0
 16 18  1  0
 20 21  2  0
M  END
