
     RDKit          3D

 20 21  0  0  0  0  0  0  0  0999 V2000
   -3.1340   -2.7650   -0.7750 N   0  0  0  0  0  0  0  0  0  0  0  0
   -2.8710   -1.5880   -0.3520 C   0  0  0  0  0  0  0  0  0  0  0  0
   -1.4990   -1.2370   -0.0950 N   0  0  0  0  0  0  0  0  0  0  0  0
   -0.9760   -0.0720    0.0880 C   0  0  0  0  0  0  0  0  0  0  0  0
    0.4760   -0.0400    0.3310 C   0  0  0  0  0  0  0  0  0  0  0  0
    1.1600    1.0740    0.5360 C   0  0  0  0  0  0  0  0  0  0  0  0
    2.5070    0.8190    0.7380 O   0  0  0  0  0  0  0  0  0  0  0  0
    2.6230   -0.5860    0.8740 C   0  0  2  0  0  0  0  0  0  0  0  0
    3.7530   -1.0160   -0.0450 C   0  0  0  0  0  0  0  0  0  0  0  0
    4.9330   -0.3950    0.3200 O   0  0  0  0  0  0  0  0  0  0  0  0
    6.2650   -0.8220   -0.6640 P   0  0  0  0  0  0  0  0  0  0  0  0
    7.7280   -0.3550    0.1820 O   0  0  0  0  0  0  0  0  0  0  0  0
    6.2330   -0.1410   -2.2310 O   0  0  0  0  0  0  0  0  0  0  0  0
    1.3700   -1.0720    0.3940 O   0  0  0  0  0  0  0  0  0  0  0  0
   -1.6530    1.1270    0.0740 O   0  0  0  0  0  0  0  0  0  0  0  0
   -2.9790    1.4940   -0.2270 C   0  0  0  0  0  0  0  0  0  0  0  0
   -3.9990    0.5720    0.4030 C   0  0  1  0  0  0  0  0  0  0  0  0
   -5.3670    1.1370    0.0970 C   0  0  0  0  0  0  0  0  0  0  0  0
   -5.5110    1.1890   -1.3030 O   0  0  0  0  0  0  0  0  0  0  0  0
   -3.9400   -0.7340   -0.1710 O   0  0  0  0  0  0  0  0  0  0  0  0
  1  2  2  0
  2  3  1  0
  2 20  1  0
  3  4  2  0
  4  5  1  0
  4 15  1  0
  5  6  2  0
  5 14  1  0
  6  7  1  0
  7  8  1  0
  8  9  1  6
  8 14  1  0
  9 10  1  0
 10 11  1  0
 11 12  1  0
 11 13  1  0
 15 16  1  0
 16 17  1  0
 17 18  1  6
 17 20  1  0
 18 19  1  0
M  END
