
     RDKit          3D

 21 21  0  0  0  0  0  0  0  0999 V2000
    0.8330   -2.1560    0.0130 O   0  0  0  0  0  0  0  0  0  0  0  0
    0.9710   -0.9090    0.0640 C   0  0  0  0  0  0  0  0  0  0  0  0
    2.3140   -0.4140    0.1470 N   0  0  0  0  0  0  0  0  0  0  0  0
    3.4640   -1.2930    0.1710 C   0  0  0  0  0  0  0  0  0  0  0  0
    4.7010   -0.4310    0.2620 C   0  0  0  0  0  0  0  0  0  0  0  0
    5.8410   -1.2320    0.2890 O   0  0  0  0  0  0  0  0  0  0  0  0
    7.2840   -0.3150    0.3920 P   0  0  0  0  0  0  0  0  0  0  0  0
    7.0570    1.2170    1.1630 O   0  0  0  0  0  0  0  0  0  0  0  0
    8.1270   -0.1830   -1.1000 O   0  0  0  0  0  0  0  0  0  0  0  0
   -0.1420   -0.0070    0.0420 N   0  0  0  0  0  0  0  0  0  0  0  0
   -1.4830   -0.5240   -0.0420 C   0  0  2  0  0  0  0  0  0  0  0  0
   -2.0910   -0.0030   -1.3320 C   0  0  0  0  0  0  0  0  0  0  0  0
   -3.3330   -0.5790   -1.5120 O   0  0  0  0  0  0  0  0  0  0  0  0
   -4.3690    0.3250   -1.4520 C   0  0  0  0  0  0  0  0  0  0  0  0
   -4.6360    0.6510    0.0030 C   0  0  1  0  0  0  0  0  0  0  0  0
   -5.5420    1.7110    0.1370 O   0  0  0  0  0  0  0  0  0  0  0  0
   -5.2170   -0.4880    0.5760 O   0  0  0  0  0  0  0  0  0  0  0  0
   -6.3320   -0.7710   -0.0490 O   0  0  0  0  0  0  0  0  0  0  0  0
   -3.3450    0.9710    0.6430 C   0  0  0  0  0  0  0  0  0  0  0  0
   -3.0960    2.1600    0.8020 O   0  0  0  0  0  0  0  0  0  0  0  0
   -2.3240   -0.0060    1.1120 C   0  0  0  0  0  0  0  0  0  0  0  0
  1  2  2  0
  2  3  1  0
  2 10  1  0
  3  4  1  0
  4  5  1  0
  5  6  1  0
  6  7  1  0
  7  8  1  0
  7  9  1  0
 11 10  1  1
 11 12  1  0
 11 21  1  0
 12 13  1  0
 13 14  1  0
 14 15  1  0
 15 16  1  6
 15 17  1  0
 15 19  1  0
 17 18  1  0
 19 20  2  0
 19 21  1  0
M  END
