
     RDKit          3D

 20 21  0  0  0  0  0  0  0  0999 V2000
   -2.8550   -1.7160   -0.9860 N   0  0  0  0  0  0  0  0  0  0  0  0
   -2.2170   -0.4280   -0.6970 C   0  0  2  0  0  0  0  0  0  0  0  0
   -1.7970   -0.3810    0.7070 C   0  0  0  0  0  0  0  0  0  0  0  0
   -0.6450   -0.2110    1.2530 C   0  0  0  0  0  0  0  0  0  0  0  0
    0.6510   -0.0040    0.5800 C   0  0  0  0  0  0  0  0  0  0  0  0
    0.8390    0.0380   -0.6470 O   0  0  0  0  0  0  0  0  0  0  0  0
    1.8450    0.1730    1.3800 N   0  0  0  0  0  0  0  0  0  0  0  0
    3.1330    0.3780    0.7610 C   0  0  0  0  0  0  0  0  0  0  0  0
    3.0900    1.5300   -0.0200 O   0  0  0  0  0  0  0  0  0  0  0  0
    4.5730    1.8650   -0.8000 P   0  0  0  0  0  0  0  0  0  0  0  0
    4.4760    1.3890   -2.4640 O   0  0  0  0  0  0  0  0  0  0  0  0
    5.9340    1.1530   -0.0030 O   0  0  0  0  0  0  0  0  0  0  0  0
   -0.7840   -0.2490    2.7580 C   0  0  0  0  0  0  0  0  0  0  0  0
   -2.1330   -0.4780    2.9580 O   0  0  0  0  0  0  0  0  0  0  0  0
   -2.8260   -0.5640    1.7810 C   0  0  0  0  0  0  0  0  0  0  0  0
   -4.0590   -0.7550    1.6360 O   0  0  0  0  0  0  0  0  0  0  0  0
   -3.2650    0.6570   -0.9560 C   0  0  0  0  0  0  0  0  0  0  0  0
   -2.5390    1.5860   -1.6990 O   0  0  0  0  0  0  0  0  0  0  0  0
   -1.8410    0.7230   -2.5740 C   0  0  0  0  0  0  0  0  0  0  0  0
   -1.3210   -0.1920   -1.6700 O   0  0  0  0  0  0  0  0  0  0  0  0
  2  1  1  6
  2  3  1  0
  2 17  1  0
  2 20  1  0
  3  4  2  0
  3 15  1  0
  4  5  1  0
  4 13  1  0
  5  6  2  0
  5  7  1  0
  7  8  1  0
  8  9  1  0
  9 10  1  0
 10 11  1  0
 10 12  1  0
 13 14  1  0
 14 15  1  0
 15 16  2  0
 17 18  1  0
 18 19  1  0
 19 20  1  0
M  END
