
     RDKit          3D

 27 29  0  0  0  0  0  0  0  0999 V2000
   -6.6300    2.1280    1.4720 N   0  0  0  0  0  0  0  0  0  0  0  0
   -6.1130    1.0440    0.7570 C   0  0  0  0  0  0  0  0  0  0  0  0
   -6.6490    0.7170   -0.4760 N   0  0  0  0  0  0  0  0  0  0  0  0
   -6.0460   -0.0880   -1.2830 C   0  0  0  0  0  0  0  0  0  0  0  0
   -4.9060   -0.6610   -0.9870 N   0  0  0  0  0  0  0  0  0  0  0  0
   -4.2820   -0.4490    0.2060 C   0  0  0  0  0  0  0  0  0  0  0  0
   -4.9340    0.4040    1.0430 C   0  0  0  0  0  0  0  0  0  0  0  0
   -4.1060    0.5250    2.1730 N   0  0  0  0  0  0  0  0  0  0  0  0
   -3.0380   -0.2580    1.9590 C   0  0  0  0  0  0  0  0  0  0  0  0
   -3.1410   -0.8270    0.7800 N   0  0  0  0  0  0  0  0  0  0  0  0
   -2.0450   -1.3680   -0.0210 C   0  0  2  0  0  0  0  0  0  0  0  0
   -0.9280   -1.7520    0.6550 O   0  0  0  0  0  0  0  0  0  0  0  0
    0.1390   -1.2110    0.1450 C   0  0  2  0  0  0  0  0  0  0  0  0
    1.3930   -0.9490    0.8700 C   0  0  0  0  0  0  0  0  0  0  0  0
    1.9990    0.0840    0.1610 O   0  0  0  0  0  0  0  0  0  0  0  0
    3.3830    0.0170   -0.4760 P   0  0  0  0  0  0  0  0  0  0  0  0
    4.2660   -1.4400   -0.5700 O   0  0  0  0  0  0  0  0  0  0  0  0
    3.9150    1.2530   -1.4760 O   0  0  0  0  0  0  0  0  0  0  0  0
    4.2840    0.4450    0.6210 O   0  0  0  0  0  0  0  0  0  0  0  0
    5.9300    0.6050    0.4240 P   0  0  0  0  0  0  0  0  0  0  0  0
    6.8990   -0.6810    0.0600 O   0  0  0  0  0  0  0  0  0  0  0  0
    6.6080    2.1290    0.2510 O   0  0  0  0  0  0  0  0  0  0  0  0
    6.2310    0.5410    1.8780 O   0  0  0  0  0  0  0  0  0  0  0  0
   -0.1410   -0.1560   -0.8980 C   0  0  1  0  0  0  0  0  0  0  0  0
    0.0770   -0.4830   -2.2110 O   0  0  0  0  0  0  0  0  0  0  0  0
   -1.5660    0.0280   -0.7200 C   0  0  1  0  0  0  0  0  0  0  0  0
   -2.3810    0.1770   -1.7680 O   0  0  0  0  0  0  0  0  0  0  0  0
  1  2  1  0
  2  3  2  0
  2  7  1  0
  3  4  1  0
  4  5  2  0
  5  6  1  0
  6  7  2  0
  6 10  1  0
  7  8  1  0
  8  9  2  0
  9 10  1  0
 11 10  1  1
 11 12  1  0
 11 26  1  0
 12 13  1  0
 13 14  1  1
 13 24  1  0
 14 15  1  0
 15 16  1  0
 16 17  1  0
 16 18  1  0
 16 19  1  0
 19 20  1  0
 20 21  1  0
 20 22  1  0
 20 23  1  0
 24 25  1  6
 24 26  1  0
 26 27  1  6
M  END
