
     RDKit          3D

 23 23  0  0  0  0  0  0  0  0999 V2000
    5.4390   -0.5840   -0.9140 C   0  0  0  0  0  0  0  0  0  0  0  0
    5.1430   -0.1460    0.2940 C   0  0  0  0  0  0  0  0  0  0  0  0
    3.7530   -0.3040    0.8680 C   0  0  0  0  0  0  0  0  0  0  0  0
    2.9990   -0.9320   -0.0710 O   0  0  0  0  0  0  0  0  0  0  0  0
    1.6940   -1.2030    0.2130 C   0  0  0  0  0  0  0  0  0  0  0  0
    0.8150   -0.0680    0.4700 C   0  0  0  0  0  0  0  0  0  0  0  0
    1.2700    1.0940    0.4170 O   0  0  0  0  0  0  0  0  0  0  0  0
   -0.5670   -0.2140    0.7870 N   0  0  0  0  0  0  0  0  0  0  0  0
   -1.0820   -1.5280    0.8320 C   0  0  0  0  0  0  0  0  0  0  0  0
   -1.6470   -2.2590   -0.2890 C   0  0  2  0  0  0  0  0  0  0  0  0
   -2.8790   -1.6710   -0.8760 C   0  0  0  0  0  0  0  0  0  0  0  0
   -2.0000   -3.6670    0.2680 C   0  0  0  0  0  0  0  0  0  0  0  0
   -2.5940   -4.5160   -0.8040 C   0  0  0  0  0  0  0  0  0  0  0  0
   -1.2550    0.9480    1.2190 C   0  0  0  0  0  0  0  0  0  0  0  0
   -1.6990    1.9930    0.2970 C   0  0  1  0  0  0  0  0  0  0  0  0
   -2.6300    1.6990   -0.8170 C   0  0  0  0  0  0  0  0  0  0  0  0
   -2.8650    3.0400   -1.5620 C   0  0  0  0  0  0  0  0  0  0  0  0
   -3.5330    3.8850   -0.6970 O   0  0  0  0  0  0  0  0  0  0  0  0
   -2.6320    4.2520    0.3230 C   0  0  0  0  0  0  0  0  0  0  0  0
   -2.4670    3.0250    1.1860 C   0  0  1  0  0  0  0  0  0  0  0  0
   -3.7350    2.5040    1.4520 O   0  0  0  0  0  0  0  0  0  0  0  0
    6.4130    0.6570    1.2860 S   0  0  0  0  0  0  0  0  0  0  0  0
    7.9530    0.7090    0.3680 C   0  0  0  0  0  0  0  0  0  0  0  0
  1  2  2  0
  2  3  1  0
  2 22  1  0
  3  4  1  0
  4  5  1  0
  5  6  1  0
  6  7  2  0
  6  8  1  0
  8  9  1  0
  8 14  1  0
  9 10  1  0
 10 11  1  1
 10 12  1  0
 12 13  1  0
 15 14  1  1
 15 16  1  0
 15 20  1  0
 16 17  1  0
 17 18  1  0
 18 19  1  0
 19 20  1  0
 20 21  1  6
 22 23  1  0
M  END
