
     RDKit          3D

 23 23  0  0  0  0  0  0  0  0999 V2000
    5.7320    0.1760    1.1750 C   0  0  0  0  0  0  0  0  0  0  0  0
    5.2100   -0.7500    0.2710 O   0  0  0  0  0  0  0  0  0  0  0  0
    3.9660   -0.4730   -0.4220 C   0  0  0  0  0  0  0  0  0  0  0  0
    3.4590    0.5930   -0.1410 O   0  0  0  0  0  0  0  0  0  0  0  0
    3.5140   -1.4950   -1.3360 C   0  0  0  0  0  0  0  0  0  0  0  0
    2.0080   -1.3610   -2.2260 S   0  0  0  0  0  0  0  0  0  0  0  0
    0.5430   -1.4320   -1.2930 C   0  0  0  0  0  0  0  0  0  0  0  0
    0.0120   -0.0430   -0.7560 C   0  0  0  0  0  0  0  0  0  0  0  0
    0.6590    0.9760   -1.1580 C   0  0  0  0  0  0  0  0  0  0  0  0
    0.7200    2.3990   -1.0460 C   0  0  0  0  0  0  0  0  0  0  0  0
    1.6130    3.1210   -1.8100 C   0  0  0  0  0  0  0  0  0  0  0  0
    1.4860    4.5350   -1.5090 C   0  0  0  0  0  0  0  0  0  0  0  0
    0.4840    4.5970   -0.4550 C   0  0  0  0  0  0  0  0  0  0  0  0
    0.0520    3.3430   -0.2080 C   0  0  0  0  0  0  0  0  0  0  0  0
   -0.9310    3.1310    0.9180 C   0  0  0  0  0  0  0  0  0  0  0  0
   -1.2560   -0.2540   -0.1180 C   0  0  0  0  0  0  0  0  0  0  0  0
   -2.0770    0.6270    0.1050 O   0  0  0  0  0  0  0  0  0  0  0  0
   -1.6510   -1.5610    0.3190 N   0  0  0  0  0  0  0  0  0  0  0  0
   -2.9630   -1.7300    0.9660 C   0  0  2  0  0  0  0  0  0  0  0  0
   -2.6990   -1.9860    2.4280 C   0  0  0  0  0  0  0  0  0  0  0  0
   -3.7100   -2.8180    0.2750 C   0  0  1  0  0  0  0  0  0  0  0  0
   -5.0740   -3.0740    0.8250 C   0  0  0  0  0  0  0  0  0  0  0  0
   -3.8650   -2.4390   -1.0660 O   0  0  0  0  0  0  0  0  0  0  0  0
  1  2  1  0
  2  3  1  0
  3  4  2  0
  3  5  1  0
  5  6  1  0
  6  7  1  0
  7  8  1  0
  8  9  2  3
  8 16  1  0
  9 10  1  0
 10 11  2  0
 10 14  1  0
 11 12  1  0
 12 13  1  0
 13 14  2  0
 14 15  1  0
 16 17  2  0
 16 18  1  0
 18 19  1  0
 19 20  1  1
 19 21  1  0
 21 22  1  1
 21 23  1  0
M  END
