
     RDKit          3D

 23 23  0  0  0  0  0  0  0  0999 V2000
    5.4130    1.8710   -2.6240 C   0  0  0  0  0  0  0  0  0  0  0  0
    4.4310    2.2540   -1.6990 O   0  0  0  0  0  0  0  0  0  0  0  0
    3.8800    1.3420   -0.8100 C   0  0  0  0  0  0  0  0  0  0  0  0
    2.9110    1.7690    0.0870 C   0  0  0  0  0  0  0  0  0  0  0  0
    2.3550    0.8890    0.9700 C   0  0  0  0  0  0  0  0  0  0  0  0
    2.7280   -0.4580    1.0120 C   0  0  0  0  0  0  0  0  0  0  0  0
    2.0880   -1.3710    1.9960 C   0  0  0  0  0  0  0  0  0  0  0  0
    0.8410   -2.0220    1.4250 C   0  0  2  0  0  0  0  0  0  0  0  0
   -0.1520   -1.0750    1.0430 N   0  0  0  0  0  0  0  0  0  0  0  0
   -0.6590   -0.8970   -0.2590 C   0  0  0  0  0  0  0  0  0  0  0  0
   -0.2210   -1.6120   -1.1810 O   0  0  0  0  0  0  0  0  0  0  0  0
   -1.7190    0.1350   -0.5840 C   0  0  1  0  0  0  0  0  0  0  0  0
   -1.9800    0.0100   -2.0520 C   0  0  0  0  0  0  0  0  0  0  0  0
   -3.1850    1.1180   -2.7410 S   0  0  0  0  0  0  0  0  0  0  0  0
   -2.8880   -0.1010    0.3080 C   0  0  0  0  0  0  0  0  0  0  0  0
   -4.0510    0.8070    0.1680 C   0  0  2  0  0  0  0  0  0  0  0  0
   -3.7080    2.2430    0.4260 C   0  0  0  0  0  0  0  0  0  0  0  0
   -5.0560    0.3790    1.2660 C   0  0  0  0  0  0  0  0  0  0  0  0
    0.3570   -3.0140    2.4200 C   0  0  0  0  0  0  0  0  0  0  0  0
   -0.8210   -3.0000    2.8660 O   0  0  0  0  0  0  0  0  0  0  0  0
    1.2020   -4.0070    2.8970 O   0  0  0  0  0  0  0  0  0  0  0  0
    3.6850   -0.8480    0.1150 C   0  0  0  0  0  0  0  0  0  0  0  0
    4.2650    0.0300   -0.7930 C   0  0  0  0  0  0  0  0  0  0  0  0
  1  2  1  0
  2  3  1  0
  3  4  2  0
  3 23  1  0
  4  5  1  0
  5  6  2  0
  6  7  1  0
  6 22  1  0
  8  7  1  1
  8  9  1  0
  8 19  1  0
  9 10  1  0
 10 11  2  0
 10 12  1  0
 12 13  1  6
 12 15  1  0
 13 14  1  0
 15 16  1  0
 16 17  1  1
 16 18  1  0
 19 20  2  0
 19 21  1  0
 22 23  2  0
M  END
