
     RDKit          3D

 23 23  0  0  0  0  0  0  0  0999 V2000
   -3.4610   -2.1300    2.1830 C   0  0  0  0  0  0  0  0  0  0  0  0
   -3.3270   -2.0350    0.8290 C   0  0  0  0  0  0  0  0  0  0  0  0
   -4.0680   -2.9930   -0.0160 C   0  0  0  0  0  0  0  0  0  0  0  0
   -2.4670   -0.9850    0.3500 C   0  0  0  0  0  0  0  0  0  0  0  0
   -2.2240   -0.7620   -0.9080 C   0  0  0  0  0  0  0  0  0  0  0  0
   -2.7060   -1.4400   -2.1040 C   0  0  0  0  0  0  0  0  0  0  0  0
   -1.8560   -0.0810    1.3710 C   0  0  0  0  0  0  0  0  0  0  0  0
   -1.1150    1.0280    0.8950 N   0  0  0  0  0  0  0  0  0  0  0  0
   -1.7340    2.3310    0.8870 C   0  0  0  0  0  0  0  0  0  0  0  0
   -2.2970    2.6670   -0.4490 C   0  0  2  0  0  0  0  0  0  0  0  0
   -1.3310    2.7130   -1.4500 O   0  0  0  0  0  0  0  0  0  0  0  0
   -2.9410    4.0570   -0.4560 C   0  0  0  0  0  0  0  0  0  0  0  0
   -3.9190    4.0800    0.5250 O   0  0  0  0  0  0  0  0  0  0  0  0
    0.2740    0.9360    0.5210 C   0  0  0  0  0  0  0  0  0  0  0  0
    0.8710    1.9580    0.1070 O   0  0  0  0  0  0  0  0  0  0  0  0
    1.0180   -0.3220    0.6090 C   0  0  0  0  0  0  0  0  0  0  0  0
    2.7360   -0.1520    0.0790 S   0  0  0  0  0  0  0  0  0  0  0  0
    3.5320   -1.7750    0.2400 C   0  0  0  0  0  0  0  0  0  0  0  0
    4.9840   -1.6540   -0.2030 C   0  0  2  0  0  0  0  0  0  0  0  0
    5.6240   -0.6290    0.7180 C   0  0  0  0  0  0  0  0  0  0  0  0
    5.8390    0.5390   -0.2220 C   0  0  0  0  0  0  0  0  0  0  0  0
    6.0600   -0.2210   -1.5330 C   0  0  0  0  0  0  0  0  0  0  0  0
    4.9970   -1.1330   -1.4720 O   0  0  0  0  0  0  0  0  0  0  0  0
  1  2  2  0
  2  3  1  0
  2  4  1  0
  4  5  2  3
  4  7  1  0
  5  6  1  0
  7  8  1  0
  8  9  1  0
  8 14  1  0
  9 10  1  0
 10 11  1  6
 10 12  1  0
 12 13  1  0
 14 15  2  0
 14 16  1  0
 16 17  1  0
 17 18  1  0
 19 18  1  1
 19 20  1  0
 19 23  1  0
 20 21  1  0
 21 22  1  0
 22 23  1  0
M  END
