
     RDKit          3D

 23 23  0  0  0  0  0  0  0  0999 V2000
    0.3950   -4.8780    0.2540 C   0  0  0  0  0  0  0  0  0  0  0  0
   -0.3950   -4.0660   -0.7330 C   0  0  0  0  0  0  0  0  0  0  0  0
   -0.4480   -2.7010   -0.4430 O   0  0  0  0  0  0  0  0  0  0  0  0
    0.6250   -1.8520   -0.3400 C   0  0  0  0  0  0  0  0  0  0  0  0
    1.7570   -2.3990   -0.5350 O   0  0  0  0  0  0  0  0  0  0  0  0
    0.5490   -0.4350   -0.0380 C   0  0  0  0  0  0  0  0  0  0  0  0
    1.6230    0.3530    0.0540 C   0  0  0  0  0  0  0  0  0  0  0  0
    3.3200   -0.2100   -0.1800 S   0  0  0  0  0  0  0  0  0  0  0  0
    4.4160    1.2090    0.0980 C   0  0  2  0  0  0  0  0  0  0  0  0
    4.2230    2.2560   -0.9700 C   0  0  0  0  0  0  0  0  0  0  0  0
    5.8560    0.7850    0.1560 C   0  0  0  0  0  0  0  0  0  0  0  0
    6.7650    1.9710    0.3880 C   0  0  0  0  0  0  0  0  0  0  0  0
    1.2590    1.6710    0.3590 N   0  0  0  0  0  0  0  0  0  0  0  0
   -0.1780    1.7410    0.4760 C   0  0  0  0  0  0  0  0  0  0  0  0
   -0.8240    2.7690    0.7370 O   0  0  0  0  0  0  0  0  0  0  0  0
   -0.6620    0.3960    0.2250 C   0  0  0  0  0  0  0  0  0  0  0  0
   -1.8470   -0.1050    0.1700 C   0  0  0  0  0  0  0  0  0  0  0  0
   -3.1810    0.4120    0.3710 C   0  0  0  0  0  0  0  0  0  0  0  0
   -3.4260    1.7700    0.8350 C   0  0  0  0  0  0  0  0  0  0  0  0
   -4.1670   -0.4350    0.1880 C   0  0  0  0  0  0  0  0  0  0  0  0
   -5.5770   -0.4920    0.2310 C   0  0  0  0  0  0  0  0  0  0  0  0
   -6.4530    0.6960    0.3940 C   0  0  0  0  0  0  0  0  0  0  0  0
   -6.3280    1.6600   -0.6030 O   0  0  0  0  0  0  0  0  0  0  0  0
  1  2  1  0
  2  3  1  0
  3  4  1  0
  4  5  2  0
  4  6  1  0
  6  7  2  0
  6 16  1  0
  7  8  1  0
  7 13  1  0
  8  9  1  0
  9 10  1  6
  9 11  1  0
 11 12  1  0
 13 14  1  0
 14 15  2  0
 14 16  1  0
 16 17  2  3
 17 18  1  0
 18 19  1  0
 18 20  2  3
 20 21  1  0
 21 22  1  0
 22 23  1  0
M  END
