
     RDKit          3D

 20 21  0  0  0  0  0  0  0  0999 V2000
   -1.2760   -2.0500   -0.5080 O   0  0  0  0  0  0  0  0  0  0  0  0
   -2.2730   -1.2040   -0.4040 C   0  0  0  0  0  0  0  0  0  0  0  0
   -3.5560   -1.6660   -0.7960 N   0  0  0  0  0  0  0  0  0  0  0  0
   -4.7890   -1.0080   -0.4270 C   0  0  0  0  0  0  0  0  0  0  0  0
   -4.4720   -0.0780    0.7470 C   0  0  2  0  0  0  0  0  0  0  0  0
   -5.5580    0.5710    1.2660 O   0  0  0  0  0  0  0  0  0  0  0  0
   -3.3940    0.8450    0.2300 C   0  0  0  0  0  0  0  0  0  0  0  0
   -2.1760    0.1010    0.0900 N   0  0  0  0  0  0  0  0  0  0  0  0
   -0.9520    0.6690    0.5630 C   0  0  0  0  0  0  0  0  0  0  0  0
   -1.0350    1.5810    1.4510 O   0  0  0  0  0  0  0  0  0  0  0  0
    0.3700    0.2790    0.0990 C   0  0  0  0  0  0  0  0  0  0  0  0
    0.6950   -0.4370   -0.9540 C   0  0  0  0  0  0  0  0  0  0  0  0
    2.0830   -0.5880   -1.0420 O   0  0  0  0  0  0  0  0  0  0  0  0
    2.6260   -0.0530    0.1220 C   0  0  1  0  0  0  0  0  0  0  0  0
    3.7160    0.9150   -0.4690 C   0  0  0  0  0  0  0  0  0  0  0  0
    4.4730    1.2740    0.6810 O   0  0  0  0  0  0  0  0  0  0  0  0
    6.1140    0.7800    0.3700 P   0  0  0  0  0  0  0  0  0  0  0  0
    7.1460    0.7430    1.6350 O   0  0  0  0  0  0  0  0  0  0  0  0
    6.3940   -0.1040   -1.0280 O   0  0  0  0  0  0  0  0  0  0  0  0
    1.5670    0.6360    0.7370 O   0  0  0  0  0  0  0  0  0  0  0  0
  1  2  2  0
  2  3  1  0
  2  8  1  0
  3  4  1  0
  4  5  1  0
  5  6  1  6
  5  7  1  0
  7  8  1  0
  8  9  1  0
  9 10  2  0
  9 11  1  0
 11 12  2  0
 11 20  1  0
 12 13  1  0
 13 14  1  0
 14 15  1  6
 14 20  1  0
 15 16  1  0
 16 17  1  0
 17 18  1  0
 17 19  1  0
M  END
