
     RDKit          3D

 20 21  0  0  0  0  0  0  0  0999 V2000
   -5.3980   -2.1930   -0.6910 O   0  0  0  0  0  0  0  0  0  0  0  0
   -4.6480   -1.1910   -0.8280 C   0  0  0  0  0  0  0  0  0  0  0  0
   -3.1790   -1.2100   -0.6000 C   0  0  0  0  0  0  0  0  0  0  0  0
   -2.9970    0.1750    0.0160 C   0  0  2  0  0  0  0  0  0  0  0  0
   -3.9210    0.9990   -0.8140 C   0  0  0  0  0  0  0  0  0  0  0  0
   -4.9570    0.1080   -1.2000 O   0  0  0  0  0  0  0  0  0  0  0  0
   -1.6860    0.5900    0.0090 O   0  0  0  0  0  0  0  0  0  0  0  0
   -1.1530   -0.1680    1.0740 C   0  0  1  0  0  0  0  0  0  0  0  0
    0.1230    0.3700    1.5530 C   0  0  0  0  0  0  0  0  0  0  0  0
    0.2240    0.8180    2.7210 O   0  0  0  0  0  0  0  0  0  0  0  0
    1.2560    0.4000    0.7280 N   0  0  0  0  0  0  0  0  0  0  0  0
    2.5520    0.9280    1.1630 C   0  0  0  0  0  0  0  0  0  0  0  0
    3.5700    0.8300    0.0720 C   0  0  0  0  0  0  0  0  0  0  0  0
    3.7940   -0.4580   -0.3480 O   0  0  0  0  0  0  0  0  0  0  0  0
    4.9790   -0.4730   -1.6020 P   0  0  0  0  0  0  0  0  0  0  0  0
    5.3030   -2.0900   -2.1410 O   0  0  0  0  0  0  0  0  0  0  0  0
    6.4180    0.3640   -1.1870 O   0  0  0  0  0  0  0  0  0  0  0  0
   -2.1330   -0.0680    2.1370 N   0  0  0  0  0  0  0  0  0  0  0  0
   -3.3760    0.1310    1.4320 C   0  0  0  0  0  0  0  0  0  0  0  0
   -4.5280    0.2430    1.9200 O   0  0  0  0  0  0  0  0  0  0  0  0
  1  2  2  0
  2  3  1  0
  2  6  1  0
  4  3  1  6
  4  5  1  0
  4  7  1  0
  4 19  1  0
  5  6  1  0
  7  8  1  0
  8  9  1  1
  8 18  1  0
  9 10  2  0
  9 11  1  0
 11 12  1  0
 12 13  1  0
 13 14  1  0
 14 15  1  0
 15 16  1  0
 15 17  1  0
 18 19  1  0
 19 20  2  0
M  END
