
     RDKit          3D

  8  8  0  0  0  0  0  0  0  0999 V2000
   -2.6460   -0.3580    0.3250 N   0  0  0  0  0  0  0  0  0  0  0  0
   -1.2270   -0.5320    0.1750 C   0  0  0  0  0  0  0  0  0  0  0  0
   -0.5200    0.7530   -0.2170 C   0  0  0  0  0  0  0  0  0  0  0  0
    0.9240    0.4740   -0.3460 C   0  0  0  0  0  0  0  0  0  0  0  0
    1.9200    1.3840   -0.6900 C   0  0  0  0  0  0  0  0  0  0  0  0
    3.0760    0.7060   -0.6880 N   0  0  0  0  0  0  0  0  0  0  0  0
    2.8710   -0.5850   -0.3620 C   0  0  0  0  0  0  0  0  0  0  0  0
    1.5500   -0.7060   -0.1570 N   0  0  0  0  0  0  0  0  0  0  0  0
  1  2  1  0
  2  3  1  0
  3  4  1  0
  4  5  2  0
  4  8  1  0
  5  6  1  0
  6  7  2  0
  7  8  1  0
M  CHG  1   1   1
M  END
