
     RDKit          3D

  8  8  0  0  0  0  0  0  0  0999 V2000
   -2.1690   -1.3190   -0.0300 C   0  0  0  0  0  0  0  0  0  0  0  0
   -0.9860   -0.4090   -0.0050 C   0  0  0  0  0  0  0  0  0  0  0  0
   -1.1880    0.8860    0.0450 C   0  0  0  0  0  0  0  0  0  0  0  0
   -0.0810    1.8490    0.0730 C   0  0  0  0  0  0  0  0  0  0  0  0
    1.1940    1.2120    0.0410 N   0  0  0  0  0  0  0  0  0  0  0  0
    1.3160   -0.1890   -0.0120 C   0  0  0  0  0  0  0  0  0  0  0  0
    2.6630   -0.6960   -0.0400 N   0  0  0  0  0  0  0  0  0  0  0  0
    0.3070   -0.9930   -0.0350 N   0  0  0  0  0  0  0  0  0  0  0  0
  1  2  1  0
  2  3  2  0
  2  8  1  0
  3  4  1  0
  4  5  1  0
  5  6  1  0
  6  7  1  0
  6  8  2  0
M  CHG  1   8   1
M  END
