
     RDKit          3D

  8  8  0  0  0  0  0  0  0  0999 V2000
   -2.6660   -0.0510    0.5230 N   0  0  0  0  0  0  0  0  0  0  0  0
   -1.2650    0.2370    0.5620 C   0  0  0  0  0  0  0  0  0  0  0  0
   -0.5000   -0.5390   -0.5060 C   0  0  0  0  0  0  0  0  0  0  0  0
    0.9340   -0.2080   -0.4240 C   0  0  0  0  0  0  0  0  0  0  0  0
    1.6040    0.6430    0.4270 C   0  0  0  0  0  0  0  0  0  0  0  0
    2.9640    0.6260    0.1180 C   0  0  0  0  0  0  0  0  0  0  0  0
    3.0560   -0.2400   -0.9130 N   0  0  0  0  0  0  0  0  0  0  0  0
    1.8830   -0.7290   -1.2340 N   0  0  0  0  0  0  0  0  0  0  0  0
  1  2  1  0
  2  3  1  0
  3  4  1  0
  4  5  2  0
  4  8  1  0
  5  6  1  0
  6  7  2  0
  7  8  1  0
M  CHG  1   1   1
M  END
