
     RDKit          3D

  8  8  0  0  0  0  0  0  0  0999 V2000
    2.5670   -1.1510   -0.4060 N   0  0  0  0  0  0  0  0  0  0  0  0
    1.3810   -0.4180   -0.1640 C   0  0  0  0  0  0  0  0  0  0  0  0
    0.1690   -0.9500   -0.2590 C   0  0  0  0  0  0  0  0  0  0  0  0
   -1.0080   -0.1930   -0.0110 N   0  0  0  0  0  0  0  0  0  0  0  0
   -2.2700   -0.8130   -0.1280 N   0  0  0  0  0  0  0  0  0  0  0  0
   -0.9850    1.1820    0.3560 C   0  0  0  0  0  0  0  0  0  0  0  0
    0.3840    1.7350    0.4510 C   0  0  0  0  0  0  0  0  0  0  0  0
    1.4450    0.9900    0.2100 C   0  0  0  0  0  0  0  0  0  0  0  0
  1  2  1  0
  2  3  2  0
  2  8  1  0
  3  4  1  0
  4  5  1  0
  4  6  1  0
  6  7  1  0
  7  8  2  0
M  CHG  1   5   1
M  END
