
     RDKit          3D

  8  8  0  0  0  0  0  0  0  0999 V2000
   -1.8060   -1.1740    0.1850 C   0  0  0  0  0  0  0  0  0  0  0  0
   -0.5170   -0.4690    0.0580 C   0  0  0  0  0  0  0  0  0  0  0  0
    0.6970   -0.9810    0.0400 C   0  0  0  0  0  0  0  0  0  0  0  0
    1.6760    0.1140   -0.1050 C   0  0  0  0  0  0  0  0  0  0  0  0
    2.9560   -0.0170   -0.1600 N   0  0  0  0  0  0  0  0  0  0  0  0
    0.8900    1.2920   -0.1660 N   0  0  0  0  0  0  0  0  0  0  0  0
   -0.3680    0.9800   -0.0740 C   0  0  0  0  0  0  0  0  0  0  0  0
   -1.4250    1.9280   -0.1010 N   0  0  0  0  0  0  0  0  0  0  0  0
  1  2  1  0
  2  3  2  0
  2  7  1  0
  3  4  1  0
  4  5  2  0
  4  6  1  0
  6  7  2  0
  7  8  1  0
M  CHG  1   5   1
M  END
