
     RDKit          3D

 21 23  0  0  0  0  0  0  0  0999 V2000
    6.8140   -1.3010   -0.6890 C   0  0  0  0  0  0  0  0  0  0  0  0
    5.3410   -1.4060   -0.5360 C   0  0  0  0  0  0  0  0  0  0  0  0
    4.6080   -0.3120   -0.4540 C   0  0  0  0  0  0  0  0  0  0  0  0
    3.1760   -0.3780   -0.3050 C   0  0  0  0  0  0  0  0  0  0  0  0
    2.3800    0.6970   -0.2150 C   0  0  0  0  0  0  0  0  0  0  0  0
    2.9380    2.0720   -0.2640 C   0  0  0  0  0  0  0  0  0  0  0  0
    1.7010    2.9050    0.8350 S   0  0  0  0  0  0  0  0  0  0  0  0
    0.3920    1.7540    0.4970 C   0  0  0  0  0  0  0  0  0  0  0  0
   -0.9660    1.5540    0.5760 C   0  0  0  0  0  0  0  0  0  0  0  0
   -1.2850    0.3340    0.0690 C   0  0  0  0  0  0  0  0  0  0  0  0
   -2.5400   -0.3390   -0.1470 C   0  0  0  0  0  0  0  0  0  0  0  0
   -2.5970   -1.3860   -1.1010 C   0  0  0  0  0  0  0  0  0  0  0  0
   -3.7180   -2.1240   -1.3420 C   0  0  0  0  0  0  0  0  0  0  0  0
   -3.7720   -3.0760   -2.2100 N   0  0  0  0  0  0  0  0  0  0  0  0
   -4.8610   -1.8490   -0.6300 C   0  0  0  0  0  0  0  0  0  0  0  0
   -4.7930   -0.8680    0.2590 N   0  0  0  0  0  0  0  0  0  0  0  0
   -3.6740   -0.1360    0.4950 N   0  0  0  0  0  0  0  0  0  0  0  0
   -3.8180    0.8710    1.5300 C   0  0  0  0  0  0  0  0  0  0  0  0
   -4.3200    2.1340    0.8650 C   0  0  0  0  0  0  0  0  0  0  0  0
   -0.0770   -0.1870   -0.3160 N   0  0  0  0  0  0  0  0  0  0  0  0
    0.9390    0.6510   -0.0660 C   0  0  0  0  0  0  0  0  0  0  0  0
  1  2  1  0
  2  3  2  3
  3  4  1  0
  4  5  2  3
  5  6  1  0
  5 21  1  0
  6  7  1  0
  7  8  1  0
  8  9  1  0
  8 21  2  0
  9 10  2  0
 10 11  1  0
 10 20  1  0
 11 12  2  0
 11 17  1  0
 12 13  1  0
 13 14  2  0
 13 15  1  0
 15 16  2  0
 16 17  1  0
 17 18  1  0
 18 19  1  0
 20 21  1  0
M  END
