
     RDKit          3D

 15 15  0  0  0  0  0  0  0  0999 V2000
    4.3140   -0.6010    0.2040 C   0  0  0  0  0  0  0  0  0  0  0  0
    3.0820    0.1350   -0.1350 C   0  0  0  0  0  0  0  0  0  0  0  0
    3.2070    1.2690   -0.6750 O   0  0  0  0  0  0  0  0  0  0  0  0
    1.7670   -0.3710    0.1170 N   0  0  0  0  0  0  0  0  0  0  0  0
    0.5680    0.3700   -0.2250 C   0  0  1  0  0  0  0  0  0  0  0  0
   -0.2460   -0.3290   -1.2890 C   0  0  1  0  0  0  0  0  0  0  0  0
    0.6850   -0.8580   -2.2110 O   0  0  0  0  0  0  0  0  0  0  0  0
   -0.9770   -1.3770   -0.8030 O   0  0  0  0  0  0  0  0  0  0  0  0
   -1.8510   -1.0920    0.1980 C   0  0  2  0  0  0  0  0  0  0  0  0
   -3.1720   -0.5110   -0.3190 C   0  0  0  0  0  0  0  0  0  0  0  0
   -2.9900    0.6580   -1.0150 O   0  0  0  0  0  0  0  0  0  0  0  0
   -1.3190   -0.2590    1.3110 C   0  0  2  0  0  0  0  0  0  0  0  0
   -2.4020    0.4350    1.8750 O   0  0  0  0  0  0  0  0  0  0  0  0
   -0.2750    0.7170    0.9510 C   0  0  2  0  0  0  0  0  0  0  0  0
   -0.8720    1.9730    0.7290 O   0  0  0  0  0  0  0  0  0  0  0  0
  1  2  1  0
  2  3  2  0
  2  4  1  0
  5  4  1  1
  5  6  1  0
  5 14  1  0
  6  7  1  6
  6  8  1  0
  8  9  1  0
  9 10  1  6
  9 12  1  0
 10 11  1  0
 12 13  1  6
 12 14  1  0
 14 15  1  6
M  END
