
     RDKit          3D

 21 23  0  0  0  0  0  0  0  0999 V2000
   -3.5530   -1.9800    1.4640 C   0  0  0  0  0  0  0  0  0  0  0  0
   -3.8660   -0.6490    0.9540 N   0  0  0  0  0  0  0  0  0  0  0  0
   -2.8250    0.2080    0.4580 C   0  0  0  0  0  0  0  0  0  0  0  0
   -1.5440   -0.2070    0.4580 N   0  0  0  0  0  0  0  0  0  0  0  0
   -0.5730    0.5690    0.0050 C   0  0  0  0  0  0  0  0  0  0  0  0
    0.8360    0.1260   -0.0010 C   0  0  0  0  0  0  0  0  0  0  0  0
    2.1920    1.1920   -0.6290 S   0  0  0  0  0  0  0  0  0  0  0  0
    3.4430   -0.0180   -0.2940 C   0  0  0  0  0  0  0  0  0  0  0  0
    4.7960    0.0500   -0.5060 N   0  0  0  0  0  0  0  0  0  0  0  0
    5.5860   -0.9880   -0.1820 C   0  0  0  0  0  0  0  0  0  0  0  0
    7.0610   -0.9520   -0.3970 C   0  0  0  0  0  0  0  0  0  0  0  0
    4.9610   -2.0490    0.3440 N   0  0  0  0  0  0  0  0  0  0  0  0
    3.6430   -2.1460    0.5630 C   0  0  0  0  0  0  0  0  0  0  0  0
    2.7980   -1.0700    0.2310 C   0  0  0  0  0  0  0  0  0  0  0  0
    1.4640   -1.0070    0.3850 C   0  0  0  0  0  0  0  0  0  0  0  0
    0.5900   -2.1240    0.9680 C   0  0  0  0  0  0  0  0  0  0  0  0
   -0.9180    1.8210   -0.4680 C   0  0  0  0  0  0  0  0  0  0  0  0
   -2.2140    2.2800   -0.4850 C   0  0  0  0  0  0  0  0  0  0  0  0
   -2.5680    3.6300   -0.9980 C   0  0  0  0  0  0  0  0  0  0  0  0
   -3.2020    1.4490   -0.0070 C   0  0  0  0  0  0  0  0  0  0  0  0
   -4.6450    1.8640    0.0150 C   0  0  0  0  0  0  0  0  0  0  0  0
  1  2  1  0
  2  3  1  0
  3  4  2  0
  3 20  1  0
  4  5  1  0
  5  6  1  0
  5 17  2  0
  6  7  1  0
  6 15  2  0
  7  8  1  0
  8  9  2  0
  8 14  1  0
  9 10  1  0
 10 11  1  0
 10 12  2  0
 12 13  1  0
 13 14  2  0
 14 15  1  0
 15 16  1  0
 17 18  1  0
 18 19  1  0
 18 20  2  0
 20 21  1  0
M  END
