
     RDKit          3D

 12 12  0  0  0  0  0  0  0  0999 V2000
    4.4680    0.3200    0.2640 C   0  0  0  0  0  0  0  0  0  0  0  0
    3.1410   -0.1860    0.3490 O   0  0  0  0  0  0  0  0  0  0  0  0
    2.1140    0.7240    0.5340 C   0  0  0  0  0  0  0  0  0  0  0  0
    2.3930    1.9300    0.6180 O   0  0  0  0  0  0  0  0  0  0  0  0
    0.7300    0.2420    0.6260 C   0  0  0  0  0  0  0  0  0  0  0  0
   -0.0690    0.0010   -0.9720 S   0  0  0  0  0  0  0  0  0  0  0  0
   -1.7480   -0.5320   -0.6890 C   0  0  0  0  0  0  0  0  0  0  0  0
   -2.6290   -0.8460   -1.6190 N   0  0  0  0  0  0  0  0  0  0  0  0
   -3.8050   -1.2030   -0.9420 N   0  0  0  0  0  0  0  0  0  0  0  0
   -3.7640   -0.6060    0.3490 N   0  0  0  0  0  0  0  0  0  0  0  0
   -3.9990    0.7270    0.0950 O   0  0  0  0  0  0  0  0  0  0  0  0
   -2.3640   -0.6910    0.5790 N   0  0  0  0  0  0  0  0  0  0  0  0
  1  2  1  0
  2  3  1  0
  3  4  2  0
  3  5  1  0
  5  6  1  0
  6  7  1  0
  7  8  2  0
  7 12  1  0
  8  9  1  0
  9 10  1  0
 10 11  1  0
 10 12  1  0
M  END
