
     RDKit          3D

 12 12  0  0  0  0  0  0  0  0999 V2000
   -3.5950    0.5230    0.5230 O   0  0  0  0  0  0  0  0  0  0  0  0
   -2.3700    0.2810    0.2760 C   0  0  0  0  0  0  0  0  0  0  0  0
   -1.9370   -0.9810    0.4410 N   0  0  0  0  0  0  0  0  0  0  0  0
   -0.6290   -1.2940    0.1880 C   0  0  0  0  0  0  0  0  0  0  0  0
   -0.2310   -2.4760    0.3440 O   0  0  0  0  0  0  0  0  0  0  0  0
    0.2350   -0.3410   -0.2280 N   0  0  0  0  0  0  0  0  0  0  0  0
    1.5980   -0.7280   -0.4820 C   0  0  0  0  0  0  0  0  0  0  0  0
    2.6070   -0.5660    1.0150 S   0  0  0  0  0  0  0  0  0  0  0  0
    2.7380    1.1080    1.4260 O   0  0  0  0  0  0  0  0  0  0  0  0
   -0.2150    0.8960   -0.3830 C   0  0  0  0  0  0  0  0  0  0  0  0
    0.8140    2.0610   -0.8830 S   0  0  0  0  0  0  0  0  0  0  0  0
   -1.5160    1.2370   -0.1380 N   0  0  0  0  0  0  0  0  0  0  0  0
  1  2  2  0
  2  3  1  0
  2 12  1  0
  3  4  1  0
  4  5  2  0
  4  6  1  0
  6  7  1  0
  6 10  1  0
  7  8  1  0
  8  9  1  0
 10 11  2  0
 10 12  1  0
M  END
