
     RDKit          3D

 13 13  0  0  0  0  0  0  0  0999 V2000
    2.7240   -1.8130    0.3870 O   0  0  0  0  0  0  0  0  0  0  0  0
    2.9040   -0.6290    0.0040 C   0  0  0  0  0  0  0  0  0  0  0  0
    4.0320    0.0820    0.4540 O   0  0  0  0  0  0  0  0  0  0  0  0
    1.9670   -0.0160   -0.8810 N   0  0  0  0  0  0  0  0  0  0  0  0
    0.8440   -0.6570   -1.3570 N   0  0  0  0  0  0  0  0  0  0  0  0
   -0.3110   -0.4000   -0.8470 C   0  0  0  0  0  0  0  0  0  0  0  0
   -1.7860   -1.1030   -1.3200 S   0  0  0  0  0  0  0  0  0  0  0  0
   -3.1060   -0.5160   -0.4190 C   0  0  0  0  0  0  0  0  0  0  0  0
   -4.6630   -0.9930   -0.6290 S   0  0  0  0  0  0  0  0  0  0  0  0
   -2.7720    0.3990    0.5110 N   0  0  0  0  0  0  0  0  0  0  0  0
   -1.5870    0.8540    0.7720 N   0  0  0  0  0  0  0  0  0  0  0  0
   -0.4280    0.5240    0.1830 C   0  0  0  0  0  0  0  0  0  0  0  0
    0.6420    1.1050    0.6020 O   0  0  0  0  0  0  0  0  0  0  0  0
  1  2  2  0
  2  3  1  0
  2  4  1  0
  4  5  1  0
  5  6  2  3
  6  7  1  0
  6 12  1  0
  7  8  1  0
  8  9  2  0
  8 10  1  0
 10 11  1  0
 11 12  1  0
 12 13  2  0
M  END
