
     RDKit          3D

 12 12  0  0  0  0  0  0  0  0999 V2000
   -3.7420   -1.9700   -0.4350 O   0  0  0  0  0  0  0  0  0  0  0  0
   -2.8020   -1.1290   -0.2940 C   0  0  0  0  0  0  0  0  0  0  0  0
   -1.5170   -1.4630   -0.5030 N   0  0  0  0  0  0  0  0  0  0  0  0
   -0.4940   -0.5820   -0.3600 C   0  0  0  0  0  0  0  0  0  0  0  0
    1.1970   -1.0800   -0.6540 S   0  0  0  0  0  0  0  0  0  0  0  0
    2.2690    0.3300   -0.3650 C   0  0  0  0  0  0  0  0  0  0  0  0
    4.0110   -0.0370   -0.6320 S   0  0  0  0  0  0  0  0  0  0  0  0
    4.6470   -1.1340    0.4820 O   0  0  0  0  0  0  0  0  0  0  0  0
   -0.8310    0.6660    0.0100 N   0  0  0  0  0  0  0  0  0  0  0  0
   -2.1090    1.0400    0.2310 C   0  0  0  0  0  0  0  0  0  0  0  0
   -2.3730    2.2360    0.5810 O   0  0  0  0  0  0  0  0  0  0  0  0
   -3.0820    0.1280    0.0730 N   0  0  0  0  0  0  0  0  0  0  0  0
  1  2  2  0
  2  3  1  0
  2 12  1  0
  3  4  2  0
  4  5  1  0
  4  9  1  0
  5  6  1  0
  6  7  1  0
  7  8  1  0
  9 10  1  0
 10 11  2  0
 10 12  1  0
M  END
