
     RDKit          3D

 14 14  0  0  0  0  0  0  0  0999 V2000
    4.8050    1.1210   -0.7070 O   0  0  0  0  0  0  0  0  0  0  0  0
    4.4290   -0.4060   -0.0250 P   0  0  0  0  0  0  0  0  0  0  0  0
    4.6250   -1.6640   -1.1890 O   0  0  0  0  0  0  0  0  0  0  0  0
    2.9080   -0.4510    0.7690 O   0  0  0  0  0  0  0  0  0  0  0  0
    2.0480    0.4180    0.1150 C   0  0  0  0  0  0  0  0  0  0  0  0
    0.6620    0.4250    0.7790 C   0  0  0  0  0  0  0  0  0  0  0  0
    0.1450   -0.8350    0.7300 O   0  0  0  0  0  0  0  0  0  0  0  0
   -1.0770   -1.0490    1.2760 C   0  0  0  0  0  0  0  0  0  0  0  0
   -2.2260   -0.2870    0.7270 C   0  0  2  0  0  0  0  0  0  0  0  0
   -3.4150   -0.6270    1.3910 O   0  0  0  0  0  0  0  0  0  0  0  0
   -2.4160   -0.4940   -0.7570 C   0  0  0  0  0  0  0  0  0  0  0  0
   -2.5990    0.8060   -1.2660 O   0  0  0  0  0  0  0  0  0  0  0  0
   -3.0720    1.4830   -0.1470 C   0  0  0  0  0  0  0  0  0  0  0  0
   -2.1230    1.0890    0.8250 O   0  0  0  0  0  0  0  0  0  0  0  0
  1  2  1  0
  2  3  1  0
  2  4  1  0
  4  5  1  0
  5  6  1  0
  6  7  1  0
  7  8  1  0
  8  9  1  0
  9 10  1  1
  9 11  1  0
  9 14  1  0
 11 12  1  0
 12 13  1  0
 13 14  1  0
M  END
