
     RDKit          3D

 14 13  0  0  0  0  0  0  0  0999 V2000
   -2.7330    1.6330   -1.4690 C   0  0  0  0  0  0  0  0  0  0  0  0
   -2.3830    1.1630   -0.2820 C   0  0  0  0  0  0  0  0  0  0  0  0
   -2.8130    1.8670    0.8340 O   0  0  0  0  0  0  0  0  0  0  0  0
   -1.5640   -0.0650   -0.1320 C   0  0  1  0  0  0  0  0  0  0  0  0
   -0.3790    0.1520    0.5180 O   0  0  0  0  0  0  0  0  0  0  0  0
    0.7370   -0.1450   -0.2610 C   0  0  0  0  0  0  0  0  0  0  0  0
    1.9390    0.0870    0.4320 O   0  0  0  0  0  0  0  0  0  0  0  0
    3.1890   -0.1140   -0.0770 C   0  0  0  0  0  0  0  0  0  0  0  0
    3.3030   -0.5390   -1.2550 O   0  0  0  0  0  0  0  0  0  0  0  0
    4.4410    0.1500    0.7080 C   0  0  0  0  0  0  0  0  0  0  0  0
    5.5700   -0.1280   -0.0200 O   0  0  0  0  0  0  0  0  0  0  0  0
   -2.6200   -1.3640    0.6560 P   0  0  0  0  0  0  0  0  0  0  0  0
   -4.3050   -0.9330    0.5410 O   0  0  0  0  0  0  0  0  0  0  0  0
   -2.2530   -1.6080    2.3140 O   0  0  0  0  0  0  0  0  0  0  0  0
  1  2  2  0
  2  3  1  0
  2  4  1  0
  4  5  1  1
  4 12  1  0
  5  6  1  0
  6  7  1  0
  7  8  1  0
  8  9  2  0
  8 10  1  0
 10 11  1  0
 12 13  1  0
 12 14  1  0
M  END
