
     RDKit          3D

 27 28  0  0  0  0  0  0  0  0999 V2000
    0.7470    3.8420    0.5000 O   0  0  0  0  0  0  0  0  0  0  0  0
    0.0120    2.9170   -0.0300 C   0  0  0  0  0  0  0  0  0  0  0  0
    0.5900    2.2010   -1.0660 N   0  0  0  0  0  0  0  0  0  0  0  0
    0.8740    0.8320   -1.2970 C   0  0  0  0  0  0  0  0  0  0  0  0
    0.6740   -0.1410   -0.2120 C   0  0  2  0  0  0  0  0  0  0  0  0
    1.6360   -0.0540    0.7690 O   0  0  0  0  0  0  0  0  0  0  0  0
    2.9220   -0.2490    0.4760 C   0  0  0  0  0  0  0  0  0  0  0  0
    3.7400   -0.1050    1.7730 C   0  0  0  0  0  0  0  0  0  0  0  0
    5.2230   -0.3260    1.4550 C   0  0  0  0  0  0  0  0  0  0  0  0
    5.8210    0.9200    0.2200 P   0  0  0  0  0  0  0  0  0  0  0  0
    6.2140    2.4250    0.9450 O   0  0  0  0  0  0  0  0  0  0  0  0
    7.2110    0.3280   -0.6370 O   0  0  0  0  0  0  0  0  0  0  0  0
    0.6430   -1.5660   -0.6700 C   0  0  0  0  0  0  0  0  0  0  0  0
   -0.5880   -2.0780   -1.3330 C   0  0  0  0  0  0  0  0  0  0  0  0
   -1.3370   -3.1120   -0.5540 C   0  0  0  0  0  0  0  0  0  0  0  0
   -2.6900   -2.8450   -0.0860 C   0  0  0  0  0  0  0  0  0  0  0  0
   -3.6500   -2.0870   -0.8960 C   0  0  0  0  0  0  0  0  0  0  0  0
   -4.4870   -1.1210   -0.0310 C   0  0  0  0  0  0  0  0  0  0  0  0
   -3.7680   -0.5590    0.9850 O   0  0  0  0  0  0  0  0  0  0  0  0
   -3.4920    0.6860    1.4060 C   0  0  0  0  0  0  0  0  0  0  0  0
   -3.0560    0.7400    2.6200 O   0  0  0  0  0  0  0  0  0  0  0  0
   -3.5900    1.9840    0.7600 C   0  0  0  0  0  0  0  0  0  0  0  0
   -2.4710    2.4360   -0.0900 C   0  0  2  0  0  0  0  0  0  0  0  0
   -2.0950    1.2790   -0.9960 C   0  0  0  0  0  0  0  0  0  0  0  0
   -1.5940    0.3160   -0.3050 O   0  0  0  0  0  0  0  0  0  0  0  0
   -0.6480    0.1290    0.5380 C   0  0  0  0  0  0  0  0  0  0  0  0
   -1.2650    2.8320    0.5780 N   0  0  0  0  0  0  0  0  0  0  0  0
  1  2  2  0
  2  3  1  0
  2 27  1  0
  3  4  1  0
  4  5  1  0
  5  6  1  1
  5 13  1  0
  5 26  1  0
  6  7  1  0
  7  8  1  0
  8  9  1  0
  9 10  1  0
 10 11  1  0
 10 12  1  0
 13 14  1  0
 14 15  1  0
 15 16  1  0
 16 17  1  0
 17 18  1  0
 18 19  1  0
 19 20  1  0
 20 21  2  0
 20 22  1  0
 23 22  1  1
 23 24  1  0
 23 27  1  0
 24 25  1  0
 25 26  1  0
M  END
