
     RDKit          3D

 28 28  0  0  0  0  0  0  0  0999 V2000
    1.1850    2.0030    1.1050 O   0  0  0  0  0  0  0  0  0  0  0  0
    1.1280    1.3450   -0.1390 C   0  0  2  0  0  0  0  0  0  0  0  0
   -0.3100    1.0900   -0.4260 C   0  0  2  0  0  0  0  0  0  0  0  0
   -1.0400    2.2170   -0.1780 O   0  0  0  0  0  0  0  0  0  0  0  0
   -1.8110    2.8880   -1.4600 P   0  0  0  0  0  0  0  0  0  0  0  0
   -1.8000    4.5390   -1.6900 O   0  0  0  0  0  0  0  0  0  0  0  0
   -3.1500    2.9550   -0.7380 O   0  0  0  0  0  0  0  0  0  0  0  0
   -2.4440    1.9550   -2.6680 O   0  0  0  0  0  0  0  0  0  0  0  0
   -0.7680   -0.0860    0.3730 C   0  0  1  0  0  0  0  0  0  0  0  0
   -2.1290   -0.2050    0.4160 O   0  0  0  0  0  0  0  0  0  0  0  0
   -2.7970   -0.1160    1.8760 P   0  0  0  0  0  0  0  0  0  0  0  0
   -2.1510    0.8750    3.0510 O   0  0  0  0  0  0  0  0  0  0  0  0
   -3.8340    0.9430    1.5160 O   0  0  0  0  0  0  0  0  0  0  0  0
   -4.0320   -1.1760    2.3120 O   0  0  0  0  0  0  0  0  0  0  0  0
   -0.0560   -1.2890   -0.1980 C   0  0  2  0  0  0  0  0  0  0  0  0
   -0.5510   -2.4540    0.3190 O   0  0  0  0  0  0  0  0  0  0  0  0
   -1.2060   -3.3860   -0.8450 P   0  0  0  0  0  0  0  0  0  0  0  0
   -2.5090   -4.3770   -0.5010 O   0  0  0  0  0  0  0  0  0  0  0  0
   -0.7520   -3.1940   -2.4270 O   0  0  0  0  0  0  0  0  0  0  0  0
   -0.2230   -4.5210   -0.6230 O   0  0  0  0  0  0  0  0  0  0  0  0
    1.3980   -1.1630    0.0950 C   0  0  1  0  0  0  0  0  0  0  0  0
    2.0440   -2.1770   -0.6560 O   0  0  0  0  0  0  0  0  0  0  0  0
    2.0120    0.1540   -0.1030 C   0  0  2  0  0  0  0  0  0  0  0  0
    3.0100    0.3620    0.8490 O   0  0  0  0  0  0  0  0  0  0  0  0
    4.5240    0.4970    0.3570 P   0  0  0  0  0  0  0  0  0  0  0  0
    5.7420   -0.4990    1.0090 O   0  0  0  0  0  0  0  0  0  0  0  0
    4.9630    1.4850   -0.9050 O   0  0  0  0  0  0  0  0  0  0  0  0
    4.9530    1.5590    1.3790 O   0  0  0  0  0  0  0  0  0  0  0  0
  2  1  1  1
  2  3  1  0
  2 23  1  0
  3  4  1  1
  3  9  1  0
  4  5  1  0
  5  6  1  0
  5  7  1  0
  5  8  1  0
  9 10  1  6
  9 15  1  0
 10 11  1  0
 11 12  1  0
 11 13  1  0
 11 14  1  0
 15 16  1  1
 15 21  1  0
 16 17  1  0
 17 18  1  0
 17 19  1  0
 17 20  1  0
 21 22  1  6
 21 23  1  0
 23 24  1  1
 24 25  1  0
 25 26  1  0
 25 27  1  0
 25 28  1  0
M  END
