
     RDKit          3D

 14 13  0  0  0  0  0  0  0  0999 V2000
    5.0430   -0.3230   -1.0730 C   0  0  0  0  0  0  0  0  0  0  0  0
    3.7210    0.1030   -1.1650 O   0  0  0  0  0  0  0  0  0  0  0  0
    3.0960    0.0890    0.0670 C   0  0  0  0  0  0  0  0  0  0  0  0
    1.6760    0.5480   -0.0320 C   0  0  0  0  0  0  0  0  0  0  0  0
    1.2710    0.8670   -1.1710 O   0  0  0  0  0  0  0  0  0  0  0  0
    0.8200    0.6410    0.9940 O   0  0  0  0  0  0  0  0  0  0  0  0
   -0.4810    1.0110    1.1520 C   0  0  0  0  0  0  0  0  0  0  0  0
   -1.5630    0.2150    0.4970 C   0  0  1  0  0  0  0  0  0  0  0  0
   -1.6090    0.3960   -0.9870 C   0  0  0  0  0  0  0  0  0  0  0  0
   -1.5440   -1.1270    0.8620 O   0  0  0  0  0  0  0  0  0  0  0  0
   -2.7890    0.7680    0.9630 O   0  0  0  0  0  0  0  0  0  0  0  0
   -4.1470   -0.0180    0.3190 P   0  0  0  0  0  0  0  0  0  0  0  0
   -3.8240   -1.5330   -0.4040 O   0  0  0  0  0  0  0  0  0  0  0  0
   -5.3400   -0.1990    1.5660 O   0  0  0  0  0  0  0  0  0  0  0  0
  1  2  1  0
  2  3  1  0
  3  4  1  0
  4  5  2  0
  4  6  1  0
  6  7  1  0
  7  8  1  0
  8  9  1  6
  8 10  1  0
  8 11  1  0
 11 12  1  0
 12 13  1  0
 12 14  1  0
M  END
