
     RDKit          3D

 40 41  0  0  0  0  0  0  0  0999 V2000
    5.3420   -4.4950    0.6000 C   0  0  0  0  0  0  0  0  0  0  0  0
    4.7500   -3.3320    0.5630 C   0  0  0  0  0  0  0  0  0  0  0  0
    5.3160   -2.1150   -0.1280 C   0  0  0  0  0  0  0  0  0  0  0  0
    4.0780   -1.4550   -0.6860 C   0  0  0  0  0  0  0  0  0  0  0  0
    2.9530   -1.8590    0.2070 C   0  0  2  0  0  0  0  0  0  0  0  0
    2.3990   -0.6830    0.9520 C   0  0  0  0  0  0  0  0  0  0  0  0
    2.6480   -0.6080    2.1910 O   0  0  0  0  0  0  0  0  0  0  0  0
    1.6360    0.2820    0.2520 N   0  0  0  0  0  0  0  0  0  0  0  0
    1.3810    0.0920   -1.1030 N   0  0  0  0  0  0  0  0  0  0  0  0
    0.1320    0.1990   -1.7790 C   0  0  0  0  0  0  0  0  0  0  0  0
    0.1680    0.8290   -2.8700 O   0  0  0  0  0  0  0  0  0  0  0  0
   -1.1540   -0.3610   -1.3050 C   0  0  1  0  0  0  0  0  0  0  0  0
   -2.2450   -0.0340   -2.2990 C   0  0  0  0  0  0  0  0  0  0  0  0
   -1.0390   -1.7920   -1.3130 O   0  0  0  0  0  0  0  0  0  0  0  0
   -2.1180   -2.5780   -0.9160 C   0  0  0  0  0  0  0  0  0  0  0  0
   -3.1880   -2.0240   -0.5560 O   0  0  0  0  0  0  0  0  0  0  0  0
   -2.0620   -4.0550   -0.8980 C   0  0  2  0  0  0  0  0  0  0  0  0
   -1.8180   -4.6430   -2.2760 C   0  0  0  0  0  0  0  0  0  0  0  0
   -3.3720   -4.6110   -0.3940 C   0  0  0  0  0  0  0  0  0  0  0  0
   -0.9840   -4.5440    0.0790 C   0  0  0  0  0  0  0  0  0  0  0  0
   -1.5620    0.1220    0.0150 C   0  0  0  0  0  0  0  0  0  0  0  0
   -1.5160   -0.7330    0.9790 O   0  0  0  0  0  0  0  0  0  0  0  0
   -1.9870    1.3360    0.4050 O   0  0  0  0  0  0  0  0  0  0  0  0
   -2.7330    2.3260   -0.2540 C   0  0  1  0  0  0  0  0  0  0  0  0
   -4.1800    2.1430    0.0880 C   0  0  0  0  0  0  0  0  0  0  0  0
   -5.1420    3.0700   -0.5480 C   0  0  0  0  0  0  0  0  0  0  0  0
   -5.0520    4.5160   -0.2650 C   0  0  0  0  0  0  0  0  0  0  0  0
   -2.2540    3.6560    0.3280 C   0  0  0  0  0  0  0  0  0  0  0  0
   -1.0450    3.4750    1.0670 O   0  0  0  0  0  0  0  0  0  0  0  0
   -0.0310    3.4130    0.1130 C   0  0  1  0  0  0  0  0  0  0  0  0
    0.1510    4.6900   -0.6700 C   0  0  0  0  0  0  0  0  0  0  0  0
    1.2450    2.8480    0.6400 C   0  0  1  0  0  0  0  0  0  0  0  0
    1.7590    3.5340    1.8860 C   0  0  0  0  0  0  0  0  0  0  0  0
    2.0730    4.9670    1.7970 C   0  0  0  0  0  0  0  0  0  0  0  0
    3.0520    5.3180    0.8820 O   0  0  0  0  0  0  0  0  0  0  0  0
    1.1850    1.4030    1.0030 C   0  0  0  0  0  0  0  0  0  0  0  0
    0.6620    1.1330    2.1340 O   0  0  0  0  0  0  0  0  0  0  0  0
    3.4820   -2.8800    1.1140 C   0  0  0  0  0  0  0  0  0  0  0  0
    2.9510   -3.3290    2.2360 C   0  0  0  0  0  0  0  0  0  0  0  0
    3.5600   -4.3450    3.0860 C   0  0  0  0  0  0  0  0  0  0  0  0
  1  2  2  0
  2  3  1  0
  2 38  1  0
  3  4  1  0
  4  5  1  0
  5  6  1  1
  5 38  1  0
  6  7  2  0
  6  8  1  0
  8  9  1  0
  8 36  1  0
  9 10  1  0
 10 11  2  0
 10 12  1  0
 12 13  1  6
 12 14  1  0
 12 21  1  0
 14 15  1  0
 15 16  2  0
 15 17  1  0
 17 18  1  6
 17 19  1  0
 17 20  1  0
 21 22  2  0
 21 23  1  0
 23 24  1  0
 24 25  1  1
 24 28  1  0
 25 26  1  0
 26 27  1  0
 28 29  1  0
 29 30  1  0
 30 31  1  1
 30 32  1  0
 32 33  1  1
 32 36  1  0
 33 34  1  0
 34 35  1  0
 36 37  2  0
 38 39  2  3
 39 40  1  0
M  END
