
     RDKit          3D

 39 43  0  0  0  0  0  0  0  0999 V2000
    3.3150    0.8060   -2.3150 C   0  0  0  0  0  0  0  0  0  0  0  0
    3.3290   -0.6780   -2.6080 C   0  0  0  0  0  0  0  0  0  0  0  0
    3.2930   -1.4230   -1.3450 C   0  0  0  0  0  0  0  0  0  0  0  0
    2.1850   -1.6030   -0.5490 C   0  0  0  0  0  0  0  0  0  0  0  0
    0.8260   -1.1020   -0.7900 C   0  0  0  0  0  0  0  0  0  0  0  0
   -0.1240   -1.3410    0.0350 N   0  0  0  0  0  0  0  0  0  0  0  0
   -1.4330   -0.8540   -0.2040 C   0  0  0  0  0  0  0  0  0  0  0  0
   -1.7340   -0.0670   -1.1370 O   0  0  0  0  0  0  0  0  0  0  0  0
   -2.4650   -1.2930    0.6760 N   0  0  0  0  0  0  0  0  0  0  0  0
   -3.8190   -0.8790    0.5450 C   0  0  0  0  0  0  0  0  0  0  0  0
   -4.2760    0.2790    1.2070 C   0  0  0  0  0  0  0  0  0  0  0  0
   -3.2730    0.9730    2.0030 C   0  0  0  0  0  0  0  0  0  0  0  0
   -3.6720    2.1450    2.6940 N   0  0  0  0  0  0  0  0  0  0  0  0
   -3.2210    3.3640    2.0130 C   0  0  2  0  0  0  0  0  0  0  0  0
   -4.2710    4.1460    1.3020 C   0  0  0  0  0  0  0  0  0  0  0  0
   -3.2530    3.3450    0.4730 C   0  0  0  0  0  0  0  0  0  0  0  0
   -5.5850    0.6440    1.0550 C   0  0  0  0  0  0  0  0  0  0  0  0
   -6.4240   -0.1380    0.2540 C   0  0  0  0  0  0  0  0  0  0  0  0
   -5.9700   -1.2650   -0.3870 C   0  0  0  0  0  0  0  0  0  0  0  0
   -6.8230   -2.0360   -1.1850 C   0  0  0  0  0  0  0  0  0  0  0  0
   -6.3900   -3.1710   -1.8370 C   0  0  0  0  0  0  0  0  0  0  0  0
   -7.2730   -3.9850   -2.6720 C   0  0  0  0  0  0  0  0  0  0  0  0
   -6.8260   -4.9970   -3.2340 O   0  0  0  0  0  0  0  0  0  0  0  0
   -5.0690   -3.5220   -1.6720 C   0  0  0  0  0  0  0  0  0  0  0  0
   -4.1980   -2.7850   -0.8930 C   0  0  0  0  0  0  0  0  0  0  0  0
   -4.6520   -1.6410   -0.2410 C   0  0  0  0  0  0  0  0  0  0  0  0
    2.6310   -2.3570    0.5180 C   0  0  0  0  0  0  0  0  0  0  0  0
    3.9440   -2.6000    0.3420 N   0  0  0  0  0  0  0  0  0  0  0  0
    4.3630   -2.0320   -0.7980 N   0  0  0  0  0  0  0  0  0  0  0  0
    5.7000   -2.0910   -1.2980 C   0  0  0  0  0  0  0  0  0  0  0  0
    6.5620   -0.9660   -0.8250 C   0  0  0  0  0  0  0  0  0  0  0  0
    7.7320   -0.9770   -1.2270 O   0  0  0  0  0  0  0  0  0  0  0  0
    6.0830    0.0440    0.0230 N   0  0  0  0  0  0  0  0  0  0  0  0
    6.8370    1.1270    0.5060 C   0  0  0  0  0  0  0  0  0  0  0  0
    8.1680    1.3150    0.3020 C   0  0  0  0  0  0  0  0  0  0  0  0
    8.8440    2.4320    0.8180 C   0  0  0  0  0  0  0  0  0  0  0  0
    8.1650    3.3250    1.5240 N   0  0  0  0  0  0  0  0  0  0  0  0
    6.8580    3.1740    1.7460 C   0  0  0  0  0  0  0  0  0  0  0  0
    6.1740    2.0880    1.2500 C   0  0  0  0  0  0  0  0  0  0  0  0
  1  2  1  0
  2  3  1  0
  3  4  2  0
  3 29  1  0
  4  5  1  0
  4 27  1  0
  5  6  2  3
  6  7  1  0
  7  8  2  0
  7  9  1  0
  9 10  1  0
 10 11  1  0
 10 26  2  0
 11 12  1  0
 11 17  2  0
 12 13  1  0
 14 13  1  1
 14 15  1  0
 14 16  1  0
 15 16  1  0
 17 18  1  0
 18 19  2  0
 19 20  1  0
 19 26  1  0
 20 21  2  0
 21 22  1  0
 21 24  1  0
 22 23  2  0
 24 25  2  0
 25 26  1  0
 27 28  2  0
 28 29  1  0
 29 30  1  0
 30 31  1  0
 31 32  2  0
 31 33  1  0
 33 34  1  0
 34 35  2  0
 34 39  1  0
 35 36  1  0
 36 37  2  0
 37 38  1  0
 38 39  2  0
M  CHG  1  13   1
M  END
