
     RDKit          3D

 39 43  0  0  0  0  0  0  0  0999 V2000
   -7.1930    1.7860   -2.4260 C   0  0  0  0  0  0  0  0  0  0  0  0
   -7.2050    2.4720   -1.0820 C   0  0  0  0  0  0  0  0  0  0  0  0
   -7.2950    1.4830    0.0560 C   0  0  1  0  0  0  0  0  0  0  0  0
   -8.5530    0.6470   -0.0320 C   0  0  0  0  0  0  0  0  0  0  0  0
   -6.1110    0.6720    0.2040 N   0  0  0  0  0  0  0  0  0  0  0  0
   -5.3920    0.6010    1.4550 C   0  0  0  0  0  0  0  0  0  0  0  0
   -5.8190    1.2560    2.4130 O   0  0  0  0  0  0  0  0  0  0  0  0
   -4.1890   -0.2410    1.5450 C   0  0  0  0  0  0  0  0  0  0  0  0
   -3.7900   -0.7730    2.7650 C   0  0  0  0  0  0  0  0  0  0  0  0
   -2.6620   -1.5590    2.8780 C   0  0  0  0  0  0  0  0  0  0  0  0
   -1.8790   -1.8490    1.7750 C   0  0  0  0  0  0  0  0  0  0  0  0
   -0.6540   -2.7000    1.8890 C   0  0  0  0  0  0  0  0  0  0  0  0
   -0.4800   -3.1080    3.2190 O   0  0  0  0  0  0  0  0  0  0  0  0
   -2.2670   -1.3260    0.5630 C   0  0  0  0  0  0  0  0  0  0  0  0
   -1.4080   -1.6480   -0.6030 C   0  0  0  0  0  0  0  0  0  0  0  0
   -1.8870   -1.0450   -1.8320 N   0  0  0  0  0  0  0  0  0  0  0  0
   -1.1210   -1.4430   -2.9710 C   0  0  0  0  0  0  0  0  0  0  0  0
   -0.3340   -0.2910   -3.5050 C   0  0  0  0  0  0  0  0  0  0  0  0
    0.5970    0.2210   -2.4460 C   0  0  0  0  0  0  0  0  0  0  0  0
    0.3260    1.1870   -1.5430 N   0  0  0  0  0  0  0  0  0  0  0  0
    1.4110    1.3500   -0.7650 C   0  0  0  0  0  0  0  0  0  0  0  0
    1.7290    2.1660    0.3030 C   0  0  0  0  0  0  0  0  0  0  0  0
    2.9690    2.0790    0.8980 C   0  0  0  0  0  0  0  0  0  0  0  0
    3.5820    2.7300    1.9530 C   0  0  0  0  0  0  0  0  0  0  0  0
    4.8150    2.2380    2.1030 N   0  0  0  0  0  0  0  0  0  0  0  0
    5.0390    1.2910    1.1900 N   0  0  0  0  0  0  0  0  0  0  0  0
    6.2480    0.5410    1.0400 C   0  0  0  0  0  0  0  0  0  0  0  0
    7.4760    1.1710    0.9740 C   0  0  0  0  0  0  0  0  0  0  0  0
    8.6370    0.4230    0.8340 C   0  0  0  0  0  0  0  0  0  0  0  0
    8.6190   -0.9480    0.7580 C   0  0  0  0  0  0  0  0  0  0  0  0
    9.7660   -1.7270    0.6180 O   0  0  0  0  0  0  0  0  0  0  0  0
   11.0000   -1.0320    0.5550 C   0  0  0  0  0  0  0  0  0  0  0  0
    7.3750   -1.5720    0.8260 C   0  0  0  0  0  0  0  0  0  0  0  0
    6.1940   -0.8330    0.9660 C   0  0  0  0  0  0  0  0  0  0  0  0
    3.9220    1.1860    0.4510 C   0  0  0  0  0  0  0  0  0  0  0  0
    3.5850    0.3910   -0.6070 N   0  0  0  0  0  0  0  0  0  0  0  0
    2.3830    0.4760   -1.1810 C   0  0  0  0  0  0  0  0  0  0  0  0
    1.8370   -0.2070   -2.2270 N   0  0  0  0  0  0  0  0  0  0  0  0
   -3.4080   -0.5320    0.4500 C   0  0  0  0  0  0  0  0  0  0  0  0
  1  2  1  0
  2  3  1  0
  3  4  1  6
  3  5  1  0
  5  6  1  0
  6  7  2  0
  6  8  1  0
  8  9  2  0
  8 39  1  0
  9 10  1  0
 10 11  2  0
 11 12  1  0
 11 14  1  0
 12 13  1  0
 14 15  1  0
 14 39  2  0
 15 16  1  0
 16 17  1  0
 17 18  1  0
 18 19  1  0
 19 20  2  0
 19 38  1  0
 20 21  1  0
 21 22  2  0
 21 37  1  0
 22 23  1  0
 23 24  1  0
 23 35  2  0
 24 25  2  0
 25 26  1  0
 26 27  1  0
 26 35  1  0
 27 28  2  0
 27 34  1  0
 28 29  1  0
 29 30  2  0
 30 31  1  0
 30 33  1  0
 31 32  1  0
 33 34  2  0
 35 36  1  0
 36 37  2  0
 37 38  1  0
M  CHG  1  16   1
M  END
