
     RDKit          3D

 39 42  0  0  0  0  0  0  0  0999 V2000
   -8.0890   -0.7300    2.9960 C   0  0  0  0  0  0  0  0  0  0  0  0
   -8.2820   -0.0620    1.9090 O   0  0  0  0  0  0  0  0  0  0  0  0
   -8.4960    0.6210    0.8360 C   0  0  0  0  0  0  0  0  0  0  0  0
   -9.4120    1.6750    0.5970 C   0  0  0  0  0  0  0  0  0  0  0  0
   -9.5020    2.3000   -0.6280 C   0  0  0  0  0  0  0  0  0  0  0  0
   -8.6670    1.9190   -1.6980 C   0  0  0  0  0  0  0  0  0  0  0  0
   -8.8510    2.6340   -2.8440 O   0  0  0  0  0  0  0  0  0  0  0  0
   -7.7900    0.9000   -1.4660 C   0  0  0  0  0  0  0  0  0  0  0  0
   -7.6840    0.2520   -0.2660 C   0  0  0  0  0  0  0  0  0  0  0  0
   -6.8720   -0.9760   -0.0850 C   0  0  0  0  0  0  0  0  0  0  0  0
   -5.8140   -0.9660   -1.0230 N   0  0  0  0  0  0  0  0  0  0  0  0
   -4.8180    0.1990   -0.7090 C   0  0  0  0  0  0  0  0  0  0  0  0
   -5.1410    0.9670    0.1260 O   0  0  0  0  0  0  0  0  0  0  0  0
   -3.6850    0.0570   -1.4830 N   0  0  0  0  0  0  0  0  0  0  0  0
   -2.5410    0.6450   -0.3070 C   0  0  0  0  0  0  0  0  0  0  0  0
   -2.9830    1.2080    0.5830 O   0  0  0  0  0  0  0  0  0  0  0  0
   -1.1680    0.1800   -0.7850 C   0  0  0  0  0  0  0  0  0  0  0  0
   -1.3410   -1.3190   -0.7790 C   0  0  0  0  0  0  0  0  0  0  0  0
   -0.4750   -2.3690   -1.1510 C   0  0  0  0  0  0  0  0  0  0  0  0
    0.7150   -2.4940   -0.4120 N   0  0  0  0  0  0  0  0  0  0  0  0
    1.9040   -1.7520   -0.5240 C   0  0  0  0  0  0  0  0  0  0  0  0
    2.0170   -0.9130   -1.4700 O   0  0  0  0  0  0  0  0  0  0  0  0
    2.9680   -1.9120    0.3910 N   0  0  0  0  0  0  0  0  0  0  0  0
    4.1670   -1.2620    0.1340 C   0  0  0  0  0  0  0  0  0  0  0  0
    4.8910   -1.6210   -0.9650 C   0  0  0  0  0  0  0  0  0  0  0  0
    6.1510   -1.0930   -1.1540 C   0  0  0  0  0  0  0  0  0  0  0  0
    6.6610   -0.2100   -0.2400 C   0  0  0  0  0  0  0  0  0  0  0  0
    5.9310    0.1440    0.8670 C   0  0  0  0  0  0  0  0  0  0  0  0
    4.6740   -0.3800    1.0650 C   0  0  0  0  0  0  0  0  0  0  0  0
    3.9200   -0.0360    2.1640 O   0  0  0  0  0  0  0  0  0  0  0  0
    6.4760    1.0680    1.8890 C   0  0  0  0  0  0  0  0  0  0  0  0
    7.4130    2.0310    1.2820 N   0  0  0  0  0  0  0  0  0  0  0  0
    8.3480    1.4660    0.4250 C   0  0  0  0  0  0  0  0  0  0  0  0
    9.6100    1.9720    0.3600 C   0  0  0  0  0  0  0  0  0  0  0  0
   10.4500    1.4890   -0.5700 N   0  0  0  0  0  0  0  0  0  0  0  0
   10.1200    0.5520   -1.4320 C   0  0  0  0  0  0  0  0  0  0  0  0
   11.0310    0.1380   -2.2850 O   0  0  0  0  0  0  0  0  0  0  0  0
    8.8380    0.0290   -1.3860 C   0  0  0  0  0  0  0  0  0  0  0  0
    7.9420    0.4560   -0.4780 C   0  0  0  0  0  0  0  0  0  0  0  0
  1  2  1  0
  2  3  1  0
  3  4  2  0
  3  9  1  0
  4  5  1  0
  5  6  2  0
  6  7  1  0
  6  8  1  0
  8  9  2  0
  9 10  1  0
 10 11  1  0
 11 12  1  0
 12 13  2  0
 12 14  1  0
 14 15  1  0
 15 16  2  0
 15 17  1  0
 17 18  1  0
 18 19  1  0
 19 20  1  0
 20 21  1  0
 21 22  2  0
 21 23  1  0
 23 24  1  0
 24 25  2  0
 24 29  1  0
 25 26  1  0
 26 27  2  0
 27 28  1  0
 27 39  1  0
 28 29  2  0
 28 31  1  0
 29 30  1  0
 31 32  1  0
 32 33  1  0
 33 34  2  0
 33 39  1  0
 34 35  1  0
 35 36  1  0
 36 37  2  0
 36 38  1  0
 38 39  2  0
M  CHG  1  32   1
M  END
