
     RDKit          3D

 39 41  0  0  0  0  0  0  0  0999 V2000
   -9.9510   -2.1050    2.2030 N   0  0  0  0  0  0  0  0  0  0  0  0
   -9.3110   -0.8320    2.1290 C   0  0  0  0  0  0  0  0  0  0  0  0
   -8.3000   -0.6460    1.3050 C   0  0  0  0  0  0  0  0  0  0  0  0
   -7.6300    0.6550    1.2240 C   0  0  2  0  0  0  0  0  0  0  0  0
   -8.0820    1.5840    0.1610 C   0  0  0  0  0  0  0  0  0  0  0  0
   -9.4950    2.0270    0.1430 C   0  0  0  0  0  0  0  0  0  0  0  0
  -10.4490    0.9860   -0.0760 N   0  0  0  0  0  0  0  0  0  0  0  0
   -6.2400    0.3840    0.9300 O   0  0  0  0  0  0  0  0  0  0  0  0
   -5.2900    0.6450    1.8690 C   0  0  0  0  0  0  0  0  0  0  0  0
   -5.6060    1.1090    2.9860 O   0  0  0  0  0  0  0  0  0  0  0  0
   -3.8600    0.3990    1.6230 C   0  0  0  0  0  0  0  0  0  0  0  0
   -2.9000    0.6280    2.5610 C   0  0  0  0  0  0  0  0  0  0  0  0
   -1.5720    0.3810    2.2450 C   0  0  0  0  0  0  0  0  0  0  0  0
   -1.2090   -0.0890    1.0050 C   0  0  0  0  0  0  0  0  0  0  0  0
    0.1520   -0.3360    0.7230 C   0  0  0  0  0  0  0  0  0  0  0  0
    1.0120   -0.7750    1.3530 O   0  0  0  0  0  0  0  0  0  0  0  0
    0.5740    0.1290   -0.8920 N   0  0  0  0  0  0  0  0  0  0  0  0
    1.9800   -0.2460   -0.8320 C   0  0  0  0  0  0  0  0  0  0  0  0
    2.6130   -0.6860    0.0590 O   0  0  0  0  0  0  0  0  0  0  0  0
    2.5440    0.0360   -2.1660 N   0  0  0  0  0  0  0  0  0  0  0  0
    3.8770   -0.1380   -2.4340 C   0  0  0  0  0  0  0  0  0  0  0  0
    4.8880   -0.3180   -1.5360 C   0  0  0  0  0  0  0  0  0  0  0  0
    6.2320   -0.4210   -1.8490 C   0  0  0  0  0  0  0  0  0  0  0  0
    7.2540   -0.5800   -0.8120 C   0  0  0  0  0  0  0  0  0  0  0  0
    6.8570   -0.9310    0.3150 O   0  0  0  0  0  0  0  0  0  0  0  0
    8.6150   -0.3550   -1.0370 N   0  0  0  0  0  0  0  0  0  0  0  0
    9.6930   -0.4570   -0.1240 C   0  0  0  0  0  0  0  0  0  0  0  0
   11.0060   -0.3910   -0.5860 C   0  0  0  0  0  0  0  0  0  0  0  0
   12.0110   -0.4660    0.3360 C   0  0  0  0  0  0  0  0  0  0  0  0
   11.8050   -0.6000    1.6560 N   0  0  0  0  0  0  0  0  0  0  0  0
   10.5580   -0.6670    2.1320 C   0  0  0  0  0  0  0  0  0  0  0  0
   10.2870   -0.7930    3.3490 O   0  0  0  0  0  0  0  0  0  0  0  0
    9.4950   -0.5930    1.2190 C   0  0  0  0  0  0  0  0  0  0  0  0
    6.5380   -0.3320   -3.1850 C   0  0  0  0  0  0  0  0  0  0  0  0
    5.5540   -0.1480   -4.1650 C   0  0  0  0  0  0  0  0  0  0  0  0
    4.2510   -0.0520   -3.8030 C   0  0  0  0  0  0  0  0  0  0  0  0
    3.2370    0.1320   -4.7300 O   0  0  0  0  0  0  0  0  0  0  0  0
   -2.1990   -0.3100    0.0820 C   0  0  0  0  0  0  0  0  0  0  0  0
   -3.5140   -0.0710    0.3820 C   0  0  0  0  0  0  0  0  0  0  0  0
  1  2  1  0
  2  3  2  3
  3  4  1  0
  4  5  1  6
  4  8  1  0
  5  6  1  0
  6  7  1  0
  8  9  1  0
  9 10  2  0
  9 11  1  0
 11 12  2  0
 11 39  1  0
 12 13  1  0
 13 14  2  0
 14 15  1  0
 14 38  1  0
 15 16  2  0
 15 17  1  0
 17 18  1  0
 18 19  2  0
 18 20  1  0
 20 21  1  0
 21 22  2  0
 21 36  1  0
 22 23  1  0
 23 24  1  0
 23 34  2  0
 24 25  2  0
 24 26  1  0
 26 27  1  0
 27 28  1  0
 27 33  2  0
 28 29  2  0
 29 30  1  0
 30 31  1  0
 31 32  2  0
 31 33  1  0
 34 35  1  0
 35 36  2  0
 36 37  1  0
 38 39  2  0
M  CHG  1   7   1
M  END
