
     RDKit          3D

 39 43  0  0  0  0  0  0  0  0999 V2000
    9.0940   -2.1190   -0.6190 C   0  0  0  0  0  0  0  0  0  0  0  0
    8.0710   -1.5130    0.1920 N   0  0  0  0  0  0  0  0  0  0  0  0
    7.8240   -0.1500   -0.2090 C   0  0  0  0  0  0  0  0  0  0  0  0
    6.4710    0.2630    0.2620 C   0  0  0  0  0  0  0  0  0  0  0  0
    5.5440    0.6370   -0.5360 N   0  0  0  0  0  0  0  0  0  0  0  0
    4.2220    1.0510   -0.2030 C   0  0  0  0  0  0  0  0  0  0  0  0
    3.9320    1.0270    1.2480 C   0  0  0  0  0  0  0  0  0  0  0  0
    4.9200    0.6230    2.1460 C   0  0  0  0  0  0  0  0  0  0  0  0
    4.6380    0.6050    3.4950 C   0  0  0  0  0  0  0  0  0  0  0  0
    3.3960    0.9810    3.9480 C   0  0  0  0  0  0  0  0  0  0  0  0
    2.4330    1.3790    3.0200 C   0  0  0  0  0  0  0  0  0  0  0  0
    2.6830    1.4060    1.6810 C   0  0  0  0  0  0  0  0  0  0  0  0
    1.6950    1.8590    0.7290 C   0  0  0  0  0  0  0  0  0  0  0  0
    1.9220    2.9920   -0.0070 N   0  0  0  0  0  0  0  0  0  0  0  0
    1.0550    3.4280   -0.9220 C   0  0  0  0  0  0  0  0  0  0  0  0
   -0.0990    2.7200   -1.1300 C   0  0  0  0  0  0  0  0  0  0  0  0
   -0.3360    1.5830   -0.3980 C   0  0  0  0  0  0  0  0  0  0  0  0
    0.5310    1.1040    0.5480 C   0  0  0  0  0  0  0  0  0  0  0  0
    0.3040   -0.1120    1.3260 C   0  0  0  0  0  0  0  0  0  0  0  0
   -0.9100   -0.7950    0.9690 N   0  0  0  0  0  0  0  0  0  0  0  0
   -1.1700   -1.3660   -0.2750 C   0  0  0  0  0  0  0  0  0  0  0  0
   -0.3230   -1.2660   -1.2020 O   0  0  0  0  0  0  0  0  0  0  0  0
   -2.3610   -2.1040   -0.6250 N   0  0  0  0  0  0  0  0  0  0  0  0
   -2.5180   -2.6240   -1.9640 C   0  0  0  0  0  0  0  0  0  0  0  0
   -2.7050   -1.5940   -3.0110 C   0  0  0  0  0  0  0  0  0  0  0  0
   -3.9480   -0.8450   -3.0830 C   0  0  0  0  0  0  0  0  0  0  0  0
   -4.4010   -0.0430   -1.9080 N   0  0  0  0  0  0  0  0  0  0  0  0
   -5.2080   -0.7590   -1.0210 C   0  0  0  0  0  0  0  0  0  0  0  0
   -5.3870   -2.0100   -1.4110 O   0  0  0  0  0  0  0  0  0  0  0  0
   -5.8870   -0.4640    0.2010 C   0  0  0  0  0  0  0  0  0  0  0  0
   -5.9480    0.6670    0.8570 O   0  0  0  0  0  0  0  0  0  0  0  0
   -6.6590    0.5880    1.9470 C   0  0  0  0  0  0  0  0  0  0  0  0
   -7.1210   -0.7070    2.0400 C   0  0  0  0  0  0  0  0  0  0  0  0
   -6.6470   -1.3940    0.9480 C   0  0  0  0  0  0  0  0  0  0  0  0
   -6.8630   -2.8070    0.5910 C   0  0  0  0  0  0  0  0  0  0  0  0
   -4.0140    1.3170   -1.8690 C   0  0  1  0  0  0  0  0  0  0  0  0
   -4.9610    2.4290   -1.4900 C   0  0  0  0  0  0  0  0  0  0  0  0
   -3.7720    2.1120   -0.6520 C   0  0  0  0  0  0  0  0  0  0  0  0
    6.1960    0.2390    1.6580 N   0  0  0  0  0  0  0  0  0  0  0  0
  1  2  1  0
  2  3  1  0
  3  4  1  0
  4  5  2  0
  4 39  1  0
  5  6  1  0
  6  7  1  0
  7  8  2  0
  7 12  1  0
  8  9  1  0
  8 39  1  0
  9 10  2  0
 10 11  1  0
 11 12  2  0
 12 13  1  0
 13 14  2  0
 13 18  1  0
 14 15  1  0
 15 16  2  0
 16 17  1  0
 17 18  2  0
 18 19  1  0
 19 20  1  0
 20 21  1  0
 21 22  2  0
 21 23  1  0
 23 24  1  0
 24 25  1  0
 25 26  1  0
 26 27  1  0
 27 28  1  0
 36 27  1  1
 28 29  2  0
 28 30  1  0
 30 31  1  0
 30 34  2  0
 31 32  1  0
 32 33  2  0
 33 34  1  0
 34 35  1  0
 36 37  1  0
 36 38  1  0
 37 38  1  0
M  CHG  1   2   1
M  END
