
     RDKit          3D

 25 28  0  0  0  0  0  0  0  0999 V2000
   -5.1290    2.3350   -1.3500 C   0  0  0  0  0  0  0  0  0  0  0  0
   -5.0390    2.2360    0.1330 C   0  0  0  0  0  0  0  0  0  0  0  0
   -3.6380    2.0770    0.6500 C   0  0  0  0  0  0  0  0  0  0  0  0
   -3.0240    0.8410    0.1010 N   0  0  0  0  0  0  0  0  0  0  0  0
   -1.7230    0.5380    0.4770 C   0  0  0  0  0  0  0  0  0  0  0  0
   -1.1850    1.4270    1.2860 O   0  0  0  0  0  0  0  0  0  0  0  0
   -0.8410   -0.5420    0.1630 C   0  0  0  0  0  0  0  0  0  0  0  0
   -1.2170   -1.8150   -0.1970 C   0  0  0  0  0  0  0  0  0  0  0  0
   -0.2990   -2.8150   -0.5060 C   0  0  0  0  0  0  0  0  0  0  0  0
    1.0710   -2.5160   -0.4540 C   0  0  0  0  0  0  0  0  0  0  0  0
    1.4650   -1.2580   -0.1000 C   0  0  0  0  0  0  0  0  0  0  0  0
    0.5500   -0.2830    0.2050 C   0  0  0  0  0  0  0  0  0  0  0  0
    1.1810    0.8130    0.5060 N   0  0  0  0  0  0  0  0  0  0  0  0
    2.5820    0.6460    0.4240 C   0  0  0  0  0  0  0  0  0  0  0  0
    3.6960    1.4250    0.6220 C   0  0  0  0  0  0  0  0  0  0  0  0
    4.9710    0.9230    0.4460 C   0  0  0  0  0  0  0  0  0  0  0  0
    6.0950    1.7410    0.6550 N   0  0  0  0  0  0  0  0  0  0  0  0
    5.9250    3.1240    1.0590 C   0  0  0  0  0  0  0  0  0  0  0  0
    5.1590   -0.4080    0.0570 C   0  0  0  0  0  0  0  0  0  0  0  0
    4.0300   -1.1880   -0.1410 C   0  0  0  0  0  0  0  0  0  0  0  0
    2.7850   -0.6590    0.0410 C   0  0  0  0  0  0  0  0  0  0  0  0
   -0.6420   -4.0540   -0.8050 C   0  0  0  0  0  0  0  0  0  0  0  0
   -2.0420   -4.3980   -0.8180 C   0  0  0  0  0  0  0  0  0  0  0  0
   -2.9650   -3.5020   -0.5540 C   0  0  0  0  0  0  0  0  0  0  0  0
   -2.6430   -2.1170   -0.2450 C   0  0  0  0  0  0  0  0  0  0  0  0
  1  2  1  0
  2  3  1  0
  3  4  1  0
  4  5  1  0
  5  6  2  0
  5  7  1  0
  7  8  2  0
  7 12  1  0
  8  9  1  0
  8 25  1  0
  9 10  1  0
  9 22  2  0
 10 11  2  0
 11 12  1  0
 11 21  1  0
 12 13  2  0
 13 14  1  0
 14 15  2  0
 14 21  1  0
 15 16  1  0
 16 17  1  0
 16 19  2  0
 17 18  1  0
 19 20  1  0
 20 21  2  0
 22 23  1  0
 23 24  2  0
 24 25  1  0
M  END
