
     RDKit          3D

 10  9  0  0  0  0  0  0  0  0999 V2000
    3.6230   -0.2060    0.3660 N   0  0  0  0  0  0  0  0  0  0  0  0
    2.3470    0.2510   -0.0400 C   0  0  0  0  0  0  0  0  0  0  0  0
    2.3140    1.2920   -0.7440 O   0  0  0  0  0  0  0  0  0  0  0  0
    1.0900   -0.4460    0.3320 C   0  0  0  0  0  0  0  0  0  0  0  0
   -0.0600    0.2970   -0.2560 C   0  0  0  0  0  0  0  0  0  0  0  0
   -1.3980   -0.3270    0.0610 C   0  0  1  0  0  0  0  0  0  0  0  0
   -1.5820   -0.3580    1.4780 N   0  0  0  0  0  0  0  0  0  0  0  0
   -2.4400    0.5240   -0.5530 C   0  0  0  0  0  0  0  0  0  0  0  0
   -3.2870    1.0680    0.1930 O   0  0  0  0  0  0  0  0  0  0  0  0
   -2.5020    0.7330   -1.9290 O   0  0  0  0  0  0  0  0  0  0  0  0
  1  2  1  0
  2  3  2  0
  2  4  1  0
  4  5  1  0
  5  6  1  0
  6  7  1  1
  6  8  1  0
  8  9  2  0
  8 10  1  0
M  END
