
     RDKit          3D

 20 22  0  0  0  0  0  0  0  0999 V2000
    4.3300   -1.1220    0.6520 C   0  0  0  0  0  0  0  0  0  0  0  0
    3.6540    0.1810    0.9120 C   0  0  0  0  0  0  0  0  0  0  0  0
    2.5890    0.4700    0.1750 C   0  0  0  0  0  0  0  0  0  0  0  0
    1.6030    1.5000   -0.0110 C   0  0  0  0  0  0  0  0  0  0  0  0
    0.7420    2.1280    0.7420 C   0  0  0  0  0  0  0  0  0  0  0  0
    0.4450    1.9930    2.1840 C   0  0  0  0  0  0  0  0  0  0  0  0
   -1.0750    1.9560    2.4310 C   0  0  0  0  0  0  0  0  0  0  0  0
   -1.7240    2.0070    1.2030 O   0  0  0  0  0  0  0  0  0  0  0  0
   -2.9950    1.4920    1.2060 C   0  0  0  0  0  0  0  0  0  0  0  0
   -3.3100    0.7170   -0.0660 C   0  0  0  0  0  0  0  0  0  0  0  0
   -2.4140   -0.4950   -0.2190 C   0  0  2  0  0  0  0  0  0  0  0  0
   -1.3240   -0.1960   -1.2590 C   0  0  0  0  0  0  0  0  0  0  0  0
   -0.2910   -1.1600   -1.2820 N   0  0  2  0  0  0  0  0  0  0  0  0
   -0.9720   -2.4270   -0.9860 C   0  0  0  0  0  0  0  0  0  0  0  0
   -2.3900   -2.4160   -1.5030 C   0  0  0  0  0  0  0  0  0  0  0  0
   -3.1710   -1.5400   -0.7570 O   0  0  0  0  0  0  0  0  0  0  0  0
    0.8150   -1.0460   -0.4410 C   0  0  0  0  0  0  0  0  0  0  0  0
    2.0830   -0.4770   -0.9470 C   0  0  1  0  0  0  0  0  0  0  0  0
    2.0400    0.4970   -2.0570 C   0  0  0  0  0  0  0  0  0  0  0  0
    1.7520    1.7600   -1.4230 O   0  0  0  0  0  0  0  0  0  0  0  0
  1  2  1  0
  2  3  2  3
  3  4  1  0
  3 18  1  0
  4  5  2  0
  4 20  1  0
  5  6  1  0
  6  7  1  0
  7  8  1  0
  8  9  1  0
  9 10  1  0
 11 10  1  6
 11 12  1  0
 11 16  1  0
 12 13  1  0
 13 14  1  1
 13 17  1  0
 14 15  1  0
 15 16  1  0
 18 17  1  1
 18 19  1  0
 19 20  1  0
M  CHG  1  13   1
M  END
