
     RDKit          3D

 20 23  0  0  0  0  0  0  0  0999 V2000
   -4.4960    1.2430    1.0340 C   0  0  0  0  0  0  0  0  0  0  0  0
   -5.0240    1.3170   -0.4040 C   0  0  0  0  0  0  0  0  0  0  0  0
   -4.7380    0.1030   -0.9900 O   0  0  0  0  0  0  0  0  0  0  0  0
   -3.3950   -0.1120   -1.2170 C   0  0  0  0  0  0  0  0  0  0  0  0
   -2.5350    0.0640   -0.0040 C   0  0  1  0  0  0  0  0  0  0  0  0
   -2.9970    1.1300    0.9290 C   0  0  0  0  0  0  0  0  0  0  0  0
   -2.4490   -1.2640    0.7480 C   0  0  0  0  0  0  0  0  0  0  0  0
   -1.1750   -1.8450    0.1210 C   0  0  0  0  0  0  0  0  0  0  0  0
   -0.2920   -0.6840    0.2300 N   0  0  1  0  0  0  0  0  0  0  0  0
    0.9610   -0.9160   -0.4100 C   0  0  2  0  0  0  0  0  0  0  0  0
    1.7740   -1.8550    0.4550 C   0  0  0  0  0  0  0  0  0  0  0  0
    3.0480   -2.1570   -0.2720 C   0  0  0  0  0  0  0  0  0  0  0  0
    3.6220   -1.0950   -0.9040 O   0  0  0  0  0  0  0  0  0  0  0  0
    3.2380    0.1440   -0.4700 C   0  0  1  0  0  0  0  0  0  0  0  0
    3.8090    0.5240    0.8670 C   0  0  0  0  0  0  0  0  0  0  0  0
    4.5100    1.8430    0.6610 C   0  0  0  0  0  0  0  0  0  0  0  0
    4.1860    2.2700   -0.6140 O   0  0  0  0  0  0  0  0  0  0  0  0
    3.9270    1.1650   -1.3870 C   0  0  0  0  0  0  0  0  0  0  0  0
    1.7320    0.3650   -0.5380 C   0  0  0  0  0  0  0  0  0  0  0  0
   -1.0940    0.3400   -0.3980 C   0  0  0  0  0  0  0  0  0  0  0  0
  1  2  1  0
  1  6  1  0
  2  3  1  0
  3  4  1  0
  5  4  1  6
  5  6  1  0
  5  7  1  0
  5 20  1  0
  7  8  1  0
  9  8  1  6
  9 10  1  0
  9 20  1  0
 10 11  1  1
 10 19  1  0
 11 12  1  0
 12 13  1  0
 13 14  1  0
 14 15  1  1
 14 18  1  0
 14 19  1  0
 15 16  1  0
 16 17  1  0
 17 18  1  0
M  CHG  1   9   1
M  END
