
     RDKit          3D

 20 22  0  0  0  0  0  0  0  0999 V2000
   -1.2620   -0.7520    1.5870 C   0  0  0  0  0  0  0  0  0  0  0  0
   -1.5270   -1.0550    0.2180 N   0  0  2  0  0  0  0  0  0  0  0  0
   -1.2750   -2.4290   -0.1440 C   0  0  0  0  0  0  0  0  0  0  0  0
    0.1560   -2.8130   -0.2430 C   0  0  0  0  0  0  0  0  0  0  0  0
    0.9400   -2.4300    0.8250 O   0  0  0  0  0  0  0  0  0  0  0  0
    2.2850   -2.4280    0.4620 C   0  0  0  0  0  0  0  0  0  0  0  0
    2.9820   -1.1570    0.8430 C   0  0  0  0  0  0  0  0  0  0  0  0
    2.1190   -0.0960    0.9960 O   0  0  0  0  0  0  0  0  0  0  0  0
    2.2580    0.8260   -0.0690 C   0  0  0  0  0  0  0  0  0  0  0  0
    1.3810    2.0100    0.1450 C   0  0  0  0  0  0  0  0  0  0  0  0
    1.8580    3.2130    0.5300 C   0  0  0  0  0  0  0  0  0  0  0  0
    0.7820    4.1760    0.6600 C   0  0  0  0  0  0  0  0  0  0  0  0
   -0.3270    3.5370    0.3510 C   0  0  0  0  0  0  0  0  0  0  0  0
   -0.0290    2.1200    0.0030 C   0  0  0  0  0  0  0  0  0  0  0  0
   -0.9420    1.2320   -0.3470 C   0  0  0  0  0  0  0  0  0  0  0  0
   -2.4570    1.3690   -0.4950 C   0  0  0  0  0  0  0  0  0  0  0  0
   -2.7430    0.5890   -1.7570 C   0  0  0  0  0  0  0  0  0  0  0  0
   -1.5520   -0.2510   -1.9840 C   0  0  0  0  0  0  0  0  0  0  0  0
   -1.2240   -0.8770   -2.9450 O   0  0  0  0  0  0  0  0  0  0  0  0
   -0.7780   -0.1660   -0.7000 C   0  0  2  0  0  0  0  0  0  0  0  0
  2  1  1  1
  2  3  1  0
  2 20  1  0
  3  4  1  0
  4  5  1  0
  5  6  1  0
  6  7  1  0
  7  8  1  0
  8  9  1  0
  9 10  1  0
 10 11  2  0
 10 14  1  0
 11 12  1  0
 12 13  2  0
 13 14  1  0
 14 15  2  0
 15 16  1  0
 15 20  1  0
 16 17  1  0
 17 18  1  0
 18 19  2  0
 20 18  1  6
M  CHG  1   2   1
M  END
