
     RDKit          3D

 20 22  0  0  0  0  0  0  0  0999 V2000
    3.4410   -0.7210    1.5070 C   0  0  0  0  0  0  0  0  0  0  0  0
    2.5830   -1.1530    0.2920 C   0  0  2  0  0  0  0  0  0  0  0  0
    2.7150   -0.1170   -0.7130 C   0  0  0  0  0  0  0  0  0  0  0  0
    2.7610    1.3260   -0.3650 C   0  0  0  0  0  0  0  0  0  0  0  0
    1.5060    2.1100   -0.3770 C   0  0  0  0  0  0  0  0  0  0  0  0
    0.3660    1.8930   -1.0730 C   0  0  0  0  0  0  0  0  0  0  0  0
   -0.7860    1.9750   -0.1750 C   0  0  0  0  0  0  0  0  0  0  0  0
   -0.5040    2.2760    1.1280 C   0  0  0  0  0  0  0  0  0  0  0  0
    0.4090    3.4500    1.3970 C   0  0  0  0  0  0  0  0  0  0  0  0
    1.4870    3.2550    0.4690 O   0  0  0  0  0  0  0  0  0  0  0  0
   -2.2270    1.5860   -0.3690 C   0  0  0  0  0  0  0  0  0  0  0  0
   -2.3000    0.1250   -0.3560 N   0  0  1  0  0  0  0  0  0  0  0  0
   -3.3550   -0.5090    0.3390 C   0  0  0  0  0  0  0  0  0  0  0  0
   -2.7170   -1.8640    0.7740 C   0  0  0  0  0  0  0  0  0  0  0  0
   -1.3360   -1.7510    0.9110 O   0  0  0  0  0  0  0  0  0  0  0  0
   -0.5900   -1.7100   -0.2190 C   0  0  2  0  0  0  0  0  0  0  0  0
   -1.3490   -1.8630   -1.4840 C   0  0  0  0  0  0  0  0  0  0  0  0
   -2.0930   -0.5050   -1.6120 C   0  0  0  0  0  0  0  0  0  0  0  0
    0.6660   -2.5090    0.0220 C   0  0  0  0  0  0  0  0  0  0  0  0
    1.4320   -1.5940    0.7990 O   0  0  0  0  0  0  0  0  0  0  0  0
  2  1  1  1
  2  3  1  0
  2 20  1  0
  3  4  1  0
  4  5  1  0
  5  6  2  0
  5 10  1  0
  6  7  1  0
  7  8  2  0
  7 11  1  0
  8  9  1  0
  9 10  1  0
 12 11  1  6
 12 13  1  0
 12 18  1  0
 13 14  1  0
 14 15  1  0
 15 16  1  0
 16 17  1  0
 16 19  1  1
 17 18  1  0
 19 20  1  0
M  CHG  1  12   1
M  END
