
     RDKit          3D

 25 28  0  0  0  0  0  0  0  0999 V2000
    0.8880   -0.5790    0.6340 O   0  0  0  0  0  0  0  0  0  0  0  0
    0.6670    0.1980   -0.2960 C   0  0  0  0  0  0  0  0  0  0  0  0
   -0.7420    0.4720   -0.5440 N   0  0  0  0  0  0  0  0  0  0  0  0
   -1.7570   -0.1170    0.2340 C   0  0  0  0  0  0  0  0  0  0  0  0
   -3.1070    0.2600   -0.1500 C   0  0  0  0  0  0  0  0  0  0  0  0
   -3.3860    1.0880   -1.1970 C   0  0  0  0  0  0  0  0  0  0  0  0
   -4.6880    1.4330   -1.5670 C   0  0  0  0  0  0  0  0  0  0  0  0
   -5.7450    0.9290   -0.8620 C   0  0  0  0  0  0  0  0  0  0  0  0
   -5.4920    0.0910    0.2000 C   0  0  0  0  0  0  0  0  0  0  0  0
   -6.5380   -0.4460    0.9530 C   0  0  0  0  0  0  0  0  0  0  0  0
   -6.3020   -1.2850    2.0220 C   0  0  0  0  0  0  0  0  0  0  0  0
   -5.0030   -1.6030    2.3600 C   0  0  0  0  0  0  0  0  0  0  0  0
   -3.9490   -1.0840    1.6300 C   0  0  0  0  0  0  0  0  0  0  0  0
   -4.2110   -0.2490    0.5650 C   0  0  0  0  0  0  0  0  0  0  0  0
    1.6800    0.7810   -1.0670 N   0  0  0  0  0  0  0  0  0  0  0  0
    3.0610    0.5620   -0.8840 C   0  0  0  0  0  0  0  0  0  0  0  0
    3.9480    1.2200   -1.7470 C   0  0  0  0  0  0  0  0  0  0  0  0
    5.3150    1.0780   -1.6580 C   0  0  0  0  0  0  0  0  0  0  0  0
    5.8750    0.2660   -0.6950 C   0  0  0  0  0  0  0  0  0  0  0  0
    7.2580    0.1270   -0.6100 C   0  0  0  0  0  0  0  0  0  0  0  0
    7.7670   -0.6750    0.3440 N   0  0  0  0  0  0  0  0  0  0  0  0
    6.9410   -1.3180    1.1860 C   0  0  0  0  0  0  0  0  0  0  0  0
    5.5590   -1.1980    1.1230 C   0  0  0  0  0  0  0  0  0  0  0  0
    5.0230   -0.3830    0.1560 C   0  0  0  0  0  0  0  0  0  0  0  0
    3.6380   -0.2310    0.0550 C   0  0  0  0  0  0  0  0  0  0  0  0
  1  2  2  0
  2  3  1  0
  2 15  1  0
  3  4  1  0
  4  5  1  0
  5  6  2  0
  5 14  1  0
  6  7  1  0
  7  8  2  0
  8  9  1  0
  9 10  2  0
  9 14  1  0
 10 11  1  0
 11 12  2  0
 12 13  1  0
 13 14  2  0
 15 16  1  0
 16 17  2  0
 16 25  1  0
 17 18  1  0
 18 19  2  0
 19 20  1  0
 19 24  1  0
 20 21  2  0
 21 22  1  0
 22 23  2  0
 23 24  1  0
 24 25  2  0
M  END
