
     RDKit          3D

 17 17  0  0  0  0  0  0  0  0999 V2000
    6.0630    1.3020    0.1560 C   0  0  0  0  0  0  0  0  0  0  0  0
    5.0140    0.3610   -0.4100 C   0  0  0  0  0  0  0  0  0  0  0  0
    4.4310   -0.5240    0.6560 C   0  0  0  0  0  0  0  0  0  0  0  0
    3.4570   -1.3960    0.0650 N   0  0  0  0  0  0  0  0  0  0  0  0
    2.3000   -0.9130   -0.5660 C   0  0  0  0  0  0  0  0  0  0  0  0
    2.0800    0.3040   -0.6270 O   0  0  0  0  0  0  0  0  0  0  0  0
    1.3410   -1.9090   -1.1610 C   0  0  0  0  0  0  0  0  0  0  0  0
    0.2160   -1.2530   -1.7640 N   0  0  0  0  0  0  0  0  0  0  0  0
   -0.6260   -0.4300   -0.9670 C   0  0  0  0  0  0  0  0  0  0  0  0
   -0.3280   -0.3190    0.2680 O   0  0  0  0  0  0  0  0  0  0  0  0
   -2.0400    0.4120   -1.6600 S   0  0  0  0  0  0  0  0  0  0  0  0
   -2.8380    1.3490   -0.3190 C   0  0  0  0  0  0  0  0  0  0  0  0
   -3.3830    0.3190    0.6530 C   0  0  2  0  0  0  0  0  0  0  0  0
   -4.3770   -0.5610   -0.0570 C   0  0  0  0  0  0  0  0  0  0  0  0
   -5.6730    0.1920    0.1590 C   0  0  0  0  0  0  0  0  0  0  0  0
   -5.3140    1.3080    1.1260 C   0  0  0  0  0  0  0  0  0  0  0  0
   -4.0730    0.9690    1.6650 O   0  0  0  0  0  0  0  0  0  0  0  0
  1  2  1  0
  2  3  1  0
  3  4  1  0
  4  5  1  0
  5  6  2  0
  5  7  1  0
  7  8  1  0
  8  9  1  0
  9 10  2  0
  9 11  1  0
 11 12  1  0
 13 12  1  6
 13 14  1  0
 13 17  1  0
 14 15  1  0
 15 16  1  0
 16 17  1  0
M  END
