
     RDKit          3D

 17 17  0  0  0  0  0  0  0  0999 V2000
   -4.6980   -0.8750   -0.0170 C   0  0  0  0  0  0  0  0  0  0  0  0
   -3.6890   -1.7620    0.7250 C   0  0  0  0  0  0  0  0  0  0  0  0
   -2.5350   -0.9230    1.1860 C   0  0  0  0  0  0  0  0  0  0  0  0
   -1.8030   -0.2480    0.0600 C   0  0  0  0  0  0  0  0  0  0  0  0
   -0.6660    0.5590    0.7060 C   0  0  0  0  0  0  0  0  0  0  0  0
    0.1180    1.2670   -0.3550 C   0  0  0  0  0  0  0  0  0  0  0  0
    1.4060    1.0880   -0.5800 C   0  0  0  0  0  0  0  0  0  0  0  0
    2.4760   -0.0410    0.3420 S   0  0  0  0  0  0  0  0  0  0  0  0
    4.1260    0.0870   -0.3500 C   0  0  0  0  0  0  0  0  0  0  0  0
    5.0880   -0.8070    0.3420 C   0  0  0  0  0  0  0  0  0  0  0  0
    4.6120   -1.6100    1.4080 N   0  0  0  0  0  0  0  0  0  0  0  0
    6.2730   -0.8300   -0.0240 O   0  0  0  0  0  0  0  0  0  0  0  0
    1.7890    1.9540   -1.6850 C   0  0  0  0  0  0  0  0  0  0  0  0
    2.9560    2.0560   -2.1880 O   0  0  0  0  0  0  0  0  0  0  0  0
    0.6540    2.6790   -2.1290 N   0  0  0  0  0  0  0  0  0  0  0  0
   -0.4090    2.2480   -1.2900 C   0  0  0  0  0  0  0  0  0  0  0  0
   -1.5960    2.6680   -1.3710 O   0  0  0  0  0  0  0  0  0  0  0  0
  1  2  1  0
  2  3  1  0
  3  4  1  0
  4  5  1  0
  5  6  1  0
  6  7  2  0
  6 16  1  0
  7  8  1  0
  7 13  1  0
  8  9  1  0
  9 10  1  0
 10 11  1  0
 10 12  2  0
 13 14  2  0
 13 15  1  0
 15 16  1  0
 16 17  2  0
M  END
