
     RDKit          3D

 17 17  0  0  0  0  0  0  0  0999 V2000
   -2.4790   -1.5640   -0.2460 C   0  0  0  0  0  0  0  0  0  0  0  0
   -1.5930   -0.3420   -0.4850 C   0  0  1  0  0  0  0  0  0  0  0  0
   -1.6350   -0.0200   -1.9380 C   0  0  0  0  0  0  0  0  0  0  0  0
   -2.1200    0.7600    0.3940 C   0  0  0  0  0  0  0  0  0  0  0  0
   -3.5150    1.1180    0.1030 C   0  0  0  0  0  0  0  0  0  0  0  0
   -4.1130    2.1480    0.8800 N   0  0  0  0  0  0  0  0  0  0  0  0
   -4.2280    0.5860   -0.7840 O   0  0  0  0  0  0  0  0  0  0  0  0
   -0.2310   -0.6440   -0.0870 N   0  0  0  0  0  0  0  0  0  0  0  0
    0.8010    0.2870   -0.2200 C   0  0  0  0  0  0  0  0  0  0  0  0
    0.5190    1.4340   -0.7120 O   0  0  0  0  0  0  0  0  0  0  0  0
    2.1850   -0.0040    0.1820 C   0  0  0  0  0  0  0  0  0  0  0  0
    2.7530   -1.1300    0.7270 C   0  0  0  0  0  0  0  0  0  0  0  0
    4.0540   -1.1240    0.9990 C   0  0  0  0  0  0  0  0  0  0  0  0
    4.8480   -0.0750    0.7720 C   0  0  0  0  0  0  0  0  0  0  0  0
    6.1820    0.2880    0.9160 C   0  0  0  0  0  0  0  0  0  0  0  0
    6.5950    1.4250    0.5750 O   0  0  0  0  0  0  0  0  0  0  0  0
    3.5740    1.0980    0.0600 S   0  0  0  0  0  0  0  0  0  0  0  0
  2  1  1  6
  2  3  1  0
  2  4  1  0
  2  8  1  0
  4  5  1  0
  5  6  1  0
  5  7  2  0
  8  9  1  0
  9 10  2  0
  9 11  1  0
 11 12  2  0
 11 17  1  0
 12 13  1  0
 13 14  2  0
 14 15  1  0
 14 17  1  0
 15 16  2  0
M  END
