
     RDKit          3D

 17 17  0  0  0  0  0  0  0  0999 V2000
    5.0240   -0.3020   -0.6020 C   0  0  0  0  0  0  0  0  0  0  0  0
    4.9220   -0.2410    0.8980 C   0  0  0  0  0  0  0  0  0  0  0  0
    3.8070    0.5180    1.2560 O   0  0  0  0  0  0  0  0  0  0  0  0
    2.5170    0.1960    0.9320 C   0  0  0  0  0  0  0  0  0  0  0  0
    2.3020   -0.8430    0.2750 O   0  0  0  0  0  0  0  0  0  0  0  0
    1.4350    1.1110    1.3870 C   0  0  0  0  0  0  0  0  0  0  0  0
    0.1200    0.6640    0.9420 N   0  0  0  0  0  0  0  0  0  0  0  0
   -0.2170    0.5350   -0.4130 C   0  0  0  0  0  0  0  0  0  0  0  0
    0.7610    0.8630   -1.1990 O   0  0  0  0  0  0  0  0  0  0  0  0
   -1.4600    0.1060   -1.0080 C   0  0  0  0  0  0  0  0  0  0  0  0
   -1.6410    0.1810   -2.3650 N   0  0  0  0  0  0  0  0  0  0  0  0
   -2.8480   -0.2880   -2.7120 C   0  0  0  0  0  0  0  0  0  0  0  0
   -3.4530   -0.6690   -1.5630 C   0  0  0  0  0  0  0  0  0  0  0  0
   -5.0720   -1.3700   -1.3930 S   0  0  0  0  0  0  0  0  0  0  0  0
   -2.5810   -0.4230   -0.4800 C   0  0  0  0  0  0  0  0  0  0  0  0
   -2.9050   -0.7050    0.9210 C   0  0  0  0  0  0  0  0  0  0  0  0
   -3.3230    0.5500    1.6530 C   0  0  0  0  0  0  0  0  0  0  0  0
  1  2  1  0
  2  3  1  0
  3  4  1  0
  4  5  2  0
  4  6  1  0
  6  7  1  0
  7  8  1  0
  8  9  2  0
  8 10  1  0
 10 11  1  0
 10 15  2  0
 11 12  1  0
 12 13  2  0
 13 14  1  0
 13 15  1  0
 15 16  1  0
 16 17  1  0
M  END
