
     RDKit          3D

 20 22  0  0  0  0  0  0  0  0999 V2000
    3.4990    2.6060    0.8710 N   0  0  0  0  0  0  0  0  0  0  0  0
    3.1910    1.3900    0.2380 C   0  0  0  0  0  0  0  0  0  0  0  0
    1.9380    0.9430    0.0920 N   0  0  0  0  0  0  0  0  0  0  0  0
    1.7370   -0.2760   -0.4000 C   0  0  0  0  0  0  0  0  0  0  0  0
    0.5720   -0.9820   -0.6060 C   0  0  0  0  0  0  0  0  0  0  0  0
   -0.8150   -0.5200   -0.5080 C   0  0  2  0  0  0  0  0  0  0  0  0
   -1.0670    0.7610    0.0300 N   0  0  0  0  0  0  0  0  0  0  0  0
   -2.5280    0.7010    0.1760 C   0  0  2  0  0  0  0  0  0  0  0  0
   -3.0740    1.9350    0.8020 C   0  0  0  0  0  0  0  0  0  0  0  0
   -2.7120    3.0140   -0.0430 O   0  0  0  0  0  0  0  0  0  0  0  0
   -2.7080   -0.5680    0.9340 C   0  0  1  0  0  0  0  0  0  0  0  0
   -4.0030   -1.0070    0.8410 O   0  0  0  0  0  0  0  0  0  0  0  0
   -1.7280   -1.4910    0.1870 C   0  0  1  0  0  0  0  0  0  0  0  0
   -2.3760   -2.3560   -0.6270 O   0  0  0  0  0  0  0  0  0  0  0  0
    0.9370   -2.2100   -1.0770 C   0  0  0  0  0  0  0  0  0  0  0  0
    2.2910   -2.2680   -1.1570 N   0  0  0  0  0  0  0  0  0  0  0  0
    2.8040   -1.0990   -0.7560 C   0  0  0  0  0  0  0  0  0  0  0  0
    4.0970   -0.6370   -0.6130 C   0  0  0  0  0  0  0  0  0  0  0  0
    5.0570   -1.3650   -0.9360 O   0  0  0  0  0  0  0  0  0  0  0  0
    4.2360    0.5990   -0.1200 N   0  0  0  0  0  0  0  0  0  0  0  0
  1  2  1  0
  2  3  2  0
  2 20  1  0
  3  4  1  0
  4  5  1  0
  4 17  2  0
  6  5  1  1
  5 15  2  0
  6  7  1  0
  6 13  1  0
  7  8  1  0
  8  9  1  1
  8 11  1  0
  9 10  1  0
 11 12  1  6
 11 13  1  0
 13 14  1  6
 15 16  1  0
 16 17  1  0
 17 18  1  0
 18 19  2  0
 18 20  1  0
M  CHG  1   7   1
M  END
