
     RDKit          3D

 13 13  0  0  0  0  0  0  0  0999 V2000
   -3.2770    0.9310    1.4500 C   0  0  0  0  0  0  0  0  0  0  0  0
   -2.3380   -0.0440    0.9680 O   0  0  0  0  0  0  0  0  0  0  0  0
   -2.1480   -0.1160   -0.4040 C   0  0  0  0  0  0  0  0  0  0  0  0
   -2.8160    0.6800   -1.1500 O   0  0  0  0  0  0  0  0  0  0  0  0
   -1.2140   -1.0620   -1.0640 C   0  0  0  0  0  0  0  0  0  0  0  0
    0.1200   -0.8790   -0.4730 N   0  0  0  0  0  0  0  0  0  0  0  0
    0.6810   -1.4910    0.5820 C   0  0  0  0  0  0  0  0  0  0  0  0
    1.9490   -1.0130    0.8040 C   0  0  0  0  0  0  0  0  0  0  0  0
    2.1850   -0.0590   -0.1610 C   0  0  0  0  0  0  0  0  0  0  0  0
    3.4000    0.7190   -0.3130 C   0  0  0  0  0  0  0  0  0  0  0  0
    4.3430    0.5430    0.4880 O   0  0  0  0  0  0  0  0  0  0  0  0
    3.5660    1.6660   -1.3260 O   0  0  0  0  0  0  0  0  0  0  0  0
    1.0350    0.0020   -0.9360 C   0  0  0  0  0  0  0  0  0  0  0  0
  1  2  1  0
  2  3  1  0
  3  4  2  0
  3  5  1  0
  5  6  1  0
  6  7  1  0
  6 13  1  0
  7  8  2  0
  8  9  1  0
  9 10  1  0
  9 13  2  0
 10 11  2  0
 10 12  1  0
M  END
