
     RDKit          3D

 13 13  0  0  0  0  0  0  0  0999 V2000
    2.5590   -0.3990   -1.8590 C   0  0  0  0  0  0  0  0  0  0  0  0
    1.7700    0.2820   -0.9250 O   0  0  0  0  0  0  0  0  0  0  0  0
    0.5660   -0.2450   -0.4640 C   0  0  0  0  0  0  0  0  0  0  0  0
    0.1140   -1.4430   -0.9070 C   0  0  0  0  0  0  0  0  0  0  0  0
   -1.0740   -1.9890   -0.4680 C   0  0  0  0  0  0  0  0  0  0  0  0
   -1.8140   -1.2860    0.4480 C   0  0  0  0  0  0  0  0  0  0  0  0
   -3.0320   -1.8040    0.9240 O   0  0  0  0  0  0  0  0  0  0  0  0
   -1.3600   -0.0450    0.9160 C   0  0  0  0  0  0  0  0  0  0  0  0
   -0.1840    0.4840    0.4740 C   0  0  0  0  0  0  0  0  0  0  0  0
    0.3590    1.7650    0.9100 C   0  0  0  0  0  0  0  0  0  0  0  0
   -0.3570    2.5470    1.8580 N   0  0  0  0  0  0  0  0  0  0  0  0
   -1.4180    2.3450    2.4260 O   0  0  0  0  0  0  0  0  0  0  0  0
    0.2910    3.7700    2.1900 O   0  0  0  0  0  0  0  0  0  0  0  0
  1  2  1  0
  2  3  1  0
  3  4  2  0
  3  9  1  0
  4  5  1  0
  5  6  2  0
  6  7  1  0
  6  8  1  0
  8  9  2  0
  9 10  1  0
 10 11  1  0
 11 12  2  0
 11 13  1  0
M  CHG  2  11   1  13  -1
M  END
