
     RDKit          3D

 12 12  0  0  0  0  0  0  0  0999 V2000
    3.8180    0.8530   -0.5260 C   0  0  0  0  0  0  0  0  0  0  0  0
    2.8360   -0.1060   -0.8450 O   0  0  0  0  0  0  0  0  0  0  0  0
    1.4810    0.0680   -0.4370 C   0  0  0  0  0  0  0  0  0  0  0  0
    1.3050    1.1200    0.1990 O   0  0  0  0  0  0  0  0  0  0  0  0
    0.4990   -0.9020   -0.7620 C   0  0  0  0  0  0  0  0  0  0  0  0
   -0.7740   -0.9570   -0.5020 C   0  0  0  0  0  0  0  0  0  0  0  0
   -1.5960   -2.0560   -0.9380 O   0  0  0  0  0  0  0  0  0  0  0  0
   -2.8800   -1.8650   -0.5350 C   0  0  0  0  0  0  0  0  0  0  0  0
   -3.8030   -2.6870   -0.7910 O   0  0  0  0  0  0  0  0  0  0  0  0
   -2.9100   -0.6220    0.1770 C   0  0  0  0  0  0  0  0  0  0  0  0
   -1.6770   -0.0790    0.2030 C   0  0  0  0  0  0  0  0  0  0  0  0
   -1.4090    1.2140    0.8770 C   0  0  0  0  0  0  0  0  0  0  0  0
  1  2  1  0
  2  3  1  0
  3  4  2  0
  3  5  1  0
  5  6  2  3
  6  7  1  0
  6 11  1  0
  7  8  1  0
  8  9  2  0
  8 10  1  0
 10 11  2  0
 11 12  1  0
M  END
