
     RDKit          3D

 13 13  0  0  0  0  0  0  0  0999 V2000
    3.1350    0.9470    1.2700 C   0  0  0  0  0  0  0  0  0  0  0  0
    2.9120    0.7510   -0.1990 C   0  0  0  0  0  0  0  0  0  0  0  0
    1.5300    0.1820   -0.4110 C   0  0  0  0  0  0  0  0  0  0  0  0
    1.1810   -1.1460   -0.4510 C   0  0  0  0  0  0  0  0  0  0  0  0
   -0.1800   -1.2350   -0.6650 C   0  0  0  0  0  0  0  0  0  0  0  0
   -0.9540   -2.4290   -0.7730 N   0  0  0  0  0  0  0  0  0  0  0  0
   -0.5440   -3.4490   -0.1890 O   0  0  0  0  0  0  0  0  0  0  0  0
   -2.1230   -2.4770   -1.4990 O   0  0  0  0  0  0  0  0  0  0  0  0
   -0.6080    0.0830   -0.7480 C   0  0  0  0  0  0  0  0  0  0  0  0
   -2.0070    0.5340   -0.9760 C   0  0  0  0  0  0  0  0  0  0  0  0
   -2.8310    0.3910    0.2900 C   0  0  0  0  0  0  0  0  0  0  0  0
   -4.1220    0.8390   -0.0070 O   0  0  0  0  0  0  0  0  0  0  0  0
    0.4360    0.8650   -0.5920 O   0  0  0  0  0  0  0  0  0  0  0  0
  1  2  1  0
  2  3  1  0
  3  4  2  0
  3 13  1  0
  4  5  1  0
  5  6  1  0
  5  9  2  0
  6  7  2  0
  6  8  1  0
  9 10  1  0
  9 13  1  0
 10 11  1  0
 11 12  1  0
M  CHG  2   6   1   8  -1
M  END
