
     RDKit          3D

 13 13  0  0  0  0  0  0  0  0999 V2000
   -3.2670   -1.8610    1.1570 O   0  0  0  0  0  0  0  0  0  0  0  0
   -2.5760   -0.9070    0.7480 C   0  0  0  0  0  0  0  0  0  0  0  0
   -1.1430   -0.8940    1.0500 C   0  0  0  0  0  0  0  0  0  0  0  0
   -0.3420   -0.1220    0.3630 C   0  0  0  0  0  0  0  0  0  0  0  0
    1.0210   -0.0190    0.5500 O   0  0  0  0  0  0  0  0  0  0  0  0
    1.8410   -0.8760   -0.2230 C   0  0  0  0  0  0  0  0  0  0  0  0
    3.2900   -0.6010    0.1360 C   0  0  0  0  0  0  0  0  0  0  0  0
    3.6500    0.7710   -0.1370 N   0  0  0  0  0  0  0  0  0  0  0  0
    4.5470    1.0310   -0.9280 O   0  0  0  0  0  0  0  0  0  0  0  0
    2.9760    1.7960    0.4980 O   0  0  0  0  0  0  0  0  0  0  0  0
   -0.9470    0.7250   -0.7210 C   0  0  0  0  0  0  0  0  0  0  0  0
   -2.2040    1.3290   -0.0810 C   0  0  0  0  0  0  0  0  0  0  0  0
   -3.2180    0.1790   -0.0280 C   0  0  0  0  0  0  0  0  0  0  0  0
  1  2  2  0
  2  3  1  0
  2 13  1  0
  3  4  2  0
  4  5  1  0
  4 11  1  0
  5  6  1  0
  6  7  1  0
  7  8  1  0
  8  9  2  0
  8 10  1  0
 11 12  1  0
 12 13  1  0
M  CHG  2   8   1  10  -1
M  END
