
     RDKit          3D

 13 13  0  0  0  0  0  0  0  0999 V2000
    3.3250    0.2870    1.4350 C   0  0  0  0  0  0  0  0  0  0  0  0
    2.0160    0.1660    0.9130 O   0  0  0  0  0  0  0  0  0  0  0  0
    1.8130   -0.7180   -0.1380 C   0  0  0  0  0  0  0  0  0  0  0  0
    2.8190   -1.3720   -0.5730 O   0  0  0  0  0  0  0  0  0  0  0  0
    0.5200   -0.9310   -0.7570 C   0  0  0  0  0  0  0  0  0  0  0  0
   -0.5200   -0.2580   -0.3110 C   0  0  0  0  0  0  0  0  0  0  0  0
   -1.9110   -0.3580   -0.8330 C   0  0  0  0  0  0  0  0  0  0  0  0
   -2.6110    0.9060   -0.4260 C   0  0  0  0  0  0  0  0  0  0  0  0
   -1.9060    1.2970    0.8540 C   0  0  0  0  0  0  0  0  0  0  0  0
   -0.5250    0.7220    0.7850 C   0  0  0  0  0  0  0  0  0  0  0  0
    0.3900   -1.8530   -1.8290 N   0  0  0  0  0  0  0  0  0  0  0  0
    0.7710   -3.0490   -1.6830 O   0  0  0  0  0  0  0  0  0  0  0  0
   -0.1340   -1.5350   -3.0480 O   0  0  0  0  0  0  0  0  0  0  0  0
  1  2  1  0
  2  3  1  0
  3  4  2  0
  3  5  1  0
  5  6  2  3
  5 11  1  0
  6  7  1  0
  6 10  1  0
  7  8  1  0
  8  9  1  0
  9 10  1  0
 11 12  2  0
 11 13  1  0
M  CHG  2  11   1  13  -1
M  END
