
     RDKit          3D

 27 29  0  0  0  0  0  0  0  0999 V2000
    4.2220    3.1170    0.8540 C   0  0  0  0  0  0  0  0  0  0  0  0
    4.4360    1.8690    0.0370 C   0  0  0  0  0  0  0  0  0  0  0  0
    4.6130    0.4550    1.0930 S   0  0  1  0  0  0  0  0  0  0  0  0
    5.9220    0.6950    1.8640 O   0  0  0  0  0  0  0  0  0  0  0  0
    3.5680    0.3440    2.1330 O   0  0  0  0  0  0  0  0  0  0  0  0
    4.8580   -0.9710    0.1400 C   0  0  0  0  0  0  0  0  0  0  0  0
    6.0500   -1.4900   -0.1800 C   0  0  0  0  0  0  0  0  0  0  0  0
    5.9080   -2.6750   -0.9760 C   0  0  0  0  0  0  0  0  0  0  0  0
    4.6250   -2.9000   -1.1550 C   0  0  0  0  0  0  0  0  0  0  0  0
    3.6870   -3.8140   -1.7880 C   0  0  0  0  0  0  0  0  0  0  0  0
    2.3980   -3.2310   -1.4210 N   0  0  0  0  0  0  0  0  0  0  0  0
    2.5670   -2.0410   -0.6680 C   0  0  0  0  0  0  0  0  0  0  0  0
    1.5290   -1.1800   -0.2210 N   0  0  0  0  0  0  0  0  0  0  0  0
    0.1560   -1.4020   -0.4370 C   0  0  0  0  0  0  0  0  0  0  0  0
   -0.2130   -2.4200   -1.0640 O   0  0  0  0  0  0  0  0  0  0  0  0
   -0.8410   -0.4810    0.0480 N   0  0  0  0  0  0  0  0  0  0  0  0
   -2.2130   -0.8030   -0.2270 C   0  0  0  0  0  0  0  0  0  0  0  0
   -3.1680    0.2340    0.3310 C   0  0  2  0  0  0  0  0  0  0  0  0
   -2.9430    0.2650    1.8310 C   0  0  1  0  0  0  0  0  0  0  0  0
   -3.8250    1.2540    2.5330 C   0  0  0  0  0  0  0  0  0  0  0  0
   -3.2110   -1.0020    2.3460 O   0  0  0  0  0  0  0  0  0  0  0  0
   -4.5630   -0.2380    0.0170 C   0  0  0  0  0  0  0  0  0  0  0  0
   -5.2250    0.5490   -1.0790 C   0  0  0  0  0  0  0  0  0  0  0  0
   -5.2630    1.9950   -0.7110 C   0  0  0  0  0  0  0  0  0  0  0  0
   -3.9220    2.5380   -0.3430 C   0  0  0  0  0  0  0  0  0  0  0  0
   -2.8270    1.5410   -0.3190 C   0  0  0  0  0  0  0  0  0  0  0  0
    3.8720   -1.8540   -0.4730 C   0  0  0  0  0  0  0  0  0  0  0  0
  1  2  1  0
  3  2  1  6
  3  4  2  0
  3  5  2  0
  3  6  1  0
  6  7  2  0
  6 27  1  0
  7  8  1  0
  8  9  2  0
  9 10  1  0
  9 27  1  0
 10 11  1  0
 11 12  1  0
 12 13  1  0
 12 27  2  0
 13 14  1  0
 14 15  2  0
 14 16  1  0
 16 17  1  0
 18 17  1  6
 18 19  1  0
 18 22  1  0
 18 26  1  0
 19 20  1  1
 19 21  1  0
 22 23  1  0
 23 24  1  0
 24 25  1  0
 25 26  1  0
M  END
