
     RDKit          3D

 27 29  0  0  0  0  0  0  0  0999 V2000
    6.2210   -0.6900   -0.8640 C   0  0  0  0  0  0  0  0  0  0  0  0
    5.7510    0.7110   -0.7430 C   0  0  0  0  0  0  0  0  0  0  0  0
    4.6690    0.9380    0.2630 C   0  0  2  0  0  0  0  0  0  0  0  0
    5.1030    0.5530    1.5200 O   0  0  0  0  0  0  0  0  0  0  0  0
    3.3310    0.3620   -0.0800 C   0  0  1  0  0  0  0  0  0  0  0  0
    3.3570   -1.0070   -0.0610 O   0  0  0  0  0  0  0  0  0  0  0  0
    2.3440    0.9230    0.9370 C   0  0  0  0  0  0  0  0  0  0  0  0
    1.0110    0.4190    0.6820 N   0  0  0  0  0  0  0  0  0  0  0  0
    0.6450   -0.7280    1.2720 C   0  0  0  0  0  0  0  0  0  0  0  0
    1.4130   -1.3770    2.0360 O   0  0  0  0  0  0  0  0  0  0  0  0
   -0.5590   -1.2290    1.0700 N   0  0  0  0  0  0  0  0  0  0  0  0
   -1.5000   -0.6370    0.2680 C   0  0  0  0  0  0  0  0  0  0  0  0
   -2.7800   -1.3080    0.0590 C   0  0  0  0  0  0  0  0  0  0  0  0
   -3.9660   -1.0880   -0.4700 C   0  0  0  0  0  0  0  0  0  0  0  0
   -4.8180   -2.1100   -0.4640 N   0  0  0  0  0  0  0  0  0  0  0  0
   -4.6870   -3.1770   -0.0640 C   0  0  0  0  0  0  0  0  0  0  0  0
   -5.4200   -4.4720    0.0770 C   0  0  0  0  0  0  0  0  0  0  0  0
   -2.9300   -3.1160    0.5940 S   0  0  0  0  0  0  0  0  0  0  0  0
   -1.1600    0.5280   -0.3440 C   0  0  0  0  0  0  0  0  0  0  0  0
   -2.0450    1.2990   -1.2090 C   0  0  0  0  0  0  0  0  0  0  0  0
   -2.9990    2.1590   -0.4670 C   0  0  0  0  0  0  0  0  0  0  0  0
   -3.1350    2.2830    0.8570 C   0  0  0  0  0  0  0  0  0  0  0  0
   -4.1950    3.2380    1.1350 C   0  0  0  0  0  0  0  0  0  0  0  0
   -4.7020    3.5070   -0.0510 C   0  0  0  0  0  0  0  0  0  0  0  0
   -3.9850    3.0540   -1.0450 C   0  0  0  0  0  0  0  0  0  0  0  0
    0.1290    1.0410   -0.1130 C   0  0  0  0  0  0  0  0  0  0  0  0
    0.5120    2.1190   -0.6510 O   0  0  0  0  0  0  0  0  0  0  0  0
  1  2  1  0
  2  3  1  0
  3  4  1  1
  3  5  1  0
  5  6  1  1
  5  7  1  0
  7  8  1  0
  8  9  1  0
  8 26  1  0
  9 10  2  0
  9 11  1  0
 11 12  1  0
 12 13  1  0
 12 19  2  0
 13 14  2  0
 13 18  1  0
 14 15  1  0
 15 16  2  0
 16 17  1  0
 16 18  1  0
 19 20  1  0
 19 26  1  0
 20 21  1  0
 21 22  2  0
 21 25  1  0
 22 23  1  0
 23 24  2  0
 24 25  2  0
 26 27  2  0
M  END
