
     RDKit          3D

 27 29  0  0  0  0  0  0  0  0999 V2000
   -0.8980   -1.4830    1.8680 C   0  0  0  0  0  0  0  0  0  0  0  0
   -1.4170   -0.0750    1.5150 C   0  0  2  0  0  0  0  0  0  0  0  0
   -2.6690   -0.3660    0.7090 C   0  0  0  0  0  0  0  0  0  0  0  0
   -3.4720    0.7510    0.2650 C   0  0  0  0  0  0  0  0  0  0  0  0
   -3.3640    1.9660    0.6030 O   0  0  0  0  0  0  0  0  0  0  0  0
   -4.5280    0.4880   -0.6720 N   0  0  0  0  0  0  0  0  0  0  0  0
   -5.3340    1.5860   -1.1550 C   0  0  0  0  0  0  0  0  0  0  0  0
   -4.8230   -0.8300   -1.1380 C   0  0  0  0  0  0  0  0  0  0  0  0
   -5.8540   -1.5460   -0.2760 C   0  0  0  0  0  0  0  0  0  0  0  0
   -7.0400   -0.7810   -0.3070 O   0  0  0  0  0  0  0  0  0  0  0  0
   -0.4500    0.6330    0.6700 C   0  0  1  0  0  0  0  0  0  0  0  0
   -1.0080    1.9200    0.3580 O   0  0  0  0  0  0  0  0  0  0  0  0
    0.9530    0.8690    1.0690 C   0  0  2  0  0  0  0  0  0  0  0  0
    1.5910    1.6720   -0.1020 C   0  0  0  0  0  0  0  0  0  0  0  0
    3.0510    1.8760    0.2300 C   0  0  0  0  0  0  0  0  0  0  0  0
    3.6620    0.5490   -0.0390 C   0  0  0  0  0  0  0  0  0  0  0  0
    4.7310    0.5100   -0.7630 C   0  0  0  0  0  0  0  0  0  0  0  0
    5.4970    1.9740   -1.4470 S   0  0  0  0  0  0  0  0  0  0  0  0
    6.9330    1.0870   -2.1290 C   0  0  0  0  0  0  0  0  0  0  0  0
    6.5970   -0.2700   -1.8620 N   0  0  0  0  0  0  0  0  0  0  0  0
    5.5860   -0.5720   -1.2330 C   0  0  0  0  0  0  0  0  0  0  0  0
    5.2670   -1.9660   -0.9790 N   0  0  0  0  0  0  0  0  0  0  0  0
    4.0870   -2.5450   -0.4360 C   0  0  0  0  0  0  0  0  0  0  0  0
    3.8380   -3.7510   -0.6960 O   0  0  0  0  0  0  0  0  0  0  0  0
    3.0850   -1.8710    0.4280 C   0  0  0  0  0  0  0  0  0  0  0  0
    2.9440   -0.5710    0.5640 C   0  0  0  0  0  0  0  0  0  0  0  0
    1.8580   -0.1540    1.5340 C   0  0  0  0  0  0  0  0  0  0  0  0
  2  1  1  6
  2  3  1  0
  2 11  1  0
  3  4  1  0
  4  5  2  0
  4  6  1  0
  6  7  1  0
  6  8  1  0
  8  9  1  0
  9 10  1  0
 11 12  1  1
 11 13  1  0
 13 14  1  6
 13 27  1  0
 14 15  1  0
 15 16  1  0
 16 17  2  0
 16 26  1  0
 17 18  1  0
 17 21  1  0
 18 19  1  0
 19 20  1  0
 20 21  2  0
 21 22  1  0
 22 23  1  0
 23 24  2  0
 23 25  1  0
 25 26  2  0
 26 27  1  0
M  END
