
     RDKit          3D

  8  7  0  0  0  0  0  0  0  0999 V2000
   -1.6550   -0.0590    0.1460 N   0  0  0  0  0  0  0  0  0  0  0  0
   -0.1300   -0.5970   -0.3540 S   0  0  2  0  0  0  0  0  0  0  0  0
   -0.1110   -0.6520   -1.8590 O   0  0  0  0  0  0  0  0  0  0  0  0
    0.0760   -1.9970    0.1620 O   0  0  0  0  0  0  0  0  0  0  0  0
    1.1910    0.4820    0.1870 C   0  0  2  0  0  0  0  0  0  0  0  0
    1.1510    0.5110    1.5660 F   0  0  0  0  0  0  0  0  0  0  0  0
    0.9850    1.7090   -0.3850 F   0  0  0  0  0  0  0  0  0  0  0  0
    2.3920   -0.0480   -0.2080 F   0  0  0  0  0  0  0  0  0  0  0  0
  2  1  1  6
  2  3  2  0
  2  4  2  0
  2  5  1  0
  5  6  1  1
  5  7  1  0
  5  8  1  0
M  END
