
     RDKit          3D

 19 19  0  0  0  0  0  0  0  0999 V2000
    6.6490    0.9550   -0.5100 N   0  0  0  0  0  0  0  0  0  0  0  0
    5.2960    1.3830   -0.2220 C   0  0  0  0  0  0  0  0  0  0  0  0
    5.1720    2.2310    0.6890 O   0  0  0  0  0  0  0  0  0  0  0  0
    4.2050    0.8020   -1.0100 C   0  0  0  0  0  0  0  0  0  0  0  0
    2.8450    0.8790   -0.3920 C   0  0  0  0  0  0  0  0  0  0  0  0
    2.7950    0.0700    0.8710 C   0  0  1  0  0  0  0  0  0  0  0  0
    3.7110    0.5540    1.7770 O   0  0  0  0  0  0  0  0  0  0  0  0
    1.4430    0.1170    1.5320 C   0  0  0  0  0  0  0  0  0  0  0  0
    0.3760   -0.3580    0.7130 N   0  0  1  0  0  0  0  0  0  0  0  0
    0.5990   -1.6370    0.1070 C   0  0  0  0  0  0  0  0  0  0  0  0
   -0.7540   -1.8920   -0.5430 C   0  0  0  0  0  0  0  0  0  0  0  0
   -1.6960   -1.3840    0.5310 C   0  0  2  0  0  0  0  0  0  0  0  0
   -2.6550   -0.4710   -0.0830 N   0  0  0  0  0  0  0  0  0  0  0  0
   -4.0400   -0.6750    0.0080 C   0  0  0  0  0  0  0  0  0  0  0  0
   -4.4440   -1.6920    0.6490 O   0  0  0  0  0  0  0  0  0  0  0  0
   -4.9650    0.2900   -0.6370 C   0  0  0  0  0  0  0  0  0  0  0  0
   -6.2930   -0.0530   -0.4560 O   0  0  0  0  0  0  0  0  0  0  0  0
   -7.0440    0.8850   -1.0790 N   0  0  0  0  0  0  0  0  0  0  0  0
   -0.8270   -0.5940    1.4880 C   0  0  0  0  0  0  0  0  0  0  0  0
  1  2  1  0
  2  3  2  0
  2  4  1  0
  4  5  1  0
  5  6  1  0
  6  7  1  1
  6  8  1  0
  9  8  1  1
  9 10  1  0
  9 19  1  0
 10 11  1  0
 11 12  1  0
 12 13  1  6
 12 19  1  0
 13 14  1  0
 14 15  2  0
 14 16  1  0
 16 17  1  0
 17 18  1  0
M  CHG  2   9   1  18   1
M  END
