
     RDKit          3D

 19 19  0  0  0  0  0  0  0  0999 V2000
   -3.1400   -2.1520   -1.6790 N   0  0  0  0  0  0  0  0  0  0  0  0
   -3.6840   -0.8770   -1.3120 C   0  0  0  0  0  0  0  0  0  0  0  0
   -3.3900   -0.4760    0.1080 C   0  0  2  0  0  0  0  0  0  0  0  0
   -3.9470   -1.4480    0.9410 O   0  0  0  0  0  0  0  0  0  0  0  0
   -4.1400    0.8180    0.3820 C   0  0  0  0  0  0  0  0  0  0  0  0
   -4.0400    1.2330    1.6870 O   0  0  0  0  0  0  0  0  0  0  0  0
   -1.9420   -0.3750    0.4210 C   0  0  0  0  0  0  0  0  0  0  0  0
   -1.2000    0.6360   -0.4200 C   0  0  0  0  0  0  0  0  0  0  0  0
    0.1980    0.5860    0.0350 N   0  0  0  0  0  0  0  0  0  0  0  0
    0.8910    1.8100   -0.2550 C   0  0  0  0  0  0  0  0  0  0  0  0
    2.0310    2.0750    0.7040 C   0  0  0  0  0  0  0  0  0  0  0  0
    3.0650    0.9950    0.6770 C   0  0  1  0  0  0  0  0  0  0  0  0
    2.5870   -0.2460    1.0140 O   0  0  0  0  0  0  0  0  0  0  0  0
    3.1890   -1.2990    0.3700 C   0  0  0  0  0  0  0  0  0  0  0  0
    4.6280   -1.5170    0.7810 C   0  0  0  0  0  0  0  0  0  0  0  0
    5.4460   -0.9230   -0.1620 O   0  0  0  0  0  0  0  0  0  0  0  0
    4.7440   -0.0690   -0.9660 N   0  0  0  0  0  0  0  0  0  0  0  0
    3.8170    0.9500   -0.5980 C   0  0  0  0  0  0  0  0  0  0  0  0
    3.6630    1.8490   -1.4480 O   0  0  0  0  0  0  0  0  0  0  0  0
  1  2  1  0
  2  3  1  0
  3  4  1  1
  3  5  1  0
  3  7  1  0
  5  6  1  0
  7  8  1  0
  8  9  1  0
  9 10  1  0
 10 11  1  0
 12 11  1  6
 12 13  1  0
 12 18  1  0
 13 14  1  0
 14 15  1  0
 15 16  1  0
 16 17  1  0
 17 18  1  0
 18 19  2  0
M  CHG  2   1   1   9   1
M  END
