
     RDKit          3D

 19 19  0  0  0  0  0  0  0  0999 V2000
    5.8310    1.5580   -1.5820 N   0  0  0  0  0  0  0  0  0  0  0  0
    5.2570    0.8500   -0.5570 O   0  0  0  0  0  0  0  0  0  0  0  0
    3.9360    0.4270   -0.6340 C   0  0  0  0  0  0  0  0  0  0  0  0
    3.6330   -0.4390   -1.5740 C   0  0  0  0  0  0  0  0  0  0  0  0
    4.5650   -0.9350   -2.4750 O   0  0  0  0  0  0  0  0  0  0  0  0
    2.9980    0.9920    0.3520 C   0  0  0  0  0  0  0  0  0  0  0  0
    1.6450    0.5370    0.2460 N   0  0  0  0  0  0  0  0  0  0  0  0
    1.5290   -0.7590    0.8500 C   0  0  1  0  0  0  0  0  0  0  0  0
    1.4460   -0.6580    2.3710 C   0  0  0  0  0  0  0  0  0  0  0  0
    0.3480    0.0900    2.7850 O   0  0  0  0  0  0  0  0  0  0  0  0
    0.4480   -1.6150    0.2880 C   0  0  0  0  0  0  0  0  0  0  0  0
   -0.8690   -1.0490    0.4100 N   0  0  0  0  0  0  0  0  0  0  0  0
   -2.0470   -1.6800   -0.0500 C   0  0  0  0  0  0  0  0  0  0  0  0
   -1.9200   -2.8050   -0.6000 O   0  0  0  0  0  0  0  0  0  0  0  0
   -3.4020   -1.1260    0.0610 C   0  0  2  0  0  0  0  0  0  0  0  0
   -4.0950   -0.9070   -1.2370 C   0  0  0  0  0  0  0  0  0  0  0  0
   -5.2910   -0.0480   -0.8010 C   0  0  0  0  0  0  0  0  0  0  0  0
   -4.8710    0.5110    0.5300 C   0  0  0  0  0  0  0  0  0  0  0  0
   -3.4560    0.1540    0.6970 N   0  0  0  0  0  0  0  0  0  0  0  0
  1  2  1  0
  2  3  1  0
  3  4  2  3
  3  6  1  0
  4  5  1  0
  6  7  1  0
  7  8  1  0
  8  9  1  1
  8 11  1  0
  9 10  1  0
 11 12  1  0
 12 13  1  0
 13 14  2  0
 15 13  1  6
 15 16  1  0
 15 19  1  0
 16 17  1  0
 17 18  1  0
 18 19  1  0
M  CHG  2   7   1  19   1
M  END
