
     RDKit          3D

 20 22  0  0  0  0  0  0  0  0999 V2000
   -4.8320    1.6820   -1.2020 N   0  0  0  0  0  0  0  0  0  0  0  0
   -3.7090    1.2630   -0.7560 C   0  0  0  0  0  0  0  0  0  0  0  0
   -2.9240    2.1590   -0.1210 N   0  0  0  0  0  0  0  0  0  0  0  0
   -1.7420    1.7640    0.3610 C   0  0  0  0  0  0  0  0  0  0  0  0
   -0.9960    2.5960    0.9590 O   0  0  0  0  0  0  0  0  0  0  0  0
   -1.3110    0.4660    0.2240 C   0  0  0  0  0  0  0  0  0  0  0  0
   -0.0850    0.0870    0.7320 C   0  0  0  0  0  0  0  0  0  0  0  0
    0.3800   -1.2140    0.6110 C   0  0  0  0  0  0  0  0  0  0  0  0
    1.6300   -1.6510    1.1190 N   0  0  0  0  0  0  0  0  0  0  0  0
    2.5580   -0.7860    1.7950 C   0  0  0  0  0  0  0  0  0  0  0  0
    3.0210    0.3190    0.8940 C   0  0  0  0  0  0  0  0  0  0  0  0
    2.8340    0.5940   -0.3550 N   0  0  0  0  0  0  0  0  0  0  0  0
    3.3160    1.6010   -0.9670 C   0  0  0  0  0  0  0  0  0  0  0  0
    4.1120    2.5150   -0.3080 C   0  0  0  0  0  0  0  0  0  0  0  0
    4.0680    1.6880    1.3910 S   0  0  0  0  0  0  0  0  0  0  0  0
   -0.4370   -2.1100   -0.0400 C   0  0  0  0  0  0  0  0  0  0  0  0
    0.0020   -3.4670   -0.1890 N   0  0  0  0  0  0  0  0  0  0  0  0
   -1.6720   -1.7310   -0.5530 C   0  0  0  0  0  0  0  0  0  0  0  0
   -2.1340   -0.4250   -0.4290 C   0  0  0  0  0  0  0  0  0  0  0  0
   -3.3130   -0.0190   -0.9070 N   0  0  0  0  0  0  0  0  0  0  0  0
  1  2  2  0
  2  3  1  0
  2 20  1  0
  3  4  1  0
  4  5  2  0
  4  6  1  0
  6  7  2  0
  6 19  1  0
  7  8  1  0
  8  9  1  0
  8 16  2  0
  9 10  1  0
 10 11  1  0
 11 12  2  0
 11 15  1  0
 12 13  1  0
 13 14  2  0
 14 15  1  0
 16 17  1  0
 16 18  1  0
 18 19  2  0
 19 20  1  0
M  END
