
     RDKit          3D

 19 19  0  0  0  0  0  0  0  0999 V2000
   -4.1640    3.7280    0.5910 N   0  0  0  0  0  0  0  0  0  0  0  0
   -3.9100    2.2860    0.3600 C   0  0  0  0  0  0  0  0  0  0  0  0
   -2.4760    1.9630    0.5700 C   0  0  0  0  0  0  0  0  0  0  0  0
   -2.0470    0.5640    0.3530 C   0  0  1  0  0  0  0  0  0  0  0  0
   -0.5860    0.4660    0.6060 N   0  0  0  0  0  0  0  0  0  0  0  0
    0.3320    0.0910   -0.3990 C   0  0  0  0  0  0  0  0  0  0  0  0
   -0.1090   -0.1680   -1.5430 O   0  0  0  0  0  0  0  0  0  0  0  0
    1.7330   -0.0060   -0.1750 N   0  0  0  0  0  0  0  0  0  0  0  0
    2.5870   -0.3960   -1.2570 C   0  0  0  0  0  0  0  0  0  0  0  0
    4.0440   -0.4520   -0.8590 C   0  0  1  0  0  0  0  0  0  0  0  0
    4.2850   -1.4860    0.2180 C   0  0  0  0  0  0  0  0  0  0  0  0
    5.6260   -1.5350    0.5160 O   0  0  0  0  0  0  0  0  0  0  0  0
    6.4300   -1.7980   -0.5720 C   0  0  0  0  0  0  0  0  0  0  0  0
    6.1440   -0.8530   -1.7310 C   0  0  0  0  0  0  0  0  0  0  0  0
    4.7720   -0.8370   -1.9820 O   0  0  0  0  0  0  0  0  0  0  0  0
   -2.6520   -0.5040    1.1770 C   0  0  1  0  0  0  0  0  0  0  0  0
   -2.4460   -0.3810    2.5440 O   0  0  0  0  0  0  0  0  0  0  0  0
   -4.0480   -0.9160    0.9150 C   0  0  0  0  0  0  0  0  0  0  0  0
   -4.3910   -1.0570   -0.4880 N   0  0  0  0  0  0  0  0  0  0  0  0
  1  2  1  0
  2  3  1  0
  4  3  1  1
  4  5  1  0
  4 16  1  0
  5  6  1  0
  6  7  2  0
  6  8  1  0
  8  9  1  0
 10  9  1  6
 10 11  1  0
 10 15  1  0
 11 12  1  0
 12 13  1  0
 13 14  1  0
 14 15  1  0
 16 17  1  1
 16 18  1  0
 18 19  1  0
M  CHG  2   1   1  19   1
M  END
