
     RDKit          3D

 20 20  0  0  0  0  0  0  0  0999 V2000
    5.2050   -2.4240   -1.0280 N   0  0  0  0  0  0  0  0  0  0  0  0
    3.9220   -1.8830   -1.2620 C   0  0  0  0  0  0  0  0  0  0  0  0
    3.3230   -2.1970   -2.3170 O   0  0  0  0  0  0  0  0  0  0  0  0
    3.2800   -0.9710   -0.3090 C   0  0  0  0  0  0  0  0  0  0  0  0
    2.0190   -0.5540   -0.7290 O   0  0  0  0  0  0  0  0  0  0  0  0
    1.5390    0.3070    0.2820 C   0  0  0  0  0  0  0  0  0  0  0  0
    0.1520    0.8290   -0.0760 C   0  0  1  0  0  0  0  0  0  0  0  0
   -0.7650   -0.2360   -0.2220 N   0  0  0  0  0  0  0  0  0  0  0  0
   -1.8760   -0.2400    0.6670 C   0  0  1  0  0  0  0  0  0  0  0  0
   -3.1720   -0.5700   -0.0540 C   0  0  0  0  0  0  0  0  0  0  0  0
   -3.1100   -1.8280   -0.6510 O   0  0  0  0  0  0  0  0  0  0  0  0
   -4.2570   -2.1320   -1.2960 N   0  0  0  0  0  0  0  0  0  0  0  0
   -1.7250   -1.2510    1.7450 C   0  0  0  0  0  0  0  0  0  0  0  0
   -2.7000   -1.4490    2.7550 N   0  0  0  0  0  0  0  0  0  0  0  0
   -0.6940   -1.9650    1.7700 O   0  0  0  0  0  0  0  0  0  0  0  0
   -0.2160    1.8870    0.9000 C   0  0  0  0  0  0  0  0  0  0  0  0
    0.8880    2.9260    0.9170 C   0  0  0  0  0  0  0  0  0  0  0  0
    1.3220    3.3420   -0.4530 C   0  0  0  0  0  0  0  0  0  0  0  0
    1.4610    2.2910   -1.3420 O   0  0  0  0  0  0  0  0  0  0  0  0
    0.3050    1.5210   -1.4380 C   0  0  0  0  0  0  0  0  0  0  0  0
  1  2  1  0
  2  3  2  0
  2  4  1  0
  4  5  1  0
  5  6  1  0
  7  6  1  1
  7  8  1  0
  7 16  1  0
  7 20  1  0
  8  9  1  0
  9 10  1  6
  9 13  1  0
 10 11  1  0
 11 12  1  0
 13 14  1  0
 13 15  2  0
 16 17  1  0
 17 18  1  0
 18 19  1  0
 19 20  1  0
M  CHG  2   8   1  12   1
M  END
