
     RDKit          3D

 14 14  0  0  0  0  0  0  0  0999 V2000
   -1.8350   -1.6620   -1.5110 N   0  0  0  0  0  0  0  0  0  0  0  0
   -1.6610   -0.2750   -1.2490 C   0  0  0  0  0  0  0  0  0  0  0  0
   -0.6000   -0.0130   -0.1660 C   0  0  2  0  0  0  0  0  0  0  0  0
   -0.9840   -0.6540    1.0930 C   0  0  0  0  0  0  0  0  0  0  0  0
   -0.3290   -1.5770    1.5800 O   0  0  0  0  0  0  0  0  0  0  0  0
   -2.1140   -0.2180    1.7590 O   0  0  0  0  0  0  0  0  0  0  0  0
   -0.6630    1.4970    0.0750 C   0  0  0  0  0  0  0  0  0  0  0  0
    0.6500    2.1230    0.3860 C   0  0  0  0  0  0  0  0  0  0  0  0
    1.7580    1.5730   -0.1870 O   0  0  0  0  0  0  0  0  0  0  0  0
    1.3860    0.8550   -1.3100 C   0  0  0  0  0  0  0  0  0  0  0  0
    0.7080   -0.4170   -0.7400 C   0  0  2  0  0  0  0  0  0  0  0  0
    0.6230   -1.2730   -1.8400 O   0  0  0  0  0  0  0  0  0  0  0  0
    1.7060   -1.0090    0.2150 C   0  0  0  0  0  0  0  0  0  0  0  0
    1.8590   -0.2240    1.3630 O   0  0  0  0  0  0  0  0  0  0  0  0
  1  2  1  0
  3  2  1  6
  3  4  1  0
  3  7  1  0
  3 11  1  0
  4  5  2  0
  4  6  1  0
  7  8  1  0
  8  9  1  0
  9 10  1  0
 10 11  1  0
 11 12  1  6
 11 13  1  0
 13 14  1  0
M  END
