
     RDKit          3D

 15 15  0  0  0  0  0  0  0  0999 V2000
    4.5220    0.5030   -0.5830 C   0  0  0  0  0  0  0  0  0  0  0  0
    3.1740    0.5110    0.0660 C   0  0  0  0  0  0  0  0  0  0  0  0
    3.0350    0.8450    1.2850 O   0  0  0  0  0  0  0  0  0  0  0  0
    1.9900    0.1510   -0.6320 N   0  0  0  0  0  0  0  0  0  0  0  0
    0.7010    0.1570   -0.0160 C   0  0  1  0  0  0  0  0  0  0  0  0
   -0.2120    1.1430   -0.7500 C   0  0  2  0  0  0  0  0  0  0  0  0
    0.3920    2.3530   -0.9580 O   0  0  0  0  0  0  0  0  0  0  0  0
   -1.3330    1.2410    0.1070 O   0  0  0  0  0  0  0  0  0  0  0  0
   -2.1470    0.1650   -0.2420 C   0  0  2  0  0  0  0  0  0  0  0  0
   -3.2950    0.0130    0.7570 C   0  0  0  0  0  0  0  0  0  0  0  0
   -4.0170    1.2090    0.7120 O   0  0  0  0  0  0  0  0  0  0  0  0
   -1.4240   -1.0960   -0.4960 C   0  0  2  0  0  0  0  0  0  0  0  0
   -2.1200   -2.1340    0.1680 O   0  0  0  0  0  0  0  0  0  0  0  0
   -0.0070   -1.1720   -0.0900 C   0  0  2  0  0  0  0  0  0  0  0  0
    0.1140   -1.8320    1.1420 O   0  0  0  0  0  0  0  0  0  0  0  0
  1  2  1  0
  2  3  2  0
  2  4  1  0
  5  4  1  6
  5  6  1  0
  5 14  1  0
  6  7  1  1
  6  8  1  0
  8  9  1  0
  9 10  1  1
  9 12  1  0
 10 11  1  0
 12 13  1  1
 12 14  1  0
 14 15  1  1
M  END
