
     RDKit          3D

 14 14  0  0  0  0  0  0  0  0999 V2000
   -2.4570    1.8010   -0.9800 N   0  0  0  0  0  0  0  0  0  0  0  0
   -1.3180    0.9330   -1.1410 C   0  0  2  0  0  0  0  0  0  0  0  0
   -1.6870   -0.2520   -1.7160 O   0  0  0  0  0  0  0  0  0  0  0  0
   -0.4590    0.8170    0.0910 C   0  0  1  0  0  0  0  0  0  0  0  0
   -1.2460    0.4290    1.3030 C   0  0  0  0  0  0  0  0  0  0  0  0
   -1.9690   -0.8660    1.2530 C   0  0  1  0  0  0  0  0  0  0  0  0
   -2.6070   -0.9870    2.5250 O   0  0  0  0  0  0  0  0  0  0  0  0
   -3.0450   -0.8810    0.3560 O   0  0  0  0  0  0  0  0  0  0  0  0
    0.5730   -0.0430   -0.1380 O   0  0  0  0  0  0  0  0  0  0  0  0
    1.8330    0.4240   -0.0910 C   0  0  1  0  0  0  0  0  0  0  0  0
    2.8170   -0.3210    0.7410 C   0  0  0  0  0  0  0  0  0  0  0  0
    3.1130   -1.4930   -0.1620 C   0  0  0  0  0  0  0  0  0  0  0  0
    3.2570   -0.8950   -1.3880 O   0  0  0  0  0  0  0  0  0  0  0  0
    2.4530    0.2090   -1.4620 C   0  0  0  0  0  0  0  0  0  0  0  0
  2  1  1  1
  2  3  1  0
  2  4  1  0
  4  5  1  1
  4  9  1  0
  5  6  1  0
  6  7  1  1
  6  8  1  0
 10  9  1  6
 10 11  1  0
 10 14  1  0
 11 12  1  0
 12 13  1  0
 13 14  1  0
M  END
