
     RDKit          3D

 14 14  0  0  0  0  0  0  0  0999 V2000
   -0.7090   -1.5680    0.1440 C   0  0  0  0  0  0  0  0  0  0  0  0
   -0.9380   -0.1060   -0.1030 C   0  0  2  0  0  0  0  0  0  0  0  0
    0.3900    0.5310   -0.5130 C   0  0  1  0  0  0  0  0  0  0  0  0
    0.2310    1.9540   -0.7440 N   0  0  0  0  0  0  0  0  0  0  0  0
    1.3620    0.3650    0.4360 O   0  0  0  0  0  0  0  0  0  0  0  0
    2.4710   -0.3240    0.0460 C   0  0  2  0  0  0  0  0  0  0  0  0
    2.5600   -1.4780    0.8260 O   0  0  0  0  0  0  0  0  0  0  0  0
    3.7690    0.4220    0.2170 C   0  0  0  0  0  0  0  0  0  0  0  0
    3.9700    0.7560    1.5670 O   0  0  0  0  0  0  0  0  0  0  0  0
   -1.5010    0.5330    1.1430 C   0  0  0  0  0  0  0  0  0  0  0  0
   -2.8700    0.0190    1.3690 C   0  0  0  0  0  0  0  0  0  0  0  0
   -3.6220   -0.2620    0.2970 O   0  0  0  0  0  0  0  0  0  0  0  0
   -3.0940   -0.3080   -0.9280 C   0  0  0  0  0  0  0  0  0  0  0  0
   -1.8190    0.1040   -1.1240 O   0  0  0  0  0  0  0  0  0  0  0  0
  2  1  1  1
  2  3  1  0
  2 10  1  0
  2 14  1  0
  3  4  1  1
  3  5  1  0
  5  6  1  0
  6  7  1  1
  6  8  1  0
  8  9  1  0
 10 11  1  0
 11 12  1  0
 12 13  1  0
 13 14  1  0
M  END
