
     RDKit          3D

 22 22  0  0  0  0  0  0  0  0999 V2000
    1.4160   -3.0370   -0.1150 C   0  0  0  0  0  0  0  0  0  0  0  0
    0.1640   -2.2440    0.2520 C   0  0  0  0  0  0  0  0  0  0  0  0
    0.4840   -0.8000    0.0710 C   0  0  2  0  0  0  0  0  0  0  0  0
    1.5400   -0.2800    0.8400 N   0  0  0  0  0  0  0  0  0  0  0  0
    2.6790    0.4030    0.3470 C   0  0  0  0  0  0  0  0  0  0  0  0
    2.7370    0.5490   -0.9000 O   0  0  0  0  0  0  0  0  0  0  0  0
    3.7550    0.9260    1.2110 C   0  0  0  0  0  0  0  0  0  0  0  0
    4.8480    1.5950    0.4300 C   0  0  0  0  0  0  0  0  0  0  0  0
    5.4960    0.6770   -0.5200 C   0  0  0  0  0  0  0  0  0  0  0  0
    6.5360    1.1320   -1.3660 N   0  0  0  0  0  0  0  0  0  0  0  0
    5.1140   -0.5130   -0.5670 O   0  0  0  0  0  0  0  0  0  0  0  0
   -0.7690    0.0090    0.3920 C   0  0  0  0  0  0  0  0  0  0  0  0
   -0.5920    0.9010    1.2360 O   0  0  0  0  0  0  0  0  0  0  0  0
   -1.9770   -0.2850   -0.2480 N   0  0  0  0  0  0  0  0  0  0  0  0
   -3.1820    0.3920   -0.0460 C   0  0  0  0  0  0  0  0  0  0  0  0
   -3.1410    1.5680    0.5690 C   0  0  0  0  0  0  0  0  0  0  0  0
   -4.3280    2.4010    0.8580 C   0  0  0  0  0  0  0  0  0  0  0  0
   -5.5730    1.8140    0.4020 C   0  0  0  0  0  0  0  0  0  0  0  0
   -5.6700    0.6650   -0.2040 C   0  0  0  0  0  0  0  0  0  0  0  0
   -4.4610   -0.1350   -0.4720 C   0  0  0  0  0  0  0  0  0  0  0  0
   -4.6340   -1.2950   -1.0440 C   0  0  0  0  0  0  0  0  0  0  0  0
   -3.4280   -2.5150   -1.4510 S   0  0  0  0  0  0  0  0  0  0  0  0
  1  2  1  0
  3  2  1  1
  3  4  1  0
  3 12  1  0
  4  5  1  0
  5  6  2  0
  5  7  1  0
  7  8  1  0
  8  9  1  0
  9 10  1  0
  9 11  2  0
 12 13  2  0
 12 14  1  0
 14 15  1  0
 15 16  2  0
 15 20  1  0
 16 17  1  0
 17 18  1  0
 18 19  2  0
 19 20  1  0
 20 21  2  3
 21 22  1  0
M  END
