
     RDKit          3D

 28 29  0  0  0  0  0  0  0  0999 V2000
   -0.5500   -1.6560   -1.0810 N   0  0  0  0  0  0  0  0  0  0  0  0
   -0.9160   -0.4980   -0.3010 C   0  0  0  0  0  0  0  0  0  0  0  0
   -0.0810    0.3600    0.1760 C   0  0  0  0  0  0  0  0  0  0  0  0
    1.3610    0.5110    0.1510 C   0  0  0  0  0  0  0  0  0  0  0  0
    1.9070    1.6260   -0.4310 N   0  0  0  0  0  0  0  0  0  0  0  0
    3.2230    1.8670   -0.4610 C   0  0  0  0  0  0  0  0  0  0  0  0
    3.6720    2.8980   -1.0040 O   0  0  0  0  0  0  0  0  0  0  0  0
    4.0690    0.9620    0.1150 C   0  0  0  0  0  0  0  0  0  0  0  0
    5.8170    1.2650    0.0840 S   0  0  0  0  0  0  0  0  0  0  0  0
    6.4800    0.5130   -1.4320 C   0  0  0  0  0  0  0  0  0  0  0  0
    7.9600    0.7420   -1.5050 C   0  0  2  0  0  0  0  0  0  0  0  0
    8.1910    2.1220   -1.5160 F   0  0  0  0  0  0  0  0  0  0  0  0
    8.4550    0.1250   -2.6130 F   0  0  0  0  0  0  0  0  0  0  0  0
    8.6050    0.2490   -0.3780 F   0  0  0  0  0  0  0  0  0  0  0  0
    3.5820   -0.1700    0.7120 C   0  0  0  0  0  0  0  0  0  0  0  0
    2.1910   -0.3920    0.7260 C   0  0  0  0  0  0  0  0  0  0  0  0
    1.7230   -1.6040    1.4220 C   0  0  0  0  0  0  0  0  0  0  0  0
    2.8450   -2.3190    1.9220 O   0  0  0  0  0  0  0  0  0  0  0  0
   -1.0920    1.6180    1.0260 S   0  0  0  0  0  0  0  0  0  0  0  0
   -2.6500    1.1600    0.1220 C   0  0  0  0  0  0  0  0  0  0  0  0
   -2.3420   -0.2780   -0.0080 C   0  0  0  0  0  0  0  0  0  0  0  0
   -3.2360   -1.2550    0.1290 C   0  0  0  0  0  0  0  0  0  0  0  0
   -4.6220   -1.0050    0.4130 C   0  0  0  0  0  0  0  0  0  0  0  0
   -5.4340   -2.0160    0.5410 O   0  0  0  0  0  0  0  0  0  0  0  0
   -5.2530    0.2040    0.5770 O   0  0  0  0  0  0  0  0  0  0  0  0
   -6.5970    0.4340    0.8490 C   0  0  0  0  0  0  0  0  0  0  0  0
   -7.4350   -0.1300   -0.2740 C   0  0  0  0  0  0  0  0  0  0  0  0
   -7.0670    0.5090   -1.4670 O   0  0  0  0  0  0  0  0  0  0  0  0
  1  2  1  0
  2  3  2  0
  2 21  1  0
  3  4  1  0
  3 19  1  0
  4  5  1  0
  4 16  2  0
  5  6  1  0
  6  7  2  0
  6  8  1  0
  8  9  1  0
  8 15  2  0
  9 10  1  0
 10 11  1  0
 11 12  1  6
 11 13  1  0
 11 14  1  0
 15 16  1  0
 16 17  1  0
 17 18  1  0
 19 20  1  0
 20 21  1  0
 21 22  2  3
 22 23  1  0
 23 24  2  0
 23 25  1  0
 25 26  1  0
 26 27  1  0
 27 28  1  0
M  END
