
     RDKit          3D

 28 28  0  0  0  0  0  0  0  0999 V2000
    5.4260   -1.4940    2.3330 C   0  0  0  0  0  0  0  0  0  0  0  0
    5.4320   -1.5910    0.8600 C   0  0  0  0  0  0  0  0  0  0  0  0
    6.1030   -2.4860    0.3600 O   0  0  0  0  0  0  0  0  0  0  0  0
    4.6570   -0.6470   -0.0040 C   0  0  0  0  0  0  0  0  0  0  0  0
    3.0030   -1.3460   -0.2660 S   0  0  0  0  0  0  0  0  0  0  0  0
    1.9620   -0.3840   -1.2470 C   0  0  0  0  0  0  0  0  0  0  0  0
    0.6690    0.0070   -1.0290 C   0  0  0  0  0  0  0  0  0  0  0  0
    0.2470    0.8060   -2.1780 C   0  0  0  0  0  0  0  0  0  0  0  0
    1.0500    0.7230   -3.2310 O   0  0  0  0  0  0  0  0  0  0  0  0
   -0.8040    1.6690   -2.4200 N   0  0  0  0  0  0  0  0  0  0  0  0
   -1.0510    2.2650   -3.7180 C   0  0  0  0  0  0  0  0  0  0  0  0
   -2.1520    3.1400   -3.8950 N   0  0  0  0  0  0  0  0  0  0  0  0
   -0.2930    2.0110   -4.6880 O   0  0  0  0  0  0  0  0  0  0  0  0
    0.0980   -0.1430    0.2540 C   0  0  0  0  0  0  0  0  0  0  0  0
   -1.1880   -0.0990    0.6700 C   0  0  0  0  0  0  0  0  0  0  0  0
   -2.2000    0.0900   -0.3420 C   0  0  0  0  0  0  0  0  0  0  0  0
   -3.4530    0.3050   -0.3660 C   0  0  0  0  0  0  0  0  0  0  0  0
   -4.0890    0.4210   -1.7650 C   0  0  0  0  0  0  0  0  0  0  0  0
   -4.3920    0.5330    0.7220 C   0  0  2  0  0  0  0  0  0  0  0  0
   -5.4610    1.3850    0.2270 F   0  0  0  0  0  0  0  0  0  0  0  0
   -3.8890    1.3770    1.7340 F   0  0  0  0  0  0  0  0  0  0  0  0
   -5.0710   -0.5410    1.2000 F   0  0  0  0  0  0  0  0  0  0  0  0
   -1.5830   -0.3280    2.0880 C   0  0  0  0  0  0  0  0  0  0  0  0
   -0.9740   -1.5580    2.7450 C   0  0  0  0  0  0  0  0  0  0  0  0
    0.7840   -1.6060    2.4280 S   0  0  2  0  0  0  0  0  0  0  0  0
    1.1120   -2.8990    1.7750 O   0  0  0  0  0  0  0  0  0  0  0  0
    1.5600   -1.4290    3.7040 O   0  0  0  0  0  0  0  0  0  0  0  0
    1.0680   -0.1930    1.4290 C   0  0  0  0  0  0  0  0  0  0  0  0
  1  2  1  0
  2  3  2  0
  2  4  1  0
  4  5  1  0
  5  6  1  0
  6  7  2  3
  7  8  1  0
  7 14  1  0
  8  9  2  0
  8 10  1  0
 10 11  1  0
 11 12  1  0
 11 13  2  0
 14 15  2  0
 14 28  1  0
 15 16  1  0
 15 23  1  0
 16 17  2  3
 17 18  1  0
 17 19  1  0
 19 20  1  6
 19 21  1  0
 19 22  1  0
 23 24  1  0
 25 24  1  1
 25 26  2  0
 25 27  2  0
 25 28  1  0
M  END
