
     RDKit          3D

 23 26  0  0  0  0  0  0  0  0999 V2000
   -1.3930    4.2440    1.6890 C   0  0  0  0  0  0  0  0  0  0  0  0
   -1.7260    3.0230    1.1780 C   0  0  0  0  0  0  0  0  0  0  0  0
   -0.6770    2.2090    0.7070 C   0  0  0  0  0  0  0  0  0  0  0  0
   -0.5330    1.0380    0.1580 C   0  0  0  0  0  0  0  0  0  0  0  0
   -1.5690    0.0990   -0.1860 C   0  0  0  0  0  0  0  0  0  0  0  0
   -2.8330    0.4280   -0.1550 C   0  0  0  0  0  0  0  0  0  0  0  0
   -3.8660   -0.5370   -0.4920 C   0  0  0  0  0  0  0  0  0  0  0  0
   -4.9040   -0.2720   -1.4020 C   0  0  0  0  0  0  0  0  0  0  0  0
   -5.7360   -1.3530   -1.4670 C   0  0  0  0  0  0  0  0  0  0  0  0
   -5.2020   -2.2910   -0.5870 C   0  0  0  0  0  0  0  0  0  0  0  0
   -4.1140   -1.7760   -0.0390 N   0  0  0  0  0  0  0  0  0  0  0  0
   -1.2140   -1.2110   -0.6990 N   0  0  0  0  0  0  0  0  0  0  0  0
    0.1390   -1.5930   -0.8740 C   0  0  0  0  0  0  0  0  0  0  0  0
    0.3470   -2.7480   -1.3230 O   0  0  0  0  0  0  0  0  0  0  0  0
    1.2030   -0.7140   -0.5580 N   0  0  0  0  0  0  0  0  0  0  0  0
    2.5590   -1.1700   -0.7620 C   0  0  0  0  0  0  0  0  0  0  0  0
    3.5420   -0.1500   -0.3920 C   0  0  0  0  0  0  0  0  0  0  0  0
    5.0110   -0.3420   -0.4940 C   0  0  2  0  0  0  0  0  0  0  0  0
    5.7310   -1.3850    0.2360 C   0  0  0  0  0  0  0  0  0  0  0  0
    5.7550    0.0540    0.8130 C   0  0  0  0  0  0  0  0  0  0  0  0
    3.1620    0.9970    0.0580 N   0  0  0  0  0  0  0  0  0  0  0  0
    1.8230    1.3490    0.2230 N   0  0  0  0  0  0  0  0  0  0  0  0
    0.8590    0.5490   -0.0620 C   0  0  0  0  0  0  0  0  0  0  0  0
  1  2  2  0
  2  3  1  0
  3  4  2  3
  4  5  1  0
  4 23  1  0
  5  6  2  3
  5 12  1  0
  6  7  1  0
  7  8  2  0
  7 11  1  0
  8  9  1  0
  9 10  2  0
 10 11  1  0
 12 13  1  0
 13 14  2  0
 13 15  1  0
 15 16  1  0
 15 23  1  0
 16 17  1  0
 18 17  1  1
 17 21  2  0
 18 19  1  0
 18 20  1  0
 19 20  1  0
 21 22  1  0
 22 23  2  0
M  END
