
     RDKit          3D

 28 29  0  0  0  0  0  0  0  0999 V2000
    8.4540    0.7410   -0.7020 C   0  0  0  0  0  0  0  0  0  0  0  0
    7.2630   -0.0810   -0.3950 C   0  0  0  0  0  0  0  0  0  0  0  0
    7.1080   -1.3580    0.0390 C   0  0  0  0  0  0  0  0  0  0  0  0
    5.8570   -1.8170    0.2610 C   0  0  0  0  0  0  0  0  0  0  0  0
    4.8290   -0.9790    0.0440 C   0  0  0  0  0  0  0  0  0  0  0  0
    3.3420   -1.1380    0.1070 C   0  0  2  0  0  0  0  0  0  0  0  0
    2.7460   -0.3350   -0.8350 O   0  0  0  0  0  0  0  0  0  0  0  0
    2.9510   -0.7490    1.5280 C   0  0  0  0  0  0  0  0  0  0  0  0
    1.5320   -0.6510    1.6510 N   0  0  0  0  0  0  0  0  0  0  0  0
    0.8390    0.4520    1.0280 C   0  0  0  0  0  0  0  0  0  0  0  0
    1.4640    1.4000    0.5340 O   0  0  0  0  0  0  0  0  0  0  0  0
   -0.5690    0.4600    0.9660 N   0  0  0  0  0  0  0  0  0  0  0  0
   -1.3420    1.5700    0.4180 C   0  0  0  0  0  0  0  0  0  0  0  0
   -2.7040    1.1280    0.2600 C   0  0  0  0  0  0  0  0  0  0  0  0
   -2.8100   -0.0740   -0.2380 O   0  0  0  0  0  0  0  0  0  0  0  0
   -3.8810    1.7690    0.5480 O   0  0  0  0  0  0  0  0  0  0  0  0
   -5.0020    0.8670    0.1810 C   0  0  0  0  0  0  0  0  0  0  0  0
   -5.1990   -0.3110    0.7800 C   0  0  0  0  0  0  0  0  0  0  0  0
   -6.2040   -1.1070    0.4030 C   0  0  0  0  0  0  0  0  0  0  0  0
   -6.6940   -2.3800    0.8560 C   0  0  2  0  0  0  0  0  0  0  0  0
   -5.6260   -3.3010    0.8630 F   0  0  0  0  0  0  0  0  0  0  0  0
   -7.5960   -2.9270   -0.0680 F   0  0  0  0  0  0  0  0  0  0  0  0
   -7.3010   -2.3870    2.0710 F   0  0  0  0  0  0  0  0  0  0  0  0
   -6.9510   -0.0990   -0.9360 S   0  0  0  0  0  0  0  0  0  0  0  0
   -5.8330    1.2440   -0.8090 C   0  0  0  0  0  0  0  0  0  0  0  0
   -5.9710    2.5180   -1.5650 C   0  0  0  0  0  0  0  0  0  0  0  0
   -6.8190    2.4500   -2.6380 O   0  0  0  0  0  0  0  0  0  0  0  0
    5.5870    0.5270   -0.4930 S   0  0  0  0  0  0  0  0  0  0  0  0
  1  2  1  0
  2  3  2  0
  2 28  1  0
  3  4  1  0
  4  5  2  0
  5  6  1  0
  5 28  1  0
  6  7  1  6
  6  8  1  0
  8  9  1  0
  9 10  1  0
 10 11  2  0
 10 12  1  0
 12 13  1  0
 13 14  1  0
 14 15  2  0
 14 16  1  0
 16 17  1  0
 17 18  1  0
 17 25  2  0
 18 19  2  0
 19 20  1  0
 19 24  1  0
 20 21  1  1
 20 22  1  0
 20 23  1  0
 24 25  1  0
 25 26  1  0
 26 27  1  0
M  END
