
     RDKit          3D

 39 41  0  0  0  0  0  0  0  0999 V2000
   -4.2180   -3.1890   -0.7080 C   0  0  0  0  0  0  0  0  0  0  0  0
   -3.9590   -2.1740   -1.7980 C   0  0  1  0  0  0  0  0  0  0  0  0
   -5.0280   -2.2010   -2.8470 C   0  0  0  0  0  0  0  0  0  0  0  0
   -3.8930   -0.7920   -1.1870 C   0  0  2  0  0  0  0  0  0  0  0  0
   -2.8490   -0.6950   -0.2180 N   0  0  0  0  0  0  0  0  0  0  0  0
   -1.7600    0.2070   -0.3200 C   0  0  0  0  0  0  0  0  0  0  0  0
   -1.7490    0.9720   -1.3380 O   0  0  0  0  0  0  0  0  0  0  0  0
   -0.6600    0.2950    0.6750 C   0  0  2  0  0  0  0  0  0  0  0  0
   -1.0780    0.9920    1.8910 C   0  0  0  0  0  0  0  0  0  0  0  0
   -2.2390    0.3290    2.5740 C   0  0  0  0  0  0  0  0  0  0  0  0
   -3.5400    0.7860    2.3920 C   0  0  0  0  0  0  0  0  0  0  0  0
   -4.5980    0.1540    3.0160 C   0  0  0  0  0  0  0  0  0  0  0  0
   -4.3970   -0.9340    3.8300 C   0  0  0  0  0  0  0  0  0  0  0  0
   -3.1290   -1.3910    4.0180 C   0  0  0  0  0  0  0  0  0  0  0  0
   -2.0690   -0.7620    3.3950 C   0  0  0  0  0  0  0  0  0  0  0  0
    0.5410    0.7600   -0.0630 C   0  0  0  0  0  0  0  0  0  0  0  0
    1.8040    0.9600    0.6850 C   0  0  2  0  0  0  0  0  0  0  0  0
    1.6630    1.9480    1.6280 O   0  0  0  0  0  0  0  0  0  0  0  0
    3.0300    1.1080   -0.1230 C   0  0  2  0  0  0  0  0  0  0  0  0
    3.1740    2.3800   -0.8480 C   0  0  0  0  0  0  0  0  0  0  0  0
    3.2230    3.6330   -0.1070 C   0  0  0  0  0  0  0  0  0  0  0  0
    4.3690    4.1130    0.4920 C   0  0  0  0  0  0  0  0  0  0  0  0
    4.3640    5.3190    1.1250 C   0  0  0  0  0  0  0  0  0  0  0  0
    3.2150    6.0760    1.1780 C   0  0  0  0  0  0  0  0  0  0  0  0
    2.0470    5.6450    0.5980 C   0  0  0  0  0  0  0  0  0  0  0  0
    2.0950    4.4210   -0.0320 C   0  0  0  0  0  0  0  0  0  0  0  0
    3.1790    0.0190   -1.0920 N   0  0  0  0  0  0  0  0  0  0  0  0
    4.2300   -0.9140   -1.0020 C   0  0  0  0  0  0  0  0  0  0  0  0
    5.0520   -0.7890   -0.0560 O   0  0  0  0  0  0  0  0  0  0  0  0
    4.4130   -1.9590   -1.8930 O   0  0  0  0  0  0  0  0  0  0  0  0
    5.5040   -2.8320   -1.7020 C   0  0  2  0  0  0  0  0  0  0  0  0
    6.8360   -2.1080   -1.7530 C   0  0  0  0  0  0  0  0  0  0  0  0
    5.5430   -3.9300   -2.7280 C   0  0  0  0  0  0  0  0  0  0  0  0
    5.3650   -3.4920   -0.3340 C   0  0  0  0  0  0  0  0  0  0  0  0
   -5.2380   -0.3650   -0.7360 C   0  0  0  0  0  0  0  0  0  0  0  0
   -6.3520   -1.1550   -0.7840 N   0  0  0  0  0  0  0  0  0  0  0  0
   -7.4000   -0.4640   -0.3290 C   0  0  0  0  0  0  0  0  0  0  0  0
   -6.9800    0.7900    0.0220 C   0  0  0  0  0  0  0  0  0  0  0  0
   -5.6570    0.8010   -0.2450 N   0  0  0  0  0  0  0  0  0  0  0  0
  2  1  1  1
  2  3  1  0
  2  4  1  0
  4  5  1  1
  4 35  1  0
  5  6  1  0
  6  7  2  0
  6  8  1  0
  8  9  1  1
  8 16  1  0
  9 10  1  0
 10 11  2  0
 10 15  1  0
 11 12  1  0
 12 13  2  0
 13 14  1  0
 14 15  2  0
 16 17  1  0
 17 18  1  6
 17 19  1  0
 19 20  1  6
 19 27  1  0
 20 21  1  0
 21 22  2  0
 21 26  1  0
 22 23  1  0
 23 24  2  0
 24 25  1  0
 25 26  2  0
 27 28  1  0
 28 29  2  0
 28 30  1  0
 30 31  1  0
 31 32  1  1
 31 33  1  0
 31 34  1  0
 35 36  2  0
 35 39  1  0
 36 37  1  0
 37 38  2  0
 38 39  1  0
M  END
