
     RDKit          3D

 39 42  0  0  0  0  0  0  0  0999 V2000
    0.4330   -3.7930    0.2900 C   0  0  0  0  0  0  0  0  0  0  0  0
    0.9130   -3.4200    1.6650 C   0  0  0  0  0  0  0  0  0  0  0  0
    1.9950   -2.5400    1.6640 O   0  0  0  0  0  0  0  0  0  0  0  0
    2.0190   -1.2700    1.1200 C   0  0  0  0  0  0  0  0  0  0  0  0
    0.8910   -0.7250    0.4870 C   0  0  0  0  0  0  0  0  0  0  0  0
    0.9400    0.5400   -0.0450 C   0  0  0  0  0  0  0  0  0  0  0  0
   -0.0960    1.1640   -0.6790 O   0  0  0  0  0  0  0  0  0  0  0  0
   -1.3950    0.6750   -0.9280 C   0  0  1  0  0  0  0  0  0  0  0  0
   -1.3460   -0.5050   -1.8110 C   0  0  0  0  0  0  0  0  0  0  0  0
   -2.3270   -1.5850   -1.5630 C   0  0  0  0  0  0  0  0  0  0  0  0
   -3.0180   -1.5470   -0.2500 C   0  0  0  0  0  0  0  0  0  0  0  0
   -3.4170   -0.1530    0.2060 C   0  0  2  0  0  0  0  0  0  0  0  0
   -3.9960   -0.2730    1.5100 N   0  0  0  0  0  0  0  0  0  0  0  0
   -4.7110   -1.4920    1.7200 C   0  0  1  0  0  0  0  0  0  0  0  0
   -5.7530   -1.5450    2.8270 C   0  0  0  0  0  0  0  0  0  0  0  0
   -6.0940   -1.7580    1.3370 C   0  0  0  0  0  0  0  0  0  0  0  0
   -4.2690    0.5210   -0.7490 C   0  0  0  0  0  0  0  0  0  0  0  0
   -3.9480    0.6040   -1.9890 O   0  0  0  0  0  0  0  0  0  0  0  0
   -5.4980    1.1260   -0.3830 N   0  0  0  0  0  0  0  0  0  0  0  0
   -6.2960    1.7870   -1.4170 C   0  0  2  0  0  0  0  0  0  0  0  0
   -6.6730    0.7850   -2.4880 C   0  0  0  0  0  0  0  0  0  0  0  0
   -5.4730    2.9160   -1.9690 C   0  0  0  0  0  0  0  0  0  0  0  0
   -7.5380    2.3610   -0.7970 C   0  0  0  0  0  0  0  0  0  0  0  0
   -2.1040    0.5990    0.3570 C   0  0  0  0  0  0  0  0  0  0  0  0
    2.1220    1.2790    0.0510 C   0  0  0  0  0  0  0  0  0  0  0  0
    3.2320    0.7080    0.6890 C   0  0  0  0  0  0  0  0  0  0  0  0
    3.1930   -0.5470    1.2190 C   0  0  0  0  0  0  0  0  0  0  0  0
    4.3330   -1.1340    1.9300 C   0  0  0  0  0  0  0  0  0  0  0  0
    5.4410   -0.3320    1.8720 O   0  0  0  0  0  0  0  0  0  0  0  0
    6.1960    0.0410    0.8090 C   0  0  0  0  0  0  0  0  0  0  0  0
    5.8720   -0.4490   -0.4400 C   0  0  0  0  0  0  0  0  0  0  0  0
    6.5810   -0.1250   -1.5780 C   0  0  0  0  0  0  0  0  0  0  0  0
    7.6670    0.7230   -1.5000 C   0  0  0  0  0  0  0  0  0  0  0  0
    8.3860    1.0500   -2.6550 O   0  0  0  0  0  0  0  0  0  0  0  0
    9.5040    1.9340   -2.5190 C   0  0  0  0  0  0  0  0  0  0  0  0
    7.9920    1.2130   -0.2530 C   0  0  0  0  0  0  0  0  0  0  0  0
    7.2820    0.8880    0.8850 C   0  0  0  0  0  0  0  0  0  0  0  0
    7.6240    1.3880    2.1110 O   0  0  0  0  0  0  0  0  0  0  0  0
    8.7360    2.2590    2.2110 C   0  0  0  0  0  0  0  0  0  0  0  0
  1  2  1  0
  2  3  1  0
  3  4  1  0
  4  5  2  0
  4 27  1  0
  5  6  1  0
  6  7  1  0
  6 25  2  0
  8  7  1  1
  8  9  1  0
  8 24  1  0
  9 10  1  0
 10 11  1  0
 11 12  1  0
 12 13  1  1
 12 17  1  0
 12 24  1  0
 14 13  1  6
 14 15  1  0
 14 16  1  0
 15 16  1  0
 17 18  2  0
 17 19  1  0
 19 20  1  0
 20 21  1  6
 20 22  1  0
 20 23  1  0
 25 26  1  0
 26 27  2  0
 27 28  1  0
 28 29  1  0
 29 30  1  0
 30 31  2  0
 30 37  1  0
 31 32  1  0
 32 33  2  0
 33 34  1  0
 33 36  1  0
 34 35  1  0
 36 37  2  0
 37 38  1  0
 38 39  1  0
M  CHG  1  13   1
M  END
