
     RDKit          3D

 39 42  0  0  0  0  0  0  0  0999 V2000
    1.2060   -4.9110   -3.3810 O   0  0  0  0  0  0  0  0  0  0  0  0
    0.7880   -4.6790   -4.5210 C   0  0  0  0  0  0  0  0  0  0  0  0
    0.1170   -3.4990   -4.9180 N   0  0  0  0  0  0  0  0  0  0  0  0
   -0.1480   -2.4370   -4.0210 C   0  0  0  0  0  0  0  0  0  0  0  0
    0.1670   -2.3940   -2.7600 C   0  0  0  0  0  0  0  0  0  0  0  0
   -0.2020   -1.1960   -2.0110 N   0  0  0  0  0  0  0  0  0  0  0  0
   -1.4000   -0.8210   -2.0690 C   0  0  0  0  0  0  0  0  0  0  0  0
   -2.0500    0.2780   -1.4610 C   0  0  0  0  0  0  0  0  0  0  0  0
   -1.5790    1.1490   -0.6450 C   0  0  0  0  0  0  0  0  0  0  0  0
   -0.2450    1.2350   -0.1100 C   0  0  0  0  0  0  0  0  0  0  0  0
    0.5470    2.3150   -0.4380 C   0  0  0  0  0  0  0  0  0  0  0  0
    1.7790    2.4190    0.1520 C   0  0  0  0  0  0  0  0  0  0  0  0
    2.2480    1.4690    1.0680 C   0  0  0  0  0  0  0  0  0  0  0  0
    1.4680    0.3830    1.4070 C   0  0  0  0  0  0  0  0  0  0  0  0
    1.9510   -0.6190    2.3610 C   0  0  0  0  0  0  0  0  0  0  0  0
    1.2690   -1.6150    2.6880 O   0  0  0  0  0  0  0  0  0  0  0  0
    3.1880   -0.4670    2.9160 O   0  0  0  0  0  0  0  0  0  0  0  0
    3.7740   -1.3540    3.8410 C   0  0  0  0  0  0  0  0  0  0  0  0
    5.1440   -0.9200    4.2800 C   0  0  0  0  0  0  0  0  0  0  0  0
    6.0660   -0.8080    3.2620 O   0  0  0  0  0  0  0  0  0  0  0  0
    6.3080   -1.9630    2.5570 C   0  0  2  0  0  0  0  0  0  0  0  0
    7.7610   -2.3910    2.6270 C   0  0  0  0  0  0  0  0  0  0  0  0
    8.4110   -1.8940    1.3670 C   0  0  0  0  0  0  0  0  0  0  0  0
    7.3120   -1.5350    0.3940 C   0  0  0  0  0  0  0  0  0  0  0  0
    5.9980   -1.8240    1.0820 C   0  0  0  0  0  0  0  0  0  0  0  0
    0.2340    0.2900    0.8080 C   0  0  0  0  0  0  0  0  0  0  0  0
   -3.4950    0.4530   -1.8200 C   0  0  0  0  0  0  0  0  0  0  0  0
   -4.0830   -0.3280   -2.6040 O   0  0  0  0  0  0  0  0  0  0  0  0
   -4.1840    1.4870   -1.2810 O   0  0  0  0  0  0  0  0  0  0  0  0
   -5.5460    1.7710   -1.5300 C   0  0  2  0  0  0  0  0  0  0  0  0
   -5.7550    3.0630   -2.2390 C   0  0  0  0  0  0  0  0  0  0  0  0
   -5.4330    4.2170   -1.3280 C   0  0  0  0  0  0  0  0  0  0  0  0
   -5.2020    3.8230    0.1100 C   0  0  0  0  0  0  0  0  0  0  0  0
   -6.1970    2.8150    0.5530 C   0  0  0  0  0  0  0  0  0  0  0  0
   -6.9230    2.8700    1.7070 C   0  0  0  0  0  0  0  0  0  0  0  0
   -7.8190    1.8670    2.0000 C   0  0  0  0  0  0  0  0  0  0  0  0
   -7.9810    0.8120    1.1330 C   0  0  0  0  0  0  0  0  0  0  0  0
   -7.2620    0.7240   -0.0440 C   0  0  0  0  0  0  0  0  0  0  0  0
   -6.3760    1.7480   -0.3020 C   0  0  0  0  0  0  0  0  0  0  0  0
  1  2  2  0
  2  3  1  0
  3  4  1  0
  4  5  2  3
  5  6  1  0
  6  7  2  3
  7  8  1  0
  8  9  2  3
  8 27  1  0
  9 10  1  0
 10 11  2  0
 10 26  1  0
 11 12  1  0
 12 13  2  0
 13 14  1  0
 14 15  1  0
 14 26  2  0
 15 16  2  0
 15 17  1  0
 17 18  1  0
 18 19  1  0
 19 20  1  0
 21 20  1  1
 21 22  1  0
 21 25  1  0
 22 23  1  0
 23 24  1  0
 24 25  1  0
 27 28  2  0
 27 29  1  0
 30 29  1  1
 30 31  1  0
 30 39  1  0
 31 32  1  0
 32 33  1  0
 33 34  1  0
 34 35  2  0
 34 39  1  0
 35 36  1  0
 36 37  2  0
 37 38  1  0
 38 39  2  0
M  CHG  1   6   1
M  END
