
     RDKit          3D

 39 42  0  0  0  0  0  0  0  0999 V2000
   -8.5440    2.2770    0.3890 C   0  0  0  0  0  0  0  0  0  0  0  0
   -7.9580    2.6840   -0.7130 C   0  0  0  0  0  0  0  0  0  0  0  0
   -6.6040    2.1160   -1.1040 C   0  0  0  0  0  0  0  0  0  0  0  0
   -6.2430    1.2210   -0.1430 O   0  0  0  0  0  0  0  0  0  0  0  0
   -5.2100    0.4090    0.1060 C   0  0  0  0  0  0  0  0  0  0  0  0
   -4.1380    0.7350    0.8930 C   0  0  0  0  0  0  0  0  0  0  0  0
   -4.0290    2.0630    1.5340 C   0  0  0  0  0  0  0  0  0  0  0  0
   -3.4690    3.1420    0.6740 C   0  0  0  0  0  0  0  0  0  0  0  0
   -2.1160    2.8000    0.2680 N   0  0  0  0  0  0  0  0  0  0  0  0
   -1.1050    2.6560    1.2330 C   0  0  0  0  0  0  0  0  0  0  0  0
   -1.3550    2.8250    2.4420 O   0  0  0  0  0  0  0  0  0  0  0  0
    0.2470    2.3090    0.8250 C   0  0  0  0  0  0  0  0  0  0  0  0
    1.3110    3.1370    1.1440 C   0  0  0  0  0  0  0  0  0  0  0  0
    2.5930    2.8040    0.7720 C   0  0  0  0  0  0  0  0  0  0  0  0
    2.8690    1.6510    0.0740 C   0  0  0  0  0  0  0  0  0  0  0  0
    1.8290    0.8150   -0.2530 C   0  0  0  0  0  0  0  0  0  0  0  0
    2.0400   -0.4410   -0.9880 C   0  0  0  0  0  0  0  0  0  0  0  0
    3.4100   -0.8060   -1.1500 N   0  0  0  0  0  0  0  0  0  0  0  0
    4.0500   -1.3010    0.0500 C   0  0  1  0  0  0  0  0  0  0  0  0
    3.5930   -2.7240    0.2960 C   0  0  0  0  0  0  0  0  0  0  0  0
    4.3270   -3.7550   -0.4880 C   0  0  0  0  0  0  0  0  0  0  0  0
    5.4530   -3.3120   -1.1890 O   0  0  0  0  0  0  0  0  0  0  0  0
    6.2320   -2.2800   -0.6870 C   0  0  0  0  0  0  0  0  0  0  0  0
    7.6050   -2.2480   -0.7910 C   0  0  0  0  0  0  0  0  0  0  0  0
    8.3170   -1.1710   -0.2560 C   0  0  0  0  0  0  0  0  0  0  0  0
    7.6550   -0.1380    0.3740 C   0  0  0  0  0  0  0  0  0  0  0  0
    8.3210    0.9510    0.9190 O   0  0  0  0  0  0  0  0  0  0  0  0
    9.6970    1.1570    0.9080 C   0  0  0  0  0  0  0  0  0  0  0  0
    6.2610   -0.2030    0.4620 C   0  0  0  0  0  0  0  0  0  0  0  0
    5.5390   -1.2410   -0.0500 C   0  0  0  0  0  0  0  0  0  0  0  0
    0.5520    1.1650    0.1280 C   0  0  0  0  0  0  0  0  0  0  0  0
   -3.1190   -0.2130    1.0740 C   0  0  0  0  0  0  0  0  0  0  0  0
   -3.1440   -1.4580    0.5000 C   0  0  0  0  0  0  0  0  0  0  0  0
   -4.2330   -1.7590   -0.2860 C   0  0  0  0  0  0  0  0  0  0  0  0
   -4.2990   -3.0060   -0.8870 O   0  0  0  0  0  0  0  0  0  0  0  0
   -3.3580   -4.0250   -0.7840 C   0  0  0  0  0  0  0  0  0  0  0  0
   -5.2560   -0.8630   -0.4940 C   0  0  0  0  0  0  0  0  0  0  0  0
   -6.3520   -1.1630   -1.2810 O   0  0  0  0  0  0  0  0  0  0  0  0
   -7.4790   -1.7600   -0.6280 C   0  0  0  0  0  0  0  0  0  0  0  0
  1  2  2  0
  2  3  1  0
  3  4  1  0
  4  5  1  0
  5  6  2  0
  5 37  1  0
  6  7  1  0
  6 32  1  0
  7  8  1  0
  8  9  1  0
  9 10  1  0
 10 11  2  0
 10 12  1  0
 12 13  2  0
 12 31  1  0
 13 14  1  0
 14 15  2  0
 15 16  1  0
 16 17  1  0
 16 31  2  0
 17 18  1  0
 19 18  1  6
 19 20  1  0
 19 30  1  0
 20 21  1  0
 21 22  1  0
 22 23  1  0
 23 24  2  0
 23 30  1  0
 24 25  1  0
 25 26  2  0
 26 27  1  0
 26 29  1  0
 27 28  1  0
 29 30  2  0
 32 33  2  0
 33 34  1  0
 34 35  1  0
 34 37  2  0
 35 36  1  0
 37 38  1  0
 38 39  1  0
M  CHG  1  18   1
M  END
