
     RDKit          3D

 39 42  0  0  0  0  0  0  0  0999 V2000
   -9.6930    2.3610    1.5810 C   0  0  0  0  0  0  0  0  0  0  0  0
   -8.6990    1.9080    0.6990 O   0  0  0  0  0  0  0  0  0  0  0  0
   -7.9990    0.7280    0.8230 C   0  0  0  0  0  0  0  0  0  0  0  0
   -8.2700   -0.1000    1.8850 C   0  0  0  0  0  0  0  0  0  0  0  0
   -7.5870   -1.2870    2.0370 C   0  0  0  0  0  0  0  0  0  0  0  0
   -7.8890   -2.1820    3.2000 C   0  0  0  0  0  0  0  0  0  0  0  0
   -7.1350   -3.3390    3.1550 O   0  0  0  0  0  0  0  0  0  0  0  0
   -6.6340   -1.6390    1.1240 C   0  0  0  0  0  0  0  0  0  0  0  0
   -6.3340   -0.8380    0.0480 C   0  0  0  0  0  0  0  0  0  0  0  0
   -5.3640   -1.2490   -0.8390 O   0  0  0  0  0  0  0  0  0  0  0  0
   -4.1970   -0.5440   -1.0890 C   0  0  0  0  0  0  0  0  0  0  0  0
   -3.8690    0.5950   -0.3900 C   0  0  0  0  0  0  0  0  0  0  0  0
   -2.7020    1.2770   -0.6630 C   0  0  0  0  0  0  0  0  0  0  0  0
   -1.8080    0.8510   -1.6490 C   0  0  0  0  0  0  0  0  0  0  0  0
   -0.5650    1.5970   -1.9370 C   0  0  0  0  0  0  0  0  0  0  0  0
    0.6170    1.1750   -1.1410 C   0  0  0  0  0  0  0  0  0  0  0  0
    1.0200   -0.2120   -1.3220 N   0  0  1  0  0  0  0  0  0  0  0  0
    1.5910   -0.4670   -2.5840 C   0  0  0  0  0  0  0  0  0  0  0  0
    2.4840   -1.6890   -2.5630 C   0  0  0  0  0  0  0  0  0  0  0  0
    3.6610   -1.2770   -1.7730 C   0  0  0  0  0  0  0  0  0  0  0  0
    3.3230   -0.6540   -0.5630 C   0  0  0  0  0  0  0  0  0  0  0  0
    4.3390   -0.2110    0.2500 C   0  0  0  0  0  0  0  0  0  0  0  0
    5.6960   -0.3580   -0.0840 C   0  0  0  0  0  0  0  0  0  0  0  0
    6.7260    0.1320    0.8330 C   0  0  0  0  0  0  0  0  0  0  0  0
    6.3050    0.6910    2.1580 C   0  0  0  0  0  0  0  0  0  0  0  0
    7.9860    0.0620    0.4940 C   0  0  0  0  0  0  0  0  0  0  0  0
    9.1280    0.5250    1.3310 C   0  0  1  0  0  0  0  0  0  0  0  0
    9.0430    1.9710    1.7120 C   0  0  0  0  0  0  0  0  0  0  0  0
    9.1970   -0.2580    2.4590 O   0  0  0  0  0  0  0  0  0  0  0  0
   10.4090   -0.9560    2.5270 C   0  0  0  0  0  0  0  0  0  0  0  0
    5.9590   -0.9600   -1.2510 N   0  0  0  0  0  0  0  0  0  0  0  0
    4.9690   -1.4150   -2.0880 C   0  0  0  0  0  0  0  0  0  0  0  0
    5.2580   -1.9740   -3.1730 O   0  0  0  0  0  0  0  0  0  0  0  0
    1.9020   -0.5110   -0.2280 C   0  0  0  0  0  0  0  0  0  0  0  0
   -2.1400   -0.2810   -2.3390 C   0  0  0  0  0  0  0  0  0  0  0  0
   -3.3040   -0.9570   -2.0630 C   0  0  0  0  0  0  0  0  0  0  0  0
   -7.0280    0.3450   -0.0880 C   0  0  0  0  0  0  0  0  0  0  0  0
   -6.7800    1.2000   -1.1460 O   0  0  0  0  0  0  0  0  0  0  0  0
   -7.5130    1.0530   -2.3460 C   0  0  0  0  0  0  0  0  0  0  0  0
  1  2  1  0
  2  3  1  0
  3  4  2  0
  3 37  1  0
  4  5  1  0
  5  6  1  0
  5  8  2  0
  6  7  1  0
  8  9  1  0
  9 10  1  0
  9 37  2  0
 10 11  1  0
 11 12  2  0
 11 36  1  0
 12 13  1  0
 13 14  2  0
 14 15  1  0
 14 35  1  0
 15 16  1  0
 17 16  1  6
 17 18  1  0
 17 34  1  0
 18 19  1  0
 19 20  1  0
 20 21  2  0
 20 32  1  0
 21 22  1  0
 21 34  1  0
 22 23  2  0
 23 24  1  0
 23 31  1  0
 24 25  1  0
 24 26  2  3
 26 27  1  0
 27 28  1  1
 27 29  1  0
 29 30  1  0
 31 32  1  0
 32 33  2  0
 35 36  2  0
 37 38  1  0
 38 39  1  0
M  CHG  1  17   1
M  END
