
     RDKit          3D

 39 42  0  0  0  0  0  0  0  0999 V2000
    0.3130    6.0380   -3.8040 C   0  0  0  0  0  0  0  0  0  0  0  0
    0.4610    6.3580   -2.3500 C   0  0  0  0  0  0  0  0  0  0  0  0
    0.5850    5.2290   -1.5240 O   0  0  0  0  0  0  0  0  0  0  0  0
   -0.3300    4.2240   -1.3870 C   0  0  0  0  0  0  0  0  0  0  0  0
   -1.3910    4.2870   -2.0450 O   0  0  0  0  0  0  0  0  0  0  0  0
   -0.1440    3.0690   -0.5100 C   0  0  0  0  0  0  0  0  0  0  0  0
    1.0090    2.9690    0.2260 C   0  0  0  0  0  0  0  0  0  0  0  0
    1.2160    1.9010    1.0550 C   0  0  0  0  0  0  0  0  0  0  0  0
    0.2670    0.9200    1.1550 C   0  0  0  0  0  0  0  0  0  0  0  0
    0.4540   -0.1760    1.9900 O   0  0  0  0  0  0  0  0  0  0  0  0
    1.5720   -0.4150    2.7830 C   0  0  0  0  0  0  0  0  0  0  0  0
    2.7910   -0.5400    1.9130 C   0  0  0  0  0  0  0  0  0  0  0  0
    2.7040   -0.7370    0.5430 C   0  0  0  0  0  0  0  0  0  0  0  0
    3.8000   -0.8520   -0.2780 C   0  0  0  0  0  0  0  0  0  0  0  0
    5.0570   -0.7700    0.2720 C   0  0  0  0  0  0  0  0  0  0  0  0
    5.1840   -0.5750    1.6250 C   0  0  0  0  0  0  0  0  0  0  0  0
    4.0670   -0.4620    2.4310 C   0  0  0  0  0  0  0  0  0  0  0  0
    6.5520   -0.5180    2.0130 N   0  0  0  0  0  0  0  0  0  0  0  0
    7.2460   -1.2100    0.9410 C   0  0  2  0  0  0  0  0  0  0  0  0
    8.6270   -0.5700    0.7560 C   0  0  0  0  0  0  0  0  0  0  0  0
    9.3540   -1.2900   -0.3640 C   0  0  0  0  0  0  0  0  0  0  0  0
    6.4440   -0.8420   -0.2830 C   0  0  0  0  0  0  0  0  0  0  0  0
   -0.9260    0.9770    0.4250 C   0  0  0  0  0  0  0  0  0  0  0  0
   -1.8770   -0.0280    0.5400 O   0  0  0  0  0  0  0  0  0  0  0  0
   -3.0800    0.0100   -0.1860 C   0  0  0  0  0  0  0  0  0  0  0  0
   -3.9020   -1.1770    0.1260 C   0  0  0  0  0  0  0  0  0  0  0  0
   -3.4750   -2.0280    0.9450 O   0  0  0  0  0  0  0  0  0  0  0  0
   -5.1650   -1.3850   -0.4780 N   0  0  0  0  0  0  0  0  0  0  0  0
   -5.7210   -0.4370   -1.4390 C   0  0  0  0  0  0  0  0  0  0  0  0
   -6.5500    0.6160   -0.7130 C   0  0  0  0  0  0  0  0  0  0  0  0
   -5.9470   -2.5310   -0.1690 C   0  0  0  0  0  0  0  0  0  0  0  0
   -6.1040   -3.6080   -0.9990 C   0  0  0  0  0  0  0  0  0  0  0  0
   -6.8790   -4.6950   -0.6410 C   0  0  0  0  0  0  0  0  0  0  0  0
   -7.5230   -4.7400    0.5600 C   0  0  0  0  0  0  0  0  0  0  0  0
   -8.3400   -5.8690    0.9540 C   0  0  0  0  0  0  0  0  0  0  0  0
   -8.9290   -5.8970    2.0670 O   0  0  0  0  0  0  0  0  0  0  0  0
   -7.3700   -3.6540    1.4060 C   0  0  0  0  0  0  0  0  0  0  0  0
   -6.6000   -2.5800    1.0430 C   0  0  0  0  0  0  0  0  0  0  0  0
   -1.0820    2.0750   -0.3940 C   0  0  0  0  0  0  0  0  0  0  0  0
  1  2  1  0
  2  3  1  0
  3  4  1  0
  4  5  2  0
  4  6  1  0
  6  7  2  0
  6 39  1  0
  7  8  1  0
  8  9  2  0
  9 10  1  0
  9 23  1  0
 10 11  1  0
 11 12  1  0
 12 13  2  0
 12 17  1  0
 13 14  1  0
 14 15  2  0
 15 16  1  0
 15 22  1  0
 16 17  2  0
 16 18  1  0
 18 19  1  0
 19 20  1  6
 19 22  1  0
 20 21  1  0
 23 24  1  0
 23 39  2  0
 24 25  1  0
 25 26  1  0
 26 27  2  0
 26 28  1  0
 28 29  1  0
 28 31  1  0
 29 30  1  0
 31 32  2  0
 31 38  1  0
 32 33  1  0
 33 34  2  0
 34 35  1  0
 34 37  1  0
 35 36  2  0
 37 38  2  0
M  CHG  1  18   1
M  END
