
     RDKit          3D

 18 20  0  0  0  0  0  0  0  0999 V2000
   -5.2360   -0.3710   -0.1890 C   0  0  0  0  0  0  0  0  0  0  0  0
   -3.8330   -0.0890    0.0430 N   0  0  0  0  0  0  0  0  0  0  0  0
   -3.4080    1.1460    0.6340 C   0  0  0  0  0  0  0  0  0  0  0  0
   -4.2320    1.8070    1.3700 N   0  0  0  0  0  0  0  0  0  0  0  0
   -2.0020    1.6090    0.3580 C   0  0  0  0  0  0  0  0  0  0  0  0
   -1.0730    0.5030    0.5220 N   0  0  0  0  0  0  0  0  0  0  0  0
   -1.3900   -0.7400   -0.0680 C   0  0  0  0  0  0  0  0  0  0  0  0
   -0.4360   -1.5900   -0.3910 C   0  0  0  0  0  0  0  0  0  0  0  0
    0.9810   -1.3450   -0.1860 C   0  0  0  0  0  0  0  0  0  0  0  0
    1.8320   -2.2990    0.2580 N   0  0  0  0  0  0  0  0  0  0  0  0
    3.0420   -1.7690    0.3270 N   0  0  0  0  0  0  0  0  0  0  0  0
    3.0050   -0.4850   -0.0610 C   0  0  0  0  0  0  0  0  0  0  0  0
    4.0880    0.5020   -0.1520 C   0  0  1  0  0  0  0  0  0  0  0  0
    5.2810    0.3560    0.7990 C   0  0  0  0  0  0  0  0  0  0  0  0
    5.4200   -0.0910   -0.6080 C   0  0  0  0  0  0  0  0  0  0  0  0
    1.7070   -0.2350   -0.3800 N   0  0  0  0  0  0  0  0  0  0  0  0
   -2.8020   -1.0170   -0.3000 C   0  0  0  0  0  0  0  0  0  0  0  0
   -3.1550   -2.1070   -0.8210 O   0  0  0  0  0  0  0  0  0  0  0  0
  1  2  1  0
  2  3  1  0
  2 17  1  0
  3  4  2  0
  3  5  1  0
  5  6  1  0
  6  7  1  0
  7  8  2  3
  7 17  1  0
  8  9  1  0
  9 10  2  0
  9 16  1  0
 10 11  1  0
 11 12  2  0
 13 12  1  1
 12 16  1  0
 13 14  1  0
 13 15  1  0
 14 15  1  0
 17 18  2  0
M  END
