
     RDKit          3D

 17 19  0  0  0  0  0  0  0  0999 V2000
   -5.0910    0.9640   -0.1190 C   0  0  0  0  0  0  0  0  0  0  0  0
   -3.6950    0.6720    0.1820 N   0  0  0  0  0  0  0  0  0  0  0  0
   -3.3480    0.4750    1.4690 C   0  0  0  0  0  0  0  0  0  0  0  0
   -2.0290    0.1970    1.7840 C   0  0  0  0  0  0  0  0  0  0  0  0
   -1.0670    0.1180    0.7920 C   0  0  0  0  0  0  0  0  0  0  0  0
    0.2530   -0.1240    0.7430 N   0  0  0  0  0  0  0  0  0  0  0  0
    0.7070   -0.0810   -0.5060 C   0  0  0  0  0  0  0  0  0  0  0  0
    2.0150   -0.2740   -1.0110 N   0  0  0  0  0  0  0  0  0  0  0  0
    3.0960   -0.5640   -0.1500 C   0  0  0  0  0  0  0  0  0  0  0  0
    3.1020   -0.7050    1.2180 C   0  0  0  0  0  0  0  0  0  0  0  0
    4.3940   -0.9910    1.6470 C   0  0  0  0  0  0  0  0  0  0  0  0
    5.1650   -1.0230    0.5530 N   0  0  0  0  0  0  0  0  0  0  0  0
    4.4180   -0.7730   -0.5320 C   0  0  0  0  0  0  0  0  0  0  0  0
   -0.3760    0.2080   -1.3480 C   0  0  0  0  0  0  0  0  0  0  0  0
   -0.3730    0.3510   -2.7540 N   0  0  0  0  0  0  0  0  0  0  0  0
   -1.5090    0.3400   -0.5730 C   0  0  0  0  0  0  0  0  0  0  0  0
   -2.8020    0.6050   -0.7940 N   0  0  0  0  0  0  0  0  0  0  0  0
  1  2  1  0
  2  3  1  0
  2 17  1  0
  3  4  2  0
  4  5  1  0
  5  6  2  0
  5 16  1  0
  6  7  1  0
  7  8  1  0
  7 14  2  0
  8  9  1  0
  9 10  1  0
  9 13  2  0
 10 11  2  0
 11 12  1  0
 12 13  1  0
 14 15  1  0
 14 16  1  0
 16 17  2  0
M  END
