
     RDKit          3D

 18 20  0  0  0  0  0  0  0  0999 V2000
    4.6050   -0.0780   -0.9770 C   0  0  0  0  0  0  0  0  0  0  0  0
    3.8690    0.4700    0.2180 C   0  0  0  0  0  0  0  0  0  0  0  0
    2.4200    0.1730    0.1940 C   0  0  0  0  0  0  0  0  0  0  0  0
    1.4730    1.0550   -0.1150 N   0  0  0  0  0  0  0  0  0  0  0  0
    0.2780    0.4920   -0.0470 N   0  0  0  0  0  0  0  0  0  0  0  0
   -0.9200    1.0540   -0.2870 C   0  0  0  0  0  0  0  0  0  0  0  0
   -1.0430    2.4770   -0.6820 C   0  0  0  0  0  0  0  0  0  0  0  0
   -2.0400    0.2610   -0.1520 C   0  0  0  0  0  0  0  0  0  0  0  0
   -1.8900   -1.0790    0.2230 C   0  0  0  0  0  0  0  0  0  0  0  0
   -0.6500   -1.5870    0.4500 N   0  0  0  0  0  0  0  0  0  0  0  0
    0.4250   -0.7910    0.3120 C   0  0  0  0  0  0  0  0  0  0  0  0
    1.7770   -0.9980    0.4650 C   0  0  0  0  0  0  0  0  0  0  0  0
    2.3810   -2.2230    0.8410 N   0  0  0  0  0  0  0  0  0  0  0  0
   -3.0580   -1.8540    0.3480 N   0  0  0  0  0  0  0  0  0  0  0  0
   -4.3370   -1.2260    0.5490 C   0  0  0  0  0  0  0  0  0  0  0  0
   -4.4540   -0.0340   -0.2420 O   0  0  0  0  0  0  0  0  0  0  0  0
   -3.3710    0.8170   -0.3970 C   0  0  0  0  0  0  0  0  0  0  0  0
   -3.4920    2.0500   -0.7410 N   0  0  0  0  0  0  0  0  0  0  0  0
  1  2  1  0
  2  3  1  0
  3  4  2  0
  3 12  1  0
  4  5  1  0
  5  6  1  0
  5 11  1  0
  6  7  1  0
  6  8  2  0
  8  9  1  0
  8 17  1  0
  9 10  2  0
  9 14  1  0
 10 11  1  0
 11 12  2  0
 12 13  1  0
 14 15  1  0
 15 16  1  0
 16 17  1  0
 17 18  2  0
M  END
