
     RDKit          3D

 18 20  0  0  0  0  0  0  0  0999 V2000
    4.5840   -0.8440   -0.0780 C   0  0  0  0  0  0  0  0  0  0  0  0
    3.2860   -0.3030   -0.5070 N   0  0  0  0  0  0  0  0  0  0  0  0
    3.0410    0.5900   -1.4260 N   0  0  0  0  0  0  0  0  0  0  0  0
    1.7190    0.8580   -1.5460 C   0  0  0  0  0  0  0  0  0  0  0  0
    1.0840    0.0580   -0.6150 C   0  0  0  0  0  0  0  0  0  0  0  0
   -0.3530   -0.0280   -0.3930 C   0  0  0  0  0  0  0  0  0  0  0  0
   -1.1010   -1.0990   -0.6320 N   0  0  0  0  0  0  0  0  0  0  0  0
   -2.4060   -1.1310   -0.3770 N   0  0  0  0  0  0  0  0  0  0  0  0
   -3.2350   -2.2930   -0.6730 C   0  0  0  0  0  0  0  0  0  0  0  0
   -3.0480   -0.0510    0.1500 C   0  0  0  0  0  0  0  0  0  0  0  0
   -4.2770   -0.0560    0.3960 O   0  0  0  0  0  0  0  0  0  0  0  0
   -2.3290    1.1070    0.4290 C   0  0  0  0  0  0  0  0  0  0  0  0
   -2.6070    2.3440    0.9420 C   0  0  0  0  0  0  0  0  0  0  0  0
   -1.4950    3.0800    0.9890 N   0  0  0  0  0  0  0  0  0  0  0  0
   -0.4840    2.3230    0.5040 C   0  0  0  0  0  0  0  0  0  0  0  0
   -0.9810    1.0930    0.1480 C   0  0  0  0  0  0  0  0  0  0  0  0
    2.0900   -0.6430    0.0040 C   0  0  0  0  0  0  0  0  0  0  0  0
    1.8730   -1.5650    1.0640 N   0  0  0  0  0  0  0  0  0  0  0  0
  1  2  1  0
  2  3  1  0
  2 17  1  0
  3  4  2  0
  4  5  1  0
  5  6  1  0
  5 17  2  0
  6  7  2  0
  6 16  1  0
  7  8  1  0
  8  9  1  0
  8 10  1  0
 10 11  2  0
 10 12  1  0
 12 13  2  0
 12 16  1  0
 13 14  1  0
 14 15  1  0
 15 16  2  0
 17 18  1  0
M  END
