
     RDKit          3D

 18 20  0  0  0  0  0  0  0  0999 V2000
    0.4190   -3.3140    0.6410 N   0  0  0  0  0  0  0  0  0  0  0  0
   -0.3980   -2.1590    0.4100 C   0  0  0  0  0  0  0  0  0  0  0  0
   -1.3180   -1.9930   -0.4600 N   0  0  0  0  0  0  0  0  0  0  0  0
   -1.8860   -0.6800   -0.3490 C   0  0  0  0  0  0  0  0  0  0  0  0
   -1.2800   -0.0370    0.6280 C   0  0  0  0  0  0  0  0  0  0  0  0
   -1.7380    1.3410    0.8860 C   0  0  0  0  0  0  0  0  0  0  0  0
   -1.0940    2.0090    1.9170 O   0  0  0  0  0  0  0  0  0  0  0  0
   -2.6890    1.9110    0.1970 C   0  0  0  0  0  0  0  0  0  0  0  0
   -3.4090    1.2570   -0.9050 C   0  0  0  0  0  0  0  0  0  0  0  0
   -2.9330   -0.0810   -1.1190 N   0  0  0  0  0  0  0  0  0  0  0  0
   -0.2900   -0.9270    1.2100 C   0  0  2  0  0  0  0  0  0  0  0  0
    1.0350   -0.4190    1.3810 N   0  0  0  0  0  0  0  0  0  0  0  0
    1.9560   -0.0210    0.4180 C   0  0  0  0  0  0  0  0  0  0  0  0
    1.7140   -0.0630   -0.9330 C   0  0  0  0  0  0  0  0  0  0  0  0
    2.6580    0.3430   -1.8310 N   0  0  0  0  0  0  0  0  0  0  0  0
    3.8560    0.7970   -1.4230 C   0  0  0  0  0  0  0  0  0  0  0  0
    4.1020    0.8410   -0.0750 C   0  0  0  0  0  0  0  0  0  0  0  0
    3.1610    0.4380    0.7780 N   0  0  0  0  0  0  0  0  0  0  0  0
  1  2  1  0
  2  3  2  0
  2 11  1  0
  3  4  1  0
  4  5  2  0
  4 10  1  0
  5  6  1  0
  5 11  1  0
  6  7  1  0
  6  8  2  0
  8  9  1  0
  9 10  1  0
 11 12  1  6
 12 13  1  0
 13 14  2  0
 13 18  1  0
 14 15  1  0
 15 16  2  0
 16 17  1  0
 17 18  2  0
M  END
