
     RDKit          3D

 18 20  0  0  0  0  0  0  0  0999 V2000
   -5.7490    0.4770    0.1000 N   0  0  0  0  0  0  0  0  0  0  0  0
   -4.3270    0.3020    0.1100 C   0  0  0  0  0  0  0  0  0  0  0  0
   -3.4670    1.3880    0.1500 C   0  0  0  0  0  0  0  0  0  0  0  0
   -2.0920    1.1640    0.1480 C   0  0  0  0  0  0  0  0  0  0  0  0
   -1.5620   -0.1030    0.1060 C   0  0  0  0  0  0  0  0  0  0  0  0
   -0.1170   -0.3160    0.0710 C   0  0  0  0  0  0  0  0  0  0  0  0
    0.8980    0.6150    0.0290 C   0  0  0  0  0  0  0  0  0  0  0  0
    2.0820   -0.0880   -0.0300 C   0  0  0  0  0  0  0  0  0  0  0  0
    3.4060    0.4250   -0.0990 N   0  0  0  0  0  0  0  0  0  0  0  0
    4.4920   -0.0800   -0.9660 C   0  0  0  0  0  0  0  0  0  0  0  0
    5.7050    0.5700   -0.3600 C   0  0  0  0  0  0  0  0  0  0  0  0
    5.1780    1.5680    0.5020 N   0  0  0  0  0  0  0  0  0  0  0  0
    3.9250    1.4810    0.6400 N   0  0  0  0  0  0  0  0  0  0  0  0
    1.7850   -1.4150   -0.0200 N   0  0  0  0  0  0  0  0  0  0  0  0
    0.4730   -1.5380    0.0410 N   0  0  0  0  0  0  0  0  0  0  0  0
   -2.4480   -1.1600    0.0670 C   0  0  0  0  0  0  0  0  0  0  0  0
   -3.8250   -0.9800    0.0680 C   0  0  0  0  0  0  0  0  0  0  0  0
   -4.7030   -2.0510    0.0280 O   0  0  0  0  0  0  0  0  0  0  0  0
  1  2  1  0
  2  3  2  0
  2 17  1  0
  3  4  1  0
  4  5  2  0
  5  6  1  0
  5 16  1  0
  6  7  1  0
  6 15  2  0
  7  8  2  0
  8  9  1  0
  8 14  1  0
  9 10  1  0
  9 13  1  0
 10 11  1  0
 11 12  1  0
 12 13  2  0
 14 15  1  0
 16 17  2  0
 17 18  1  0
M  END
