
     RDKit          3D

 18 20  0  0  0  0  0  0  0  0999 V2000
   -4.7520    1.8440    1.2160 O   0  0  0  0  0  0  0  0  0  0  0  0
   -3.3510    1.7470    1.1840 C   0  0  0  0  0  0  0  0  0  0  0  0
   -3.0110    0.4000    0.8270 N   0  0  0  0  0  0  0  0  0  0  0  0
   -3.5130   -0.0060   -0.4490 C   0  0  0  0  0  0  0  0  0  0  0  0
   -3.1330   -1.4750   -0.6360 C   0  0  0  0  0  0  0  0  0  0  0  0
   -1.6360   -1.4920   -0.9190 C   0  0  0  0  0  0  0  0  0  0  0  0
   -0.9680   -0.3410   -0.2420 C   0  0  2  0  0  0  0  0  0  0  0  0
    0.4730   -0.6050    0.0610 C   0  0  0  0  0  0  0  0  0  0  0  0
    0.9870   -1.5920    0.8140 N   0  0  0  0  0  0  0  0  0  0  0  0
    2.2990   -1.5100    0.8580 N   0  0  0  0  0  0  0  0  0  0  0  0
    2.6740   -0.4540    0.1230 C   0  0  0  0  0  0  0  0  0  0  0  0
    4.0600    0.0140   -0.1070 C   0  0  0  0  0  0  0  0  0  0  0  0
    5.1840   -0.5260    0.3710 N   0  0  0  0  0  0  0  0  0  0  0  0
    6.2520    0.1730   -0.0510 C   0  0  0  0  0  0  0  0  0  0  0  0
    5.7590    1.1940   -0.8270 C   0  0  0  0  0  0  0  0  0  0  0  0
    4.4250    1.0730   -0.8440 N   0  0  0  0  0  0  0  0  0  0  0  0
    1.5540    0.1010   -0.3650 N   0  0  0  0  0  0  0  0  0  0  0  0
   -1.6410    0.0560    1.0590 C   0  0  0  0  0  0  0  0  0  0  0  0
  1  2  1  0
  2  3  1  0
  3  4  1  0
  3 18  1  0
  4  5  1  0
  5  6  1  0
  6  7  1  0
  7  8  1  1
  7 18  1  0
  8  9  2  0
  8 17  1  0
  9 10  1  0
 10 11  1  0
 11 12  1  0
 11 17  2  0
 12 13  2  0
 12 16  1  0
 13 14  1  0
 14 15  2  0
 15 16  1  0
M  END
