
     RDKit          3D

 18 20  0  0  0  0  0  0  0  0999 V2000
   -2.8860   -1.7250    1.3280 N   0  0  0  0  0  0  0  0  0  0  0  0
   -2.8830   -0.5890    0.7260 C   0  0  0  0  0  0  0  0  0  0  0  0
   -4.1140    0.2260    0.6230 C   0  0  0  0  0  0  0  0  0  0  0  0
   -4.1790    0.7490   -0.7650 C   0  0  0  0  0  0  0  0  0  0  0  0
   -5.2490    0.7750   -1.4310 O   0  0  0  0  0  0  0  0  0  0  0  0
   -2.9880    1.2360   -1.3560 N   0  0  0  0  0  0  0  0  0  0  0  0
   -1.7390    0.7620   -0.8530 C   0  0  0  0  0  0  0  0  0  0  0  0
   -0.4590    1.0350   -1.2030 N   0  0  0  0  0  0  0  0  0  0  0  0
    0.3990    0.3410   -0.4380 C   0  0  0  0  0  0  0  0  0  0  0  0
    1.8840    0.3800   -0.5290 C   0  0  0  0  0  0  0  0  0  0  0  0
    2.4640    1.1510   -1.4240 C   0  0  0  0  0  0  0  0  0  0  0  0
    3.8560    1.2300   -1.5570 N   0  0  0  0  0  0  0  0  0  0  0  0
    4.6490    0.5670   -0.8250 C   0  0  0  0  0  0  0  0  0  0  0  0
    4.1620   -0.3430    0.2270 C   0  0  0  0  0  0  0  0  0  0  0  0
    2.6890   -0.4480    0.3880 C   0  0  0  0  0  0  0  0  0  0  0  0
   -0.3720   -0.3970    0.4290 C   0  0  0  0  0  0  0  0  0  0  0  0
    0.1310   -1.2860    1.4270 N   0  0  0  0  0  0  0  0  0  0  0  0
   -1.6580   -0.1210    0.1530 N   0  0  0  0  0  0  0  0  0  0  0  0
  1  2  2  0
  2  3  1  0
  2 18  1  0
  3  4  1  0
  4  5  2  0
  4  6  1  0
  6  7  1  0
  7  8  2  0
  7 18  1  0
  8  9  1  0
  9 10  1  0
  9 16  2  0
 10 11  2  0
 10 15  1  0
 11 12  1  0
 12 13  2  0
 13 14  1  0
 14 15  1  0
 16 17  1  0
 16 18  1  0
M  END
