
     RDKit          3D

 31 33  0  0  0  0  0  0  0  0999 V2000
    7.7790    0.4760    0.8540 N   0  0  0  0  0  0  0  0  0  0  0  0
    7.0870    0.0230    2.0050 C   0  0  0  0  0  0  0  0  0  0  0  0
    7.8280   -0.2470    3.1790 N   0  0  0  0  0  0  0  0  0  0  0  0
    5.8260   -0.1530    2.0300 N   0  0  0  0  0  0  0  0  0  0  0  0
    5.0840    0.1450    0.7660 C   0  0  0  0  0  0  0  0  0  0  0  0
    4.1960    1.2780    1.0970 C   0  0  0  0  0  0  0  0  0  0  0  0
    3.3510    1.8660    0.0570 C   0  0  0  0  0  0  0  0  0  0  0  0
    2.4150    0.9900   -0.5670 N   0  0  0  0  0  0  0  0  0  0  0  0
    2.7200   -0.0510   -1.4330 C   0  0  0  0  0  0  0  0  0  0  0  0
    3.8970   -0.3060   -1.7720 O   0  0  0  0  0  0  0  0  0  0  0  0
    1.6900   -0.9590   -2.0350 C   0  0  2  0  0  0  0  0  0  0  0  0
    2.0410   -1.1560   -3.4830 C   0  0  0  0  0  0  0  0  0  0  0  0
    1.1100    0.1980   -4.2400 S   0  0  0  0  0  0  0  0  0  0  0  0
    0.0650    0.5920   -2.7960 C   0  0  1  0  0  0  0  0  0  0  0  0
   -1.3640    0.7530   -3.1870 C   0  0  0  0  0  0  0  0  0  0  0  0
   -2.2710   -0.3460   -2.7120 C   0  0  0  0  0  0  0  0  0  0  0  0
   -2.0810   -0.6340   -1.2600 C   0  0  1  0  0  0  0  0  0  0  0  0
   -2.8920   -1.6290   -0.7100 N   0  0  0  0  0  0  0  0  0  0  0  0
   -3.9180   -1.3280    0.5460 S   0  0  1  0  0  0  0  0  0  0  0  0
   -4.6950   -2.5930    0.8700 O   0  0  0  0  0  0  0  0  0  0  0  0
   -3.2970   -0.8940    1.8350 O   0  0  0  0  0  0  0  0  0  0  0  0
   -5.1840   -0.1080    0.1600 C   0  0  0  0  0  0  0  0  0  0  0  0
   -5.9980    0.0350    1.3780 C   0  0  0  0  0  0  0  0  0  0  0  0
   -7.1040   -0.7460    1.6030 C   0  0  0  0  0  0  0  0  0  0  0  0
   -7.8540   -0.5830    2.7760 C   0  0  0  0  0  0  0  0  0  0  0  0
   -7.4920    0.3550    3.7080 C   0  0  0  0  0  0  0  0  0  0  0  0
   -6.3940    1.1320    3.4860 C   0  0  0  0  0  0  0  0  0  0  0  0
   -5.6440    0.9730    2.3190 C   0  0  0  0  0  0  0  0  0  0  0  0
   -0.6630   -0.9860   -1.0180 C   0  0  0  0  0  0  0  0  0  0  0  0
   -0.3340   -1.7270   -0.0270 O   0  0  0  0  0  0  0  0  0  0  0  0
    0.3470   -0.4800   -1.9190 N   0  0  0  0  0  0  0  0  0  0  0  0
  1  2  1  0
  2  3  1  0
  2  4  2  3
  4  5  1  0
  5  6  1  0
  6  7  1  0
  7  8  1  0
  8  9  1  0
  9 10  2  0
 11  9  1  6
 11 12  1  0
 11 31  1  0
 12 13  1  0
 13 14  1  0
 14 15  1  6
 14 31  1  0
 15 16  1  0
 16 17  1  0
 17 18  1  6
 17 29  1  0
 18 19  1  0
 19 20  2  0
 19 21  2  0
 19 22  1  6
 22 23  1  0
 23 24  2  0
 23 28  1  0
 24 25  1  0
 25 26  2  0
 26 27  1  0
 27 28  2  0
 29 30  2  0
 29 31  1  0
M  CHG  1   4   1
M  END
