
     RDKit          3D

 31 32  0  0  0  0  0  0  0  0999 V2000
    4.9770    0.9870    0.2080 C   0  0  0  0  0  0  0  0  0  0  0  0
    4.0480    0.0260    0.2540 C   0  0  0  0  0  0  0  0  0  0  0  0
    3.0240    0.0610    1.3220 C   0  0  0  0  0  0  0  0  0  0  0  0
    1.6010    0.1470    0.8060 C   0  0  2  0  0  0  0  0  0  0  0  0
    0.6930    0.1990    1.9760 C   0  0  0  0  0  0  0  0  0  0  0  0
    0.1190   -0.9190    2.2670 O   0  0  0  0  0  0  0  0  0  0  0  0
    0.3800    1.2950    2.8030 N   0  0  0  0  0  0  0  0  0  0  0  0
    0.3970    2.6840    2.5510 C   0  0  0  0  0  0  0  0  0  0  0  0
    1.3240    3.4740    3.4660 C   0  0  1  0  0  0  0  0  0  0  0  0
    2.6340    3.2590    3.1430 F   0  0  0  0  0  0  0  0  0  0  0  0
    0.9680    4.7900    3.4720 F   0  0  0  0  0  0  0  0  0  0  0  0
   -0.2930    3.4280    1.7250 C   0  0  0  0  0  0  0  0  0  0  0  0
   -1.3270    3.1020    0.7720 C   0  0  0  0  0  0  0  0  0  0  0  0
   -2.0980    4.0700    0.2260 C   0  0  0  0  0  0  0  0  0  0  0  0
   -1.6560    1.7290    0.3200 C   0  0  0  0  0  0  0  0  0  0  0  0
   -2.9150    1.5210   -0.4300 C   0  0  0  0  0  0  0  0  0  0  0  0
   -2.7120    0.1970   -1.2220 C   0  0  0  0  0  0  0  0  0  0  0  0
   -2.6330   -0.9000   -0.2560 C   0  0  0  0  0  0  0  0  0  0  0  0
   -3.1850   -0.5770    0.8850 O   0  0  0  0  0  0  0  0  0  0  0  0
   -2.0700   -2.1790   -0.3950 N   0  0  0  0  0  0  0  0  0  0  0  0
   -1.5500   -2.9100   -1.5000 C   0  0  0  0  0  0  0  0  0  0  0  0
   -2.1290   -4.1920   -1.7130 C   0  0  0  0  0  0  0  0  0  0  0  0
   -1.7910   -5.0430   -2.7220 C   0  0  0  0  0  0  0  0  0  0  0  0
   -0.8190   -4.6350   -3.6000 C   0  0  0  0  0  0  0  0  0  0  0  0
   -0.2410   -3.3990   -3.4180 C   0  0  0  0  0  0  0  0  0  0  0  0
   -0.5870   -2.5180   -2.3750 C   0  0  0  0  0  0  0  0  0  0  0  0
    0.1730   -1.3080   -2.3900 N   0  0  0  0  0  0  0  0  0  0  0  0
    0.8960   -0.6670   -1.3830 C   0  0  0  0  0  0  0  0  0  0  0  0
    1.3310    0.5250   -1.6820 O   0  0  0  0  0  0  0  0  0  0  0  0
    1.2600   -1.0900   -0.0450 C   0  0  1  0  0  0  0  0  0  0  0  0
    2.3200   -1.9690    0.0620 O   0  0  0  0  0  0  0  0  0  0  0  0
  1  2  2  0
  2  3  1  0
  4  3  1  1
  4  5  1  0
  4 30  1  0
  5  6  2  0
  5  7  1  0
  7  8  1  0
  8  9  1  0
  8 12  2  0
  9 10  1  6
  9 11  1  0
 12 13  1  0
 13 14  2  0
 13 15  1  0
 15 16  1  0
 16 17  1  0
 17 18  1  0
 18 19  2  0
 18 20  1  0
 20 21  1  0
 21 22  2  0
 21 26  1  0
 22 23  1  0
 23 24  2  0
 24 25  1  0
 25 26  2  0
 26 27  1  0
 27 28  1  0
 28 29  2  0
 28 30  1  0
 30 31  1  6
M  END
