
     RDKit          3D

 20 21  0  0  0  0  0  0  0  0999 V2000
    6.3170    0.0370    1.6420 N   0  0  0  0  0  0  0  0  0  0  0  0
    5.3170   -0.2270    0.6090 C   0  0  0  0  0  0  0  0  0  0  0  0
    5.7100   -0.7400   -0.4760 N   0  0  0  0  0  0  0  0  0  0  0  0
    3.9890    0.0960    0.8680 N   0  0  0  0  0  0  0  0  0  0  0  0
    2.9410   -0.1210   -0.0720 C   0  0  0  0  0  0  0  0  0  0  0  0
    3.1660   -0.6200   -1.1930 O   0  0  0  0  0  0  0  0  0  0  0  0
    1.6020    0.2160    0.2210 N   0  0  0  0  0  0  0  0  0  0  0  0
    0.4760    0.0670   -0.6110 C   0  0  0  0  0  0  0  0  0  0  0  0
    0.5320   -0.1960   -1.9510 C   0  0  0  0  0  0  0  0  0  0  0  0
   -0.6360   -0.3480   -2.7010 C   0  0  0  0  0  0  0  0  0  0  0  0
   -1.8360   -0.2270   -2.0750 C   0  0  0  0  0  0  0  0  0  0  0  0
   -1.9500    0.0390   -0.7250 C   0  0  0  0  0  0  0  0  0  0  0  0
   -3.2770    0.1580   -0.1130 C   0  0  0  0  0  0  0  0  0  0  0  0
   -4.3270    0.6530   -0.8460 C   0  0  0  0  0  0  0  0  0  0  0  0
   -5.6020    0.7860   -0.3130 C   0  0  0  0  0  0  0  0  0  0  0  0
   -5.8320    0.4080    1.0020 C   0  0  0  0  0  0  0  0  0  0  0  0
   -4.7850   -0.0890    1.7420 C   0  0  0  0  0  0  0  0  0  0  0  0
   -5.1080   -0.5570    3.4000 Cl  0  0  0  0  0  0  0  0  0  0  0  0
   -3.5100   -0.2150    1.1920 C   0  0  0  0  0  0  0  0  0  0  0  0
   -0.7940    0.1830   -0.0120 C   0  0  0  0  0  0  0  0  0  0  0  0
  1  2  1  0
  2  3  2  0
  2  4  1  0
  4  5  1  0
  5  6  2  0
  5  7  1  0
  7  8  1  0
  8  9  2  0
  8 20  1  0
  9 10  1  0
 10 11  2  0
 11 12  1  0
 12 13  1  0
 12 20  2  0
 13 14  2  0
 13 19  1  0
 14 15  1  0
 15 16  2  0
 16 17  1  0
 17 18  1  0
 17 19  2  0
M  CHG  1   3   1
M  END
