
     RDKit          3D

 20 21  0  0  0  0  0  0  0  0999 V2000
   -3.8820    2.1880   -1.1900 C   0  0  0  0  0  0  0  0  0  0  0  0
   -4.1240    0.7370   -1.0650 C   0  0  0  0  0  0  0  0  0  0  0  0
   -3.2620   -0.0140   -0.4020 C   0  0  0  0  0  0  0  0  0  0  0  0
   -2.0860    0.3060    0.2510 C   0  0  0  0  0  0  0  0  0  0  0  0
   -1.5820    1.6450    0.3260 N   0  0  0  0  0  0  0  0  0  0  0  0
   -1.5210   -0.8090    0.8070 C   0  0  0  0  0  0  0  0  0  0  0  0
   -0.2680   -0.9350    1.5680 C   0  0  0  0  0  0  0  0  0  0  0  0
    0.9520   -1.0210    0.7330 C   0  0  2  0  0  0  0  0  0  0  0  0
    2.1600   -1.1570    1.6700 C   0  0  0  0  0  0  0  0  0  0  0  0
    3.0370    0.0720    1.5960 C   0  0  0  0  0  0  0  0  0  0  0  0
    3.4730    0.3170    0.2400 N   0  0  0  0  0  0  0  0  0  0  0  0
    4.8150    0.6830   -0.0410 C   0  0  0  0  0  0  0  0  0  0  0  0
    5.2250    0.9180   -1.3760 N   0  0  0  0  0  0  0  0  0  0  0  0
    5.6350    0.7980    0.8860 O   0  0  0  0  0  0  0  0  0  0  0  0
    2.4980    0.1760   -0.8210 C   0  0  0  0  0  0  0  0  0  0  0  0
    1.1210    0.2110   -0.1220 C   0  0  0  0  0  0  0  0  0  0  0  0
   -2.3610   -1.8330    0.4940 N   0  0  0  0  0  0  0  0  0  0  0  0
   -3.3880   -1.4030   -0.2120 C   0  0  0  0  0  0  0  0  0  0  0  0
   -4.4070   -2.1250   -0.6920 C   0  0  0  0  0  0  0  0  0  0  0  0
   -4.4530   -3.8330   -0.3910 Cl  0  0  0  0  0  0  0  0  0  0  0  0
  1  2  1  0
  2  3  2  3
  3  4  1  0
  3 18  1  0
  4  5  1  0
  4  6  2  0
  6  7  1  0
  6 17  1  0
  8  7  1  1
  8  9  1  0
  8 16  1  0
  9 10  1  0
 10 11  1  0
 11 12  1  0
 11 15  1  0
 12 13  1  0
 12 14  2  0
 15 16  1  0
 17 18  1  0
 18 19  2  3
 19 20  1  0
M  END
