
     RDKit          3D

 19 21  0  0  0  0  0  0  0  0999 V2000
   -0.5790    1.2480   -2.6530 N   0  0  0  0  0  0  0  0  0  0  0  0
   -1.4890    0.6830   -1.7210 C   0  0  0  0  0  0  0  0  0  0  0  0
   -2.6510    0.0400   -1.9860 N   0  0  0  0  0  0  0  0  0  0  0  0
   -3.2500   -0.3540   -0.8490 C   0  0  0  0  0  0  0  0  0  0  0  0
   -4.4230   -1.0310   -0.5460 C   0  0  0  0  0  0  0  0  0  0  0  0
   -4.7870   -1.3010    0.7600 C   0  0  0  0  0  0  0  0  0  0  0  0
   -6.2760   -2.1600    1.1320 Cl  0  0  0  0  0  0  0  0  0  0  0  0
   -3.9590   -0.8830    1.7680 C   0  0  0  0  0  0  0  0  0  0  0  0
   -2.7950   -0.2100    1.4530 C   0  0  0  0  0  0  0  0  0  0  0  0
   -2.4130    0.0690    0.1610 C   0  0  0  0  0  0  0  0  0  0  0  0
   -1.3470    0.6990   -0.4000 N   0  0  0  0  0  0  0  0  0  0  0  0
   -0.2920    1.2610    0.4140 C   0  0  0  0  0  0  0  0  0  0  0  0
    0.7580    0.2300    0.6610 C   0  0  1  0  0  0  0  0  0  0  0  0
    1.3570   -0.2490   -0.6280 C   0  0  0  0  0  0  0  0  0  0  0  0
    2.4790   -1.2360   -0.3650 C   0  0  0  0  0  0  0  0  0  0  0  0
    3.5180   -0.5870    0.5130 C   0  0  1  0  0  0  0  0  0  0  0  0
    4.8330   -0.6230   -0.0890 N   0  0  0  0  0  0  0  0  0  0  0  0
    3.1620    0.8390    0.8610 C   0  0  0  0  0  0  0  0  0  0  0  0
    1.8320    0.8470    1.5590 C   0  0  0  0  0  0  0  0  0  0  0  0
  1  2  1  0
  2  3  2  0
  2 11  1  0
  3  4  1  0
  4  5  2  0
  4 10  1  0
  5  6  1  0
  6  7  1  0
  6  8  2  0
  8  9  1  0
  9 10  2  0
 10 11  1  0
 11 12  1  0
 13 12  1  6
 13 14  1  0
 13 19  1  0
 14 15  1  0
 15 16  1  0
 16 17  1  6
 16 18  1  0
 18 19  1  0
M  CHG  1   3   1
M  END
