
     RDKit          3D

 19 20  0  0  0  0  0  0  0  0999 V2000
   -0.5550    2.5360    1.4370 C   0  0  0  0  0  0  0  0  0  0  0  0
   -0.0730    1.7010    0.4150 O   0  0  0  0  0  0  0  0  0  0  0  0
   -0.9530    0.8700   -0.2770 C   0  0  0  0  0  0  0  0  0  0  0  0
   -0.9100   -0.4340   -0.2930 C   0  0  0  0  0  0  0  0  0  0  0  0
    0.1460   -1.1500    0.4700 C   0  0  2  0  0  0  0  0  0  0  0  0
    1.2130   -0.3300    1.0100 C   0  0  0  0  0  0  0  0  0  0  0  0
    1.3150   -0.1720    2.3300 C   0  0  0  0  0  0  0  0  0  0  0  0
    2.3110    0.5970    2.9150 O   0  0  0  0  0  0  0  0  0  0  0  0
    2.2120    0.3210    0.1910 C   0  0  0  0  0  0  0  0  0  0  0  0
    3.2660    1.0790    0.8500 N   0  0  0  0  0  0  0  0  0  0  0  0
    2.2730    0.3030   -1.0920 N   0  0  0  0  0  0  0  0  0  0  0  0
    0.6170   -2.3290   -0.3350 C   0  0  0  0  0  0  0  0  0  0  0  0
    0.1940   -2.4210   -1.6180 O   0  0  0  0  0  0  0  0  0  0  0  0
   -1.1160   -2.2290   -1.9040 C   0  0  0  0  0  0  0  0  0  0  0  0
   -1.8710   -1.3080   -0.9870 C   0  0  2  0  0  0  0  0  0  0  0  0
   -2.9100   -0.6840   -1.7090 N   0  0  0  0  0  0  0  0  0  0  0  0
   -2.9060    0.6840   -1.7500 N   0  0  0  0  0  0  0  0  0  0  0  0
   -2.0240    1.5250   -1.0560 C   0  0  0  0  0  0  0  0  0  0  0  0
   -2.1230    2.7750   -1.0840 O   0  0  0  0  0  0  0  0  0  0  0  0
  1  2  1  0
  2  3  1  0
  3  4  2  0
  3 18  1  0
  4  5  1  0
  4 15  1  0
  5  6  1  6
  5 12  1  0
  6  7  2  3
  6  9  1  0
  7  8  1  0
  9 10  1  0
  9 11  2  0
 12 13  1  0
 13 14  1  0
 15 14  1  6
 15 16  1  0
 16 17  1  0
 17 18  1  0
 18 19  2  0
M  CHG  1  11   1
M  END
