
     RDKit          3D

 19 20  0  0  0  0  0  0  0  0999 V2000
   -5.5730    0.8580    0.2610 N   0  0  0  0  0  0  0  0  0  0  0  0
   -4.1770    0.5720    0.2250 C   0  0  0  0  0  0  0  0  0  0  0  0
   -3.3890    1.0920    1.1610 C   0  0  0  0  0  0  0  0  0  0  0  0
   -1.9480    0.8310    1.1720 C   0  0  0  0  0  0  0  0  0  0  0  0
   -1.4220    0.0660    0.2360 C   0  0  0  0  0  0  0  0  0  0  0  0
   -0.0460   -0.2240    0.1900 N   0  0  0  0  0  0  0  0  0  0  0  0
    1.0140    0.7350   -0.0330 C   0  0  0  0  0  0  0  0  0  0  0  0
    2.1850   -0.0900   -0.4390 C   0  0  1  0  0  0  0  0  0  0  0  0
    3.4640    0.2890    0.2360 C   0  0  0  0  0  0  0  0  0  0  0  0
    3.9000    1.6940   -0.0130 C   0  0  2  0  0  0  0  0  0  0  0  0
    4.1180    1.9990   -1.3340 O   0  0  0  0  0  0  0  0  0  0  0  0
    5.1060    1.8920    0.6710 O   0  0  0  0  0  0  0  0  0  0  0  0
    1.8290   -1.4260    0.0020 N   0  0  0  0  0  0  0  0  0  0  0  0
    0.5980   -1.4940    0.3470 C   0  0  0  0  0  0  0  0  0  0  0  0
   -0.0430   -2.6820    0.8260 N   0  0  0  0  0  0  0  0  0  0  0  0
   -2.2990   -0.5110   -0.8030 C   0  0  0  0  0  0  0  0  0  0  0  0
   -1.7630   -1.2770   -1.7360 C   0  0  0  0  0  0  0  0  0  0  0  0
   -2.5980   -1.8120   -2.7060 O   0  0  0  0  0  0  0  0  0  0  0  0
   -3.6580   -0.2380   -0.7750 O   0  0  0  0  0  0  0  0  0  0  0  0
  1  2  1  0
  2  3  2  0
  2 19  1  0
  3  4  1  0
  4  5  2  0
  5  6  1  0
  5 16  1  0
  6  7  1  0
  6 14  1  0
  7  8  1  0
  8  9  1  1
  8 13  1  0
  9 10  1  0
 10 11  1  6
 10 12  1  0
 13 14  2  0
 14 15  1  0
 16 17  2  3
 16 19  1  0
 17 18  1  0
M  CHG  1  13   1
M  END
