
     RDKit          3D

 30 32  0  0  0  0  0  0  0  0999 V2000
   -1.8050   -2.8690   -3.5760 C   0  0  0  0  0  0  0  0  0  0  0  0
   -1.7580   -1.8530   -2.5950 O   0  0  0  0  0  0  0  0  0  0  0  0
   -0.5660   -1.6760   -1.9090 C   0  0  0  0  0  0  0  0  0  0  0  0
    0.3930   -2.4300   -2.2030 O   0  0  0  0  0  0  0  0  0  0  0  0
   -0.3730   -0.6580   -0.8620 C   0  0  2  0  0  0  0  0  0  0  0  0
    0.9960   -0.7450   -0.3440 C   0  0  0  0  0  0  0  0  0  0  0  0
    1.9080    0.1960   -0.0730 N   0  0  0  0  0  0  0  0  0  0  0  0
    3.0000   -0.4220    0.3800 C   0  0  0  0  0  0  0  0  0  0  0  0
    4.2770    0.1560    0.8150 C   0  0  0  0  0  0  0  0  0  0  0  0
    4.5310    1.5120    0.8090 C   0  0  0  0  0  0  0  0  0  0  0  0
    5.7440    2.0380    1.2220 C   0  0  0  0  0  0  0  0  0  0  0  0
    6.7500    1.2020    1.6600 C   0  0  0  0  0  0  0  0  0  0  0  0
    7.9960    1.6730    2.0900 O   0  0  0  0  0  0  0  0  0  0  0  0
    6.4640   -0.1550    1.6540 C   0  0  0  0  0  0  0  0  0  0  0  0
    5.2730   -0.6340    1.2460 N   0  0  0  0  0  0  0  0  0  0  0  0
    2.7320   -1.7310    0.3770 N   0  0  0  0  0  0  0  0  0  0  0  0
    1.5500   -1.8940   -0.0520 O   0  0  0  0  0  0  0  0  0  0  0  0
   -1.3290   -0.9690    0.2780 C   0  0  0  0  0  0  0  0  0  0  0  0
   -2.5210   -0.2240    0.0410 N   0  0  0  0  0  0  0  0  0  0  0  0
   -2.9460    0.5060    1.2090 C   0  0  0  0  0  0  0  0  0  0  0  0
   -3.4190   -0.3720    2.3210 C   0  0  1  0  0  0  0  0  0  0  0  0
   -3.7980    0.4750    3.3810 O   0  0  0  0  0  0  0  0  0  0  0  0
   -4.8610   -1.4190    1.8840 P   0  0  0  0  0  0  0  0  0  0  0  0
   -5.8960   -0.6960    0.6930 O   0  0  0  0  0  0  0  0  0  0  0  0
   -5.8210   -1.6300    3.3360 O   0  0  0  0  0  0  0  0  0  0  0  0
   -2.3010    0.6580   -1.0740 C   0  0  0  0  0  0  0  0  0  0  0  0
   -0.7910    0.7150   -1.2830 C   0  0  1  0  0  0  0  0  0  0  0  0
   -0.1580    1.7930   -0.4670 C   0  0  0  0  0  0  0  0  0  0  0  0
   -0.5720    0.9730   -2.7560 C   0  0  0  0  0  0  0  0  0  0  0  0
    0.7590    0.8500   -3.1250 O   0  0  0  0  0  0  0  0  0  0  0  0
  1  2  1  0
  2  3  1  0
  3  4  2  0
  5  3  1  6
  5  6  1  0
  5 18  1  0
  5 27  1  0
  6  7  2  0
  6 17  1  0
  7  8  1  0
  8  9  1  0
  8 16  2  0
  9 10  2  0
  9 15  1  0
 10 11  1  0
 11 12  2  0
 12 13  1  0
 12 14  1  0
 14 15  2  0
 16 17  1  0
 18 19  1  0
 19 20  1  0
 19 26  1  0
 20 21  1  0
 21 22  1  1
 21 23  1  0
 23 24  1  0
 23 25  1  0
 26 27  1  0
 27 28  1  1
 27 29  1  0
 29 30  1  0
M  END
