
     RDKit          3D

 31 33  0  0  0  0  0  0  0  0999 V2000
   -2.5150   -4.1710   -4.5130 O   0  0  0  0  0  0  0  0  0  0  0  0
   -2.9700   -3.6990   -3.4150 C   0  0  0  0  0  0  0  0  0  0  0  0
   -2.1070   -2.9170   -2.5350 C   0  0  0  0  0  0  0  0  0  0  0  0
   -2.5340   -2.4310   -1.4040 C   0  0  0  0  0  0  0  0  0  0  0  0
   -1.7460   -1.6460   -0.4810 C   0  0  0  0  0  0  0  0  0  0  0  0
   -2.1270   -1.1280    0.6690 C   0  0  0  0  0  0  0  0  0  0  0  0
   -3.4210   -1.1920    1.2930 C   0  0  0  0  0  0  0  0  0  0  0  0
   -4.6220   -0.9280    0.9000 C   0  0  0  0  0  0  0  0  0  0  0  0
   -5.1040   -0.4330   -0.3680 C   0  0  0  0  0  0  0  0  0  0  0  0
   -4.4760   -0.1050   -1.4240 N   0  0  0  0  0  0  0  0  0  0  0  0
   -5.3350    0.3120   -2.3960 O   0  0  0  0  0  0  0  0  0  0  0  0
   -6.6490   -0.0790   -2.0060 C   0  0  0  0  0  0  0  0  0  0  0  0
   -6.4700   -0.2270   -0.6270 O   0  0  0  0  0  0  0  0  0  0  0  0
   -3.1450   -1.4320    2.7340 N   0  0  0  0  0  0  0  0  0  0  0  0
   -1.7350   -1.4690    2.8360 C   0  0  0  0  0  0  0  0  0  0  0  0
   -1.0060   -2.0870    3.6110 O   0  0  0  0  0  0  0  0  0  0  0  0
   -1.2520   -0.5400    1.7300 C   0  0  1  0  0  0  0  0  0  0  0  0
    0.1870   -0.7930    1.5850 C   0  0  0  0  0  0  0  0  0  0  0  0
    0.8240    0.4910    1.8630 N   0  0  0  0  0  0  0  0  0  0  0  0
    2.1880    0.7520    2.1790 C   0  0  0  0  0  0  0  0  0  0  0  0
    3.0550    0.9200    0.9850 C   0  0  0  0  0  0  0  0  0  0  0  0
    2.6540    0.8530   -0.1770 O   0  0  0  0  0  0  0  0  0  0  0  0
    4.4450    1.1720    1.2280 N   0  0  0  0  0  0  0  0  0  0  0  0
    5.4150    1.3420    0.1740 C   0  0  0  0  0  0  0  0  0  0  0  0
    5.0960    2.4970   -0.7160 C   0  0  0  0  0  0  0  0  0  0  0  0
    6.3790    2.6940   -2.0620 P   0  0  0  0  0  0  0  0  0  0  0  0
    7.9500    2.2500   -1.4630 O   0  0  0  0  0  0  0  0  0  0  0  0
    6.4600    4.3570   -2.5080 O   0  0  0  0  0  0  0  0  0  0  0  0
   -0.2110    1.4410    1.7210 C   0  0  0  0  0  0  0  0  0  0  0  0
   -0.0530    2.6510    1.4160 O   0  0  0  0  0  0  0  0  0  0  0  0
   -1.4400    0.7890    1.9830 O   0  0  0  0  0  0  0  0  0  0  0  0
  1  2  2  0
  2  3  1  0
  3  4  2  3
  4  5  1  0
  5  6  2  3
  6  7  1  0
  6 17  1  0
  7  8  2  3
  7 14  1  0
  8  9  1  0
  9 10  2  0
  9 13  1  0
 10 11  1  0
 11 12  1  0
 12 13  1  0
 14 15  1  0
 15 16  2  0
 15 17  1  0
 17 18  1  6
 17 31  1  0
 18 19  1  0
 19 20  1  0
 19 29  1  0
 20 21  1  0
 21 22  2  0
 21 23  1  0
 23 24  1  0
 24 25  1  0
 25 26  1  0
 26 27  1  0
 26 28  1  0
 29 30  2  0
 29 31  1  0
M  END
