
     RDKit          3D

 31 33  0  0  0  0  0  0  0  0999 V2000
   -6.1270   -2.6850   -0.2990 C   0  0  0  0  0  0  0  0  0  0  0  0
   -5.2220   -1.9260    0.6460 C   0  0  1  0  0  0  0  0  0  0  0  0
   -3.7990   -2.0100    0.2270 C   0  0  0  0  0  0  0  0  0  0  0  0
   -3.1700   -3.0890    0.0960 O   0  0  0  0  0  0  0  0  0  0  0  0
   -3.3520   -0.6760    0.0260 N   0  0  0  0  0  0  0  0  0  0  0  0
   -2.2100    0.1110   -0.3550 C   0  0  0  0  0  0  0  0  0  0  0  0
   -0.8910   -0.3570   -0.7200 C   0  0  0  0  0  0  0  0  0  0  0  0
    0.0080    0.4740   -0.9990 O   0  0  0  0  0  0  0  0  0  0  0  0
   -0.4560   -1.7130   -0.8090 N   0  0  0  0  0  0  0  0  0  0  0  0
    0.8930   -2.1170   -1.1650 C   0  0  0  0  0  0  0  0  0  0  0  0
    1.9810   -1.7320   -0.2550 C   0  0  0  0  0  0  0  0  0  0  0  0
    2.1190   -0.3720   -0.0890 O   0  0  0  0  0  0  0  0  0  0  0  0
    3.4540   -0.1190    1.0180 P   0  0  0  0  0  0  0  0  0  0  0  0
    3.3190   -1.2380    2.3140 O   0  0  0  0  0  0  0  0  0  0  0  0
    5.0130   -0.4510    0.0620 C   0  0  1  0  0  0  0  0  0  0  0  0
    5.2290    0.7060   -0.8850 C   0  0  0  0  0  0  0  0  0  0  0  0
    6.4360    1.4800   -0.4000 C   0  0  0  0  0  0  0  0  0  0  0  0
    6.4080    1.6840    1.0830 C   0  0  0  0  0  0  0  0  0  0  0  0
    6.2560    0.5160    1.7970 O   0  0  0  0  0  0  0  0  0  0  0  0
    6.2020   -0.6120    0.9920 C   0  0  0  0  0  0  0  0  0  0  0  0
   -2.5860    1.4070   -0.2990 C   0  0  0  0  0  0  0  0  0  0  0  0
   -1.7390    2.5400   -0.6070 C   0  0  0  0  0  0  0  0  0  0  0  0
   -2.1010    3.9240   -0.5540 N   0  0  0  0  0  0  0  0  0  0  0  0
   -0.5440    2.3800   -0.9690 O   0  0  0  0  0  0  0  0  0  0  0  0
   -3.9470    1.5230    0.1070 N   0  0  0  0  0  0  0  0  0  0  0  0
   -4.7870    2.6500    0.3100 C   0  0  0  0  0  0  0  0  0  0  0  0
   -4.4630    3.8310    0.1590 O   0  0  0  0  0  0  0  0  0  0  0  0
   -6.1240    2.4670    0.7230 O   0  0  0  0  0  0  0  0  0  0  0  0
   -4.4340    0.1710    0.3150 C   0  0  0  0  0  0  0  0  0  0  0  0
   -5.5080   -0.4960    0.6740 C   0  0  0  0  0  0  0  0  0  0  0  0
   -6.7700    0.0660    1.0400 O   0  0  0  0  0  0  0  0  0  0  0  0
  2  1  1  6
  2  3  1  0
  2 30  1  0
  3  4  2  0
  3  5  1  0
  5  6  1  0
  5 29  1  0
  6  7  1  0
  6 21  2  0
  7  8  2  0
  7  9  1  0
  9 10  1  0
 10 11  1  0
 11 12  1  0
 12 13  1  0
 13 14  1  0
 15 13  1  1
 15 16  1  0
 15 20  1  0
 16 17  1  0
 17 18  1  0
 18 19  1  0
 19 20  1  0
 21 22  1  0
 21 25  1  0
 22 23  1  0
 22 24  2  0
 25 26  1  0
 25 29  1  0
 26 27  2  0
 26 28  1  0
 29 30  2  0
 30 31  1  0
M  END
