
     RDKit          3D

 30 32  0  0  0  0  0  0  0  0999 V2000
   -5.5960   -3.6420   -0.7210 O   0  0  0  0  0  0  0  0  0  0  0  0
   -4.9890   -2.7530   -0.0810 C   0  0  0  0  0  0  0  0  0  0  0  0
   -4.4620   -3.0340    1.2180 N   0  0  0  0  0  0  0  0  0  0  0  0
   -3.3190   -2.2550    1.6440 C   0  0  0  0  0  0  0  0  0  0  0  0
   -2.9460   -2.2980    2.8220 O   0  0  0  0  0  0  0  0  0  0  0  0
   -2.6950   -1.4540    0.5640 C   0  0  2  0  0  0  0  0  0  0  0  0
   -1.5630   -0.6920    1.0810 C   0  0  0  0  0  0  0  0  0  0  0  0
   -1.4670   -0.6390    2.3580 O   0  0  0  0  0  0  0  0  0  0  0  0
   -0.6520   -0.0690    0.2040 N   0  0  0  0  0  0  0  0  0  0  0  0
   -0.8330   -0.2570   -1.2090 C   0  0  0  0  0  0  0  0  0  0  0  0
   -0.6130    1.0180   -1.9380 C   0  0  0  0  0  0  0  0  0  0  0  0
    0.4710    1.7550   -1.4670 O   0  0  0  0  0  0  0  0  0  0  0  0
    0.3660    2.0350   -0.1330 C   0  0  0  0  0  0  0  0  0  0  0  0
    0.4570    0.7310    0.6430 C   0  0  1  0  0  0  0  0  0  0  0  0
    0.5320    0.9970    2.1210 C   0  0  0  0  0  0  0  0  0  0  0  0
   -0.5200    1.6840    2.6580 O   0  0  0  0  0  0  0  0  0  0  0  0
    1.7570    0.0610    0.2610 C   0  0  0  0  0  0  0  0  0  0  0  0
    2.8570    0.8680    0.7230 N   0  0  0  0  0  0  0  0  0  0  0  0
    4.1350    0.2120    0.4490 C   0  0  0  0  0  0  0  0  0  0  0  0
    4.4440    0.1370   -1.0150 C   0  0  0  0  0  0  0  0  0  0  0  0
    5.7910   -0.5570   -1.1580 C   0  0  0  0  0  0  0  0  0  0  0  0
    7.0550    0.4490   -0.2620 P   0  0  0  0  0  0  0  0  0  0  0  0
    8.6700    0.0540   -0.7010 O   0  0  0  0  0  0  0  0  0  0  0  0
    6.7410    2.1340   -0.3390 O   0  0  0  0  0  0  0  0  0  0  0  0
   -3.7530   -0.6650   -0.0270 N   0  0  0  0  0  0  0  0  0  0  0  0
   -4.0780    0.7110   -0.1530 C   0  0  0  0  0  0  0  0  0  0  0  0
   -3.2730    1.6650    0.0960 O   0  0  0  0  0  0  0  0  0  0  0  0
   -5.5020    0.8550   -0.6200 C   0  0  0  0  0  0  0  0  0  0  0  0
   -6.0440   -0.5400   -0.4500 C   0  0  0  0  0  0  0  0  0  0  0  0
   -4.8220   -1.4060   -0.6800 C   0  0  2  0  0  0  0  0  0  0  0  0
  1  2  2  0
  2  3  1  0
  2 30  1  0
  3  4  1  0
  4  5  2  0
  4  6  1  0
  6  7  1  1
  6 25  1  0
  7  8  2  0
  7  9  1  0
  9 10  1  0
  9 14  1  0
 10 11  1  0
 11 12  1  0
 12 13  1  0
 13 14  1  0
 14 15  1  1
 14 17  1  0
 15 16  1  0
 17 18  1  0
 18 19  1  0
 19 20  1  0
 20 21  1  0
 21 22  1  0
 22 23  1  0
 22 24  1  0
 25 26  1  0
 25 30  1  0
 26 27  2  0
 26 28  1  0
 28 29  1  0
 30 29  1  1
M  END
