
     RDKit          3D

 31 33  0  0  0  0  0  0  0  0999 V2000
   -3.2680    4.1410   -0.3390 C   0  0  0  0  0  0  0  0  0  0  0  0
   -2.7940    2.7560   -0.1930 C   0  0  0  0  0  0  0  0  0  0  0  0
   -3.4950    1.6870   -0.7070 C   0  0  0  0  0  0  0  0  0  0  0  0
   -3.0360    0.3800   -0.5620 C   0  0  0  0  0  0  0  0  0  0  0  0
   -3.7890   -0.5800   -1.0980 N   0  0  0  0  0  0  0  0  0  0  0  0
   -3.3750   -1.8520   -0.9760 C   0  0  0  0  0  0  0  0  0  0  0  0
   -4.0920   -2.9020   -1.5000 C   0  0  0  0  0  0  0  0  0  0  0  0
   -5.1590   -2.6530   -2.1050 O   0  0  0  0  0  0  0  0  0  0  0  0
   -3.6100   -4.1550   -1.3360 N   0  0  0  0  0  0  0  0  0  0  0  0
   -2.4570   -4.3970   -0.6800 C   0  0  0  0  0  0  0  0  0  0  0  0
   -2.0740   -5.5870   -0.5680 O   0  0  0  0  0  0  0  0  0  0  0  0
   -1.7400   -3.4000   -0.1610 N   0  0  0  0  0  0  0  0  0  0  0  0
   -2.1300   -2.1160   -0.2670 C   0  0  0  0  0  0  0  0  0  0  0  0
   -1.3790   -1.1300    0.2700 N   0  0  0  0  0  0  0  0  0  0  0  0
   -0.1560   -1.4260    0.9620 C   0  0  0  0  0  0  0  0  0  0  0  0
    1.0460   -1.4200    0.0120 C   0  0  2  0  0  0  0  0  0  0  0  0
    0.9110   -2.3500   -0.9850 O   0  0  0  0  0  0  0  0  0  0  0  0
    2.2680   -1.6780    0.8860 C   0  0  2  0  0  0  0  0  0  0  0  0
    2.3290   -0.6920    1.8680 O   0  0  0  0  0  0  0  0  0  0  0  0
    3.5340   -1.7230    0.0630 C   0  0  2  0  0  0  0  0  0  0  0  0
    4.5800   -1.9990    0.9430 O   0  0  0  0  0  0  0  0  0  0  0  0
    3.8250   -0.4260   -0.6220 C   0  0  0  0  0  0  0  0  0  0  0  0
    3.9280    0.5830    0.3320 O   0  0  0  0  0  0  0  0  0  0  0  0
    4.2580    2.0790   -0.3970 P   0  0  2  0  0  0  0  0  0  0  0  0
    5.7540    2.3050   -0.3780 O   0  0  0  0  0  0  0  0  0  0  0  0
    3.4650    3.2930    0.4510 O   0  0  0  0  0  0  0  0  0  0  0  0
    3.7340    1.9800   -2.0090 O   0  0  0  0  0  0  0  0  0  0  0  0
   -1.8440    0.1240    0.1160 C   0  0  0  0  0  0  0  0  0  0  0  0
   -1.1530    1.1980    0.6260 C   0  0  0  0  0  0  0  0  0  0  0  0
   -1.6230    2.4800    0.4710 C   0  0  0  0  0  0  0  0  0  0  0  0
   -0.8480    3.5940    1.0350 C   0  0  0  0  0  0  0  0  0  0  0  0
  1  2  1  0
  2  3  2  0
  2 30  1  0
  3  4  1  0
  4  5  1  0
  4 28  2  0
  5  6  2  0
  6  7  1  0
  6 13  1  0
  7  8  2  0
  7  9  1  0
  9 10  1  0
 10 11  2  0
 10 12  1  0
 12 13  2  0
 13 14  1  0
 14 15  1  0
 14 28  1  0
 15 16  1  0
 16 17  1  6
 16 18  1  0
 18 19  1  1
 18 20  1  0
 20 21  1  1
 20 22  1  0
 22 23  1  0
 23 24  1  0
 24 25  2  0
 24 26  1  1
 24 27  1  0
 28 29  1  0
 29 30  2  0
 30 31  1  0
M  END
