
     RDKit          3D

 16 17  0  0  0  0  0  0  0  0999 V2000
    5.0700   -0.7680    0.6600 C   0  0  0  0  0  0  0  0  0  0  0  0
    3.6670   -0.9820    0.6640 O   0  0  0  0  0  0  0  0  0  0  0  0
    2.8170    0.0600    0.3500 C   0  0  0  0  0  0  0  0  0  0  0  0
    3.3240    1.1720    0.0700 O   0  0  0  0  0  0  0  0  0  0  0  0
    1.3430   -0.1490    0.3500 C   0  0  0  0  0  0  0  0  0  0  0  0
    0.5650    0.8360    0.0540 C   0  0  0  0  0  0  0  0  0  0  0  0
   -0.8830    0.9090   -0.0260 C   0  0  0  0  0  0  0  0  0  0  0  0
   -1.4980    2.1650   -0.1460 C   0  0  0  0  0  0  0  0  0  0  0  0
   -2.8000    2.3560   -0.2330 N   0  0  0  0  0  0  0  0  0  0  0  0
   -3.6170    1.2580   -0.2030 C   0  0  0  0  0  0  0  0  0  0  0  0
   -4.8480    1.4950   -0.2880 O   0  0  0  0  0  0  0  0  0  0  0  0
   -3.0920    0.0110   -0.0890 C   0  0  0  0  0  0  0  0  0  0  0  0
   -1.7330   -0.1980   -0.0020 C   0  0  0  0  0  0  0  0  0  0  0  0
   -1.3800   -1.5680    0.0060 N   0  0  0  0  0  0  0  0  0  0  0  0
   -2.3200   -2.3800    0.8010 C   0  0  0  0  0  0  0  0  0  0  0  0
   -3.8450   -1.6000    0.0490 S   0  0  0  0  0  0  0  0  0  0  0  0
  1  2  1  0
  2  3  1  0
  3  4  2  0
  3  5  1  0
  5  6  2  3
  6  7  1  0
  7  8  2  0
  7 13  1  0
  8  9  1  0
  9 10  1  0
 10 11  2  0
 10 12  1  0
 12 13  2  0
 12 16  1  0
 13 14  1  0
 14 15  1  0
 15 16  1  0
M  END
