
     RDKit          3D

 16 16  0  0  0  0  0  0  0  0999 V2000
   -3.4750    1.2450    0.4140 C   0  0  0  0  0  0  0  0  0  0  0  0
   -2.5650    0.0810    0.3940 C   0  0  0  0  0  0  0  0  0  0  0  0
   -1.2490    0.2080    0.5570 C   0  0  0  0  0  0  0  0  0  0  0  0
   -0.7280    1.5560    0.7590 C   0  0  0  0  0  0  0  0  0  0  0  0
   -1.4640    2.5950    0.7590 O   0  0  0  0  0  0  0  0  0  0  0  0
    0.6220    1.8290    0.9740 O   0  0  0  0  0  0  0  0  0  0  0  0
   -0.3800   -0.9610    0.5800 C   0  0  0  0  0  0  0  0  0  0  0  0
    1.0250   -0.8030    0.7500 N   0  0  0  0  0  0  0  0  0  0  0  0
    1.8170   -0.2470   -0.2830 C   0  0  0  0  0  0  0  0  0  0  0  0
    1.2660    0.0940   -1.3560 O   0  0  0  0  0  0  0  0  0  0  0  0
    3.2600   -0.0630   -0.1230 C   0  0  0  0  0  0  0  0  0  0  0  0
    3.9220    0.5420   -1.3320 C   0  0  0  0  0  0  0  0  0  0  0  0
    3.4420    1.7820   -1.6690 O   0  0  0  0  0  0  0  0  0  0  0  0
   -0.9080   -2.1750    0.4440 C   0  0  0  0  0  0  0  0  0  0  0  0
   -2.3450   -2.4420    0.2670 C   0  0  0  0  0  0  0  0  0  0  0  0
   -3.1170   -1.2360    0.1890 N   0  0  0  0  0  0  0  0  0  0  0  0
  1  2  1  0
  2  3  2  0
  2 16  1  0
  3  4  1  0
  3  7  1  0
  4  5  2  0
  4  6  1  0
  7  8  1  0
  7 14  2  0
  8  9  1  0
  9 10  2  0
  9 11  1  0
 11 12  1  0
 12 13  1  0
 14 15  1  0
 15 16  1  0
M  END
