
     RDKit          3D

 16 17  0  0  0  0  0  0  0  0999 V2000
    4.0620    0.2640    0.5710 C   0  0  0  0  0  0  0  0  0  0  0  0
    3.0820   -0.6920    0.8270 O   0  0  0  0  0  0  0  0  0  0  0  0
    1.7640   -0.5980    0.4280 C   0  0  0  0  0  0  0  0  0  0  0  0
    1.3180    0.4990   -0.2790 C   0  0  0  0  0  0  0  0  0  0  0  0
    0.0300    0.6420   -0.6960 C   0  0  0  0  0  0  0  0  0  0  0  0
   -0.5820    2.0360   -1.6060 S   0  0  0  0  0  0  0  0  0  0  0  0
   -1.1810    3.3080   -0.4950 C   0  0  0  0  0  0  0  0  0  0  0  0
   -0.8650   -0.3850   -0.3810 C   0  0  0  0  0  0  0  0  0  0  0  0
   -2.1790   -0.2700   -0.7890 C   0  0  0  0  0  0  0  0  0  0  0  0
   -2.5470    0.7590   -1.4390 O   0  0  0  0  0  0  0  0  0  0  0  0
   -3.0280   -1.2570   -0.4830 N   0  0  0  0  0  0  0  0  0  0  0  0
   -2.6260   -2.3400    0.2050 C   0  0  0  0  0  0  0  0  0  0  0  0
   -3.4710   -3.2370    0.4630 O   0  0  0  0  0  0  0  0  0  0  0  0
   -1.3560   -2.4710    0.6100 N   0  0  0  0  0  0  0  0  0  0  0  0
   -0.4640   -1.4900    0.3190 C   0  0  0  0  0  0  0  0  0  0  0  0
    0.8580   -1.5910    0.7220 C   0  0  0  0  0  0  0  0  0  0  0  0
  1  2  1  0
  2  3  1  0
  3  4  2  0
  3 16  1  0
  4  5  1  0
  5  6  1  0
  5  8  2  0
  6  7  1  0
  8  9  1  0
  8 15  1  0
  9 10  2  0
  9 11  1  0
 11 12  1  0
 12 13  2  0
 12 14  1  0
 14 15  1  0
 15 16  2  0
M  END
