
     RDKit          3D

 16 17  0  0  0  0  0  0  0  0999 V2000
    4.0510    1.4670    0.3790 C   0  0  0  0  0  0  0  0  0  0  0  0
    3.5350    0.1650    0.0090 N   0  0  0  0  0  0  0  0  0  0  0  0
    2.2890    0.0190   -0.6580 C   0  0  0  0  0  0  0  0  0  0  0  0
    1.5840    1.0410   -0.9520 O   0  0  0  0  0  0  0  0  0  0  0  0
    1.7960   -1.2690   -1.0150 N   0  0  0  0  0  0  0  0  0  0  0  0
    0.5250   -1.4360   -1.6960 C   0  0  0  0  0  0  0  0  0  0  0  0
   -0.6110   -0.9030   -0.9130 C   0  0  0  0  0  0  0  0  0  0  0  0
   -1.3040   -1.6930   -0.0160 C   0  0  0  0  0  0  0  0  0  0  0  0
   -2.3670   -1.2610    0.7420 C   0  0  0  0  0  0  0  0  0  0  0  0
   -2.9510   -2.0290    1.5360 O   0  0  0  0  0  0  0  0  0  0  0  0
   -2.7730    0.0990    0.5820 C   0  0  0  0  0  0  0  0  0  0  0  0
   -3.7780    0.6960    1.2260 C   0  0  0  0  0  0  0  0  0  0  0  0
   -4.0180    2.0420    0.9270 C   0  0  0  0  0  0  0  0  0  0  0  0
   -2.7680    2.4210   -0.2970 S   0  0  0  0  0  0  0  0  0  0  0  0
   -2.0320    0.7750   -0.3150 C   0  0  0  0  0  0  0  0  0  0  0  0
   -1.0160    0.3260   -1.0250 O   0  0  0  0  0  0  0  0  0  0  0  0
  1  2  1  0
  2  3  1  0
  3  4  2  0
  3  5  1  0
  5  6  1  0
  6  7  1  0
  7  8  2  0
  7 16  1  0
  8  9  1  0
  9 10  2  0
  9 11  1  0
 11 12  1  0
 11 15  2  0
 12 13  2  0
 13 14  1  0
 14 15  1  0
 15 16  1  0
M  END
