
     RDKit          3D

 15 15  0  0  0  0  0  0  0  0999 V2000
    4.5470    0.5330    0.1280 N   0  0  0  0  0  0  0  0  0  0  0  0
    3.8610   -0.7040    0.3540 C   0  0  0  0  0  0  0  0  0  0  0  0
    2.4270   -0.6830   -0.2330 C   0  0  0  0  0  0  0  0  0  0  0  0
    1.6850    0.4310    0.4280 C   0  0  1  0  0  0  0  0  0  0  0  0
    2.4390    1.6080    0.1220 O   0  0  0  0  0  0  0  0  0  0  0  0
    0.2780    0.6880   -0.0170 C   0  0  0  0  0  0  0  0  0  0  0  0
   -0.6960   -0.3820    0.1590 C   0  0  2  0  0  0  0  0  0  0  0  0
   -0.3610   -1.6340   -0.6040 C   0  0  0  0  0  0  0  0  0  0  0  0
   -1.5630   -2.1750   -1.1780 O   0  0  0  0  0  0  0  0  0  0  0  0
   -2.4570   -2.4500   -0.1230 C   0  0  0  0  0  0  0  0  0  0  0  0
   -2.7840   -1.1810    0.6370 C   0  0  0  0  0  0  0  0  0  0  0  0
   -2.0900   -0.0960   -0.1450 N   0  0  0  0  0  0  0  0  0  0  0  0
   -2.6140    1.1530    0.2270 C   0  0  0  0  0  0  0  0  0  0  0  0
   -2.3460    2.2480   -0.7520 C   0  0  0  0  0  0  0  0  0  0  0  0
   -2.9210    3.4340   -0.2430 O   0  0  0  0  0  0  0  0  0  0  0  0
  1  2  1  0
  2  3  1  0
  3  4  1  0
  4  5  1  6
  4  6  1  0
  7  6  1  6
  7  8  1  0
  7 12  1  0
  8  9  1  0
  9 10  1  0
 10 11  1  0
 11 12  1  0
 12 13  1  0
 13 14  1  0
 14 15  1  0
M  END
