
     RDKit          3D

 37 42  0  0  0  0  0  0  0  0999 V2000
   -9.2980   -1.1510    1.2200 C   0  0  0  0  0  0  0  0  0  0  0  0
   -9.5150    0.3220    1.1690 C   0  0  0  0  0  0  0  0  0  0  0  0
  -10.4770    1.0130    1.8810 C   0  0  0  0  0  0  0  0  0  0  0  0
  -10.3550    2.3400    1.5640 C   0  0  0  0  0  0  0  0  0  0  0  0
   -9.3120    2.4200    0.6600 C   0  0  0  0  0  0  0  0  0  0  0  0
   -8.8130    1.1950    0.4290 N   0  0  0  0  0  0  0  0  0  0  0  0
   -7.7460    0.8260   -0.4260 C   0  0  0  0  0  0  0  0  0  0  0  0
   -6.4450    0.6610   -0.0020 C   0  0  0  0  0  0  0  0  0  0  0  0
   -5.4090    0.3020   -0.8380 C   0  0  0  0  0  0  0  0  0  0  0  0
   -4.1080    0.1580   -0.2990 N   0  0  0  0  0  0  0  0  0  0  0  0
   -3.7360   -0.1990    0.9300 C   0  0  0  0  0  0  0  0  0  0  0  0
   -2.3840   -0.1950    0.9640 N   0  0  0  0  0  0  0  0  0  0  0  0
   -1.9290    0.1630   -0.2460 C   0  0  0  0  0  0  0  0  0  0  0  0
   -0.5030    0.3100   -0.7100 C   0  0  0  0  0  0  0  0  0  0  0  0
   -0.0790   -1.0110   -1.2460 C   0  0  0  0  0  0  0  0  0  0  0  0
    1.1880   -1.1450   -1.7300 O   0  0  0  0  0  0  0  0  0  0  0  0
    2.3550   -1.0430   -1.0330 C   0  0  0  0  0  0  0  0  0  0  0  0
    3.5840   -1.1730   -1.7120 C   0  0  0  0  0  0  0  0  0  0  0  0
    4.7740   -1.0810   -1.0470 C   0  0  0  0  0  0  0  0  0  0  0  0
    4.8030   -0.8570    0.3120 C   0  0  0  0  0  0  0  0  0  0  0  0
    3.6000   -0.7330    0.9570 C   0  0  0  0  0  0  0  0  0  0  0  0
    3.9400   -0.5160    2.2950 C   0  0  0  0  0  0  0  0  0  0  0  0
    5.3170   -0.5120    2.4330 C   0  0  0  0  0  0  0  0  0  0  0  0
    5.8170   -0.7220    1.2090 N   0  0  0  0  0  0  0  0  0  0  0  0
    7.2020   -0.8030    0.8340 C   0  0  0  0  0  0  0  0  0  0  0  0
    7.7220    0.5910    0.4610 C   0  0  0  0  0  0  0  0  0  0  0  0
    9.1420    0.4680    0.0790 C   0  0  0  0  0  0  0  0  0  0  0  0
    9.6380    0.4970   -1.2000 C   0  0  0  0  0  0  0  0  0  0  0  0
   10.9850    0.3520   -1.1440 N   0  0  0  0  0  0  0  0  0  0  0  0
   11.3080    0.2380    0.1290 N   0  0  0  0  0  0  0  0  0  0  0  0
   10.2130    0.3020    0.9190 C   0  0  0  0  0  0  0  0  0  0  0  0
   10.2360    0.2210    2.1650 O   0  0  0  0  0  0  0  0  0  0  0  0
    2.3590   -0.8200    0.3210 C   0  0  0  0  0  0  0  0  0  0  0  0
   -2.9990    0.3740   -1.0000 N   0  0  0  0  0  0  0  0  0  0  0  0
   -5.6960    0.0990   -2.1680 C   0  0  0  0  0  0  0  0  0  0  0  0
   -6.9990    0.2630   -2.6040 C   0  0  0  0  0  0  0  0  0  0  0  0
   -7.9780    0.6140   -1.7510 N   0  0  0  0  0  0  0  0  0  0  0  0
  1  2  1  0
  2  3  2  0
  2  6  1  0
  3  4  1  0
  4  5  2  0
  5  6  1  0
  6  7  1  0
  7  8  2  0
  7 37  1  0
  8  9  1  0
  9 10  1  0
  9 35  2  0
 10 11  1  0
 10 34  1  0
 11 12  2  0
 12 13  1  0
 13 14  1  0
 13 34  2  0
 14 15  1  0
 15 16  1  0
 16 17  1  0
 17 18  2  0
 17 33  1  0
 18 19  1  0
 19 20  2  0
 20 21  1  0
 20 24  1  0
 21 22  1  0
 21 33  2  0
 22 23  2  0
 23 24  1  0
 24 25  1  0
 25 26  1  0
 26 27  1  0
 27 28  2  0
 27 31  1  0
 28 29  1  0
 29 30  1  0
 30 31  1  0
 31 32  2  0
 35 36  1  0
 36 37  2  0
M  END
