
     RDKit          3D

 36 40  0  0  0  0  0  0  0  0999 V2000
   -1.3000    3.9110   -0.1270 C   0  0  0  0  0  0  0  0  0  0  0  0
   -1.1910    2.4540   -0.0420 N   0  0  0  0  0  0  0  0  0  0  0  0
   -1.9610    1.9610    1.0960 C   0  0  0  0  0  0  0  0  0  0  0  0
   -1.8580    0.4620    1.1300 C   0  0  0  0  0  0  0  0  0  0  0  0
   -2.4030   -0.0940   -0.0660 N   0  0  0  0  0  0  0  0  0  0  0  0
   -1.8330    0.0100   -1.3860 C   0  0  0  0  0  0  0  0  0  0  0  0
   -1.6460   -1.4510   -1.8600 C   0  0  1  0  0  0  0  0  0  0  0  0
   -1.1310   -2.2070   -0.7010 C   0  0  0  0  0  0  0  0  0  0  0  0
   -1.9020   -2.9330    0.0190 O   0  0  0  0  0  0  0  0  0  0  0  0
    0.2600   -2.1550   -0.3410 C   0  0  0  0  0  0  0  0  0  0  0  0
    1.1150   -1.4530   -1.0570 C   0  0  0  0  0  0  0  0  0  0  0  0
    2.5050   -1.4180   -0.6700 C   0  0  0  0  0  0  0  0  0  0  0  0
    3.4000   -0.7550   -1.3160 C   0  0  0  0  0  0  0  0  0  0  0  0
    3.1400    0.0490   -2.5230 C   0  0  0  0  0  0  0  0  0  0  0  0
    3.7830    1.4030   -2.3250 C   0  0  0  0  0  0  0  0  0  0  0  0
    3.6440    2.3380   -3.1470 O   0  0  0  0  0  0  0  0  0  0  0  0
    4.5990    1.6400   -1.1280 C   0  0  0  0  0  0  0  0  0  0  0  0
    5.0050    2.7770   -0.5070 N   0  0  0  0  0  0  0  0  0  0  0  0
    5.7480    2.4960    0.5660 C   0  0  0  0  0  0  0  0  0  0  0  0
    6.3580    3.4840    1.4900 C   0  0  0  0  0  0  0  0  0  0  0  0
    5.8570    1.1120    0.6880 C   0  0  0  0  0  0  0  0  0  0  0  0
    6.5810    0.3840    1.7160 C   0  0  0  0  0  0  0  0  0  0  0  0
    6.6890   -1.0690    1.8260 C   0  0  0  0  0  0  0  0  0  0  0  0
    7.1790    1.0810    2.6070 O   0  0  0  0  0  0  0  0  0  0  0  0
    5.1310    0.6100   -0.3810 C   0  0  0  0  0  0  0  0  0  0  0  0
    4.8270   -0.7710   -0.8510 C   0  0  0  0  0  0  0  0  0  0  0  0
   -3.0000   -1.8890   -2.0720 O   0  0  0  0  0  0  0  0  0  0  0  0
   -3.8980   -1.7260   -1.0370 C   0  0  0  0  0  0  0  0  0  0  0  0
   -5.0930   -2.4400   -0.9760 C   0  0  0  0  0  0  0  0  0  0  0  0
   -6.0000   -2.2850    0.0530 C   0  0  0  0  0  0  0  0  0  0  0  0
   -5.7130   -1.3920    1.0590 C   0  0  0  0  0  0  0  0  0  0  0  0
   -4.5180   -0.6580    1.0290 C   0  0  0  0  0  0  0  0  0  0  0  0
   -3.6470   -0.8350   -0.0010 C   0  0  0  0  0  0  0  0  0  0  0  0
   -6.8100   -1.3850    2.0340 C   0  0  0  0  0  0  0  0  0  0  0  0
   -7.9730   -1.9550    1.2520 C   0  0  0  0  0  0  0  0  0  0  0  0
   -7.3170   -2.9520    0.2860 C   0  0  0  0  0  0  0  0  0  0  0  0
  1  2  1  0
  2  3  1  0
  3  4  1  0
  4  5  1  0
  5  6  1  0
  5 33  1  0
  6  7  1  0
  7  8  1  1
  7 27  1  0
  8  9  2  0
  8 10  1  0
 10 11  2  3
 11 12  1  0
 12 13  2  3
 13 14  1  0
 13 26  1  0
 14 15  1  0
 15 16  2  0
 15 17  1  0
 17 18  1  0
 17 25  2  0
 18 19  1  0
 19 20  1  0
 19 21  2  0
 21 22  1  0
 21 25  1  0
 22 23  1  0
 22 24  2  0
 25 26  1  0
 27 28  1  0
 28 29  2  0
 28 33  1  0
 29 30  1  0
 30 31  2  0
 30 36  1  0
 31 32  1  0
 31 34  1  0
 32 33  2  0
 34 35  1  0
 35 36  1  0
M  END
