
     RDKit          3D

 37 42  0  0  0  0  0  0  0  0999 V2000
    2.1360   -1.6280   -0.7090 O   0  0  0  0  0  0  0  0  0  0  0  0
    2.9510   -0.7990   -0.2320 C   0  0  0  0  0  0  0  0  0  0  0  0
    2.7070    0.2180    0.7710 C   0  0  0  0  0  0  0  0  0  0  0  0
    1.6130    0.5090    1.4300 C   0  0  0  0  0  0  0  0  0  0  0  0
    0.3510   -0.1760    1.2800 C   0  0  0  0  0  0  0  0  0  0  0  0
   -0.8260    0.5190    1.0390 C   0  0  0  0  0  0  0  0  0  0  0  0
   -1.9990   -0.1520    0.9350 C   0  0  0  0  0  0  0  0  0  0  0  0
   -2.0670   -1.5070    1.0600 C   0  0  0  0  0  0  0  0  0  0  0  0
   -3.2490   -2.2920    0.9650 N   0  0  0  0  0  0  0  0  0  0  0  0
   -3.6770   -2.6780   -0.2590 N   0  0  0  0  0  0  0  0  0  0  0  0
   -4.6820   -2.4080   -0.9330 C   0  0  0  0  0  0  0  0  0  0  0  0
   -5.8070   -1.5370   -0.6230 C   0  0  0  0  0  0  0  0  0  0  0  0
   -6.8510   -1.4270   -1.5550 C   0  0  0  0  0  0  0  0  0  0  0  0
   -7.9270   -0.6550   -1.3480 N   0  0  0  0  0  0  0  0  0  0  0  0
   -8.0100    0.0460   -0.1990 C   0  0  0  0  0  0  0  0  0  0  0  0
   -9.1820    0.8730    0.0160 C   0  0  0  0  0  0  0  0  0  0  0  0
  -10.1990    1.0410   -0.8280 C   0  0  0  0  0  0  0  0  0  0  0  0
  -11.1930    1.9690   -0.2190 C   0  0  0  0  0  0  0  0  0  0  0  0
  -10.5710    2.2800    1.0860 C   0  0  0  0  0  0  0  0  0  0  0  0
   -9.4210    1.6580    1.2270 C   0  0  0  0  0  0  0  0  0  0  0  0
   -7.0370   -0.0320    0.7090 N   0  0  0  0  0  0  0  0  0  0  0  0
   -5.9260   -0.8090    0.5320 C   0  0  0  0  0  0  0  0  0  0  0  0
   -0.9170   -2.1930    1.2970 N   0  0  0  0  0  0  0  0  0  0  0  0
    0.2630   -1.5630    1.4070 C   0  0  0  0  0  0  0  0  0  0  0  0
    3.9800    0.8840    0.9390 N   0  0  0  0  0  0  0  0  0  0  0  0
    4.8740    0.3660    0.1670 C   0  0  0  0  0  0  0  0  0  0  0  0
    6.2520    0.6630   -0.0330 N   0  0  0  0  0  0  0  0  0  0  0  0
    6.7830    1.9190    0.4210 C   0  0  0  0  0  0  0  0  0  0  0  0
    8.2330    2.0230    0.0610 C   0  0  0  0  0  0  0  0  0  0  0  0
    9.3220    1.6420    0.8070 C   0  0  0  0  0  0  0  0  0  0  0  0
   10.4560    1.9380    0.0510 C   0  0  0  0  0  0  0  0  0  0  0  0
    9.9780    2.4860   -1.1210 C   0  0  0  0  0  0  0  0  0  0  0  0
    8.6740    2.5230   -1.0850 O   0  0  0  0  0  0  0  0  0  0  0  0
    7.0800   -0.3040   -0.6850 C   0  0  0  0  0  0  0  0  0  0  0  0
    6.4270   -1.0190   -1.8410 C   0  0  0  0  0  0  0  0  0  0  0  0
    5.0500   -1.4860   -1.5610 C   0  0  0  0  0  0  0  0  0  0  0  0
    4.3350   -0.6840   -0.5980 N   0  0  0  0  0  0  0  0  0  0  0  0
  1  2  2  0
  2  3  1  0
  2 37  1  0
  3  4  2  3
  3 25  1  0
  4  5  1  0
  5  6  2  0
  5 24  1  0
  6  7  1  0
  7  8  2  0
  8  9  1  0
  8 23  1  0
  9 10  1  0
 10 11  2  3
 11 12  1  0
 12 13  2  0
 12 22  1  0
 13 14  1  0
 14 15  2  0
 15 16  1  0
 15 21  1  0
 16 17  2  0
 16 20  1  0
 17 18  1  0
 18 19  1  0
 19 20  2  0
 21 22  2  0
 23 24  2  0
 25 26  2  0
 26 27  1  0
 26 37  1  0
 27 28  1  0
 27 34  1  0
 28 29  1  0
 29 30  2  0
 29 33  1  0
 30 31  1  0
 31 32  2  0
 32 33  1  0
 34 35  1  0
 35 36  1  0
 36 37  1  0
M  END
