
     RDKit          3D

 37 42  0  0  0  0  0  0  0  0999 V2000
    0.2970   -1.0860   -5.3440 C   0  0  0  0  0  0  0  0  0  0  0  0
   -0.5320   -1.0590   -4.0900 C   0  0  0  0  0  0  0  0  0  0  0  0
   -1.7930   -0.4980   -4.0830 C   0  0  0  0  0  0  0  0  0  0  0  0
   -2.5430   -0.4790   -2.9280 C   0  0  0  0  0  0  0  0  0  0  0  0
   -2.0910   -1.0100   -1.7230 C   0  0  0  0  0  0  0  0  0  0  0  0
   -2.9180   -0.9630   -0.5640 N   0  0  0  0  0  0  0  0  0  0  0  0
   -3.6700    0.1180   -0.1990 C   0  0  0  0  0  0  0  0  0  0  0  0
   -4.3660   -0.1720    0.9770 C   0  0  0  0  0  0  0  0  0  0  0  0
   -5.2800    0.7010    1.7020 C   0  0  0  0  0  0  0  0  0  0  0  0
   -5.6390    1.9550    1.3920 N   0  0  0  0  0  0  0  0  0  0  0  0
   -6.5050    2.4340    2.3050 C   0  0  0  0  0  0  0  0  0  0  0  0
   -7.1110    3.8060    2.2620 C   0  0  0  0  0  0  0  0  0  0  0  0
   -6.6940    1.4290    3.2270 C   0  0  0  0  0  0  0  0  0  0  0  0
   -7.3440    1.1440    4.3310 O   0  0  0  0  0  0  0  0  0  0  0  0
   -7.0070   -0.0840    4.6550 C   0  0  0  0  0  0  0  0  0  0  0  0
   -6.1270   -0.5800    3.7350 C   0  0  0  0  0  0  0  0  0  0  0  0
   -5.9310    0.3970    2.8210 N   0  0  0  0  0  0  0  0  0  0  0  0
   -3.9940   -1.4310    1.2680 N   0  0  0  0  0  0  0  0  0  0  0  0
   -3.1490   -1.8620    0.3480 N   0  0  0  0  0  0  0  0  0  0  0  0
   -0.8300   -1.5660   -1.7450 C   0  0  0  0  0  0  0  0  0  0  0  0
   -0.2930   -2.1480   -0.5120 C   0  0  0  0  0  0  0  0  0  0  0  0
    0.1370   -1.1260    0.5060 C   0  0  0  0  0  0  0  0  0  0  0  0
    1.1820   -0.2050    0.0680 C   0  0  0  0  0  0  0  0  0  0  0  0
    1.6610   -0.2190   -1.0900 O   0  0  0  0  0  0  0  0  0  0  0  0
    1.7310    0.7820    0.9430 N   0  0  0  0  0  0  0  0  0  0  0  0
    2.7680    1.6970    0.5070 C   0  0  0  0  0  0  0  0  0  0  0  0
    4.0970    1.0440    0.4250 C   0  0  0  0  0  0  0  0  0  0  0  0
    4.8590    0.8090    1.5490 C   0  0  0  0  0  0  0  0  0  0  0  0
    6.1120    0.1980    1.4720 C   0  0  0  0  0  0  0  0  0  0  0  0
    6.6200   -0.1870    0.2680 C   0  0  0  0  0  0  0  0  0  0  0  0
    5.8720    0.0400   -0.8700 C   0  0  0  0  0  0  0  0  0  0  0  0
    6.6110   -0.4400   -1.9320 C   0  0  0  0  0  0  0  0  0  0  0  0
    7.7570   -0.9350   -1.4520 N   0  0  0  0  0  0  0  0  0  0  0  0
    7.7620   -0.7840   -0.1450 N   0  0  0  0  0  0  0  0  0  0  0  0
    8.8120   -1.1820    0.7760 C   0  0  0  0  0  0  0  0  0  0  0  0
    4.6460    0.6400   -0.7820 C   0  0  0  0  0  0  0  0  0  0  0  0
   -0.0650   -1.5890   -2.9120 C   0  0  0  0  0  0  0  0  0  0  0  0
  1  2  1  0
  2  3  2  0
  2 37  1  0
  3  4  1  0
  4  5  2  0
  5  6  1  0
  5 20  1  0
  6  7  1  0
  6 19  1  0
  7  8  2  0
  8  9  1  0
  8 18  1  0
  9 10  2  0
  9 17  1  0
 10 11  1  0
 11 12  1  0
 11 13  2  0
 13 14  1  0
 13 17  1  0
 14 15  1  0
 15 16  2  0
 16 17  1  0
 18 19  2  0
 20 21  1  0
 20 37  2  0
 21 22  1  0
 22 23  1  0
 23 24  2  0
 23 25  1  0
 25 26  1  0
 26 27  1  0
 27 28  2  0
 27 36  1  0
 28 29  1  0
 29 30  2  0
 30 31  1  0
 30 34  1  0
 31 32  1  0
 31 36  2  0
 32 33  2  0
 33 34  1  0
 34 35  1  0
M  END
