
     RDKit          3D

 37 38  0  0  0  0  0  0  0  0999 V2000
   -2.6380    2.1630    2.3830 C   0  0  0  0  0  0  0  0  0  0  0  0
   -3.7440    1.4170    1.6780 C   0  0  2  0  0  0  0  0  0  0  0  0
   -4.7430    0.8120    2.6600 C   0  0  0  0  0  0  0  0  0  0  0  0
   -3.1990    0.3700    0.7430 C   0  0  0  0  0  0  0  0  0  0  0  0
   -2.3380    1.0620   -0.3020 C   0  0  2  0  0  0  0  0  0  0  0  0
   -3.2390    1.9950   -0.9840 N   0  0  0  0  0  0  0  0  0  0  0  0
   -3.0030    3.3800   -1.0370 C   0  0  0  0  0  0  0  0  0  0  0  0
   -1.9940    3.8800   -0.4950 O   0  0  0  0  0  0  0  0  0  0  0  0
   -3.9660    4.2690   -1.7480 C   0  0  2  0  0  0  0  0  0  0  0  0
   -4.0230    3.8630   -3.0770 F   0  0  0  0  0  0  0  0  0  0  0  0
   -3.5760    5.5830   -1.6220 F   0  0  0  0  0  0  0  0  0  0  0  0
   -5.2060    4.0500   -1.1560 F   0  0  0  0  0  0  0  0  0  0  0  0
   -1.8430    0.0530   -1.3020 C   0  0  0  0  0  0  0  0  0  0  0  0
   -2.2500    0.1390   -2.4700 O   0  0  0  0  0  0  0  0  0  0  0  0
   -0.9500   -0.9510   -0.9190 N   0  0  0  0  0  0  0  0  0  0  0  0
   -0.4180   -1.9410   -1.7240 N   0  0  1  0  0  0  0  0  0  0  0  0
    0.1260   -1.3500   -2.9250 C   0  0  0  0  0  0  0  0  0  0  0  0
    0.5300   -2.7780   -1.0750 C   0  0  0  0  0  0  0  0  0  0  0  0
    1.7240   -2.0630   -0.5430 C   0  0  0  0  0  0  0  0  0  0  0  0
    2.6170   -2.7790    0.0460 O   0  0  0  0  0  0  0  0  0  0  0  0
    1.9620   -0.6840   -0.6260 N   0  0  0  0  0  0  0  0  0  0  0  0
    3.0900    0.0300   -0.1380 C   0  0  0  0  0  0  0  0  0  0  0  0
    4.2550   -0.5280    0.3150 C   0  0  0  0  0  0  0  0  0  0  0  0
    5.3310    0.2330    0.7990 C   0  0  0  0  0  0  0  0  0  0  0  0
    5.2530    1.6030    0.8360 C   0  0  0  0  0  0  0  0  0  0  0  0
    6.3690    2.4550    1.3380 C   0  0  2  0  0  0  0  0  0  0  0  0
    5.9550    3.2540    2.5500 C   0  0  0  0  0  0  0  0  0  0  0  0
    6.8750    3.3680    0.2310 C   0  0  0  0  0  0  0  0  0  0  0  0
    4.0830    2.1700    0.3810 C   0  0  0  0  0  0  0  0  0  0  0  0
    3.0290    1.4340   -0.0920 C   0  0  0  0  0  0  0  0  0  0  0  0
   -1.5190   -2.8090   -2.1440 C   0  0  0  0  0  0  0  0  0  0  0  0
   -1.9180   -3.7940   -1.1290 C   0  0  0  0  0  0  0  0  0  0  0  0
   -2.7660   -3.5160   -0.0860 C   0  0  0  0  0  0  0  0  0  0  0  0
   -3.1100   -4.4720    0.8320 C   0  0  0  0  0  0  0  0  0  0  0  0
   -2.5940   -5.7430    0.7070 C   0  0  0  0  0  0  0  0  0  0  0  0
   -1.7390   -6.0630   -0.3250 C   0  0  0  0  0  0  0  0  0  0  0  0
   -1.4170   -5.0740   -1.2280 C   0  0  0  0  0  0  0  0  0  0  0  0
  2  1  1  1
  2  3  1  0
  2  4  1  0
  5  4  1  1
  5  6  1  0
  5 13  1  0
  6  7  1  0
  7  8  2  0
  7  9  1  0
  9 10  1  6
  9 11  1  0
  9 12  1  0
 13 14  2  0
 13 15  1  0
 15 16  1  0
 16 17  1  6
 16 18  1  0
 16 31  1  0
 18 19  1  0
 19 20  2  0
 19 21  1  0
 21 22  1  0
 22 23  2  0
 22 30  1  0
 23 24  1  0
 24 25  2  0
 25 26  1  0
 25 29  1  0
 26 27  1  1
 26 28  1  0
 29 30  2  0
 31 32  1  0
 32 33  2  0
 32 37  1  0
 33 34  1  0
 34 35  2  0
 35 36  1  0
 36 37  2  0
M  CHG  1  16   1
M  END
