
     RDKit          3D

 24 26  0  0  0  0  0  0  0  0999 V2000
   -8.7820   -0.6490    0.0950 C   0  0  0  0  0  0  0  0  0  0  0  0
   -7.5740   -0.0960    0.6070 O   0  0  0  0  0  0  0  0  0  0  0  0
   -6.3400   -0.4550    0.0990 C   0  0  0  0  0  0  0  0  0  0  0  0
   -6.3110   -1.2980   -0.8460 O   0  0  0  0  0  0  0  0  0  0  0  0
   -5.0650    0.0890    0.5950 C   0  0  0  0  0  0  0  0  0  0  0  0
   -3.9640   -0.4310   -0.0820 O   0  0  0  0  0  0  0  0  0  0  0  0
   -2.6520   -0.0900    0.1850 C   0  0  0  0  0  0  0  0  0  0  0  0
   -2.3700    0.8220    1.1780 C   0  0  0  0  0  0  0  0  0  0  0  0
   -1.0430    1.1550    1.4350 C   0  0  0  0  0  0  0  0  0  0  0  0
    0.0060    0.5970    0.7200 C   0  0  0  0  0  0  0  0  0  0  0  0
    1.3390    0.7210    0.7430 N   0  0  0  0  0  0  0  0  0  0  0  0
    1.9190   -0.0830   -0.2060 C   0  0  0  0  0  0  0  0  0  0  0  0
    3.3490   -0.1690   -0.4270 C   0  0  0  0  0  0  0  0  0  0  0  0
    4.1730    0.5500    0.3050 C   0  0  0  0  0  0  0  0  0  0  0  0
    5.6210    0.4740    0.0930 C   0  0  0  0  0  0  0  0  0  0  0  0
    6.4650    1.0380    0.9300 C   0  0  0  0  0  0  0  0  0  0  0  0
    8.2330    0.9750    0.7200 S   0  0  0  0  0  0  0  0  0  0  0  0
    6.1940   -0.2420   -1.0720 C   0  0  0  0  0  0  0  0  0  0  0  0
    5.2850   -1.1490   -1.6870 N   0  0  0  0  0  0  0  0  0  0  0  0
    3.8830   -1.0450   -1.4510 C   0  0  0  0  0  0  0  0  0  0  0  0
    3.1580   -1.7640   -2.1900 O   0  0  0  0  0  0  0  0  0  0  0  0
    0.8810   -0.6920   -0.7960 N   0  0  0  0  0  0  0  0  0  0  0  0
   -0.2950   -0.3120   -0.2680 C   0  0  0  0  0  0  0  0  0  0  0  0
   -1.6050   -0.6550   -0.5370 C   0  0  0  0  0  0  0  0  0  0  0  0
  1  2  1  0
  2  3  1  0
  3  4  2  0
  3  5  1  0
  5  6  1  0
  6  7  1  0
  7  8  2  0
  7 24  1  0
  8  9  1  0
  9 10  2  0
 10 11  1  0
 10 23  1  0
 11 12  2  0
 12 13  1  0
 12 22  1  0
 13 14  2  0
 13 20  1  0
 14 15  1  0
 15 16  2  3
 15 18  1  0
 16 17  1  0
 18 19  1  0
 19 20  1  0
 20 21  2  0
 22 23  1  0
 23 24  2  0
M  END
