
     RDKit          3D

 24 26  0  0  0  0  0  0  0  0999 V2000
    5.6080   -1.8530   -2.2820 C   0  0  0  0  0  0  0  0  0  0  0  0
    5.5840   -1.3600   -1.0300 C   0  0  0  0  0  0  0  0  0  0  0  0
    4.4610   -0.8020   -0.3720 C   0  0  0  0  0  0  0  0  0  0  0  0
    4.6140   -0.3690    0.8500 C   0  0  0  0  0  0  0  0  0  0  0  0
    3.6330    0.2410    1.7410 C   0  0  0  0  0  0  0  0  0  0  0  0
    3.9220    0.6140    2.9020 O   0  0  0  0  0  0  0  0  0  0  0  0
    2.2760    0.4480    1.3330 N   0  0  0  0  0  0  0  0  0  0  0  0
    1.2910    1.0500    2.2000 C   0  0  0  0  0  0  0  0  0  0  0  0
    0.0030    1.1100    1.4630 C   0  0  0  0  0  0  0  0  0  0  0  0
   -0.0000    1.8460    0.2830 O   0  0  0  0  0  0  0  0  0  0  0  0
   -1.0650    0.5270    1.8670 N   0  0  0  0  0  0  0  0  0  0  0  0
   -2.2440    0.6450    1.0910 C   0  0  0  0  0  0  0  0  0  0  0  0
   -2.8650    1.8850    1.0020 C   0  0  0  0  0  0  0  0  0  0  0  0
   -4.0080    2.0450    0.2620 C   0  0  0  0  0  0  0  0  0  0  0  0
   -4.5470    0.9770   -0.3970 C   0  0  0  0  0  0  0  0  0  0  0  0
   -3.9440   -0.2630   -0.3210 C   0  0  0  0  0  0  0  0  0  0  0  0
   -2.7990   -0.4310    0.4180 C   0  0  0  0  0  0  0  0  0  0  0  0
   -4.5540   -1.2950   -1.0190 O   0  0  0  0  0  0  0  0  0  0  0  0
   -5.9410   -1.2880   -1.3260 C   0  0  0  0  0  0  0  0  0  0  0  0
   -6.4510    0.0790   -1.6760 C   0  0  0  0  0  0  0  0  0  0  0  0
   -5.6890    1.1200   -1.1410 O   0  0  0  0  0  0  0  0  0  0  0  0
    6.3190   -0.6530    1.3020 S   0  0  0  0  0  0  0  0  0  0  0  0
    6.8150   -1.3880   -0.2480 C   0  0  0  0  0  0  0  0  0  0  0  0
    7.9800   -1.8190   -0.5520 N   0  0  0  0  0  0  0  0  0  0  0  0
  1  2  2  0
  2  3  1  0
  2 23  1  0
  3  4  2  0
  4  5  1  0
  4 22  1  0
  5  6  2  0
  5  7  1  0
  7  8  1  0
  8  9  1  0
  9 10  1  0
  9 11  2  3
 11 12  1  0
 12 13  2  0
 12 17  1  0
 13 14  1  0
 14 15  2  0
 15 16  1  0
 15 21  1  0
 16 17  2  0
 16 18  1  0
 18 19  1  0
 19 20  1  0
 20 21  1  0
 22 23  1  0
 23 24  2  0
M  END
