
     RDKit          3D

 24 26  0  0  0  0  0  0  0  0999 V2000
   -5.7240   -2.2580   -1.1140 C   0  0  0  0  0  0  0  0  0  0  0  0
   -4.5290   -1.7650   -0.8250 C   0  0  0  0  0  0  0  0  0  0  0  0
   -4.3490   -0.4060   -0.4580 N   0  0  0  0  0  0  0  0  0  0  0  0
   -3.1990    0.0880   -0.1750 C   0  0  0  0  0  0  0  0  0  0  0  0
   -3.1430    1.4390    0.1720 O   0  0  0  0  0  0  0  0  0  0  0  0
   -4.2780    2.2470   -0.0600 C   0  0  0  0  0  0  0  0  0  0  0  0
   -4.0150    3.6630    0.3810 C   0  0  0  0  0  0  0  0  0  0  0  0
   -1.9490   -0.7060   -0.2030 C   0  0  0  0  0  0  0  0  0  0  0  0
   -0.7600   -0.0450    0.1270 N   0  0  0  0  0  0  0  0  0  0  0  0
    0.5510   -0.6040    0.1680 C   0  0  0  0  0  0  0  0  0  0  0  0
    0.7150   -1.7940   -0.1080 O   0  0  0  0  0  0  0  0  0  0  0  0
    1.6680    0.1910    0.5210 N   0  0  0  0  0  0  0  0  0  0  0  0
    3.0180   -0.2580    0.6050 C   0  0  0  0  0  0  0  0  0  0  0  0
    3.4310   -1.5610    0.6030 C   0  0  0  0  0  0  0  0  0  0  0  0
    4.7690   -1.8850    0.6700 C   0  0  0  0  0  0  0  0  0  0  0  0
    5.7820   -0.9070    0.7450 C   0  0  0  0  0  0  0  0  0  0  0  0
    5.3870    0.3670    0.7490 C   0  0  0  0  0  0  0  0  0  0  0  0
    4.0320    0.6970    0.6810 C   0  0  0  0  0  0  0  0  0  0  0  0
    6.4920    1.3940    0.8320 C   0  0  0  0  0  0  0  0  0  0  0  0
    7.8880    0.3520    0.3080 S   0  0  0  0  0  0  0  0  0  0  0  0
    7.1440   -1.1650    0.8140 O   0  0  0  0  0  0  0  0  0  0  0  0
   -2.0520   -1.9590   -0.5320 C   0  0  0  0  0  0  0  0  0  0  0  0
   -3.3430   -2.5950   -0.8700 C   0  0  0  0  0  0  0  0  0  0  0  0
   -3.4230   -3.8000   -1.1840 O   0  0  0  0  0  0  0  0  0  0  0  0
  1  2  2  0
  2  3  1  0
  2 23  1  0
  3  4  2  0
  4  5  1  0
  4  8  1  0
  5  6  1  0
  6  7  1  0
  8  9  1  0
  8 22  2  0
  9 10  1  0
 10 11  2  0
 10 12  1  0
 12 13  1  0
 13 14  2  0
 13 18  1  0
 14 15  1  0
 15 16  2  0
 16 17  1  0
 16 21  1  0
 17 18  2  0
 17 19  1  0
 19 20  1  0
 20 21  1  0
 22 23  1  0
 23 24  2  0
M  END
