
     RDKit          3D

 24 26  0  0  0  0  0  0  0  0999 V2000
    1.3350   -0.5480    0.3740 O   0  0  0  0  0  0  0  0  0  0  0  0
    1.9140   -0.6240   -0.7340 C   0  0  0  0  0  0  0  0  0  0  0  0
    3.2470   -0.1830   -1.0500 C   0  0  0  0  0  0  0  0  0  0  0  0
    4.1330    0.2960    0.0200 C   0  0  0  0  0  0  0  0  0  0  0  0
    3.8830    0.3830    1.2980 C   0  0  0  0  0  0  0  0  0  0  0  0
    4.8460    0.8810    2.3000 C   0  0  0  0  0  0  0  0  0  0  0  0
    6.0730    1.2430    1.7550 O   0  0  0  0  0  0  0  0  0  0  0  0
    6.3810    1.1680    0.4110 C   0  0  0  0  0  0  0  0  0  0  0  0
    5.4930    0.7270   -0.4400 C   0  0  0  0  0  0  0  0  0  0  0  0
    1.0740   -1.2410   -1.7570 N   0  0  0  0  0  0  0  0  0  0  0  0
   -0.2060   -1.6850   -1.5020 N   0  0  0  0  0  0  0  0  0  0  0  0
   -1.3080   -0.8990   -1.0890 C   0  0  0  0  0  0  0  0  0  0  0  0
   -1.1000    0.3210   -0.9410 O   0  0  0  0  0  0  0  0  0  0  0  0
   -2.6190   -1.4600   -0.8400 C   0  0  0  0  0  0  0  0  0  0  0  0
   -3.7690   -0.9590   -0.4790 C   0  0  0  0  0  0  0  0  0  0  0  0
   -3.9560    0.5020   -0.2250 C   0  0  0  0  0  0  0  0  0  0  0  0
   -3.6340    1.4340   -1.1590 C   0  0  0  0  0  0  0  0  0  0  0  0
   -3.8100    2.7840   -0.8380 C   0  0  0  0  0  0  0  0  0  0  0  0
   -4.2910    3.1600    0.3760 N   0  0  0  0  0  0  0  0  0  0  0  0
   -4.6080    2.2490    1.2930 C   0  0  0  0  0  0  0  0  0  0  0  0
   -4.4420    0.9340    0.9960 C   0  0  0  0  0  0  0  0  0  0  0  0
   -4.8120   -1.8200   -0.3370 O   0  0  0  0  0  0  0  0  0  0  0  0
   -4.4920   -3.1540   -0.0240 C   0  0  0  0  0  0  0  0  0  0  0  0
   -2.9360   -3.2510   -1.0060 S   0  0  0  0  0  0  0  0  0  0  0  0
  1  2  2  0
  2  3  1  0
  2 10  1  0
  3  4  1  0
  4  5  2  0
  4  9  1  0
  5  6  1  0
  6  7  1  0
  7  8  1  0
  8  9  2  0
 10 11  1  0
 11 12  1  0
 12 13  2  0
 12 14  1  0
 14 15  2  0
 14 24  1  0
 15 16  1  0
 15 22  1  0
 16 17  2  0
 16 21  1  0
 17 18  1  0
 18 19  2  0
 19 20  1  0
 20 21  2  0
 22 23  1  0
 23 24  1  0
M  END
