
     RDKit          3D

 21 22  0  0  0  0  0  0  0  0999 V2000
   -5.9060   -1.8240   -0.0510 C   0  0  0  0  0  0  0  0  0  0  0  0
   -4.6220   -1.1040    0.1580 C   0  0  0  0  0  0  0  0  0  0  0  0
   -4.6230    0.1580    0.7290 C   0  0  0  0  0  0  0  0  0  0  0  0
   -3.4200    0.8170    0.9180 C   0  0  0  0  0  0  0  0  0  0  0  0
   -2.2090    0.2690    0.5590 C   0  0  0  0  0  0  0  0  0  0  0  0
   -0.9060    0.9530    0.7500 C   0  0  0  0  0  0  0  0  0  0  0  0
   -0.6290    1.7140   -0.4260 N   0  0  0  0  0  0  0  0  0  0  0  0
    0.8580    2.5720   -0.3640 S   0  0  2  0  0  0  0  0  0  0  0  0
    0.8710    3.5290    0.7690 O   0  0  0  0  0  0  0  0  0  0  0  0
    0.9410    3.3940   -1.6390 O   0  0  0  0  0  0  0  0  0  0  0  0
    2.2280    1.5160   -0.2020 C   0  0  0  0  0  0  0  0  0  0  0  0
    3.1790    1.4620    0.8070 C   0  0  0  0  0  0  0  0  0  0  0  0
    4.1450    0.5330    0.6790 C   0  0  0  0  0  0  0  0  0  0  0  0
    4.1810   -0.2840   -0.3610 C   0  0  0  0  0  0  0  0  0  0  0  0
    5.2420   -1.5660   -0.8490 S   0  0  1  0  0  0  0  0  0  0  0  0
    6.4790   -1.7550    0.3080 N   0  0  0  0  0  0  0  0  0  0  0  0
    4.4630   -2.8270   -0.9600 O   0  0  0  0  0  0  0  0  0  0  0  0
    5.8770   -1.1640   -2.1520 O   0  0  0  0  0  0  0  0  0  0  0  0
    2.7230    0.2440   -1.3200 S   0  0  0  0  0  0  0  0  0  0  0  0
   -2.2070   -0.9860   -0.0090 C   0  0  0  0  0  0  0  0  0  0  0  0
   -3.4090   -1.6510   -0.2000 C   0  0  0  0  0  0  0  0  0  0  0  0
  1  2  1  0
  2  3  2  0
  2 21  1  0
  3  4  1  0
  4  5  2  0
  5  6  1  0
  5 20  1  0
  6  7  1  0
  8  7  1  6
  8  9  2  0
  8 10  2  0
  8 11  1  0
 11 12  2  0
 11 19  1  0
 12 13  1  0
 13 14  2  0
 14 15  1  0
 14 19  1  0
 15 16  1  1
 15 17  2  0
 15 18  2  0
 20 21  2  0
M  END
