
     RDKit          3D

 24 26  0  0  0  0  0  0  0  0999 V2000
   -1.1970   -4.8590    0.1780 C   0  0  0  0  0  0  0  0  0  0  0  0
   -0.3790   -3.7320    0.4180 O   0  0  0  0  0  0  0  0  0  0  0  0
   -0.8480   -2.4530    0.1110 C   0  0  0  0  0  0  0  0  0  0  0  0
   -0.0600   -1.3430    0.3400 C   0  0  0  0  0  0  0  0  0  0  0  0
   -0.5420   -0.0930    0.0320 C   0  0  0  0  0  0  0  0  0  0  0  0
    0.3890    1.4070    0.2860 S   0  0  0  0  0  0  0  0  0  0  0  0
    1.9860    1.1030    0.9730 C   0  0  0  0  0  0  0  0  0  0  0  0
    2.1410    1.0830    2.3330 C   0  0  0  0  0  0  0  0  0  0  0  0
    3.3850    0.8460    2.8570 C   0  0  0  0  0  0  0  0  0  0  0  0
    4.4430    0.6350    2.0020 C   0  0  0  0  0  0  0  0  0  0  0  0
    4.2890    0.6560    0.6590 N   0  0  0  0  0  0  0  0  0  0  0  0
    5.4530    0.4250   -0.1850 C   0  0  0  0  0  0  0  0  0  0  0  0
    3.0680    0.8880    0.1460 C   0  0  0  0  0  0  0  0  0  0  0  0
    2.9720    0.8980   -1.1110 O   0  0  0  0  0  0  0  0  0  0  0  0
   -1.8100   -0.0070   -0.5010 C   0  0  0  0  0  0  0  0  0  0  0  0
   -2.3440    1.2380   -0.8310 C   0  0  0  0  0  0  0  0  0  0  0  0
   -3.6090    1.3550   -1.3640 C   0  0  0  0  0  0  0  0  0  0  0  0
   -4.0940    2.5900   -1.6730 O   0  0  0  0  0  0  0  0  0  0  0  0
   -3.4540    3.8080   -1.5150 C   0  0  0  0  0  0  0  0  0  0  0  0
   -4.3150    0.1860   -1.5540 C   0  0  0  0  0  0  0  0  0  0  0  0
   -5.4710    0.3020   -2.0430 O   0  0  0  0  0  0  0  0  0  0  0  0
   -3.8320   -1.0220   -1.2480 N   0  0  0  0  0  0  0  0  0  0  0  0
   -2.5890   -1.1370   -0.7240 C   0  0  0  0  0  0  0  0  0  0  0  0
   -2.0760   -2.3210   -0.4080 N   0  0  0  0  0  0  0  0  0  0  0  0
  1  2  1  0
  2  3  1  0
  3  4  2  0
  3 24  1  0
  4  5  1  0
  5  6  1  0
  5 15  2  0
  6  7  1  0
  7  8  2  0
  7 13  1  0
  8  9  1  0
  9 10  2  0
 10 11  1  0
 11 12  1  0
 11 13  1  0
 13 14  2  0
 15 16  1  0
 15 23  1  0
 16 17  2  0
 17 18  1  0
 17 20  1  0
 18 19  1  0
 20 21  2  0
 20 22  1  0
 22 23  1  0
 23 24  2  0
M  END
