
     RDKit          3D

 23 25  0  0  0  0  0  0  0  0999 V2000
   -1.5380   -1.0580   -0.3240 C   0  0  0  0  0  0  0  0  0  0  0  0
   -2.1850    0.2590    0.0780 C   0  0  0  0  0  0  0  0  0  0  0  0
   -1.3830    1.2660    0.4560 C   0  0  0  0  0  0  0  0  0  0  0  0
    0.0540    1.5010    0.5800 C   0  0  0  0  0  0  0  0  0  0  0  0
    0.4380    2.6660    1.0400 O   0  0  0  0  0  0  0  0  0  0  0  0
    1.1070    0.6580    0.2750 N   0  0  0  0  0  0  0  0  0  0  0  0
    2.4750    1.1120    0.4870 C   0  0  0  0  0  0  0  0  0  0  0  0
    3.4440    0.0600    0.1000 C   0  0  0  0  0  0  0  0  0  0  0  0
    3.1880   -1.2540   -0.2050 C   0  0  0  0  0  0  0  0  0  0  0  0
    4.4100   -1.8660   -0.5100 C   0  0  0  0  0  0  0  0  0  0  0  0
    5.3300   -0.8660   -0.3650 C   0  0  0  0  0  0  0  0  0  0  0  0
    7.0840   -1.1110   -0.6390 S   0  0  0  0  0  0  0  0  0  0  0  0
    7.6800    0.1570   -1.2310 O   0  0  0  0  0  0  0  0  0  0  0  0
    4.7570    0.2350   -0.0130 O   0  0  0  0  0  0  0  0  0  0  0  0
   -2.5260    2.6300    0.9000 S   0  0  0  0  0  0  0  0  0  0  0  0
   -3.9840    1.6600    0.5110 C   0  0  0  0  0  0  0  0  0  0  0  0
   -5.6610    2.1640    0.6260 S   0  0  0  0  0  0  0  0  0  0  0  0
   -6.6720    0.8440    0.1200 C   0  0  0  0  0  0  0  0  0  0  0  0
   -7.9080    0.8710    0.0830 O   0  0  0  0  0  0  0  0  0  0  0  0
   -5.8840   -0.1840   -0.2150 N   0  0  0  0  0  0  0  0  0  0  0  0
   -4.6120   -0.4230   -0.2510 C   0  0  0  0  0  0  0  0  0  0  0  0
   -4.2700   -1.5950   -0.6560 O   0  0  0  0  0  0  0  0  0  0  0  0
   -3.5210    0.4100    0.0870 C   0  0  0  0  0  0  0  0  0  0  0  0
  1  2  1  0
  2  3  2  0
  2 23  1  0
  3  4  1  0
  3 15  1  0
  4  5  2  0
  4  6  1  0
  6  7  1  0
  7  8  1  0
  8  9  2  0
  8 14  1  0
  9 10  1  0
 10 11  2  0
 11 12  1  0
 11 14  1  0
 12 13  2  0
 15 16  1  0
 16 17  1  0
 16 23  2  0
 17 18  1  0
 18 19  2  0
 18 20  1  0
 20 21  1  0
 21 22  2  0
 21 23  1  0
M  END
