
     RDKit          3D

 23 25  0  0  0  0  0  0  0  0999 V2000
    3.2910    3.5220   -0.9410 O   0  0  0  0  0  0  0  0  0  0  0  0
    3.7460    2.4410   -0.5040 C   0  0  0  0  0  0  0  0  0  0  0  0
    3.2840    1.1010   -0.6190 N   0  0  0  0  0  0  0  0  0  0  0  0
    3.6300    0.2950    0.4760 C   0  0  0  0  0  0  0  0  0  0  0  0
    2.9910   -0.4200    1.3670 C   0  0  0  0  0  0  0  0  0  0  0  0
    1.5990   -0.6510    1.5720 C   0  0  0  0  0  0  0  0  0  0  0  0
    1.2580   -1.5050    2.6000 C   0  0  0  0  0  0  0  0  0  0  0  0
   -0.4750   -1.8450    2.9140 S   0  0  0  0  0  0  0  0  0  0  0  0
   -1.3020   -2.0760    1.3200 C   0  0  0  0  0  0  0  0  0  0  0  0
   -2.1430   -2.9920    1.1610 O   0  0  0  0  0  0  0  0  0  0  0  0
   -0.9220   -1.1600    0.3110 N   0  0  0  0  0  0  0  0  0  0  0  0
   -1.4400   -1.2240   -0.9970 C   0  0  0  0  0  0  0  0  0  0  0  0
   -2.6020   -0.3440   -1.2740 C   0  0  0  0  0  0  0  0  0  0  0  0
   -2.5600    0.6100   -2.2220 C   0  0  0  0  0  0  0  0  0  0  0  0
   -3.8440    1.3140   -2.2690 C   0  0  0  0  0  0  0  0  0  0  0  0
   -4.6660    0.6730   -1.2390 C   0  0  0  0  0  0  0  0  0  0  0  0
   -3.9120   -0.2770   -0.6890 C   0  0  0  0  0  0  0  0  0  0  0  0
   -4.3890   -1.0780    0.3260 O   0  0  0  0  0  0  0  0  0  0  0  0
    0.2450    0.0580    0.7700 S   0  0  1  0  0  0  0  0  0  0  0  0
   -0.4120    0.9760    1.8070 O   0  0  0  0  0  0  0  0  0  0  0  0
    0.5840    0.8940   -0.3830 O   0  0  0  0  0  0  0  0  0  0  0  0
    5.1730    0.3900    0.6030 C   0  0  0  0  0  0  0  0  0  0  0  0
    5.2540    2.2330    0.4870 S   0  0  0  0  0  0  0  0  0  0  0  0
  1  2  2  0
  2  3  1  0
  2 23  1  0
  3  4  1  0
  4  5  2  3
  4 22  1  0
  5  6  1  0
  6  7  2  0
  6 19  1  0
  7  8  1  0
  8  9  1  0
  9 10  2  0
  9 11  1  0
 11 12  1  0
 19 11  1  6
 12 13  1  0
 13 14  2  0
 13 17  1  0
 14 15  1  0
 15 16  1  0
 16 17  2  0
 17 18  1  0
 19 20  2  0
 19 21  2  0
 22 23  1  0
M  END
