
     RDKit          3D

 23 25  0  0  0  0  0  0  0  0999 V2000
    7.7550   -0.3250   -0.6870 O   0  0  0  0  0  0  0  0  0  0  0  0
    6.6140   -0.5660   -0.4260 C   0  0  0  0  0  0  0  0  0  0  0  0
    6.2110   -1.4530    0.6890 C   0  0  0  0  0  0  0  0  0  0  0  0
    4.9820   -2.1080    0.4310 O   0  0  0  0  0  0  0  0  0  0  0  0
    3.8130   -1.4300    0.1450 C   0  0  0  0  0  0  0  0  0  0  0  0
    3.7890   -0.3960   -0.6600 C   0  0  0  0  0  0  0  0  0  0  0  0
    2.5410    0.2800   -0.9280 C   0  0  0  0  0  0  0  0  0  0  0  0
    1.3900    0.2570   -0.6670 N   0  0  0  0  0  0  0  0  0  0  0  0
    0.3900    0.9790   -1.0220 C   0  0  0  0  0  0  0  0  0  0  0  0
   -1.0050    0.8210   -0.6050 C   0  0  0  0  0  0  0  0  0  0  0  0
   -1.8470    1.6300   -1.0610 O   0  0  0  0  0  0  0  0  0  0  0  0
   -1.4190   -0.1920    0.2750 N   0  0  0  0  0  0  0  0  0  0  0  0
   -2.7840   -0.3410    0.6790 C   0  0  0  0  0  0  0  0  0  0  0  0
   -3.9010    0.3080    0.4060 C   0  0  0  0  0  0  0  0  0  0  0  0
   -5.0710   -0.0690    0.9470 C   0  0  0  0  0  0  0  0  0  0  0  0
   -6.4010    0.6010    0.7020 C   0  0  0  0  0  0  0  0  0  0  0  0
   -7.4390    0.1800    1.2500 O   0  0  0  0  0  0  0  0  0  0  0  0
   -6.5070    1.6970   -0.1340 O   0  0  0  0  0  0  0  0  0  0  0  0
   -5.0300   -1.1770    1.8060 C   0  0  0  0  0  0  0  0  0  0  0  0
   -3.3040   -1.6400    1.8050 S   0  0  0  0  0  0  0  0  0  0  0  0
    0.7400    2.0480   -1.9330 C   0  0  0  0  0  0  0  0  0  0  0  0
    2.5460    1.7660   -2.0920 S   0  0  0  0  0  0  0  0  0  0  0  0
    5.3000    0.1570   -1.4030 S   0  0  0  0  0  0  0  0  0  0  0  0
  1  2  2  0
  2  3  1  0
  2 23  1  0
  3  4  1  0
  4  5  1  0
  5  6  2  0
  6  7  1  0
  6 23  1  0
  7  8  2  0
  7 22  1  0
  8  9  1  0
  9 10  1  0
  9 21  2  0
 10 11  2  0
 10 12  1  0
 12 13  1  0
 13 14  2  0
 13 20  1  0
 14 15  1  0
 15 16  1  0
 15 19  2  0
 16 17  2  0
 16 18  1  0
 19 20  1  0
 21 22  1  0
M  END
