
     RDKit          3D

 23 25  0  0  0  0  0  0  0  0999 V2000
   -3.7040    0.1090   -2.8140 C   0  0  0  0  0  0  0  0  0  0  0  0
   -2.7010    0.1880   -1.7310 C   0  0  0  0  0  0  0  0  0  0  0  0
   -0.9540   -0.2210   -1.9300 S   0  0  0  0  0  0  0  0  0  0  0  0
   -0.5190    0.1220   -0.2880 C   0  0  0  0  0  0  0  0  0  0  0  0
    0.8510   -0.0020    0.2440 N   0  0  0  0  0  0  0  0  0  0  0  0
    1.8870   -0.4170   -0.5880 C   0  0  0  0  0  0  0  0  0  0  0  0
    1.5790   -0.6750   -1.8020 O   0  0  0  0  0  0  0  0  0  0  0  0
    3.2720   -0.5690   -0.1480 C   0  0  0  0  0  0  0  0  0  0  0  0
    4.2390   -0.9850   -1.0360 C   0  0  0  0  0  0  0  0  0  0  0  0
    5.5640   -1.1280   -0.6080 C   0  0  0  0  0  0  0  0  0  0  0  0
    5.9030   -0.8630    0.6600 N   0  0  0  0  0  0  0  0  0  0  0  0
    5.0020   -0.4610    1.5410 C   0  0  0  0  0  0  0  0  0  0  0  0
    5.3700   -0.2240    2.7240 O   0  0  0  0  0  0  0  0  0  0  0  0
    3.6830   -0.3130    1.1380 C   0  0  0  0  0  0  0  0  0  0  0  0
   -1.6520    0.5130    0.3220 C   0  0  0  0  0  0  0  0  0  0  0  0
   -2.7920    0.5500   -0.4240 C   0  0  0  0  0  0  0  0  0  0  0  0
   -4.3250    1.0980    0.3440 S   0  0  2  0  0  0  0  0  0  0  0  0
   -5.4790    0.7550   -0.5070 O   0  0  0  0  0  0  0  0  0  0  0  0
   -4.2650    2.5720    0.6130 O   0  0  0  0  0  0  0  0  0  0  0  0
   -4.5240    0.2620    1.8770 C   0  0  0  0  0  0  0  0  0  0  0  0
   -2.9980    0.3140    2.8350 S   0  0  0  0  0  0  0  0  0  0  0  0
   -1.7090    0.9060    1.7700 C   0  0  0  0  0  0  0  0  0  0  0  0
   -0.8300    1.6720    2.2580 O   0  0  0  0  0  0  0  0  0  0  0  0
  1  2  1  0
  2  3  1  0
  2 16  2  0
  3  4  1  0
  4  5  1  0
  4 15  2  0
  5  6  1  0
  6  7  2  0
  6  8  1  0
  8  9  1  0
  8 14  2  0
  9 10  2  0
 10 11  1  0
 11 12  1  0
 12 13  2  0
 12 14  1  0
 15 16  1  0
 15 22  1  0
 16 17  1  0
 17 18  2  0
 17 19  2  0
 17 20  1  1
 20 21  1  0
 21 22  1  0
 22 23  2  0
M  END
