
     RDKit          3D

 23 25  0  0  0  0  0  0  0  0999 V2000
    6.3260    1.0120   -0.6710 C   0  0  0  0  0  0  0  0  0  0  0  0
    4.9360    1.2600   -0.7150 O   0  0  0  0  0  0  0  0  0  0  0  0
    4.0930    0.2800   -0.1830 C   0  0  0  0  0  0  0  0  0  0  0  0
    4.5890   -0.8880    0.3660 C   0  0  0  0  0  0  0  0  0  0  0  0
    3.7790   -1.8610    0.8930 C   0  0  0  0  0  0  0  0  0  0  0  0
    2.4260   -1.6970    0.8880 C   0  0  0  0  0  0  0  0  0  0  0  0
    1.8680   -0.5540    0.3550 C   0  0  0  0  0  0  0  0  0  0  0  0
    0.4800   -0.3530    0.3260 N   0  0  0  0  0  0  0  0  0  0  0  0
   -0.2740   -0.7910   -0.7810 C   0  0  0  0  0  0  0  0  0  0  0  0
   -1.5500   -0.6740   -0.9830 C   0  0  0  0  0  0  0  0  0  0  0  0
   -2.5090   -0.0320   -0.0500 C   0  0  0  0  0  0  0  0  0  0  0  0
   -3.8290    0.0980   -0.2580 C   0  0  0  0  0  0  0  0  0  0  0  0
   -4.6300    0.7060    0.6470 C   0  0  0  0  0  0  0  0  0  0  0  0
   -6.2980    1.0470    0.7270 S   0  0  1  0  0  0  0  0  0  0  0  0
   -7.0660    0.4610   -0.6810 N   0  0  0  0  0  0  0  0  0  0  0  0
   -6.8970    0.3140    1.9130 O   0  0  0  0  0  0  0  0  0  0  0  0
   -6.5520    2.5120    0.9250 O   0  0  0  0  0  0  0  0  0  0  0  0
   -3.4740    1.1710    1.9570 S   0  0  0  0  0  0  0  0  0  0  0  0
   -2.0020    0.4930    1.1500 C   0  0  0  0  0  0  0  0  0  0  0  0
   -0.3540    0.4380    1.6310 S   0  0  1  0  0  0  0  0  0  0  0  0
   -0.1360   -0.2990    2.9310 O   0  0  0  0  0  0  0  0  0  0  0  0
    0.1590    1.8520    1.7870 O   0  0  0  0  0  0  0  0  0  0  0  0
    2.7290    0.4120   -0.1720 C   0  0  0  0  0  0  0  0  0  0  0  0
  1  2  1  0
  2  3  1  0
  3  4  2  0
  3 23  1  0
  4  5  1  0
  5  6  2  0
  6  7  1  0
  7  8  1  0
  7 23  2  0
  8  9  1  0
 20  8  1  6
  9 10  2  0
 10 11  1  0
 11 12  1  0
 11 19  2  0
 12 13  2  0
 13 14  1  0
 13 18  1  0
 14 15  1  6
 14 16  2  0
 14 17  2  0
 18 19  1  0
 19 20  1  0
 20 21  2  0
 20 22  2  0
M  END
