
     RDKit          3D

 23 25  0  0  0  0  0  0  0  0999 V2000
    1.2000   -0.2630    0.0390 O   0  0  0  0  0  0  0  0  0  0  0  0
    1.0390   -0.1390    1.2740 C   0  0  0  0  0  0  0  0  0  0  0  0
    2.1600   -0.3950    2.1870 C   0  0  0  0  0  0  0  0  0  0  0  0
    3.6190   -0.8500    1.2490 S   0  0  0  0  0  0  0  0  0  0  0  0
    4.1910    0.5280    0.2790 C   0  0  0  0  0  0  0  0  0  0  0  0
    3.5700    1.6030    0.3400 O   0  0  0  0  0  0  0  0  0  0  0  0
    5.3790    0.4240   -0.5900 C   0  0  0  0  0  0  0  0  0  0  0  0
    5.8080    1.4470   -1.3080 C   0  0  0  0  0  0  0  0  0  0  0  0
    7.2590    0.7610   -2.1540 S   0  0  0  0  0  0  0  0  0  0  0  0
    7.4800   -0.5450   -1.0120 O   0  0  0  0  0  0  0  0  0  0  0  0
    6.1460   -0.8050   -0.7350 C   0  0  0  0  0  0  0  0  0  0  0  0
   -0.2530    0.2500    1.7230 N   0  0  0  0  0  0  0  0  0  0  0  0
   -1.3220    0.4910    0.8630 N   0  0  0  0  0  0  0  0  0  0  0  0
   -2.4960   -0.2900    1.0510 C   0  0  0  0  0  0  0  0  0  0  0  0
   -2.5120   -1.1500    1.9700 O   0  0  0  0  0  0  0  0  0  0  0  0
   -3.6700   -0.1040    0.1960 C   0  0  0  0  0  0  0  0  0  0  0  0
   -4.8420   -0.8150    0.3070 C   0  0  0  0  0  0  0  0  0  0  0  0
   -5.7150   -0.3300   -0.7000 C   0  0  0  0  0  0  0  0  0  0  0  0
   -7.0160   -0.6150   -1.1190 C   0  0  0  0  0  0  0  0  0  0  0  0
   -7.2570    0.5230   -2.4730 S   0  0  0  0  0  0  0  0  0  0  0  0
   -5.6400    1.2730   -2.3780 C   0  0  0  0  0  0  0  0  0  0  0  0
   -5.0480    0.6070   -1.3340 C   0  0  0  0  0  0  0  0  0  0  0  0
   -3.8190    0.7310   -0.7820 O   0  0  0  0  0  0  0  0  0  0  0  0
  1  2  2  0
  2  3  1  0
  2 12  1  0
  3  4  1  0
  4  5  1  0
  5  6  2  0
  5  7  1  0
  7  8  2  0
  7 11  1  0
  8  9  1  0
  9 10  1  0
 10 11  1  0
 12 13  1  0
 13 14  1  0
 14 15  2  0
 14 16  1  0
 16 17  2  0
 16 23  1  0
 17 18  1  0
 18 19  2  0
 18 22  1  0
 19 20  1  0
 20 21  1  0
 21 22  2  0
 22 23  1  0
M  END
