
     RDKit          3D

 14 14  0  0  0  0  0  0  0  0999 V2000
    3.2500    0.5550    0.6040 C   0  0  0  0  0  0  0  0  0  0  0  0
    2.2360    0.5930   -0.3400 O   0  0  0  0  0  0  0  0  0  0  0  0
    0.9750    0.6760    0.1930 C   0  0  1  0  0  0  0  0  0  0  0  0
    0.1040    1.7800   -0.4050 C   0  0  0  0  0  0  0  0  0  0  0  0
   -0.5230    0.7190   -1.2850 C   0  0  1  0  0  0  0  0  0  0  0  0
    0.1520    0.7380   -2.5940 N   0  0  0  0  0  0  0  0  0  0  0  0
    0.0040   -0.3240   -0.3920 C   0  0  1  0  0  0  0  0  0  0  0  0
    0.7770   -1.3880   -1.1910 C   0  0  0  0  0  0  0  0  0  0  0  0
   -0.1090   -2.3080   -1.7290 O   0  0  0  0  0  0  0  0  0  0  0  0
   -0.8880   -1.0190    0.5580 C   0  0  0  0  0  0  0  0  0  0  0  0
   -1.8020   -0.1840    1.3700 C   0  0  1  0  0  0  0  0  0  0  0  0
   -2.6820    0.5670    0.5970 O   0  0  0  0  0  0  0  0  0  0  0  0
   -2.5980   -1.0570    2.1260 O   0  0  0  0  0  0  0  0  0  0  0  0
   -2.4740   -0.8660    3.4160 O   0  0  0  0  0  0  0  0  0  0  0  0
  1  2  1  0
  3  2  1  6
  3  4  1  0
  3  7  1  0
  4  5  1  0
  5  6  1  6
  5  7  1  0
  7  8  1  6
  7 10  1  0
  8  9  1  0
 10 11  1  0
 11 12  1  6
 11 13  1  0
 13 14  1  0
M  END
