
     RDKit          3D

 14 14  0  0  0  0  0  0  0  0999 V2000
    4.2580   -0.1520   -1.2870 C   0  0  0  0  0  0  0  0  0  0  0  0
    3.1020    0.2840   -0.5850 O   0  0  0  0  0  0  0  0  0  0  0  0
    2.2180   -0.6660   -0.1370 C   0  0  0  0  0  0  0  0  0  0  0  0
    2.4440   -1.8710   -0.3510 O   0  0  0  0  0  0  0  0  0  0  0  0
    1.0110   -0.2520    0.5930 C   0  0  1  0  0  0  0  0  0  0  0  0
    0.9780    1.1010    0.7060 O   0  0  0  0  0  0  0  0  0  0  0  0
   -0.2660    1.5770    0.4250 C   0  0  0  0  0  0  0  0  0  0  0  0
   -1.1920    0.4360    0.1760 C   0  0  1  0  0  0  0  0  0  0  0  0
   -2.0610    0.1330    1.3640 C   0  0  0  0  0  0  0  0  0  0  0  0
   -2.8930    1.2440    1.7490 N   0  0  0  0  0  0  0  0  0  0  0  0
   -2.0820    0.6790   -1.0370 C   0  0  0  0  0  0  0  0  0  0  0  0
   -1.3230    0.8560   -2.1890 O   0  0  0  0  0  0  0  0  0  0  0  0
   -0.2580   -0.7170   -0.0640 C   0  0  2  0  0  0  0  0  0  0  0  0
   -0.6970   -1.8800    0.5640 O   0  0  0  0  0  0  0  0  0  0  0  0
  1  2  1  0
  2  3  1  0
  3  4  2  0
  5  3  1  6
  5  6  1  0
  5 13  1  0
  6  7  1  0
  7  8  1  0
  8  9  1  1
  8 11  1  0
  8 13  1  0
  9 10  1  0
 11 12  1  0
 13 14  1  1
M  END
