
     RDKit          3D

 14 14  0  0  0  0  0  0  0  0999 V2000
    3.2720    0.6640    0.6830 C   0  0  0  0  0  0  0  0  0  0  0  0
    2.2510   -0.0490    1.2460 O   0  0  0  0  0  0  0  0  0  0  0  0
    1.7520   -1.0570    0.4340 C   0  0  0  0  0  0  0  0  0  0  0  0
    1.1270   -0.5850   -0.8250 C   0  0  1  0  0  0  0  0  0  0  0  0
    0.6840   -1.6140   -1.6330 O   0  0  0  0  0  0  0  0  0  0  0  0
   -0.0020    0.3810   -0.5910 C   0  0  2  0  0  0  0  0  0  0  0  0
    0.3440    1.3970    0.2940 O   0  0  0  0  0  0  0  0  0  0  0  0
   -0.6240    2.3910    0.2050 C   0  0  0  0  0  0  0  0  0  0  0  0
   -1.7800    1.8650    0.7860 O   0  0  0  0  0  0  0  0  0  0  0  0
   -2.3120    0.9210   -0.0560 C   0  0  0  0  0  0  0  0  0  0  0  0
   -1.3470   -0.2090   -0.3970 C   0  0  1  0  0  0  0  0  0  0  0  0
   -1.7950   -0.6940   -1.6540 O   0  0  0  0  0  0  0  0  0  0  0  0
   -1.4840   -1.2630    0.6470 C   0  0  0  0  0  0  0  0  0  0  0  0
   -2.8550   -1.6150    0.7760 O   0  0  0  0  0  0  0  0  0  0  0  0
  1  2  1  0
  2  3  1  0
  3  4  1  0
  4  5  1  1
  4  6  1  0
  6  7  1  1
  6 11  1  0
  7  8  1  0
  8  9  1  0
  9 10  1  0
 10 11  1  0
 11 12  1  6
 11 13  1  0
 13 14  1  0
M  END
