
     RDKit          3D

 15 15  0  0  0  0  0  0  0  0999 V2000
    0.0830    1.8060   -0.3270 N   0  0  0  0  0  0  0  0  0  0  0  0
    0.0890    0.8850    0.7990 C   0  0  1  0  0  0  0  0  0  0  0  0
   -1.0840    1.0760    1.4780 O   0  0  0  0  0  0  0  0  0  0  0  0
   -1.8610   -0.0330    1.6690 C   0  0  0  0  0  0  0  0  0  0  0  0
   -2.0180   -0.6520    0.2710 C   0  0  1  0  0  0  0  0  0  0  0  0
   -2.1570    0.4050   -0.6600 O   0  0  0  0  0  0  0  0  0  0  0  0
   -3.2870    0.5180   -1.4630 C   0  0  0  0  0  0  0  0  0  0  0  0
   -4.1690   -0.3610   -1.3180 O   0  0  0  0  0  0  0  0  0  0  0  0
   -3.4730    1.5260   -2.3840 O   0  0  0  0  0  0  0  0  0  0  0  0
   -0.7250   -1.4170    0.0950 C   0  0  0  0  0  0  0  0  0  0  0  0
    0.4170   -0.4670    0.3030 C   0  0  2  0  0  0  0  0  0  0  0  0
    1.3880   -0.9910    1.1610 O   0  0  0  0  0  0  0  0  0  0  0  0
    2.5900   -1.2890    0.6200 C   0  0  0  0  0  0  0  0  0  0  0  0
    3.3130   -0.1060    0.0190 C   0  0  0  0  0  0  0  0  0  0  0  0
    3.5470    0.8640    0.9950 O   0  0  0  0  0  0  0  0  0  0  0  0
  2  1  1  6
  2  3  1  0
  2 11  1  0
  3  4  1  0
  4  5  1  0
  5  6  1  6
  5 10  1  0
  6  7  1  0
  7  8  2  0
  7  9  1  0
 10 11  1  0
 11 12  1  1
 12 13  1  0
 13 14  1  0
 14 15  1  0
M  END
