
     RDKit          3D

 23 24  0  0  0  0  0  0  0  0999 V2000
   -0.5130    2.3160   -2.8640 C   0  0  0  0  0  0  0  0  0  0  0  0
   -0.3010    1.4660   -1.8730 C   0  0  0  0  0  0  0  0  0  0  0  0
    0.9310    1.5080   -1.1280 C   0  0  0  0  0  0  0  0  0  0  0  0
    1.7740    0.5310   -0.8380 C   0  0  0  0  0  0  0  0  0  0  0  0
    2.9670    0.8280   -0.0600 N   0  0  0  0  0  0  0  0  0  0  0  0
    3.2620    0.2700    1.1910 C   0  0  0  0  0  0  0  0  0  0  0  0
    4.4490    0.5440    2.0010 C   0  0  0  0  0  0  0  0  0  0  0  0
    2.4120   -0.5560    1.6680 O   0  0  0  0  0  0  0  0  0  0  0  0
    1.6610   -0.8590   -1.2460 C   0  0  0  0  0  0  0  0  0  0  0  0
    2.7690   -1.3320   -1.7480 O   0  0  0  0  0  0  0  0  0  0  0  0
    0.6110   -1.6950   -1.1840 O   0  0  0  0  0  0  0  0  0  0  0  0
   -0.0710   -2.2850   -0.1060 C   0  0  0  0  0  0  0  0  0  0  0  0
   -1.2360   -2.9530   -0.7540 C   0  0  0  0  0  0  0  0  0  0  0  0
   -0.8840   -4.1200   -1.1810 O   0  0  0  0  0  0  0  0  0  0  0  0
   -2.5310   -2.4270   -0.9000 N   0  0  0  0  0  0  0  0  0  0  0  0
   -3.3390   -1.6610   -0.0520 C   0  0  0  0  0  0  0  0  0  0  0  0
   -4.5710   -1.9950    0.1660 O   0  0  0  0  0  0  0  0  0  0  0  0
   -2.9530   -0.4390    0.6780 C   0  0  0  0  0  0  0  0  0  0  0  0
   -2.2430    0.5160    0.1400 C   0  0  0  0  0  0  0  0  0  0  0  0
   -1.8980    1.8950    1.2070 S   0  0  0  0  0  0  0  0  0  0  0  0
   -3.2520    1.7700    2.3990 C   0  0  0  0  0  0  0  0  0  0  0  0
   -3.3810   -0.0380    2.4040 S   0  0  0  0  0  0  0  0  0  0  0  0
   -1.6750    0.3600   -1.5910 S   0  0  0  0  0  0  0  0  0  0  0  0
  1  2  2  0
  2  3  1  0
  2 23  1  0
  3  4  2  0
  4  5  1  0
  4  9  1  0
  5  6  1  0
  6  7  1  0
  6  8  2  0
  9 10  2  0
  9 11  1  0
 11 12  1  0
 12 13  1  0
 13 14  2  0
 13 15  1  0
 15 16  1  0
 16 17  2  0
 16 18  1  0
 18 19  2  0
 18 22  1  0
 19 20  1  0
 19 23  1  0
 20 21  1  0
 21 22  1  0
M  END
