
     RDKit          3D

 23 25  0  0  0  0  0  0  0  0999 V2000
    8.0570   -0.1180   -0.7350 C   0  0  0  0  0  0  0  0  0  0  0  0
    6.9320   -0.8570   -0.2280 O   0  0  0  0  0  0  0  0  0  0  0  0
    5.6400   -0.3580   -0.3330 C   0  0  0  0  0  0  0  0  0  0  0  0
    5.4870    0.7870   -0.9060 O   0  0  0  0  0  0  0  0  0  0  0  0
    4.4740   -0.9990    0.1340 N   0  0  0  0  0  0  0  0  0  0  0  0
    3.1830   -0.4260   -0.0070 C   0  0  1  0  0  0  0  0  0  0  0  0
    1.9830   -1.6050   -0.6960 S   0  0  0  0  0  0  0  0  0  0  0  0
    0.4500   -0.8760   -0.0900 C   0  0  0  0  0  0  0  0  0  0  0  0
    0.6170   -0.2000    0.9970 C   0  0  0  0  0  0  0  0  0  0  0  0
    2.3100   -0.1800    1.5890 S   0  0  0  0  0  0  0  0  0  0  0  0
   -0.5370    0.4520    1.6040 C   0  0  0  0  0  0  0  0  0  0  0  0
   -0.4320    1.1230    2.6620 O   0  0  0  0  0  0  0  0  0  0  0  0
   -1.8830    0.3650    1.0200 C   0  0  0  0  0  0  0  0  0  0  0  0
   -2.8660    0.9230    1.5460 O   0  0  0  0  0  0  0  0  0  0  0  0
   -2.0350   -0.4050   -0.2040 C   0  0  0  0  0  0  0  0  0  0  0  0
   -3.1750   -0.5460   -0.8570 C   0  0  0  0  0  0  0  0  0  0  0  0
   -4.3890    0.0300   -0.4670 C   0  0  0  0  0  0  0  0  0  0  0  0
   -5.6550   -0.5210   -0.2500 C   0  0  0  0  0  0  0  0  0  0  0  0
   -6.6670    0.2710    0.0570 C   0  0  0  0  0  0  0  0  0  0  0  0
   -6.5060    1.6190    0.1670 C   0  0  0  0  0  0  0  0  0  0  0  0
   -7.3440    2.6690    0.4630 O   0  0  0  0  0  0  0  0  0  0  0  0
   -4.7190    1.7880   -0.2040 S   0  0  0  0  0  0  0  0  0  0  0  0
   -0.8240   -1.0010   -0.7070 N   0  0  0  0  0  0  0  0  0  0  0  0
  1  2  1  0
  2  3  1  0
  3  4  2  0
  3  5  1  0
  6  5  1  1
  6  7  1  0
  6 10  1  0
  7  8  1  0
  8  9  2  0
  8 23  1  0
  9 10  1  0
  9 11  1  0
 11 12  2  0
 11 13  1  0
 13 14  2  0
 13 15  1  0
 15 16  2  3
 15 23  1  0
 16 17  1  0
 17 18  2  0
 17 22  1  0
 18 19  1  0
 19 20  2  0
 20 21  1  0
 20 22  1  0
M  END
