
     RDKit          3D

 23 25  0  0  0  0  0  0  0  0999 V2000
   -1.7600    2.0140    0.6490 O   0  0  0  0  0  0  0  0  0  0  0  0
   -1.2860    0.8860    0.2370 C   0  0  0  0  0  0  0  0  0  0  0  0
    0.0270    1.0240   -0.0140 N   0  0  0  0  0  0  0  0  0  0  0  0
    1.3230    1.1600   -0.2610 C   0  0  0  0  0  0  0  0  0  0  0  0
    1.5790    2.4760   -0.0440 O   0  0  0  0  0  0  0  0  0  0  0  0
    2.3590    0.3430   -0.6450 C   0  0  0  0  0  0  0  0  0  0  0  0
    3.6140    0.7270   -0.8180 C   0  0  0  0  0  0  0  0  0  0  0  0
    4.4250    2.0100   -0.7150 C   0  0  0  0  0  0  0  0  0  0  0  0
    5.6870    1.2610    0.3770 S   0  0  2  0  0  0  0  0  0  0  0  0
    5.1640    1.0490    1.7370 O   0  0  0  0  0  0  0  0  0  0  0  0
    6.9820    1.9410    0.2590 O   0  0  0  0  0  0  0  0  0  0  0  0
    5.6390   -0.2910   -0.4930 C   0  0  0  0  0  0  0  0  0  0  0  0
    7.0130   -1.3990   -0.4660 S   0  0  0  0  0  0  0  0  0  0  0  0
    4.4510   -0.3920   -1.0740 C   0  0  0  0  0  0  0  0  0  0  0  0
    3.7940   -1.4280   -1.9580 C   0  0  0  0  0  0  0  0  0  0  0  0
    2.2170   -1.4220   -1.0010 S   0  0  0  0  0  0  0  0  0  0  0  0
   -2.1030   -0.2010    0.1180 N   0  0  0  0  0  0  0  0  0  0  0  0
   -3.4850   -0.1570    0.4270 C   0  0  2  0  0  0  0  0  0  0  0  0
   -3.7920   -1.1310    1.5320 C   0  0  0  0  0  0  0  0  0  0  0  0
   -5.2590   -1.0430    1.9260 C   0  0  0  0  0  0  0  0  0  0  0  0
   -5.9920   -1.3890    0.7910 O   0  0  0  0  0  0  0  0  0  0  0  0
   -5.7940   -0.4680   -0.2220 C   0  0  0  0  0  0  0  0  0  0  0  0
   -4.3650   -0.4980   -0.7570 C   0  0  0  0  0  0  0  0  0  0  0  0
  1  2  2  0
  2  3  1  0
  2 17  1  0
  3  4  1  0
  4  5  2  0
  4  6  1  0
  6  7  2  0
  6 16  1  0
  7  8  1  0
  7 14  1  0
  9  8  1  6
  9 10  2  0
  9 11  2  0
  9 12  1  0
 12 13  1  0
 12 14  2  0
 14 15  1  0
 15 16  1  0
 18 17  1  6
 18 19  1  0
 18 23  1  0
 19 20  1  0
 20 21  1  0
 21 22  1  0
 22 23  1  0
M  END
