
     RDKit          3D

 23 25  0  0  0  0  0  0  0  0999 V2000
   -5.7290    2.1670   -0.4030 C   0  0  0  0  0  0  0  0  0  0  0  0
   -4.3610    1.5410   -0.2830 C   0  0  0  0  0  0  0  0  0  0  0  0
   -2.9710    2.1640   -1.0610 S   0  0  0  0  0  0  0  0  0  0  0  0
   -1.7850    0.8460   -0.4020 C   0  0  0  0  0  0  0  0  0  0  0  0
   -0.4710    0.9650   -0.8190 N   0  0  0  0  0  0  0  0  0  0  0  0
    0.7250    0.3130   -0.4830 C   0  0  0  0  0  0  0  0  0  0  0  0
    0.7040   -0.5690    0.3740 O   0  0  0  0  0  0  0  0  0  0  0  0
    2.0130    0.6200   -1.0940 C   0  0  0  0  0  0  0  0  0  0  0  0
    1.9830    1.5510   -1.9860 O   0  0  0  0  0  0  0  0  0  0  0  0
    3.2860    0.0360   -0.8420 C   0  0  0  0  0  0  0  0  0  0  0  0
    3.4880   -0.9230    0.0350 C   0  0  0  0  0  0  0  0  0  0  0  0
    4.8460   -1.5030    0.2620 C   0  0  0  0  0  0  0  0  0  0  0  0
    5.8300   -0.4520    0.7650 C   0  0  0  0  0  0  0  0  0  0  0  0
    5.8900    0.8300   -0.5150 S   0  0  0  0  0  0  0  0  0  0  0  0
    4.4820    0.5390   -1.6190 C   0  0  0  0  0  0  0  0  0  0  0  0
   -2.6520    0.0690    0.3570 C   0  0  0  0  0  0  0  0  0  0  0  0
   -3.9290    0.4640    0.3810 C   0  0  0  0  0  0  0  0  0  0  0  0
   -4.8320   -0.6750    1.4340 S   0  0  1  0  0  0  0  0  0  0  0  0
   -5.3130    0.0770    2.6480 O   0  0  0  0  0  0  0  0  0  0  0  0
   -5.9600   -1.3080    0.6780 O   0  0  0  0  0  0  0  0  0  0  0  0
   -3.5540   -1.7210    1.7550 N   0  0  0  0  0  0  0  0  0  0  0  0
   -2.4140   -1.1790    1.1340 C   0  0  0  0  0  0  0  0  0  0  0  0
   -1.3230   -1.7960    1.2970 O   0  0  0  0  0  0  0  0  0  0  0  0
  1  2  1  0
  2  3  1  0
  2 17  2  0
  3  4  1  0
  4  5  1  0
  4 16  2  0
  5  6  1  0
  6  7  2  0
  6  8  1  0
  8  9  2  0
  8 10  1  0
 10 11  2  0
 10 15  1  0
 11 12  1  0
 12 13  1  0
 13 14  1  0
 14 15  1  0
 16 17  1  0
 16 22  1  0
 17 18  1  0
 18 19  2  0
 18 20  2  0
 18 21  1  1
 21 22  1  0
 22 23  2  0
M  END
