
     RDKit          3D

 23 25  0  0  0  0  0  0  0  0999 V2000
    1.4170    2.2820    1.9330 O   0  0  0  0  0  0  0  0  0  0  0  0
    0.3870    2.6690    1.2810 C   0  0  0  0  0  0  0  0  0  0  0  0
    0.0950    4.0150    1.0420 N   0  0  0  0  0  0  0  0  0  0  0  0
   -1.0850    4.2620    0.3200 C   0  0  0  0  0  0  0  0  0  0  0  0
   -1.5690    5.4670   -0.6000 S   0  0  0  0  0  0  0  0  0  0  0  0
   -2.0670    2.7700    0.6770 S   0  0  0  0  0  0  0  0  0  0  0  0
   -0.5620    1.7040    0.7460 C   0  0  0  0  0  0  0  0  0  0  0  0
   -0.4670    0.5040    0.2730 C   0  0  0  0  0  0  0  0  0  0  0  0
    0.8070   -0.2490    0.1330 C   0  0  0  0  0  0  0  0  0  0  0  0
    1.8910    0.3540   -0.1580 C   0  0  0  0  0  0  0  0  0  0  0  0
    3.1310   -0.3930   -0.2850 C   0  0  0  0  0  0  0  0  0  0  0  0
    4.3440    0.0450   -0.5760 C   0  0  0  0  0  0  0  0  0  0  0  0
    5.2760   -0.9470   -0.6090 O   0  0  0  0  0  0  0  0  0  0  0  0
    4.5270   -2.1710   -0.5540 C   0  0  0  0  0  0  0  0  0  0  0  0
    3.2490   -1.7580   -0.1120 O   0  0  0  0  0  0  0  0  0  0  0  0
    0.6810   -2.0260    0.2620 S   0  0  0  0  0  0  0  0  0  0  0  0
   -0.7930   -2.5490   -0.6970 C   0  0  0  0  0  0  0  0  0  0  0  0
   -1.4300   -1.2650   -1.2170 C   0  0  0  0  0  0  0  0  0  0  0  0
   -1.6030   -0.3160   -0.0940 N   0  0  0  0  0  0  0  0  0  0  0  0
   -2.8160   -0.2320    0.6110 C   0  0  0  0  0  0  0  0  0  0  0  0
   -2.9330    0.5160    1.6040 O   0  0  0  0  0  0  0  0  0  0  0  0
   -4.0070   -1.0360    0.1950 C   0  0  0  0  0  0  0  0  0  0  0  0
   -5.0690   -0.7770    1.0460 O   0  0  0  0  0  0  0  0  0  0  0  0
  1  2  2  0
  2  3  1  0
  2  7  1  0
  3  4  1  0
  4  5  2  0
  4  6  1  0
  6  7  1  0
  7  8  2  3
  8  9  1  0
  8 19  1  0
  9 10  2  3
  9 16  1  0
 10 11  1  0
 11 12  2  0
 11 15  1  0
 12 13  1  0
 13 14  1  0
 14 15  1  0
 16 17  1  0
 17 18  1  0
 18 19  1  0
 19 20  1  0
 20 21  2  0
 20 22  1  0
 22 23  1  0
M  END
