
     RDKit          3D

 23 25  0  0  0  0  0  0  0  0999 V2000
    6.4930    1.2560   -1.4450 C   0  0  0  0  0  0  0  0  0  0  0  0
    5.2000    0.9030   -0.9560 O   0  0  0  0  0  0  0  0  0  0  0  0
    5.1560    0.2970    0.2860 C   0  0  0  0  0  0  0  0  0  0  0  0
    6.2140    0.0810    0.9280 O   0  0  0  0  0  0  0  0  0  0  0  0
    3.9170   -0.1140    0.9020 C   0  0  0  0  0  0  0  0  0  0  0  0
    3.7810   -0.9260    2.5500 S   0  0  0  0  0  0  0  0  0  0  0  0
    2.0010   -1.0510    2.4770 C   0  0  0  0  0  0  0  0  0  0  0  0
    1.6470   -0.5100    1.2950 C   0  0  0  0  0  0  0  0  0  0  0  0
    2.5920   -0.0270    0.4750 C   0  0  0  0  0  0  0  0  0  0  0  0
    2.3560    0.5920   -0.8460 N   0  0  0  0  0  0  0  0  0  0  0  0
    0.1470   -0.6420    1.2880 C   0  0  0  0  0  0  0  0  0  0  0  0
   -0.6720   -0.2580    0.3420 C   0  0  0  0  0  0  0  0  0  0  0  0
   -2.0950   -0.4030    0.3750 C   0  0  0  0  0  0  0  0  0  0  0  0
   -2.7350   -0.9220    1.3280 N   0  0  0  0  0  0  0  0  0  0  0  0
   -3.0570    0.2050   -1.0610 S   0  0  0  0  0  0  0  0  0  0  0  0
   -4.7780   -0.1150   -0.7270 C   0  0  2  0  0  0  0  0  0  0  0  0
   -5.2620   -1.8590   -0.6460 S   0  0  0  0  0  0  0  0  0  0  0  0
   -5.6790    0.7290   -1.6180 C   0  0  0  0  0  0  0  0  0  0  0  0
   -6.5530    0.8290   -0.5390 O   0  0  0  0  0  0  0  0  0  0  0  0
   -5.4400    0.7400    0.3000 C   0  0  0  0  0  0  0  0  0  0  0  0
   -0.2390   -1.2540    2.4790 O   0  0  0  0  0  0  0  0  0  0  0  0
    0.8470   -1.5320    3.2540 C   0  0  0  0  0  0  0  0  0  0  0  0
    0.9480   -2.0660    4.3750 O   0  0  0  0  0  0  0  0  0  0  0  0
  1  2  1  0
  2  3  1  0
  3  4  2  0
  3  5  1  0
  5  6  1  0
  5  9  2  0
  6  7  1  0
  7  8  2  0
  7 22  1  0
  8  9  1  0
  8 11  1  0
  9 10  1  0
 11 12  2  3
 11 21  1  0
 12 13  1  0
 13 14  2  0
 13 15  1  0
 15 16  1  0
 16 17  1  1
 16 18  1  0
 16 20  1  0
 18 19  1  0
 19 20  1  0
 21 22  1  0
 22 23  2  0
M  END
