
     RDKit          3D

 21 22  0  0  0  0  0  0  0  0999 V2000
    3.7690   -2.5520    0.3090 C   0  0  0  0  0  0  0  0  0  0  0  0
    3.9450   -1.2800    0.0410 C   0  0  0  0  0  0  0  0  0  0  0  0
    2.8650   -0.2940    0.1270 C   0  0  0  0  0  0  0  0  0  0  0  0
    3.1020    0.9610   -0.1680 C   0  0  0  0  0  0  0  0  0  0  0  0
    4.4380    1.4700   -0.6040 C   0  0  2  0  0  0  0  0  0  0  0  0
    5.4070    1.3420    0.3720 F   0  0  0  0  0  0  0  0  0  0  0  0
    4.3010    2.7970   -0.9640 F   0  0  0  0  0  0  0  0  0  0  0  0
    4.8200    0.7110   -1.6990 F   0  0  0  0  0  0  0  0  0  0  0  0
    1.9650    1.9240   -0.0530 C   0  0  0  0  0  0  0  0  0  0  0  0
    0.7010    1.2190   -0.5430 C   0  0  0  0  0  0  0  0  0  0  0  0
    0.4530    0.1450    0.3270 N   0  0  0  0  0  0  0  0  0  0  0  0
   -0.7910   -0.4890    0.3490 C   0  0  1  0  0  0  0  0  0  0  0  0
   -1.2180   -0.7250    1.7740 C   0  0  0  0  0  0  0  0  0  0  0  0
   -2.5980   -1.2320    1.9310 C   0  0  0  0  0  0  0  0  0  0  0  0
   -3.3520   -1.5740    0.7160 C   0  0  0  0  0  0  0  0  0  0  0  0
   -2.9640   -0.8960   -0.5410 C   0  0  0  0  0  0  0  0  0  0  0  0
   -1.9120    0.2210   -0.3610 C   0  0  1  0  0  0  0  0  0  0  0  0
   -2.5910    1.3020    0.3880 C   0  0  0  0  0  0  0  0  0  0  0  0
   -1.5170    0.5230   -1.6410 O   0  0  0  0  0  0  0  0  0  0  0  0
   -2.3770    1.2540   -2.4060 C   0  0  0  0  0  0  0  0  0  0  0  0
    1.5210   -0.7650    0.5670 C   0  0  0  0  0  0  0  0  0  0  0  0
  1  2  2  0
  2  3  1  0
  3  4  2  0
  3 21  1  0
  4  5  1  0
  4  9  1  0
  5  6  1  1
  5  7  1  0
  5  8  1  0
  9 10  1  0
 10 11  1  0
 12 11  1  1
 11 21  1  0
 12 13  1  0
 12 17  1  0
 13 14  1  0
 14 15  1  0
 15 16  1  0
 16 17  1  0
 17 18  1  1
 17 19  1  0
 19 20  1  0
M  END
