
     RDKit          3D

 20 21  0  0  0  0  0  0  0  0999 V2000
    3.9290    1.2240    1.5290 C   0  0  0  0  0  0  0  0  0  0  0  0
    2.9490    0.2720    1.6880 O   0  0  0  0  0  0  0  0  0  0  0  0
    2.6330   -0.2760    0.4240 C   0  0  2  0  0  0  0  0  0  0  0  0
    3.9220   -0.8710   -0.1170 C   0  0  0  0  0  0  0  0  0  0  0  0
    2.0580    0.7710   -0.4410 C   0  0  0  0  0  0  0  0  0  0  0  0
    0.7930    0.3880   -1.1900 C   0  0  0  0  0  0  0  0  0  0  0  0
   -0.2040   -0.1470   -0.3620 N   0  0  0  0  0  0  0  0  0  0  0  0
   -1.4810   -0.2590   -0.8630 C   0  0  2  0  0  0  0  0  0  0  0  0
   -2.0300    1.1550   -1.1530 C   0  0  0  0  0  0  0  0  0  0  0  0
   -1.6090    2.0320   -0.0310 C   0  0  0  0  0  0  0  0  0  0  0  0
   -2.5320    1.9100    1.1310 C   0  0  0  0  0  0  0  0  0  0  0  0
   -3.7330    1.0600    0.9100 C   0  0  0  0  0  0  0  0  0  0  0  0
   -3.4330   -0.3870    0.7150 C   0  0  0  0  0  0  0  0  0  0  0  0
   -2.4900   -0.9710   -0.0270 C   0  0  0  0  0  0  0  0  0  0  0  0
   -2.5040   -2.4140    0.0240 C   0  0  0  0  0  0  0  0  0  0  0  0
   -1.6880   -3.2190   -0.6140 C   0  0  0  0  0  0  0  0  0  0  0  0
   -0.7090   -2.7780   -1.4180 F   0  0  0  0  0  0  0  0  0  0  0  0
   -1.7990   -4.5790   -0.4860 F   0  0  0  0  0  0  0  0  0  0  0  0
    0.2760   -0.7490    0.7900 C   0  0  0  0  0  0  0  0  0  0  0  0
    1.6520   -1.4080    0.5950 C   0  0  0  0  0  0  0  0  0  0  0  0
  1  2  1  0
  2  3  1  0
  3  4  1  6
  3  5  1  0
  3 20  1  0
  5  6  1  0
  6  7  1  0
  8  7  1  1
  7 19  1  0
  8  9  1  0
  8 14  1  0
  9 10  1  0
 10 11  1  0
 11 12  1  0
 12 13  1  0
 13 14  2  0
 14 15  1  0
 15 16  2  3
 16 17  1  0
 16 18  1  0
 19 20  1  0
M  END
