
     RDKit          3D

 21 22  0  0  0  0  0  0  0  0999 V2000
   -2.3430   -2.2740    0.3890 F   0  0  0  0  0  0  0  0  0  0  0  0
   -2.8500   -1.0070    0.3150 C   0  0  0  0  0  0  0  0  0  0  0  0
   -3.9160   -0.8160    1.0750 C   0  0  0  0  0  0  0  0  0  0  0  0
   -4.5580    0.4790    1.1080 C   0  0  0  0  0  0  0  0  0  0  0  0
   -4.0600    1.4410    0.3890 C   0  0  0  0  0  0  0  0  0  0  0  0
   -2.8790    1.3430   -0.4650 C   0  0  1  0  0  0  0  0  0  0  0  0
   -3.2580    1.8810   -1.7070 F   0  0  0  0  0  0  0  0  0  0  0  0
   -1.9570    2.2390    0.1390 F   0  0  0  0  0  0  0  0  0  0  0  0
   -2.2720   -0.0030   -0.6060 C   0  0  1  0  0  0  0  0  0  0  0  0
   -0.8490   -0.0230   -0.6200 N   0  0  0  0  0  0  0  0  0  0  0  0
   -0.3150   -1.2940   -1.0740 C   0  0  0  0  0  0  0  0  0  0  0  0
    0.5030   -1.9670    0.0190 C   0  0  0  0  0  0  0  0  0  0  0  0
    1.9670   -1.9640   -0.3280 C   0  0  0  0  0  0  0  0  0  0  0  0
    2.8230   -1.9840    0.8730 C   0  0  0  0  0  0  0  0  0  0  0  0
    3.7190   -1.0810    1.2210 C   0  0  0  0  0  0  0  0  0  0  0  0
    4.0760    0.1250    0.5330 C   0  0  0  0  0  0  0  0  0  0  0  0
    3.4270    1.2720    0.4740 C   0  0  0  0  0  0  0  0  0  0  0  0
    2.1520    1.5930    1.1210 C   0  0  0  0  0  0  0  0  0  0  0  0
    1.0870    1.0410    0.4570 O   0  0  0  0  0  0  0  0  0  0  0  0
    0.8900    1.6890   -0.7610 C   0  0  0  0  0  0  0  0  0  0  0  0
   -0.2730    1.0040   -1.4450 C   0  0  0  0  0  0  0  0  0  0  0  0
  1  2  1  0
  2  3  2  0
  2  9  1  0
  3  4  1  0
  4  5  2  0
  5  6  1  0
  6  7  1  6
  6  8  1  0
  6  9  1  0
  9 10  1  1
 10 11  1  0
 10 21  1  0
 11 12  1  0
 12 13  1  0
 13 14  1  0
 14 15  2  0
 15 16  1  0
 16 17  2  0
 17 18  1  0
 18 19  1  0
 19 20  1  0
 20 21  1  0
M  END
