
     RDKit          3D

 21 22  0  0  0  0  0  0  0  0999 V2000
    1.2870   -2.8130    1.8610 C   0  0  0  0  0  0  0  0  0  0  0  0
    0.8440   -2.1280    0.6330 C   0  0  0  0  0  0  0  0  0  0  0  0
    1.0940   -0.9000    0.3150 C   0  0  0  0  0  0  0  0  0  0  0  0
    1.8270    0.1990    0.9450 C   0  0  0  0  0  0  0  0  0  0  0  0
    2.4950    0.3070    2.1740 C   0  0  0  0  0  0  0  0  0  0  0  0
    2.9040   -0.2460    3.2420 C   0  0  0  0  0  0  0  0  0  0  0  0
    2.8830   -1.4290    3.8010 F   0  0  0  0  0  0  0  0  0  0  0  0
    3.6130    0.6580    4.1260 F   0  0  0  0  0  0  0  0  0  0  0  0
    1.8130    1.3820    0.2240 C   0  0  0  0  0  0  0  0  0  0  0  0
    2.4370    2.6270    0.5590 C   0  0  0  0  0  0  0  0  0  0  0  0
    1.4840    3.6290    0.7430 F   0  0  0  0  0  0  0  0  0  0  0  0
    0.4150   -0.6820   -1.0570 C   0  0  2  0  0  0  0  0  0  0  0  0
   -0.6890    0.1440   -0.8860 N   0  0  0  0  0  0  0  0  0  0  0  0
   -1.7540   -0.2770   -0.0600 C   0  0  0  0  0  0  0  0  0  0  0  0
   -2.4160    1.0000    0.4860 C   0  0  0  0  0  0  0  0  0  0  0  0
   -2.0880    2.1200   -0.2520 O   0  0  0  0  0  0  0  0  0  0  0  0
   -2.0990    1.9100   -1.6190 C   0  0  2  0  0  0  0  0  0  0  0  0
   -3.5310    1.7530   -2.0600 C   0  0  0  0  0  0  0  0  0  0  0  0
   -1.2310    0.7580   -2.0680 C   0  0  0  0  0  0  0  0  0  0  0  0
    0.2130   -2.0410   -1.5670 C   0  0  0  0  0  0  0  0  0  0  0  0
    0.0270   -2.8870   -0.3710 C   0  0  0  0  0  0  0  0  0  0  0  0
  1  2  1  0
  2  3  2  0
  2 21  1  0
  3  4  1  0
  3 12  1  0
  4  5  1  0
  4  9  2  3
  5  6  2  3
  6  7  1  0
  6  8  1  0
  9 10  1  0
 10 11  1  0
 12 13  1  1
 12 20  1  0
 13 14  1  0
 13 19  1  0
 14 15  1  0
 15 16  1  0
 16 17  1  0
 17 18  1  1
 17 19  1  0
 20 21  1  0
M  END
