
     RDKit          3D

 24 26  0  0  0  0  0  0  0  0999 V2000
   -5.8170   -0.4730    0.0690 C   0  0  0  0  0  0  0  0  0  0  0  0
   -4.9190    0.7600    0.2420 C   0  0  2  0  0  0  0  0  0  0  0  0
   -5.5840    2.0230   -0.2260 C   0  0  0  0  0  0  0  0  0  0  0  0
   -3.4610    0.5570    0.0760 C   0  0  1  0  0  0  0  0  0  0  0  0
   -2.5480    1.6530   -0.3510 C   0  0  0  0  0  0  0  0  0  0  0  0
   -1.1840    1.1030   -0.4140 N   0  0  0  0  0  0  0  0  0  0  0  0
   -0.8470    0.0470   -1.2800 C   0  0  0  0  0  0  0  0  0  0  0  0
   -1.7330   -0.4520   -2.0360 O   0  0  0  0  0  0  0  0  0  0  0  0
    0.4430   -0.4830   -1.3430 N   0  0  0  0  0  0  0  0  0  0  0  0
    1.5080   -0.0120   -0.5550 C   0  0  0  0  0  0  0  0  0  0  0  0
    2.7440   -0.5540   -0.6470 C   0  0  0  0  0  0  0  0  0  0  0  0
    3.7730   -0.0040    0.2040 C   0  0  0  0  0  0  0  0  0  0  0  0
    3.4950    0.9470    0.9970 O   0  0  0  0  0  0  0  0  0  0  0  0
    5.1260   -0.5220    0.1680 N   0  0  0  0  0  0  0  0  0  0  0  0
    6.2130   -0.0550    0.9800 C   0  0  0  0  0  0  0  0  0  0  0  0
    7.4330   -0.4030    0.1620 C   0  0  0  0  0  0  0  0  0  0  0  0
    7.0190   -1.7180   -0.5190 C   0  0  0  0  0  0  0  0  0  0  0  0
    5.5470   -1.5740   -0.6940 C   0  0  0  0  0  0  0  0  0  0  0  0
    2.9710   -1.6080   -1.5480 N   0  0  0  0  0  0  0  0  0  0  0  0
    2.0580   -2.1090   -2.3140 C   0  0  0  0  0  0  0  0  0  0  0  0
    0.7530   -1.5500   -2.2290 N   0  0  0  0  0  0  0  0  0  0  0  0
   -4.0510    0.7050    1.4300 C   0  0  1  0  0  0  0  0  0  0  0  0
   -3.9220    1.9470    2.2470 C   0  0  0  0  0  0  0  0  0  0  0  0
   -4.0020   -0.5640    2.2860 C   0  0  0  0  0  0  0  0  0  0  0  0
  2  1  1  1
  2  3  1  0
  2  4  1  0
  2 22  1  0
  4  5  1  6
  4 22  1  0
  5  6  1  0
  6  7  1  0
  7  8  2  0
  7  9  1  0
  9 10  1  0
  9 21  1  0
 10 11  2  0
 11 12  1  0
 11 19  1  0
 12 13  2  0
 12 14  1  0
 14 15  1  0
 14 18  1  0
 15 16  1  0
 16 17  1  0
 17 18  1  0
 19 20  2  0
 20 21  1  0
 22 23  1  1
 22 24  1  0
M  END
