
     RDKit          3D

 24 26  0  0  0  0  0  0  0  0999 V2000
    7.1830   -1.8930   -0.0350 C   0  0  0  0  0  0  0  0  0  0  0  0
    5.8230   -1.4480    0.2950 C   0  0  0  0  0  0  0  0  0  0  0  0
    5.4680   -0.1870    0.1350 C   0  0  0  0  0  0  0  0  0  0  0  0
    6.4620    0.7910   -0.3870 C   0  0  0  0  0  0  0  0  0  0  0  0
    4.1000    0.2400    0.4720 C   0  0  0  0  0  0  0  0  0  0  0  0
    3.2870   -0.6120    0.9120 O   0  0  0  0  0  0  0  0  0  0  0  0
    3.6990    1.5770    0.3090 N   0  0  0  0  0  0  0  0  0  0  0  0
    2.3920    1.9520    0.6390 N   0  0  0  0  0  0  0  0  0  0  0  0
    1.2850    1.2670    0.0140 C   0  0  0  0  0  0  0  0  0  0  0  0
    1.5400    0.3590   -0.8030 O   0  0  0  0  0  0  0  0  0  0  0  0
   -0.0570    1.7000    0.3970 C   0  0  0  0  0  0  0  0  0  0  0  0
   -1.1110    0.9600   -0.2660 N   0  0  0  0  0  0  0  0  0  0  0  0
   -1.1160   -0.3740    0.2240 C   0  0  0  0  0  0  0  0  0  0  0  0
   -2.3600   -1.1630   -0.0090 C   0  0  0  0  0  0  0  0  0  0  0  0
   -3.5720   -0.4060    0.0180 N   0  0  0  0  0  0  0  0  0  0  0  0
   -3.5360    0.9250   -0.0410 C   0  0  0  0  0  0  0  0  0  0  0  0
   -4.8000    1.4100   -0.0010 N   0  0  0  0  0  0  0  0  0  0  0  0
   -5.6480    0.3710    0.0840 C   0  0  0  0  0  0  0  0  0  0  0  0
   -7.0340    0.2790    0.1540 C   0  0  0  0  0  0  0  0  0  0  0  0
   -7.6570   -0.9460    0.2370 C   0  0  0  0  0  0  0  0  0  0  0  0
   -6.8600   -2.0700    0.2480 C   0  0  0  0  0  0  0  0  0  0  0  0
   -5.4850   -1.9900    0.1780 C   0  0  0  0  0  0  0  0  0  0  0  0
   -4.8630   -0.7620    0.0960 C   0  0  0  0  0  0  0  0  0  0  0  0
   -2.3040    1.7130   -0.1320 C   0  0  0  0  0  0  0  0  0  0  0  0
  1  2  1  0
  2  3  2  3
  3  4  1  0
  3  5  1  0
  5  6  2  0
  5  7  1  0
  7  8  1  0
  8  9  1  0
  9 10  2  0
  9 11  1  0
 11 12  1  0
 12 13  1  0
 12 24  1  0
 13 14  1  0
 14 15  1  0
 15 16  1  0
 15 23  1  0
 16 17  2  0
 16 24  1  0
 17 18  1  0
 18 19  2  0
 18 23  1  0
 19 20  1  0
 20 21  2  0
 21 22  1  0
 22 23  2  0
M  END
