
     RDKit          3D

 24 26  0  0  0  0  0  0  0  0999 V2000
   -6.7670    0.6960    1.1520 C   0  0  0  0  0  0  0  0  0  0  0  0
   -6.1340    0.2490   -0.0320 O   0  0  0  0  0  0  0  0  0  0  0  0
   -4.7590    0.1640   -0.1550 C   0  0  0  0  0  0  0  0  0  0  0  0
   -4.1370   -0.2710   -1.3030 C   0  0  0  0  0  0  0  0  0  0  0  0
   -2.7580   -0.3300   -1.3530 C   0  0  0  0  0  0  0  0  0  0  0  0
   -1.9400    0.0320   -0.2880 C   0  0  0  0  0  0  0  0  0  0  0  0
   -0.5560   -0.0270   -0.3380 N   0  0  0  0  0  0  0  0  0  0  0  0
    0.1720   -1.2070    0.0500 C   0  0  0  0  0  0  0  0  0  0  0  0
    1.3400   -1.4850   -0.8650 C   0  0  2  0  0  0  0  0  0  0  0  0
    1.7410   -2.7940   -0.6170 O   0  0  0  0  0  0  0  0  0  0  0  0
    2.4880   -0.5080   -0.6160 C   0  0  0  0  0  0  0  0  0  0  0  0
    3.8020   -0.7680   -0.4020 C   0  0  0  0  0  0  0  0  0  0  0  0
    4.6460    0.2500   -0.2110 C   0  0  0  0  0  0  0  0  0  0  0  0
    6.3640    0.2230    0.0830 S   0  0  2  0  0  0  0  0  0  0  0  0
    6.7500    0.9540    1.5910 N   0  0  0  0  0  0  0  0  0  0  0  0
    7.1170    0.9290   -0.9900 O   0  0  0  0  0  0  0  0  0  0  0  0
    6.7970   -1.2080    0.1490 O   0  0  0  0  0  0  0  0  0  0  0  0
    3.6190    1.6900   -0.3230 S   0  0  0  0  0  0  0  0  0  0  0  0
    2.0920    0.7950   -0.6250 C   0  0  0  0  0  0  0  0  0  0  0  0
    0.4310    1.3100   -0.8720 S   0  0  1  0  0  0  0  0  0  0  0  0
    0.2140    1.4920   -2.3350 O   0  0  0  0  0  0  0  0  0  0  0  0
    0.1160    2.5340   -0.0910 O   0  0  0  0  0  0  0  0  0  0  0  0
   -2.6080    0.4680    0.8620 C   0  0  0  0  0  0  0  0  0  0  0  0
   -3.9800    0.5270    0.9110 C   0  0  0  0  0  0  0  0  0  0  0  0
  1  2  1  0
  2  3  1  0
  3  4  2  0
  3 24  1  0
  4  5  1  0
  5  6  2  0
  6  7  1  0
  6 23  1  0
  7  8  1  0
 20  7  1  1
  8  9  1  0
  9 10  1  1
  9 11  1  0
 11 12  1  0
 11 19  2  0
 12 13  2  0
 13 14  1  0
 13 18  1  0
 14 15  1  1
 14 16  2  0
 14 17  2  0
 18 19  1  0
 19 20  1  0
 20 21  2  0
 20 22  2  0
 23 24  2  0
M  END
