
     RDKit          3D

 24 26  0  0  0  0  0  0  0  0999 V2000
    2.8500    2.1850   -0.6820 C   0  0  0  0  0  0  0  0  0  0  0  0
    2.5880    0.7990   -0.2690 C   0  0  0  0  0  0  0  0  0  0  0  0
    3.4740   -0.1090   -0.0520 C   0  0  0  0  0  0  0  0  0  0  0  0
    4.9080   -0.0570   -0.1390 C   0  0  0  0  0  0  0  0  0  0  0  0
    5.5980   -1.1860    0.1520 C   0  0  0  0  0  0  0  0  0  0  0  0
    7.0560   -1.2560    0.0980 C   0  0  0  0  0  0  0  0  0  0  0  0
    7.7100   -0.0880   -0.2710 O   0  0  0  0  0  0  0  0  0  0  0  0
    7.0410    1.0370   -0.5610 N   0  0  0  0  0  0  0  0  0  0  0  0
    5.7360    1.0720   -0.5060 C   0  0  0  0  0  0  0  0  0  0  0  0
    1.1580    0.4180   -0.0860 C   0  0  0  0  0  0  0  0  0  0  0  0
    0.1670    1.2140   -0.2650 N   0  0  0  0  0  0  0  0  0  0  0  0
   -1.0450    0.5170   -0.0020 C   0  0  0  0  0  0  0  0  0  0  0  0
   -2.4410    0.6320    0.0360 C   0  0  0  0  0  0  0  0  0  0  0  0
   -3.1290    1.8590   -0.2840 C   0  0  0  0  0  0  0  0  0  0  0  0
   -2.4090    3.0080   -0.6510 N   0  0  0  0  0  0  0  0  0  0  0  0
   -4.3710    1.9000   -0.2350 O   0  0  0  0  0  0  0  0  0  0  0  0
   -2.9730   -0.5860    0.4160 C   0  0  0  0  0  0  0  0  0  0  0  0
   -4.4190   -0.9430    0.5940 C   0  0  2  0  0  0  0  0  0  0  0  0
   -4.4390   -2.4210    1.0210 C   0  0  0  0  0  0  0  0  0  0  0  0
   -5.1600   -0.8630   -0.6990 C   0  0  0  0  0  0  0  0  0  0  0  0
   -5.0350   -0.1650    1.7160 C   0  0  0  0  0  0  0  0  0  0  0  0
   -1.9100   -1.4000    0.5970 N   0  0  0  0  0  0  0  0  0  0  0  0
   -0.7890   -0.7480    0.3510 N   0  0  0  0  0  0  0  0  0  0  0  0
    0.6680   -0.9200    0.3260 C   0  0  0  0  0  0  0  0  0  0  0  0
  1  2  1  0
  2  3  2  3
  2 10  1  0
  3  4  1  0
  4  5  2  0
  4  9  1  0
  5  6  1  0
  6  7  1  0
  7  8  1  0
  8  9  2  0
 10 11  2  0
 10 24  1  0
 11 12  1  0
 12 13  2  0
 12 23  1  0
 13 14  1  0
 13 17  1  0
 14 15  1  0
 14 16  2  0
 17 18  1  0
 17 22  2  0
 18 19  1  1
 18 20  1  0
 18 21  1  0
 22 23  1  0
 23 24  1  0
M  END
