
     RDKit          3D

 24 27  0  0  0  0  0  0  0  0999 V2000
   -2.3190    4.0360   -0.6700 C   0  0  0  0  0  0  0  0  0  0  0  0
   -1.7880    2.8190   -0.4990 C   0  0  0  0  0  0  0  0  0  0  0  0
   -2.6280    1.6720   -0.4500 C   0  0  0  0  0  0  0  0  0  0  0  0
   -2.4020    0.3980   -0.2980 C   0  0  0  0  0  0  0  0  0  0  0  0
   -3.5110   -0.6150   -0.2860 C   0  0  0  0  0  0  0  0  0  0  0  0
   -4.7950   -0.7190   -0.3810 N   0  0  0  0  0  0  0  0  0  0  0  0
   -5.2130   -2.0970   -0.2750 C   0  0  0  0  0  0  0  0  0  0  0  0
   -3.9420   -2.8100   -0.0970 C   0  0  0  0  0  0  0  0  0  0  0  0
   -2.9350   -1.9260   -0.1040 C   0  0  0  0  0  0  0  0  0  0  0  0
   -1.5090   -1.7610   -0.0030 C   0  0  0  0  0  0  0  0  0  0  0  0
   -0.7090   -2.7170    0.1620 O   0  0  0  0  0  0  0  0  0  0  0  0
   -1.2240   -0.3480   -0.1240 N   0  0  0  0  0  0  0  0  0  0  0  0
    0.1430    0.0730   -0.0590 C   0  0  1  0  0  0  0  0  0  0  0  0
    0.7830   -0.3820    1.2720 C   0  0  0  0  0  0  0  0  0  0  0  0
    2.1020    0.3540    1.3650 C   0  0  0  0  0  0  0  0  0  0  0  0
    2.9690   -0.1010    0.2080 C   0  0  2  0  0  0  0  0  0  0  0  0
    2.2580   -1.1570   -0.6160 C   0  0  0  0  0  0  0  0  0  0  0  0
    0.9510   -0.6670   -1.1330 C   0  0  0  0  0  0  0  0  0  0  0  0
    4.1810   -0.6290    0.7920 N   0  0  0  0  0  0  0  0  0  0  0  0
    5.2280    0.2650    0.4930 C   0  0  0  0  0  0  0  0  0  0  0  0
    6.4350    0.2140    0.9250 O   0  0  0  0  0  0  0  0  0  0  0  0
    4.7530    1.2600   -0.3770 N   0  0  0  0  0  0  0  0  0  0  0  0
    3.3860    1.0170   -0.6500 C   0  0  0  0  0  0  0  0  0  0  0  0
    2.7050    1.6640   -1.4780 O   0  0  0  0  0  0  0  0  0  0  0  0
  1  2  2  0
  2  3  1  0
  3  4  2  3
  4  5  1  0
  4 12  1  0
  5  6  2  0
  5  9  1  0
  6  7  1  0
  7  8  1  0
  8  9  2  0
  9 10  1  0
 10 11  2  0
 10 12  1  0
 13 12  1  1
 13 14  1  0
 13 18  1  0
 14 15  1  0
 16 15  1  1
 16 17  1  0
 16 19  1  0
 16 23  1  0
 17 18  1  0
 19 20  1  0
 20 21  2  0
 20 22  1  0
 22 23  1  0
 23 24  2  0
M  END
