
     RDKit          3D

 21 23  0  0  0  0  0  0  0  0999 V2000
    5.9710    0.3910    1.0040 O   0  0  0  0  0  0  0  0  0  0  0  0
    4.9270    0.5880    0.3310 C   0  0  0  0  0  0  0  0  0  0  0  0
    4.7670   -0.1800   -0.9420 C   0  0  0  0  0  0  0  0  0  0  0  0
    3.1450   -1.0270   -0.7960 S   0  0  0  0  0  0  0  0  0  0  0  0
    2.0180    0.1500   -0.0880 C   0  0  0  0  0  0  0  0  0  0  0  0
    0.7250   -0.0520   -0.1690 C   0  0  0  0  0  0  0  0  0  0  0  0
   -0.4740    1.0580    0.5020 S   0  0  0  0  0  0  0  0  0  0  0  0
   -2.1140    0.3610    0.1460 C   0  0  0  0  0  0  0  0  0  0  0  0
   -2.2420   -0.7440   -0.4860 C   0  0  0  0  0  0  0  0  0  0  0  0
   -1.1340   -1.5260   -0.9660 N   0  0  0  0  0  0  0  0  0  0  0  0
    0.2040   -1.2320   -0.8340 C   0  0  0  0  0  0  0  0  0  0  0  0
    1.0940   -2.0280   -1.3170 O   0  0  0  0  0  0  0  0  0  0  0  0
   -3.5340   -1.4210   -0.8400 C   0  0  1  0  0  0  0  0  0  0  0  0
   -3.5460   -2.7130   -0.2770 O   0  0  0  0  0  0  0  0  0  0  0  0
   -4.9610   -0.5490   -0.2990 S   0  0  0  0  0  0  0  0  0  0  0  0
   -4.4680    0.9180    0.5320 C   0  0  0  0  0  0  0  0  0  0  0  0
   -3.1950    1.1940    0.6550 C   0  0  0  0  0  0  0  0  0  0  0  0
   -2.8210    2.3800    1.3270 O   0  0  0  0  0  0  0  0  0  0  0  0
    2.5590    1.3240    0.5730 C   0  0  0  0  0  0  0  0  0  0  0  0
    1.7910    2.2390    1.0120 O   0  0  0  0  0  0  0  0  0  0  0  0
    3.9470    1.4930    0.7510 N   0  0  0  0  0  0  0  0  0  0  0  0
  1  2  2  0
  2  3  1  0
  2 21  1  0
  3  4  1  0
  4  5  1  0
  5  6  2  3
  5 19  1  0
  6  7  1  0
  6 11  1  0
  7  8  1  0
  8  9  2  0
  8 17  1  0
  9 10  1  0
  9 13  1  0
 10 11  1  0
 11 12  2  0
 13 14  1  1
 13 15  1  0
 15 16  1  0
 16 17  2  0
 17 18  1  0
 19 20  2  0
 19 21  1  0
M  END
