
     RDKit          3D

 22 23  0  0  0  0  0  0  0  0999 V2000
    5.9670   -2.9290   -0.4200 C   0  0  0  0  0  0  0  0  0  0  0  0
    5.4470   -1.7250   -0.5710 C   0  0  0  0  0  0  0  0  0  0  0  0
    6.5240   -0.3820   -1.0400 S   0  0  0  0  0  0  0  0  0  0  0  0
    4.0150   -1.4740   -0.3620 C   0  0  0  0  0  0  0  0  0  0  0  0
    3.2180   -2.3770   -0.0340 O   0  0  0  0  0  0  0  0  0  0  0  0
    3.4950   -0.1660   -0.5340 N   0  0  0  0  0  0  0  0  0  0  0  0
    2.1070    0.1020   -0.3380 N   0  0  0  0  0  0  0  0  0  0  0  0
    1.6370    1.3930   -0.0590 C   0  0  0  0  0  0  0  0  0  0  0  0
    2.6190    2.2590   -0.0110 O   0  0  0  0  0  0  0  0  0  0  0  0
    0.2990    1.8720    0.1700 C   0  0  0  0  0  0  0  0  0  0  0  0
   -0.9030    1.4010    0.2150 C   0  0  0  0  0  0  0  0  0  0  0  0
   -1.2060   -0.0330   -0.0070 C   0  0  0  0  0  0  0  0  0  0  0  0
   -2.4730   -0.4760    0.0510 C   0  0  0  0  0  0  0  0  0  0  0  0
   -3.0170   -2.1550   -0.1890 S   0  0  0  0  0  0  0  0  0  0  0  0
   -4.7920   -1.9410   -0.4820 C   0  0  0  0  0  0  0  0  0  0  0  0
   -5.2080   -0.7340    0.2960 C   0  0  0  0  0  0  0  0  0  0  0  0
   -3.9230    0.4300    0.3660 S   0  0  1  0  0  0  0  0  0  0  0  0
   -3.8940    1.0690    1.7280 O   0  0  0  0  0  0  0  0  0  0  0  0
   -4.1270    1.4730   -0.7110 O   0  0  0  0  0  0  0  0  0  0  0  0
   -1.9260    2.2700    0.4800 O   0  0  0  0  0  0  0  0  0  0  0  0
   -1.7190    3.5970    0.0390 C   0  0  0  0  0  0  0  0  0  0  0  0
    0.0650    3.6710    0.5060 S   0  0  0  0  0  0  0  0  0  0  0  0
  1  2  2  0
  2  3  1  0
  2  4  1  0
  4  5  2  0
  4  6  1  0
  6  7  1  0
  7  8  1  0
  8  9  2  0
  8 10  1  0
 10 11  2  0
 10 22  1  0
 11 12  1  0
 11 20  1  0
 12 13  2  3
 13 14  1  0
 13 17  1  0
 14 15  1  0
 15 16  1  0
 17 16  1  1
 17 18  2  0
 17 19  2  0
 20 21  1  0
 21 22  1  0
M  END
