
     RDKit          3D

 22 24  0  0  0  0  0  0  0  0999 V2000
    4.4440   -1.5890   -0.0350 N   0  0  0  0  0  0  0  0  0  0  0  0
    3.0090   -1.5360    0.0250 C   0  0  0  0  0  0  0  0  0  0  0  0
    2.4200   -2.6410   -0.0060 O   0  0  0  0  0  0  0  0  0  0  0  0
    2.3020   -0.2680    0.1170 C   0  0  0  0  0  0  0  0  0  0  0  0
    2.9960    0.8450    0.1440 C   0  0  0  0  0  0  0  0  0  0  0  0
    2.4100    2.0960    0.2300 O   0  0  0  0  0  0  0  0  0  0  0  0
    0.9370   -0.2950    0.1700 O   0  0  0  0  0  0  0  0  0  0  0  0
    0.0810    0.4040   -0.6280 C   0  0  0  0  0  0  0  0  0  0  0  0
    0.6140    1.1880   -1.5460 N   0  0  0  0  0  0  0  0  0  0  0  0
   -0.0820    1.9360   -2.4040 C   0  0  0  0  0  0  0  0  0  0  0  0
   -1.4450    1.8570   -2.2910 C   0  0  0  0  0  0  0  0  0  0  0  0
   -2.5230    2.7790   -3.3440 S   0  0  0  0  0  0  0  0  0  0  0  0
   -2.0320    1.0360   -1.3270 C   0  0  0  0  0  0  0  0  0  0  0  0
   -3.7040    0.7360   -0.9510 S   0  0  0  0  0  0  0  0  0  0  0  0
   -3.3840   -0.4300    0.3980 C   0  0  0  0  0  0  0  0  0  0  0  0
   -2.0480   -0.4860    0.4410 C   0  0  0  0  0  0  0  0  0  0  0  0
   -1.3120    0.2570   -0.4340 C   0  0  0  0  0  0  0  0  0  0  0  0
   -1.5770   -1.6330    1.7620 S   0  0  1  0  0  0  0  0  0  0  0  0
   -1.2390   -2.9520    1.1990 O   0  0  0  0  0  0  0  0  0  0  0  0
   -0.4480   -1.0510    2.5470 O   0  0  0  0  0  0  0  0  0  0  0  0
   -2.9830   -1.7440    2.7920 C   0  0  0  0  0  0  0  0  0  0  0  0
   -4.2760   -1.4150    1.5570 S   0  0  0  0  0  0  0  0  0  0  0  0
  1  2  1  0
  2  3  2  0
  2  4  1  0
  4  5  2  3
  4  7  1  0
  5  6  1  0
  7  8  1  0
  8  9  2  0
  8 17  1  0
  9 10  1  0
 10 11  2  0
 11 12  1  0
 11 13  1  0
 13 14  1  0
 13 17  2  0
 14 15  1  0
 15 16  2  0
 15 22  1  0
 16 17  1  0
 16 18  1  0
 18 19  2  0
 18 20  2  0
 18 21  1  1
 21 22  1  0
M  END
