
     RDKit          3D

 25 26  0  0  0  0  0  0  0  0999 V2000
    4.5110    1.3470    1.8600 C   0  0  0  0  0  0  0  0  0  0  0  0
    4.0980   -0.1010    1.6890 C   0  0  0  0  0  0  0  0  0  0  0  0
    4.1270   -0.3990    0.3070 O   0  0  0  0  0  0  0  0  0  0  0  0
    3.3230    0.3070   -0.5550 C   0  0  0  0  0  0  0  0  0  0  0  0
    2.5770    1.2080   -0.0560 O   0  0  0  0  0  0  0  0  0  0  0  0
    3.3290    0.0230   -2.0140 C   0  0  2  0  0  0  0  0  0  0  0  0
    4.6940    0.2480   -2.6380 C   0  0  0  0  0  0  0  0  0  0  0  0
    2.1200    1.0060   -2.9050 S   0  0  0  0  0  0  0  0  0  0  0  0
    0.4410    0.5390   -2.4540 C   0  0  0  0  0  0  0  0  0  0  0  0
   -0.5470    1.0960   -2.9660 O   0  0  0  0  0  0  0  0  0  0  0  0
    0.2750   -0.4750   -1.5050 N   0  0  0  0  0  0  0  0  0  0  0  0
   -1.0140   -0.9470   -1.0420 C   0  0  0  0  0  0  0  0  0  0  0  0
   -1.2620   -2.1840   -1.3960 C   0  0  0  0  0  0  0  0  0  0  0  0
   -2.7710   -2.9500   -0.9410 S   0  0  0  0  0  0  0  0  0  0  0  0
   -3.6900   -1.7550    0.0090 C   0  0  0  0  0  0  0  0  0  0  0  0
   -5.0300   -2.1860    0.4740 C   0  0  0  0  0  0  0  0  0  0  0  0
   -3.1850   -0.5770    0.2220 C   0  0  0  0  0  0  0  0  0  0  0  0
   -1.9110   -0.0920   -0.2450 C   0  0  0  0  0  0  0  0  0  0  0  0
   -1.4150    1.1240    0.0180 C   0  0  0  0  0  0  0  0  0  0  0  0
   -2.1140    2.1470    0.7640 C   0  0  0  0  0  0  0  0  0  0  0  0
   -1.5270    3.2720    0.9570 O   0  0  0  0  0  0  0  0  0  0  0  0
   -3.4130    1.9990    1.3060 N   0  0  0  0  0  0  0  0  0  0  0  0
   -4.1110    0.4570    1.3290 S   0  0  2  0  0  0  0  0  0  0  0  0
   -3.9570   -0.1430    2.7850 N   0  0  0  0  0  0  0  0  0  0  0  0
   -5.5550    0.3710    1.0960 O   0  0  0  0  0  0  0  0  0  0  0  0
  1  2  1  0
  2  3  1  0
  3  4  1  0
  4  5  2  0
  4  6  1  0
  6  7  1  6
  6  8  1  0
  8  9  1  0
  9 10  2  0
  9 11  1  0
 11 12  1  0
 12 13  2  0
 12 18  1  0
 13 14  1  0
 14 15  1  0
 15 16  1  0
 15 17  2  0
 17 18  1  0
 17 23  1  0
 18 19  2  0
 19 20  1  0
 20 21  2  0
 20 22  1  0
 23 22  1  1
 23 24  2  0
 23 25  2  0
M  CHG  1  24   1
M  END
