
     RDKit          3D

 25 27  0  0  0  0  0  0  0  0999 V2000
   -0.7430   -3.9090   -1.4390 N   0  0  0  0  0  0  0  0  0  0  0  0
   -0.3440   -2.6100   -1.0610 C   0  0  0  0  0  0  0  0  0  0  0  0
    0.8540   -2.2850   -1.1370 O   0  0  0  0  0  0  0  0  0  0  0  0
   -1.3710   -1.6610   -0.5790 C   0  0  0  0  0  0  0  0  0  0  0  0
   -0.9770   -0.4470   -0.2340 C   0  0  0  0  0  0  0  0  0  0  0  0
    0.4060   -0.1550   -0.3540 N   0  0  0  0  0  0  0  0  0  0  0  0
    1.2020   -0.0690    0.8450 C   0  0  0  0  0  0  0  0  0  0  0  0
    2.6390    0.2170    0.4250 C   0  0  0  0  0  0  0  0  0  0  0  0
    3.5850   -0.6150    0.7350 C   0  0  0  0  0  0  0  0  0  0  0  0
    4.9530   -0.2660    0.2910 C   0  0  0  0  0  0  0  0  0  0  0  0
    4.5850    1.0530   -0.8470 S   0  0  2  0  0  0  0  0  0  0  0  0
    4.5750    0.5530   -2.2640 O   0  0  0  0  0  0  0  0  0  0  0  0
    5.4830    2.2270   -0.6610 O   0  0  0  0  0  0  0  0  0  0  0  0
    3.0030    1.3420   -0.2860 O   0  0  0  0  0  0  0  0  0  0  0  0
   -1.9500    0.5000    0.2600 C   0  0  0  0  0  0  0  0  0  0  0  0
   -1.7700    1.7690    0.3340 C   0  0  0  0  0  0  0  0  0  0  0  0
   -3.0650    2.9180    0.9870 S   0  0  0  0  0  0  0  0  0  0  0  0
   -1.8590    4.1010    1.5790 C   0  0  0  0  0  0  0  0  0  0  0  0
   -2.0090    5.0710    2.8360 S   0  0  0  0  0  0  0  0  0  0  0  0
   -0.7910    3.9540    0.6780 N   0  0  0  0  0  0  0  0  0  0  0  0
   -0.7360    2.7140    0.0070 C   0  0  0  0  0  0  0  0  0  0  0  0
    0.1820    2.4420   -0.8510 O   0  0  0  0  0  0  0  0  0  0  0  0
   -3.3130   -0.0390    0.6920 C   0  0  0  0  0  0  0  0  0  0  0  0
   -3.7080   -0.9260   -0.4790 C   0  0  0  0  0  0  0  0  0  0  0  0
   -2.7790   -2.0990   -0.4690 C   0  0  0  0  0  0  0  0  0  0  0  0
  1  2  1  0
  2  3  2  0
  2  4  1  0
  4  5  2  0
  4 25  1  0
  5  6  1  0
  5 15  1  0
  6  7  1  0
  7  8  1  0
  8  9  2  0
  8 14  1  0
  9 10  1  0
 11 10  1  1
 11 12  2  0
 11 13  2  0
 11 14  1  0
 15 16  2  3
 15 23  1  0
 16 17  1  0
 16 21  1  0
 17 18  1  0
 18 19  2  0
 18 20  1  0
 20 21  1  0
 21 22  2  0
 23 24  1  0
 24 25  1  0
M  END
