
     RDKit          3D

 25 27  0  0  0  0  0  0  0  0999 V2000
    7.6060    0.3520   -1.5680 C   0  0  0  0  0  0  0  0  0  0  0  0
    6.2840   -0.0990   -1.4040 O   0  0  0  0  0  0  0  0  0  0  0  0
    5.5630    0.0570   -0.2320 C   0  0  0  0  0  0  0  0  0  0  0  0
    5.9500    0.6460    0.9460 C   0  0  0  0  0  0  0  0  0  0  0  0
    4.8670    0.5460    1.8090 C   0  0  0  0  0  0  0  0  0  0  0  0
    3.9020   -0.0600    1.1820 O   0  0  0  0  0  0  0  0  0  0  0  0
    4.2410   -0.3770   -0.0220 C   0  0  0  0  0  0  0  0  0  0  0  0
    3.4910   -1.0660   -1.0890 C   0  0  0  0  0  0  0  0  0  0  0  0
    2.1830   -1.3960   -0.6730 N   0  0  0  0  0  0  0  0  0  0  0  0
    1.3030   -0.2530   -0.2870 C   0  0  0  0  0  0  0  0  0  0  0  0
    1.6890    0.8550   -0.2740 O   0  0  0  0  0  0  0  0  0  0  0  0
   -0.0040   -0.8810    0.0180 N   0  0  0  0  0  0  0  0  0  0  0  0
   -0.8870    0.5740    0.1630 C   0  0  0  0  0  0  0  0  0  0  0  0
   -0.2300    1.5580    0.0790 O   0  0  0  0  0  0  0  0  0  0  0  0
   -2.2780    0.3670    0.3480 C   0  0  0  0  0  0  0  0  0  0  0  0
   -3.2590    1.8940    0.3510 S   0  0  0  0  0  0  0  0  0  0  0  0
   -4.8470    1.1770    0.5340 C   0  0  0  0  0  0  0  0  0  0  0  0
   -4.5310   -0.1710    0.5850 C   0  0  0  0  0  0  0  0  0  0  0  0
   -3.2360   -0.5430    0.4900 C   0  0  0  0  0  0  0  0  0  0  0  0
   -2.8850   -2.0290    0.5760 C   0  0  0  0  0  0  0  0  0  0  0  0
   -6.0650   -1.1920    0.7590 S   0  0  0  0  0  0  0  0  0  0  0  0
   -7.4220   -0.2300   -0.5950 S   0  0  0  0  0  0  0  0  0  0  0  0
   -7.1970   -0.8260   -2.0040 O   0  0  0  0  0  0  0  0  0  0  0  0
   -6.8700    1.4430   -0.6700 N   0  0  0  0  0  0  0  0  0  0  0  0
   -6.2140    1.7040    0.5920 C   0  0  0  0  0  0  0  0  0  0  0  0
  1  2  1  0
  2  3  1  0
  3  4  1  0
  3  7  2  0
  4  5  2  0
  5  6  1  0
  6  7  1  0
  7  8  1  0
  8  9  1  0
  9 10  1  0
 10 11  2  0
 10 12  1  0
 12 13  1  0
 13 14  2  0
 13 15  1  0
 15 16  1  0
 15 19  2  0
 16 17  1  0
 17 18  2  0
 17 25  1  0
 18 19  1  0
 18 21  1  0
 19 20  1  0
 21 22  1  0
 22 23  2  0
 22 24  1  6
 24 25  1  0
M  CHG  1  24   1
M  END
