
     RDKit          3D

 25 26  0  0  0  0  0  0  0  0999 V2000
   -3.2020   -3.9190    0.3440 N   0  0  0  0  0  0  0  0  0  0  0  0
   -3.5690   -2.6770   -0.3090 C   0  0  0  0  0  0  0  0  0  0  0  0
   -2.3540   -1.7450   -0.4180 C   0  0  0  0  0  0  0  0  0  0  0  0
   -2.8050   -0.4900   -1.0980 C   0  0  0  0  0  0  0  0  0  0  0  0
   -1.8010    0.4990   -1.3050 N   0  0  0  0  0  0  0  0  0  0  0  0
   -2.1620    1.7460   -1.8900 C   0  0  0  0  0  0  0  0  0  0  0  0
   -2.5130    2.7740   -1.1390 C   0  0  0  0  0  0  0  0  0  0  0  0
   -2.5670    2.7470    0.3050 C   0  0  0  0  0  0  0  0  0  0  0  0
   -2.2630    1.6940    0.9080 O   0  0  0  0  0  0  0  0  0  0  0  0
   -2.9710    3.9340    1.0850 C   0  0  0  0  0  0  0  0  0  0  0  0
   -3.3440    5.3150   -0.0600 S   0  0  0  0  0  0  0  0  0  0  0  0
   -0.4190    0.3020   -0.9690 C   0  0  0  0  0  0  0  0  0  0  0  0
    0.5550    0.8830   -1.5160 N   0  0  0  0  0  0  0  0  0  0  0  0
    1.8500    0.6080   -1.1040 C   0  0  0  0  0  0  0  0  0  0  0  0
    2.8360    1.2180   -1.6840 O   0  0  0  0  0  0  0  0  0  0  0  0
    2.0150   -0.3450   -0.0520 C   0  0  0  0  0  0  0  0  0  0  0  0
    2.9630   -0.8650    0.6170 C   0  0  0  0  0  0  0  0  0  0  0  0
    4.3830   -0.7320    0.6330 C   0  0  0  0  0  0  0  0  0  0  0  0
    5.2420   -1.3980    1.4300 C   0  0  0  0  0  0  0  0  0  0  0  0
    6.6310   -1.1040    1.2680 C   0  0  0  0  0  0  0  0  0  0  0  0
    6.9130   -0.0540    0.4800 O   0  0  0  0  0  0  0  0  0  0  0  0
    5.4290    0.3070   -0.2880 S   0  0  2  0  0  0  0  0  0  0  0  0
    5.1410    1.7740   -0.0170 O   0  0  0  0  0  0  0  0  0  0  0  0
    5.5170   -0.0240   -1.7310 O   0  0  0  0  0  0  0  0  0  0  0  0
    0.2530   -0.7900    0.2590 S   0  0  0  0  0  0  0  0  0  0  0  0
  1  2  1  0
  2  3  1  0
  3  4  1  0
  4  5  1  0
  5  6  1  0
  5 12  1  0
  6  7  2  3
  7  8  1  0
  8  9  2  0
  8 10  1  0
 10 11  1  0
 12 13  2  0
 12 25  1  0
 13 14  1  0
 14 15  2  0
 14 16  1  0
 16 17  2  3
 16 25  1  0
 17 18  1  0
 18 19  2  0
 18 22  1  0
 19 20  1  0
 20 21  1  0
 22 21  1  1
 22 23  2  0
 22 24  2  0
M  CHG  1   1   1
M  END
