
     RDKit          3D

 19 19  0  0  0  0  0  0  0  0999 V2000
    5.9850   -0.3140    0.1950 C   0  0  0  0  0  0  0  0  0  0  0  0
    4.8260   -1.5010   -0.5260 S   0  0  0  0  0  0  0  0  0  0  0  0
    3.1720   -1.2360    0.1640 C   0  0  0  0  0  0  0  0  0  0  0  0
    2.2110   -2.2060   -0.4190 C   0  0  0  0  0  0  0  0  0  0  0  0
    2.6190   -3.0440   -1.2620 O   0  0  0  0  0  0  0  0  0  0  0  0
    0.8600   -2.1380    0.0110 N   0  0  0  0  0  0  0  0  0  0  0  0
    0.2530   -0.8900   -0.2390 C   0  0  0  0  0  0  0  0  0  0  0  0
   -1.4140   -0.8630    0.3120 S   0  0  0  0  0  0  0  0  0  0  0  0
   -1.9800    0.7810   -0.0970 C   0  0  0  0  0  0  0  0  0  0  0  0
   -3.6210    1.3040    0.2630 S   0  0  0  0  0  0  0  0  0  0  0  0
   -4.5980   -0.0160    1.0650 C   0  0  0  0  0  0  0  0  0  0  0  0
   -4.8130   -1.1370    0.1270 C   0  0  0  0  0  0  0  0  0  0  0  0
   -4.3430   -1.0860   -1.0380 O   0  0  0  0  0  0  0  0  0  0  0  0
   -5.5230   -2.2430    0.5040 O   0  0  0  0  0  0  0  0  0  0  0  0
   -0.9800    1.4490   -0.6780 C   0  0  0  0  0  0  0  0  0  0  0  0
   -1.0750    2.8670   -1.1650 C   0  0  0  0  0  0  0  0  0  0  0  0
    0.0280    3.5060   -1.7710 N   0  0  0  0  0  0  0  0  0  0  0  0
   -2.1590    3.4920   -1.0280 O   0  0  0  0  0  0  0  0  0  0  0  0
    0.4850    0.5130   -0.8300 S   0  0  0  0  0  0  0  0  0  0  0  0
  1  2  1  0
  2  3  1  0
  3  4  1  0
  4  5  2  0
  4  6  1  0
  6  7  2  3
  7  8  1  0
  7 19  1  0
  8  9  1  0
  9 10  1  0
  9 15  2  0
 10 11  1  0
 11 12  1  0
 12 13  2  0
 12 14  1  0
 15 16  1  0
 15 19  1  0
 16 17  1  0
 16 18  2  0
M  END
