
     RDKit          3D

 12 13  0  0  0  0  0  0  0  0999 V2000
    3.8070    0.3270   -0.0210 O   0  0  0  0  0  0  0  0  0  0  0  0
    2.9900   -0.7490    0.3010 C   0  0  0  0  0  0  0  0  0  0  0  0
    1.5440   -0.3970    0.1020 C   0  0  0  0  0  0  0  0  0  0  0  0
    1.2060    0.8650   -0.3460 C   0  0  0  0  0  0  0  0  0  0  0  0
   -0.1170    1.2140   -0.5360 C   0  0  0  0  0  0  0  0  0  0  0  0
   -1.1360    0.3090   -0.2840 C   0  0  0  0  0  0  0  0  0  0  0  0
   -2.5070    0.3620   -0.3760 C   0  0  0  0  0  0  0  0  0  0  0  0
   -3.4670    1.7700   -0.9070 S   0  0  0  0  0  0  0  0  0  0  0  0
   -2.9550   -0.8760    0.0210 C   0  0  0  0  0  0  0  0  0  0  0  0
   -1.8940   -1.6330    0.3360 N   0  0  0  0  0  0  0  0  0  0  0  0
   -0.7460   -0.9560    0.1680 C   0  0  0  0  0  0  0  0  0  0  0  0
    0.5570   -1.2530    0.3400 N   0  0  0  0  0  0  0  0  0  0  0  0
  1  2  1  0
  2  3  1  0
  3  4  2  0
  3 12  1  0
  4  5  1  0
  5  6  2  0
  6  7  1  0
  6 11  1  0
  7  8  1  0
  7  9  2  0
  9 10  1  0
 10 11  1  0
 11 12  2  0
M  END
