
     RDKit          3D

 12 13  0  0  0  0  0  0  0  0999 V2000
   -3.3310    0.2100    0.3830 C   0  0  0  0  0  0  0  0  0  0  0  0
   -2.0490    0.7340    0.7840 N   0  0  0  0  0  0  0  0  0  0  0  0
   -0.8290    0.1720    0.2300 C   0  0  0  0  0  0  0  0  0  0  0  0
   -0.9530   -0.8740   -0.6280 C   0  0  0  0  0  0  0  0  0  0  0  0
    0.2310   -1.3990   -1.1580 C   0  0  0  0  0  0  0  0  0  0  0  0
    1.4220   -0.8270   -0.7790 C   0  0  0  0  0  0  0  0  0  0  0  0
    3.1460   -1.2240   -1.2480 S   0  0  0  0  0  0  0  0  0  0  0  0
    3.8410    0.0880   -0.2160 C   0  0  0  0  0  0  0  0  0  0  0  0
    5.0760    0.3190   -0.1240 O   0  0  0  0  0  0  0  0  0  0  0  0
    2.8040    0.6510    0.3350 N   0  0  0  0  0  0  0  0  0  0  0  0
    1.5940    0.2110    0.0690 C   0  0  0  0  0  0  0  0  0  0  0  0
    0.3750    0.7160    0.5840 C   0  0  0  0  0  0  0  0  0  0  0  0
  1  2  1  0
  2  3  1  0
  3  4  2  0
  3 12  1  0
  4  5  1  0
  5  6  2  0
  6  7  1  0
  6 11  1  0
  7  8  1  0
  8  9  2  0
  8 10  1  0
 10 11  1  0
 11 12  2  0
M  END
