
     RDKit          3D

 13 14  0  0  0  0  0  0  0  0999 V2000
    1.4690    1.5040    1.5730 O   0  0  0  0  0  0  0  0  0  0  0  0
    2.3020    0.6100    1.3190 C   0  0  0  0  0  0  0  0  0  0  0  0
    1.9550   -0.3310    0.3730 O   0  0  0  0  0  0  0  0  0  0  0  0
    0.6920   -0.2430   -0.2560 C   0  0  2  0  0  0  0  0  0  0  0  0
    0.5140    0.9370   -0.9390 O   0  0  0  0  0  0  0  0  0  0  0  0
   -0.7490    1.1520   -1.4230 C   0  0  0  0  0  0  0  0  0  0  0  0
   -1.6360    0.1120   -1.1710 O   0  0  0  0  0  0  0  0  0  0  0  0
   -1.7420    0.0040    0.2150 C   0  0  0  0  0  0  0  0  0  0  0  0
   -0.4300   -0.6000    0.6660 C   0  0  1  0  0  0  0  0  0  0  0  0
   -0.5670   -1.9800    0.5430 O   0  0  0  0  0  0  0  0  0  0  0  0
   -0.1840   -2.3140   -0.6680 O   0  0  0  0  0  0  0  0  0  0  0  0
    0.6050   -1.3400   -1.2530 C   0  0  0  0  0  0  0  0  0  0  0  0
    1.1010   -1.4570   -2.4020 O   0  0  0  0  0  0  0  0  0  0  0  0
  1  2  2  0
  2  3  1  0
  4  3  1  1
  4  5  1  0
  4  9  1  0
  4 12  1  0
  5  6  1  0
  6  7  1  0
  7  8  1  0
  9  8  1  6
  9 10  1  0
 10 11  1  0
 11 12  1  0
 12 13  2  0
M  END
