
     RDKit          3D

 20 21  0  0  0  0  0  0  0  0999 V2000
    4.8330    3.3950    0.1640 O   0  0  0  0  0  0  0  0  0  0  0  0
    4.0260    2.4410   -0.0570 C   0  0  0  0  0  0  0  0  0  0  0  0
    4.3220    1.4070   -0.9200 C   0  0  0  0  0  0  0  0  0  0  0  0
    3.4010    0.3860   -1.1270 C   0  0  0  0  0  0  0  0  0  0  0  0
    2.2130    0.3860   -0.4930 N   0  0  0  0  0  0  0  0  0  0  0  0
    1.2800   -0.6570   -0.7070 C   0  0  1  0  0  0  0  0  0  0  0  0
    1.0980   -1.5680    0.4990 C   0  0  0  0  0  0  0  0  0  0  0  0
   -0.0630   -2.3940   -0.0230 C   0  0  2  0  0  0  0  0  0  0  0  0
    0.4590   -3.2880   -0.9460 O   0  0  0  0  0  0  0  0  0  0  0  0
   -0.8670   -1.2930   -0.7300 C   0  0  1  0  0  0  0  0  0  0  0  0
   -1.9300   -0.8640    0.2130 C   0  0  0  0  0  0  0  0  0  0  0  0
   -2.6670    0.2260   -0.3080 O   0  0  0  0  0  0  0  0  0  0  0  0
   -3.7900    0.7290    0.6100 P   0  0  0  0  0  0  0  0  0  0  0  0
   -4.1960    1.9560   -0.3480 O   0  0  0  0  0  0  0  0  0  0  0  0
   -4.5170   -0.7960    0.3610 O   0  0  0  0  0  0  0  0  0  0  0  0
   -2.8210    0.8700    1.9200 O   0  0  0  0  0  0  0  0  0  0  0  0
   -0.0060   -0.2540   -0.9560 O   0  0  0  0  0  0  0  0  0  0  0  0
    1.9380    1.4000    0.3460 C   0  0  0  0  0  0  0  0  0  0  0  0
    0.8230    1.3740    0.9230 O   0  0  0  0  0  0  0  0  0  0  0  0
    2.8290    2.4070    0.5580 N   0  0  0  0  0  0  0  0  0  0  0  0
  1  2  2  0
  2  3  1  0
  2 20  1  0
  3  4  2  0
  4  5  1  0
  6  5  1  1
  5 18  1  0
  6  7  1  0
  6 17  1  0
  7  8  1  0
  8  9  1  6
  8 10  1  0
 10 11  1  1
 10 17  1  0
 11 12  1  0
 12 13  1  0
 13 14  1  0
 13 15  1  0
 13 16  1  0
 18 19  2  0
 18 20  1  0
M  END
