
     RDKit          3D

 13 13  0  0  0  0  0  0  0  0999 V2000
    3.0900    1.2960    1.3630 O   0  0  0  0  0  0  0  0  0  0  0  0
    3.5140    0.7080    0.3350 C   0  0  0  0  0  0  0  0  0  0  0  0
    2.6080   -0.0250   -0.4140 O   0  0  0  0  0  0  0  0  0  0  0  0
    1.2790   -0.0840   -0.0090 C   0  0  1  0  0  0  0  0  0  0  0  0
    0.5000    0.5160   -1.0010 O   0  0  0  0  0  0  0  0  0  0  0  0
   -0.7590   -0.0670   -1.0320 C   0  0  0  0  0  0  0  0  0  0  0  0
   -1.4340    0.2490    0.2870 C   0  0  1  0  0  0  0  0  0  0  0  0
   -2.7010    0.7490    0.0540 O   0  0  0  0  0  0  0  0  0  0  0  0
   -2.8290    1.9140    0.6420 O   0  0  0  0  0  0  0  0  0  0  0  0
   -1.5990   -1.0830    1.0230 C   0  0  0  0  0  0  0  0  0  0  0  0
   -0.3820   -1.7880    0.8990 O   0  0  0  0  0  0  0  0  0  0  0  0
    0.8120   -1.4630    0.2710 C   0  0  0  0  0  0  0  0  0  0  0  0
    1.5250   -2.4360   -0.0710 O   0  0  0  0  0  0  0  0  0  0  0  0
  1  2  2  0
  2  3  1  0
  4  3  1  6
  4  5  1  0
  4 12  1  0
  5  6  1  0
  6  7  1  0
  7  8  1  6
  7 10  1  0
  8  9  1  0
 10 11  1  0
 11 12  1  0
 12 13  2  0
M  END
