
     RDKit          3D

 13 13  0  0  0  0  0  0  0  0999 V2000
   -3.7350    1.0940   -1.4750 O   0  0  0  0  0  0  0  0  0  0  0  0
   -2.9270    0.8630   -0.5180 C   0  0  0  0  0  0  0  0  0  0  0  0
   -2.0990   -0.4510   -0.5660 C   0  0  0  0  0  0  0  0  0  0  0  0
   -0.7860   -0.2100    0.0080 C   0  0  2  0  0  0  0  0  0  0  0  0
    0.0130   -1.3570    0.0810 O   0  0  0  0  0  0  0  0  0  0  0  0
    1.3180   -0.9980    0.1670 C   0  0  0  0  0  0  0  0  0  0  0  0
    1.9410   -0.1490   -0.8510 C   0  0  0  0  0  0  0  0  0  0  0  0
    3.3340   -0.0540   -0.4000 O   0  0  0  0  0  0  0  0  0  0  0  0
    3.5810    1.2290   -0.0410 O   0  0  0  0  0  0  0  0  0  0  0  0
   -1.0680    0.2150    1.4870 C   0  0  0  0  0  0  0  0  0  0  0  0
   -0.6610   -0.3980    2.4040 O   0  0  0  0  0  0  0  0  0  0  0  0
   -1.8180    1.4100    1.5180 O   0  0  0  0  0  0  0  0  0  0  0  0
   -2.7260    1.7000    0.5500 O   0  0  0  0  0  0  0  0  0  0  0  0
  1  2  2  0
  2  3  1  0
  2 13  1  0
  3  4  1  0
  4  5  1  1
  4 10  1  0
  5  6  1  0
  6  7  1  0
  7  8  1  0
  8  9  1  0
 10 11  2  0
 10 12  1  0
 12 13  1  0
M  END
