
     RDKit          3D

 24 24  0  0  0  0  0  0  0  0999 V2000
    1.7330   -2.1660   -2.3300 O   0  0  0  0  0  0  0  0  0  0  0  0
    1.5500   -2.0620   -1.1020 C   0  0  0  0  0  0  0  0  0  0  0  0
    2.1380   -2.9810   -0.2550 O   0  0  0  0  0  0  0  0  0  0  0  0
    0.7420   -1.0090   -0.5670 C   0  0  0  0  0  0  0  0  0  0  0  0
    1.3150    0.2130   -0.2170 C   0  0  0  0  0  0  0  0  0  0  0  0
    2.7290    0.3780   -0.4100 C   0  0  0  0  0  0  0  0  0  0  0  0
    3.1400    0.8250   -1.5100 O   0  0  0  0  0  0  0  0  0  0  0  0
    3.6810    0.0690    0.5600 O   0  0  0  0  0  0  0  0  0  0  0  0
    0.5630    1.2400    0.2990 C   0  0  0  0  0  0  0  0  0  0  0  0
    1.1220    2.5290    0.6760 C   0  0  0  0  0  0  0  0  0  0  0  0
    0.4300    3.4630    1.1470 O   0  0  0  0  0  0  0  0  0  0  0  0
    2.4770    2.7720    0.5230 O   0  0  0  0  0  0  0  0  0  0  0  0
   -0.7910    1.0380    0.4670 C   0  0  0  0  0  0  0  0  0  0  0  0
   -1.5920    2.1250    1.0130 C   0  0  0  0  0  0  0  0  0  0  0  0
   -1.7610    2.2240    2.2770 O   0  0  0  0  0  0  0  0  0  0  0  0
   -2.2030    3.0880    0.2460 O   0  0  0  0  0  0  0  0  0  0  0  0
   -1.3920   -0.1590    0.1310 C   0  0  0  0  0  0  0  0  0  0  0  0
   -2.8280   -0.2930    0.3390 C   0  0  0  0  0  0  0  0  0  0  0  0
   -3.5090    0.6510    0.8110 O   0  0  0  0  0  0  0  0  0  0  0  0
   -3.4900   -1.4700    0.0220 O   0  0  0  0  0  0  0  0  0  0  0  0
   -0.6280   -1.1930   -0.3900 C   0  0  0  0  0  0  0  0  0  0  0  0
   -1.2950   -2.4420   -0.7330 C   0  0  0  0  0  0  0  0  0  0  0  0
   -1.7410   -2.5330   -1.9180 O   0  0  0  0  0  0  0  0  0  0  0  0
   -1.4530   -3.4900    0.1530 O   0  0  0  0  0  0  0  0  0  0  0  0
  1  2  2  0
  2  3  1  0
  2  4  1  0
  4  5  2  0
  4 21  1  0
  5  6  1  0
  5  9  1  0
  6  7  2  0
  6  8  1  0
  9 10  1  0
  9 13  2  0
 10 11  2  0
 10 12  1  0
 13 14  1  0
 13 17  1  0
 14 15  2  0
 14 16  1  0
 17 18  1  0
 17 21  2  0
 18 19  2  0
 18 20  1  0
 21 22  1  0
 22 23  2  0
 22 24  1  0
M  END
