
     RDKit          3D

 22 21  0  0  0  0  0  0  0  0999 V2000
    0.0430    0.3810    1.0530 O   0  0  0  0  0  0  0  0  0  0  0  0
   -0.3890   -0.2830    0.0730 C   0  0  0  0  0  0  0  0  0  0  0  0
   -1.7530   -0.2960   -0.1110 O   0  0  0  0  0  0  0  0  0  0  0  0
   -2.6050    0.4060    0.7650 C   0  0  0  0  0  0  0  0  0  0  0  0
   -4.0510    0.2880    0.4240 C   0  0  2  0  0  0  0  0  0  0  0  0
   -4.8310    1.0860    1.4440 C   0  0  0  0  0  0  0  0  0  0  0  0
   -6.1910    1.0550    1.2340 O   0  0  0  0  0  0  0  0  0  0  0  0
   -4.4640   -1.1640    0.5780 C   0  0  0  0  0  0  0  0  0  0  0  0
   -5.7990   -1.3660    0.2790 O   0  0  0  0  0  0  0  0  0  0  0  0
   -4.3460    0.7410   -0.9910 C   0  0  0  0  0  0  0  0  0  0  0  0
   -5.6750    0.6350   -1.3120 O   0  0  0  0  0  0  0  0  0  0  0  0
    0.5070   -0.9550   -0.7570 O   0  0  0  0  0  0  0  0  0  0  0  0
    1.9090   -0.9080   -0.5200 C   0  0  1  0  0  0  0  0  0  0  0  0
    2.2840   -2.3390   -0.1580 C   0  0  0  0  0  0  0  0  0  0  0  0
    1.6260   -2.7790    0.9840 O   0  0  0  0  0  0  0  0  0  0  0  0
    2.6820   -0.3920   -1.6700 C   0  0  0  0  0  0  0  0  0  0  0  0
    4.0270   -0.3020   -1.3660 O   0  0  0  0  0  0  0  0  0  0  0  0
    4.3710    0.5910   -0.3930 C   0  0  2  0  0  0  0  0  0  0  0  0
    5.1960    1.7240   -1.0140 C   0  0  0  0  0  0  0  0  0  0  0  0
    4.4530    2.3780   -1.9940 O   0  0  0  0  0  0  0  0  0  0  0  0
    5.1720   -0.0850    0.6830 C   0  0  0  0  0  0  0  0  0  0  0  0
    5.4920    0.9130    1.6170 O   0  0  0  0  0  0  0  0  0  0  0  0
  1  2  2  0
  2  3  1  0
  2 12  1  0
  3  4  1  0
  5  4  1  1
  5  6  1  0
  5  8  1  0
  5 10  1  0
  6  7  1  0
  8  9  1  0
 10 11  1  0
 12 13  1  0
 13 14  1  6
 13 16  1  0
 14 15  1  0
 16 17  1  0
 17 18  1  0
 18 19  1  6
 18 21  1  0
 19 20  1  0
 21 22  1  0
M  END
