
     RDKit          3D

 22 21  0  0  0  0  0  0  0  0999 V2000
   -1.7970    0.8050   -1.0670 O   0  0  0  0  0  0  0  0  0  0  0  0
   -1.6220    0.1240   -0.0290 C   0  0  0  0  0  0  0  0  0  0  0  0
   -0.4640   -0.6770    0.0280 O   0  0  0  0  0  0  0  0  0  0  0  0
    0.4670   -0.7170   -1.0340 C   0  0  0  0  0  0  0  0  0  0  0  0
    1.0810    0.6300   -1.3390 C   0  0  0  0  0  0  0  0  0  0  0  0
    1.8070    1.1480   -0.1180 C   0  0  0  0  0  0  0  0  0  0  0  0
    2.8430    0.3130    0.3230 O   0  0  0  0  0  0  0  0  0  0  0  0
    3.9580   -0.0460   -0.3990 C   0  0  0  0  0  0  0  0  0  0  0  0
    4.0790    0.4070   -1.5650 O   0  0  0  0  0  0  0  0  0  0  0  0
    5.0190   -0.9400    0.1330 C   0  0  2  0  0  0  0  0  0  0  0  0
    5.6520   -0.3540    1.3760 C   0  0  0  0  0  0  0  0  0  0  0  0
    6.6390   -1.2080    1.8520 O   0  0  0  0  0  0  0  0  0  0  0  0
    6.1080   -1.1310   -0.9150 C   0  0  0  0  0  0  0  0  0  0  0  0
    5.6120   -1.6980   -2.0730 O   0  0  0  0  0  0  0  0  0  0  0  0
   -2.5330    0.1890    0.9660 O   0  0  0  0  0  0  0  0  0  0  0  0
   -3.7130    0.9230    1.0370 C   0  0  0  0  0  0  0  0  0  0  0  0
   -4.7500    0.5380    0.0210 C   0  0  1  0  0  0  0  0  0  0  0  0
   -4.3000    0.7250   -1.2710 O   0  0  0  0  0  0  0  0  0  0  0  0
   -5.1000   -0.9330    0.2250 C   0  0  0  0  0  0  0  0  0  0  0  0
   -5.5530   -1.1380    1.5170 O   0  0  0  0  0  0  0  0  0  0  0  0
   -6.0150    1.3610    0.1660 C   0  0  0  0  0  0  0  0  0  0  0  0
   -6.5550    1.2410    1.4450 O   0  0  0  0  0  0  0  0  0  0  0  0
  1  2  2  0
  2  3  1  0
  2 15  1  0
  3  4  1  0
  4  5  1  0
  5  6  1  0
  6  7  1  0
  7  8  1  0
  8  9  2  0
  8 10  1  0
 10 11  1  1
 10 13  1  0
 11 12  1  0
 13 14  1  0
 15 16  1  0
 16 17  1  0
 17 18  1  6
 17 19  1  0
 17 21  1  0
 19 20  1  0
 21 22  1  0
M  END
