
     RDKit          3D

 22 21  0  0  0  0  0  0  0  0999 V2000
    4.0420   -0.6360    2.2850 C   0  0  0  0  0  0  0  0  0  0  0  0
    3.2360   -0.4690    1.0140 C   0  0  1  0  0  0  0  0  0  0  0  0
    2.4240    0.6610    1.1620 O   0  0  0  0  0  0  0  0  0  0  0  0
    1.0210    0.6110    1.0280 C   0  0  0  0  0  0  0  0  0  0  0  0
    0.5810   -0.5370    0.7650 O   0  0  0  0  0  0  0  0  0  0  0  0
    0.2470    1.7450    1.1800 O   0  0  0  0  0  0  0  0  0  0  0  0
   -1.1470    1.6610    1.0350 C   0  0  0  0  0  0  0  0  0  0  0  0
   -1.4870    1.2390   -0.3550 C   0  0  0  0  0  0  0  0  0  0  0  0
   -2.8460    1.1290   -0.5950 O   0  0  0  0  0  0  0  0  0  0  0  0
   -3.5030    0.2190    0.1940 C   0  0  0  0  0  0  0  0  0  0  0  0
   -4.9880    0.1770   -0.1580 C   0  0  2  0  0  0  0  0  0  0  0  0
   -5.5320    1.4250    0.0430 O   0  0  0  0  0  0  0  0  0  0  0  0
   -5.6920   -0.8580    0.7270 C   0  0  0  0  0  0  0  0  0  0  0  0
   -7.0500   -0.9110    0.4250 O   0  0  0  0  0  0  0  0  0  0  0  0
   -5.1000   -0.2260   -1.6010 C   0  0  0  0  0  0  0  0  0  0  0  0
   -6.4190   -0.2730   -2.0240 O   0  0  0  0  0  0  0  0  0  0  0  0
    4.2050   -0.3270   -0.1060 C   0  0  0  0  0  0  0  0  0  0  0  0
    4.2600    0.7090   -0.8210 O   0  0  0  0  0  0  0  0  0  0  0  0
    5.1070   -1.3260   -0.4330 O   0  0  0  0  0  0  0  0  0  0  0  0
    6.0340   -1.2550   -1.4640 C   0  0  0  0  0  0  0  0  0  0  0  0
    7.0180   -0.1260   -1.3440 C   0  0  0  0  0  0  0  0  0  0  0  0
    7.7540   -0.2430   -0.1650 O   0  0  0  0  0  0  0  0  0  0  0  0
  2  1  1  1
  2  3  1  0
  2 17  1  0
  3  4  1  0
  4  5  2  0
  4  6  1  0
  6  7  1  0
  7  8  1  0
  8  9  1  0
  9 10  1  0
 10 11  1  0
 11 12  1  6
 11 13  1  0
 11 15  1  0
 13 14  1  0
 15 16  1  0
 17 18  2  0
 17 19  1  0
 19 20  1  0
 20 21  1  0
 21 22  1  0
M  END
