
     RDKit          3D

 22 22  0  0  0  0  0  0  0  0999 V2000
    3.2250    1.7870   -1.3940 C   0  0  0  0  0  0  0  0  0  0  0  0
    2.7890    0.4430   -1.4220 O   0  0  0  0  0  0  0  0  0  0  0  0
    2.8630   -0.4180   -0.3530 C   0  0  0  0  0  0  0  0  0  0  0  0
    3.3470    0.0030    0.7270 O   0  0  0  0  0  0  0  0  0  0  0  0
    2.3990   -1.8260   -0.4040 C   0  0  2  0  0  0  0  0  0  0  0  0
    1.9090   -2.0670   -1.6770 O   0  0  0  0  0  0  0  0  0  0  0  0
    1.2720   -2.0270    0.6530 C   0  0  1  0  0  0  0  0  0  0  0  0
    0.2880   -1.1940    0.4080 O   0  0  0  0  0  0  0  0  0  0  0  0
   -0.5100   -0.1980    0.7230 C   0  0  0  0  0  0  0  0  0  0  0  0
   -1.5040    0.2320   -0.1860 C   0  0  0  0  0  0  0  0  0  0  0  0
   -2.3660    1.2530    0.0660 C   0  0  0  0  0  0  0  0  0  0  0  0
   -3.3290    1.6320   -0.8760 O   0  0  0  0  0  0  0  0  0  0  0  0
   -3.4410    0.9700   -2.1210 C   0  0  0  0  0  0  0  0  0  0  0  0
   -2.2990    1.9290    1.2630 C   0  0  0  0  0  0  0  0  0  0  0  0
   -3.1840    2.9700    1.5080 O   0  0  0  0  0  0  0  0  0  0  0  0
   -1.3570    1.5390    2.1530 C   0  0  0  0  0  0  0  0  0  0  0  0
   -1.2880    2.2280    3.3700 O   0  0  0  0  0  0  0  0  0  0  0  0
   -0.4540    0.4910    1.9210 C   0  0  0  0  0  0  0  0  0  0  0  0
    0.4420    0.2250    2.9370 O   0  0  0  0  0  0  0  0  0  0  0  0
    0.8750   -3.4910    0.5470 C   0  0  0  0  0  0  0  0  0  0  0  0
    1.6960   -4.4180    0.7500 O   0  0  0  0  0  0  0  0  0  0  0  0
   -0.4270   -3.8320    0.2180 O   0  0  0  0  0  0  0  0  0  0  0  0
  1  2  1  0
  2  3  1  0
  3  4  2  0
  3  5  1  0
  5  6  1  6
  5  7  1  0
  7  8  1  6
  7 20  1  0
  8  9  1  0
  9 10  2  0
  9 18  1  0
 10 11  1  0
 11 12  1  0
 11 14  2  0
 12 13  1  0
 14 15  1  0
 14 16  1  0
 16 17  1  0
 16 18  2  0
 18 19  1  0
 20 21  2  0
 20 22  1  0
M  END
