
     RDKit          3D

 22 21  0  0  0  0  0  0  0  0999 V2000
   -5.3370    1.6010   -0.0560 C   0  0  0  0  0  0  0  0  0  0  0  0
   -4.1420    0.6090    0.0540 C   0  0  2  0  0  0  0  0  0  0  0  0
   -3.8510    0.4450    1.4900 C   0  0  0  0  0  0  0  0  0  0  0  0
   -5.0160   -0.0510    2.1520 O   0  0  0  0  0  0  0  0  0  0  0  0
   -3.0890    1.1920   -0.8170 C   0  0  0  0  0  0  0  0  0  0  0  0
   -1.8890    0.5220   -0.9160 O   0  0  0  0  0  0  0  0  0  0  0  0
   -0.8910    0.3550   -0.0130 C   0  0  0  0  0  0  0  0  0  0  0  0
   -0.9760    0.8740    1.1200 O   0  0  0  0  0  0  0  0  0  0  0  0
    0.3420   -0.4320   -0.2930 C   0  0  2  0  0  0  0  0  0  0  0  0
    0.0440   -1.8920   -0.5590 C   0  0  0  0  0  0  0  0  0  0  0  0
   -0.8550   -2.1230   -1.7350 C   0  0  2  0  0  0  0  0  0  0  0  0
   -1.0390   -3.5190   -1.8610 O   0  0  0  0  0  0  0  0  0  0  0  0
   -0.2100   -1.6970   -2.8800 O   0  0  0  0  0  0  0  0  0  0  0  0
    1.2230   -0.4270    0.8200 O   0  0  0  0  0  0  0  0  0  0  0  0
    2.5100    0.0820    0.7630 C   0  0  0  0  0  0  0  0  0  0  0  0
    2.8650    0.5500   -0.3500 O   0  0  0  0  0  0  0  0  0  0  0  0
    3.4350    0.0940    1.9080 C   0  0  0  0  0  0  0  0  0  0  0  0
    4.6770    0.6460    1.6470 O   0  0  0  0  0  0  0  0  0  0  0  0
    5.5900    0.2190    0.7210 C   0  0  0  0  0  0  0  0  0  0  0  0
    5.2800   -0.7820    0.0260 O   0  0  0  0  0  0  0  0  0  0  0  0
    6.8820    0.9200    0.5610 C   0  0  0  0  0  0  0  0  0  0  0  0
    6.9440    1.9680    1.4460 O   0  0  0  0  0  0  0  0  0  0  0  0
  2  1  1  1
  2  3  1  0
  2  5  1  0
  3  4  1  0
  5  6  1  0
  6  7  1  0
  7  8  2  0
  7  9  1  0
  9 10  1  1
  9 14  1  0
 10 11  1  0
 11 12  1  6
 11 13  1  0
 14 15  1  0
 15 16  2  0
 15 17  1  0
 17 18  1  0
 18 19  1  0
 19 20  2  0
 19 21  1  0
 21 22  1  0
M  END
