
     RDKit          3D

 16 17  0  0  0  0  0  0  0  0999 V2000
   -3.8960   -1.9640    0.3470 C   0  0  0  0  0  0  0  0  0  0  0  0
   -3.6970   -0.4870    0.2950 C   0  0  0  0  0  0  0  0  0  0  0  0
   -4.4960    0.4750    0.6910 C   0  0  0  0  0  0  0  0  0  0  0  0
   -3.8910    1.8000    0.4480 C   0  0  0  0  0  0  0  0  0  0  0  0
   -2.5960    1.4760   -0.1600 C   0  0  0  0  0  0  0  0  0  0  0  0
   -2.5100    0.1700   -0.2360 C   0  0  0  0  0  0  0  0  0  0  0  0
   -1.3840   -0.5340   -0.7760 N   0  0  0  0  0  0  0  0  0  0  0  0
   -0.0670   -0.0020   -0.7020 C   0  0  1  0  0  0  0  0  0  0  0  0
    0.3820    0.2220    0.7470 C   0  0  0  0  0  0  0  0  0  0  0  0
    1.6450    1.0640    0.6360 C   0  0  0  0  0  0  0  0  0  0  0  0
    2.7130    0.2650   -0.0170 C   0  0  2  0  0  0  0  0  0  0  0  0
    3.2830   -0.7030    1.0280 C   0  0  0  0  0  0  0  0  0  0  0  0
    3.8690    1.2230   -0.3400 C   0  0  0  0  0  0  0  0  0  0  0  0
    2.3340   -0.4190   -1.2720 C   0  0  1  0  0  0  0  0  0  0  0  0
    3.1770   -1.5440   -1.4230 O   0  0  0  0  0  0  0  0  0  0  0  0
    0.9280   -0.9100   -1.3430 C   0  0  0  0  0  0  0  0  0  0  0  0
  1  2  1  0
  2  3  2  0
  2  6  1  0
  3  4  1  0
  4  5  1  0
  5  6  2  0
  6  7  1  0
  8  7  1  1
  8  9  1  0
  8 16  1  0
  9 10  1  0
 10 11  1  0
 11 12  1  1
 11 13  1  0
 11 14  1  0
 14 15  1  1
 14 16  1  0
M  END
