
     RDKit          3D

 23 25  0  0  0  0  0  0  0  0999 V2000
    5.5550    2.9210   -0.4190 N   0  0  0  0  0  0  0  0  0  0  0  0
    4.6550    1.8720   -0.0760 C   0  0  0  0  0  0  0  0  0  0  0  0
    3.5550    1.5990   -0.7960 N   0  0  0  0  0  0  0  0  0  0  0  0
    2.6950    0.6050   -0.4780 C   0  0  0  0  0  0  0  0  0  0  0  0
    1.5920    0.3740   -1.2480 N   0  0  0  0  0  0  0  0  0  0  0  0
    0.7440   -0.6200   -0.9180 C   0  0  0  0  0  0  0  0  0  0  0  0
    1.0020   -1.3850    0.1870 C   0  0  0  0  0  0  0  0  0  0  0  0
    0.1160   -2.5100    0.6310 C   0  0  0  0  0  0  0  0  0  0  0  0
   -1.1130   -2.5710   -0.0930 N   0  0  0  0  0  0  0  0  0  0  0  0
   -2.0860   -1.5120   -0.0660 C   0  0  0  0  0  0  0  0  0  0  0  0
   -3.2290   -1.5990   -0.8320 C   0  0  0  0  0  0  0  0  0  0  0  0
   -4.1870   -0.6080   -0.8300 C   0  0  0  0  0  0  0  0  0  0  0  0
   -4.0370    0.5320   -0.0470 C   0  0  0  0  0  0  0  0  0  0  0  0
   -5.0250    1.5910   -0.0230 C   0  0  0  0  0  0  0  0  0  0  0  0
   -4.8350    2.5890    0.7000 O   0  0  0  0  0  0  0  0  0  0  0  0
   -6.1710    1.5160   -0.7830 O   0  0  0  0  0  0  0  0  0  0  0  0
   -2.8920    0.6130    0.7170 C   0  0  0  0  0  0  0  0  0  0  0  0
   -1.9270   -0.3880    0.7130 C   0  0  0  0  0  0  0  0  0  0  0  0
    2.0890   -1.1670    0.9560 N   0  0  0  0  0  0  0  0  0  0  0  0
    2.9430   -0.1740    0.6330 C   0  0  0  0  0  0  0  0  0  0  0  0
    4.0690    0.1000    1.3760 C   0  0  0  0  0  0  0  0  0  0  0  0
    4.2730   -0.6250    2.3840 O   0  0  0  0  0  0  0  0  0  0  0  0
    4.8840    1.1030    1.0060 N   0  0  0  0  0  0  0  0  0  0  0  0
  1  2  1  0
  2  3  2  0
  2 23  1  0
  3  4  1  0
  4  5  2  0
  4 20  1  0
  5  6  1  0
  6  7  2  0
  7  8  1  0
  7 19  1  0
  8  9  1  0
  9 10  1  0
 10 11  2  0
 10 18  1  0
 11 12  1  0
 12 13  2  0
 13 14  1  0
 13 17  1  0
 14 15  2  0
 14 16  1  0
 17 18  2  0
 19 20  2  0
 20 21  1  0
 21 22  2  0
 21 23  1  0
M  END
