
     RDKit          3D

 16 17  0  0  0  0  0  0  0  0999 V2000
    2.6700    2.6730   -0.3780 C   0  0  0  0  0  0  0  0  0  0  0  0
    2.0370    1.3560   -0.1480 C   0  0  0  0  0  0  0  0  0  0  0  0
    0.6500    1.2130   -0.2740 C   0  0  0  0  0  0  0  0  0  0  0  0
    0.0170    0.0060   -0.0690 C   0  0  0  0  0  0  0  0  0  0  0  0
   -1.4310   -0.1750   -0.1890 C   0  0  0  0  0  0  0  0  0  0  0  0
   -2.0360   -1.3370   -0.0100 C   0  0  0  0  0  0  0  0  0  0  0  0
   -3.5340   -1.3260   -0.1760 C   0  0  1  0  0  0  0  0  0  0  0  0
   -4.0870   -2.5360    0.1620 O   0  0  0  0  0  0  0  0  0  0  0  0
   -4.0340   -0.3030    0.8510 C   0  0  0  0  0  0  0  0  0  0  0  0
   -3.3880    1.0280    0.6010 C   0  0  0  0  0  0  0  0  0  0  0  0
   -2.3470    0.9570   -0.5220 C   0  0  0  0  0  0  0  0  0  0  0  0
    0.8330   -1.0540    0.2670 C   0  0  0  0  0  0  0  0  0  0  0  0
    2.2230   -0.9160    0.3940 C   0  0  0  0  0  0  0  0  0  0  0  0
    3.0580   -2.0880    0.7590 C   0  0  0  0  0  0  0  0  0  0  0  0
    2.8380    0.2960    0.1870 C   0  0  0  0  0  0  0  0  0  0  0  0
    4.2500    0.4000    0.3250 N   0  0  0  0  0  0  0  0  0  0  0  0
  1  2  1  0
  2  3  2  0
  2 15  1  0
  3  4  1  0
  4  5  1  0
  4 12  2  0
  5  6  2  0
  5 11  1  0
  6  7  1  0
  7  8  1  1
  7  9  1  0
  9 10  1  0
 10 11  1  0
 12 13  1  0
 13 14  1  0
 13 15  2  0
 15 16  1  0
M  CHG  1  16   1
M  END
