
     RDKit          3D

 16 17  0  0  0  0  0  0  0  0999 V2000
   -2.0170    2.0270   -1.2720 C   0  0  0  0  0  0  0  0  0  0  0  0
   -2.3650    0.5740   -1.4490 C   0  0  0  0  0  0  0  0  0  0  0  0
   -1.7100   -0.3180   -0.4330 C   0  0  1  0  0  0  0  0  0  0  0  0
   -2.1790   -1.6790   -0.7860 N   0  0  0  0  0  0  0  0  0  0  0  0
   -0.2290   -0.3650   -0.5320 C   0  0  0  0  0  0  0  0  0  0  0  0
    0.3870   -0.9180   -1.7510 C   0  0  0  0  0  0  0  0  0  0  0  0
    0.4840    0.1330    0.4280 C   0  0  0  0  0  0  0  0  0  0  0  0
    1.9620    0.1540    0.4700 C   0  0  0  0  0  0  0  0  0  0  0  0
    2.8150   -0.9020    0.2550 C   0  0  0  0  0  0  0  0  0  0  0  0
    4.1030   -0.4530    0.3860 C   0  0  0  0  0  0  0  0  0  0  0  0
    3.9810    0.8970    0.6830 C   0  0  0  0  0  0  0  0  0  0  0  0
    5.1430    1.8150    0.9120 C   0  0  0  0  0  0  0  0  0  0  0  0
    2.7160    1.1970    0.7200 O   0  0  0  0  0  0  0  0  0  0  0  0
   -2.2470   -0.0240    0.9190 C   0  0  2  0  0  0  0  0  0  0  0  0
   -1.8240   -0.7120    2.1600 C   0  0  0  0  0  0  0  0  0  0  0  0
   -3.2090   -0.9740    1.6090 C   0  0  0  0  0  0  0  0  0  0  0  0
  1  2  1  0
  2  3  1  0
  3  4  1  6
  3  5  1  0
  3 14  1  0
  5  6  1  0
  5  7  2  3
  7  8  1  0
  8  9  2  0
  8 13  1  0
  9 10  1  0
 10 11  2  0
 11 12  1  0
 11 13  1  0
 14 15  1  1
 14 16  1  0
 15 16  1  0
M  CHG  1   4   1
M  END
