
     RDKit          3D

 16 17  0  0  0  0  0  0  0  0999 V2000
    5.0800    1.6180    0.8170 C   0  0  0  0  0  0  0  0  0  0  0  0
    4.8460    0.1480    0.8800 C   0  0  0  0  0  0  0  0  0  0  0  0
    3.6820   -0.3450    0.0440 C   0  0  0  0  0  0  0  0  0  0  0  0
    2.3850    0.2620    0.4680 C   0  0  0  0  0  0  0  0  0  0  0  0
    1.2270   -0.2540   -0.2890 C   0  0  0  0  0  0  0  0  0  0  0  0
   -0.0400    0.1820    0.0950 C   0  0  0  0  0  0  0  0  0  0  0  0
   -1.1960   -0.2480   -0.5110 C   0  0  0  0  0  0  0  0  0  0  0  0
   -2.4860    0.2810    0.0000 C   0  0  1  0  0  0  0  0  0  0  0  0
   -2.6540    1.6410   -0.1900 O   0  0  0  0  0  0  0  0  0  0  0  0
   -3.6720   -0.3810   -0.6860 C   0  0  0  0  0  0  0  0  0  0  0  0
   -4.7910    0.1700    0.2120 C   0  0  0  0  0  0  0  0  0  0  0  0
   -4.2570   -0.2160    1.5760 C   0  0  0  0  0  0  0  0  0  0  0  0
   -2.7410   -0.0890    1.4370 C   0  0  0  0  0  0  0  0  0  0  0  0
   -1.0900   -1.1540   -1.5500 C   0  0  0  0  0  0  0  0  0  0  0  0
    0.1780   -1.5760   -1.9210 C   0  0  0  0  0  0  0  0  0  0  0  0
    1.2850   -1.1220   -1.2900 N   0  0  0  0  0  0  0  0  0  0  0  0
  1  2  1  0
  2  3  1  0
  3  4  1  0
  4  5  1  0
  5  6  2  0
  5 16  1  0
  6  7  1  0
  7  8  1  0
  7 14  2  0
  8  9  1  1
  8 10  1  0
  8 13  1  0
 10 11  1  0
 11 12  1  0
 12 13  1  0
 14 15  1  0
 15 16  2  0
M  CHG  1  16   1
M  END
