
     RDKit          3D

 16 17  0  0  0  0  0  0  0  0999 V2000
    3.1970    2.2890   -0.4340 C   0  0  0  0  0  0  0  0  0  0  0  0
    3.4010    0.8610    0.0930 C   0  0  0  0  0  0  0  0  0  0  0  0
    2.4200    0.4920    1.1650 C   0  0  0  0  0  0  0  0  0  0  0  0
    1.1340    0.4760    0.9560 O   0  0  0  0  0  0  0  0  0  0  0  0
    0.4220   -0.2970    0.1100 C   0  0  1  0  0  0  0  0  0  0  0  0
   -1.0280    0.1560    0.4240 C   0  0  2  0  0  0  0  0  0  0  0  0
   -2.0720   -0.5280   -0.3530 C   0  0  0  0  0  0  0  0  0  0  0  0
   -3.3930   -0.2500    0.3950 C   0  0  0  0  0  0  0  0  0  0  0  0
   -3.4860    1.2290    0.6980 C   0  0  0  0  0  0  0  0  0  0  0  0
   -2.5920    2.0040   -0.2140 C   0  0  0  0  0  0  0  0  0  0  0  0
   -1.1560    1.6520    0.1200 C   0  0  0  0  0  0  0  0  0  0  0  0
    0.6760   -0.1750   -1.3550 C   0  0  0  0  0  0  0  0  0  0  0  0
    1.2150   -1.4860   -1.8580 C   0  0  0  0  0  0  0  0  0  0  0  0
    0.7320   -2.5260   -0.8820 C   0  0  0  0  0  0  0  0  0  0  0  0
    0.6240   -1.7450    0.4100 C   0  0  2  0  0  0  0  0  0  0  0  0
   -0.3550   -2.4070    1.1990 N   0  0  0  0  0  0  0  0  0  0  0  0
  1  2  1  0
  2  3  1  0
  3  4  1  0
  5  4  1  1
  5  6  1  0
  5 12  1  0
  5 15  1  0
  6  7  1  6
  6 11  1  0
  7  8  1  0
  8  9  1  0
  9 10  1  0
 10 11  1  0
 12 13  1  0
 13 14  1  0
 14 15  1  0
 15 16  1  1
M  CHG  1  16   1
M  END
