
     RDKit          3D

 23 24  0  0  0  0  0  0  0  0999 V2000
    4.7650   -2.0030   -0.6960 C   0  0  0  0  0  0  0  0  0  0  0  0
    4.8520   -0.9190    0.2290 N   0  0  0  0  0  0  0  0  0  0  0  0
    3.8570    0.0910    0.0820 C   0  0  1  0  0  0  0  0  0  0  0  0
    2.4820   -0.3810    0.3000 C   0  0  0  0  0  0  0  0  0  0  0  0
    1.5200    0.4460   -0.0100 N   0  0  0  0  0  0  0  0  0  0  0  0
    0.1580    0.1160    0.1520 C   0  0  0  0  0  0  0  0  0  0  0  0
   -0.3500   -0.7890   -0.6220 N   0  0  0  0  0  0  0  0  0  0  0  0
   -1.7510   -1.1430   -0.4650 C   0  0  0  0  0  0  0  0  0  0  0  0
   -2.4850   -2.1230   -0.7540 N   0  0  0  0  0  0  0  0  0  0  0  0
   -3.8260   -1.9520   -0.3490 C   0  0  0  0  0  0  0  0  0  0  0  0
   -4.7960   -2.7660   -0.5100 O   0  0  0  0  0  0  0  0  0  0  0  0
   -3.8800   -0.6770    0.2800 N   0  0  0  0  0  0  0  0  0  0  0  0
   -5.0800   -0.1770    0.9370 C   0  0  0  0  0  0  0  0  0  0  0  0
   -5.8830    0.5730   -0.1240 C   0  0  0  0  0  0  0  0  0  0  0  0
   -5.0780    1.6110   -0.5950 O   0  0  0  0  0  0  0  0  0  0  0  0
   -2.6140   -0.0720    0.1310 C   0  0  1  0  0  0  0  0  0  0  0  0
   -1.9470    0.4770    1.3170 C   0  0  0  0  0  0  0  0  0  0  0  0
   -2.5240    0.6650    2.3770 O   0  0  0  0  0  0  0  0  0  0  0  0
   -0.5800    0.7670    1.1210 O   0  0  0  0  0  0  0  0  0  0  0  0
    4.1010    1.0660    1.0690 O   0  0  0  0  0  0  0  0  0  0  0  0
    4.3670    2.5700    0.2470 P   0  0  0  0  0  0  0  0  0  0  0  0
    6.0680    2.9080    0.3020 O   0  0  0  0  0  0  0  0  0  0  0  0
    3.8140    2.4660   -1.3950 O   0  0  0  0  0  0  0  0  0  0  0  0
  1  2  1  0
  3  2  1  1
  3  4  1  0
  3 20  1  0
  4  5  2  3
  5  6  1  0
  6  7  2  0
  6 19  1  0
  7  8  1  0
  8  9  2  0
  8 16  1  0
  9 10  1  0
 10 11  2  0
 10 12  1  0
 12 13  1  0
 16 12  1  1
 13 14  1  0
 14 15  1  0
 16 17  1  0
 17 18  2  0
 17 19  1  0
 20 21  1  0
 21 22  1  0
 21 23  1  0
M  END
