
     RDKit          3D

 24 25  0  0  0  0  0  0  0  0999 V2000
   -4.1230   -1.9720   -1.0180 N   0  0  0  0  0  0  0  0  0  0  0  0
   -3.7390   -2.4980    0.0980 C   0  0  0  0  0  0  0  0  0  0  0  0
   -2.6470   -3.3940    0.1060 N   0  0  0  0  0  0  0  0  0  0  0  0
   -1.4180   -3.0440    0.0330 C   0  0  0  0  0  0  0  0  0  0  0  0
   -1.1060   -1.6290   -0.0650 N   0  0  0  0  0  0  0  0  0  0  0  0
   -1.9980   -0.5970    0.1010 O   0  0  0  0  0  0  0  0  0  0  0  0
   -1.3440    0.6030   -0.1480 N   0  0  0  0  0  0  0  0  0  0  0  0
   -0.1480    0.4040   -0.4420 C   0  0  0  0  0  0  0  0  0  0  0  0
    1.1100    1.2180   -0.8280 C   0  0  1  0  0  0  0  0  0  0  0  0
    1.9930    0.8730    0.1970 O   0  0  0  0  0  0  0  0  0  0  0  0
    2.2710    1.9040    1.0330 C   0  0  0  0  0  0  0  0  0  0  0  0
    3.1790    2.9540    0.5250 C   0  0  0  0  0  0  0  0  0  0  0  0
    4.4650    2.6760    0.2290 O   0  0  0  0  0  0  0  0  0  0  0  0
    5.1640    1.8380   -0.5370 C   0  0  0  0  0  0  0  0  0  0  0  0
    4.5330    1.0080   -1.2290 O   0  0  0  0  0  0  0  0  0  0  0  0
    6.5880    1.8530   -0.5990 O   0  0  0  0  0  0  0  0  0  0  0  0
    1.5340    0.6090   -2.1280 C   0  0  0  0  0  0  0  0  0  0  0  0
    1.9540   -0.6890   -1.9050 O   0  0  0  0  0  0  0  0  0  0  0  0
    0.9710   -1.5550   -1.4550 C   0  0  0  0  0  0  0  0  0  0  0  0
    0.1460   -1.0240   -0.3430 C   0  0  2  0  0  0  0  0  0  0  0  0
   -4.4620   -2.1250    1.2610 N   0  0  0  0  0  0  0  0  0  0  0  0
   -5.7150   -0.8380    1.2050 P   0  0  0  0  0  0  0  0  0  0  0  0
   -5.0210    0.5650    0.4230 O   0  0  0  0  0  0  0  0  0  0  0  0
   -6.2240   -0.4430    2.8110 O   0  0  0  0  0  0  0  0  0  0  0  0
  1  2  2  0
  2  3  1  0
  2 21  1  0
  3  4  2  3
  4  5  1  0
  5  6  1  0
  5 20  1  0
  6  7  1  0
  7  8  2  0
  8  9  1  0
  8 20  1  0
  9 10  1  1
  9 17  1  0
 10 11  1  0
 11 12  1  0
 12 13  1  0
 13 14  1  0
 14 15  2  0
 14 16  1  0
 17 18  1  0
 18 19  1  0
 20 19  1  6
 21 22  1  0
 22 23  1  0
 22 24  1  0
M  END
