
     RDKit          3D

  9  9  0  0  0  0  0  0  0  0999 V2000
   -3.1820   -0.5890   -0.2990 N   0  0  0  0  0  0  0  0  0  0  0  0
   -2.1720    0.3390    0.1920 C   0  0  0  0  0  0  0  0  0  0  0  0
   -1.0600    0.5040   -0.7500 C   0  0  0  0  0  0  0  0  0  0  0  0
    0.1750    0.2010   -0.4320 C   0  0  0  0  0  0  0  0  0  0  0  0
    0.5950   -0.3240    0.8600 C   0  0  0  0  0  0  0  0  0  0  0  0
    1.8910   -0.5950    1.0740 C   0  0  0  0  0  0  0  0  0  0  0  0
    2.8720   -0.3690    0.0270 C   0  0  0  0  0  0  0  0  0  0  0  0
    2.5310    0.1030   -1.1520 C   0  0  0  0  0  0  0  0  0  0  0  0
    1.1860    0.4150   -1.4570 N   0  0  0  0  0  0  0  0  0  0  0  0
  1  2  1  0
  2  3  1  0
  3  4  2  3
  4  5  1  0
  4  9  1  0
  5  6  2  0
  6  7  1  0
  7  8  2  0
  8  9  1  0
M  END
