
     RDKit          3D

  9  9  0  0  0  0  0  0  0  0999 V2000
   -0.8640    2.0030   -0.7610 C   0  0  0  0  0  0  0  0  0  0  0  0
   -0.7530    0.5160   -0.3940 C   0  0  0  0  0  0  0  0  0  0  0  0
   -1.8160   -0.2280   -0.5200 C   0  0  0  0  0  0  0  0  0  0  0  0
   -1.9680   -1.5850   -0.2560 N   0  0  0  0  0  0  0  0  0  0  0  0
    0.5750    0.1060    0.0670 C   0  0  0  0  0  0  0  0  0  0  0  0
    1.6560    0.9920    0.1660 C   0  0  0  0  0  0  0  0  0  0  0  0
    2.7320    0.2680    0.6280 C   0  0  0  0  0  0  0  0  0  0  0  0
    2.2910   -1.0180    0.7980 C   0  0  0  0  0  0  0  0  0  0  0  0
    0.9730   -1.1180    0.4550 N   0  0  0  0  0  0  0  0  0  0  0  0
  1  2  1  0
  2  3  2  3
  2  5  1  0
  3  4  1  0
  5  6  2  0
  5  9  1  0
  6  7  1  0
  7  8  2  0
  8  9  1  0
M  CHG  1   4   1
M  END
