
     RDKit          3D

  9 10  0  0  0  0  0  0  0  0999 V2000
   -2.5000    0.8890    0.5940 N   0  0  0  0  0  0  0  0  0  0  0  0
   -1.9260    0.0300   -0.4150 C   0  0  2  0  0  0  0  0  0  0  0  0
   -1.4740   -1.2460    0.2420 C   0  0  0  0  0  0  0  0  0  0  0  0
    0.0140   -1.0970    0.3670 C   0  0  0  0  0  0  0  0  0  0  0  0
    0.3360    0.2760   -0.0230 N   0  0  0  0  0  0  0  0  0  0  0  0
    1.6790    0.2360   -0.5350 C   0  0  1  0  0  0  0  0  0  0  0  0
    2.7940    1.0020    0.0290 C   0  0  0  0  0  0  0  0  0  0  0  0
    2.6530   -0.4230    0.4720 C   0  0  0  0  0  0  0  0  0  0  0  0
   -0.6550    0.6250   -1.0070 C   0  0  0  0  0  0  0  0  0  0  0  0
  2  1  1  1
  2  3  1  0
  2  9  1  0
  3  4  1  0
  4  5  1  0
  6  5  1  1
  5  9  1  0
  6  7  1  0
  6  8  1  0
  7  8  1  0
M  CHG  1   1   1
M  END
