
     RDKit          3D

  9  9  0  0  0  0  0  0  0  0999 V2000
   -2.2030    1.4740    0.1150 C   0  0  0  0  0  0  0  0  0  0  0  0
   -1.6480    0.3380   -0.2320 C   0  0  0  0  0  0  0  0  0  0  0  0
   -2.4910   -0.5970   -0.8990 N   0  0  0  0  0  0  0  0  0  0  0  0
   -0.2430    0.0170    0.0370 C   0  0  0  0  0  0  0  0  0  0  0  0
    0.2100   -1.1570   -0.3560 C   0  0  0  0  0  0  0  0  0  0  0  0
    1.5940   -1.5070   -0.1060 C   0  0  0  0  0  0  0  0  0  0  0  0
    2.4520   -0.7150    0.5010 C   0  0  0  0  0  0  0  0  0  0  0  0
    1.9990    0.6140    0.9640 C   0  0  0  0  0  0  0  0  0  0  0  0
    0.6310    0.9090    0.6950 N   0  0  0  0  0  0  0  0  0  0  0  0
  1  2  2  0
  2  3  1  0
  2  4  1  0
  4  5  2  0
  4  9  1  0
  5  6  1  0
  6  7  2  0
  7  8  1  0
  8  9  1  0
M  END
