
     RDKit          3D

 32 33  0  0  0  0  0  0  0  0999 V2000
   -2.8160   -3.3580   -2.2970 C   0  0  0  0  0  0  0  0  0  0  0  0
   -2.0900   -2.2140   -2.5320 O   0  0  0  0  0  0  0  0  0  0  0  0
   -1.9540   -1.4280   -1.4190 C   0  0  1  0  0  0  0  0  0  0  0  0
   -1.2060   -0.1450   -1.8440 C   0  0  0  0  0  0  0  0  0  0  0  0
   -0.7120    0.3180   -0.5770 N   0  0  0  0  0  0  0  0  0  0  0  0
   -1.8140    0.5260    0.3660 C   0  0  0  0  0  0  0  0  0  0  0  0
   -1.5970    1.0840    1.4750 O   0  0  0  0  0  0  0  0  0  0  0  0
   -3.1360    0.0560   -0.0470 C   0  0  1  0  0  0  0  0  0  0  0  0
   -3.8920   -0.4210    1.0620 O   0  0  0  0  0  0  0  0  0  0  0  0
   -3.8770    1.1210   -0.5520 O   0  0  0  0  0  0  0  0  0  0  0  0
   -4.0790    2.1090    0.3720 C   0  0  0  0  0  0  0  0  0  0  0  0
   -3.1510   -1.0220   -0.9320 O   0  0  0  0  0  0  0  0  0  0  0  0
    0.5350    0.5740    0.0630 C   0  0  1  0  0  0  0  0  0  0  0  0
    1.5680    0.6040   -0.7620 O   0  0  0  0  0  0  0  0  0  0  0  0
    1.8160    1.3910   -1.7910 C   0  0  1  0  0  0  0  0  0  0  0  0
    2.9700    2.2210   -1.5590 O   0  0  0  0  0  0  0  0  0  0  0  0
    2.3140    0.3870   -3.2770 P   0  0  0  0  0  0  0  0  0  0  0  0
    0.3260    1.7610    0.8560 N   0  0  0  0  0  0  0  0  0  0  0  0
    1.3460    2.0710    1.6620 O   0  0  0  0  0  0  0  0  0  0  0  0
    0.9230    2.9280    2.5650 O   0  0  0  0  0  0  0  0  0  0  0  0
   -0.2420    3.1560   -0.0860 P   0  0  0  0  0  0  0  0  0  0  0  0
   -1.3360    2.9580   -1.1550 O   0  0  0  0  0  0  0  0  0  0  0  0
    0.7160   -0.6680    0.9350 C   0  0  1  0  0  0  0  0  0  0  0  0
    1.3620   -1.5970    0.0660 O   0  0  0  0  0  0  0  0  0  0  0  0
    1.5920   -0.5480    2.1010 C   0  0  0  0  0  0  0  0  0  0  0  0
    3.3290   -0.0960    1.6250 P   0  0  0  0  0  0  0  0  0  0  0  0
    4.3330   -1.4990    1.2580 N   0  0  0  0  0  0  0  0  0  0  0  0
    4.0440    0.9830    2.7700 O   0  0  0  0  0  0  0  0  0  0  0  0
    5.3310    1.0370    2.6130 O   0  0  0  0  0  0  0  0  0  0  0  0
   -0.4930   -1.3150    1.1980 O   0  0  0  0  0  0  0  0  0  0  0  0
   -1.0310   -2.3160   -0.0990 P   0  0  0  0  0  0  0  0  0  0  0  0
    0.1690   -3.3770   -0.6900 O   0  0  0  0  0  0  0  0  0  0  0  0
  1  2  1  0
  3  2  1  6
  3  4  1  0
  3 12  1  0
  3 31  1  0
  4  5  1  0
  5  6  1  0
  5 13  1  0
  6  7  2  0
  6  8  1  0
  8  9  1  1
  8 10  1  0
  8 12  1  0
 10 11  1  0
 13 14  1  6
 13 18  1  0
 13 23  1  0
 14 15  1  0
 15 16  1  1
 15 17  1  0
 18 19  1  0
 18 21  1  0
 19 20  1  0
 21 22  2  0
 23 24  1  6
 23 25  1  0
 23 30  1  0
 25 26  1  0
 26 27  1  0
 26 28  1  0
 28 29  1  0
 30 31  1  0
 31 32  1  0
M  END
