
     RDKit          3D

 30 32  0  0  0  0  0  0  0  0999 V2000
   -0.6030    3.4280    0.9560 C   0  0  0  0  0  0  0  0  0  0  0  0
   -1.4810    2.8040    0.0890 O   0  0  0  0  0  0  0  0  0  0  0  0
   -1.8190    1.5180    0.5610 C   0  0  2  0  0  0  0  0  0  0  0  0
   -2.3520    1.7270    1.8760 N   0  0  0  0  0  0  0  0  0  0  0  0
   -3.4890    2.0260    2.0130 O   0  0  0  0  0  0  0  0  0  0  0  0
   -0.6010    0.7410    0.5800 N   0  0  0  0  0  0  0  0  0  0  0  0
   -0.9040   -0.4720   -0.1680 C   0  0  2  0  0  0  0  0  0  0  0  0
   -0.0350   -0.5420   -1.3580 C   0  0  2  0  0  0  0  0  0  0  0  0
    0.0390   -1.8960   -1.7460 O   0  0  0  0  0  0  0  0  0  0  0  0
    1.3440   -0.1530   -0.9650 C   0  0  0  0  0  0  0  0  0  0  0  0
    2.2920   -0.9780   -1.0030 O   0  0  0  0  0  0  0  0  0  0  0  0
    1.6860    1.1180   -0.5370 O   0  0  0  0  0  0  0  0  0  0  0  0
    2.9630    1.5330   -0.1580 C   0  0  0  0  0  0  0  0  0  0  0  0
    3.5530    0.7920    0.9930 C   0  0  0  0  0  0  0  0  0  0  0  0
    4.8760    1.3550    1.2470 N   0  0  0  0  0  0  0  0  0  0  0  0
    5.5080    0.7700    2.2620 O   0  0  0  0  0  0  0  0  0  0  0  0
    5.9530   -0.4190    2.0070 O   0  0  0  0  0  0  0  0  0  0  0  0
   -0.3970    0.2370   -2.4250 O   0  0  0  0  0  0  0  0  0  0  0  0
   -1.5460   -0.6020   -3.4200 P   0  0  0  0  0  0  0  0  0  0  0  0
   -1.0250   -2.3680   -3.6980 C   0  0  0  0  0  0  0  0  0  0  0  0
    0.0080   -2.7700   -4.2620 O   0  0  0  0  0  0  0  0  0  0  0  0
   -2.0370   -3.1850   -3.1410 N   0  0  0  0  0  0  0  0  0  0  0  0
   -2.3630   -2.9110   -1.8650 O   0  0  0  0  0  0  0  0  0  0  0  0
   -3.0230   -1.2770   -1.8530 P   0  0  0  0  0  0  0  0  0  0  0  0
   -2.3590   -0.4470   -0.3170 C   0  0  1  0  0  0  0  0  0  0  0  0
   -3.0170   -1.2170    0.8370 C   0  0  2  0  0  0  0  0  0  0  0  0
   -4.4080   -1.1050    0.7490 O   0  0  0  0  0  0  0  0  0  0  0  0
   -2.4970   -0.9190    2.0620 O   0  0  0  0  0  0  0  0  0  0  0  0
   -1.9200   -1.9810    2.5610 O   0  0  0  0  0  0  0  0  0  0  0  0
   -2.6950    0.8930   -0.2870 O   0  0  0  0  0  0  0  0  0  0  0  0
  1  2  1  0
  3  2  1  6
  3  4  1  0
  3  6  1  0
  3 30  1  0
  4  5  2  0
  7  6  1  6
  7  8  1  0
  7 25  1  0
  8  9  1  6
  8 10  1  0
  8 18  1  0
 10 11  2  0
 10 12  1  0
 12 13  1  0
 13 14  1  0
 14 15  1  0
 15 16  1  0
 16 17  1  0
 18 19  1  0
 19 20  1  0
 19 24  1  0
 20 21  2  0
 20 22  1  0
 22 23  1  0
 23 24  1  0
 24 25  1  0
 25 26  1  0
 25 30  1  6
 26 27  1  1
 26 28  1  0
 28 29  1  0
M  END
