
     RDKit          3D

 44 45  0  0  0  0  0  0  0  0999 V2000
   -8.8950    0.9390   -1.8320 C   0  0  0  0  0  0  0  0  0  0  0  0
   -7.7360    0.1920   -1.5110 O   0  0  0  0  0  0  0  0  0  0  0  0
   -6.5330    0.8530   -1.1520 C   0  0  0  0  0  0  0  0  0  0  0  0
   -6.6000    2.0790   -1.1480 O   0  0  0  0  0  0  0  0  0  0  0  0
   -5.3330    0.1030   -0.8220 C   0  0  2  0  0  0  0  0  0  0  0  0
   -5.6260   -0.9520    0.2690 C   0  0  0  0  0  0  0  0  0  0  0  0
   -4.6980   -2.1160    0.2390 C   0  0  0  0  0  0  0  0  0  0  0  0
   -5.3610   -3.2770   -0.2290 C   0  0  0  0  0  0  0  0  0  0  0  0
   -4.7430   -4.4920   -0.3680 C   0  0  0  0  0  0  0  0  0  0  0  0
   -3.4230   -4.5120   -0.0200 C   0  0  0  0  0  0  0  0  0  0  0  0
   -2.7070   -3.3820    0.4550 C   0  0  0  0  0  0  0  0  0  0  0  0
   -3.3640   -2.1800    0.5810 C   0  0  0  0  0  0  0  0  0  0  0  0
   -1.2820   -3.7410    0.7110 C   0  0  0  0  0  0  0  0  0  0  0  0
   -0.6300   -3.2280    1.8630 N   0  0  0  0  0  0  0  0  0  0  0  0
   -0.5430   -1.9070    2.3250 C   0  0  0  0  0  0  0  0  0  0  0  0
   -1.1010   -1.6650    3.4770 O   0  0  0  0  0  0  0  0  0  0  0  0
    0.0880   -0.7250    1.7140 C   0  0  0  0  0  0  0  0  0  0  0  0
    0.0250   -0.6250    0.2300 C   0  0  2  0  0  0  0  0  0  0  0  0
    1.2840   -1.1750   -0.3000 N   0  0  0  0  0  0  0  0  0  0  0  0
    2.5380   -0.6230    0.0380 C   0  0  0  0  0  0  0  0  0  0  0  0
    2.6150    0.3650    0.8040 O   0  0  0  0  0  0  0  0  0  0  0  0
    3.8020   -1.1940   -0.5030 C   0  0  1  0  0  0  0  0  0  0  0  0
    4.9380   -0.4050   -0.0280 N   0  0  0  0  0  0  0  0  0  0  0  0
    5.8860    0.1530   -0.9250 C   0  0  0  0  0  0  0  0  0  0  0  0
    5.6950   -0.0660   -2.1460 O   0  0  0  0  0  0  0  0  0  0  0  0
    7.0280    0.9480   -0.4070 C   0  0  0  0  0  0  0  0  0  0  0  0
    7.8580    1.4030   -1.5980 C   0  0  2  0  0  0  0  0  0  0  0  0
    8.3600    0.1760   -2.3530 C   0  0  0  0  0  0  0  0  0  0  0  0
    9.0360    2.2310   -1.1740 C   0  0  0  0  0  0  0  0  0  0  0  0
    4.0740   -2.6010    0.0090 C   0  0  1  0  0  0  0  0  0  0  0  0
    4.1920   -2.6570    1.5050 C   0  0  0  0  0  0  0  0  0  0  0  0
    3.1930   -3.6490   -0.5700 C   0  0  0  0  0  0  0  0  0  0  0  0
   -0.2300    0.7200   -0.3280 C   0  0  0  0  0  0  0  0  0  0  0  0
    0.8130    1.2970   -0.8150 O   0  0  0  0  0  0  0  0  0  0  0  0
   -1.4330    1.4420   -0.4020 N   0  0  0  0  0  0  0  0  0  0  0  0
   -2.3210    1.8760    0.6330 C   0  0  1  0  0  0  0  0  0  0  0  0
   -1.7660    2.9490    1.5080 C   0  0  0  0  0  0  0  0  0  0  0  0
   -1.3990    4.2480    0.9260 C   0  0  1  0  0  0  0  0  0  0  0  0
   -0.8890    5.1740    2.0720 C   0  0  0  0  0  0  0  0  0  0  0  0
   -0.3460    4.2360   -0.1560 C   0  0  0  0  0  0  0  0  0  0  0  0
   -3.9430    2.1350    0.0100 P   0  0  0  0  0  0  0  0  0  0  0  0
   -4.1750    2.6420   -1.5460 O   0  0  0  0  0  0  0  0  0  0  0  0
   -5.2300    2.0430    1.0510 O   0  0  0  0  0  0  0  0  0  0  0  0
   -4.1970    0.7340   -0.4970 O   0  0  0  0  0  0  0  0  0  0  0  0
  1  2  1  0
  2  3  1  0
  3  4  2  0
  5  3  1  1
  5  6  1  0
  5 44  1  0
  6  7  1  0
  7  8  2  0
  7 12  1  0
  8  9  1  0
  9 10  2  0
 10 11  1  0
 11 12  2  0
 11 13  1  0
 13 14  1  0
 14 15  1  0
 15 16  2  0
 15 17  1  0
 17 18  1  0
 18 19  1  6
 18 33  1  0
 19 20  1  0
 20 21  2  0
 20 22  1  0
 22 23  1  1
 22 30  1  0
 23 24  1  0
 24 25  2  0
 24 26  1  0
 26 27  1  0
 27 28  1  1
 27 29  1  0
 30 31  1  1
 30 32  1  0
 33 34  2  0
 33 35  1  0
 35 36  1  0
 36 37  1  6
 36 41  1  0
 37 38  1  0
 38 39  1  1
 38 40  1  0
 41 42  1  0
 41 43  1  0
 41 44  1  0
M  END
