
     RDKit          3D

 31 34  0  0  0  0  0  0  0  0999 V2000
    3.5380    1.6460    0.8020 O   0  0  0  0  0  0  0  0  0  0  0  0
    3.2140    1.3580   -0.3770 C   0  0  0  0  0  0  0  0  0  0  0  0
    4.0890    1.7470   -1.3820 O   0  0  0  0  0  0  0  0  0  0  0  0
    2.0180    0.6660   -0.7040 N   0  0  0  0  0  0  0  0  0  0  0  0
    1.0990    0.2510    0.3010 C   0  0  1  0  0  0  0  0  0  0  0  0
    1.5340   -1.2200    1.2940 P   0  0  0  0  0  0  0  0  0  0  0  0
    0.5500   -2.6220    0.7380 N   0  0  0  0  0  0  0  0  0  0  0  0
    1.4350   -3.4350    0.0230 N   0  0  0  0  0  0  0  0  0  0  0  0
    2.1610   -2.8140   -0.8760 O   0  0  0  0  0  0  0  0  0  0  0  0
    3.3350   -2.2450   -0.4370 C   0  0  0  0  0  0  0  0  0  0  0  0
    3.2920   -1.7980    1.0020 C   0  0  2  0  0  0  0  0  0  0  0  0
    3.4630   -2.9340    1.7890 O   0  0  0  0  0  0  0  0  0  0  0  0
    0.5780    1.4410    1.0800 C   0  0  1  0  0  0  0  0  0  0  0  0
    0.4110    2.5530    0.2610 O   0  0  0  0  0  0  0  0  0  0  0  0
    0.9760    4.0170    0.9750 P   0  0  0  0  0  0  0  0  0  0  0  0
   -0.3000    5.1550    1.2240 O   0  0  0  0  0  0  0  0  0  0  0  0
    2.1740    4.7130   -0.0700 O   0  0  0  0  0  0  0  0  0  0  0  0
   -0.7020    0.6420    1.0860 C   0  0  1  0  0  0  0  0  0  0  0  0
   -1.9470    1.4370    0.7740 C   0  0  0  0  0  0  0  0  0  0  0  0
   -2.9800    0.6480    0.3180 O   0  0  0  0  0  0  0  0  0  0  0  0
   -2.7090   -0.0210   -0.8550 C   0  0  2  0  0  0  0  0  0  0  0  0
   -3.2930    0.6270   -1.9660 O   0  0  0  0  0  0  0  0  0  0  0  0
   -4.6540    0.3390   -1.7330 C   0  0  0  0  0  0  0  0  0  0  0  0
   -4.6740   -1.0460   -1.5260 O   0  0  0  0  0  0  0  0  0  0  0  0
   -3.4870   -1.3190   -0.8480 C   0  0  2  0  0  0  0  0  0  0  0  0
   -3.8310   -1.7060    0.4620 O   0  0  0  0  0  0  0  0  0  0  0  0
   -2.8310   -2.3310   -1.5300 O   0  0  0  0  0  0  0  0  0  0  0  0
   -3.5840   -3.4030   -1.4650 O   0  0  0  0  0  0  0  0  0  0  0  0
   -1.2860   -0.2220   -1.1240 C   0  0  0  0  0  0  0  0  0  0  0  0
   -0.9460   -0.7110   -2.2310 O   0  0  0  0  0  0  0  0  0  0  0  0
   -0.2680    0.1020   -0.2120 N   0  0  0  0  0  0  0  0  0  0  0  0
  1  2  2  0
  2  3  1  0
  2  4  1  0
  5  4  1  6
  5  6  1  0
  5 13  1  0
  5 31  1  0
  6  7  1  0
  6 11  1  0
  7  8  1  0
  8  9  1  0
  9 10  1  0
 10 11  1  0
 11 12  1  1
 13 14  1  6
 13 18  1  0
 14 15  1  0
 15 16  1  0
 15 17  1  0
 18 19  1  6
 18 31  1  0
 19 20  1  0
 21 20  1  1
 21 22  1  0
 21 25  1  0
 21 29  1  0
 22 23  1  0
 23 24  1  0
 24 25  1  0
 25 26  1  1
 25 27  1  0
 27 28  1  0
 29 30  2  0
 29 31  1  0
M  END
