
     RDKit          3D

 31 33  0  0  0  0  0  0  0  0999 V2000
   -4.2770   -1.6030    1.0950 C   0  0  0  0  0  0  0  0  0  0  0  0
   -4.0540   -0.3240    0.6270 O   0  0  0  0  0  0  0  0  0  0  0  0
   -2.8830    0.2530    1.0870 C   0  0  1  0  0  0  0  0  0  0  0  0
   -2.9660    0.5000    2.5260 C   0  0  0  0  0  0  0  0  0  0  0  0
   -4.0000    0.2700    3.1830 O   0  0  0  0  0  0  0  0  0  0  0  0
   -1.8700    1.0110    3.2280 O   0  0  0  0  0  0  0  0  0  0  0  0
   -1.8420   -0.5770    0.6830 O   0  0  0  0  0  0  0  0  0  0  0  0
   -0.8400   -0.6000    1.4960 O   0  0  0  0  0  0  0  0  0  0  0  0
    0.3720    0.4960    0.9500 P   0  0  0  0  0  0  0  0  0  0  0  0
    1.8950   -0.2970    0.3680 C   0  0  1  0  0  0  0  0  0  0  0  0
    3.2460    0.9860    0.1970 P   0  0  0  0  0  0  0  0  0  0  0  0
    4.3350    0.5120   -1.0810 O   0  0  0  0  0  0  0  0  0  0  0  0
    3.7610    0.7690   -2.2360 O   0  0  0  0  0  0  0  0  0  0  0  0
    2.5210    2.6550   -0.2110 C   0  0  1  0  0  0  0  0  0  0  0  0
    1.8140    3.1270    0.8690 O   0  0  0  0  0  0  0  0  0  0  0  0
    3.6110    3.5150   -0.4220 O   0  0  0  0  0  0  0  0  0  0  0  0
    2.3490   -1.2280    1.3840 N   0  0  0  0  0  0  0  0  0  0  0  0
    3.2100   -2.1090    0.6150 C   0  0  1  0  0  0  0  0  0  0  0  0
    4.4630   -1.5480    0.5570 O   0  0  0  0  0  0  0  0  0  0  0  0
    3.3010   -3.4820    1.2510 C   0  0  0  0  0  0  0  0  0  0  0  0
    4.1310   -4.2630    0.4710 O   0  0  0  0  0  0  0  0  0  0  0  0
    2.5320   -2.1560   -0.6620 N   0  0  0  0  0  0  0  0  0  0  0  0
    1.7730   -1.1250   -0.8230 C   0  0  0  0  0  0  0  0  0  0  0  0
    1.0050   -0.9640   -2.0180 N   0  0  0  0  0  0  0  0  0  0  0  0
   -0.5490    1.8860   -0.4450 P   0  0  0  0  0  0  0  0  0  0  0  0
   -0.6900    1.2290   -2.0500 O   0  0  0  0  0  0  0  0  0  0  0  0
   -1.8900    0.6380   -2.0720 O   0  0  0  0  0  0  0  0  0  0  0  0
   -2.8320    1.4530   -2.4100 O   0  0  0  0  0  0  0  0  0  0  0  0
   -3.6240    1.9190   -1.3970 C   0  0  1  0  0  0  0  0  0  0  0  0
   -4.9420    1.2070   -1.2690 C   0  0  0  0  0  0  0  0  0  0  0  0
   -2.6780    1.9340    0.2000 P   0  0  0  0  0  0  0  0  0  0  0  0
  1  2  1  0
  3  2  1  6
  3  4  1  0
  3  7  1  0
  3 31  1  0
  4  5  2  0
  4  6  1  0
  7  8  1  0
  8  9  1  0
  9 10  1  0
  9 25  1  0
 10 11  1  6
 10 17  1  0
 10 23  1  0
 11 12  1  0
 11 14  1  0
 12 13  1  0
 14 15  1  1
 14 16  1  0
 17 18  1  0
 18 19  1  6
 18 20  1  0
 18 22  1  0
 20 21  1  0
 22 23  2  0
 23 24  1  0
 25 26  1  0
 25 31  1  0
 26 27  1  0
 27 28  1  0
 28 29  1  0
 29 30  1  1
 29 31  1  0
M  END
