
     RDKit          3D

 32 33  0  0  0  0  0  0  0  0999 V2000
    3.6940   -1.3390   -0.3860 C   0  0  0  0  0  0  0  0  0  0  0  0
    2.3580   -0.6580   -0.2490 C   0  0  1  0  0  0  0  0  0  0  0  0
    1.9140    0.0550   -1.9300 P   0  0  0  0  0  0  0  0  0  0  0  0
    3.0790    1.2280   -2.4330 O   0  0  0  0  0  0  0  0  0  0  0  0
    1.7270   -1.2190   -3.0970 O   0  0  0  0  0  0  0  0  0  0  0  0
    2.5140   -0.9390   -4.1110 O   0  0  0  0  0  0  0  0  0  0  0  0
    1.0740   -1.9000    0.1510 P   0  0  0  0  0  0  0  0  0  0  0  0
   -0.3130   -1.3220    1.0090 N   0  0  0  0  0  0  0  0  0  0  0  0
   -1.5100   -1.3140    0.6600 C   0  0  0  0  0  0  0  0  0  0  0  0
   -2.3030   -0.7230    1.7240 O   0  0  0  0  0  0  0  0  0  0  0  0
   -3.1170    0.3250    1.2570 C   0  0  0  0  0  0  0  0  0  0  0  0
   -3.0970    0.6240   -0.1800 C   0  0  2  0  0  0  0  0  0  0  0  0
   -4.3480    1.2070   -0.5050 O   0  0  0  0  0  0  0  0  0  0  0  0
   -2.8220   -0.4840   -1.1390 C   0  0  0  0  0  0  0  0  0  0  0  0
   -2.2900   -1.6880   -0.4150 N   0  0  0  0  0  0  0  0  0  0  0  0
   -2.7350   -2.9150   -1.0020 C   0  0  0  0  0  0  0  0  0  0  0  0
   -2.3320   -4.1600   -0.4000 C   0  0  0  0  0  0  0  0  0  0  0  0
   -1.6040   -4.1790    0.6200 O   0  0  0  0  0  0  0  0  0  0  0  0
   -2.7390   -5.3690   -0.9310 O   0  0  0  0  0  0  0  0  0  0  0  0
   -1.8420    1.9640   -0.5080 P   0  0  0  0  0  0  0  0  0  0  0  0
   -2.4890    3.5250   -0.4500 O   0  0  0  0  0  0  0  0  0  0  0  0
   -2.0480    4.4370    0.9310 P   0  0  0  0  0  0  0  0  0  0  0  0
   -1.8960    6.1040    0.4740 O   0  0  0  0  0  0  0  0  0  0  0  0
   -3.3280    4.2570    2.1130 O   0  0  0  0  0  0  0  0  0  0  0  0
   -0.3680    1.7410    0.3210 O   0  0  0  0  0  0  0  0  0  0  0  0
    0.6630    1.5830   -0.4840 O   0  0  0  0  0  0  0  0  0  0  0  0
    1.8150    1.7480    0.2350 C   0  0  0  0  0  0  0  0  0  0  0  0
    2.4430    0.4730    0.7160 C   0  0  1  0  0  0  0  0  0  0  0  0
    1.8980    0.0530    1.9350 O   0  0  0  0  0  0  0  0  0  0  0  0
    2.7330    0.0530    2.9230 O   0  0  0  0  0  0  0  0  0  0  0  0
    3.9220   -0.3060    2.4970 O   0  0  0  0  0  0  0  0  0  0  0  0
    4.8920    0.3540    3.1880 N   0  0  0  0  0  0  0  0  0  0  0  0
  2  1  1  6
  2  3  1  0
  2  7  1  0
  2 28  1  0
  3  4  1  0
  3  5  1  0
  5  6  1  0
  7  8  1  0
  8  9  2  0
  9 10  1  0
  9 15  1  0
 10 11  1  0
 11 12  1  0
 12 13  1  6
 12 14  1  0
 12 20  1  0
 14 15  1  0
 15 16  1  0
 16 17  1  0
 17 18  2  0
 17 19  1  0
 20 21  1  0
 20 25  1  0
 21 22  1  0
 22 23  1  0
 22 24  1  0
 25 26  1  0
 26 27  1  0
 27 28  1  0
 28 29  1  1
 29 30  1  0
 30 31  1  0
 31 32  1  0
M  END
