
     RDKit          3D

 32 33  0  0  0  0  0  0  0  0999 V2000
    3.4430   -2.5100   -3.6550 C   0  0  0  0  0  0  0  0  0  0  0  0
    3.1560   -1.7710   -2.4380 N   0  0  0  0  0  0  0  0  0  0  0  0
    4.1910   -1.3310   -1.7180 O   0  0  0  0  0  0  0  0  0  0  0  0
    1.8260   -1.5180   -2.0170 C   0  0  0  0  0  0  0  0  0  0  0  0
    0.7930   -1.8820   -2.6140 O   0  0  0  0  0  0  0  0  0  0  0  0
    1.5910   -0.8130   -0.8570 O   0  0  0  0  0  0  0  0  0  0  0  0
    0.3390   -0.5400   -0.4040 O   0  0  0  0  0  0  0  0  0  0  0  0
    0.5000    0.3700    0.6080 C   0  0  2  0  0  0  0  0  0  0  0  0
    1.1050    1.4750    0.1110 O   0  0  0  0  0  0  0  0  0  0  0  0
    0.3350    2.1980   -0.7420 C   0  0  1  0  0  0  0  0  0  0  0  0
    0.7990    1.9260   -2.5460 P   0  0  0  0  0  0  0  0  0  0  0  0
   -0.4260    0.8920   -3.2500 O   0  0  0  0  0  0  0  0  0  0  0  0
    0.7540    3.4130   -3.4400 O   0  0  0  0  0  0  0  0  0  0  0  0
   -1.1430    2.0860   -0.6520 C   0  0  1  0  0  0  0  0  0  0  0  0
   -1.6380    3.0640   -1.5640 O   0  0  0  0  0  0  0  0  0  0  0  0
   -1.6950    0.9050   -1.0810 O   0  0  0  0  0  0  0  0  0  0  0  0
   -3.0330    0.8090   -0.7250 C   0  0  0  0  0  0  0  0  0  0  0  0
   -3.3900   -0.8720   -0.0240 P   0  0  0  0  0  0  0  0  0  0  0  0
   -5.0450   -1.3260   -0.2680 O   0  0  0  0  0  0  0  0  0  0  0  0
   -2.3410   -2.0250   -0.7350 O   0  0  0  0  0  0  0  0  0  0  0  0
   -1.8290   -3.2630    0.3680 P   0  0  0  0  0  0  0  0  0  0  0  0
   -1.8330   -4.7670   -0.5390 O   0  0  0  0  0  0  0  0  0  0  0  0
    0.2670   -2.8860    0.9490 P   0  0  0  0  0  0  0  0  0  0  0  0
    1.0350   -4.3000    1.5430 O   0  0  0  0  0  0  0  0  0  0  0  0
    0.4130   -1.4430    2.0670 C   0  0  0  0  0  0  0  0  0  0  0  0
    1.3150   -0.3830    1.5800 N   0  0  0  0  0  0  0  0  0  0  0  0
    1.3570    0.5910    2.6600 C   0  0  0  0  0  0  0  0  0  0  0  0
   -0.0660    1.1030    2.6250 C   0  0  1  0  0  0  0  0  0  0  0  0
   -0.8560    0.6820    3.7660 N   0  0  0  0  0  0  0  0  0  0  0  0
    0.0050    2.6080    2.7370 C   0  0  0  0  0  0  0  0  0  0  0  0
    0.6220    2.8620    3.9850 O   0  0  0  0  0  0  0  0  0  0  0  0
   -0.5880    0.6560    1.4020 O   0  0  0  0  0  0  0  0  0  0  0  0
  1  2  1  0
  2  3  1  0
  2  4  1  0
  4  5  2  0
  4  6  1  0
  6  7  1  0
  8  7  1  6
  8  9  1  0
  8 26  1  0
  8 32  1  0
  9 10  1  0
 10 11  1  6
 10 14  1  0
 11 12  1  0
 11 13  1  0
 14 15  1  6
 14 16  1  0
 16 17  1  0
 17 18  1  0
 18 19  1  0
 18 20  1  0
 20 21  1  0
 21 22  1  0
 21 23  1  0
 23 24  1  0
 23 25  1  0
 25 26  1  0
 26 27  1  0
 27 28  1  0
 28 29  1  1
 28 30  1  0
 28 32  1  0
 30 31  1  0
M  END
