
     RDKit          3D

 31 32  0  0  0  0  0  0  0  0999 V2000
    2.4780   -0.0160   -3.0530 N   0  0  0  0  0  0  0  0  0  0  0  0
    2.2540    0.3510   -1.8030 C   0  0  0  0  0  0  0  0  0  0  0  0
    2.6590    1.6370   -1.4200 N   0  0  0  0  0  0  0  0  0  0  0  0
    3.7030    2.1420   -0.1090 P   0  0  0  0  0  0  0  0  0  0  0  0
    2.9760    2.5180    1.3740 O   0  0  0  0  0  0  0  0  0  0  0  0
    5.3380    1.5340   -0.0780 N   0  0  0  0  0  0  0  0  0  0  0  0
    5.5260    0.4630   -0.8640 O   0  0  0  0  0  0  0  0  0  0  0  0
    5.0390   -0.6460   -0.1660 C   0  0  0  0  0  0  0  0  0  0  0  0
    4.0930   -0.2390    0.7870 O   0  0  0  0  0  0  0  0  0  0  0  0
    3.4870   -1.4180    1.2620 C   0  0  0  0  0  0  0  0  0  0  0  0
    2.1550   -1.1710    1.8530 C   0  0  0  0  0  0  0  0  0  0  0  0
    1.8990   -1.8100    2.9390 O   0  0  0  0  0  0  0  0  0  0  0  0
    1.1610   -0.3180    1.3450 N   0  0  0  0  0  0  0  0  0  0  0  0
    0.6020   -0.3120    0.0170 C   0  0  1  0  0  0  0  0  0  0  0  0
   -0.5130   -1.3670    0.0110 C   0  0  0  0  0  0  0  0  0  0  0  0
   -1.8020   -0.6180   -0.3660 C   0  0  2  0  0  0  0  0  0  0  0  0
   -2.9700   -1.3560   -0.0760 N   0  0  0  0  0  0  0  0  0  0  0  0
   -3.8900   -0.4790    0.6590 C   0  0  1  0  0  0  0  0  0  0  0  0
   -4.4310    0.5720   -0.1730 C   0  0  0  0  0  0  0  0  0  0  0  0
   -4.8350    0.2320   -1.3590 O   0  0  0  0  0  0  0  0  0  0  0  0
   -4.5710    1.8910    0.1190 O   0  0  0  0  0  0  0  0  0  0  0  0
   -5.0890    2.7730   -0.7670 O   0  0  0  0  0  0  0  0  0  0  0  0
   -5.5610    3.7810   -0.0830 O   0  0  0  0  0  0  0  0  0  0  0  0
   -5.1910   -1.4300    1.5770 P   0  0  0  0  0  0  0  0  0  0  0  0
   -6.0880   -0.2230    2.4910 O   0  0  0  0  0  0  0  0  0  0  0  0
   -4.3950   -2.4810    2.7200 O   0  0  0  0  0  0  0  0  0  0  0  0
   -1.5640   -0.0860   -1.7380 C   0  0  0  0  0  0  0  0  0  0  0  0
   -0.6700    1.0530   -1.5240 O   0  0  0  0  0  0  0  0  0  0  0  0
   -0.0040    1.0350   -0.2800 C   0  0  0  0  0  0  0  0  0  0  0  0
    0.0760    2.0180    0.4870 O   0  0  0  0  0  0  0  0  0  0  0  0
    1.6100   -0.6240   -0.9980 N   0  0  0  0  0  0  0  0  0  0  0  0
  1  2  2  0
  2  3  1  0
  2 31  1  0
  3  4  1  0
  4  5  1  0
  4  6  1  0
  6  7  1  0
  7  8  1  0
  8  9  1  0
  9 10  1  0
 10 11  1  0
 11 12  2  0
 11 13  1  0
 13 14  1  0
 14 15  1  1
 14 29  1  0
 14 31  1  0
 15 16  1  0
 16 17  1  6
 16 27  1  0
 18 17  1  6
 18 19  1  0
 18 24  1  0
 19 20  2  0
 19 21  1  0
 21 22  1  0
 22 23  1  0
 24 25  1  0
 24 26  1  0
 27 28  1  0
 28 29  1  0
 29 30  2  0
M  END
