
     RDKit          3D

 31 32  0  0  0  0  0  0  0  0999 V2000
   -3.8720   -2.8700    4.0360 O   0  0  0  0  0  0  0  0  0  0  0  0
   -4.8710   -2.6070    3.3460 C   0  0  0  0  0  0  0  0  0  0  0  0
   -6.1120   -3.1020    3.7190 O   0  0  0  0  0  0  0  0  0  0  0  0
   -4.6950   -1.8150    2.2150 O   0  0  0  0  0  0  0  0  0  0  0  0
   -3.4690   -1.3130    1.8280 C   0  0  0  0  0  0  0  0  0  0  0  0
   -2.4550   -1.5530    2.4860 O   0  0  0  0  0  0  0  0  0  0  0  0
   -3.3940   -0.4960    0.6290 C   0  0  0  0  0  0  0  0  0  0  0  0
   -4.4000   -0.1400   -0.2010 N   0  0  0  0  0  0  0  0  0  0  0  0
   -3.9580    0.6230   -1.2110 C   0  0  0  0  0  0  0  0  0  0  0  0
   -4.7310    1.1990   -2.3000 C   0  0  0  0  0  0  0  0  0  0  0  0
   -5.9640    0.9750   -2.3310 O   0  0  0  0  0  0  0  0  0  0  0  0
   -4.1710    1.9760   -3.2950 O   0  0  0  0  0  0  0  0  0  0  0  0
   -4.8710    2.5110   -4.3030 O   0  0  0  0  0  0  0  0  0  0  0  0
   -2.6540    0.7580   -1.0260 N   0  0  0  0  0  0  0  0  0  0  0  0
   -2.2560    0.0850    0.0970 C   0  0  0  0  0  0  0  0  0  0  0  0
   -0.9220    0.0370    0.5640 N   0  0  0  0  0  0  0  0  0  0  0  0
    0.1110    0.7250   -0.1570 C   0  0  0  0  0  0  0  0  0  0  0  0
    1.4760    0.5700    0.4760 C   0  0  1  0  0  0  0  0  0  0  0  0
    1.7700   -0.7870    0.4980 O   0  0  0  0  0  0  0  0  0  0  0  0
    2.0730   -1.2840    1.7390 C   0  0  0  0  0  0  0  0  0  0  0  0
    2.4270   -3.1130    1.5020 P   0  0  0  0  0  0  0  0  0  0  0  0
    2.8330   -3.8670    2.9950 O   0  0  0  0  0  0  0  0  0  0  0  0
    3.5900   -3.3600    0.2690 O   0  0  0  0  0  0  0  0  0  0  0  0
    2.4490    1.3060   -0.3780 C   0  0  0  0  0  0  0  0  0  0  0  0
    2.1590    2.2490   -1.2880 N   0  0  0  0  0  0  0  0  0  0  0  0
    3.2490    2.6850   -1.8570 N   0  0  0  0  0  0  0  0  0  0  0  0
    4.2900    2.0250   -1.3220 C   0  0  0  0  0  0  0  0  0  0  0  0
    6.0580    2.2400   -1.7520 P   0  0  0  0  0  0  0  0  0  0  0  0
    6.1990    3.5210   -2.9260 O   0  0  0  0  0  0  0  0  0  0  0  0
    6.6350    0.7870   -2.5460 O   0  0  0  0  0  0  0  0  0  0  0  0
    3.7880    1.1740   -0.4090 N   0  0  0  0  0  0  0  0  0  0  0  0
  1  2  2  0
  2  3  1  0
  2  4  1  0
  4  5  1  0
  5  6  2  0
  5  7  1  0
  7  8  1  0
  7 15  2  0
  8  9  2  0
  9 10  1  0
  9 14  1  0
 10 11  2  0
 10 12  1  0
 12 13  1  0
 14 15  1  0
 15 16  1  0
 16 17  1  0
 18 17  1  6
 18 19  1  0
 18 24  1  0
 19 20  1  0
 20 21  1  0
 21 22  1  0
 21 23  1  0
 24 25  2  0
 24 31  1  0
 25 26  1  0
 26 27  1  0
 27 28  1  0
 27 31  2  0
 28 29  1  0
 28 30  1  0
M  END
