
     RDKit          3D

 31 33  0  0  0  0  0  0  0  0999 V2000
   -1.8480    1.6140   -0.1030 N   0  0  0  0  0  0  0  0  0  0  0  0
   -2.4870    0.4970   -0.1430 C   0  0  0  0  0  0  0  0  0  0  0  0
   -1.9130   -0.6520   -0.5510 N   0  0  0  0  0  0  0  0  0  0  0  0
   -0.5400   -0.6600   -0.9170 C   0  0  1  0  0  0  0  0  0  0  0  0
    0.4090   -0.5840    0.1830 N   0  0  0  0  0  0  0  0  0  0  0  0
    0.2850   -1.4970    1.2500 C   0  0  0  0  0  0  0  0  0  0  0  0
   -0.8300   -1.9830    1.6130 O   0  0  0  0  0  0  0  0  0  0  0  0
    1.4250   -1.9080    1.9660 N   0  0  0  0  0  0  0  0  0  0  0  0
    2.5910   -1.0960    2.0050 C   0  0  0  0  0  0  0  0  0  0  0  0
    2.7490   -0.1570    0.8710 C   0  0  2  0  0  0  0  0  0  0  0  0
    3.4980    0.9920    1.3100 O   0  0  0  0  0  0  0  0  0  0  0  0
    3.3970    2.0850    0.4330 C   0  0  0  0  0  0  0  0  0  0  0  0
    3.4840    3.2730    0.7920 O   0  0  0  0  0  0  0  0  0  0  0  0
    3.1720    1.6750   -1.0010 C   0  0  1  0  0  0  0  0  0  0  0  0
    4.2890    0.9290   -1.3590 O   0  0  0  0  0  0  0  0  0  0  0  0
    4.9340    1.5680   -2.3070 O   0  0  0  0  0  0  0  0  0  0  0  0
    5.8600    2.3710   -1.8280 O   0  0  0  0  0  0  0  0  0  0  0  0
    1.8890    0.8620   -1.1420 C   0  0  0  0  0  0  0  0  0  0  0  0
    1.5060    0.3610    0.2420 C   0  0  1  0  0  0  0  0  0  0  0  0
   -0.0560   -2.1850   -1.8700 P   0  0  0  0  0  0  0  0  0  0  0  0
   -0.9950   -2.4790   -3.2510 O   0  0  0  0  0  0  0  0  0  0  0  0
    0.3320   -3.5230   -0.9000 O   0  0  0  0  0  0  0  0  0  0  0  0
   -2.6900   -1.7580   -0.5810 C   0  0  0  0  0  0  0  0  0  0  0  0
   -2.1760   -2.8310   -0.9590 O   0  0  0  0  0  0  0  0  0  0  0  0
   -3.9740   -1.6620   -0.2070 N   0  0  0  0  0  0  0  0  0  0  0  0
   -4.5300   -0.5150    0.1970 C   0  0  0  0  0  0  0  0  0  0  0  0
   -5.7360   -0.4980    0.5320 O   0  0  0  0  0  0  0  0  0  0  0  0
   -3.7920    0.5850    0.2350 N   0  0  0  0  0  0  0  0  0  0  0  0
   -4.4690    2.1810    0.7710 P   0  0  0  0  0  0  0  0  0  0  0  0
   -5.2200    2.9950   -0.5890 O   0  0  0  0  0  0  0  0  0  0  0  0
   -5.5850    1.9820    2.0720 O   0  0  0  0  0  0  0  0  0  0  0  0
  1  2  2  0
  2  3  1  0
  2 28  1  0
  3  4  1  0
  3 23  1  0
  4  5  1  0
  4 20  1  1
  5  6  1  0
  5 19  1  0
  6  7  2  0
  6  8  1  0
  8  9  1  0
 10  9  1  1
 10 11  1  0
 10 19  1  0
 11 12  1  0
 12 13  2  0
 12 14  1  0
 14 15  1  1
 14 18  1  0
 15 16  1  0
 16 17  1  0
 19 18  1  6
 20 21  1  0
 20 22  1  0
 23 24  2  0
 23 25  1  0
 25 26  1  0
 26 27  2  0
 26 28  1  0
 28 29  1  0
 29 30  1  0
 29 31  1  0
M  END
