
     RDKit          3D

 31 32  0  0  0  0  0  0  0  0999 V2000
    1.6250   -5.2460    0.8900 N   0  0  0  0  0  0  0  0  0  0  0  0
    1.0140   -4.0470    0.8280 O   0  0  0  0  0  0  0  0  0  0  0  0
    1.0630   -3.5260   -0.4860 C   0  0  0  0  0  0  0  0  0  0  0  0
    0.3550   -2.1630   -0.5140 C   0  0  2  0  0  0  0  0  0  0  0  0
    1.0760   -1.2040    0.3770 C   0  0  0  0  0  0  0  0  0  0  0  0
    2.3850   -0.7880   -0.1820 C   0  0  0  0  0  0  0  0  0  0  0  0
    3.3120   -1.6490    0.0150 O   0  0  0  0  0  0  0  0  0  0  0  0
    2.6570    0.4240   -0.8740 N   0  0  0  0  0  0  0  0  0  0  0  0
    3.9850    0.9200   -0.7880 C   0  0  0  0  0  0  0  0  0  0  0  0
    4.8840    0.2900   -0.1270 O   0  0  0  0  0  0  0  0  0  0  0  0
    4.4550    2.1190   -1.3950 N   0  0  0  0  0  0  0  0  0  0  0  0
    5.7300    2.5590   -1.2920 O   0  0  0  0  0  0  0  0  0  0  0  0
    6.3120    2.0910   -0.2310 O   0  0  0  0  0  0  0  0  0  0  0  0
    7.2480    2.8990    0.2280 O   0  0  0  0  0  0  0  0  0  0  0  0
    7.3570    2.6770    1.5120 O   0  0  0  0  0  0  0  0  0  0  0  0
    1.7280    1.1780   -1.6400 C   0  0  0  0  0  0  0  0  0  0  0  0
    2.0760    1.5770   -2.8310 O   0  0  0  0  0  0  0  0  0  0  0  0
    0.4690    1.5560   -1.2890 O   0  0  0  0  0  0  0  0  0  0  0  0
   -0.0550    2.3120   -0.2640 C   0  0  0  0  0  0  0  0  0  0  0  0
   -1.5870    2.1650   -0.3510 C   0  0  0  0  0  0  0  0  0  0  0  0
   -1.9140    0.9240    0.2270 N   0  0  0  0  0  0  0  0  0  0  0  0
   -1.7480   -0.2430   -0.6100 C   0  0  0  0  0  0  0  0  0  0  0  0
   -1.6820   -1.4180    0.3420 C   0  0  1  0  0  0  0  0  0  0  0  0
   -3.0830   -1.8760    0.6790 C   0  0  0  0  0  0  0  0  0  0  0  0
   -4.0880   -0.8960    0.4420 N   0  0  0  0  0  0  0  0  0  0  0  0
   -3.6000    0.7880    0.8310 P   0  0  0  0  0  0  0  0  0  0  0  0
   -4.6290    1.8620   -0.2150 N   0  0  0  0  0  0  0  0  0  0  0  0
   -6.2840    1.8670    0.4210 P   0  0  0  0  0  0  0  0  0  0  0  0
   -6.5680    0.4310    1.3480 O   0  0  0  0  0  0  0  0  0  0  0  0
   -6.4790    3.2440    1.4580 O   0  0  0  0  0  0  0  0  0  0  0  0
   -0.9320   -2.4490   -0.1140 O   0  0  0  0  0  0  0  0  0  0  0  0
  1  2  1  0
  2  3  1  0
  4  3  1  1
  4  5  1  0
  4 31  1  0
  5  6  1  0
  6  7  2  0
  6  8  1  0
  8  9  1  0
  8 16  1  0
  9 10  2  0
  9 11  1  0
 11 12  1  0
 12 13  1  0
 13 14  1  0
 14 15  1  0
 16 17  2  0
 16 18  1  0
 18 19  1  0
 19 20  1  0
 20 21  1  0
 21 22  1  0
 21 26  1  0
 22 23  1  0
 23 24  1  6
 23 31  1  0
 24 25  1  0
 25 26  1  0
 26 27  1  0
 27 28  1  0
 28 29  1  0
 28 30  1  0
M  END
