
     RDKit          3D

 31 33  0  0  0  0  0  0  0  0999 V2000
    8.8070    0.8980   -0.0750 N   0  0  0  0  0  0  0  0  0  0  0  0
    7.6460    0.5350   -0.8140 C   0  0  0  0  0  0  0  0  0  0  0  0
    7.7530    0.1200   -2.0970 N   0  0  0  0  0  0  0  0  0  0  0  0
    6.6610   -0.2240   -2.8010 C   0  0  0  0  0  0  0  0  0  0  0  0
    5.4730   -0.1490   -2.2150 N   0  0  0  0  0  0  0  0  0  0  0  0
    5.2830    0.2530   -0.9460 C   0  0  0  0  0  0  0  0  0  0  0  0
    6.3990    0.6050   -0.2230 C   0  0  0  0  0  0  0  0  0  0  0  0
    5.9420    0.9620    0.9900 N   0  0  0  0  0  0  0  0  0  0  0  0
    4.5860    0.8260    0.9900 C   0  0  0  0  0  0  0  0  0  0  0  0
    4.1740    0.3920   -0.1920 N   0  0  0  0  0  0  0  0  0  0  0  0
    2.8430    0.0960   -0.6780 C   0  0  2  0  0  0  0  0  0  0  0  0
    1.9600    1.0890   -0.2910 O   0  0  0  0  0  0  0  0  0  0  0  0
    0.6860    0.5910   -0.3540 C   0  0  2  0  0  0  0  0  0  0  0  0
   -0.1580    1.0500    0.8450 C   0  0  0  0  0  0  0  0  0  0  0  0
   -1.4300    0.5490    0.7740 O   0  0  0  0  0  0  0  0  0  0  0  0
   -2.3110    1.0790    2.0780 P   0  0  0  0  0  0  0  0  0  0  0  0
   -1.5540    1.6410    3.4250 O   0  0  0  0  0  0  0  0  0  0  0  0
   -2.4120   -0.3350    2.6340 O   0  0  0  0  0  0  0  0  0  0  0  0
   -3.9360    1.2630    1.9840 O   0  0  0  0  0  0  0  0  0  0  0  0
   -4.7430    0.8370    0.6850 P   0  0  0  0  0  0  0  0  0  0  0  0
   -3.6940   -0.1140    0.1450 O   0  0  0  0  0  0  0  0  0  0  0  0
   -4.9310    1.7730   -0.6560 O   0  0  0  0  0  0  0  0  0  0  0  0
   -5.8530   -0.5470    0.7840 N   0  0  0  0  0  0  0  0  0  0  0  0
   -6.8760   -0.7890   -0.4530 P   0  0  0  0  0  0  0  0  0  0  0  0
   -8.5580   -0.8470   -0.2280 O   0  0  0  0  0  0  0  0  0  0  0  0
   -6.3660   -0.7840   -2.0590 O   0  0  0  0  0  0  0  0  0  0  0  0
   -6.8430   -2.3240   -0.4740 O   0  0  0  0  0  0  0  0  0  0  0  0
    0.7630   -0.9080   -0.2870 C   0  0  1  0  0  0  0  0  0  0  0  0
    0.5250   -1.4670   -1.5610 O   0  0  0  0  0  0  0  0  0  0  0  0
    2.2470   -1.1300   -0.0200 C   0  0  1  0  0  0  0  0  0  0  0  0
    2.6890   -2.3120   -0.5860 O   0  0  0  0  0  0  0  0  0  0  0  0
  1  2  1  0
  2  3  2  0
  2  7  1  0
  3  4  1  0
  4  5  2  0
  5  6  1  0
  6  7  2  0
  6 10  1  0
  7  8  1  0
  8  9  2  0
  9 10  1  0
 11 10  1  1
 11 12  1  0
 11 30  1  0
 12 13  1  0
 13 14  1  1
 13 28  1  0
 14 15  1  0
 15 16  1  0
 16 17  1  0
 16 18  1  0
 16 19  1  0
 19 20  1  0
 20 21  1  0
 20 22  1  0
 20 23  1  0
 23 24  1  0
 24 25  1  0
 24 26  1  0
 24 27  1  0
 28 29  1  6
 28 30  1  0
 30 31  1  6
M  END
