
     RDKit          3D

 31 32  0  0  0  0  0  0  0  0999 V2000
   -7.7320    2.4830   -1.7670 N   0  0  0  0  0  0  0  0  0  0  0  0
   -7.1540    1.7830   -0.6640 C   0  0  0  0  0  0  0  0  0  0  0  0
   -7.7990    1.7490    0.4160 O   0  0  0  0  0  0  0  0  0  0  0  0
   -5.9260    1.1490   -0.7330 O   0  0  0  0  0  0  0  0  0  0  0  0
   -5.4180    0.4810    0.3880 C   0  0  0  0  0  0  0  0  0  0  0  0
   -6.0430    0.4190    1.5140 N   0  0  0  0  0  0  0  0  0  0  0  0
   -5.3560   -0.2790    2.4490 O   0  0  0  0  0  0  0  0  0  0  0  0
   -4.0710   -0.6110    1.9620 C   0  0  0  0  0  0  0  0  0  0  0  0
   -4.1280   -0.2500    0.4960 C   0  0  2  0  0  0  0  0  0  0  0  0
   -3.0130    0.5380    0.0710 N   0  0  0  0  0  0  0  0  0  0  0  0
   -2.6380    1.7410    0.6440 N   0  0  0  0  0  0  0  0  0  0  0  0
   -1.5560    1.9380    1.2990 C   0  0  0  0  0  0  0  0  0  0  0  0
   -0.5820    0.9410    1.5300 N   0  0  0  0  0  0  0  0  0  0  0  0
   -0.7260   -0.3070    1.0670 O   0  0  0  0  0  0  0  0  0  0  0  0
    0.3600   -0.6910    0.4270 O   0  0  0  0  0  0  0  0  0  0  0  0
    1.4610   -0.3130    1.0100 O   0  0  0  0  0  0  0  0  0  0  0  0
    2.4510    0.0230    0.2150 N   0  0  0  0  0  0  0  0  0  0  0  0
    2.5920    1.3480   -0.1820 C   0  0  0  0  0  0  0  0  0  0  0  0
    3.9190    1.9620    0.1590 C   0  0  0  0  0  0  0  0  0  0  0  0
    4.7500    1.1840    0.9760 O   0  0  0  0  0  0  0  0  0  0  0  0
    4.5560   -0.1670    1.1600 C   0  0  0  0  0  0  0  0  0  0  0  0
    5.1500   -0.7790    2.0520 O   0  0  0  0  0  0  0  0  0  0  0  0
    3.6070   -0.8190    0.2370 C   0  0  2  0  0  0  0  0  0  0  0  0
    4.1180   -0.9710   -1.1710 C   0  0  0  0  0  0  0  0  0  0  0  0
    5.3310   -1.8320   -1.2870 C   0  0  0  0  0  0  0  0  0  0  0  0
    6.7830   -1.1770   -0.3430 P   0  0  0  0  0  0  0  0  0  0  0  0
    7.9930   -2.4470   -0.3090 O   0  0  0  0  0  0  0  0  0  0  0  0
    7.4150    0.2630   -1.0580 O   0  0  0  0  0  0  0  0  0  0  0  0
   -4.1880   -1.8540   -0.4520 P   0  0  0  0  0  0  0  0  0  0  0  0
   -2.9400   -2.8840    0.1870 O   0  0  0  0  0  0  0  0  0  0  0  0
   -5.7060   -2.6460   -0.2230 O   0  0  0  0  0  0  0  0  0  0  0  0
  1  2  1  0
  2  3  2  0
  2  4  1  0
  4  5  1  0
  5  6  2  0
  5  9  1  0
  6  7  1  0
  7  8  1  0
  8  9  1  0
  9 10  1  6
  9 29  1  0
 10 11  1  0
 11 12  2  3
 12 13  1  0
 13 14  1  0
 14 15  1  0
 15 16  1  0
 16 17  1  0
 17 18  1  0
 17 23  1  0
 18 19  1  0
 19 20  1  0
 20 21  1  0
 21 22  2  0
 21 23  1  0
 23 24  1  6
 24 25  1  0
 25 26  1  0
 26 27  1  0
 26 28  1  0
 29 30  1  0
 29 31  1  0
M  END
