
     RDKit          3D

 31 32  0  0  0  0  0  0  0  0999 V2000
   -8.3230    3.1990   -0.2990 O   0  0  0  0  0  0  0  0  0  0  0  0
   -8.4310    1.9560   -0.0160 C   0  0  0  0  0  0  0  0  0  0  0  0
   -7.2780    1.1330    0.1230 N   0  0  0  0  0  0  0  0  0  0  0  0
   -5.9680    1.7490   -0.0670 C   0  0  2  0  0  0  0  0  0  0  0  0
   -5.8430    2.6740    0.9650 O   0  0  0  0  0  0  0  0  0  0  0  0
   -5.9420    2.3200   -1.3110 O   0  0  0  0  0  0  0  0  0  0  0  0
   -4.8830    0.6950    0.1170 C   0  0  0  0  0  0  0  0  0  0  0  0
   -5.2450   -0.4340    0.5200 N   0  0  0  0  0  0  0  0  0  0  0  0
   -4.4910   -1.6040    0.7820 N   0  0  0  0  0  0  0  0  0  0  0  0
   -3.8720   -2.3040   -0.1590 N   0  0  0  0  0  0  0  0  0  0  0  0
   -2.8980   -2.8960   -0.5920 C   0  0  0  0  0  0  0  0  0  0  0  0
   -2.5930   -3.6030   -1.8010 O   0  0  0  0  0  0  0  0  0  0  0  0
   -1.2400   -3.2790   -2.1240 C   0  0  0  0  0  0  0  0  0  0  0  0
   -0.6080   -3.0870   -0.7850 C   0  0  2  0  0  0  0  0  0  0  0  0
   -1.7030   -3.0210    0.1070 O   0  0  0  0  0  0  0  0  0  0  0  0
    0.1880   -1.9400   -0.6860 O   0  0  0  0  0  0  0  0  0  0  0  0
   -0.4470   -0.8900    0.5700 P   0  0  0  0  0  0  0  0  0  0  0  0
    0.9410   -0.0280    1.2790 N   0  0  0  0  0  0  0  0  0  0  0  0
    2.1700    0.2160    0.6220 C   0  0  0  0  0  0  0  0  0  0  0  0
    2.2820   -0.2040   -0.5430 O   0  0  0  0  0  0  0  0  0  0  0  0
    3.2470    0.8980    1.2180 N   0  0  0  0  0  0  0  0  0  0  0  0
    4.5220    1.1650    0.5800 C   0  0  0  0  0  0  0  0  0  0  0  0
    5.1560   -0.1490    0.2150 C   0  0  0  0  0  0  0  0  0  0  0  0
    6.3720    0.0240   -0.3960 O   0  0  0  0  0  0  0  0  0  0  0  0
    7.3160    0.6720    0.3760 C   0  0  0  0  0  0  0  0  0  0  0  0
    8.8770    0.7620   -0.6760 P   0  0  0  0  0  0  0  0  0  0  0  0
    8.5660    2.0010   -1.8670 O   0  0  0  0  0  0  0  0  0  0  0  0
    9.1190   -0.7540   -1.4650 O   0  0  0  0  0  0  0  0  0  0  0  0
   -1.4630    0.2580   -0.2320 O   0  0  0  0  0  0  0  0  0  0  0  0
   -2.4480    0.7630    0.6420 C   0  0  0  0  0  0  0  0  0  0  0  0
   -3.5770    1.0050   -0.1540 O   0  0  0  0  0  0  0  0  0  0  0  0
  1  2  2  0
  2  3  1  0
  3  4  1  0
  4  5  1  1
  4  6  1  0
  4  7  1  0
  7  8  2  0
  7 31  1  0
  8  9  1  0
  9 10  1  0
 10 11  2  0
 11 12  1  0
 11 15  1  0
 12 13  1  0
 14 13  1  6
 14 15  1  0
 14 16  1  0
 16 17  1  0
 17 18  1  0
 17 29  1  0
 18 19  1  0
 19 20  2  0
 19 21  1  0
 21 22  1  0
 22 23  1  0
 23 24  1  0
 24 25  1  0
 25 26  1  0
 26 27  1  0
 26 28  1  0
 29 30  1  0
 30 31  1  0
M  END
