
     RDKit          3D

 30 32  0  0  0  0  0  0  0  0999 V2000
   -4.4450    1.5200   -0.5070 O   0  0  0  0  0  0  0  0  0  0  0  0
   -3.8190    0.5770    0.0190 C   0  0  0  0  0  0  0  0  0  0  0  0
   -2.6260    0.6640    0.8650 C   0  0  0  0  0  0  0  0  0  0  0  0
   -1.6530    1.7740    0.8620 C   0  0  1  0  0  0  0  0  0  0  0  0
   -1.8160    2.7770    1.7960 O   0  0  0  0  0  0  0  0  0  0  0  0
   -1.8740    4.1380    1.4610 C   0  0  0  0  0  0  0  0  0  0  0  0
   -1.7680    4.4040    0.2380 O   0  0  0  0  0  0  0  0  0  0  0  0
   -2.0390    5.1120    2.4440 O   0  0  0  0  0  0  0  0  0  0  0  0
   -0.2770    1.0570    1.0440 C   0  0  0  0  0  0  0  0  0  0  0  0
    0.6470    1.8180    1.2790 O   0  0  0  0  0  0  0  0  0  0  0  0
   -0.1740   -0.3810    0.9260 N   0  0  0  0  0  0  0  0  0  0  0  0
   -0.9430   -1.3480    1.4390 C   0  0  0  0  0  0  0  0  0  0  0  0
   -0.6230   -2.4820    0.7120 C   0  0  0  0  0  0  0  0  0  0  0  0
    0.3360   -2.2140   -0.1910 N   0  0  0  0  0  0  0  0  0  0  0  0
    0.6280   -0.9110   -0.0700 C   0  0  0  0  0  0  0  0  0  0  0  0
    1.6920   -0.2270   -0.8840 C   0  0  2  0  0  0  0  0  0  0  0  0
    1.5670   -0.5700   -2.2840 N   0  0  0  0  0  0  0  0  0  0  0  0
    2.1720   -1.8490   -2.4190 C   0  0  0  0  0  0  0  0  0  0  0  0
    1.9230   -2.7640   -3.2560 O   0  0  0  0  0  0  0  0  0  0  0  0
    3.1780   -1.9730   -1.4010 N   0  0  0  0  0  0  0  0  0  0  0  0
    3.0170   -0.8550   -0.4920 C   0  0  1  0  0  0  0  0  0  0  0  0
    4.1580    0.1320   -0.6220 C   0  0  0  0  0  0  0  0  0  0  0  0
    3.9660    1.1890    0.2650 O   0  0  0  0  0  0  0  0  0  0  0  0
    4.9150    2.0690    0.2000 O   0  0  0  0  0  0  0  0  0  0  0  0
    6.0770    1.6170    0.6150 O   0  0  0  0  0  0  0  0  0  0  0  0
   -1.2430   -3.7590    0.8610 O   0  0  0  0  0  0  0  0  0  0  0  0
   -2.5740   -3.8080    0.3640 O   0  0  0  0  0  0  0  0  0  0  0  0
   -3.1650   -2.6650    0.7190 O   0  0  0  0  0  0  0  0  0  0  0  0
   -3.5020   -1.9370   -0.4070 C   0  0  0  0  0  0  0  0  0  0  0  0
   -4.3060   -0.7630   -0.2180 N   0  0  0  0  0  0  0  0  0  0  0  0
  1  2  2  0
  2  3  1  0
  2 30  1  0
  3  4  1  0
  4  5  1  1
  4  9  1  0
  5  6  1  0
  6  7  2  0
  6  8  1  0
  9 10  2  0
  9 11  1  0
 11 12  1  0
 11 15  1  0
 12 13  2  0
 13 14  1  0
 13 26  1  0
 14 15  2  0
 16 15  1  1
 16 17  1  0
 16 21  1  0
 17 18  1  0
 18 19  2  0
 18 20  1  0
 20 21  1  0
 21 22  1  6
 22 23  1  0
 23 24  1  0
 24 25  1  0
 26 27  1  0
 27 28  1  0
 28 29  1  0
 29 30  1  0
M  END
