
     RDKit          3D

 28 29  0  0  0  0  0  0  0  0999 V2000
   -4.2590   -3.0240   -3.1940 C   0  0  0  0  0  0  0  0  0  0  0  0
   -4.3750   -2.2950   -2.1100 C   0  0  0  0  0  0  0  0  0  0  0  0
   -3.2710   -1.5390   -1.5700 C   0  0  0  0  0  0  0  0  0  0  0  0
   -3.3570   -0.7620   -0.4330 C   0  0  0  0  0  0  0  0  0  0  0  0
   -2.1880   -0.0930   -0.0470 C   0  0  0  0  0  0  0  0  0  0  0  0
   -1.7460    0.7020    0.8650 C   0  0  0  0  0  0  0  0  0  0  0  0
   -2.4110    1.2840    2.0030 C   0  0  0  0  0  0  0  0  0  0  0  0
   -3.7450    1.0000    2.2370 F   0  0  0  0  0  0  0  0  0  0  0  0
   -1.9350    2.0940    2.9180 C   0  0  0  0  0  0  0  0  0  0  0  0
   -0.7090    2.5690    3.0030 F   0  0  0  0  0  0  0  0  0  0  0  0
   -2.8690    2.5660    4.0280 C   0  0  0  0  0  0  0  0  0  0  0  0
   -2.3360    2.1510    5.2480 O   0  0  0  0  0  0  0  0  0  0  0  0
   -0.2770    1.0570    0.6650 C   0  0  0  0  0  0  0  0  0  0  0  0
    0.5460    1.8130    1.3400 N   0  0  0  0  0  0  0  0  0  0  0  0
    1.7460    1.7930    0.7390 C   0  0  0  0  0  0  0  0  0  0  0  0
    1.6280    0.9730   -0.3610 C   0  0  0  0  0  0  0  0  0  0  0  0
    2.6720    0.6460   -1.3200 C   0  0  0  0  0  0  0  0  0  0  0  0
    2.4560   -0.1250   -2.3050 O   0  0  0  0  0  0  0  0  0  0  0  0
    3.9870    1.1650   -1.2140 N   0  0  0  0  0  0  0  0  0  0  0  0
    4.9990    0.8310   -2.1670 C   0  0  0  0  0  0  0  0  0  0  0  0
    5.2950   -0.6470   -2.2460 C   0  0  0  0  0  0  0  0  0  0  0  0
    5.8770   -1.3490   -0.6560 P   0  0  0  0  0  0  0  0  0  0  0  0
    5.0490   -2.7670   -0.1780 O   0  0  0  0  0  0  0  0  0  0  0  0
    7.5860   -1.4810   -0.5820 O   0  0  0  0  0  0  0  0  0  0  0  0
    0.4020    0.5570   -0.3640 O   0  0  0  0  0  0  0  0  0  0  0  0
   -4.6630   -0.7860    0.1550 C   0  0  0  0  0  0  0  0  0  0  0  0
   -5.7250   -1.4730   -0.3080 C   0  0  0  0  0  0  0  0  0  0  0  0
   -5.5860   -2.2340   -1.4480 O   0  0  0  0  0  0  0  0  0  0  0  0
  1  2  2  0
  2  3  1  0
  2 28  1  0
  3  4  2  0
  4  5  1  0
  4 26  1  0
  5  6  2  3
  6  7  1  0
  6 13  1  0
  7  8  1  0
  7  9  2  3
  9 10  1  0
  9 11  1  0
 11 12  1  0
 13 14  2  0
 13 25  1  0
 14 15  1  0
 15 16  2  0
 16 17  1  0
 16 25  1  0
 17 18  2  0
 17 19  1  0
 19 20  1  0
 20 21  1  0
 21 22  1  0
 22 23  1  0
 22 24  1  0
 26 27  2  0
 27 28  1  0
M  END
