
     RDKit          3D

 31 33  0  0  0  0  0  0  0  0999 V2000
   -3.2010   -3.8050    1.7400 O   0  0  0  0  0  0  0  0  0  0  0  0
   -1.9940   -3.4720    1.7870 C   0  0  0  0  0  0  0  0  0  0  0  0
   -1.0490   -4.3110    2.3600 O   0  0  0  0  0  0  0  0  0  0  0  0
   -1.6500   -2.2240    1.2380 O   0  0  0  0  0  0  0  0  0  0  0  0
   -2.6160   -1.4040    0.6710 C   0  0  0  0  0  0  0  0  0  0  0  0
   -3.8470   -1.7430    0.6220 N   0  0  0  0  0  0  0  0  0  0  0  0
   -4.8140   -0.8700    0.0290 C   0  0  0  0  0  0  0  0  0  0  0  0
   -6.0270   -1.2040   -0.0180 O   0  0  0  0  0  0  0  0  0  0  0  0
   -4.4420    0.4210   -0.5360 C   0  0  0  0  0  0  0  0  0  0  0  0
   -5.4460    1.2930   -1.1350 C   0  0  0  0  0  0  0  0  0  0  0  0
   -6.6380    0.9140   -1.1570 O   0  0  0  0  0  0  0  0  0  0  0  0
   -5.1520    2.5200   -1.6830 O   0  0  0  0  0  0  0  0  0  0  0  0
   -6.0580    3.3300   -2.2350 O   0  0  0  0  0  0  0  0  0  0  0  0
   -7.2710    3.1020   -1.8250 O   0  0  0  0  0  0  0  0  0  0  0  0
   -8.0690    3.2570   -2.8850 O   0  0  0  0  0  0  0  0  0  0  0  0
   -3.1950    0.7480   -0.4800 N   0  0  0  0  0  0  0  0  0  0  0  0
   -2.2350   -0.1000    0.1010 C   0  0  0  0  0  0  0  0  0  0  0  0
   -0.9560    0.2400    0.1570 C   0  0  0  0  0  0  0  0  0  0  0  0
    0.1180   -0.4690    0.6890 N   0  0  0  0  0  0  0  0  0  0  0  0
    1.2460    0.1900    0.5620 C   0  0  0  0  0  0  0  0  0  0  0  0
    2.5270   -0.3250    1.0360 C   0  0  0  0  0  0  0  0  0  0  0  0
    2.5390   -1.4590    1.5970 O   0  0  0  0  0  0  0  0  0  0  0  0
    3.7600    0.3390    0.9210 N   0  0  0  0  0  0  0  0  0  0  0  0
    4.9230   -0.3600    1.4800 C   0  0  0  0  0  0  0  0  0  0  0  0
    5.6450   -1.1820    0.4550 C   0  0  0  0  0  0  0  0  0  0  0  0
    5.3320   -0.7100   -0.8120 O   0  0  0  0  0  0  0  0  0  0  0  0
    5.6200    0.6510   -0.8570 C   0  0  0  0  0  0  0  0  0  0  0  0
    4.3560    1.4730   -0.9110 C   0  0  0  0  0  0  0  0  0  0  0  0
    3.7340    1.5270    0.3160 O   0  0  0  0  0  0  0  0  0  0  0  0
    0.9320    1.4090   -0.0860 N   0  0  0  0  0  0  0  0  0  0  0  0
   -0.4340    1.4250   -0.3310 O   0  0  0  0  0  0  0  0  0  0  0  0
  1  2  2  0
  2  3  1  0
  2  4  1  0
  4  5  1  0
  5  6  2  0
  5 17  1  0
  6  7  1  0
  7  8  2  0
  7  9  1  0
  9 10  1  0
  9 16  2  0
 10 11  2  0
 10 12  1  0
 12 13  1  0
 13 14  1  0
 14 15  1  0
 16 17  1  0
 17 18  2  3
 18 19  1  0
 18 31  1  0
 19 20  2  0
 20 21  1  0
 20 30  1  0
 21 22  2  0
 21 23  1  0
 23 24  1  0
 23 29  1  0
 24 25  1  0
 25 26  1  0
 26 27  1  0
 27 28  1  0
 28 29  1  0
 30 31  1  0
M  END
