
     RDKit          3D

 29 30  0  0  0  0  0  0  0  0999 V2000
   -5.1660   -2.8720    1.9230 N   0  0  0  0  0  0  0  0  0  0  0  0
   -4.3580   -2.3160    0.8810 C   0  0  0  0  0  0  0  0  0  0  0  0
   -3.7730   -3.1560    0.1400 O   0  0  0  0  0  0  0  0  0  0  0  0
   -4.2400   -0.8450    0.7140 C   0  0  2  0  0  0  0  0  0  0  0  0
   -5.3560   -0.2990   -0.1460 C   0  0  0  0  0  0  0  0  0  0  0  0
   -5.1550    1.2110   -0.2320 C   0  0  0  0  0  0  0  0  0  0  0  0
   -6.2090    1.8370   -1.0170 C   0  0  0  0  0  0  0  0  0  0  0  0
   -6.2610    3.0840   -1.1960 O   0  0  0  0  0  0  0  0  0  0  0  0
   -7.2060    1.0780   -1.5970 O   0  0  0  0  0  0  0  0  0  0  0  0
   -2.9190   -0.5340    0.3880 N   0  0  0  0  0  0  0  0  0  0  0  0
   -2.2080   -0.3090   -0.8000 C   0  0  0  0  0  0  0  0  0  0  0  0
   -2.7300   -0.3930   -1.8680 O   0  0  0  0  0  0  0  0  0  0  0  0
   -0.7640    0.0430   -0.6430 C   0  0  0  0  0  0  0  0  0  0  0  0
   -0.5030    1.1010    0.2520 C   0  0  0  0  0  0  0  0  0  0  0  0
    0.7480    1.4330    0.6290 C   0  0  0  0  0  0  0  0  0  0  0  0
    1.7830    0.6820    0.1010 C   0  0  0  0  0  0  0  0  0  0  0  0
    3.0640    0.9410    0.5330 C   0  0  0  0  0  0  0  0  0  0  0  0
    4.1670    0.2190    0.1470 C   0  0  0  0  0  0  0  0  0  0  0  0
    5.4680    0.5610    0.7560 C   0  0  1  0  0  0  0  0  0  0  0  0
    5.3120    1.8370    1.3150 F   0  0  0  0  0  0  0  0  0  0  0  0
    5.4680   -0.2660    1.9350 F   0  0  0  0  0  0  0  0  0  0  0  0
    6.9130    0.2300   -0.0790 P   0  0  0  0  0  0  0  0  0  0  0  0
    7.6600    1.5300    0.1440 O   0  0  0  0  0  0  0  0  0  0  0  0
    7.0610    0.3320   -1.7180 O   0  0  0  0  0  0  0  0  0  0  0  0
    8.1770   -0.5570    0.7510 O   0  0  0  0  0  0  0  0  0  0  0  0
    3.9420   -0.8100   -0.7380 C   0  0  0  0  0  0  0  0  0  0  0  0
    2.6640   -1.1200   -1.2120 C   0  0  0  0  0  0  0  0  0  0  0  0
    1.5910   -0.3620   -0.7780 C   0  0  0  0  0  0  0  0  0  0  0  0
    0.2810   -0.6530   -1.1350 C   0  0  0  0  0  0  0  0  0  0  0  0
  1  2  1  0
  2  3  2  0
  2  4  1  0
  4  5  1  6
  4 10  1  0
  5  6  1  0
  6  7  1  0
  7  8  2  0
  7  9  1  0
 10 11  1  0
 11 12  2  0
 11 13  1  0
 13 14  2  0
 13 29  1  0
 14 15  1  0
 15 16  2  0
 16 17  1  0
 16 28  1  0
 17 18  2  0
 18 19  1  0
 18 26  1  0
 19 20  1  1
 19 21  1  0
 19 22  1  0
 22 23  1  0
 22 24  1  0
 22 25  1  0
 26 27  2  0
 27 28  1  0
 28 29  2  0
M  END
