
     RDKit          3D

 20 21  0  0  0  0  0  0  0  0999 V2000
    6.0170   -0.6420    0.2630 O   0  0  0  0  0  0  0  0  0  0  0  0
    5.0390   -0.0130   -0.2480 C   0  0  0  0  0  0  0  0  0  0  0  0
    5.3670    0.9760   -1.1910 O   0  0  0  0  0  0  0  0  0  0  0  0
    3.6510   -0.2790    0.0890 C   0  0  0  0  0  0  0  0  0  0  0  0
    3.2740   -1.2370    0.9960 C   0  0  0  0  0  0  0  0  0  0  0  0
    1.9110   -1.4260    1.3000 C   0  0  0  0  0  0  0  0  0  0  0  0
    0.9510   -0.6350    0.6700 C   0  0  0  0  0  0  0  0  0  0  0  0
   -0.3930   -0.7250    0.9690 C   0  0  0  0  0  0  0  0  0  0  0  0
   -1.3740    0.0890    0.3950 C   0  0  0  0  0  0  0  0  0  0  0  0
   -2.7800    0.0080    0.7970 C   0  0  1  0  0  0  0  0  0  0  0  0
   -2.8530   -1.0840    1.6800 F   0  0  0  0  0  0  0  0  0  0  0  0
   -2.9190    1.1010    1.7150 F   0  0  0  0  0  0  0  0  0  0  0  0
   -3.9760   -0.2370   -0.3780 P   0  0  0  0  0  0  0  0  0  0  0  0
   -4.9610    0.9060   -0.0060 O   0  0  0  0  0  0  0  0  0  0  0  0
   -3.9420    0.3700   -1.9060 O   0  0  0  0  0  0  0  0  0  0  0  0
   -3.4090   -1.5510   -0.9450 O   0  0  0  0  0  0  0  0  0  0  0  0
   -0.9870    1.0490   -0.5360 C   0  0  0  0  0  0  0  0  0  0  0  0
    0.3560    1.1450   -0.8330 C   0  0  0  0  0  0  0  0  0  0  0  0
    1.3040    0.3280   -0.2460 C   0  0  0  0  0  0  0  0  0  0  0  0
    2.6460    0.4730   -0.5060 C   0  0  0  0  0  0  0  0  0  0  0  0
  1  2  2  0
  2  3  1  0
  2  4  1  0
  4  5  2  0
  4 20  1  0
  5  6  1  0
  6  7  2  0
  7  8  1  0
  7 19  1  0
  8  9  2  0
  9 10  1  0
  9 17  1  0
 10 11  1  1
 10 12  1  0
 10 13  1  0
 13 14  1  0
 13 15  1  0
 13 16  1  0
 17 18  2  0
 18 19  1  0
 19 20  2  0
M  END
