
     RDKit          3D

 26 26  0  0  0  0  0  0  0  0999 V2000
   -2.5990   -2.6260   -1.2800 C   0  0  0  0  0  0  0  0  0  0  0  0
   -1.4970   -2.7700   -0.2990 C   0  0  0  0  0  0  0  0  0  0  0  0
   -0.9210   -4.1020   -0.0260 C   0  0  0  0  0  0  0  0  0  0  0  0
   -1.0380   -1.7400    0.3170 N   0  0  0  0  0  0  0  0  0  0  0  0
   -1.5120   -0.4500    0.1300 N   0  0  0  0  0  0  0  0  0  0  0  0
   -2.6110    0.0630    0.7070 O   0  0  0  0  0  0  0  0  0  0  0  0
   -3.1510    0.9240   -0.2230 C   0  0  0  0  0  0  0  0  0  0  0  0
   -2.0190    1.3430   -1.0070 N   0  0  0  0  0  0  0  0  0  0  0  0
   -1.8000    2.7420   -0.8140 C   0  0  0  0  0  0  0  0  0  0  0  0
   -2.9890    3.4280   -1.2390 O   0  0  0  0  0  0  0  0  0  0  0  0
   -3.0420    4.8160   -1.1560 C   0  0  0  0  0  0  0  0  0  0  0  0
   -2.0260    5.3990   -0.7040 O   0  0  0  0  0  0  0  0  0  0  0  0
   -4.1790    5.5290   -1.5590 O   0  0  0  0  0  0  0  0  0  0  0  0
   -0.9570    0.5320   -0.6670 N   0  0  0  0  0  0  0  0  0  0  0  0
    0.0890    1.2760    0.0100 C   0  0  0  0  0  0  0  0  0  0  0  0
    1.2440    0.3400    0.3600 C   0  0  2  0  0  0  0  0  0  0  0  0
    2.2400    1.0680    1.0090 O   0  0  0  0  0  0  0  0  0  0  0  0
    2.4120    0.6650    2.3050 C   0  0  0  0  0  0  0  0  0  0  0  0
    2.7830   -0.6230    2.5320 O   0  0  0  0  0  0  0  0  0  0  0  0
    3.9750   -1.0420    2.0130 C   0  0  0  0  0  0  0  0  0  0  0  0
    4.1240   -2.5190    2.4090 C   0  0  0  0  0  0  0  0  0  0  0  0
    2.8070   -3.5000    1.7650 Cl  0  0  0  0  0  0  0  0  0  0  0  0
    1.9540   -0.4390   -1.1420 P   0  0  0  0  0  0  0  0  0  0  0  0
    1.6590   -2.1200   -1.2650 O   0  0  0  0  0  0  0  0  0  0  0  0
    1.6630    0.4340   -2.5850 O   0  0  0  0  0  0  0  0  0  0  0  0
    2.5110    1.4350   -2.6580 O   0  0  0  0  0  0  0  0  0  0  0  0
  1  2  1  0
  2  3  1  0
  2  4  2  3
  4  5  1  0
  5  6  1  0
  5 14  1  0
  6  7  1  0
  7  8  1  0
  8  9  1  0
  8 14  1  0
  9 10  1  0
 10 11  1  0
 11 12  2  0
 11 13  1  0
 14 15  1  0
 16 15  1  6
 16 17  1  0
 16 23  1  0
 17 18  1  0
 18 19  1  0
 19 20  1  0
 20 21  1  0
 21 22  1  0
 23 24  1  0
 23 25  1  0
 25 26  1  0
M  END
