
     RDKit          3D

 17 16  0  0  0  0  0  0  0  0999 V2000
   -4.5590   -2.1340    0.7830 C   0  0  0  0  0  0  0  0  0  0  0  0
   -3.5130   -1.3000    0.1820 C   0  0  0  0  0  0  0  0  0  0  0  0
   -2.6150   -0.6160    1.1460 C   0  0  0  0  0  0  0  0  0  0  0  0
   -2.9200   -0.7520    2.3620 O   0  0  0  0  0  0  0  0  0  0  0  0
   -1.2810    0.3360    0.5710 P   0  0  0  0  0  0  0  0  0  0  0  0
   -0.0550   -0.5770   -0.2280 O   0  0  0  0  0  0  0  0  0  0  0  0
    0.5880    0.3960   -1.0810 C   0  0  0  0  0  0  0  0  0  0  0  0
    1.9820    0.3770   -0.8770 C   0  0  0  0  0  0  0  0  0  0  0  0
    3.0100   -0.4590   -1.1070 O   0  0  0  0  0  0  0  0  0  0  0  0
    4.1610   -0.2270   -0.2700 C   0  0  0  0  0  0  0  0  0  0  0  0
    4.0740    0.6200    0.6180 O   0  0  0  0  0  0  0  0  0  0  0  0
    5.3640   -0.9800   -0.5330 N   0  0  0  0  0  0  0  0  0  0  0  0
    6.7820   -0.6710    0.5730 P   0  0  0  0  0  0  0  0  0  0  0  0
   -1.8500    1.6670   -0.4110 O   0  0  0  0  0  0  0  0  0  0  0  0
   -2.7310    2.5490    0.2610 C   0  0  0  0  0  0  0  0  0  0  0  0
   -3.0290    2.3480    1.4650 O   0  0  0  0  0  0  0  0  0  0  0  0
   -3.2930    3.6440   -0.3760 O   0  0  0  0  0  0  0  0  0  0  0  0
  1  2  1  0
  2  3  1  0
  3  4  2  0
  3  5  1  0
  5  6  1  0
  5 14  1  0
  6  7  1  0
  7  8  1  0
  8  9  1  0
  9 10  1  0
 10 11  2  0
 10 12  1  0
 12 13  1  0
 14 15  1  0
 15 16  2  0
 15 17  1  0
M  END
