
     RDKit          3D

 26 28  0  0  0  0  0  0  0  0999 V2000
   -3.2700    2.6030   -0.7150 C   0  0  0  0  0  0  0  0  0  0  0  0
   -2.9270    1.2710   -1.3100 C   0  0  1  0  0  0  0  0  0  0  0  0
   -2.2480    0.2890   -0.4330 C   0  0  0  0  0  0  0  0  0  0  0  0
   -0.9870    0.6440    0.1220 N   0  0  0  0  0  0  0  0  0  0  0  0
   -1.1070    1.6440    1.1280 C   0  0  0  0  0  0  0  0  0  0  0  0
   -0.5720    1.0510    2.2940 O   0  0  0  0  0  0  0  0  0  0  0  0
   -0.8710   -0.2290    2.1580 O   0  0  0  0  0  0  0  0  0  0  0  0
   -0.4740   -0.5230    0.8630 C   0  0  1  0  0  0  0  0  0  0  0  0
   -0.9970   -1.6930    0.3320 O   0  0  0  0  0  0  0  0  0  0  0  0
   -0.8230   -2.9860    0.7400 C   0  0  0  0  0  0  0  0  0  0  0  0
   -0.1190   -3.2390    1.7220 O   0  0  0  0  0  0  0  0  0  0  0  0
   -1.4690   -3.9980    0.0060 O   0  0  0  0  0  0  0  0  0  0  0  0
    1.0520   -0.4490    0.8590 C   0  0  2  0  0  0  0  0  0  0  0  0
    1.5910   -0.1260   -0.5210 C   0  0  0  0  0  0  0  0  0  0  0  0
    2.9690   -0.5120   -0.5100 N   0  0  0  0  0  0  0  0  0  0  0  0
    3.9810    0.3870   -0.8750 C   0  0  0  0  0  0  0  0  0  0  0  0
    4.1690    1.6560   -1.2890 N   0  0  0  0  0  0  0  0  0  0  0  0
    5.4480    1.8870   -1.4640 N   0  0  0  0  0  0  0  0  0  0  0  0
    5.7290    0.3040   -0.9910 P   0  0  0  0  0  0  0  0  0  0  0  0
    7.1870   -1.2100   -0.8630 Cl  0  0  0  0  0  0  0  0  0  0  0  0
    3.2650   -1.7590   -0.1360 O   0  0  0  0  0  0  0  0  0  0  0  0
    2.8730   -1.8900    1.1800 C   0  0  0  0  0  0  0  0  0  0  0  0
    1.6390   -1.4570    1.5140 O   0  0  0  0  0  0  0  0  0  0  0  0
   -4.2350    0.6350   -1.7260 C   0  0  0  0  0  0  0  0  0  0  0  0
   -5.3180    1.2370   -1.5380 O   0  0  0  0  0  0  0  0  0  0  0  0
   -4.3020   -0.6110   -2.3190 O   0  0  0  0  0  0  0  0  0  0  0  0
  2  1  1  1
  2  3  1  0
  2 24  1  0
  3  4  1  0
  4  5  1  0
  4  8  1  0
  5  6  1  0
  6  7  1  0
  7  8  1  0
  8  9  1  6
  8 13  1  0
  9 10  1  0
 10 11  2  0
 10 12  1  0
 13 14  1  6
 13 23  1  0
 14 15  1  0
 15 16  1  0
 15 21  1  0
 16 17  2  0
 16 19  1  0
 17 18  1  0
 18 19  1  0
 19 20  1  0
 21 22  1  0
 22 23  1  0
 24 25  2  0
 24 26  1  0
M  END
