
     RDKit          3D

 22 25  0  0  0  0  0  0  0  0999 V2000
    4.6860   -0.9850    2.8570 N   0  0  0  0  0  0  0  0  0  0  0  0
    3.7480   -0.6920    1.8490 C   0  0  0  0  0  0  0  0  0  0  0  0
    2.4200   -0.6410    2.0580 N   0  0  0  0  0  0  0  0  0  0  0  0
    1.5360   -0.3600    1.0870 C   0  0  0  0  0  0  0  0  0  0  0  0
    0.1080   -0.3180    1.3660 C   0  0  0  0  0  0  0  0  0  0  0  0
   -0.3380   -0.5710    2.6440 C   0  0  0  0  0  0  0  0  0  0  0  0
   -1.6910   -0.5450    2.9700 C   0  0  0  0  0  0  0  0  0  0  0  0
   -2.6320   -0.2580    1.9910 C   0  0  0  0  0  0  0  0  0  0  0  0
   -2.1920   -0.0040    0.7110 C   0  0  0  0  0  0  0  0  0  0  0  0
   -3.1580    0.3010   -0.3380 C   0  0  0  0  0  0  0  0  0  0  0  0
   -2.9040    0.5820   -1.6750 C   0  0  0  0  0  0  0  0  0  0  0  0
   -4.1070    0.8110   -2.3100 C   0  0  0  0  0  0  0  0  0  0  0  0
   -5.0860    0.6730   -1.3710 C   0  0  0  0  0  0  0  0  0  0  0  0
   -6.4780    0.8220   -1.5840 N   0  0  0  0  0  0  0  0  0  0  0  0
   -4.4800    0.3690   -0.2090 N   0  0  0  0  0  0  0  0  0  0  0  0
   -0.8300   -0.0330    0.3980 C   0  0  0  0  0  0  0  0  0  0  0  0
    2.0130   -0.1190   -0.1450 N   0  0  0  0  0  0  0  0  0  0  0  0
    3.3500   -0.1650   -0.3770 C   0  0  0  0  0  0  0  0  0  0  0  0
    3.8910    0.1020   -1.7450 C   0  0  2  0  0  0  0  0  0  0  0  0
    5.1040   -0.6420   -2.1550 C   0  0  0  0  0  0  0  0  0  0  0  0
    5.2460    0.8180   -1.7860 C   0  0  0  0  0  0  0  0  0  0  0  0
    4.1930   -0.4480    0.6140 N   0  0  0  0  0  0  0  0  0  0  0  0
  1  2  1  0
  2  3  2  0
  2 22  1  0
  3  4  1  0
  4  5  1  0
  4 17  2  0
  5  6  2  0
  5 16  1  0
  6  7  1  0
  7  8  2  0
  8  9  1  0
  9 10  1  0
  9 16  2  0
 10 11  2  0
 10 15  1  0
 11 12  1  0
 12 13  2  0
 13 14  1  0
 13 15  1  0
 17 18  1  0
 19 18  1  1
 18 22  2  0
 19 20  1  0
 19 21  1  0
 20 21  1  0
M  CHG  1  14   1
M  END
