
     RDKit          3D

 22 25  0  0  0  0  0  0  0  0999 V2000
    5.5270   -0.2220   -1.0270 C   0  0  0  0  0  0  0  0  0  0  0  0
    4.5870   -0.1720   -0.1150 C   0  0  0  0  0  0  0  0  0  0  0  0
    4.7340   -0.4870    1.3300 C   0  0  0  0  0  0  0  0  0  0  0  0
    3.3760   -0.8510    1.6840 N   0  0  0  0  0  0  0  0  0  0  0  0
    2.4730   -0.2110    0.7590 C   0  0  0  0  0  0  0  0  0  0  0  0
    1.1140    0.0270    0.8000 C   0  0  0  0  0  0  0  0  0  0  0  0
    0.4650    0.6800   -0.2500 C   0  0  0  0  0  0  0  0  0  0  0  0
    1.1750    1.1040   -1.3540 C   0  0  0  0  0  0  0  0  0  0  0  0
    0.2530    1.7010   -2.1880 C   0  0  0  0  0  0  0  0  0  0  0  0
   -1.0000    1.6450   -1.6070 C   0  0  0  0  0  0  0  0  0  0  0  0
   -0.8260    1.0170   -0.4300 N   0  0  0  0  0  0  0  0  0  0  0  0
   -1.8660    0.7280    0.5330 C   0  0  0  0  0  0  0  0  0  0  0  0
   -2.0360    1.4840    1.6150 N   0  0  0  0  0  0  0  0  0  0  0  0
   -2.9990    1.2270    2.5180 C   0  0  0  0  0  0  0  0  0  0  0  0
   -3.8150    0.1820    2.3310 N   0  0  0  0  0  0  0  0  0  0  0  0
   -3.6870   -0.6270    1.2380 C   0  0  0  0  0  0  0  0  0  0  0  0
   -4.6130   -1.7340    1.1160 N   0  0  0  0  0  0  0  0  0  0  0  0
   -2.7080   -0.3600    0.3270 C   0  0  0  0  0  0  0  0  0  0  0  0
   -2.4640   -1.1490   -0.8870 C   0  0  0  0  0  0  0  0  0  0  0  0
   -3.3000   -2.2660   -1.1330 N   0  0  0  0  0  0  0  0  0  0  0  0
    2.5310    0.8580   -1.3780 C   0  0  0  0  0  0  0  0  0  0  0  0
    3.1910    0.2080   -0.3400 C   0  0  0  0  0  0  0  0  0  0  0  0
  1  2  2  0
  2  3  1  0
  2 22  1  0
  3  4  1  0
  4  5  1  0
  5  6  2  0
  5 22  1  0
  6  7  1  0
  7  8  2  0
  7 11  1  0
  8  9  1  0
  8 21  1  0
  9 10  2  0
 10 11  1  0
 11 12  1  0
 12 13  2  0
 12 18  1  0
 13 14  1  0
 14 15  2  0
 15 16  1  0
 16 17  1  0
 16 18  2  0
 18 19  1  0
 19 20  1  0
 21 22  2  0
M  CHG  1  20   1
M  END
