
     RDKit          3D

 21 24  0  0  0  0  0  0  0  0999 V2000
   -3.9740   -0.0020    2.6160 N   0  0  0  0  0  0  0  0  0  0  0  0
   -3.0110    0.2760    1.5390 C   0  0  0  0  0  0  0  0  0  0  0  0
   -3.5670   -0.2460    0.2890 C   0  0  0  0  0  0  0  0  0  0  0  0
   -4.7620   -0.8700    0.1740 N   0  0  0  0  0  0  0  0  0  0  0  0
   -4.9750   -1.2110   -1.0740 N   0  0  0  0  0  0  0  0  0  0  0  0
   -3.9110   -0.8100   -1.8050 C   0  0  0  0  0  0  0  0  0  0  0  0
   -3.0020   -0.1950   -0.9620 C   0  0  0  0  0  0  0  0  0  0  0  0
   -1.7240    0.3670   -1.3670 C   0  0  0  0  0  0  0  0  0  0  0  0
   -1.6710    1.2480   -2.4590 C   0  0  0  0  0  0  0  0  0  0  0  0
   -0.4920    1.8000   -2.8940 C   0  0  0  0  0  0  0  0  0  0  0  0
    0.6970    1.5000   -2.2600 C   0  0  0  0  0  0  0  0  0  0  0  0
    0.6950    0.6390   -1.1830 C   0  0  0  0  0  0  0  0  0  0  0  0
    1.8870    0.2920   -0.4900 N   0  0  0  0  0  0  0  0  0  0  0  0
    3.0570   -0.1120   -1.0460 C   0  0  0  0  0  0  0  0  0  0  0  0
    3.9760   -0.3560   -0.0500 C   0  0  0  0  0  0  0  0  0  0  0  0
    3.3330   -0.0880    1.1370 C   0  0  0  0  0  0  0  0  0  0  0  0
    2.0830    0.2970    0.8150 N   0  0  0  0  0  0  0  0  0  0  0  0
    4.2540   -0.3250    2.2760 C   0  0  0  0  0  0  0  0  0  0  0  0
    5.5840   -0.5790    1.6410 C   0  0  0  0  0  0  0  0  0  0  0  0
    5.3040   -0.7670    0.2290 N   0  0  0  0  0  0  0  0  0  0  0  0
   -0.5190    0.0900   -0.7590 C   0  0  0  0  0  0  0  0  0  0  0  0
  1  2  1  0
  2  3  1  0
  3  4  2  0
  3  7  1  0
  4  5  1  0
  5  6  1  0
  6  7  2  0
  7  8  1  0
  8  9  2  0
  8 21  1  0
  9 10  1  0
 10 11  2  0
 11 12  1  0
 12 13  1  0
 12 21  2  0
 13 14  1  0
 13 17  1  0
 14 15  2  0
 15 16  1  0
 15 20  1  0
 16 17  2  0
 16 18  1  0
 18 19  1  0
 19 20  1  0
M  CHG  1   1   1
M  END
