
     RDKit          3D

 22 25  0  0  0  0  0  0  0  0999 V2000
    5.1440   -0.4380    2.2870 N   0  0  0  0  0  0  0  0  0  0  0  0
    5.0710    0.5850    1.3070 C   0  0  0  0  0  0  0  0  0  0  0  0
    5.9700    1.4710    1.2500 N   0  0  0  0  0  0  0  0  0  0  0  0
    3.9350    0.5660    0.3890 C   0  0  0  0  0  0  0  0  0  0  0  0
    3.7550    1.5090   -0.6060 C   0  0  0  0  0  0  0  0  0  0  0  0
    2.6670    1.4520   -1.4490 C   0  0  0  0  0  0  0  0  0  0  0  0
    1.7450    0.4420   -1.2990 C   0  0  0  0  0  0  0  0  0  0  0  0
    0.6040    0.1250   -1.9530 N   0  0  0  0  0  0  0  0  0  0  0  0
    0.0500   -0.9750   -1.4190 C   0  0  0  0  0  0  0  0  0  0  0  0
   -1.2310   -1.5900   -1.9200 C   0  0  0  0  0  0  0  0  0  0  0  0
   -2.4030   -1.0290   -1.2300 C   0  0  0  0  0  0  0  0  0  0  0  0
   -3.0900    0.0490   -1.6420 N   0  0  0  0  0  0  0  0  0  0  0  0
   -4.1000    0.3030   -0.7970 C   0  0  0  0  0  0  0  0  0  0  0  0
   -5.0710    1.2590   -0.7610 C   0  0  0  0  0  0  0  0  0  0  0  0
   -6.0140    1.2910    0.2500 C   0  0  0  0  0  0  0  0  0  0  0  0
   -5.9700    0.3420    1.2340 C   0  0  0  0  0  0  0  0  0  0  0  0
   -4.9800   -0.6170    1.1790 C   0  0  0  0  0  0  0  0  0  0  0  0
   -4.0420   -0.6580    0.1830 C   0  0  0  0  0  0  0  0  0  0  0  0
   -2.9800   -1.4720   -0.1080 N   0  0  0  0  0  0  0  0  0  0  0  0
    0.8260   -1.3760   -0.4220 N   0  0  0  0  0  0  0  0  0  0  0  0
    1.8830   -0.5190   -0.3220 C   0  0  0  0  0  0  0  0  0  0  0  0
    2.9750   -0.4410    0.5050 C   0  0  0  0  0  0  0  0  0  0  0  0
  1  2  1  0
  2  3  2  0
  2  4  1  0
  4  5  2  0
  4 22  1  0
  5  6  1  0
  6  7  2  0
  7  8  1  0
  7 21  1  0
  8  9  2  0
  9 10  1  0
  9 20  1  0
 10 11  1  0
 11 12  2  0
 11 19  1  0
 12 13  1  0
 13 14  2  0
 13 18  1  0
 14 15  1  0
 15 16  2  0
 16 17  1  0
 17 18  2  0
 18 19  1  0
 20 21  1  0
 21 22  2  0
M  CHG  1   3   1
M  END
