
     RDKit          3D

 22 25  0  0  0  0  0  0  0  0999 V2000
    5.5180   -1.8490   -0.0140 N   0  0  0  0  0  0  0  0  0  0  0  0
    5.4800   -0.4340   -0.1370 C   0  0  0  0  0  0  0  0  0  0  0  0
    6.6190    0.3330   -0.2180 C   0  0  0  0  0  0  0  0  0  0  0  0
    6.5890    1.7070   -0.3380 C   0  0  0  0  0  0  0  0  0  0  0  0
    5.3840    2.3060   -0.3750 N   0  0  0  0  0  0  0  0  0  0  0  0
    4.2290    1.6170   -0.3000 C   0  0  0  0  0  0  0  0  0  0  0  0
    3.0270    2.2840   -0.3440 C   0  0  0  0  0  0  0  0  0  0  0  0
    1.8960    1.5730   -0.2670 N   0  0  0  0  0  0  0  0  0  0  0  0
    1.8600    0.2410   -0.1510 C   0  0  0  0  0  0  0  0  0  0  0  0
    0.6320   -0.4710   -0.0730 N   0  0  0  0  0  0  0  0  0  0  0  0
   -0.5920    0.2910   -0.1250 C   0  0  0  0  0  0  0  0  0  0  0  0
   -1.7980   -0.5810   -0.0340 C   0  0  0  0  0  0  0  0  0  0  0  0
   -1.8210   -1.9560    0.0870 C   0  0  0  0  0  0  0  0  0  0  0  0
   -3.1250   -2.3590    0.1380 N   0  0  0  0  0  0  0  0  0  0  0  0
   -3.9380   -1.3130    0.0570 C   0  0  0  0  0  0  0  0  0  0  0  0
   -3.1280   -0.2000   -0.0500 C   0  0  0  0  0  0  0  0  0  0  0  0
   -3.7270    1.1240   -0.1590 C   0  0  0  0  0  0  0  0  0  0  0  0
   -5.0690    1.2720    0.4710 C   0  0  0  0  0  0  0  0  0  0  0  0
   -5.7330    0.0710    0.8240 N   0  0  0  0  0  0  0  0  0  0  0  0
   -5.4080   -1.0790    0.0540 C   0  0  0  0  0  0  0  0  0  0  0  0
    3.0690   -0.4430   -0.1060 C   0  0  0  0  0  0  0  0  0  0  0  0
    4.2690    0.2250   -0.1790 C   0  0  0  0  0  0  0  0  0  0  0  0
  1  2  1  0
  2  3  2  0
  2 22  1  0
  3  4  1  0
  4  5  2  0
  5  6  1  0
  6  7  2  0
  6 22  1  0
  7  8  1  0
  8  9  2  0
  9 10  1  0
  9 21  1  0
 10 11  1  0
 11 12  1  0
 12 13  2  0
 12 16  1  0
 13 14  1  0
 14 15  1  0
 15 16  2  0
 15 20  1  0
 16 17  1  0
 17 18  1  0
 18 19  1  0
 19 20  1  0
 21 22  2  0
M  CHG  1  19   1
M  END
