
     RDKit          3D

 22 25  0  0  0  0  0  0  0  0999 V2000
    5.7570    1.1870   -0.4190 N   0  0  0  0  0  0  0  0  0  0  0  0
    4.9010    0.2120    0.1150 N   0  0  0  0  0  0  0  0  0  0  0  0
    5.2720   -0.9630    0.8190 C   0  0  0  0  0  0  0  0  0  0  0  0
    6.4670   -1.3550    1.0990 N   0  0  0  0  0  0  0  0  0  0  0  0
    4.0370   -1.6700    1.1800 C   0  0  0  0  0  0  0  0  0  0  0  0
    2.9430   -0.8380    0.6460 C   0  0  0  0  0  0  0  0  0  0  0  0
    1.5670   -0.9830    0.6720 C   0  0  0  0  0  0  0  0  0  0  0  0
    0.7820   -0.0330    0.0820 C   0  0  0  0  0  0  0  0  0  0  0  0
   -0.6370   -0.2130    0.1270 N   0  0  0  0  0  0  0  0  0  0  0  0
   -1.5110    0.7580   -0.4790 C   0  0  0  0  0  0  0  0  0  0  0  0
   -2.9290    0.3720   -0.3320 C   0  0  0  0  0  0  0  0  0  0  0  0
   -3.3090   -0.9370   -0.3890 C   0  0  0  0  0  0  0  0  0  0  0  0
   -4.6430   -1.3290   -0.2510 C   0  0  0  0  0  0  0  0  0  0  0  0
   -5.6290   -0.3860   -0.0500 C   0  0  0  0  0  0  0  0  0  0  0  0
   -7.0060   -0.4540    0.1200 C   0  0  0  0  0  0  0  0  0  0  0  0
   -7.3930    0.8260    0.2720 N   0  0  0  0  0  0  0  0  0  0  0  0
   -6.3720    1.6470    0.2080 N   0  0  0  0  0  0  0  0  0  0  0  0
   -5.2290    0.9290    0.0050 C   0  0  0  0  0  0  0  0  0  0  0  0
   -3.9180    1.3310   -0.1290 C   0  0  0  0  0  0  0  0  0  0  0  0
    1.2940    1.0790   -0.5460 C   0  0  0  0  0  0  0  0  0  0  0  0
    2.6650    1.2210   -0.5710 C   0  0  0  0  0  0  0  0  0  0  0  0
    3.4850    0.2580    0.0280 C   0  0  0  0  0  0  0  0  0  0  0  0
  1  2  1  0
  2  3  1  0
  2 22  1  0
  3  4  2  0
  3  5  1  0
  5  6  1  0
  6  7  2  0
  6 22  1  0
  7  8  1  0
  8  9  1  0
  8 20  2  0
  9 10  1  0
 10 11  1  0
 11 12  2  0
 11 19  1  0
 12 13  1  0
 13 14  2  0
 14 15  1  0
 14 18  1  0
 15 16  2  0
 16 17  1  0
 17 18  1  0
 18 19  2  0
 20 21  1  0
 21 22  2  0
M  CHG  1   4   1
M  END
