
     RDKit          3D

 22 25  0  0  0  0  0  0  0  0999 V2000
    4.6080   -3.4180    1.4760 N   0  0  0  0  0  0  0  0  0  0  0  0
    3.8270   -2.3940    0.8830 C   0  0  0  0  0  0  0  0  0  0  0  0
    2.5020   -2.2670    1.1810 N   0  0  0  0  0  0  0  0  0  0  0  0
    1.7310   -1.3110    0.6410 C   0  0  0  0  0  0  0  0  0  0  0  0
    0.3300   -1.2480    1.0130 C   0  0  0  0  0  0  0  0  0  0  0  0
   -0.1820   -2.1590    1.9060 C   0  0  0  0  0  0  0  0  0  0  0  0
   -1.5080   -2.1640    2.3120 C   0  0  0  0  0  0  0  0  0  0  0  0
   -2.3570   -1.1880    1.7780 C   0  0  0  0  0  0  0  0  0  0  0  0
   -1.8720   -0.2620    0.8810 C   0  0  0  0  0  0  0  0  0  0  0  0
   -2.7780    0.7590    0.3290 C   0  0  0  0  0  0  0  0  0  0  0  0
   -2.4620    1.7560   -0.5750 C   0  0  0  0  0  0  0  0  0  0  0  0
   -3.6090    2.4840   -0.8170 C   0  0  0  0  0  0  0  0  0  0  0  0
   -4.6230    1.9330   -0.0640 C   0  0  0  0  0  0  0  0  0  0  0  0
   -6.0010    2.3540    0.0120 N   0  0  0  0  0  0  0  0  0  0  0  0
   -4.0840    0.9030    0.6070 N   0  0  0  0  0  0  0  0  0  0  0  0
   -0.5450   -0.3000    0.5100 C   0  0  0  0  0  0  0  0  0  0  0  0
    2.3100   -0.4670   -0.2190 N   0  0  0  0  0  0  0  0  0  0  0  0
    3.6160   -0.5430   -0.5530 C   0  0  0  0  0  0  0  0  0  0  0  0
    4.2390    0.4060   -1.5100 C   0  0  2  0  0  0  0  0  0  0  0  0
    3.8440    1.8670   -1.4300 C   0  0  0  0  0  0  0  0  0  0  0  0
    3.4450    1.0450   -2.5820 C   0  0  0  0  0  0  0  0  0  0  0  0
    4.3320   -1.5120    0.0160 N   0  0  0  0  0  0  0  0  0  0  0  0
  1  2  1  0
  2  3  2  0
  2 22  1  0
  3  4  1  0
  4  5  1  0
  4 17  2  0
  5  6  2  0
  5 16  1  0
  6  7  1  0
  7  8  2  0
  8  9  1  0
  9 10  1  0
  9 16  2  0
 10 11  2  0
 10 15  1  0
 11 12  1  0
 12 13  2  0
 13 14  1  0
 13 15  1  0
 17 18  1  0
 19 18  1  1
 18 22  2  0
 19 20  1  0
 19 21  1  0
 20 21  1  0
M  CHG  1  14   1
M  END
