
     RDKit          3D

 22 25  0  0  0  0  0  0  0  0999 V2000
    3.4240    1.2900    0.3460 N   0  0  0  0  0  0  0  0  0  0  0  0
    3.2140   -0.1090    0.1850 C   0  0  0  0  0  0  0  0  0  0  0  0
    2.3780   -0.5860   -0.7310 C   0  0  0  0  0  0  0  0  0  0  0  0
    1.6480    0.2390   -1.5970 N   0  0  0  0  0  0  0  0  0  0  0  0
    2.2000    0.8880   -2.6460 C   0  0  0  0  0  0  0  0  0  0  0  0
    1.1940    1.5970   -3.2670 C   0  0  0  0  0  0  0  0  0  0  0  0
    0.0900    1.3480   -2.5740 N   0  0  0  0  0  0  0  0  0  0  0  0
    0.3360    0.5140   -1.5380 C   0  0  0  0  0  0  0  0  0  0  0  0
   -0.6300    0.0280   -0.5730 C   0  0  0  0  0  0  0  0  0  0  0  0
   -0.4090   -0.8010    0.4640 N   0  0  0  0  0  0  0  0  0  0  0  0
   -1.5900   -1.0100    1.1290 C   0  0  0  0  0  0  0  0  0  0  0  0
   -1.9830   -1.7410    2.2350 C   0  0  0  0  0  0  0  0  0  0  0  0
   -3.3310   -1.6950    2.6130 C   0  0  0  0  0  0  0  0  0  0  0  0
   -4.2520   -0.9740    1.9470 N   0  0  0  0  0  0  0  0  0  0  0  0
   -3.8710   -0.2540    0.8600 C   0  0  0  0  0  0  0  0  0  0  0  0
   -2.5700   -0.3010    0.5000 C   0  0  0  0  0  0  0  0  0  0  0  0
   -1.9930    0.3460   -0.5550 C   0  0  0  0  0  0  0  0  0  0  0  0
   -2.8470    1.1890   -1.4080 C   0  0  0  0  0  0  0  0  0  0  0  0
   -4.2840    0.7420   -1.3380 C   0  0  0  0  0  0  0  0  0  0  0  0
   -4.8030    0.5690    0.0640 C   0  0  0  0  0  0  0  0  0  0  0  0
    3.9720   -1.0130    1.0870 C   0  0  0  0  0  0  0  0  0  0  0  0
    5.3920   -0.7830    0.8680 N   0  0  0  0  0  0  0  0  0  0  0  0
  1  2  1  0
  2  3  2  3
  2 21  1  0
  3  4  1  0
  4  5  1  0
  4  8  1  0
  5  6  2  0
  6  7  1  0
  7  8  2  0
  8  9  1  0
  9 10  1  0
  9 17  2  0
 10 11  1  0
 11 12  2  0
 11 16  1  0
 12 13  1  0
 13 14  2  0
 14 15  1  0
 15 16  2  0
 15 20  1  0
 16 17  1  0
 17 18  1  0
 18 19  1  0
 19 20  1  0
 21 22  1  0
M  CHG  1  22   1
M  END
