
     RDKit          3D

 25 27  0  0  0  0  0  0  0  0999 V2000
   -1.0880   -2.0240    1.4250 C   0  0  0  0  0  0  0  0  0  0  0  0
   -1.3280   -0.8800    0.5970 N   0  0  0  0  0  0  0  0  0  0  0  0
   -0.4670   -0.1710   -0.1230 C   0  0  0  0  0  0  0  0  0  0  0  0
    0.9670   -0.3050   -0.3440 C   0  0  0  0  0  0  0  0  0  0  0  0
    1.7290   -1.2240    0.1200 C   0  0  0  0  0  0  0  0  0  0  0  0
    3.1370   -1.4320   -0.0430 C   0  0  0  0  0  0  0  0  0  0  0  0
    3.7560   -2.5410    0.5870 C   0  0  0  0  0  0  0  0  0  0  0  0
    5.1010   -2.7910    0.4650 C   0  0  0  0  0  0  0  0  0  0  0  0
    5.8540   -1.9790   -0.2610 N   0  0  0  0  0  0  0  0  0  0  0  0
    5.3600   -0.9080   -0.8920 C   0  0  0  0  0  0  0  0  0  0  0  0
    6.1580   -0.0330   -1.6710 N   0  0  0  0  0  0  0  0  0  0  0  0
    6.8320    0.9530   -1.1760 C   0  0  0  0  0  0  0  0  0  0  0  0
    6.8550    1.2770    0.2010 N   0  0  0  0  0  0  0  0  0  0  0  0
    3.9800   -0.6450   -0.7720 C   0  0  0  0  0  0  0  0  0  0  0  0
    3.5150    0.4970   -1.4590 N   0  0  0  0  0  0  0  0  0  0  0  0
   -1.2210    0.8290   -0.7210 N   0  0  0  0  0  0  0  0  0  0  0  0
   -2.4940    0.7040   -0.3570 C   0  0  0  0  0  0  0  0  0  0  0  0
   -3.6580    1.4110   -0.6490 C   0  0  0  0  0  0  0  0  0  0  0  0
   -4.8810    1.0600   -0.1260 C   0  0  0  0  0  0  0  0  0  0  0  0
   -6.1170    1.8510   -0.4660 C   0  0  0  0  0  0  0  0  0  0  0  0
   -5.7460    2.9450   -1.3730 N   0  0  0  0  0  0  0  0  0  0  0  0
   -4.9790   -0.0240    0.7160 C   0  0  0  0  0  0  0  0  0  0  0  0
   -6.2450   -0.3830    1.2540 N   0  0  0  0  0  0  0  0  0  0  0  0
   -3.8250   -0.7170    0.9990 C   0  0  0  0  0  0  0  0  0  0  0  0
   -2.6000   -0.3710    0.4800 C   0  0  0  0  0  0  0  0  0  0  0  0
  1  2  1  0
  2  3  1  0
  2 25  1  0
  3  4  1  0
  3 16  2  0
  4  5  2  3
  5  6  1  0
  6  7  2  0
  6 14  1  0
  7  8  1  0
  8  9  2  0
  9 10  1  0
 10 11  1  0
 10 14  2  0
 11 12  2  3
 12 13  1  0
 14 15  1  0
 16 17  1  0
 17 18  2  0
 17 25  1  0
 18 19  1  0
 19 20  1  0
 19 22  2  0
 20 21  1  0
 22 23  1  0
 22 24  1  0
 24 25  2  0
M  CHG  2  13   1  21   1
M  END
