
     RDKit          3D

 25 28  0  0  0  0  0  0  0  0999 V2000
    7.2960   -2.0040    0.3320 N   0  0  0  0  0  0  0  0  0  0  0  0
    6.0540   -1.3190    0.2380 C   0  0  0  0  0  0  0  0  0  0  0  0
    4.8830   -2.0230    0.0240 C   0  0  0  0  0  0  0  0  0  0  0  0
    3.6450   -1.3680   -0.1240 C   0  0  0  0  0  0  0  0  0  0  0  0
    3.5300   -0.0050   -0.0830 C   0  0  0  0  0  0  0  0  0  0  0  0
    2.3130    0.7620   -0.2630 C   0  0  0  0  0  0  0  0  0  0  0  0
    2.5570    2.0100   -0.9680 N   0  0  0  0  0  0  0  0  0  0  0  0
    1.5930    2.8670   -1.2250 C   0  0  0  0  0  0  0  0  0  0  0  0
    1.8180    3.9090   -2.1380 N   0  0  0  0  0  0  0  0  0  0  0  0
    0.3230    2.5290   -0.7610 N   0  0  0  0  0  0  0  0  0  0  0  0
    0.0650    1.3930   -0.1060 C   0  0  0  0  0  0  0  0  0  0  0  0
    1.0720    0.5010    0.1330 C   0  0  0  0  0  0  0  0  0  0  0  0
    0.4720   -0.6080    0.6040 N   0  0  0  0  0  0  0  0  0  0  0  0
   -0.8420   -0.4470    0.6620 C   0  0  0  0  0  0  0  0  0  0  0  0
   -1.8940   -1.3490    0.8720 C   0  0  0  0  0  0  0  0  0  0  0  0
   -3.1830   -0.9580    0.6670 C   0  0  0  0  0  0  0  0  0  0  0  0
   -4.3810   -1.8810    0.7440 C   0  0  0  0  0  0  0  0  0  0  0  0
   -4.1410   -2.8630   -0.3360 N   0  0  0  0  0  0  0  0  0  0  0  0
   -3.4630    0.3450    0.2510 C   0  0  0  0  0  0  0  0  0  0  0  0
   -4.8690    0.6320   -0.0110 C   0  0  0  0  0  0  0  0  0  0  0  0
   -5.4350    1.8240    0.5380 N   0  0  0  0  0  0  0  0  0  0  0  0
   -2.3970    1.1770    0.0490 C   0  0  0  0  0  0  0  0  0  0  0  0
   -1.1060    0.7800    0.2350 N   0  0  0  0  0  0  0  0  0  0  0  0
    4.7670    0.6830    0.1350 C   0  0  0  0  0  0  0  0  0  0  0  0
    5.9710    0.0660    0.2900 C   0  0  0  0  0  0  0  0  0  0  0  0
  1  2  1  0
  2  3  2  0
  2 25  1  0
  3  4  1  0
  4  5  2  0
  5  6  1  0
  5 24  1  0
  6  7  2  0
  6 12  1  0
  7  8  1  0
  8  9  1  0
  8 10  2  0
 10 11  1  0
 11 12  2  0
 11 23  1  0
 12 13  1  0
 13 14  2  0
 14 15  1  0
 14 23  1  0
 15 16  2  0
 16 17  1  0
 16 19  1  0
 17 18  1  0
 19 20  1  0
 19 22  2  0
 20 21  1  0
 22 23  1  0
 24 25  2  0
M  CHG  2  18   1  21   1
M  END
