
     RDKit          3D

 25 28  0  0  0  0  0  0  0  0999 V2000
   -5.4180   -3.1570    0.4950 C   0  0  0  0  0  0  0  0  0  0  0  0
   -4.7770   -1.8260    0.3800 C   0  0  0  0  0  0  0  0  0  0  0  0
   -5.4320   -0.6130    0.3490 C   0  0  0  0  0  0  0  0  0  0  0  0
   -4.4950    0.4090    0.2340 C   0  0  0  0  0  0  0  0  0  0  0  0
   -4.8250    1.8380    0.1830 C   0  0  0  0  0  0  0  0  0  0  0  0
   -6.2870    2.0370    0.2410 N   0  0  0  0  0  0  0  0  0  0  0  0
   -3.2770   -0.1960    0.1960 C   0  0  0  0  0  0  0  0  0  0  0  0
   -1.9490    0.4130    0.0790 C   0  0  0  0  0  0  0  0  0  0  0  0
   -0.7900   -0.2540    0.0490 N   0  0  0  0  0  0  0  0  0  0  0  0
    0.2740    0.5990   -0.0730 C   0  0  0  0  0  0  0  0  0  0  0  0
    1.6720    0.1870   -0.1340 C   0  0  0  0  0  0  0  0  0  0  0  0
    2.7450    0.9230   -0.2500 N   0  0  0  0  0  0  0  0  0  0  0  0
    3.8730    0.1370   -0.2700 C   0  0  0  0  0  0  0  0  0  0  0  0
    5.2160    0.4280   -0.3730 C   0  0  0  0  0  0  0  0  0  0  0  0
    6.1190   -0.6050   -0.3640 C   0  0  0  0  0  0  0  0  0  0  0  0
    7.5880   -0.3960   -0.4700 C   0  0  0  0  0  0  0  0  0  0  0  0
    5.6780   -1.9080   -0.2520 C   0  0  0  0  0  0  0  0  0  0  0  0
    6.6200   -2.9970   -0.2410 N   0  0  0  0  0  0  0  0  0  0  0  0
    4.3550   -2.1280   -0.1540 N   0  0  0  0  0  0  0  0  0  0  0  0
    3.4250   -1.1520   -0.1580 C   0  0  0  0  0  0  0  0  0  0  0  0
    2.0880   -1.1030   -0.0770 N   0  0  0  0  0  0  0  0  0  0  0  0
   -0.2960    1.8440   -0.1180 C   0  0  0  0  0  0  0  0  0  0  0  0
    0.4320    3.1260   -0.2470 C   0  0  0  0  0  0  0  0  0  0  0  0
   -1.6410    1.7130   -0.0250 N   0  0  0  0  0  0  0  0  0  0  0  0
   -3.4800   -1.5460    0.2860 N   0  0  0  0  0  0  0  0  0  0  0  0
  1  2  1  0
  2  3  2  0
  2 25  1  0
  3  4  1  0
  4  5  1  0
  4  7  2  0
  5  6  1  0
  7  8  1  0
  7 25  1  0
  8  9  2  0
  8 24  1  0
  9 10  1  0
 10 11  1  0
 10 22  2  0
 11 12  1  0
 11 21  2  0
 12 13  1  0
 13 14  2  0
 13 20  1  0
 14 15  1  0
 15 16  1  0
 15 17  2  0
 17 18  1  0
 17 19  1  0
 19 20  2  0
 20 21  1  0
 22 23  1  0
 22 24  1  0
M  CHG  2   6   1  21   1
M  END
