
     RDKit          3D

 25 28  0  0  0  0  0  0  0  0999 V2000
   -4.3800   -3.1790    0.3960 C   0  0  0  0  0  0  0  0  0  0  0  0
   -3.2690   -2.2780    0.0350 C   0  0  0  0  0  0  0  0  0  0  0  0
   -1.9240   -2.5070    0.1880 N   0  0  0  0  0  0  0  0  0  0  0  0
   -1.2580   -1.4420   -0.1930 C   0  0  0  0  0  0  0  0  0  0  0  0
    0.0880   -1.0710   -0.2320 N   0  0  0  0  0  0  0  0  0  0  0  0
    0.4620    0.1520   -0.6350 C   0  0  0  0  0  0  0  0  0  0  0  0
    1.7960    0.6940   -0.2220 C   0  0  0  0  0  0  0  0  0  0  0  0
    1.9370    2.0440    0.0870 C   0  0  0  0  0  0  0  0  0  0  0  0
    3.0740    2.6630    0.4190 C   0  0  0  0  0  0  0  0  0  0  0  0
    4.2200    1.8590    0.4820 C   0  0  0  0  0  0  0  0  0  0  0  0
    4.1190    0.5410    0.2130 C   0  0  0  0  0  0  0  0  0  0  0  0
    5.1430   -0.4270    0.1690 C   0  0  0  0  0  0  0  0  0  0  0  0
    6.4920   -0.1170    0.6380 C   0  0  0  0  0  0  0  0  0  0  0  0
    7.3910   -0.3050   -0.5130 N   0  0  0  0  0  0  0  0  0  0  0  0
    4.5110   -1.5180   -0.2120 N   0  0  0  0  0  0  0  0  0  0  0  0
    3.2390   -1.3340   -0.4080 N   0  0  0  0  0  0  0  0  0  0  0  0
    2.9130   -0.0350   -0.1470 C   0  0  0  0  0  0  0  0  0  0  0  0
   -0.4530    1.0640   -1.0640 N   0  0  0  0  0  0  0  0  0  0  0  0
   -1.7510    0.7370   -1.0710 C   0  0  0  0  0  0  0  0  0  0  0  0
   -2.6900    1.6370   -1.3040 N   0  0  0  0  0  0  0  0  0  0  0  0
   -2.1210   -0.4690   -0.6240 C   0  0  0  0  0  0  0  0  0  0  0  0
   -3.4120   -1.0400   -0.4570 C   0  0  0  0  0  0  0  0  0  0  0  0
   -4.6240   -0.1700   -0.7550 C   0  0  0  0  0  0  0  0  0  0  0  0
   -5.0720    0.4510    0.5490 C   0  0  0  0  0  0  0  0  0  0  0  0
   -5.9240    1.5930    0.3690 N   0  0  0  0  0  0  0  0  0  0  0  0
  1  2  1  0
  2  3  1  0
  2 22  2  0
  3  4  1  0
  4  5  1  0
  4 21  2  0
  5  6  2  0
  6  7  1  0
  6 18  1  0
  7  8  2  0
  7 17  1  0
  8  9  1  0
  9 10  2  0
 10 11  1  0
 11 12  1  0
 11 17  2  0
 12 13  1  0
 12 15  2  0
 13 14  1  0
 15 16  1  0
 16 17  1  0
 18 19  1  0
 19 20  2  0
 19 21  1  0
 21 22  1  0
 22 23  1  0
 23 24  1  0
 24 25  1  0
M  CHG  2  14   1  25   1
M  END
