
     RDKit          3D

 25 27  0  0  0  0  0  0  0  0999 V2000
   -3.8110   -0.7930   -1.9870 C   0  0  0  0  0  0  0  0  0  0  0  0
   -3.3420   -0.0810   -0.7780 C   0  0  0  0  0  0  0  0  0  0  0  0
   -4.0290    1.0160   -0.3550 C   0  0  0  0  0  0  0  0  0  0  0  0
   -3.5720    1.7360    0.7160 C   0  0  0  0  0  0  0  0  0  0  0  0
   -4.2990    2.8870    1.1860 N   0  0  0  0  0  0  0  0  0  0  0  0
   -2.4610    1.3400    1.3230 N   0  0  0  0  0  0  0  0  0  0  0  0
   -1.7060    0.2320    0.9570 C   0  0  0  0  0  0  0  0  0  0  0  0
   -0.6520   -0.0450    1.8850 N   0  0  0  0  0  0  0  0  0  0  0  0
   -1.0350   -0.1510    3.2430 C   0  0  0  0  0  0  0  0  0  0  0  0
    0.0440   -0.3360    3.9930 N   0  0  0  0  0  0  0  0  0  0  0  0
    1.0940   -0.3520    3.1840 C   0  0  0  0  0  0  0  0  0  0  0  0
    0.6150   -0.1670    1.8280 C   0  0  0  0  0  0  0  0  0  0  0  0
    1.5770   -0.1980    0.7860 N   0  0  0  0  0  0  0  0  0  0  0  0
    2.4050   -1.3150    0.7630 C   0  0  0  0  0  0  0  0  0  0  0  0
    1.9700   -2.4260    1.5140 N   0  0  0  0  0  0  0  0  0  0  0  0
    3.4810   -1.4350   -0.0320 C   0  0  0  0  0  0  0  0  0  0  0  0
    3.7910   -0.3750   -0.9040 C   0  0  0  0  0  0  0  0  0  0  0  0
    4.8770   -0.4630   -1.5980 N   0  0  0  0  0  0  0  0  0  0  0  0
    2.9810    0.7270   -0.9160 C   0  0  0  0  0  0  0  0  0  0  0  0
    3.2180    1.8440   -1.8660 C   0  0  0  0  0  0  0  0  0  0  0  0
    1.8760    0.7860   -0.0500 C   0  0  0  0  0  0  0  0  0  0  0  0
    0.9620    1.9750   -0.0670 C   0  0  0  0  0  0  0  0  0  0  0  0
   -2.1610   -0.4630   -0.0960 C   0  0  0  0  0  0  0  0  0  0  0  0
   -1.5960   -1.7500   -0.5620 C   0  0  0  0  0  0  0  0  0  0  0  0
   -0.4300   -1.5640   -1.3650 N   0  0  0  0  0  0  0  0  0  0  0  0
  1  2  1  0
  2  3  2  0
  2 23  1  0
  3  4  1  0
  4  5  1  0
  4  6  2  0
  6  7  1  0
  7  8  1  0
  7 23  2  0
  8  9  1  0
  8 12  1  0
  9 10  2  0
 10 11  1  0
 11 12  2  0
 12 13  1  0
 13 14  1  0
 13 21  1  0
 14 15  1  0
 14 16  2  0
 16 17  1  0
 17 18  2  0
 17 19  1  0
 19 20  1  0
 19 21  2  0
 21 22  1  0
 23 24  1  0
 24 25  1  0
M  CHG  2  18   1  25   1
M  END
