
     RDKit          3D

 25 28  0  0  0  0  0  0  0  0999 V2000
   -5.8110    2.5540   -0.4150 N   0  0  0  0  0  0  0  0  0  0  0  0
   -5.9500    1.3920    0.3770 C   0  0  0  0  0  0  0  0  0  0  0  0
   -6.9860    1.3430    1.1500 N   0  0  0  0  0  0  0  0  0  0  0  0
   -4.9760    0.3090    0.3210 C   0  0  0  0  0  0  0  0  0  0  0  0
   -5.0360   -0.8430    1.0490 C   0  0  0  0  0  0  0  0  0  0  0  0
   -4.0430   -1.8190    0.9160 C   0  0  0  0  0  0  0  0  0  0  0  0
   -2.9820   -1.6600    0.0590 C   0  0  0  0  0  0  0  0  0  0  0  0
   -1.9140   -2.4050   -0.2650 N   0  0  0  0  0  0  0  0  0  0  0  0
   -1.1640   -1.7610   -1.1870 C   0  0  0  0  0  0  0  0  0  0  0  0
    0.0880   -2.2070   -1.8220 C   0  0  0  0  0  0  0  0  0  0  0  0
    1.2800   -1.7750   -1.0530 C   0  0  0  0  0  0  0  0  0  0  0  0
    1.9570   -2.3530   -0.0740 N   0  0  0  0  0  0  0  0  0  0  0  0
    2.9830   -1.5640    0.3130 C   0  0  0  0  0  0  0  0  0  0  0  0
    3.9830   -1.6520    1.2550 C   0  0  0  0  0  0  0  0  0  0  0  0
    4.8940   -0.6350    1.3900 C   0  0  0  0  0  0  0  0  0  0  0  0
    4.8740    0.5150    0.6140 C   0  0  0  0  0  0  0  0  0  0  0  0
    5.8890    1.5430    0.8340 C   0  0  0  0  0  0  0  0  0  0  0  0
    6.8700    1.3280    1.8420 N   0  0  0  0  0  0  0  0  0  0  0  0
    5.9150    2.6240    0.1440 N   0  0  0  0  0  0  0  0  0  0  0  0
    3.8740    0.5960   -0.3230 C   0  0  0  0  0  0  0  0  0  0  0  0
    2.9360   -0.4370   -0.4710 C   0  0  0  0  0  0  0  0  0  0  0  0
    1.8920   -0.5790   -1.3000 N   0  0  0  0  0  0  0  0  0  0  0  0
   -1.7960   -0.6020   -1.4230 N   0  0  0  0  0  0  0  0  0  0  0  0
   -2.9160   -0.5030   -0.6760 C   0  0  0  0  0  0  0  0  0  0  0  0
   -3.9020    0.4590   -0.5410 C   0  0  0  0  0  0  0  0  0  0  0  0
  1  2  1  0
  2  3  2  0
  2  4  1  0
  4  5  2  0
  4 25  1  0
  5  6  1  0
  6  7  2  0
  7  8  1  0
  7 24  1  0
  8  9  2  0
  9 10  1  0
  9 23  1  0
 10 11  1  0
 11 12  2  0
 11 22  1  0
 12 13  1  0
 13 14  2  0
 13 21  1  0
 14 15  1  0
 15 16  2  0
 16 17  1  0
 16 20  1  0
 17 18  1  0
 17 19  2  0
 20 21  2  0
 21 22  1  0
 23 24  1  0
 24 25  2  0
M  CHG  2   3   1  19   1
M  END
