
     RDKit          3D

 19 21  0  0  0  0  0  0  0  0999 V2000
   -4.7060    0.4240    1.8010 C   0  0  0  0  0  0  0  0  0  0  0  0
   -3.6300    0.2230    0.7610 C   0  0  0  0  0  0  0  0  0  0  0  0
   -3.9500   -0.0080   -0.5540 C   0  0  0  0  0  0  0  0  0  0  0  0
   -3.0110   -0.1980   -1.5440 C   0  0  0  0  0  0  0  0  0  0  0  0
   -1.6810   -0.1460   -1.1450 C   0  0  0  0  0  0  0  0  0  0  0  0
   -0.6840   -0.3320   -2.1010 C   0  0  0  0  0  0  0  0  0  0  0  0
    0.6440   -0.2850   -1.7330 C   0  0  0  0  0  0  0  0  0  0  0  0
    0.9240   -0.0500   -0.3980 C   0  0  0  0  0  0  0  0  0  0  0  0
    2.3020   -0.0040   -0.0260 N   0  0  0  0  0  0  0  0  0  0  0  0
    2.7010   -0.6620    1.0740 C   0  0  0  0  0  0  0  0  0  0  0  0
    4.0240   -0.6640    1.5000 C   0  0  0  0  0  0  0  0  0  0  0  0
    4.5410   -1.5250    2.9360 Cl  0  0  0  0  0  0  0  0  0  0  0  0
    4.9650    0.0230    0.7870 C   0  0  0  0  0  0  0  0  0  0  0  0
    4.5660    0.7010   -0.3410 C   0  0  0  0  0  0  0  0  0  0  0  0
    3.2390    0.6660   -0.7150 C   0  0  0  0  0  0  0  0  0  0  0  0
    2.9030    1.2850   -1.7360 O   0  0  0  0  0  0  0  0  0  0  0  0
   -0.0590    0.1260    0.5090 N   0  0  0  0  0  0  0  0  0  0  0  0
   -1.3550    0.0850    0.1750 C   0  0  0  0  0  0  0  0  0  0  0  0
   -2.3320    0.2660    1.1050 N   0  0  0  0  0  0  0  0  0  0  0  0
  1  2  1  0
  2  3  2  0
  2 19  1  0
  3  4  1  0
  4  5  2  0
  5  6  1  0
  5 18  1  0
  6  7  2  0
  7  8  1  0
  8  9  1  0
  8 17  2  0
  9 10  1  0
  9 15  1  0
 10 11  2  0
 11 12  1  0
 11 13  1  0
 13 14  2  0
 14 15  1  0
 15 16  2  0
 17 18  1  0
 18 19  2  0
M  END
