
     RDKit          3D

 20 22  0  0  0  0  0  0  0  0999 V2000
   -3.2180    3.1280   -0.0640 C   0  0  0  0  0  0  0  0  0  0  0  0
   -3.2050    1.6340    0.0930 C   0  0  0  0  0  0  0  0  0  0  0  0
   -2.2170    0.8130    0.6040 C   0  0  0  0  0  0  0  0  0  0  0  0
   -2.4370   -0.5040    0.6380 C   0  0  0  0  0  0  0  0  0  0  0  0
   -1.4510   -1.5120    1.1480 C   0  0  0  0  0  0  0  0  0  0  0  0
   -1.8970   -2.5020    1.8180 O   0  0  0  0  0  0  0  0  0  0  0  0
   -0.0730   -1.4360    0.9330 N   0  0  0  0  0  0  0  0  0  0  0  0
    0.6790   -0.5510    0.2780 C   0  0  0  0  0  0  0  0  0  0  0  0
    2.0250   -0.8980    0.3700 C   0  0  0  0  0  0  0  0  0  0  0  0
    3.1890   -0.2080   -0.1860 C   0  0  0  0  0  0  0  0  0  0  0  0
    4.4310   -0.6280   -0.0320 C   0  0  0  0  0  0  0  0  0  0  0  0
    5.3360    0.3110   -0.7250 C   0  0  0  0  0  0  0  0  0  0  0  0
    4.4540    1.3310   -1.2980 C   0  0  0  0  0  0  0  0  0  0  0  0
    4.9270    2.7420   -2.2510 Cl  0  0  0  0  0  0  0  0  0  0  0  0
    3.2120    1.0140   -0.9760 C   0  0  0  0  0  0  0  0  0  0  0  0
    2.0320   -2.0090    1.0950 N   0  0  0  0  0  0  0  0  0  0  0  0
    0.8070   -2.3220    1.4230 N   0  0  0  0  0  0  0  0  0  0  0  0
   -3.6510   -0.9680    0.1580 C   0  0  0  0  0  0  0  0  0  0  0  0
   -4.1360   -2.3620    0.0950 C   0  0  0  0  0  0  0  0  0  0  0  0
   -4.4800    0.4890   -0.3460 S   0  0  0  0  0  0  0  0  0  0  0  0
  1  2  1  0
  2  3  2  0
  2 20  1  0
  3  4  1  0
  4  5  1  0
  4 18  2  0
  5  6  2  0
  5  7  1  0
  7  8  1  0
  7 17  1  0
  8  9  2  0
  9 10  1  0
  9 16  1  0
 10 11  2  0
 10 15  1  0
 11 12  1  0
 12 13  1  0
 13 14  1  0
 13 15  2  0
 16 17  2  0
 18 19  1  0
 18 20  1  0
M  END
