
     RDKit          3D

 20 22  0  0  0  0  0  0  0  0999 V2000
    4.7790    0.9600   -0.3040 C   0  0  0  0  0  0  0  0  0  0  0  0
    4.0840   -0.2040    0.3470 C   0  0  0  0  0  0  0  0  0  0  0  0
    4.5310   -1.4310    0.3880 O   0  0  0  0  0  0  0  0  0  0  0  0
    3.6910   -2.2090    1.0290 C   0  0  0  0  0  0  0  0  0  0  0  0
    2.6190   -1.4600    1.4410 C   0  0  0  0  0  0  0  0  0  0  0  0
    1.2310   -2.0330    2.3350 Cl  0  0  0  0  0  0  0  0  0  0  0  0
    2.8720   -0.1740    1.0040 C   0  0  0  0  0  0  0  0  0  0  0  0
    2.0730    0.9580    1.1780 N   0  0  0  0  0  0  0  0  0  0  0  0
    0.9790    1.2070    0.5990 C   0  0  0  0  0  0  0  0  0  0  0  0
    0.3040    0.3500   -0.3920 C   0  0  0  0  0  0  0  0  0  0  0  0
   -1.1510    0.5100   -0.2990 C   0  0  0  0  0  0  0  0  0  0  0  0
   -2.1140   -0.3820   -0.7220 N   0  0  0  0  0  0  0  0  0  0  0  0
   -3.4050   -0.0890   -0.5790 C   0  0  0  0  0  0  0  0  0  0  0  0
   -4.4480   -1.0730   -1.0440 C   0  0  0  0  0  0  0  0  0  0  0  0
   -4.8030   -1.9850    0.0110 C   0  0  0  0  0  0  0  0  0  0  0  0
   -5.0700   -2.7260    0.8560 N   0  0  0  0  0  0  0  0  0  0  0  0
   -3.8770    1.0820   -0.0200 C   0  0  0  0  0  0  0  0  0  0  0  0
   -2.9480    1.9800    0.4060 C   0  0  0  0  0  0  0  0  0  0  0  0
   -1.6100    1.6670    0.2540 C   0  0  0  0  0  0  0  0  0  0  0  0
   -0.1440    2.6080    0.7210 S   0  0  0  0  0  0  0  0  0  0  0  0
  1  2  1  0
  2  3  1  0
  2  7  2  0
  3  4  1  0
  4  5  2  0
  5  6  1  0
  5  7  1  0
  7  8  1  0
  8  9  2  3
  9 10  1  0
  9 20  1  0
 10 11  1  0
 11 12  2  0
 11 19  1  0
 12 13  1  0
 13 14  1  0
 13 17  2  0
 14 15  1  0
 15 16  3  0
 17 18  1  0
 18 19  2  0
 19 20  1  0
M  END
