
     RDKit          3D

 12 13  0  0  0  0  0  0  0  0999 V2000
   -2.8900   -0.9030   -0.3810 N   0  0  0  0  0  0  0  0  0  0  0  0
   -1.5810   -0.3650   -0.1780 C   0  0  0  0  0  0  0  0  0  0  0  0
   -0.4640   -1.1070   -0.2900 N   0  0  0  0  0  0  0  0  0  0  0  0
    0.7630   -0.5570   -0.0890 C   0  0  0  0  0  0  0  0  0  0  0  0
    2.0210   -1.0310   -0.1290 N   0  0  0  0  0  0  0  0  0  0  0  0
    2.9140   -0.0730    0.1500 C   0  0  0  0  0  0  0  0  0  0  0  0
    5.0260   -0.2310    0.2340 I   0  0  0  0  0  0  0  0  0  0  0  0
    2.1880    1.0390    0.3730 N   0  0  0  0  0  0  0  0  0  0  0  0
    0.8780    0.7880    0.2380 C   0  0  0  0  0  0  0  0  0  0  0  0
   -0.2980    1.4950    0.3390 C   0  0  0  0  0  0  0  0  0  0  0  0
   -0.1990    2.7120    0.6340 O   0  0  0  0  0  0  0  0  0  0  0  0
   -1.5020    0.9390    0.1370 N   0  0  0  0  0  0  0  0  0  0  0  0
  1  2  1  0
  2  3  2  0
  2 12  1  0
  3  4  1  0
  4  5  1  0
  4  9  2  0
  5  6  1  0
  6  7  1  0
  6  8  2  0
  8  9  1  0
  9 10  1  0
 10 11  2  0
 10 12  1  0
M  END
