
     RDKit          3D

 20 22  0  0  0  0  0  0  0  0999 V2000
    0.6800   -2.7340    0.5080 C   0  0  0  0  0  0  0  0  0  0  0  0
    1.1770   -1.3800    0.2580 N   0  0  0  0  0  0  0  0  0  0  0  0
    2.4500   -0.9830    0.4440 N   0  0  0  0  0  0  0  0  0  0  0  0
    2.5920    0.2870    0.1400 C   0  0  0  0  0  0  0  0  0  0  0  0
    3.8770    1.0630    0.2290 C   0  0  0  0  0  0  0  0  0  0  0  0
    5.0870    0.5920    0.5870 C   0  0  0  0  0  0  0  0  0  0  0  0
    6.1350    1.4330    0.5990 C   0  0  0  0  0  0  0  0  0  0  0  0
    7.7980    0.8910    1.0570 Cl  0  0  0  0  0  0  0  0  0  0  0  0
    5.9480    2.7280    0.2520 C   0  0  0  0  0  0  0  0  0  0  0  0
    4.1320    2.6930   -0.1080 S   0  0  0  0  0  0  0  0  0  0  0  0
    1.3720    0.7510   -0.2610 C   0  0  0  0  0  0  0  0  0  0  0  0
    0.4760   -0.3220   -0.1820 C   0  0  0  0  0  0  0  0  0  0  0  0
   -0.8880   -0.2950   -0.5060 N   0  0  0  0  0  0  0  0  0  0  0  0
   -1.3710   -0.4730   -1.8550 C   0  0  0  0  0  0  0  0  0  0  0  0
   -2.2950    0.7280   -2.0870 C   0  0  0  0  0  0  0  0  0  0  0  0
   -3.3660    0.6820   -1.2640 O   0  0  0  0  0  0  0  0  0  0  0  0
   -3.2600    0.0900   -0.0480 C   0  0  2  0  0  0  0  0  0  0  0  0
   -3.9650   -1.2750   -0.0330 C   0  0  0  0  0  0  0  0  0  0  0  0
   -4.0100    0.9740    0.9630 C   0  0  0  0  0  0  0  0  0  0  0  0
   -1.8790   -0.0800    0.5110 C   0  0  0  0  0  0  0  0  0  0  0  0
  1  2  1  0
  2  3  1  0
  2 12  1  0
  3  4  2  0
  4  5  1  0
  4 11  1  0
  5  6  2  0
  5 10  1  0
  6  7  1  0
  7  8  1  0
  7  9  2  0
  9 10  1  0
 11 12  2  0
 12 13  1  0
 13 14  1  0
 13 20  1  0
 14 15  1  0
 15 16  1  0
 16 17  1  0
 17 18  1  6
 17 19  1  0
 17 20  1  0
M  END
