
     RDKit          3D

 36 38  0  0  0  0  0  0  0  0999 V2000
    4.6090    3.0370    1.3290 C   0  0  0  0  0  0  0  0  0  0  0  0
    5.4140    1.8120    1.6390 C   0  0  2  0  0  0  0  0  0  0  0  0
    6.6310    2.2920    2.4430 C   0  0  0  0  0  0  0  0  0  0  0  0
    5.9550    1.1480    0.4030 C   0  0  1  0  0  0  0  0  0  0  0  0
    6.6820    0.0300    0.8630 O   0  0  0  0  0  0  0  0  0  0  0  0
    4.9130    0.6210   -0.5070 C   0  0  0  0  0  0  0  0  0  0  0  0
    4.7450   -0.6430   -0.6670 O   0  0  0  0  0  0  0  0  0  0  0  0
    4.0230    1.4200   -1.2750 N   0  0  0  0  0  0  0  0  0  0  0  0
    3.0210    0.8710   -2.1530 C   0  0  0  0  0  0  0  0  0  0  0  0
    2.0310   -0.0030   -1.4420 C   0  0  0  0  0  0  0  0  0  0  0  0
    1.8400   -1.2560   -1.7270 C   0  0  0  0  0  0  0  0  0  0  0  0
    0.7780   -1.7640   -0.7960 C   0  0  1  0  0  0  0  0  0  0  0  0
    0.4050   -0.6300    0.0330 C   0  0  0  0  0  0  0  0  0  0  0  0
    1.1720    0.4170   -0.3700 C   0  0  0  0  0  0  0  0  0  0  0  0
   -0.5700   -0.5770    1.1180 C   0  0  0  0  0  0  0  0  0  0  0  0
   -0.0920   -0.2420    2.3000 O   0  0  0  0  0  0  0  0  0  0  0  0
   -1.9590   -0.8330    1.0880 N   0  0  0  0  0  0  0  0  0  0  0  0
   -3.0190    0.0030    0.5550 C   0  0  1  0  0  0  0  0  0  0  0  0
   -4.0730   -0.8240   -0.1390 C   0  0  0  0  0  0  0  0  0  0  0  0
   -3.6930   -2.1550   -0.4090 C   0  0  0  0  0  0  0  0  0  0  0  0
   -3.3820   -3.2050   -0.6400 C   0  0  0  0  0  0  0  0  0  0  0  0
   -2.9730   -4.5270   -0.9490 C   0  0  0  0  0  0  0  0  0  0  0  0
   -1.6420   -4.5490   -1.7170 C   0  0  0  0  0  0  0  0  0  0  0  0
   -0.6110   -3.7610   -0.9980 C   0  0  1  0  0  0  0  0  0  0  0  0
    0.6420   -4.5580   -0.7020 C   0  0  0  0  0  0  0  0  0  0  0  0
   -0.2670   -2.4170   -1.6260 C   0  0  2  0  0  0  0  0  0  0  0  0
    0.1850   -2.5780   -3.0810 C   0  0  0  0  0  0  0  0  0  0  0  0
   -3.7400    0.6380    1.7540 C   0  0  0  0  0  0  0  0  0  0  0  0
   -4.5920    1.8050    1.3510 C   0  0  0  0  0  0  0  0  0  0  0  0
   -3.6750    2.7670    0.6180 C   0  0  1  0  0  0  0  0  0  0  0  0
   -4.4360    4.0380    0.3170 C   0  0  0  0  0  0  0  0  0  0  0  0
   -5.5710    3.7240   -0.4360 O   0  0  0  0  0  0  0  0  0  0  0  0
   -2.5320    3.1480    1.5250 C   0  0  0  0  0  0  0  0  0  0  0  0
   -3.0730    3.7580    2.6520 O   0  0  0  0  0  0  0  0  0  0  0  0
   -3.2980    2.1490   -0.5490 O   0  0  0  0  0  0  0  0  0  0  0  0
   -2.5150    1.0310   -0.3980 C   0  0  0  0  0  0  0  0  0  0  0  0
  2  1  1  6
  2  3  1  0
  2  4  1  0
  4  5  1  1
  4  6  1  0
  6  7  2  0
  6  8  1  0
  8  9  1  0
  9 10  1  0
 10 11  2  0
 10 14  1  0
 12 11  1  6
 12 13  1  0
 12 26  1  0
 13 14  2  0
 13 15  1  0
 15 16  2  0
 15 17  1  0
 17 18  1  0
 18 19  1  6
 18 28  1  0
 18 36  1  0
 19 20  1  0
 20 21  3  0
 21 22  1  0
 22 23  1  0
 23 24  1  0
 24 25  1  6
 24 26  1  0
 26 27  1  6
 28 29  1  0
 29 30  1  0
 30 31  1  6
 30 33  1  0
 30 35  1  0
 31 32  1  0
 33 34  1  0
 35 36  1  0
M  END
