
     RDKit          3D

 36 39  0  0  0  0  0  0  0  0999 V2000
  -11.0890   -2.3170    1.5310 C   0  0  0  0  0  0  0  0  0  0  0  0
   -9.7330   -1.9390    1.0480 C   0  0  0  0  0  0  0  0  0  0  0  0
   -9.0850   -2.7620    0.1260 C   0  0  0  0  0  0  0  0  0  0  0  0
   -7.7870   -2.3970   -0.2560 C   0  0  0  0  0  0  0  0  0  0  0  0
   -7.1970   -1.3210    0.2320 C   0  0  0  0  0  0  0  0  0  0  0  0
   -5.8930   -1.0080   -0.1050 C   0  0  0  0  0  0  0  0  0  0  0  0
   -5.2680    0.0940    0.4670 C   0  0  0  0  0  0  0  0  0  0  0  0
   -3.8300    0.2200    0.2070 C   0  0  0  0  0  0  0  0  0  0  0  0
   -2.8300   -0.1750   -0.1370 N   0  0  0  0  0  0  0  0  0  0  0  0
   -1.6480    0.1750   -0.2170 N   0  0  0  0  0  0  0  0  0  0  0  0
   -1.3220    1.2970    0.1610 C   0  0  0  0  0  0  0  0  0  0  0  0
   -0.1770    2.0480    0.6250 N   0  0  0  0  0  0  0  0  0  0  0  0
    0.9850    1.3220    0.9900 C   0  0  0  0  0  0  0  0  0  0  0  0
    0.9720    0.0570    0.8660 O   0  0  0  0  0  0  0  0  0  0  0  0
    2.1530    1.9020    1.4980 N   0  0  0  0  0  0  0  0  0  0  0  0
    3.3190    1.1950    1.9260 C   0  0  0  0  0  0  0  0  0  0  0  0
    3.4560    0.7890    3.2260 C   0  0  0  0  0  0  0  0  0  0  0  0
    2.3130    0.9910    4.1560 C   0  0  0  0  0  0  0  0  0  0  0  0
    1.4620    1.1420    4.8380 N   0  0  0  0  0  0  0  0  0  0  0  0
    4.6050    0.1400    3.6930 C   0  0  0  0  0  0  0  0  0  0  0  0
    5.6350   -0.1050    2.8280 C   0  0  0  0  0  0  0  0  0  0  0  0
    5.5240    0.2840    1.5210 C   0  0  0  0  0  0  0  0  0  0  0  0
    4.3510    0.9420    1.0580 C   0  0  0  0  0  0  0  0  0  0  0  0
    4.1770    1.2140   -0.3480 C   0  0  0  0  0  0  0  0  0  0  0  0
    3.0610    1.6440   -0.7790 O   0  0  0  0  0  0  0  0  0  0  0  0
    5.1980    1.0200   -1.2780 N   0  0  0  0  0  0  0  0  0  0  0  0
    5.0100    1.2580   -2.7130 C   0  0  0  0  0  0  0  0  0  0  0  0
    6.2920    0.9410   -3.4790 C   0  0  0  0  0  0  0  0  0  0  0  0
    6.5970   -0.4790   -3.2430 N   0  0  2  0  0  0  0  0  0  0  0  0
    7.7660   -0.6330   -2.4260 C   0  0  0  0  0  0  0  0  0  0  0  0
    6.8110   -1.1930   -4.4940 C   0  0  0  0  0  0  0  0  0  0  0  0
   -3.0590    1.9520    0.7210 S   0  0  0  0  0  0  0  0  0  0  0  0
   -5.9110    0.8910    1.3430 C   0  0  0  0  0  0  0  0  0  0  0  0
   -7.2190    0.6260    1.7210 C   0  0  0  0  0  0  0  0  0  0  0  0
   -7.8410   -0.4670    1.1750 C   0  0  0  0  0  0  0  0  0  0  0  0
   -9.1120   -0.8430    1.5320 C   0  0  0  0  0  0  0  0  0  0  0  0
  1  2  1  0
  2  3  2  0
  2 36  1  0
  3  4  1  0
  4  5  2  0
  5  6  1  0
  5 35  1  0
  6  7  2  0
  7  8  1  0
  7 33  1  0
  8  9  2  0
  8 32  1  0
  9 10  1  0
 10 11  2  0
 11 12  1  0
 11 32  1  0
 12 13  1  0
 13 14  2  0
 13 15  1  0
 15 16  1  0
 16 17  2  0
 16 23  1  0
 17 18  1  0
 17 20  1  0
 18 19  3  0
 20 21  2  0
 21 22  1  0
 22 23  2  0
 23 24  1  0
 24 25  2  0
 24 26  1  0
 26 27  1  0
 27 28  1  0
 28 29  1  0
 29 30  1  1
 29 31  1  0
 33 34  2  0
 34 35  1  0
 35 36  2  0
M  CHG  1  29   1
M  END
