
     RDKit          3D

 36 40  0  0  0  0  0  0  0  0999 V2000
   10.8300    1.2210   -0.5360 C   0  0  0  0  0  0  0  0  0  0  0  0
    9.9980    0.3800    0.2860 N   0  0  0  0  0  0  0  0  0  0  0  0
    8.7360    0.1530   -0.0820 C   0  0  0  0  0  0  0  0  0  0  0  0
    7.9270   -0.6850    0.7490 C   0  0  0  0  0  0  0  0  0  0  0  0
    6.7290   -1.1220    0.7460 C   0  0  0  0  0  0  0  0  0  0  0  0
    5.6440   -0.9220   -0.1660 C   0  0  0  0  0  0  0  0  0  0  0  0
    5.6780   -0.1370   -1.2720 C   0  0  0  0  0  0  0  0  0  0  0  0
    4.5450   -0.0420   -2.0800 C   0  0  0  0  0  0  0  0  0  0  0  0
    3.4100   -0.7370   -1.7580 C   0  0  0  0  0  0  0  0  0  0  0  0
    3.3880   -1.5260   -0.6390 C   0  0  0  0  0  0  0  0  0  0  0  0
    2.1990   -2.3120   -0.2240 C   0  0  0  0  0  0  0  0  0  0  0  0
    1.4300   -1.6140    0.7850 N   0  0  0  0  0  0  0  0  0  0  0  0
    0.9570   -0.3440    0.3040 C   0  0  0  0  0  0  0  0  0  0  0  0
   -0.3870   -0.6160   -0.3920 C   0  0  0  0  0  0  0  0  0  0  0  0
   -1.2970   -0.8970    0.6580 N   0  0  0  0  0  0  0  0  0  0  0  0
   -2.7010   -0.8370    0.3290 C   0  0  0  0  0  0  0  0  0  0  0  0
   -3.1970    0.5610    0.1120 C   0  0  0  0  0  0  0  0  0  0  0  0
   -2.3560    1.5660    0.4120 N   0  0  0  0  0  0  0  0  0  0  0  0
   -2.7000    2.8860    0.2850 C   0  0  0  0  0  0  0  0  0  0  0  0
   -3.9350    3.1640   -0.1590 C   0  0  0  0  0  0  0  0  0  0  0  0
   -4.8180    2.1410   -0.4720 C   0  0  0  0  0  0  0  0  0  0  0  0
   -4.4640    0.7890   -0.3430 C   0  0  0  0  0  0  0  0  0  0  0  0
   -5.4840   -0.2220   -0.6410 C   0  0  0  0  0  0  0  0  0  0  0  0
   -6.4590    0.1410   -1.4710 C   0  0  0  0  0  0  0  0  0  0  0  0
   -7.5850   -0.6950   -1.9110 C   0  0  0  0  0  0  0  0  0  0  0  0
   -7.7280   -2.0380   -1.3130 C   0  0  0  0  0  0  0  0  0  0  0  0
   -6.6260   -2.3600   -0.4130 C   0  0  0  0  0  0  0  0  0  0  0  0
   -5.6060   -1.5480   -0.1010 C   0  0  0  0  0  0  0  0  0  0  0  0
   -4.2360    4.5730   -0.2740 N   0  0  0  0  0  0  0  0  0  0  0  0
   -3.0150    5.3320    0.7000 S   0  0  2  0  0  0  0  0  0  0  0  0
   -3.4670    5.5220    2.1090 O   0  0  0  0  0  0  0  0  0  0  0  0
   -2.4750    6.5640    0.0780 O   0  0  0  0  0  0  0  0  0  0  0  0
   -1.8730    4.0140    0.5790 N   0  0  0  0  0  0  0  0  0  0  0  0
   -0.9090   -1.9010    1.5750 C   0  0  0  0  0  0  0  0  0  0  0  0
    0.4570   -2.4520    1.3930 C   0  0  0  0  0  0  0  0  0  0  0  0
    4.4770   -1.5950    0.1050 N   0  0  0  0  0  0  0  0  0  0  0  0
  1  2  1  0
  2  3  2  3
  3  4  1  0
  4  5  2  3
  5  6  1  0
  6  7  2  0
  6 36  1  0
  7  8  1  0
  8  9  2  0
  9 10  1  0
 10 11  1  0
 10 36  2  0
 11 12  1  0
 12 13  1  0
 12 35  1  0
 13 14  1  0
 14 15  1  0
 15 16  1  0
 15 34  1  0
 16 17  1  0
 17 18  2  0
 17 22  1  0
 18 19  1  0
 19 20  2  0
 19 33  1  0
 20 21  1  0
 20 29  1  0
 21 22  2  0
 22 23  1  0
 23 24  2  0
 23 28  1  0
 24 25  1  0
 25 26  1  0
 26 27  1  0
 27 28  2  0
 30 29  1  6
 30 31  2  0
 30 32  2  0
 30 33  1  0
 34 35  1  0
M  CHG  1  18   1
M  END
