
     RDKit          3D

 36 39  0  0  0  0  0  0  0  0999 V2000
   -7.9480    4.0260    0.0080 C   0  0  0  0  0  0  0  0  0  0  0  0
   -8.0200    2.6470   -0.5560 C   0  0  0  0  0  0  0  0  0  0  0  0
   -9.1400    1.8820   -0.3290 C   0  0  0  0  0  0  0  0  0  0  0  0
   -9.2210    0.6410   -0.8300 N   0  0  0  0  0  0  0  0  0  0  0  0
   -8.2410    0.0830   -1.5620 C   0  0  0  0  0  0  0  0  0  0  0  0
   -8.2830   -1.2700   -2.1270 C   0  0  0  0  0  0  0  0  0  0  0  0
   -7.0990    0.8480   -1.8000 C   0  0  0  0  0  0  0  0  0  0  0  0
   -6.0210    0.4000   -2.5370 N   0  0  0  0  0  0  0  0  0  0  0  0
   -4.9430   -0.1570   -2.3040 C   0  0  0  0  0  0  0  0  0  0  0  0
   -4.3740   -0.5850   -1.0360 C   0  0  0  0  0  0  0  0  0  0  0  0
   -5.0230   -0.4440    0.1640 C   0  0  0  0  0  0  0  0  0  0  0  0
   -4.4630   -0.8800    1.3690 C   0  0  0  0  0  0  0  0  0  0  0  0
   -3.2120   -1.4730    1.3440 C   0  0  0  0  0  0  0  0  0  0  0  0
   -2.5670   -1.6100    0.1430 C   0  0  0  0  0  0  0  0  0  0  0  0
   -1.2310   -2.2450    0.0870 C   0  0  0  0  0  0  0  0  0  0  0  0
   -0.2240   -1.2090    0.2590 N   0  0  0  0  0  0  0  0  0  0  0  0
    1.1090   -1.7610    0.0640 C   0  0  0  0  0  0  0  0  0  0  0  0
    2.0690   -0.5610    0.0780 C   0  0  0  0  0  0  0  0  0  0  0  0
    2.1700   -0.2440    1.5800 C   0  0  1  0  0  0  0  0  0  0  0  0
    3.2400    0.6560    1.8030 N   0  0  0  0  0  0  0  0  0  0  0  0
    4.5870    0.0090    2.6110 S   0  0  2  0  0  0  0  0  0  0  0  0
    4.0890   -0.4860    3.9860 O   0  0  0  0  0  0  0  0  0  0  0  0
    5.5580    1.0780    2.9660 O   0  0  0  0  0  0  0  0  0  0  0  0
    5.3750   -1.2780    1.7800 C   0  0  0  0  0  0  0  0  0  0  0  0
    6.1830   -1.2620    0.7990 C   0  0  0  0  0  0  0  0  0  0  0  0
    6.7840   -0.2490   -0.0350 C   0  0  0  0  0  0  0  0  0  0  0  0
    7.6160   -0.7180   -0.9620 C   0  0  0  0  0  0  0  0  0  0  0  0
    8.3970   -0.0270   -1.9610 C   0  0  0  0  0  0  0  0  0  0  0  0
    8.6250    1.2550   -2.1470 C   0  0  0  0  0  0  0  0  0  0  0  0
    8.0510    2.3300   -1.2570 C   0  0  0  0  0  0  0  0  0  0  0  0
    6.6580    1.9580   -1.0910 N   0  0  0  0  0  0  0  0  0  0  0  0
    6.4620    1.1830    0.1340 C   0  0  0  0  0  0  0  0  0  0  0  0
    0.8350    0.1870    2.0320 C   0  0  0  0  0  0  0  0  0  0  0  0
   -0.3410   -0.5720    1.5540 C   0  0  0  0  0  0  0  0  0  0  0  0
   -3.1620   -1.1660   -1.0040 N   0  0  0  0  0  0  0  0  0  0  0  0
   -7.0270    2.1120   -1.2850 N   0  0  0  0  0  0  0  0  0  0  0  0
  1  2  1  0
  2  3  2  0
  2 36  1  0
  3  4  1  0
  4  5  2  0
  5  6  1  0
  5  7  1  0
  7  8  1  0
  7 36  2  0
  8  9  2  3
  9 10  1  0
 10 11  2  0
 10 35  1  0
 11 12  1  0
 12 13  2  0
 13 14  1  0
 14 15  1  0
 14 35  2  0
 15 16  1  0
 16 17  1  0
 16 34  1  0
 17 18  1  0
 18 19  1  0
 19 20  1  6
 19 33  1  0
 21 20  1  6
 21 22  2  0
 21 23  2  0
 21 24  1  0
 24 25  2  3
 25 26  1  0
 26 27  2  0
 26 32  1  0
 27 28  1  0
 28 29  2  0
 29 30  1  0
 30 31  1  0
 31 32  1  0
 33 34  1  0
M  CHG  1  31   1
M  END
