
     RDKit          3D

 36 38  0  0  0  0  0  0  0  0999 V2000
    4.9230    1.6530    1.0980 C   0  0  0  0  0  0  0  0  0  0  0  0
    4.0700    1.5260   -0.1630 C   0  0  2  0  0  0  0  0  0  0  0  0
    3.0190    2.5900   -0.1650 C   0  0  0  0  0  0  0  0  0  0  0  0
    3.7420    3.9240    0.0860 C   0  0  0  0  0  0  0  0  0  0  0  0
    2.9590    4.9360   -0.4860 O   0  0  0  0  0  0  0  0  0  0  0  0
    1.9780    5.3960    0.3710 C   0  0  0  0  0  0  0  0  0  0  0  0
    0.7540    5.7700   -0.4400 C   0  0  0  0  0  0  0  0  0  0  0  0
    0.2150    4.6860   -1.1130 O   0  0  0  0  0  0  0  0  0  0  0  0
   -1.0780    4.3710   -0.7030 C   0  0  0  0  0  0  0  0  0  0  0  0
   -1.1180    3.2350    0.2700 C   0  0  0  0  0  0  0  0  0  0  0  0
   -0.6580    1.9050   -0.3510 C   0  0  0  0  0  0  0  0  0  0  0  0
   -1.7560    1.2630   -0.9650 O   0  0  0  0  0  0  0  0  0  0  0  0
   -2.5370    0.2130   -0.5390 C   0  0  0  0  0  0  0  0  0  0  0  0
   -3.8450    0.5210   -0.1230 C   0  0  0  0  0  0  0  0  0  0  0  0
   -4.7400   -0.4180    0.3320 C   0  0  0  0  0  0  0  0  0  0  0  0
   -4.3300   -1.7040    0.3780 C   0  0  0  0  0  0  0  0  0  0  0  0
   -5.2490   -2.7630    0.8610 C   0  0  1  0  0  0  0  0  0  0  0  0
   -6.6120   -2.1780    1.1720 C   0  0  0  0  0  0  0  0  0  0  0  0
   -5.4870   -3.8000   -0.2430 C   0  0  0  0  0  0  0  0  0  0  0  0
   -4.6660   -3.4710    2.0430 C   0  0  0  0  0  0  0  0  0  0  0  0
   -5.4520   -4.4790    2.5570 O   0  0  0  0  0  0  0  0  0  0  0  0
   -3.0690   -2.0270   -0.0210 C   0  0  0  0  0  0  0  0  0  0  0  0
   -2.1100   -1.1160   -0.4970 C   0  0  0  0  0  0  0  0  0  0  0  0
   -0.8580   -1.6270   -0.9300 N   0  0  0  0  0  0  0  0  0  0  0  0
    0.2440   -1.0720   -1.5760 C   0  0  0  0  0  0  0  0  0  0  0  0
    0.3010   -1.3200   -2.8740 O   0  0  0  0  0  0  0  0  0  0  0  0
    1.3490   -0.2970   -1.1970 N   0  0  0  0  0  0  0  0  0  0  0  0
    2.2190   -0.3590   -0.0680 C   0  0  2  0  0  0  0  0  0  0  0  0
    3.6010    0.1720   -0.4320 C   0  0  0  0  0  0  0  0  0  0  0  0
    4.3970   -0.6690   -1.0470 C   0  0  0  0  0  0  0  0  0  0  0  0
    4.0350   -2.0830   -1.3820 C   0  0  0  0  0  0  0  0  0  0  0  0
    3.2190   -2.6920   -0.2590 C   0  0  1  0  0  0  0  0  0  0  0  0
    2.3910   -3.8390   -0.7690 C   0  0  0  0  0  0  0  0  0  0  0  0
    4.1940   -3.3190    0.5750 O   0  0  0  0  0  0  0  0  0  0  0  0
    2.4930   -1.6940    0.5550 C   0  0  2  0  0  0  0  0  0  0  0  0
    1.3510   -2.2980    1.3080 C   0  0  0  0  0  0  0  0  0  0  0  0
  2  1  1  1
  2  3  1  0
  2 29  1  0
  3  4  1  0
  4  5  1  0
  5  6  1  0
  6  7  1  0
  7  8  1  0
  8  9  1  0
  9 10  1  0
 10 11  1  0
 11 12  1  0
 12 13  1  0
 13 14  2  0
 13 23  1  0
 14 15  1  0
 15 16  2  0
 16 17  1  0
 16 22  1  0
 17 18  1  1
 17 19  1  0
 17 20  1  0
 20 21  1  0
 22 23  2  0
 23 24  1  0
 24 25  1  0
 25 26  2  0
 25 27  1  0
 28 27  1  6
 28 29  1  0
 28 35  1  0
 29 30  2  0
 30 31  1  0
 31 32  1  0
 32 33  1  6
 32 34  1  0
 32 35  1  0
 35 36  1  6
M  END
