
     RDKit          3D

 22 24  0  0  0  0  0  0  0  0999 V2000
   -3.7940    0.7980   -1.4650 C   0  0  0  0  0  0  0  0  0  0  0  0
   -3.5310    0.0520   -0.1750 C   0  0  1  0  0  0  0  0  0  0  0  0
   -3.7940    0.9110    1.0260 C   0  0  0  0  0  0  0  0  0  0  0  0
   -4.4270   -1.1740   -0.1560 C   0  0  0  0  0  0  0  0  0  0  0  0
   -5.7990   -0.7250   -0.2270 N   0  0  0  0  0  0  0  0  0  0  0  0
   -2.0920   -0.3200   -0.1480 C   0  0  0  0  0  0  0  0  0  0  0  0
   -1.6890   -1.6070    0.1170 C   0  0  0  0  0  0  0  0  0  0  0  0
   -0.3350   -1.9150    0.1340 C   0  0  0  0  0  0  0  0  0  0  0  0
    0.6360   -0.9700   -0.1080 C   0  0  0  0  0  0  0  0  0  0  0  0
    0.1990    0.3130   -0.3720 C   0  0  0  0  0  0  0  0  0  0  0  0
   -1.1480    0.6500   -0.3940 C   0  0  0  0  0  0  0  0  0  0  0  0
    1.0320    1.3870   -0.6370 O   0  0  0  0  0  0  0  0  0  0  0  0
    2.3210    1.7290   -0.1880 C   0  0  0  0  0  0  0  0  0  0  0  0
    3.2460    0.5980   -0.0360 C   0  0  0  0  0  0  0  0  0  0  0  0
    4.5450    1.0910    0.0610 C   0  0  0  0  0  0  0  0  0  0  0  0
    5.6440    0.2810    0.2120 C   0  0  0  0  0  0  0  0  0  0  0  0
    6.9810    0.8450    0.3120 C   0  0  0  0  0  0  0  0  0  0  0  0
    7.2270    2.0700    0.2720 O   0  0  0  0  0  0  0  0  0  0  0  0
    5.4450   -1.0800    0.2680 C   0  0  0  0  0  0  0  0  0  0  0  0
    4.1800   -1.6180    0.1760 C   0  0  0  0  0  0  0  0  0  0  0  0
    3.1040   -0.7670    0.0260 C   0  0  0  0  0  0  0  0  0  0  0  0
    1.9190   -1.4670   -0.0490 O   0  0  0  0  0  0  0  0  0  0  0  0
  2  1  1  6
  2  3  1  0
  2  4  1  0
  2  6  1  0
  4  5  1  0
  6  7  2  0
  6 11  1  0
  7  8  1  0
  8  9  2  0
  9 10  1  0
  9 22  1  0
 10 11  2  0
 10 12  1  0
 12 13  1  0
 13 14  1  0
 14 15  2  0
 14 21  1  0
 15 16  1  0
 16 17  1  0
 16 19  2  0
 17 18  2  0
 19 20  1  0
 20 21  2  0
 21 22  1  0
M  END
