
     RDKit          3D

 22 23  0  0  0  0  0  0  0  0999 V2000
    4.8990    1.9950    0.5200 C   0  0  0  0  0  0  0  0  0  0  0  0
    3.4000    1.9110    0.6810 C   0  0  0  0  0  0  0  0  0  0  0  0
    2.7790    2.7980    1.2990 O   0  0  0  0  0  0  0  0  0  0  0  0
    2.6870    0.8270    0.1340 N   0  0  0  0  0  0  0  0  0  0  0  0
    1.3040    0.5840    0.1790 C   0  0  0  0  0  0  0  0  0  0  0  0
    0.3980    1.5730    0.5080 C   0  0  0  0  0  0  0  0  0  0  0  0
   -0.9840    1.3530    0.4470 C   0  0  0  0  0  0  0  0  0  0  0  0
   -1.4610    0.1380    0.0540 C   0  0  0  0  0  0  0  0  0  0  0  0
   -2.8420   -0.1020   -0.0300 C   0  0  0  0  0  0  0  0  0  0  0  0
   -3.8780    1.2050    0.4060 S   0  0  2  0  0  0  0  0  0  0  0  0
   -5.4880    0.4580    0.1520 O   0  0  0  0  0  0  0  0  0  0  0  0
   -3.8250    2.3270   -0.6180 O   0  0  0  0  0  0  0  0  0  0  0  0
   -3.8910    1.5150    1.9360 O   0  0  0  0  0  0  0  0  0  0  0  0
   -3.2950   -1.3320   -0.4440 C   0  0  0  0  0  0  0  0  0  0  0  0
   -2.4420   -2.3520   -0.7840 C   0  0  0  0  0  0  0  0  0  0  0  0
   -1.0850   -2.1070   -0.6980 C   0  0  0  0  0  0  0  0  0  0  0  0
   -0.5910   -0.8800   -0.2840 C   0  0  0  0  0  0  0  0  0  0  0  0
    0.7910   -0.6360   -0.2110 C   0  0  0  0  0  0  0  0  0  0  0  0
    1.8160   -1.9810   -0.5300 S   0  0  2  0  0  0  0  0  0  0  0  0
    2.4310   -2.1500   -1.6590 O   0  0  0  0  0  0  0  0  0  0  0  0
    1.2500   -3.2770    0.4630 O   0  0  0  0  0  0  0  0  0  0  0  0
    3.1030   -1.5280    0.9090 O   0  0  0  0  0  0  0  0  0  0  0  0
  1  2  1  0
  2  3  2  0
  2  4  1  0
  4  5  1  0
  5  6  2  0
  5 18  1  0
  6  7  1  0
  7  8  2  0
  8  9  1  0
  8 17  1  0
  9 10  1  0
  9 14  2  0
 10 11  1  6
 10 12  1  0
 10 13  1  0
 14 15  1  0
 15 16  2  0
 16 17  1  0
 17 18  2  0
 18 19  1  0
 19 20  1  6
 19 21  1  0
 19 22  1  0
M  END
