
     RDKit          3D

 26 28  0  0  0  0  0  0  0  0999 V2000
   -0.8570    3.4710    1.4120 O   0  0  0  0  0  0  0  0  0  0  0  0
    0.1330    3.2030    0.5410 C   0  0  0  0  0  0  0  0  0  0  0  0
    0.0170    1.9100   -0.2400 C   0  0  0  0  0  0  0  0  0  0  0  0
    0.9630    1.0230   -0.1080 C   0  0  0  0  0  0  0  0  0  0  0  0
    1.2020   -0.2730   -0.6700 C   0  0  0  0  0  0  0  0  0  0  0  0
    2.3030   -0.9040   -0.2030 N   0  0  0  0  0  0  0  0  0  0  0  0
    3.1840   -0.3930    0.7470 C   0  0  0  0  0  0  0  0  0  0  0  0
    3.9980    0.7130    0.4630 C   0  0  0  0  0  0  0  0  0  0  0  0
    4.8680    1.2000    1.3890 C   0  0  0  0  0  0  0  0  0  0  0  0
    5.0040    0.6520    2.6410 C   0  0  0  0  0  0  0  0  0  0  0  0
    4.2170   -0.4300    2.9400 C   0  0  0  0  0  0  0  0  0  0  0  0
    3.3310   -0.9420    2.0220 C   0  0  0  0  0  0  0  0  0  0  0  0
    2.3800   -2.3370    2.4630 Cl  0  0  0  0  0  0  0  0  0  0  0  0
    0.5770   -1.0360   -1.6540 N   0  0  0  0  0  0  0  0  0  0  0  0
   -0.6450   -1.6710   -1.8750 C   0  0  0  0  0  0  0  0  0  0  0  0
   -1.0270   -1.7620   -3.2280 C   0  0  0  0  0  0  0  0  0  0  0  0
   -2.1580   -2.4020   -3.6670 C   0  0  0  0  0  0  0  0  0  0  0  0
   -2.9840   -2.9990   -2.7570 C   0  0  0  0  0  0  0  0  0  0  0  0
   -2.6310   -2.9210   -1.4360 C   0  0  0  0  0  0  0  0  0  0  0  0
   -1.4780   -2.2670   -0.9610 C   0  0  0  0  0  0  0  0  0  0  0  0
   -1.3470   -2.2810    0.4490 N   0  0  0  0  0  0  0  0  0  0  0  0
   -1.2040   -1.2520    1.4160 C   0  0  0  0  0  0  0  0  0  0  0  0
   -2.0020   -0.0260    1.3550 C   0  0  0  0  0  0  0  0  0  0  0  0
   -2.7170    0.3550    0.2090 N   0  0  0  0  0  0  0  0  0  0  0  0
   -2.4750    1.6960   -0.2980 C   0  0  0  0  0  0  0  0  0  0  0  0
   -1.1970    1.8370   -1.0820 C   0  0  0  0  0  0  0  0  0  0  0  0
  1  2  1  0
  2  3  1  0
  3  4  2  0
  3 26  1  0
  4  5  1  0
  5  6  2  3
  5 14  1  0
  6  7  1  0
  7  8  2  0
  7 12  1  0
  8  9  1  0
  9 10  2  0
 10 11  1  0
 11 12  2  0
 12 13  1  0
 14 15  1  0
 15 16  2  0
 15 20  1  0
 16 17  1  0
 17 18  2  0
 18 19  1  0
 19 20  2  0
 20 21  1  0
 21 22  1  0
 22 23  1  0
 23 24  1  0
 24 25  1  0
 25 26  1  0
M  CHG  1  24   1
M  END
