
     RDKit          3D

 25 27  0  0  0  0  0  0  0  0999 V2000
   -4.3610   -3.2570    0.4420 N   0  0  0  0  0  0  0  0  0  0  0  0
   -3.8400   -2.1590    0.0340 C   0  0  0  0  0  0  0  0  0  0  0  0
   -4.5610   -0.9390   -0.2890 C   0  0  0  0  0  0  0  0  0  0  0  0
   -5.8790   -0.8880   -0.1870 C   0  0  0  0  0  0  0  0  0  0  0  0
   -6.5880    0.3720   -0.5280 C   0  0  0  0  0  0  0  0  0  0  0  0
   -5.8270    1.5640   -0.0410 C   0  0  0  0  0  0  0  0  0  0  0  0
   -4.4440    1.3450    0.1640 N   0  0  0  0  0  0  0  0  0  0  0  0
   -3.9100    0.3150   -0.7410 C   0  0  1  0  0  0  0  0  0  0  0  0
   -2.4540    0.3270   -0.6910 C   0  0  0  0  0  0  0  0  0  0  0  0
   -1.7480   -0.0400    0.4170 C   0  0  0  0  0  0  0  0  0  0  0  0
   -0.3510    0.0020    0.4610 C   0  0  0  0  0  0  0  0  0  0  0  0
    0.3760    0.4190   -0.6190 C   0  0  0  0  0  0  0  0  0  0  0  0
    1.8090    0.4780   -0.6560 N   0  0  0  0  0  0  0  0  0  0  0  0
    2.6810   -0.0150    0.3110 C   0  0  0  0  0  0  0  0  0  0  0  0
    2.2700   -0.5760    1.3300 O   0  0  0  0  0  0  0  0  0  0  0  0
    4.1310    0.1430    0.1000 C   0  0  0  0  0  0  0  0  0  0  0  0
    4.7570    0.7380   -0.9700 C   0  0  0  0  0  0  0  0  0  0  0  0
    6.1080    0.6530   -0.7360 C   0  0  0  0  0  0  0  0  0  0  0  0
    6.2640    0.0140    0.4600 C   0  0  0  0  0  0  0  0  0  0  0  0
    7.5740   -0.2910    1.1030 C   0  0  0  0  0  0  0  0  0  0  0  0
    7.3200   -0.9670    2.3450 N   0  0  0  0  0  0  0  0  0  0  0  0
    5.0730   -0.2640    0.9100 O   0  0  0  0  0  0  0  0  0  0  0  0
   -0.3460    0.7960   -1.7560 C   0  0  0  0  0  0  0  0  0  0  0  0
   -1.7220    0.7460   -1.7770 C   0  0  0  0  0  0  0  0  0  0  0  0
   -2.3790    1.1240   -2.9090 F   0  0  0  0  0  0  0  0  0  0  0  0
  1  2  2  0
  2  3  1  0
  3  4  2  0
  3  8  1  0
  4  5  1  0
  5  6  1  0
  6  7  1  0
  7  8  1  0
  8  9  1  1
  9 10  2  0
  9 24  1  0
 10 11  1  0
 11 12  2  0
 12 13  1  0
 12 23  1  0
 13 14  1  0
 14 15  2  0
 14 16  1  0
 16 17  2  0
 16 22  1  0
 17 18  1  0
 18 19  2  0
 19 20  1  0
 19 22  1  0
 20 21  1  0
 23 24  2  0
 24 25  1  0
M  CHG  1  21   1
M  END
