
     RDKit          3D

 25 26  0  0  0  0  0  0  0  0999 V2000
   -4.4620   -1.2100   -2.9140 C   0  0  0  0  0  0  0  0  0  0  0  0
   -4.0070   -0.8740   -1.7210 C   0  0  0  0  0  0  0  0  0  0  0  0
   -4.8350   -0.3710   -0.7660 O   0  0  0  0  0  0  0  0  0  0  0  0
   -4.4780    0.0050    0.5110 C   0  0  0  0  0  0  0  0  0  0  0  0
   -3.0520   -0.1250    0.8640 C   0  0  0  0  0  0  0  0  0  0  0  0
   -2.6410    0.3640    2.1520 C   0  0  0  0  0  0  0  0  0  0  0  0
   -3.2750    0.8130    3.1330 N   0  0  0  0  0  0  0  0  0  0  0  0
   -4.6450    1.0140    3.3570 C   0  0  0  0  0  0  0  0  0  0  0  0
   -2.1940   -0.6100   -0.0160 C   0  0  0  0  0  0  0  0  0  0  0  0
   -0.7800   -0.7260    0.3800 C   0  0  0  0  0  0  0  0  0  0  0  0
    0.0800    0.1380   -0.3850 N   0  0  0  0  0  0  0  0  0  0  0  0
    1.4880    0.1240   -0.1190 C   0  0  0  0  0  0  0  0  0  0  0  0
    1.8970   -0.6500    0.7740 O   0  0  0  0  0  0  0  0  0  0  0  0
    2.3840    0.9330   -0.8200 N   0  0  0  0  0  0  0  0  0  0  0  0
    3.7770    1.0140   -0.6810 C   0  0  0  0  0  0  0  0  0  0  0  0
    4.4970    2.0010   -1.3510 C   0  0  0  0  0  0  0  0  0  0  0  0
    5.8430    2.0740   -1.2370 C   0  0  0  0  0  0  0  0  0  0  0  0
    6.5690    1.1770   -0.4530 C   0  0  0  0  0  0  0  0  0  0  0  0
    5.8910    0.1890    0.2240 C   0  0  0  0  0  0  0  0  0  0  0  0
    6.6020   -0.7320    1.0340 N   0  0  0  0  0  0  0  0  0  0  0  0
    4.5030    0.1370    0.0890 C   0  0  0  0  0  0  0  0  0  0  0  0
   -2.5590   -1.0350   -1.3870 C   0  0  0  0  0  0  0  0  0  0  0  0
   -1.7700   -1.4870   -2.2950 C   0  0  0  0  0  0  0  0  0  0  0  0
   -0.3670   -1.7880   -2.3680 C   0  0  0  0  0  0  0  0  0  0  0  0
    0.2660   -0.9040   -3.2780 F   0  0  0  0  0  0  0  0  0  0  0  0
  1  2  2  0
  2  3  1  0
  2 22  1  0
  3  4  1  0
  4  5  1  0
  5  6  1  0
  5  9  2  0
  6  7  2  3
  7  8  1  0
  9 10  1  0
  9 22  1  0
 10 11  1  0
 11 12  1  0
 12 13  2  0
 12 14  1  0
 14 15  1  0
 15 16  2  0
 15 21  1  0
 16 17  1  0
 17 18  2  0
 18 19  1  0
 19 20  1  0
 19 21  2  0
 22 23  2  3
 23 24  1  0
 24 25  1  0
M  CHG  1   7   1
M  END
