
     RDKit          3D

 19 20  0  0  0  0  0  0  0  0999 V2000
   -1.9000    2.6060    1.9810 C   0  0  0  0  0  0  0  0  0  0  0  0
   -1.3210    2.4010    0.8240 C   0  0  0  0  0  0  0  0  0  0  0  0
   -1.8250    3.1240   -0.2460 O   0  0  0  0  0  0  0  0  0  0  0  0
   -0.2180    1.4630    0.7220 C   0  0  0  0  0  0  0  0  0  0  0  0
   -0.3270    0.2740   -0.1420 C   0  0  1  0  0  0  0  0  0  0  0  0
   -1.4320   -0.6820    0.2020 C   0  0  2  0  0  0  0  0  0  0  0  0
   -2.7990   -0.1040    0.1310 C   0  0  0  0  0  0  0  0  0  0  0  0
   -1.2520   -1.0550    1.5670 O   0  0  0  0  0  0  0  0  0  0  0  0
   -1.3950   -1.9690   -0.5530 C   0  0  0  0  0  0  0  0  0  0  0  0
   -2.5900   -2.8140   -0.0740 C   0  0  0  0  0  0  0  0  0  0  0  0
   -0.3650    0.6920   -1.6000 C   0  0  0  0  0  0  0  0  0  0  0  0
    1.0330    0.6670   -2.2200 C   0  0  0  0  0  0  0  0  0  0  0  0
    1.9600    1.2000   -1.3450 O   0  0  0  0  0  0  0  0  0  0  0  0
    2.1910    0.2650   -0.3540 C   0  0  2  0  0  0  0  0  0  0  0  0
    2.9910    0.7530    0.8130 C   0  0  0  0  0  0  0  0  0  0  0  0
    3.7120   -0.5310    1.2290 C   0  0  0  0  0  0  0  0  0  0  0  0
    3.6800   -1.3910    0.1690 O   0  0  0  0  0  0  0  0  0  0  0  0
    3.1980   -0.7450   -0.9360 C   0  0  0  0  0  0  0  0  0  0  0  0
    0.9610   -0.5210    0.0050 C   0  0  0  0  0  0  0  0  0  0  0  0
  1  2  2  0
  2  3  1  0
  2  4  1  0
  5  4  1  1
  5  6  1  0
  5 11  1  0
  5 19  1  0
  6  7  1  1
  6  8  1  0
  6  9  1  0
  9 10  1  0
 11 12  1  0
 12 13  1  0
 13 14  1  0
 14 15  1  1
 14 18  1  0
 14 19  1  0
 15 16  1  0
 16 17  1  0
 17 18  1  0
M  END
