
     RDKit          3D

  9  9  0  0  0  0  0  0  0  0999 V2000
    2.4250    0.8400    0.4980 N   0  0  0  0  0  0  0  0  0  0  0  0
    2.3630   -0.4080   -0.1640 C   0  0  0  0  0  0  0  0  0  0  0  0
    1.0410   -0.9240   -0.4590 C   0  0  0  0  0  0  0  0  0  0  0  0
   -0.1170   -0.4170   -0.2100 C   0  0  0  0  0  0  0  0  0  0  0  0
   -0.3840    0.8510    0.4580 C   0  0  0  0  0  0  0  0  0  0  0  0
   -1.6540    1.2390    0.6420 C   0  0  0  0  0  0  0  0  0  0  0  0
   -2.8100    0.4770    0.2200 C   0  0  0  0  0  0  0  0  0  0  0  0
   -2.5720   -0.6710   -0.3850 C   0  0  0  0  0  0  0  0  0  0  0  0
   -1.2850   -1.1830   -0.6350 N   0  0  0  0  0  0  0  0  0  0  0  0
  1  2  1  0
  2  3  1  0
  3  4  2  3
  4  5  1  0
  4  9  1  0
  5  6  2  0
  6  7  1  0
  7  8  2  0
  8  9  1  0
M  END
