
     RDKit          3D

  9  9  0  0  0  0  0  0  0  0999 V2000
    2.4080   -1.1040    0.1130 C   0  0  0  0  0  0  0  0  0  0  0  0
    1.6980   -0.0090    0.0820 C   0  0  0  0  0  0  0  0  0  0  0  0
    2.4150    1.2380    0.0270 N   0  0  0  0  0  0  0  0  0  0  0  0
    0.2360    0.0320    0.0990 C   0  0  0  0  0  0  0  0  0  0  0  0
   -0.3780    1.2300    0.0630 C   0  0  0  0  0  0  0  0  0  0  0  0
   -1.8280    1.3050    0.0780 C   0  0  0  0  0  0  0  0  0  0  0  0
   -2.5290    0.2010    0.1270 C   0  0  0  0  0  0  0  0  0  0  0  0
   -1.9530   -1.1410    0.1690 C   0  0  0  0  0  0  0  0  0  0  0  0
   -0.5110   -1.1690    0.1520 N   0  0  0  0  0  0  0  0  0  0  0  0
  1  2  2  0
  2  3  1  0
  2  4  1  0
  4  5  2  0
  4  9  1  0
  5  6  1  0
  6  7  2  0
  7  8  1  0
  8  9  1  0
M  END
