
     RDKit          3D

 23 26  0  0  0  0  0  0  0  0999 V2000
    2.2410    3.2560    1.3790 C   0  0  0  0  0  0  0  0  0  0  0  0
    1.8610    2.0320    0.7910 O   0  0  0  0  0  0  0  0  0  0  0  0
    1.3730    1.9280   -0.5030 C   0  0  0  0  0  0  0  0  0  0  0  0
    1.2750    2.9910   -1.1600 O   0  0  0  0  0  0  0  0  0  0  0  0
    0.9780    0.6310   -1.1110 C   0  0  1  0  0  0  0  0  0  0  0  0
    2.2200   -0.2230   -1.2520 C   0  0  2  0  0  0  0  0  0  0  0  0
    2.2470   -0.9770   -2.5540 C   0  0  0  0  0  0  0  0  0  0  0  0
    2.4770   -1.0390   -0.0600 C   0  0  0  0  0  0  0  0  0  0  0  0
    3.5190   -1.8010    0.2110 C   0  0  0  0  0  0  0  0  0  0  0  0
    3.3690   -2.4480    1.5240 C   0  0  0  0  0  0  0  0  0  0  0  0
    2.0790   -1.9530    1.9870 C   0  0  0  0  0  0  0  0  0  0  0  0
    1.5530   -1.1320    1.0690 C   0  0  0  0  0  0  0  0  0  0  0  0
    0.2690   -0.3760    1.0660 C   0  0  0  0  0  0  0  0  0  0  0  0
   -0.1090   -0.0690   -0.3370 C   0  0  2  0  0  0  0  0  0  0  0  0
   -0.3390   -1.4320   -1.0160 C   0  0  0  0  0  0  0  0  0  0  0  0
   -1.4130   -2.2310   -0.3260 C   0  0  0  0  0  0  0  0  0  0  0  0
   -2.6550   -1.4970   -0.0160 C   0  0  0  0  0  0  0  0  0  0  0  0
   -2.5430   -0.0480    0.2420 C   0  0  2  0  0  0  0  0  0  0  0  0
   -2.6150    0.3450    1.6810 C   0  0  0  0  0  0  0  0  0  0  0  0
   -3.6770    0.7540   -0.4380 C   0  0  0  0  0  0  0  0  0  0  0  0
   -3.1260    2.1620   -0.1580 C   0  0  0  0  0  0  0  0  0  0  0  0
   -1.6000    2.0220   -0.2960 C   0  0  0  0  0  0  0  0  0  0  0  0
   -1.4070    0.6030   -0.5340 C   0  0  1  0  0  0  0  0  0  0  0  0
  1  2  1  0
  2  3  1  0
  3  4  2  0
  5  3  1  1
  5  6  1  0
  5 14  1  0
  6  7  1  6
  6  8  1  0
  8  9  2  0
  8 12  1  0
  9 10  1  0
 10 11  1  0
 11 12  2  0
 12 13  1  0
 14 13  1  1
 14 15  1  0
 14 23  1  0
 15 16  1  0
 16 17  1  0
 17 18  1  0
 18 19  1  1
 18 20  1  0
 18 23  1  0
 20 21  1  0
 21 22  1  0
 23 22  1  1
M  END
