
     RDKit          3D

  9  9  0  0  0  0  0  0  0  0999 V2000
    0.9270   -2.0500    0.3930 N   0  0  0  0  0  0  0  0  0  0  0  0
    1.6120   -0.8190    0.3500 C   0  0  0  0  0  0  0  0  0  0  0  0
    0.9710    0.2780   -0.0010 C   0  0  0  0  0  0  0  0  0  0  0  0
    1.6370    1.6050   -0.0660 C   0  0  0  0  0  0  0  0  0  0  0  0
    0.7060    2.4500   -0.4450 C   0  0  0  0  0  0  0  0  0  0  0  0
   -0.5530    1.7550   -0.6390 C   0  0  0  0  0  0  0  0  0  0  0  0
   -0.4140    0.4620   -0.3790 C   0  0  0  0  0  0  0  0  0  0  0  0
   -1.4600   -0.5630   -0.4630 C   0  0  0  0  0  0  0  0  0  0  0  0
   -1.7290   -1.2480    0.7730 N   0  0  0  0  0  0  0  0  0  0  0  0
  1  2  1  0
  2  3  2  3
  3  4  1  0
  3  7  1  0
  4  5  2  0
  5  6  1  0
  6  7  2  0
  7  8  1  0
  8  9  1  0
M  END
