
     RDKit          3D

  9  9  0  0  0  0  0  0  0  0999 V2000
   -2.8240   -0.4290    0.4290 C   0  0  0  0  0  0  0  0  0  0  0  0
   -2.0900    0.6130   -0.2610 N   0  0  0  0  0  0  0  0  0  0  0  0
   -0.6880    0.3530   -0.2740 C   0  0  0  0  0  0  0  0  0  0  0  0
    0.0380    0.4230   -1.4450 C   0  0  0  0  0  0  0  0  0  0  0  0
    1.3960    0.1740   -1.4770 C   0  0  0  0  0  0  0  0  0  0  0  0
    2.0990   -0.1580   -0.3350 C   0  0  0  0  0  0  0  0  0  0  0  0
    3.4970   -0.4150   -0.3620 N   0  0  0  0  0  0  0  0  0  0  0  0
    1.3710   -0.2270    0.8370 C   0  0  0  0  0  0  0  0  0  0  0  0
    0.0120    0.0220    0.8670 C   0  0  0  0  0  0  0  0  0  0  0  0
  1  2  1  0
  2  3  1  0
  3  4  2  0
  3  9  1  0
  4  5  1  0
  5  6  2  0
  6  7  1  0
  6  8  1  0
  8  9  2  0
M  CHG  1   2   1
M  END
