
     RDKit          3D

  9  9  0  0  0  0  0  0  0  0999 V2000
    2.8810   -0.7200   -0.0760 C   0  0  0  0  0  0  0  0  0  0  0  0
    1.4650   -0.9030   -0.2170 N   0  0  0  0  0  0  0  0  0  0  0  0
    0.5280    0.1710   -0.1280 C   0  0  0  0  0  0  0  0  0  0  0  0
    0.7860    1.4690   -0.1770 C   0  0  0  0  0  0  0  0  0  0  0  0
   -0.4640    2.2190   -0.0470 C   0  0  0  0  0  0  0  0  0  0  0  0
   -1.4840    1.3740    0.0820 C   0  0  0  0  0  0  0  0  0  0  0  0
   -0.9100    0.0370    0.0370 C   0  0  0  0  0  0  0  0  0  0  0  0
   -1.5650   -1.1100    0.1290 C   0  0  0  0  0  0  0  0  0  0  0  0
   -2.9580   -1.0880    0.2870 N   0  0  0  0  0  0  0  0  0  0  0  0
  1  2  1  0
  2  3  1  0
  3  4  2  0
  3  7  1  0
  4  5  1  0
  5  6  2  0
  6  7  1  0
  7  8  2  3
  8  9  1  0
M  END
