
     RDKit          3D

  9  9  0  0  0  0  0  0  0  0999 V2000
   -2.0560   -1.5270   -0.3510 C   0  0  0  0  0  0  0  0  0  0  0  0
   -1.6580   -0.3440    0.0030 C   0  0  0  0  0  0  0  0  0  0  0  0
   -2.6490    0.6230    0.3820 N   0  0  0  0  0  0  0  0  0  0  0  0
   -0.2470   -0.0090    0.0150 C   0  0  0  0  0  0  0  0  0  0  0  0
    0.0820    1.2440    0.3960 C   0  0  0  0  0  0  0  0  0  0  0  0
    1.4990    1.5480    0.3980 C   0  0  0  0  0  0  0  0  0  0  0  0
    2.4590    0.7190    0.0660 C   0  0  0  0  0  0  0  0  0  0  0  0
    2.1670   -0.6480   -0.3550 C   0  0  0  0  0  0  0  0  0  0  0  0
    0.7540   -0.9140   -0.3440 N   0  0  0  0  0  0  0  0  0  0  0  0
  1  2  2  0
  2  3  1  0
  2  4  1  0
  4  5  2  0
  4  9  1  0
  5  6  1  0
  6  7  2  0
  7  8  1  0
  8  9  1  0
M  END
