
     RDKit          3D

  9  9  0  0  0  0  0  0  0  0999 V2000
    2.7140    0.8940    0.3190 C   0  0  0  0  0  0  0  0  0  0  0  0
    2.1410   -0.3730   -0.0980 N   0  0  0  0  0  0  0  0  0  0  0  0
    0.7040   -0.3120   -0.1270 C   0  0  0  0  0  0  0  0  0  0  0  0
    0.0290   -0.0170    1.0380 C   0  0  0  0  0  0  0  0  0  0  0  0
   -1.3490    0.0560    1.0770 C   0  0  0  0  0  0  0  0  0  0  0  0
   -2.0800   -0.1700   -0.0780 C   0  0  0  0  0  0  0  0  0  0  0  0
   -3.5060   -0.0920   -0.0280 N   0  0  0  0  0  0  0  0  0  0  0  0
   -1.4010   -0.4620   -1.2270 C   0  0  0  0  0  0  0  0  0  0  0  0
   -0.0180   -0.5390   -1.2810 C   0  0  0  0  0  0  0  0  0  0  0  0
  1  2  1  0
  2  3  1  0
  3  4  2  0
  3  9  1  0
  4  5  1  0
  5  6  2  0
  6  7  1  0
  6  8  1  0
  8  9  2  0
M  CHG  1   2   1
M  END
