
     RDKit          3D

  9  9  0  0  0  0  0  0  0  0999 V2000
    2.4310    0.0560   -0.4380 C   0  0  0  0  0  0  0  0  0  0  0  0
    1.0830   -0.3160   -0.8890 N   0  0  0  0  0  0  0  0  0  0  0  0
   -0.0400    0.4320   -0.4190 C   0  0  0  0  0  0  0  0  0  0  0  0
   -0.3170    1.7150   -0.6520 C   0  0  0  0  0  0  0  0  0  0  0  0
   -1.5630    2.0560    0.0250 C   0  0  0  0  0  0  0  0  0  0  0  0
   -2.0490    1.0220    0.6610 C   0  0  0  0  0  0  0  0  0  0  0  0
   -1.1100   -0.0920    0.4230 C   0  0  0  0  0  0  0  0  0  0  0  0
   -1.2050   -1.3310    0.8770 C   0  0  0  0  0  0  0  0  0  0  0  0
   -0.2010   -2.2820    0.5460 N   0  0  0  0  0  0  0  0  0  0  0  0
  1  2  1  0
  2  3  1  0
  3  4  2  0
  3  7  1  0
  4  5  1  0
  5  6  2  0
  6  7  1  0
  7  8  2  3
  8  9  1  0
M  END
