
     RDKit          3D

  9  9  0  0  0  0  0  0  0  0999 V2000
    3.2790    0.1130   -0.1350 C   0  0  0  0  0  0  0  0  0  0  0  0
    2.1900    0.0450    0.7890 N   0  0  0  0  0  0  0  0  0  0  0  0
    0.8370    0.0170    0.3280 C   0  0  0  0  0  0  0  0  0  0  0  0
    0.5420    0.0550   -1.0200 C   0  0  0  0  0  0  0  0  0  0  0  0
   -0.7840    0.0260   -1.4310 C   0  0  0  0  0  0  0  0  0  0  0  0
   -1.8380   -0.0400   -0.5420 C   0  0  0  0  0  0  0  0  0  0  0  0
   -3.1840   -0.0670   -1.0130 N   0  0  0  0  0  0  0  0  0  0  0  0
   -1.5340   -0.0780    0.8050 C   0  0  0  0  0  0  0  0  0  0  0  0
   -0.2180   -0.0490    1.2130 C   0  0  0  0  0  0  0  0  0  0  0  0
  1  2  1  0
  2  3  1  0
  3  4  2  0
  3  9  1  0
  4  5  1  0
  5  6  2  0
  6  7  1  0
  6  8  1  0
  8  9  2  0
M  CHG  1   7   1
M  END
