
     RDKit          3D

 25 27  0  0  0  0  0  0  0  0999 V2000
   -3.2740   -2.1730    1.7470 C   0  0  0  0  0  0  0  0  0  0  0  0
   -2.1330   -1.4460    1.1730 C   0  0  0  0  0  0  0  0  0  0  0  0
   -0.9100   -1.8830    1.6270 F   0  0  0  0  0  0  0  0  0  0  0  0
   -2.2240   -0.3830    0.4230 C   0  0  0  0  0  0  0  0  0  0  0  0
   -3.4740    0.3070    0.0160 C   0  0  0  0  0  0  0  0  0  0  0  0
   -4.7440   -0.0150    0.1610 C   0  0  0  0  0  0  0  0  0  0  0  0
   -5.7970    0.9250   -0.3730 C   0  0  0  0  0  0  0  0  0  0  0  0
   -5.2830    1.4950   -1.6660 C   0  0  0  0  0  0  0  0  0  0  0  0
   -4.1350    2.4160   -1.2370 C   0  0  0  0  0  0  0  0  0  0  0  0
   -3.1240    1.4980   -0.6810 N   0  0  0  0  0  0  0  0  0  0  0  0
   -1.7030    1.5740   -0.7270 C   0  0  0  0  0  0  0  0  0  0  0  0
   -1.1440    2.5660   -1.2990 O   0  0  0  0  0  0  0  0  0  0  0  0
   -1.1010    0.4480   -0.0770 C   0  0  0  0  0  0  0  0  0  0  0  0
    0.2070    0.1270   -0.1680 C   0  0  0  0  0  0  0  0  0  0  0  0
    1.1120    1.1440   -0.6660 N   0  0  0  0  0  0  0  0  0  0  0  0
    0.7330   -1.2020   -0.1870 C   0  0  0  0  0  0  0  0  0  0  0  0
    1.8660   -1.7700   -0.1640 C   0  0  0  0  0  0  0  0  0  0  0  0
    3.2630   -1.5090   -0.0970 C   0  0  0  0  0  0  0  0  0  0  0  0
    4.0290   -2.5750   -0.1930 O   0  0  0  0  0  0  0  0  0  0  0  0
    4.0170   -0.3460    0.0580 N   0  0  0  0  0  0  0  0  0  0  0  0
    5.4670   -0.3110    0.0980 C   0  0  0  0  0  0  0  0  0  0  0  0
    6.3740   -1.3250    0.0010 C   0  0  0  0  0  0  0  0  0  0  0  0
    7.6710   -0.8040    0.0940 C   0  0  0  0  0  0  0  0  0  0  0  0
    7.5040    0.5470    0.2490 C   0  0  0  0  0  0  0  0  0  0  0  0
    6.1970    0.8300    0.2500 N   0  0  0  0  0  0  0  0  0  0  0  0
  1  2  1  0
  2  3  1  0
  2  4  2  3
  4  5  1  0
  4 13  1  0
  5  6  2  0
  5 10  1  0
  6  7  1  0
  7  8  1  0
  8  9  1  0
  9 10  1  0
 10 11  1  0
 11 12  2  0
 11 13  1  0
 13 14  2  3
 14 15  1  0
 14 16  1  0
 16 17  2  3
 17 18  1  0
 18 19  2  0
 18 20  1  0
 20 21  1  0
 21 22  2  0
 21 25  1  0
 22 23  1  0
 23 24  2  0
 24 25  1  0
M  CHG  1  15   1
M  END
