
     RDKit          3D

 25 27  0  0  0  0  0  0  0  0999 V2000
   -6.5720    0.9550    1.4100 C   0  0  0  0  0  0  0  0  0  0  0  0
   -5.3830    0.5120    0.6470 C   0  0  0  0  0  0  0  0  0  0  0  0
   -4.1070    0.6940    1.1400 C   0  0  0  0  0  0  0  0  0  0  0  0
   -3.0190    0.2610    0.3870 C   0  0  0  0  0  0  0  0  0  0  0  0
   -1.7330    0.4350    0.8670 C   0  0  0  0  0  0  0  0  0  0  0  0
   -0.6430    0.0300    0.1680 C   0  0  0  0  0  0  0  0  0  0  0  0
    0.6950    0.1720    0.5890 N   0  0  0  0  0  0  0  0  0  0  0  0
    1.1320    0.7470    1.7790 C   0  0  0  0  0  0  0  0  0  0  0  0
    0.3230    1.2030    2.6070 O   0  0  0  0  0  0  0  0  0  0  0  0
    2.6250    0.8260    2.0880 C   0  0  0  0  0  0  0  0  0  0  0  0
    3.3820    0.2430    1.0030 N   0  0  0  0  0  0  0  0  0  0  0  0
    4.8140    0.3690    1.2560 C   0  0  0  0  0  0  0  0  0  0  0  0
    5.5190   -0.0210    0.0150 C   0  0  0  0  0  0  0  0  0  0  0  0
    5.8470    0.8730   -0.9800 C   0  0  0  0  0  0  0  0  0  0  0  0
    6.4840    0.1570   -1.9580 C   0  0  0  0  0  0  0  0  0  0  0  0
    6.5160   -1.1590   -1.5080 C   0  0  0  0  0  0  0  0  0  0  0  0
    5.9320   -1.2500   -0.3200 N   0  0  0  0  0  0  0  0  0  0  0  0
   -0.9110   -0.5780   -1.0710 C   0  0  0  0  0  0  0  0  0  0  0  0
    0.0820   -0.9650   -1.7420 O   0  0  0  0  0  0  0  0  0  0  0  0
   -2.1470   -0.7350   -1.5090 N   0  0  0  0  0  0  0  0  0  0  0  0
   -3.2410   -0.3390   -0.8310 C   0  0  0  0  0  0  0  0  0  0  0  0
   -4.4980   -0.5290   -1.3380 C   0  0  0  0  0  0  0  0  0  0  0  0
   -4.7110   -1.1680   -2.6340 C   0  0  0  0  0  0  0  0  0  0  0  0
   -5.5620   -0.0950   -0.5810 C   0  0  0  0  0  0  0  0  0  0  0  0
   -6.8060   -0.2670   -1.0500 F   0  0  0  0  0  0  0  0  0  0  0  0
  1  2  1  0
  2  3  2  0
  2 24  1  0
  3  4  1  0
  4  5  1  0
  4 21  2  0
  5  6  2  0
  6  7  1  0
  6 18  1  0
  7  8  1  0
  8  9  2  0
  8 10  1  0
 10 11  1  0
 11 12  1  0
 12 13  1  0
 13 14  2  0
 13 17  1  0
 14 15  1  0
 15 16  2  0
 16 17  1  0
 18 19  2  0
 18 20  1  0
 20 21  1  0
 21 22  1  0
 22 23  1  0
 22 24  2  0
 24 25  1  0
M  CHG  1  11   1
M  END
