
     RDKit          3D

 25 26  0  0  0  0  0  0  0  0999 V2000
   -4.3200   -0.4380   -1.5810 C   0  0  0  0  0  0  0  0  0  0  0  0
   -3.4950   -1.4230   -2.3300 C   0  0  1  0  0  0  0  0  0  0  0  0
   -2.4650   -0.7160   -3.1180 N   0  0  0  0  0  0  0  0  0  0  0  0
   -2.7900   -2.4650   -1.5230 C   0  0  0  0  0  0  0  0  0  0  0  0
   -1.8880   -1.8300   -0.5900 N   0  0  0  0  0  0  0  0  0  0  0  0
   -2.2430   -1.2800    0.6580 C   0  0  0  0  0  0  0  0  0  0  0  0
   -3.4680   -1.5710    1.2510 C   0  0  0  0  0  0  0  0  0  0  0  0
   -3.7740   -1.0880    2.5040 C   0  0  0  0  0  0  0  0  0  0  0  0
   -5.0230   -1.3900    3.0970 N   0  0  0  0  0  0  0  0  0  0  0  0
   -2.8710   -0.3120    3.1830 C   0  0  0  0  0  0  0  0  0  0  0  0
   -1.6320   -0.0020    2.6130 C   0  0  0  0  0  0  0  0  0  0  0  0
   -1.3540   -0.4960    1.3620 C   0  0  0  0  0  0  0  0  0  0  0  0
   -0.1330   -0.1500    0.7400 N   0  0  0  0  0  0  0  0  0  0  0  0
    0.9790    0.4980    1.3170 C   0  0  0  0  0  0  0  0  0  0  0  0
    0.9820    0.8390    2.5110 O   0  0  0  0  0  0  0  0  0  0  0  0
    2.1740    0.7950    0.5350 C   0  0  0  0  0  0  0  0  0  0  0  0
    3.2160    1.4000    1.0690 C   0  0  0  0  0  0  0  0  0  0  0  0
    4.4010    1.7040    0.3260 C   0  0  0  0  0  0  0  0  0  0  0  0
    5.3570    2.3120    1.0030 C   0  0  0  0  0  0  0  0  0  0  0  0
    6.6590    2.7300    0.4810 C   0  0  0  0  0  0  0  0  0  0  0  0
    7.3680    3.4770    1.3580 F   0  0  0  0  0  0  0  0  0  0  0  0
    7.1810    2.4610   -0.7020 C   0  0  0  0  0  0  0  0  0  0  0  0
    6.5950    1.6840   -1.7850 C   0  0  0  0  0  0  0  0  0  0  0  0
    5.3790    1.1820   -1.9260 C   0  0  0  0  0  0  0  0  0  0  0  0
    4.3510    1.2980   -1.0210 O   0  0  0  0  0  0  0  0  0  0  0  0
  2  1  1  1
  2  3  1  0
  2  4  1  0
  4  5  1  0
  5  6  1  0
  6  7  2  0
  6 12  1  0
  7  8  1  0
  8  9  1  0
  8 10  2  0
 10 11  1  0
 11 12  2  0
 12 13  1  0
 13 14  1  0
 14 15  2  0
 14 16  1  0
 16 17  2  3
 17 18  1  0
 18 19  2  0
 18 25  1  0
 19 20  1  0
 20 21  1  0
 20 22  2  0
 22 23  1  0
 23 24  2  0
 24 25  1  0
M  CHG  1   3   1
M  END
