
     RDKit          3D

 26 28  0  0  0  0  0  0  0  0999 V2000
   -6.7100    1.1210    1.1930 C   0  0  0  0  0  0  0  0  0  0  0  0
   -5.2900    0.5750    1.0570 C   0  0  0  0  0  0  0  0  0  0  0  0
   -5.3210   -0.5600    0.0640 C   0  0  0  0  0  0  0  0  0  0  0  0
   -4.0180   -1.1540   -0.1390 N   0  0  0  0  0  0  0  0  0  0  0  0
   -2.9530   -0.4860   -0.7790 C   0  0  0  0  0  0  0  0  0  0  0  0
   -3.1650    1.0210   -1.3310 S   0  0  0  0  0  0  0  0  0  0  0  0
   -1.6780   -1.1520   -0.9400 C   0  0  0  0  0  0  0  0  0  0  0  0
   -0.6580   -0.9300   -0.0470 C   0  0  0  0  0  0  0  0  0  0  0  0
    0.5560   -1.5790   -0.2130 C   0  0  0  0  0  0  0  0  0  0  0  0
    1.6130   -1.3740    0.6770 O   0  0  0  0  0  0  0  0  0  0  0  0
    2.5160   -0.3620    0.3440 C   0  0  0  0  0  0  0  0  0  0  0  0
    2.4060    0.3750   -0.8140 C   0  0  0  0  0  0  0  0  0  0  0  0
    3.3360    1.3560   -1.0720 C   0  0  0  0  0  0  0  0  0  0  0  0
    4.3850    1.6370   -0.2100 C   0  0  0  0  0  0  0  0  0  0  0  0
    4.4950    0.9000    0.9510 C   0  0  0  0  0  0  0  0  0  0  0  0
    3.5720   -0.0870    1.2240 C   0  0  0  0  0  0  0  0  0  0  0  0
    5.5570    1.2060    1.7920 O   0  0  0  0  0  0  0  0  0  0  0  0
    6.5860    2.1000    1.4790 C   0  0  0  0  0  0  0  0  0  0  0  0
    6.0840    3.1850    0.5830 C   0  0  0  0  0  0  0  0  0  0  0  0
    5.3190    2.6180   -0.4630 O   0  0  0  0  0  0  0  0  0  0  0  0
    0.6840   -2.4310   -1.2840 C   0  0  0  0  0  0  0  0  0  0  0  0
   -0.3140   -2.6700   -2.1870 C   0  0  0  0  0  0  0  0  0  0  0  0
   -0.1760   -3.5630   -3.3120 C   0  0  0  0  0  0  0  0  0  0  0  0
   -0.0460   -4.2830   -4.2070 N   0  0  0  0  0  0  0  0  0  0  0  0
   -1.5190   -2.0090   -2.0000 C   0  0  0  0  0  0  0  0  0  0  0  0
   -2.5360   -2.2520   -2.9210 O   0  0  0  0  0  0  0  0  0  0  0  0
  1  2  1  0
  2  3  1  0
  3  4  1  0
  4  5  1  0
  5  6  2  0
  5  7  1  0
  7  8  2  0
  7 25  1  0
  8  9  1  0
  9 10  1  0
  9 21  2  0
 10 11  1  0
 11 12  2  0
 11 16  1  0
 12 13  1  0
 13 14  2  0
 14 15  1  0
 14 20  1  0
 15 16  2  0
 15 17  1  0
 17 18  1  0
 18 19  1  0
 19 20  1  0
 21 22  1  0
 22 23  1  0
 22 25  2  0
 23 24  3  0
 25 26  1  0
M  END
