
     RDKit          3D

 26 28  0  0  0  0  0  0  0  0999 V2000
   -9.1050    0.4740    1.1210 C   0  0  0  0  0  0  0  0  0  0  0  0
   -7.8700    0.2090    0.4640 O   0  0  0  0  0  0  0  0  0  0  0  0
   -6.6400    0.3970    1.0250 C   0  0  0  0  0  0  0  0  0  0  0  0
   -6.5820    0.8330    2.2030 O   0  0  0  0  0  0  0  0  0  0  0  0
   -5.3770    0.1250    0.3480 C   0  0  0  0  0  0  0  0  0  0  0  0
   -4.1610    0.3250    0.9510 C   0  0  0  0  0  0  0  0  0  0  0  0
   -2.9490    0.0590    0.2890 C   0  0  0  0  0  0  0  0  0  0  0  0
   -1.7070    0.2870    1.0120 C   0  0  0  0  0  0  0  0  0  0  0  0
   -1.6940    0.6610    2.2190 O   0  0  0  0  0  0  0  0  0  0  0  0
   -0.4190    0.0680    0.2790 C   0  0  1  0  0  0  0  0  0  0  0  0
   -0.3910    1.0870   -0.8430 C   0  0  0  0  0  0  0  0  0  0  0  0
    0.9850    0.3190    1.4010 S   0  0  0  0  0  0  0  0  0  0  0  0
    2.4810   -0.1440    0.5510 C   0  0  0  0  0  0  0  0  0  0  0  0
    2.4590   -0.6930   -0.7090 C   0  0  0  0  0  0  0  0  0  0  0  0
    3.6290   -1.0400   -1.3730 C   0  0  0  0  0  0  0  0  0  0  0  0
    4.8180   -0.8080   -0.7110 C   0  0  0  0  0  0  0  0  0  0  0  0
    4.8440   -0.2550    0.5580 C   0  0  0  0  0  0  0  0  0  0  0  0
    3.6960    0.0770    1.1920 C   0  0  0  0  0  0  0  0  0  0  0  0
    6.2140   -0.0640    1.1480 C   0  0  0  0  0  0  0  0  0  0  0  0
    7.1600    0.4910    0.1410 C   0  0  0  0  0  0  0  0  0  0  0  0
    7.1200   -0.1220   -1.1440 N   0  0  0  0  0  0  0  0  0  0  0  0
    6.1340   -1.1350   -1.3170 C   0  0  0  0  0  0  0  0  0  0  0  0
   -2.9640   -0.4160   -0.9970 C   0  0  0  0  0  0  0  0  0  0  0  0
   -4.1820   -0.6090   -1.5790 N   0  0  0  0  0  0  0  0  0  0  0  0
   -5.3430   -0.3560   -0.9510 C   0  0  0  0  0  0  0  0  0  0  0  0
   -6.4590   -0.5480   -1.5280 O   0  0  0  0  0  0  0  0  0  0  0  0
  1  2  1  0
  2  3  1  0
  3  4  2  0
  3  5  1  0
  5  6  2  0
  5 25  1  0
  6  7  1  0
  7  8  1  0
  7 23  2  0
  8  9  2  0
  8 10  1  0
 10 11  1  6
 10 12  1  0
 12 13  1  0
 13 14  2  0
 13 18  1  0
 14 15  1  0
 15 16  2  0
 16 17  1  0
 16 22  1  0
 17 18  2  0
 17 19  1  0
 19 20  1  0
 20 21  1  0
 21 22  1  0
 23 24  1  0
 24 25  1  0
 25 26  2  0
M  END
