
     RDKit          3D

 26 28  0  0  0  0  0  0  0  0999 V2000
    7.1370    0.2260    0.8880 C   0  0  0  0  0  0  0  0  0  0  0  0
    5.8030    0.5730    0.1890 C   0  0  0  0  0  0  0  0  0  0  0  0
    5.2020   -0.6940   -0.2310 C   0  0  0  0  0  0  0  0  0  0  0  0
    5.6890   -1.7840    0.1740 O   0  0  0  0  0  0  0  0  0  0  0  0
    4.0340   -0.8290   -1.1230 C   0  0  0  0  0  0  0  0  0  0  0  0
    3.3550    0.6580   -1.7810 S   0  0  0  0  0  0  0  0  0  0  0  0
    4.3410    1.3290   -2.7240 O   0  0  0  0  0  0  0  0  0  0  0  0
    2.7470    1.8050   -0.6060 C   0  0  0  0  0  0  0  0  0  0  0  0
    1.6570    1.2550    0.2520 C   0  0  0  0  0  0  0  0  0  0  0  0
    1.9920    0.8380    1.3640 O   0  0  0  0  0  0  0  0  0  0  0  0
    0.3170    1.2040   -0.1610 N   0  0  0  0  0  0  0  0  0  0  0  0
   -0.7660    0.7160    0.5670 C   0  0  0  0  0  0  0  0  0  0  0  0
   -0.7540    0.5460    1.9210 C   0  0  0  0  0  0  0  0  0  0  0  0
   -1.8850    0.0270    2.5320 C   0  0  0  0  0  0  0  0  0  0  0  0
   -3.0020   -0.3110    1.7760 C   0  0  0  0  0  0  0  0  0  0  0  0
   -4.1000   -0.8230    2.3820 N   0  0  0  0  0  0  0  0  0  0  0  0
   -5.1830   -1.1580    1.6680 C   0  0  0  0  0  0  0  0  0  0  0  0
   -6.1940   -1.6320    2.2620 O   0  0  0  0  0  0  0  0  0  0  0  0
   -5.2270   -0.9990    0.2960 C   0  0  0  0  0  0  0  0  0  0  0  0
   -6.3540   -1.3540   -0.4360 C   0  0  0  0  0  0  0  0  0  0  0  0
   -6.3960   -1.2000   -1.7980 C   0  0  0  0  0  0  0  0  0  0  0  0
   -5.2770   -0.6740   -2.4480 C   0  0  0  0  0  0  0  0  0  0  0  0
   -4.1450   -0.3130   -1.7470 C   0  0  0  0  0  0  0  0  0  0  0  0
   -4.1280   -0.4790   -0.3730 C   0  0  0  0  0  0  0  0  0  0  0  0
   -3.0310   -0.1460    0.4080 C   0  0  0  0  0  0  0  0  0  0  0  0
   -1.9220    0.3630   -0.1850 C   0  0  0  0  0  0  0  0  0  0  0  0
  1  2  1  0
  2  3  1  0
  3  4  2  0
  3  5  1  0
  6  5  1  1
  6  7  2  0
  6  8  1  0
  8  9  1  0
  9 10  2  0
  9 11  1  0
 11 12  1  0
 12 13  2  0
 12 26  1  0
 13 14  1  0
 14 15  2  0
 15 16  1  0
 15 25  1  0
 16 17  1  0
 17 18  2  0
 17 19  1  0
 19 20  2  0
 19 24  1  0
 20 21  1  0
 21 22  2  0
 22 23  1  0
 23 24  2  0
 24 25  1  0
 25 26  2  0
M  END
