
     RDKit          3D

 26 28  0  0  0  0  0  0  0  0999 V2000
   -4.8170   -1.4690   -2.0180 C   0  0  0  0  0  0  0  0  0  0  0  0
   -4.1050   -0.8200   -0.9180 C   0  0  0  0  0  0  0  0  0  0  0  0
   -2.7280   -0.7860   -0.9080 C   0  0  0  0  0  0  0  0  0  0  0  0
   -2.0050   -0.1890    0.1000 C   0  0  0  0  0  0  0  0  0  0  0  0
   -0.5290   -0.1360    0.1280 C   0  0  0  0  0  0  0  0  0  0  0  0
    0.0790   -0.6630   -1.0510 N   0  0  0  0  0  0  0  0  0  0  0  0
    1.5130   -0.6270   -1.0420 C   0  0  0  0  0  0  0  0  0  0  0  0
    2.0890    0.7690   -1.1090 C   0  0  0  0  0  0  0  0  0  0  0  0
    3.5700    0.7560   -1.0970 C   0  0  0  0  0  0  0  0  0  0  0  0
    4.3180    0.9830   -2.2330 C   0  0  0  0  0  0  0  0  0  0  0  0
    5.6990    0.9640   -2.1750 C   0  0  0  0  0  0  0  0  0  0  0  0
    6.3760    0.7210   -0.9920 C   0  0  0  0  0  0  0  0  0  0  0  0
    5.6290    0.4940    0.1480 C   0  0  0  0  0  0  0  0  0  0  0  0
    4.2540    0.5130    0.0880 C   0  0  0  0  0  0  0  0  0  0  0  0
    3.5360    0.2850    1.2300 O   0  0  0  0  0  0  0  0  0  0  0  0
    4.0790   -0.4860    2.3030 C   0  0  0  0  0  0  0  0  0  0  0  0
    5.4580    0.0110    2.5250 C   0  0  0  0  0  0  0  0  0  0  0  0
    5.8730    0.2170    3.6700 O   0  0  0  0  0  0  0  0  0  0  0  0
    6.2790    0.2380    1.3870 N   0  0  0  0  0  0  0  0  0  0  0  0
   -2.7010    0.3950    1.1350 C   0  0  0  0  0  0  0  0  0  0  0  0
   -4.1010    0.3660    1.1350 C   0  0  0  0  0  0  0  0  0  0  0  0
   -4.8010   -0.2450    0.1020 C   0  0  0  0  0  0  0  0  0  0  0  0
   -6.2680   -0.2590    0.1280 C   0  0  0  0  0  0  0  0  0  0  0  0
   -6.9280    0.5570    1.5680 S   0  0  2  0  0  0  0  0  0  0  0  0
   -8.4190    0.4310    1.6250 O   0  0  0  0  0  0  0  0  0  0  0  0
   -6.6030    2.0130    1.5780 O   0  0  0  0  0  0  0  0  0  0  0  0
  1  2  1  0
  2  3  2  0
  2 22  1  0
  3  4  1  0
  4  5  1  0
  4 20  2  0
  5  6  1  0
  6  7  1  0
  7  8  1  0
  8  9  1  0
  9 10  2  0
  9 14  1  0
 10 11  1  0
 11 12  2  0
 12 13  1  0
 13 14  2  0
 13 19  1  0
 14 15  1  0
 15 16  1  0
 16 17  1  0
 17 18  2  0
 17 19  1  0
 20 21  1  0
 21 22  2  0
 22 23  1  0
 24 23  1  6
 24 25  2  0
 24 26  2  0
M  END
