
     RDKit          3D

 11 12  0  0  0  0  0  0  0  0999 V2000
   -3.1380    0.7270    1.1290 C   0  0  0  0  0  0  0  0  0  0  0  0
   -1.6780    0.9850    1.0520 C   0  0  0  0  0  0  0  0  0  0  0  0
   -0.9050    0.0260    0.5700 C   0  0  0  0  0  0  0  0  0  0  0  0
   -1.4600   -1.2820    0.1110 C   0  0  0  0  0  0  0  0  0  0  0  0
   -0.4690   -2.2580    0.1860 O   0  0  0  0  0  0  0  0  0  0  0  0
    0.5860   -2.0320   -0.6740 C   0  0  0  0  0  0  0  0  0  0  0  0
    0.8660   -0.5830   -0.8920 C   0  0  2  0  0  0  0  0  0  0  0  0
    2.3240   -0.2320   -1.0180 C   0  0  0  0  0  0  0  0  0  0  0  0
    2.2500    1.2620   -0.7580 C   0  0  0  0  0  0  0  0  0  0  0  0
    1.1210    1.4640    0.2280 C   0  0  0  0  0  0  0  0  0  0  0  0
    0.5520    0.1190    0.4260 C   0  0  1  0  0  0  0  0  0  0  0  0
  1  2  1  0
  2  3  2  3
  3  4  1  0
  3 11  1  0
  4  5  1  0
  5  6  1  0
  7  6  1  1
  7  8  1  0
  7 11  1  0
  8  9  1  0
  9 10  1  0
 11 10  1  6
M  END
