
     RDKit          3D

 11 12  0  0  0  0  0  0  0  0999 V2000
   -2.7050    0.2400    0.4010 C   0  0  0  0  0  0  0  0  0  0  0  0
   -1.9310    1.2530    0.0470 C   0  0  0  0  0  0  0  0  0  0  0  0
   -0.7490    0.9220   -0.8170 C   0  0  0  0  0  0  0  0  0  0  0  0
    0.0120   -0.2080   -0.1570 C   0  0  2  0  0  0  0  0  0  0  0  0
   -0.8710   -1.3120    0.3390 C   0  0  0  0  0  0  0  0  0  0  0  0
   -2.3130   -1.1030   -0.0960 C   0  0  0  0  0  0  0  0  0  0  0  0
    0.7110    0.3850    1.0560 C   0  0  0  0  0  0  0  0  0  0  0  0
    1.9370    1.1730    0.6400 C   0  0  0  0  0  0  0  0  0  0  0  0
    2.8050    0.1480   -0.1040 C   0  0  0  0  0  0  0  0  0  0  0  0
    2.1380   -0.0960   -1.3020 O   0  0  0  0  0  0  0  0  0  0  0  0
    0.9880   -0.8070   -1.1390 C   0  0  0  0  0  0  0  0  0  0  0  0
  1  2  2  0
  1  6  1  0
  2  3  1  0
  4  3  1  6
  4  5  1  0
  4  7  1  0
  4 11  1  0
  5  6  1  0
  7  8  1  0
  8  9  1  0
  9 10  1  0
 10 11  1  0
M  END
