
     RDKit          3D

 11 12  0  0  0  0  0  0  0  0999 V2000
   -1.8470   -1.5410   -0.4650 C   0  0  0  0  0  0  0  0  0  0  0  0
   -1.0670   -0.4460    0.2330 C   0  0  1  0  0  0  0  0  0  0  0  0
   -1.9090    0.1210    1.3330 C   0  0  0  0  0  0  0  0  0  0  0  0
    0.2200   -1.0010    0.8110 C   0  0  0  0  0  0  0  0  0  0  0  0
    1.3340   -0.2390    0.0800 C   0  0  1  0  0  0  0  0  0  0  0  0
    2.5720   -1.0690   -0.0060 C   0  0  0  0  0  0  0  0  0  0  0  0
    0.6620   -0.0430   -1.2750 C   0  0  0  0  0  0  0  0  0  0  0  0
   -0.6710    0.5610   -0.8090 C   0  0  2  0  0  0  0  0  0  0  0  0
   -0.3510    1.9160   -0.2420 C   0  0  0  0  0  0  0  0  0  0  0  0
    1.1280    2.0670    0.0490 C   0  0  0  0  0  0  0  0  0  0  0  0
    1.5720    0.9520    0.7250 O   0  0  0  0  0  0  0  0  0  0  0  0
  2  1  1  6
  2  3  1  0
  2  4  1  0
  2  8  1  0
  4  5  1  0
  5  6  1  6
  5  7  1  0
  5 11  1  0
  7  8  1  0
  8  9  1  1
  9 10  1  0
 10 11  1  0
M  END
