
     RDKit          3D

 11 12  0  0  0  0  0  0  0  0999 V2000
   -2.3430   -1.2600    0.4140 C   0  0  0  0  0  0  0  0  0  0  0  0
   -1.4040   -0.5270   -0.5460 C   0  0  1  0  0  0  0  0  0  0  0  0
   -1.9660    0.8410   -0.8030 C   0  0  0  0  0  0  0  0  0  0  0  0
   -1.2000    1.6950    0.1440 C   0  0  0  0  0  0  0  0  0  0  0  0
   -1.5410    2.7760    0.7070 O   0  0  0  0  0  0  0  0  0  0  0  0
    0.1030    1.0470    0.3400 C   0  0  0  0  0  0  0  0  0  0  0  0
    1.3110    1.4750    0.6380 C   0  0  0  0  0  0  0  0  0  0  0  0
    2.4560    0.5560    0.7700 C   0  0  0  0  0  0  0  0  0  0  0  0
    2.4010   -0.6080   -0.1730 C   0  0  0  0  0  0  0  0  0  0  0  0
    1.0430   -0.9190   -0.7080 C   0  0  0  0  0  0  0  0  0  0  0  0
   -0.0840   -0.3960    0.1380 C   0  0  2  0  0  0  0  0  0  0  0  0
  2  1  1  1
  2  3  1  0
  2 11  1  0
  3  4  1  0
  4  5  2  0
  4  6  1  0
  6  7  2  0
  6 11  1  0
  7  8  1  0
  8  9  1  0
  9 10  1  0
 11 10  1  6
M  END
