
     RDKit          3D

 11 12  0  0  0  0  0  0  0  0999 V2000
    2.9880    0.1900    0.6060 C   0  0  0  0  0  0  0  0  0  0  0  0
    2.0290    0.9980   -0.2140 C   0  0  0  0  0  0  0  0  0  0  0  0
    0.7130    0.3070   -0.2650 C   0  0  0  0  0  0  0  0  0  0  0  0
   -0.3820    0.9340    0.2150 C   0  0  0  0  0  0  0  0  0  0  0  0
   -1.8250    0.7700    0.1180 C   0  0  1  0  0  0  0  0  0  0  0  0
   -2.2010   -0.1480   -1.1030 C   0  0  0  0  0  0  0  0  0  0  0  0
   -1.5890   -1.1680   -0.5410 C   0  0  0  0  0  0  0  0  0  0  0  0
   -0.3530   -1.8260   -0.9030 C   0  0  0  0  0  0  0  0  0  0  0  0
    0.8170   -1.0500   -0.8710 C   0  0  0  0  0  0  0  0  0  0  0  0
   -2.4250   -1.4590    0.5480 O   0  0  0  0  0  0  0  0  0  0  0  0
   -2.4980   -0.0930    1.1870 C   0  0  0  0  0  0  0  0  0  0  0  0
  1  2  1  0
  2  3  1  0
  3  4  2  0
  3  9  1  0
  4  5  1  0
  5  6  1  0
  5 11  1  1
  6  7  2  0
  7  8  1  0
  7 10  1  0
  8  9  2  0
 10 11  1  0
M  END
