
     RDKit          3D

 25 27  0  0  0  0  0  0  0  0999 V2000
   -2.6310    1.5170    1.9250 N   0  0  0  0  0  0  0  0  0  0  0  0
   -3.8650    1.6440    1.6330 C   0  0  0  0  0  0  0  0  0  0  0  0
   -4.6570    0.6830    0.8490 C   0  0  0  0  0  0  0  0  0  0  0  0
   -5.9360    0.9320    0.6340 C   0  0  0  0  0  0  0  0  0  0  0  0
   -6.7730    0.0050   -0.1380 C   0  0  0  0  0  0  0  0  0  0  0  0
   -6.0280   -1.0990   -0.8110 C   0  0  0  0  0  0  0  0  0  0  0  0
   -4.6490   -0.7310   -1.0610 N   0  0  0  0  0  0  0  0  0  0  0  0
   -4.0720   -0.5490    0.2990 C   0  0  1  0  0  0  0  0  0  0  0  0
   -2.6020   -0.5520    0.1770 C   0  0  0  0  0  0  0  0  0  0  0  0
   -1.8920    0.4420   -0.4290 C   0  0  0  0  0  0  0  0  0  0  0  0
   -0.4970    0.3910   -0.5650 C   0  0  0  0  0  0  0  0  0  0  0  0
    0.2130   -0.6650   -0.0900 C   0  0  0  0  0  0  0  0  0  0  0  0
    1.6120   -0.7960   -0.1620 N   0  0  0  0  0  0  0  0  0  0  0  0
    2.4980    0.2550   -0.4760 C   0  0  0  0  0  0  0  0  0  0  0  0
    2.1150    1.4180   -0.7160 O   0  0  0  0  0  0  0  0  0  0  0  0
    3.9630   -0.0220   -0.5260 C   0  0  0  0  0  0  0  0  0  0  0  0
    4.5590   -1.2420   -0.2890 C   0  0  0  0  0  0  0  0  0  0  0  0
    5.9180   -1.0270   -0.4450 C   0  0  0  0  0  0  0  0  0  0  0  0
    6.0960    0.3050   -0.7680 C   0  0  0  0  0  0  0  0  0  0  0  0
    7.4130    0.9720   -1.0260 C   0  0  0  0  0  0  0  0  0  0  0  0
    7.9310    1.4910    0.2180 N   0  0  0  0  0  0  0  0  0  0  0  0
    4.9030    0.8240   -0.7960 O   0  0  0  0  0  0  0  0  0  0  0  0
   -0.5280   -1.6860    0.5330 C   0  0  0  0  0  0  0  0  0  0  0  0
   -1.8950   -1.6290    0.6620 C   0  0  0  0  0  0  0  0  0  0  0  0
   -2.5230   -2.6680    1.2820 F   0  0  0  0  0  0  0  0  0  0  0  0
  1  2  2  0
  2  3  1  0
  3  4  2  0
  3  8  1  0
  4  5  1  0
  5  6  1  0
  6  7  1  0
  7  8  1  0
  8  9  1  6
  9 10  2  0
  9 24  1  0
 10 11  1  0
 11 12  2  0
 12 13  1  0
 12 23  1  0
 13 14  1  0
 14 15  2  0
 14 16  1  0
 16 17  2  0
 16 22  1  0
 17 18  1  0
 18 19  2  0
 19 20  1  0
 19 22  1  0
 20 21  1  0
 23 24  2  0
 24 25  1  0
M  CHG  1  21   1
M  END
