
     RDKit          3D

 25 27  0  0  0  0  0  0  0  0999 V2000
    6.0000   -1.0220   -2.3310 C   0  0  0  0  0  0  0  0  0  0  0  0
    5.2230   -0.4490   -1.2020 C   0  0  0  0  0  0  0  0  0  0  0  0
    3.8480   -0.4440   -1.2140 C   0  0  0  0  0  0  0  0  0  0  0  0
    3.0960    0.0770   -0.1870 C   0  0  0  0  0  0  0  0  0  0  0  0
    1.6960    0.0830   -0.1990 C   0  0  0  0  0  0  0  0  0  0  0  0
    0.9350    0.5990    0.8190 C   0  0  0  0  0  0  0  0  0  0  0  0
   -0.4760    0.6150    0.8270 N   0  0  0  0  0  0  0  0  0  0  0  0
   -1.3540    0.1340   -0.1480 C   0  0  0  0  0  0  0  0  0  0  0  0
   -0.9140   -0.3850   -1.1770 O   0  0  0  0  0  0  0  0  0  0  0  0
   -2.8460    0.2640    0.0880 C   0  0  0  0  0  0  0  0  0  0  0  0
   -3.5240   -0.3000   -1.0510 N   0  0  0  0  0  0  0  0  0  0  0  0
   -4.8160    0.3410   -1.1680 C   0  0  0  0  0  0  0  0  0  0  0  0
   -5.8010   -0.3700   -0.3120 C   0  0  0  0  0  0  0  0  0  0  0  0
   -5.5810   -1.4600    0.4860 C   0  0  0  0  0  0  0  0  0  0  0  0
   -6.7600   -1.8140    1.1170 C   0  0  0  0  0  0  0  0  0  0  0  0
   -7.7080   -0.9110    0.6840 C   0  0  0  0  0  0  0  0  0  0  0  0
   -7.1170   -0.0710   -0.1570 N   0  0  0  0  0  0  0  0  0  0  0  0
    1.6370    1.1380    1.9050 C   0  0  0  0  0  0  0  0  0  0  0  0
    0.9560    1.6180    2.8520 O   0  0  0  0  0  0  0  0  0  0  0  0
    2.9830    1.1370    1.9260 N   0  0  0  0  0  0  0  0  0  0  0  0
    3.7060    0.6250    0.9160 C   0  0  0  0  0  0  0  0  0  0  0  0
    5.0870    0.6280    0.9450 C   0  0  0  0  0  0  0  0  0  0  0  0
    5.7880    1.2160    2.1290 C   0  0  0  0  0  0  0  0  0  0  0  0
    5.8450    0.1060   -0.0850 C   0  0  0  0  0  0  0  0  0  0  0  0
    7.1920    0.1000   -0.0720 F   0  0  0  0  0  0  0  0  0  0  0  0
  1  2  1  0
  2  3  2  0
  2 24  1  0
  3  4  1  0
  4  5  1  0
  4 21  2  0
  5  6  2  0
  6  7  1  0
  6 18  1  0
  7  8  1  0
  8  9  2  0
  8 10  1  0
 10 11  1  0
 11 12  1  0
 12 13  1  0
 13 14  2  0
 13 17  1  0
 14 15  1  0
 15 16  2  0
 16 17  1  0
 18 19  2  0
 18 20  1  0
 20 21  1  0
 21 22  1  0
 22 23  1  0
 22 24  2  0
 24 25  1  0
M  CHG  1  11   1
M  END
