
     RDKit          3D

 25 27  0  0  0  0  0  0  0  0999 V2000
   -6.6160   -0.7850    0.6810 C   0  0  0  0  0  0  0  0  0  0  0  0
   -5.6890   -0.8610   -0.4720 C   0  0  0  0  0  0  0  0  0  0  0  0
   -6.0390   -1.4100   -1.5360 O   0  0  0  0  0  0  0  0  0  0  0  0
   -4.3520   -0.2920   -0.3780 C   0  0  0  0  0  0  0  0  0  0  0  0
   -3.9820    0.9800   -0.6930 C   0  0  0  0  0  0  0  0  0  0  0  0
   -4.8500    2.0700   -1.2000 C   0  0  0  0  0  0  0  0  0  0  0  0
   -2.6560    1.0840   -0.4590 N   0  0  0  0  0  0  0  0  0  0  0  0
   -2.1730   -0.0780   -0.0070 C   0  0  0  0  0  0  0  0  0  0  0  0
   -0.7730   -0.3600    0.3590 C   0  0  0  0  0  0  0  0  0  0  0  0
   -0.4480   -1.4850    0.7680 O   0  0  0  0  0  0  0  0  0  0  0  0
    0.1970    0.6860    0.2340 N   0  0  0  0  0  0  0  0  0  0  0  0
    1.4850    0.0770    0.1330 C   0  0  0  0  0  0  0  0  0  0  0  0
    2.3710    0.7010   -0.9270 C   0  0  1  0  0  0  0  0  0  0  0  0
    2.6230    2.1620   -0.6600 C   0  0  0  0  0  0  0  0  0  0  0  0
    3.4540    2.0230    0.5470 N   0  0  0  0  0  0  0  0  0  0  0  0
    4.3520    0.9530    0.2010 C   0  0  0  0  0  0  0  0  0  0  0  0
    5.6510    0.7050    0.6460 C   0  0  0  0  0  0  0  0  0  0  0  0
    6.3110   -0.3940    0.1440 C   0  0  0  0  0  0  0  0  0  0  0  0
    7.5710   -0.6760    0.5460 F   0  0  0  0  0  0  0  0  0  0  0  0
    5.6710   -1.2210   -0.7850 C   0  0  0  0  0  0  0  0  0  0  0  0
    6.3600   -2.3470   -1.2930 N   0  0  0  0  0  0  0  0  0  0  0  0
    4.3900   -0.9730   -1.2210 C   0  0  0  0  0  0  0  0  0  0  0  0
    3.7330    0.1330   -0.7120 C   0  0  0  0  0  0  0  0  0  0  0  0
   -3.2210   -0.9530    0.0510 C   0  0  0  0  0  0  0  0  0  0  0  0
   -3.1920   -2.3680    0.4890 C   0  0  0  0  0  0  0  0  0  0  0  0
  1  2  1  0
  2  3  2  0
  2  4  1  0
  4  5  2  0
  4 24  1  0
  5  6  1  0
  5  7  1  0
  7  8  1  0
  8  9  1  0
  8 24  2  0
  9 10  2  0
  9 11  1  0
 11 12  1  0
 13 12  1  1
 13 14  1  0
 13 23  1  0
 14 15  1  0
 15 16  1  0
 16 17  2  0
 16 23  1  0
 17 18  1  0
 18 19  1  0
 18 20  2  0
 20 21  1  0
 20 22  1  0
 22 23  2  0
 24 25  1  0
M  CHG  1  11   1
M  END
