
     RDKit          3D

 25 27  0  0  0  0  0  0  0  0999 V2000
   -2.7170    2.7100    1.5640 C   0  0  0  0  0  0  0  0  0  0  0  0
   -1.7700    1.6700    1.1140 C   0  0  0  0  0  0  0  0  0  0  0  0
   -0.4790    1.8950    1.5800 F   0  0  0  0  0  0  0  0  0  0  0  0
   -2.1300    0.5840    0.4770 C   0  0  0  0  0  0  0  0  0  0  0  0
   -3.5350    0.2140    0.1200 C   0  0  0  0  0  0  0  0  0  0  0  0
   -4.6720    0.8700    0.1520 C   0  0  0  0  0  0  0  0  0  0  0  0
   -5.9820    0.2460   -0.2720 C   0  0  0  0  0  0  0  0  0  0  0  0
   -5.9310   -1.2400   -0.1740 C   0  0  0  0  0  0  0  0  0  0  0  0
   -4.6920   -1.7860   -0.8310 C   0  0  0  0  0  0  0  0  0  0  0  0
   -3.5250   -1.0960   -0.3940 N   0  0  0  0  0  0  0  0  0  0  0  0
   -2.1580   -1.5880   -0.3880 C   0  0  0  0  0  0  0  0  0  0  0  0
   -1.8660   -2.7320   -0.7920 O   0  0  0  0  0  0  0  0  0  0  0  0
   -1.2770   -0.5700    0.1350 C   0  0  0  0  0  0  0  0  0  0  0  0
    0.0650   -0.5720    0.0270 C   0  0  0  0  0  0  0  0  0  0  0  0
    0.7200   -1.8210   -0.2780 N   0  0  0  0  0  0  0  0  0  0  0  0
    0.8630    0.5960   -0.1540 C   0  0  0  0  0  0  0  0  0  0  0  0
    2.0880    0.9240   -0.2210 C   0  0  0  0  0  0  0  0  0  0  0  0
    3.3380    0.2520   -0.1420 C   0  0  0  0  0  0  0  0  0  0  0  0
    3.4550   -0.9620    0.0450 O   0  0  0  0  0  0  0  0  0  0  0  0
    4.5600    0.9700   -0.2810 N   0  0  0  0  0  0  0  0  0  0  0  0
    5.8460    0.3700   -0.2140 C   0  0  0  0  0  0  0  0  0  0  0  0
    7.0600    1.0610   -0.3480 C   0  0  0  0  0  0  0  0  0  0  0  0
    8.0920    0.1710   -0.2310 C   0  0  0  0  0  0  0  0  0  0  0  0
    7.5480   -1.0560   -0.0280 C   0  0  0  0  0  0  0  0  0  0  0  0
    6.2010   -0.9020   -0.0230 N   0  0  0  0  0  0  0  0  0  0  0  0
  1  2  1  0
  2  3  1  0
  2  4  2  3
  4  5  1  0
  4 13  1  0
  5  6  2  0
  5 10  1  0
  6  7  1  0
  7  8  1  0
  8  9  1  0
  9 10  1  0
 10 11  1  0
 11 12  2  0
 11 13  1  0
 13 14  2  3
 14 15  1  0
 14 16  1  0
 16 17  2  3
 17 18  1  0
 18 19  2  0
 18 20  1  0
 20 21  1  0
 21 22  2  0
 21 25  1  0
 22 23  1  0
 23 24  2  0
 24 25  1  0
M  CHG  1  15   1
M  END
