
     RDKit          3D

 19 20  0  0  0  0  0  0  0  0999 V2000
    3.0730    1.0870   -2.3990 C   0  0  0  0  0  0  0  0  0  0  0  0
    2.0220    1.4910   -1.7110 C   0  0  0  0  0  0  0  0  0  0  0  0
    2.1050    2.7480   -1.1360 O   0  0  0  0  0  0  0  0  0  0  0  0
    0.8610    0.6470   -1.5820 C   0  0  0  0  0  0  0  0  0  0  0  0
    0.4050    0.1910   -0.2540 C   0  0  1  0  0  0  0  0  0  0  0  0
    1.3700   -0.6320    0.5240 C   0  0  2  0  0  0  0  0  0  0  0  0
    2.6720    0.0720    0.8210 C   0  0  0  0  0  0  0  0  0  0  0  0
    1.6830   -1.7580   -0.2710 O   0  0  0  0  0  0  0  0  0  0  0  0
    0.8550   -1.1540    1.8230 C   0  0  0  0  0  0  0  0  0  0  0  0
    1.9860   -1.9790    2.4550 C   0  0  0  0  0  0  0  0  0  0  0  0
   -0.0760    1.3750    0.5710 C   0  0  0  0  0  0  0  0  0  0  0  0
   -1.1390    2.1510   -0.1700 C   0  0  0  0  0  0  0  0  0  0  0  0
   -2.0110    1.3360   -0.8610 O   0  0  0  0  0  0  0  0  0  0  0  0
   -2.1090    0.0510   -0.3430 C   0  0  2  0  0  0  0  0  0  0  0  0
   -3.1760   -0.6590   -1.1870 C   0  0  0  0  0  0  0  0  0  0  0  0
   -4.0980   -1.2940   -0.1690 C   0  0  0  0  0  0  0  0  0  0  0  0
   -3.9780   -0.5250    0.9560 O   0  0  0  0  0  0  0  0  0  0  0  0
   -2.6980   -0.0020    1.0180 C   0  0  0  0  0  0  0  0  0  0  0  0
   -0.8240   -0.6940   -0.5300 C   0  0  0  0  0  0  0  0  0  0  0  0
  1  2  2  0
  2  3  1  0
  2  4  1  0
  5  4  1  6
  5  6  1  0
  5 11  1  0
  5 19  1  0
  6  7  1  1
  6  8  1  0
  6  9  1  0
  9 10  1  0
 11 12  1  0
 12 13  1  0
 13 14  1  0
 14 15  1  6
 14 18  1  0
 14 19  1  0
 15 16  1  0
 16 17  1  0
 17 18  1  0
M  END
