
     RDKit          3D

 19 20  0  0  0  0  0  0  0  0999 V2000
    5.2370   -1.1950    1.0190 C   0  0  0  0  0  0  0  0  0  0  0  0
    4.3950   -0.4080    0.1050 C   0  0  0  0  0  0  0  0  0  0  0  0
    4.8300    0.1580   -1.0050 C   0  0  0  0  0  0  0  0  0  0  0  0
    3.7320    0.8640   -1.6770 C   0  0  0  0  0  0  0  0  0  0  0  0
    2.5670    0.6280   -0.7820 C   0  0  0  0  0  0  0  0  0  0  0  0
    2.9720   -0.0950    0.2180 C   0  0  0  0  0  0  0  0  0  0  0  0
    2.1320   -0.5750    1.3500 C   0  0  0  0  0  0  0  0  0  0  0  0
    0.8020   -0.1990    1.2920 O   0  0  0  0  0  0  0  0  0  0  0  0
   -0.1240   -0.5320    0.3400 C   0  0  0  0  0  0  0  0  0  0  0  0
    0.2430   -1.2700   -0.6070 O   0  0  0  0  0  0  0  0  0  0  0  0
   -1.5210   -0.0540    0.3940 C   0  0  0  0  0  0  0  0  0  0  0  0
   -2.3960   -0.3880   -0.5360 C   0  0  0  0  0  0  0  0  0  0  0  0
   -3.8140    0.0490   -0.5550 C   0  0  1  0  0  0  0  0  0  0  0  0
   -4.1270    0.7460   -1.8820 C   0  0  0  0  0  0  0  0  0  0  0  0
   -4.6550   -1.2270   -0.5570 C   0  0  0  0  0  0  0  0  0  0  0  0
   -4.0860    0.8560    0.5420 O   0  0  0  0  0  0  0  0  0  0  0  0
   -3.2170    1.2330    1.5360 C   0  0  0  0  0  0  0  0  0  0  0  0
   -3.5780    2.0480    2.6020 O   0  0  0  0  0  0  0  0  0  0  0  0
   -1.9700    0.8010    1.4790 C   0  0  0  0  0  0  0  0  0  0  0  0
  1  2  1  0
  2  3  2  0
  2  6  1  0
  3  4  1  0
  4  5  1  0
  5  6  2  0
  6  7  1  0
  7  8  1  0
  8  9  1  0
  9 10  2  0
  9 11  1  0
 11 12  2  0
 11 19  1  0
 12 13  1  0
 13 14  1  6
 13 15  1  0
 13 16  1  0
 16 17  1  0
 17 18  1  0
 17 19  2  0
M  END
