
     RDKit          3D

 19 20  0  0  0  0  0  0  0  0999 V2000
    1.9580   -2.7550   -1.5140 C   0  0  0  0  0  0  0  0  0  0  0  0
    2.3380   -1.5670   -1.1500 C   0  0  0  0  0  0  0  0  0  0  0  0
    3.5890   -1.1590   -1.6760 O   0  0  0  0  0  0  0  0  0  0  0  0
    4.1480    0.0550   -1.4020 C   0  0  0  0  0  0  0  0  0  0  0  0
    3.5010    0.8790   -0.6190 C   0  0  0  0  0  0  0  0  0  0  0  0
    2.2290    0.4940   -0.0700 C   0  0  0  0  0  0  0  0  0  0  0  0
    1.6040   -0.6530   -0.2730 C   0  0  0  0  0  0  0  0  0  0  0  0
    0.3440   -1.0680    0.2690 C   0  0  2  0  0  0  0  0  0  0  0  0
    0.6220   -2.2930    1.1650 C   0  0  0  0  0  0  0  0  0  0  0  0
   -0.4290   -1.5960   -0.7740 O   0  0  0  0  0  0  0  0  0  0  0  0
   -0.5490   -0.0820    0.9360 C   0  0  2  0  0  0  0  0  0  0  0  0
   -0.0070    0.6150    1.9930 O   0  0  0  0  0  0  0  0  0  0  0  0
   -1.6600   -0.8430    1.7300 C   0  0  0  0  0  0  0  0  0  0  0  0
   -2.5520    0.2000    2.3950 C   0  0  0  0  0  0  0  0  0  0  0  0
   -3.3490    0.7020    1.3700 O   0  0  0  0  0  0  0  0  0  0  0  0
   -2.4820    1.5090    0.6190 C   0  0  0  0  0  0  0  0  0  0  0  0
   -1.3610    0.7400   -0.0250 C   0  0  1  0  0  0  0  0  0  0  0  0
   -0.6480    1.6520   -0.9370 C   0  0  0  0  0  0  0  0  0  0  0  0
   -1.7170    2.3620   -1.7870 C   0  0  0  0  0  0  0  0  0  0  0  0
  1  2  2  0
  2  3  1  0
  2  7  1  0
  3  4  1  0
  4  5  2  0
  5  6  1  0
  6  7  2  0
  7  8  1  0
  8  9  1  1
  8 10  1  0
  8 11  1  0
 11 12  1  1
 11 13  1  0
 11 17  1  0
 13 14  1  0
 14 15  1  0
 15 16  1  0
 16 17  1  0
 17 18  1  1
 18 19  1  0
M  END
