
     RDKit          3D

 11 12  0  0  0  0  0  0  0  0999 V2000
   -2.3270    0.3150    0.8110 C   0  0  0  0  0  0  0  0  0  0  0  0
   -1.1750   -0.1570   -0.0880 C   0  0  1  0  0  0  0  0  0  0  0  0
   -1.7460   -0.9760   -1.1810 C   0  0  0  0  0  0  0  0  0  0  0  0
   -0.4690    1.0650   -0.6640 C   0  0  0  0  0  0  0  0  0  0  0  0
    0.9680    0.9050   -0.1810 C   0  0  1  0  0  0  0  0  0  0  0  0
    1.7130    2.1870   -0.1260 C   0  0  0  0  0  0  0  0  0  0  0  0
    0.7010    0.3240    1.2130 C   0  0  0  0  0  0  0  0  0  0  0  0
   -0.1940   -0.8550    0.7950 C   0  0  2  0  0  0  0  0  0  0  0  0
    0.6920   -1.8340    0.1110 C   0  0  0  0  0  0  0  0  0  0  0  0
    1.9760   -1.1640   -0.3860 C   0  0  0  0  0  0  0  0  0  0  0  0
    1.6300    0.0180   -0.9960 O   0  0  0  0  0  0  0  0  0  0  0  0
  2  1  1  1
  2  3  1  0
  2  4  1  0
  2  8  1  0
  4  5  1  0
  5  6  1  1
  5  7  1  0
  5 11  1  0
  7  8  1  0
  8  9  1  6
  9 10  1  0
 10 11  1  0
M  END
