
     RDKit          3D

 11 12  0  0  0  0  0  0  0  0999 V2000
    2.3250    1.2050    0.5580 C   0  0  0  0  0  0  0  0  0  0  0  0
    1.4220    0.5400   -0.4770 C   0  0  1  0  0  0  0  0  0  0  0  0
    1.9930   -0.8270   -0.7360 C   0  0  0  0  0  0  0  0  0  0  0  0
    1.1990   -1.7110    0.1230 C   0  0  0  0  0  0  0  0  0  0  0  0
    1.5020   -2.8180    0.6600 O   0  0  0  0  0  0  0  0  0  0  0  0
   -0.1070   -1.0850    0.2900 C   0  0  0  0  0  0  0  0  0  0  0  0
   -1.3350   -1.5150    0.5450 C   0  0  0  0  0  0  0  0  0  0  0  0
   -2.4750   -0.5730    0.6530 C   0  0  0  0  0  0  0  0  0  0  0  0
   -2.3910    0.5750   -0.3090 C   0  0  0  0  0  0  0  0  0  0  0  0
   -1.0270    0.9910   -0.6900 C   0  0  0  0  0  0  0  0  0  0  0  0
    0.0720    0.3770    0.1200 C   0  0  2  0  0  0  0  0  0  0  0  0
  2  1  1  1
  2  3  1  0
  2 11  1  0
  3  4  1  0
  4  5  2  0
  4  6  1  0
  6  7  2  0
  6 11  1  0
  7  8  1  0
  8  9  1  0
  9 10  1  0
 11 10  1  6
M  END
