
     RDKit          3D

 12 13  0  0  0  0  0  0  0  0999 V2000
   -3.3360   -1.4570    0.4820 N   0  0  0  0  0  0  0  0  0  0  0  0
   -2.6020   -0.3100    0.1130 C   0  0  0  0  0  0  0  0  0  0  0  0
   -3.2140    0.7850   -0.1300 N   0  0  0  0  0  0  0  0  0  0  0  0
   -1.1270   -0.3570    0.0030 C   0  0  0  0  0  0  0  0  0  0  0  0
   -0.2420    0.6390   -0.3380 C   0  0  0  0  0  0  0  0  0  0  0  0
    1.0560    0.3280   -0.3630 C   0  0  0  0  0  0  0  0  0  0  0  0
    2.1180    1.2180   -0.6900 C   0  0  0  0  0  0  0  0  0  0  0  0
    3.4040    0.7400   -0.6690 C   0  0  0  0  0  0  0  0  0  0  0  0
    3.7410   -0.5690   -0.3450 C   0  0  0  0  0  0  0  0  0  0  0  0
    2.7150   -1.3760   -0.0430 N   0  0  0  0  0  0  0  0  0  0  0  0
    1.4950   -0.9210   -0.0630 C   0  0  0  0  0  0  0  0  0  0  0  0
   -0.1090   -1.7520    0.2930 S   0  0  0  0  0  0  0  0  0  0  0  0
  1  2  1  0
  2  3  2  0
  2  4  1  0
  4  5  2  0
  4 12  1  0
  5  6  1  0
  6  7  2  0
  6 11  1  0
  7  8  1  0
  8  9  2  0
  9 10  1  0
 10 11  2  0
 11 12  1  0
M  CHG  1   3   1
M  END
