
     RDKit          3D

 11 12  0  0  0  0  0  0  0  0999 V2000
   -1.3360    1.1290    0.7240 C   0  0  0  0  0  0  0  0  0  0  0  0
   -0.9230    0.0100   -0.1610 C   0  0  2  0  0  0  0  0  0  0  0  0
   -1.9870   -0.1340   -1.2570 C   0  0  0  0  0  0  0  0  0  0  0  0
   -0.9970   -1.2820    0.6470 C   0  0  0  0  0  0  0  0  0  0  0  0
    0.4070   -1.5450    1.0540 C   0  0  0  0  0  0  0  0  0  0  0  0
    0.8040   -2.0790    2.0490 O   0  0  0  0  0  0  0  0  0  0  0  0
    1.2590   -1.0110   -0.0280 C   0  0  2  0  0  0  0  0  0  0  0  0
    2.3900   -0.2870    0.5870 C   0  0  0  0  0  0  0  0  0  0  0  0
    2.3770    0.9890    0.2590 C   0  0  0  0  0  0  0  0  0  0  0  0
    1.2090    1.2780   -0.6340 C   0  0  0  0  0  0  0  0  0  0  0  0
    0.4220    0.0380   -0.7190 C   0  0  2  0  0  0  0  0  0  0  0  0
  2  1  1  1
  2  3  1  0
  2  4  1  0
  2 11  1  0
  4  5  1  0
  5  6  2  0
  5  7  1  0
  7  8  1  1
  7 11  1  0
  8  9  2  0
  9 10  1  0
 11 10  1  1
M  END
