
     RDKit          3D

 11 12  0  0  0  0  0  0  0  0999 V2000
    0.7590    1.7680   -0.0660 C   0  0  0  0  0  0  0  0  0  0  0  0
    0.2390    0.6120    0.2320 C   0  0  0  0  0  0  0  0  0  0  0  0
    0.8510   -0.7000    0.1160 C   0  0  0  0  0  0  0  0  0  0  0  0
    2.1120   -1.0420    0.2250 C   0  0  0  0  0  0  0  0  0  0  0  0
    3.2130   -0.1100    0.5040 C   0  0  0  0  0  0  0  0  0  0  0  0
   -0.2620   -1.6470   -0.1330 C   0  0  0  0  0  0  0  0  0  0  0  0
   -1.5080   -0.8750   -0.0360 C   0  0  2  0  0  0  0  0  0  0  0  0
   -1.9610   -0.2680   -1.3470 C   0  0  0  0  0  0  0  0  0  0  0  0
   -2.3520    1.0220   -1.1250 O   0  0  0  0  0  0  0  0  0  0  0  0
   -2.1400    1.3560    0.1880 C   0  0  0  0  0  0  0  0  0  0  0  0
   -1.1530    0.3730    0.7510 C   0  0  2  0  0  0  0  0  0  0  0  0
  1  2  2  0
  2  3  1  0
  2 11  1  0
  3  4  2  3
  3  6  1  0
  4  5  1  0
  7  6  1  6
  7  8  1  0
  7 11  1  0
  8  9  1  0
  9 10  1  0
 11 10  1  6
M  END
