
     RDKit          3D

 48 52  0  0  0  0  0  0  0  0999 V2000
    6.9030   -1.1630   -0.3420 C   0  0  0  0  0  0  0  0  0  0  0  0
    5.5680   -0.9290   -0.4600 C   0  0  0  0  0  0  0  0  0  0  0  0
    4.9690   -0.3990    0.7970 C   0  0  0  0  0  0  0  0  0  0  0  0
    5.8240    0.6500    1.5270 C   0  0  0  0  0  0  0  0  0  0  0  0
    3.8560   -0.7210    1.3630 C   0  0  0  0  0  0  0  0  0  0  0  0
    2.6800   -1.5690    1.2740 C   0  0  0  0  0  0  0  0  0  0  0  0
    2.6210   -2.5730    0.2880 N   0  0  0  0  0  0  0  0  0  0  0  0
    1.8750   -2.4570   -0.8790 C   0  0  0  0  0  0  0  0  0  0  0  0
    1.3670   -1.2760   -1.5130 C   0  0  0  0  0  0  0  0  0  0  0  0
    1.2950    0.0490   -0.9220 C   0  0  0  0  0  0  0  0  0  0  0  0
    0.3940    0.5460   -0.0970 C   0  0  0  0  0  0  0  0  0  0  0  0
   -0.8050    0.0610    0.5370 C   0  0  0  0  0  0  0  0  0  0  0  0
   -1.4970    0.8270    1.3050 O   0  0  0  0  0  0  0  0  0  0  0  0
   -1.3520   -1.2370    0.4210 N   0  0  0  0  0  0  0  0  0  0  0  0
   -2.5650   -1.6570    1.0840 C   0  0  0  0  0  0  0  0  0  0  0  0
   -3.7650   -1.7650    0.4110 C   0  0  0  0  0  0  0  0  0  0  0  0
   -3.7780   -1.3980   -1.0330 C   0  0  1  0  0  0  0  0  0  0  0  0
   -4.9740   -1.9260   -1.7830 C   0  0  0  0  0  0  0  0  0  0  0  0
   -3.7910    0.0560   -1.1390 N   0  0  0  0  0  0  0  0  0  0  0  0
   -4.9870    0.5410   -1.8300 C   0  0  0  0  0  0  0  0  0  0  0  0
   -4.8600   -2.1850    1.1050 C   0  0  0  0  0  0  0  0  0  0  0  0
   -4.7520   -2.4940    2.4690 C   0  0  0  0  0  0  0  0  0  0  0  0
   -3.5500   -2.3790    3.1180 C   0  0  0  0  0  0  0  0  0  0  0  0
   -3.4210   -2.6750    4.4710 C   0  0  0  0  0  0  0  0  0  0  0  0
   -2.2030   -2.5450    5.1070 C   0  0  0  0  0  0  0  0  0  0  0  0
   -1.0760   -2.1210    4.4230 C   0  0  0  0  0  0  0  0  0  0  0  0
    0.1360   -1.9870    5.0360 O   0  0  0  0  0  0  0  0  0  0  0  0
   -1.1970   -1.8270    3.0810 C   0  0  0  0  0  0  0  0  0  0  0  0
   -2.4340   -1.9600    2.4450 C   0  0  0  0  0  0  0  0  0  0  0  0
    0.8310    1.9650    0.2140 C   0  0  2  0  0  0  0  0  0  0  0  0
   -0.1970    2.9380   -0.1320 C   0  0  0  0  0  0  0  0  0  0  0  0
   -0.7550    3.7180    0.8790 C   0  0  0  0  0  0  0  0  0  0  0  0
   -1.7320    4.6220    0.5890 C   0  0  0  0  0  0  0  0  0  0  0  0
   -2.1930    4.7890   -0.7160 C   0  0  0  0  0  0  0  0  0  0  0  0
   -3.2470    5.7740   -0.9580 C   0  0  0  0  0  0  0  0  0  0  0  0
   -3.7140    6.4400   -0.0190 O   0  0  0  0  0  0  0  0  0  0  0  0
   -3.7590    5.9930   -2.2300 O   0  0  0  0  0  0  0  0  0  0  0  0
   -4.7880    6.9620   -2.4170 C   0  0  0  0  0  0  0  0  0  0  0  0
   -1.6500    4.0260   -1.7210 C   0  0  0  0  0  0  0  0  0  0  0  0
   -0.6640    3.1160   -1.4130 C   0  0  0  0  0  0  0  0  0  0  0  0
    2.0440    2.1600   -0.5510 C   0  0  0  0  0  0  0  0  0  0  0  0
    2.3440    1.0660   -1.2220 C   0  0  0  0  0  0  0  0  0  0  0  0
    3.4550    0.8530   -2.1380 C   0  0  0  0  0  0  0  0  0  0  0  0
    3.8700    1.9570   -2.7020 O   0  0  0  0  0  0  0  0  0  0  0  0
    4.1410   -0.2890   -2.5190 N   0  0  0  0  0  0  0  0  0  0  0  0
    4.9660   -1.1980   -1.7410 C   0  0  0  0  0  0  0  0  0  0  0  0
    5.1320   -2.3910   -2.2940 C   0  0  0  0  0  0  0  0  0  0  0  0
    5.9040   -3.5060   -1.6770 C   0  0  0  0  0  0  0  0  0  0  0  0
  1  2  2  0
  2  3  1  0
  2 46  1  0
  3  4  1  0
  3  5  2  0
  5  6  1  0
  6  7  1  0
  7  8  1  0
  8  9  1  0
  9 10  1  0
 10 11  2  0
 10 42  1  0
 11 12  1  0
 11 30  1  0
 12 13  2  0
 12 14  1  0
 14 15  1  0
 15 16  2  0
 15 29  1  0
 16 17  1  0
 16 21  1  0
 17 18  1  1
 17 19  1  0
 19 20  1  0
 21 22  2  0
 22 23  1  0
 23 24  2  0
 23 29  1  0
 24 25  1  0
 25 26  2  0
 26 27  1  0
 26 28  1  0
 28 29  2  0
 30 31  1  6
 30 41  1  0
 31 32  2  0
 31 40  1  0
 32 33  1  0
 33 34  2  0
 34 35  1  0
 34 39  1  0
 35 36  2  0
 35 37  1  0
 37 38  1  0
 39 40  2  0
 41 42  2  0
 42 43  1  0
 43 44  2  0
 43 45  1  0
 45 46  1  0
 46 47  2  3
 47 48  1  0
M  CHG  2   7   1  19   1
M  END
