
     RDKit          3D

 47 51  0  0  0  0  0  0  0  0999 V2000
   13.0590   -1.6840   -0.3380 C   0  0  0  0  0  0  0  0  0  0  0  0
   11.8440   -0.8500   -0.6530 C   0  0  0  0  0  0  0  0  0  0  0  0
   11.4370   -0.6160   -1.9480 C   0  0  0  0  0  0  0  0  0  0  0  0
   10.3230    0.1570   -2.2020 C   0  0  0  0  0  0  0  0  0  0  0  0
    9.5760    0.7220   -1.1940 C   0  0  0  0  0  0  0  0  0  0  0  0
    8.4650    1.4960   -1.4470 C   0  0  0  0  0  0  0  0  0  0  0  0
    7.7250    2.0600   -0.4030 C   0  0  0  0  0  0  0  0  0  0  0  0
    6.5370    2.8970   -0.6900 C   0  0  1  0  0  0  0  0  0  0  0  0
    5.7630    2.2650   -1.6760 O   0  0  0  0  0  0  0  0  0  0  0  0
    5.7340    3.0280    0.5320 C   0  0  0  0  0  0  0  0  0  0  0  0
    4.5470    2.4530    0.6310 C   0  0  0  0  0  0  0  0  0  0  0  0
    3.4860    2.3560    1.6470 C   0  0  0  0  0  0  0  0  0  0  0  0
    2.9180    1.2360    0.9340 N   0  0  0  0  0  0  0  0  0  0  0  0
    1.9810    0.1760    1.2280 C   0  0  0  0  0  0  0  0  0  0  0  0
    1.4960    0.1510    2.3730 O   0  0  0  0  0  0  0  0  0  0  0  0
    1.6700   -0.7950    0.1520 C   0  0  0  0  0  0  0  0  0  0  0  0
    0.7200   -1.7840    0.5300 N   0  0  1  0  0  0  0  0  0  0  0  0
   -0.5730   -1.1640    0.7210 C   0  0  0  0  0  0  0  0  0  0  0  0
   -1.2720   -0.8030   -0.5240 C   0  0  0  0  0  0  0  0  0  0  0  0
   -0.8080   -1.0110   -1.6660 O   0  0  0  0  0  0  0  0  0  0  0  0
   -2.5460   -0.1790   -0.4320 N   0  0  0  0  0  0  0  0  0  0  0  0
   -3.2920    0.2050   -1.6400 C   0  0  0  0  0  0  0  0  0  0  0  0
   -4.4820    1.0450   -1.2280 C   0  0  0  0  0  0  0  0  0  0  0  0
   -5.4030    0.2610   -0.3090 C   0  0  2  0  0  0  0  0  0  0  0  0
   -6.0760   -0.7860   -1.1390 C   0  0  0  0  0  0  0  0  0  0  0  0
   -6.3450    1.2420    0.3180 C   0  0  0  0  0  0  0  0  0  0  0  0
   -7.2930    0.6590    1.2240 N   0  0  0  0  0  0  0  0  0  0  0  0
   -8.5400    1.4080    1.2530 C   0  0  2  0  0  0  0  0  0  0  0  0
   -8.9670    1.6940    2.6910 C   0  0  0  0  0  0  0  0  0  0  0  0
   -9.6580    0.7230    0.6030 C   0  0  0  0  0  0  0  0  0  0  0  0
  -10.4620    1.4330   -0.2640 C   0  0  0  0  0  0  0  0  0  0  0  0
  -11.5340    0.8170   -0.8990 C   0  0  0  0  0  0  0  0  0  0  0  0
  -11.7910   -0.5170   -0.6570 C   0  0  0  0  0  0  0  0  0  0  0  0
  -10.9900   -1.2440    0.2140 C   0  0  0  0  0  0  0  0  0  0  0  0
   -9.9180   -0.6090    0.8420 C   0  0  0  0  0  0  0  0  0  0  0  0
   -4.5980   -0.4390    0.7640 C   0  0  0  0  0  0  0  0  0  0  0  0
   -3.1920    0.1210    0.8220 C   0  0  0  0  0  0  0  0  0  0  0  0
    0.6650   -2.9900   -0.1980 C   0  0  2  0  0  0  0  0  0  0  0  0
    1.0260   -4.2000    0.6870 C   0  0  0  0  0  0  0  0  0  0  0  0
    1.3030   -3.0740   -1.4970 C   0  0  0  0  0  0  0  0  0  0  0  0
    1.9410   -2.2180   -2.1390 O   0  0  0  0  0  0  0  0  0  0  0  0
    1.1980   -4.3180   -2.1620 O   0  0  0  0  0  0  0  0  0  0  0  0
    3.6870    1.6240   -0.2280 C   0  0  0  0  0  0  0  0  0  0  0  0
    8.1060    1.8450    0.9020 C   0  0  0  0  0  0  0  0  0  0  0  0
    9.2340    1.0560    1.1090 C   0  0  0  0  0  0  0  0  0  0  0  0
    9.9740    0.4940    0.1060 C   0  0  0  0  0  0  0  0  0  0  0  0
   11.1010   -0.2880    0.3630 C   0  0  0  0  0  0  0  0  0  0  0  0
  1  2  1  0
  2  3  2  0
  2 47  1  0
  3  4  1  0
  4  5  2  0
  5  6  1  0
  5 46  1  0
  6  7  2  0
  7  8  1  0
  7 44  1  0
  8  9  1  6
  8 10  1  0
 10 11  2  3
 11 12  1  0
 11 43  1  0
 12 13  1  0
 13 14  1  0
 13 43  1  0
 14 15  2  0
 14 16  1  0
 17 16  1  6
 17 18  1  0
 17 38  1  0
 18 19  1  0
 19 20  2  0
 19 21  1  0
 21 22  1  0
 21 37  1  0
 22 23  1  0
 23 24  1  0
 24 25  1  6
 24 26  1  0
 24 36  1  0
 26 27  1  0
 27 28  1  0
 28 29  1  1
 28 30  1  0
 30 31  2  0
 30 35  1  0
 31 32  1  0
 32 33  2  0
 33 34  1  0
 34 35  2  0
 36 37  1  0
 38 39  1  1
 38 40  1  0
 40 41  2  0
 40 42  1  0
 44 45  2  0
 45 46  1  0
 46 47  2  0
M  CHG  2  17   1  27   1
M  END
