
     RDKit          3D

 48 54  0  0  0  0  0  0  0  0999 V2000
    5.0830   -1.9330   -0.9760 C   0  0  0  0  0  0  0  0  0  0  0  0
    4.7770   -1.1210    0.1940 N   0  0  2  0  0  0  0  0  0  0  0  0
    5.2390   -1.7560    1.3840 C   0  0  0  0  0  0  0  0  0  0  0  0
    6.4830   -1.1810    1.9900 C   0  0  0  0  0  0  0  0  0  0  0  0
    7.6510   -1.2260    1.0650 C   0  0  0  0  0  0  0  0  0  0  0  0
    8.4720   -2.3160    0.9760 C   0  0  0  0  0  0  0  0  0  0  0  0
    9.5500   -2.3480    0.1250 C   0  0  0  0  0  0  0  0  0  0  0  0
    9.8030   -1.2400   -0.6610 C   0  0  0  0  0  0  0  0  0  0  0  0
    8.9940   -0.1320   -0.5910 C   0  0  0  0  0  0  0  0  0  0  0  0
    7.9340   -0.1180    0.2560 C   0  0  0  0  0  0  0  0  0  0  0  0
    3.3000   -0.9970    0.3060 C   0  0  0  0  0  0  0  0  0  0  0  0
    2.9800    0.2030    1.0660 C   0  0  0  0  0  0  0  0  0  0  0  0
    3.9980    0.8860    1.4770 O   0  0  0  0  0  0  0  0  0  0  0  0
    1.6870    0.6810    1.4080 N   0  0  0  0  0  0  0  0  0  0  0  0
    0.5710    0.3010    0.6090 C   0  0  0  0  0  0  0  0  0  0  0  0
    0.7170    0.1400   -0.7680 C   0  0  0  0  0  0  0  0  0  0  0  0
   -0.3800   -0.3110   -1.4690 C   0  0  0  0  0  0  0  0  0  0  0  0
   -1.5590   -0.5850   -0.8570 C   0  0  0  0  0  0  0  0  0  0  0  0
   -2.7090   -1.1640   -1.5530 C   0  0  0  0  0  0  0  0  0  0  0  0
   -2.4580   -2.1490   -2.2740 O   0  0  0  0  0  0  0  0  0  0  0  0
   -3.9900   -0.6350   -1.3930 N   0  0  0  0  0  0  0  0  0  0  0  0
   -5.1530   -1.1740   -1.9850 C   0  0  0  0  0  0  0  0  0  0  0  0
   -5.2360   -2.3980   -2.5880 C   0  0  0  0  0  0  0  0  0  0  0  0
   -6.4240   -2.9400   -3.0690 C   0  0  0  0  0  0  0  0  0  0  0  0
   -7.5880   -2.2270   -2.9430 C   0  0  0  0  0  0  0  0  0  0  0  0
   -7.5390   -0.9900   -2.3410 C   0  0  0  0  0  0  0  0  0  0  0  0
   -6.3540   -0.4760   -1.8760 C   0  0  0  0  0  0  0  0  0  0  0  0
   -6.3190    0.7700   -1.2880 O   0  0  0  0  0  0  0  0  0  0  0  0
   -7.5450    1.4910   -1.1250 C   0  0  0  0  0  0  0  0  0  0  0  0
   -7.2630    2.8820   -0.5780 C   0  0  0  0  0  0  0  0  0  0  0  0
   -8.5220    3.5210   -0.4600 O   0  0  0  0  0  0  0  0  0  0  0  0
   -8.6900   -3.0050   -3.5280 C   0  0  0  0  0  0  0  0  0  0  0  0
   -8.1630   -4.3490   -3.6830 N   0  0  0  0  0  0  0  0  0  0  0  0
   -6.7210   -4.2250   -3.7350 C   0  0  0  0  0  0  0  0  0  0  0  0
   -1.6990   -0.4110    0.5340 C   0  0  0  0  0  0  0  0  0  0  0  0
   -0.6200    0.0330    1.2290 C   0  0  0  0  0  0  0  0  0  0  0  0
   -0.7230    0.3280    2.6730 C   0  0  2  0  0  0  0  0  0  0  0  0
   -2.0600    0.4580    3.0080 O   0  0  0  0  0  0  0  0  0  0  0  0
    0.0540    1.5920    2.9950 C   0  0  2  0  0  0  0  0  0  0  0  0
   -0.5710    2.7470    2.2980 C   0  0  0  0  0  0  0  0  0  0  0  0
    0.2830    3.5430    1.3760 C   0  0  0  0  0  0  0  0  0  0  0  0
    1.5760    3.8210    2.0160 C   0  0  0  0  0  0  0  0  0  0  0  0
    2.1560    5.0560    2.0300 C   0  0  0  0  0  0  0  0  0  0  0  0
    3.3760    5.2240    2.6550 C   0  0  0  0  0  0  0  0  0  0  0  0
    4.0270    4.1730    3.2680 C   0  0  0  0  0  0  0  0  0  0  0  0
    3.3970    2.9260    3.2300 C   0  0  0  0  0  0  0  0  0  0  0  0
    2.1930    2.7260    2.6200 C   0  0  0  0  0  0  0  0  0  0  0  0
    1.5260    1.4250    2.6380 C   0  0  2  0  0  0  0  0  0  0  0  0
  2  1  1  6
  2  3  1  0
  2 11  1  0
  3  4  1  0
  4  5  1  0
  5  6  2  0
  5 10  1  0
  6  7  1  0
  7  8  2  0
  8  9  1  0
  9 10  2  0
 11 12  1  0
 12 13  2  0
 12 14  1  0
 14 15  1  0
 48 14  1  6
 15 16  2  0
 15 36  1  0
 16 17  1  0
 17 18  2  0
 18 19  1  0
 18 35  1  0
 19 20  2  0
 19 21  1  0
 21 22  1  0
 22 23  2  0
 22 27  1  0
 23 24  1  0
 24 25  2  0
 24 34  1  0
 25 26  1  0
 25 32  1  0
 26 27  2  0
 27 28  1  0
 28 29  1  0
 29 30  1  0
 30 31  1  0
 32 33  1  0
 33 34  1  0
 35 36  2  0
 36 37  1  0
 37 38  1  6
 37 39  1  0
 39 40  1  6
 39 48  1  0
 40 41  1  0
 41 42  1  0
 42 43  2  0
 42 47  1  0
 43 44  1  0
 44 45  2  0
 45 46  1  0
 46 47  2  0
 47 48  1  0
M  CHG  2   2   1  33   1
M  END
