
     RDKit          3D

 48 53  0  0  0  0  0  0  0  0999 V2000
   -6.7450    2.9470    2.4290 C   0  0  0  0  0  0  0  0  0  0  0  0
   -6.8630    1.7680    3.3550 C   0  0  0  0  0  0  0  0  0  0  0  0
   -5.6510    0.9700    3.4040 N   0  0  0  0  0  0  0  0  0  0  0  0
   -5.8000   -0.1570    2.4990 C   0  0  0  0  0  0  0  0  0  0  0  0
   -5.2420    0.1910    1.1190 C   0  0  1  0  0  0  0  0  0  0  0  0
   -3.7990    0.5310    1.1700 C   0  0  0  0  0  0  0  0  0  0  0  0
   -2.8350   -0.3890    1.5450 C   0  0  0  0  0  0  0  0  0  0  0  0
   -1.4790   -0.0620    1.6050 C   0  0  0  0  0  0  0  0  0  0  0  0
   -1.0360    1.1920    1.2960 C   0  0  0  0  0  0  0  0  0  0  0  0
    0.3360    1.6650    1.3120 C   0  0  1  0  0  0  0  0  0  0  0  0
    1.2490    1.0690    2.3330 C   0  0  0  0  0  0  0  0  0  0  0  0
    2.6360    1.3700    1.8070 C   0  0  0  0  0  0  0  0  0  0  0  0
    2.4630    1.6930    0.3800 N   0  0  0  0  0  0  0  0  0  0  0  0
    3.4790    2.2340   -0.4380 C   0  0  0  0  0  0  0  0  0  0  0  0
    3.4790    3.5310   -0.8830 C   0  0  0  0  0  0  0  0  0  0  0  0
    4.4650    4.0770   -1.6540 C   0  0  0  0  0  0  0  0  0  0  0  0
    4.3560    5.4700   -2.0650 C   0  0  0  0  0  0  0  0  0  0  0  0
    5.2330    6.0420   -2.7800 O   0  0  0  0  0  0  0  0  0  0  0  0
    5.5250    3.2840   -2.0090 C   0  0  0  0  0  0  0  0  0  0  0  0
    5.5690    1.9730   -1.5870 C   0  0  0  0  0  0  0  0  0  0  0  0
    4.5700    1.3910   -0.7960 C   0  0  0  0  0  0  0  0  0  0  0  0
    4.5190    0.1580   -0.3390 O   0  0  0  0  0  0  0  0  0  0  0  0
    5.1820   -0.9670   -0.2290 C   0  0  0  0  0  0  0  0  0  0  0  0
    6.5300   -1.2280   -0.5700 C   0  0  0  0  0  0  0  0  0  0  0  0
    7.1720   -2.4100   -0.4420 C   0  0  0  0  0  0  0  0  0  0  0  0
    8.5380   -2.6670   -0.7430 C   0  0  0  0  0  0  0  0  0  0  0  0
    9.5560   -1.9570   -1.0960 C   0  0  0  0  0  0  0  0  0  0  0  0
    9.9100   -0.6220   -1.3700 C   0  0  0  0  0  0  0  0  0  0  0  0
   11.2830   -0.3300   -1.7660 N   0  0  0  0  0  0  0  0  0  0  0  0
    9.1810    0.3860   -1.3190 O   0  0  0  0  0  0  0  0  0  0  0  0
    6.4190   -3.4730    0.0800 C   0  0  0  0  0  0  0  0  0  0  0  0
    5.1060   -3.2730    0.4270 C   0  0  0  0  0  0  0  0  0  0  0  0
    4.4710   -2.0760    0.2930 C   0  0  0  0  0  0  0  0  0  0  0  0
    3.1500   -1.8710    0.6400 O   0  0  0  0  0  0  0  0  0  0  0  0
    2.4440   -3.0040    1.1650 C   0  0  0  0  0  0  0  0  0  0  0  0
    1.1160    1.3670    0.0620 C   0  0  0  0  0  0  0  0  0  0  0  0
    0.6680    0.9360   -1.0000 O   0  0  0  0  0  0  0  0  0  0  0  0
   -2.0150    2.1150    0.9190 C   0  0  0  0  0  0  0  0  0  0  0  0
   -3.3360    1.7970    0.8590 C   0  0  0  0  0  0  0  0  0  0  0  0
   -5.6070   -0.7790    0.0850 C   0  0  0  0  0  0  0  0  0  0  0  0
   -5.6220   -2.1350    0.3760 C   0  0  0  0  0  0  0  0  0  0  0  0
   -5.9650   -3.0850   -0.5520 C   0  0  0  0  0  0  0  0  0  0  0  0
   -6.3160   -2.7270   -1.8390 C   0  0  0  0  0  0  0  0  0  0  0  0
   -6.3070   -1.3840   -2.1470 C   0  0  0  0  0  0  0  0  0  0  0  0
   -5.9610   -0.4410   -1.2050 C   0  0  0  0  0  0  0  0  0  0  0  0
   -6.7200   -1.2860   -3.5690 C   0  0  0  0  0  0  0  0  0  0  0  0
   -7.5340   -2.4840   -3.7390 N   0  0  0  0  0  0  0  0  0  0  0  0
   -6.7310   -3.4920   -3.0500 C   0  0  0  0  0  0  0  0  0  0  0  0
  1  2  1  0
  2  3  1  0
  3  4  1  0
  5  4  1  1
  5  6  1  0
  5 40  1  0
  6  7  2  0
  6 39  1  0
  7  8  1  0
  8  9  2  0
 10  9  1  6
  9 38  1  0
 10 11  1  0
 10 36  1  0
 11 12  1  0
 12 13  1  0
 13 14  1  0
 13 36  1  0
 14 15  2  0
 14 21  1  0
 15 16  1  0
 16 17  1  0
 16 19  2  0
 17 18  2  0
 19 20  1  0
 20 21  2  0
 21 22  1  0
 22 23  1  0
 23 24  2  0
 23 33  1  0
 24 25  1  0
 25 26  1  0
 25 31  2  0
 26 27  2  3
 27 28  1  0
 28 29  1  0
 28 30  2  0
 31 32  1  0
 32 33  2  0
 33 34  1  0
 34 35  1  0
 36 37  2  0
 38 39  2  0
 40 41  2  0
 40 45  1  0
 41 42  1  0
 42 43  2  0
 43 44  1  0
 43 48  1  0
 44 45  2  0
 44 46  1  0
 46 47  1  0
 47 48  1  0
M  CHG  2   3   1  47   1
M  END
