
     RDKit          3D

 24 25  0  0  0  0  0  0  0  0999 V2000
    8.5980   -0.2660    0.4430 C   0  0  0  0  0  0  0  0  0  0  0  0
    7.8680   -0.7150   -0.8030 C   0  0  0  0  0  0  0  0  0  0  0  0
    6.6210   -0.0510   -0.8300 O   0  0  0  0  0  0  0  0  0  0  0  0
    5.7040   -0.2170    0.1970 C   0  0  0  0  0  0  0  0  0  0  0  0
    6.0080   -0.9670    1.1440 O   0  0  0  0  0  0  0  0  0  0  0  0
    4.4280    0.5060    0.0980 C   0  0  0  0  0  0  0  0  0  0  0  0
    3.3920    0.1490    1.5430 S   0  0  0  0  0  0  0  0  0  0  0  0
    1.8390    1.0630    1.3380 C   0  0  0  0  0  0  0  0  0  0  0  0
    1.1010    0.5140    0.1860 C   0  0  0  0  0  0  0  0  0  0  0  0
    1.5800   -0.4460   -0.4830 O   0  0  0  0  0  0  0  0  0  0  0  0
   -0.1570    1.0020   -0.2480 N   0  0  0  0  0  0  0  0  0  0  0  0
   -1.2040    0.2890   -0.0570 C   0  0  0  0  0  0  0  0  0  0  0  0
   -2.4990    0.8240   -0.5210 C   0  0  0  0  0  0  0  0  0  0  0  0
   -3.6760    0.1520    0.1470 C   0  0  1  0  0  0  0  0  0  0  0  0
   -4.9440    0.4870   -0.5400 C   0  0  0  0  0  0  0  0  0  0  0  0
   -5.1340    1.2010   -1.7010 C   0  0  0  0  0  0  0  0  0  0  0  0
   -6.4570    1.2720   -1.9830 N   0  0  0  0  0  0  0  0  0  0  0  0
   -7.0750    0.6270   -1.0360 N   0  0  0  0  0  0  0  0  0  0  0  0
   -6.1980    0.1210   -0.1190 C   0  0  0  0  0  0  0  0  0  0  0  0
   -6.6370   -0.6460    1.0490 C   0  0  0  0  0  0  0  0  0  0  0  0
   -3.4910   -1.3430    0.2520 C   0  0  0  0  0  0  0  0  0  0  0  0
   -2.2490   -1.6080    1.0300 C   0  0  0  0  0  0  0  0  0  0  0  0
   -2.2530   -2.3720    2.0420 O   0  0  0  0  0  0  0  0  0  0  0  0
   -1.0610   -0.9670    0.5840 N   0  0  0  0  0  0  0  0  0  0  0  0
  1  2  1  0
  2  3  1  0
  3  4  1  0
  4  5  2  0
  4  6  1  0
  6  7  1  0
  7  8  1  0
  8  9  1  0
  9 10  2  0
  9 11  1  0
 11 12  2  3
 12 13  1  0
 12 24  1  0
 13 14  1  0
 14 15  1  6
 14 21  1  0
 15 16  2  0
 15 19  1  0
 16 17  1  0
 17 18  1  0
 18 19  2  0
 19 20  1  0
 21 22  1  0
 22 23  2  0
 22 24  1  0
M  END
