
     RDKit          3D

 18 19  0  0  0  0  0  0  0  0999 V2000
    4.4690   -0.9160    0.1830 O   0  0  0  0  0  0  0  0  0  0  0  0
    4.0710   -0.1980   -0.7540 C   0  0  0  0  0  0  0  0  0  0  0  0
    4.9800    0.2820   -1.6760 O   0  0  0  0  0  0  0  0  0  0  0  0
    2.6290    0.1050   -0.8280 C   0  0  0  0  0  0  0  0  0  0  0  0
    2.2290    0.8230   -1.7650 O   0  0  0  0  0  0  0  0  0  0  0  0
    1.7230   -0.3990    0.1300 N   0  0  0  0  0  0  0  0  0  0  0  0
    0.3300   -0.1500    0.1380 C   0  0  0  0  0  0  0  0  0  0  0  0
   -0.2570    0.8520   -0.6060 C   0  0  0  0  0  0  0  0  0  0  0  0
   -1.6230    1.1610   -0.5670 C   0  0  0  0  0  0  0  0  0  0  0  0
   -2.4010    2.0670   -1.1830 N   0  0  0  0  0  0  0  0  0  0  0  0
   -3.6730    1.9370   -0.7820 C   0  0  0  0  0  0  0  0  0  0  0  0
   -3.7540    0.8990    0.1440 C   0  0  0  0  0  0  0  0  0  0  0  0
   -2.4530    0.4430    0.2490 C   0  0  0  0  0  0  0  0  0  0  0  0
   -1.9050   -0.5560    0.9980 C   0  0  0  0  0  0  0  0  0  0  0  0
   -0.5260   -0.8780    0.9670 C   0  0  0  0  0  0  0  0  0  0  0  0
   -0.0830   -1.9710    1.7610 C   0  0  0  0  0  0  0  0  0  0  0  0
   -0.9470   -2.5770    2.5050 O   0  0  0  0  0  0  0  0  0  0  0  0
    1.1810   -2.4620    1.8240 O   0  0  0  0  0  0  0  0  0  0  0  0
  1  2  2  0
  2  3  1  0
  2  4  1  0
  4  5  2  0
  4  6  1  0
  6  7  1  0
  7  8  2  0
  7 15  1  0
  8  9  1  0
  9 10  1  0
  9 13  2  0
 10 11  1  0
 11 12  2  0
 12 13  1  0
 13 14  1  0
 14 15  2  0
 15 16  1  0
 16 17  2  0
 16 18  1  0
M  END
