
     RDKit          3D

 24 25  0  0  0  0  0  0  0  0999 V2000
    4.5770   -0.5740    1.8080 C   0  0  0  0  0  0  0  0  0  0  0  0
    3.5350   -1.3740    1.2190 N   0  0  0  0  0  0  0  0  0  0  0  0
    3.5280   -1.1760   -0.2250 C   0  0  2  0  0  0  0  0  0  0  0  0
    3.2250    0.2290   -0.5320 C   0  0  0  0  0  0  0  0  0  0  0  0
    2.0360    0.6750   -0.8610 C   0  0  0  0  0  0  0  0  0  0  0  0
    1.7640    2.0730   -1.1640 N   0  0  0  0  0  0  0  0  0  0  0  0
    0.5570    2.5480   -1.2210 C   0  0  0  0  0  0  0  0  0  0  0  0
   -0.7070    1.9000   -0.6820 C   0  0  0  0  0  0  0  0  0  0  0  0
   -1.7540    2.0090   -1.3660 O   0  0  0  0  0  0  0  0  0  0  0  0
   -0.7450    1.2070    0.5390 N   0  0  0  0  0  0  0  0  0  0  0  0
   -1.9410    0.5820    1.0680 C   0  0  0  0  0  0  0  0  0  0  0  0
   -2.4810   -0.4770    0.1310 C   0  0  0  0  0  0  0  0  0  0  0  0
   -3.7190   -1.0580    0.7760 C   0  0  1  0  0  0  0  0  0  0  0  0
   -4.7760    0.0140    1.0040 C   0  0  0  0  0  0  0  0  0  0  0  0
   -4.3170   -2.0510   -0.2120 C   0  0  0  0  0  0  0  0  0  0  0  0
   -3.4590   -1.6990    2.0200 N   0  0  0  0  0  0  0  0  0  0  0  0
   -3.8100   -2.7940    2.3150 O   0  0  0  0  0  0  0  0  0  0  0  0
    0.4000    3.8840   -1.7130 C   0  0  0  0  0  0  0  0  0  0  0  0
    2.0540    4.3870   -2.0640 S   0  0  0  0  0  0  0  0  0  0  0  0
    2.8010    2.8310   -1.5500 C   0  0  0  0  0  0  0  0  0  0  0  0
    4.0380    2.6370   -1.5970 O   0  0  0  0  0  0  0  0  0  0  0  0
    1.0250   -0.4230   -1.0050 C   0  0  0  0  0  0  0  0  0  0  0  0
    1.7080   -1.4910   -1.6990 O   0  0  0  0  0  0  0  0  0  0  0  0
    2.5660   -2.1210   -0.8510 C   0  0  0  0  0  0  0  0  0  0  0  0
  1  2  1  0
  3  2  1  1
  3  4  1  0
  3 24  1  0
  4  5  2  0
  5  6  1  0
  5 22  1  0
  6  7  1  0
  6 20  1  0
  7  8  1  0
  7 18  2  0
  8  9  2  0
  8 10  1  0
 10 11  1  0
 11 12  1  0
 12 13  1  0
 13 14  1  1
 13 15  1  0
 13 16  1  0
 16 17  2  0
 18 19  1  0
 19 20  1  0
 20 21  2  0
 22 23  1  0
 23 24  1  0
M  END
