
     RDKit          3D

 24 25  0  0  0  0  0  0  0  0999 V2000
   -1.3360    3.9710   -0.9840 C   0  0  0  0  0  0  0  0  0  0  0  0
   -0.1600    3.1440   -0.6440 C   0  0  0  0  0  0  0  0  0  0  0  0
   -0.1290    1.8160   -1.0210 O   0  0  0  0  0  0  0  0  0  0  0  0
   -0.9500    0.7800   -0.6910 C   0  0  0  0  0  0  0  0  0  0  0  0
   -2.2470    0.9790   -0.9870 C   0  0  0  0  0  0  0  0  0  0  0  0
   -3.2250   -0.0450   -0.6840 C   0  0  0  0  0  0  0  0  0  0  0  0
   -4.4730    0.0940   -0.9460 N   0  0  0  0  0  0  0  0  0  0  0  0
   -5.4150   -0.8940   -0.6540 N   0  0  0  0  0  0  0  0  0  0  0  0
   -5.0890   -1.8390    0.3960 C   0  0  1  0  0  0  0  0  0  0  0  0
   -6.0290   -3.0050    0.4270 C   0  0  0  0  0  0  0  0  0  0  0  0
   -3.6850   -2.2460    0.2320 C   0  0  0  0  0  0  0  0  0  0  0  0
   -3.2770   -3.4260    0.3450 O   0  0  0  0  0  0  0  0  0  0  0  0
   -2.7240   -1.2250   -0.0760 N   0  0  0  0  0  0  0  0  0  0  0  0
   -1.3520   -1.3890    0.2150 C   0  0  0  0  0  0  0  0  0  0  0  0
   -0.4360   -0.4300   -0.0700 C   0  0  0  0  0  0  0  0  0  0  0  0
    0.9380   -0.6920    0.2590 C   0  0  0  0  0  0  0  0  0  0  0  0
    1.1590   -1.8290    0.8350 O   0  0  0  0  0  0  0  0  0  0  0  0
    2.1240    0.0910    0.0580 C   0  0  0  0  0  0  0  0  0  0  0  0
    2.2050    1.1910   -0.5050 O   0  0  0  0  0  0  0  0  0  0  0  0
    3.4090   -0.3950    0.5430 N   0  0  0  0  0  0  0  0  0  0  0  0
    4.5920    0.4040    0.3340 C   0  0  0  0  0  0  0  0  0  0  0  0
    5.7780   -0.3070    0.9190 C   0  0  2  0  0  0  0  0  0  0  0  0
    7.0590    0.4550    0.7470 C   0  0  0  0  0  0  0  0  0  0  0  0
    5.9870   -1.9240    0.1240 S   0  0  0  0  0  0  0  0  0  0  0  0
  1  2  1  0
  2  3  1  0
  3  4  1  0
  4  5  2  0
  4 15  1  0
  5  6  1  0
  6  7  2  0
  6 13  1  0
  7  8  1  0
  8  9  1  0
  9 10  1  6
  9 11  1  0
 11 12  2  0
 11 13  1  0
 13 14  1  0
 14 15  2  0
 15 16  1  0
 16 17  2  0
 16 18  1  0
 18 19  2  0
 18 20  1  0
 20 21  1  0
 21 22  1  0
 22 23  1  6
 22 24  1  0
M  END
