
     RDKit          3D

 24 25  0  0  0  0  0  0  0  0999 V2000
   -2.6340   -3.2380    0.0460 C   0  0  0  0  0  0  0  0  0  0  0  0
   -3.2880   -2.1700    0.3220 C   0  0  0  0  0  0  0  0  0  0  0  0
   -3.0810   -0.7890   -0.0580 C   0  0  0  0  0  0  0  0  0  0  0  0
   -4.0530    0.0320    0.3950 C   0  0  0  0  0  0  0  0  0  0  0  0
   -4.2050    1.4660    0.2160 C   0  0  0  0  0  0  0  0  0  0  0  0
   -4.1970    2.0930    1.4640 O   0  0  0  0  0  0  0  0  0  0  0  0
   -1.9910   -0.2970   -0.8820 C   0  0  2  0  0  0  0  0  0  0  0  0
   -1.9020   -1.1900   -2.1700 C   0  0  0  0  0  0  0  0  0  0  0  0
   -0.6220   -0.2170   -0.3240 C   0  0  0  0  0  0  0  0  0  0  0  0
   -0.0290    1.0040   -0.3030 C   0  0  0  0  0  0  0  0  0  0  0  0
   -0.7830    2.1740   -0.8380 C   0  0  0  0  0  0  0  0  0  0  0  0
    1.2690    1.2550    0.1890 N   0  0  0  0  0  0  0  0  0  0  0  0
    2.1430    0.2960    0.7270 C   0  0  0  0  0  0  0  0  0  0  0  0
    3.4700    0.7140    1.1920 C   0  0  0  0  0  0  0  0  0  0  0  0
    3.8520    1.9260    1.7210 C   0  0  0  0  0  0  0  0  0  0  0  0
    5.1600    1.8720    2.0080 N   0  0  0  0  0  0  0  0  0  0  0  0
    5.6140    0.6530    1.6730 C   0  0  0  0  0  0  0  0  0  0  0  0
    6.8010    0.2750    1.8140 O   0  0  0  0  0  0  0  0  0  0  0  0
    4.5920   -0.0480    1.1790 N   0  0  0  0  0  0  0  0  0  0  0  0
    4.6370   -1.4090    0.6950 C   0  0  0  0  0  0  0  0  0  0  0  0
    1.8530   -0.9390    0.8360 N   0  0  0  0  0  0  0  0  0  0  0  0
    0.3010   -1.5440    0.3090 S   0  0  2  0  0  0  0  0  0  0  0  0
    0.6320   -2.5950   -0.7140 O   0  0  0  0  0  0  0  0  0  0  0  0
   -0.3200   -2.1090    1.5630 O   0  0  0  0  0  0  0  0  0  0  0  0
  1  2  2  0
  2  3  1  0
  3  4  2  3
  3  7  1  0
  4  5  1  0
  5  6  1  0
  7  8  1  6
  7  9  1  0
  9 10  2  0
  9 22  1  0
 10 11  1  0
 10 12  1  0
 12 13  1  0
 13 14  1  0
 13 21  2  0
 14 15  2  0
 14 19  1  0
 15 16  1  0
 16 17  1  0
 17 18  2  0
 17 19  1  0
 19 20  1  0
 22 21  1  1
 22 23  2  0
 22 24  2  0
M  END
