
     RDKit          3D

 24 25  0  0  0  0  0  0  0  0999 V2000
    3.3090   -6.1450   -3.5150 C   0  0  0  0  0  0  0  0  0  0  0  0
    2.1570   -6.8760   -3.1820 O   0  0  0  0  0  0  0  0  0  0  0  0
    1.0850   -6.0190   -3.0840 C   0  0  0  0  0  0  0  0  0  0  0  0
    1.2450   -5.0960   -1.9010 C   0  0  0  0  0  0  0  0  0  0  0  0
    2.1340   -5.3900   -1.0990 O   0  0  0  0  0  0  0  0  0  0  0  0
    0.3960   -4.0000   -1.8000 N   0  0  0  0  0  0  0  0  0  0  0  0
    0.3380   -3.0260   -0.8210 C   0  0  0  0  0  0  0  0  0  0  0  0
    0.9530   -2.7640    0.2680 C   0  0  0  0  0  0  0  0  0  0  0  0
    2.0500   -3.5760    0.8440 C   0  0  0  0  0  0  0  0  0  0  0  0
    2.9140   -4.2390    1.2980 N   0  0  0  0  0  0  0  0  0  0  0  0
    0.6170   -1.5380    0.9780 C   0  0  0  0  0  0  0  0  0  0  0  0
    1.1430   -1.1290    2.0970 O   0  0  0  0  0  0  0  0  0  0  0  0
   -0.3960   -0.7230    0.3580 C   0  0  0  0  0  0  0  0  0  0  0  0
   -0.8380    0.4410    0.5860 N   0  0  0  0  0  0  0  0  0  0  0  0
   -0.3460    1.2680    1.6340 C   0  0  0  0  0  0  0  0  0  0  0  0
   -0.4650    2.6700    1.3290 N   0  0  0  0  0  0  0  0  0  0  0  0
    0.2560    2.9850    0.1450 C   0  0  0  0  0  0  0  0  0  0  0  0
    0.1880    4.4540   -0.2170 C   0  0  0  0  0  0  0  0  0  0  0  0
   -1.1940    4.9710   -0.3930 C   0  0  0  0  0  0  0  0  0  0  0  0
   -1.8310    5.4260    0.7250 O   0  0  0  0  0  0  0  0  0  0  0  0
   -1.9650    4.5480    1.7680 C   0  0  1  0  0  0  0  0  0  0  0  0
   -3.2840    4.7150    2.4830 C   0  0  0  0  0  0  0  0  0  0  0  0
   -1.8110    3.1060    1.3810 C   0  0  0  0  0  0  0  0  0  0  0  0
   -0.9780   -1.7540   -0.9650 S   0  0  0  0  0  0  0  0  0  0  0  0
  1  2  1  0
  2  3  1  0
  3  4  1  0
  4  5  2  0
  4  6  1  0
  6  7  1  0
  7  8  2  0
  7 24  1  0
  8  9  1  0
  8 11  1  0
  9 10  3  0
 11 12  2  0
 11 13  1  0
 13 14  2  3
 13 24  1  0
 14 15  1  0
 15 16  1  0
 16 17  1  0
 16 23  1  0
 17 18  1  0
 18 19  1  0
 19 20  1  0
 20 21  1  0
 21 22  1  6
 21 23  1  0
M  END
