
     RDKit          3D

 24 25  0  0  0  0  0  0  0  0999 V2000
   -4.7890    3.5500    1.2720 C   0  0  0  0  0  0  0  0  0  0  0  0
   -4.1570    2.7010    2.3390 C   0  0  0  0  0  0  0  0  0  0  0  0
   -4.0190    1.3600    1.9200 O   0  0  0  0  0  0  0  0  0  0  0  0
   -3.2760    0.9830    0.8110 C   0  0  0  0  0  0  0  0  0  0  0  0
   -2.7020    1.8820    0.1570 O   0  0  0  0  0  0  0  0  0  0  0  0
   -3.1700   -0.4200    0.4270 C   0  0  0  0  0  0  0  0  0  0  0  0
   -3.7290   -1.4690    1.0370 N   0  0  0  0  0  0  0  0  0  0  0  0
   -3.3910   -2.5810    0.3790 C   0  0  0  0  0  0  0  0  0  0  0  0
   -2.5990   -2.2800   -0.6830 N   0  0  0  0  0  0  0  0  0  0  0  0
   -2.4580   -0.9400   -0.6570 C   0  0  0  0  0  0  0  0  0  0  0  0
   -1.5400    0.1230   -1.7430 S   0  0  0  0  0  0  0  0  0  0  0  0
   -0.5670   -0.7650   -2.9610 C   0  0  0  0  0  0  0  0  0  0  0  0
    0.5560   -1.4340   -2.2820 C   0  0  0  0  0  0  0  0  0  0  0  0
    0.4240   -2.5650   -1.7990 O   0  0  0  0  0  0  0  0  0  0  0  0
    1.8140   -0.7940   -2.1680 N   0  0  0  0  0  0  0  0  0  0  0  0
    2.8810   -1.4960   -1.4960 C   0  0  1  0  0  0  0  0  0  0  0  0
    3.8560   -1.8460   -2.5600 C   0  0  0  0  0  0  0  0  0  0  0  0
    4.6220   -2.1010   -3.3960 N   0  0  0  0  0  0  0  0  0  0  0  0
    3.6160   -0.6720   -0.5060 C   0  0  0  0  0  0  0  0  0  0  0  0
    3.7500   -1.0170    0.7570 C   0  0  0  0  0  0  0  0  0  0  0  0
    4.4750   -0.2280    1.7840 C   0  0  0  0  0  0  0  0  0  0  0  0
    5.0040    0.9400    1.2130 O   0  0  0  0  0  0  0  0  0  0  0  0
    4.8870    1.3330   -0.0890 C   0  0  0  0  0  0  0  0  0  0  0  0
    4.2240    0.5760   -0.9430 C   0  0  0  0  0  0  0  0  0  0  0  0
  1  2  1  0
  2  3  1  0
  3  4  1  0
  4  5  2  0
  4  6  1  0
  6  7  1  0
  6 10  2  0
  7  8  2  0
  8  9  1  0
  9 10  1  0
 10 11  1  0
 11 12  1  0
 12 13  1  0
 13 14  2  0
 13 15  1  0
 15 16  1  0
 16 17  1  6
 16 19  1  0
 17 18  3  0
 19 20  2  0
 19 24  1  0
 20 21  1  0
 21 22  1  0
 22 23  1  0
 23 24  2  0
M  END
