
     RDKit          3D

 17 18  0  0  0  0  0  0  0  0999 V2000
   -3.0430   -0.4670    1.4540 N   0  0  0  0  0  0  0  0  0  0  0  0
   -1.5820   -0.3580    1.2520 C   0  0  0  0  0  0  0  0  0  0  0  0
   -1.2600    0.1250   -0.1190 C   0  0  2  0  0  0  0  0  0  0  0  0
   -1.9690    1.4340   -0.0980 O   0  0  0  0  0  0  0  0  0  0  0  0
   -1.9500   -0.5490   -1.2390 C   0  0  0  0  0  0  0  0  0  0  0  0
   -1.6050   -1.8070   -1.6010 O   0  0  0  0  0  0  0  0  0  0  0  0
    0.1220    0.5840   -0.3450 C   0  0  0  0  0  0  0  0  0  0  0  0
    0.2940    1.8200   -0.8710 C   0  0  0  0  0  0  0  0  0  0  0  0
    1.4950    2.5610   -1.2120 C   0  0  0  0  0  0  0  0  0  0  0  0
    1.4180    3.5620   -1.9680 O   0  0  0  0  0  0  0  0  0  0  0  0
    2.7700    2.2660   -0.7710 O   0  0  0  0  0  0  0  0  0  0  0  0
    3.2790    1.3260    0.1420 C   0  0  0  0  0  0  0  0  0  0  0  0
    2.5770    0.0510    0.1740 C   0  0  0  0  0  0  0  0  0  0  0  0
    3.2330   -1.1290    0.4510 C   0  0  0  0  0  0  0  0  0  0  0  0
    2.3510   -2.1370    0.4190 N   0  0  0  0  0  0  0  0  0  0  0  0
    1.1390   -1.6050    0.1230 C   0  0  0  0  0  0  0  0  0  0  0  0
    1.2600   -0.2660   -0.0290 C   0  0  0  0  0  0  0  0  0  0  0  0
  1  2  1  0
  2  3  1  0
  3  4  1  1
  3  5  1  0
  3  7  1  0
  5  6  1  0
  7  8  2  0
  7 17  1  0
  8  9  1  0
  9 10  2  0
  9 11  1  0
 11 12  1  0
 12 13  1  0
 13 14  2  0
 13 17  1  0
 14 15  1  0
 15 16  1  0
 16 17  2  0
M  CHG  1   1   1
M  END
