
     RDKit          3D

 17 17  0  0  0  0  0  0  0  0999 V2000
    2.3680   -2.1490    2.5990 C   0  0  0  0  0  0  0  0  0  0  0  0
    2.5020   -0.9200    1.7330 C   0  0  0  0  0  0  0  0  0  0  0  0
    1.2070   -0.4390    1.3460 O   0  0  0  0  0  0  0  0  0  0  0  0
    1.1370    0.6790    0.5500 C   0  0  0  0  0  0  0  0  0  0  0  0
    2.0730    1.6550    0.5710 C   0  0  0  0  0  0  0  0  0  0  0  0
    1.7240    2.6770   -0.3610 C   0  0  0  0  0  0  0  0  0  0  0  0
    0.5580    2.3620   -0.9880 C   0  0  0  0  0  0  0  0  0  0  0  0
   -0.0400    3.1760   -1.9600 N   0  0  0  0  0  0  0  0  0  0  0  0
    0.1330    1.0780   -0.4360 C   0  0  0  0  0  0  0  0  0  0  0  0
   -0.9690    0.3780   -0.7530 C   0  0  0  0  0  0  0  0  0  0  0  0
   -1.9880    0.7060   -1.7040 C   0  0  0  0  0  0  0  0  0  0  0  0
   -3.0940   -0.2440   -1.8560 N   0  0  0  0  0  0  0  0  0  0  0  0
   -2.0880    1.6660   -2.4210 O   0  0  0  0  0  0  0  0  0  0  0  0
   -1.2560   -0.9210   -0.0740 C   0  0  0  0  0  0  0  0  0  0  0  0
   -0.5440   -1.3920    0.7650 O   0  0  0  0  0  0  0  0  0  0  0  0
   -2.4110   -1.6590   -0.4070 O   0  0  0  0  0  0  0  0  0  0  0  0
   -2.6370   -2.8920    0.2720 C   0  0  0  0  0  0  0  0  0  0  0  0
  1  2  1  0
  2  3  1  0
  3  4  1  0
  4  5  2  0
  4  9  1  0
  5  6  1  0
  6  7  2  0
  7  8  1  0
  7  9  1  0
  9 10  2  3
 10 11  1  0
 10 14  1  0
 11 12  1  0
 11 13  2  0
 14 15  2  0
 14 16  1  0
 16 17  1  0
M  CHG  1   8   1
M  END
