
     RDKit          3D

 21 22  0  0  0  0  0  0  0  0999 V2000
    2.1190   -1.1610    0.9160 O   0  0  0  0  0  0  0  0  0  0  0  0
    2.0430    0.0540    1.1640 C   0  0  0  0  0  0  0  0  0  0  0  0
    3.2160    0.8600    1.0980 N   0  0  0  0  0  0  0  0  0  0  0  0
    4.4810    0.2900    0.7450 C   0  0  0  0  0  0  0  0  0  0  0  0
    4.4130   -0.2960   -0.6300 C   0  0  0  0  0  0  0  0  0  0  0  0
    4.0500    0.8520   -1.5790 C   0  0  0  0  0  0  0  0  0  0  0  0
    5.0850    1.7900   -1.4400 O   0  0  0  0  0  0  0  0  0  0  0  0
    0.7890    0.6040    1.5060 N   0  0  0  0  0  0  0  0  0  0  0  0
   -0.4200   -0.2700    1.5760 C   0  0  0  0  0  0  0  0  0  0  0  0
   -1.3700   -0.0050    0.7380 C   0  0  0  0  0  0  0  0  0  0  0  0
   -2.6500   -0.5310    0.4370 C   0  0  0  0  0  0  0  0  0  0  0  0
   -3.3670    0.0630   -0.5630 C   0  0  0  0  0  0  0  0  0  0  0  0
   -3.0620    1.2130   -1.4510 C   0  0  0  0  0  0  0  0  0  0  0  0
   -4.2070    1.3070   -2.2520 O   0  0  0  0  0  0  0  0  0  0  0  0
   -5.1530    0.3570   -1.9410 C   0  0  0  0  0  0  0  0  0  0  0  0
   -4.6890   -0.3980   -0.9440 C   0  0  0  0  0  0  0  0  0  0  0  0
   -5.2340   -1.4870   -0.2550 O   0  0  0  0  0  0  0  0  0  0  0  0
   -4.7290   -1.6260    1.0850 C   0  0  0  0  0  0  0  0  0  0  0  0
   -3.3160   -1.5850    1.0090 O   0  0  0  0  0  0  0  0  0  0  0  0
   -0.3010   -1.2720    2.6330 C   0  0  0  0  0  0  0  0  0  0  0  0
   -1.7610   -2.4440    2.9200 Br  0  0  0  0  0  0  0  0  0  0  0  0
  1  2  2  0
  2  3  1  0
  2  8  1  0
  3  4  1  0
  4  5  1  0
  5  6  1  0
  6  7  1  0
  8  9  1  0
  9 10  2  3
  9 20  1  0
 10 11  1  0
 11 12  2  0
 11 19  1  0
 12 13  1  0
 12 16  1  0
 13 14  1  0
 14 15  1  0
 15 16  2  0
 16 17  1  0
 17 18  1  0
 18 19  1  0
 20 21  1  0
M  END
