
     RDKit          3D

 21 22  0  0  0  0  0  0  0  0999 V2000
   -5.7510    2.7290   -0.0280 C   0  0  0  0  0  0  0  0  0  0  0  0
   -4.5440    1.9550    0.0150 O   0  0  0  0  0  0  0  0  0  0  0  0
   -4.4630    0.6910   -0.5140 C   0  0  0  0  0  0  0  0  0  0  0  0
   -5.5050    0.2210   -1.0510 O   0  0  0  0  0  0  0  0  0  0  0  0
   -3.2280   -0.1090   -0.4740 C   0  0  0  0  0  0  0  0  0  0  0  0
   -3.0900   -1.3760   -0.9860 C   0  0  0  0  0  0  0  0  0  0  0  0
   -1.7760   -1.7260   -0.7230 C   0  0  0  0  0  0  0  0  0  0  0  0
   -1.1730   -0.6700   -0.0680 C   0  0  0  0  0  0  0  0  0  0  0  0
    0.1870   -0.5520    0.4160 C   0  0  0  0  0  0  0  0  0  0  0  0
    0.5650    0.4850    0.9910 O   0  0  0  0  0  0  0  0  0  0  0  0
    1.1250   -1.6720    0.2220 C   0  0  2  0  0  0  0  0  0  0  0  0
    0.6220   -2.8990    0.8560 N   0  0  0  0  0  0  0  0  0  0  0  0
    2.3990   -1.3310    0.7750 N   0  0  0  0  0  0  0  0  0  0  0  0
    3.1840   -0.2320    0.3620 C   0  0  0  0  0  0  0  0  0  0  0  0
    3.4330    0.7740    1.2080 C   0  0  0  0  0  0  0  0  0  0  0  0
    4.2350    1.9500    0.8620 C   0  0  0  0  0  0  0  0  0  0  0  0
    4.7190    1.9120   -0.4510 O   0  0  0  0  0  0  0  0  0  0  0  0
    4.4840    0.8890   -1.3570 C   0  0  0  0  0  0  0  0  0  0  0  0
    3.7420   -0.1590   -0.9810 C   0  0  0  0  0  0  0  0  0  0  0  0
    3.4370   -1.5560   -2.2550 Br  0  0  0  0  0  0  0  0  0  0  0  0
   -2.0950    0.2380    0.0380 O   0  0  0  0  0  0  0  0  0  0  0  0
  1  2  1  0
  2  3  1  0
  3  4  2  0
  3  5  1  0
  5  6  2  0
  5 21  1  0
  6  7  1  0
  7  8  2  0
  8  9  1  0
  8 21  1  0
  9 10  2  0
  9 11  1  0
 11 12  1  1
 11 13  1  0
 13 14  1  0
 14 15  2  0
 14 19  1  0
 15 16  1  0
 16 17  1  0
 17 18  1  0
 18 19  2  0
 19 20  1  0
M  END
