
     RDKit          3D

 17 17  0  0  0  0  0  0  0  0999 V2000
    3.9450    2.7090   -0.7760 C   0  0  0  0  0  0  0  0  0  0  0  0
    3.4420    1.3790   -0.6030 O   0  0  0  0  0  0  0  0  0  0  0  0
    2.0810    1.2020   -0.2610 C   0  0  0  0  0  0  0  0  0  0  0  0
    1.3870    2.1990   -0.1260 O   0  0  0  0  0  0  0  0  0  0  0  0
    1.5680   -0.1100   -0.0870 N   0  0  0  0  0  0  0  0  0  0  0  0
    0.2510   -0.4740    0.2580 C   0  0  0  0  0  0  0  0  0  0  0  0
   -0.6390    0.4300    0.6230 C   0  0  0  0  0  0  0  0  0  0  0  0
   -2.0460    0.3330    1.0260 C   0  0  0  0  0  0  0  0  0  0  0  0
   -2.8590    1.4260    0.7010 O   0  0  0  0  0  0  0  0  0  0  0  0
   -3.0210    1.7580   -0.6850 C   0  0  0  0  0  0  0  0  0  0  0  0
   -2.6900   -0.6140    1.6480 C   0  0  0  0  0  0  0  0  0  0  0  0
   -4.0340   -0.5160    1.9430 O   0  0  0  0  0  0  0  0  0  0  0  0
   -1.9350   -2.1590    2.2000 S   0  0  0  0  0  0  0  0  0  0  0  0
   -0.8500   -2.6860    0.8550 C   0  0  0  0  0  0  0  0  0  0  0  0
   -0.0030   -1.9190    0.1330 C   0  0  0  0  0  0  0  0  0  0  0  0
    0.6580   -2.6520   -0.9630 C   0  0  0  0  0  0  0  0  0  0  0  0
    2.0250   -2.7300   -0.9310 O   0  0  0  0  0  0  0  0  0  0  0  0
  1  2  1  0
  2  3  1  0
  3  4  2  0
  3  5  1  0
  5  6  1  0
  6  7  2  0
  6 15  1  0
  7  8  1  0
  8  9  1  0
  8 11  2  0
  9 10  1  0
 11 12  1  0
 11 13  1  0
 13 14  1  0
 14 15  2  0
 15 16  1  0
 16 17  1  0
M  END
