
     RDKit          3D

 18 19  0  0  0  0  0  0  0  0999 V2000
   -0.8200   -2.3750   -0.4090 N   0  0  0  0  0  0  0  0  0  0  0  0
   -1.4490   -1.2140    0.0930 C   0  0  0  0  0  0  0  0  0  0  0  0
   -2.7940   -1.2930    0.3940 C   0  0  0  0  0  0  0  0  0  0  0  0
   -3.4480   -0.1750    0.8890 C   0  0  0  0  0  0  0  0  0  0  0  0
   -4.8010   -0.2050    1.2070 O   0  0  0  0  0  0  0  0  0  0  0  0
   -2.7510    1.0110    1.0790 C   0  0  0  0  0  0  0  0  0  0  0  0
   -3.4150    2.1230    1.5750 O   0  0  0  0  0  0  0  0  0  0  0  0
   -4.1540    3.2140    0.4140 S   0  0  0  0  0  0  0  0  0  0  0  0
   -1.4080    1.0570    0.7690 C   0  0  0  0  0  0  0  0  0  0  0  0
   -0.7270    2.2400    0.9610 O   0  0  0  0  0  0  0  0  0  0  0  0
   -0.7400   -0.0410    0.2760 C   0  0  0  0  0  0  0  0  0  0  0  0
    0.6220    0.0440   -0.0270 O   0  0  0  0  0  0  0  0  0  0  0  0
    1.5120   -0.2790    1.0310 C   0  0  0  0  0  0  0  0  0  0  0  0
    2.9560   -0.1500    0.5780 C   0  0  1  0  0  0  0  0  0  0  0  0
    3.2170   -0.9250   -0.6740 C   0  0  0  0  0  0  0  0  0  0  0  0
    3.7840   -0.0240   -1.5780 O   0  0  0  0  0  0  0  0  0  0  0  0
    4.0940    1.1050   -0.8480 C   0  0  0  0  0  0  0  0  0  0  0  0
    3.1350    1.1920    0.1800 O   0  0  0  0  0  0  0  0  0  0  0  0
  1  2  1  0
  2  3  2  0
  2 11  1  0
  3  4  1  0
  4  5  1  0
  4  6  2  0
  6  7  1  0
  6  9  1  0
  7  8  1  0
  9 10  1  0
  9 11  2  0
 11 12  1  0
 12 13  1  0
 14 13  1  6
 14 15  1  0
 14 18  1  0
 15 16  1  0
 16 17  1  0
 17 18  1  0
M  END
