
     RDKit          3D

 18 19  0  0  0  0  0  0  0  0999 V2000
    1.0100    3.7550   -0.0130 C   0  0  0  0  0  0  0  0  0  0  0  0
    1.0170    2.3310    0.0100 O   0  0  0  0  0  0  0  0  0  0  0  0
   -0.1380    1.5920    0.1140 C   0  0  0  0  0  0  0  0  0  0  0  0
   -1.2130    2.2150    0.1890 O   0  0  0  0  0  0  0  0  0  0  0  0
   -0.0330    0.1010    0.1310 C   0  0  0  0  0  0  0  0  0  0  0  0
    1.2220   -0.4660    0.0470 C   0  0  0  0  0  0  0  0  0  0  0  0
    2.5070    0.0130   -0.0710 N   0  0  0  0  0  0  0  0  0  0  0  0
    3.6110   -0.9030   -0.1320 C   0  0  0  0  0  0  0  0  0  0  0  0
    3.3790   -2.1220   -0.0770 O   0  0  0  0  0  0  0  0  0  0  0  0
    4.9190   -0.4600   -0.2500 O   0  0  0  0  0  0  0  0  0  0  0  0
    0.8230   -2.2440    0.1280 S   0  0  0  0  0  0  0  0  0  0  0  0
   -0.9410   -2.0700    0.2640 C   0  0  0  0  0  0  0  0  0  0  0  0
   -1.1260   -0.6660    0.2390 C   0  0  0  0  0  0  0  0  0  0  0  0
   -2.6120   -0.2300    0.3490 C   0  0  0  0  0  0  0  0  0  0  0  0
   -3.4470   -1.2950   -0.2590 C   0  0  0  0  0  0  0  0  0  0  0  0
   -3.3300   -2.5400    0.4380 O   0  0  0  0  0  0  0  0  0  0  0  0
   -2.0140   -3.0440    0.3640 C   0  0  0  0  0  0  0  0  0  0  0  0
   -1.7290   -4.2540    0.3790 O   0  0  0  0  0  0  0  0  0  0  0  0
  1  2  1  0
  2  3  1  0
  3  4  2  0
  3  5  1  0
  5  6  2  0
  5 13  1  0
  6  7  1  0
  6 11  1  0
  7  8  1  0
  8  9  2  0
  8 10  1  0
 11 12  1  0
 12 13  2  0
 12 17  1  0
 13 14  1  0
 14 15  1  0
 15 16  1  0
 16 17  1  0
 17 18  2  0
M  END
