
     RDKit          3D

 17 17  0  0  0  0  0  0  0  0999 V2000
   -4.6750    1.2790   -0.4250 N   0  0  0  0  0  0  0  0  0  0  0  0
   -4.6390    0.2180    0.5040 C   0  0  0  0  0  0  0  0  0  0  0  0
   -5.5950    0.2870    1.8520 S   0  0  0  0  0  0  0  0  0  0  0  0
   -3.7920   -0.9760    0.3630 C   0  0  0  0  0  0  0  0  0  0  0  0
   -2.4040   -0.6410    0.3170 O   0  0  0  0  0  0  0  0  0  0  0  0
   -1.4630   -1.6500    0.1850 C   0  0  0  0  0  0  0  0  0  0  0  0
   -1.8950   -2.8290    0.1120 O   0  0  0  0  0  0  0  0  0  0  0  0
   -0.0030   -1.4100    0.1270 C   0  0  0  0  0  0  0  0  0  0  0  0
    0.3280   -0.0570    0.2190 O   0  0  0  0  0  0  0  0  0  0  0  0
    1.6070    0.4440    0.1930 C   0  0  0  0  0  0  0  0  0  0  0  0
    1.7380    1.7480    0.3840 C   0  0  0  0  0  0  0  0  0  0  0  0
    3.0600    2.4030    0.3770 C   0  0  0  0  0  0  0  0  0  0  0  0
    4.0930    1.4840    0.1510 O   0  0  0  0  0  0  0  0  0  0  0  0
    3.9330    0.1290   -0.0460 C   0  0  0  0  0  0  0  0  0  0  0  0
    5.0690   -0.6330   -0.2560 O   0  0  0  0  0  0  0  0  0  0  0  0
    2.7420   -0.4300   -0.0350 C   0  0  0  0  0  0  0  0  0  0  0  0
    2.5860   -1.7770   -0.2300 O   0  0  0  0  0  0  0  0  0  0  0  0
  1  2  1  0
  2  3  2  0
  2  4  1  0
  4  5  1  0
  5  6  1  0
  6  7  2  0
  6  8  1  0
  8  9  1  0
  9 10  1  0
 10 11  2  0
 10 16  1  0
 11 12  1  0
 12 13  1  0
 13 14  1  0
 14 15  1  0
 14 16  2  0
 16 17  1  0
M  END
