
     RDKit          3D

 18 19  0  0  0  0  0  0  0  0999 V2000
    5.4010   -0.1280   -1.0400 N   0  0  0  0  0  0  0  0  0  0  0  0
    4.0230   -0.0290   -1.1520 C   0  0  0  0  0  0  0  0  0  0  0  0
    3.4620    0.0720   -2.2740 O   0  0  0  0  0  0  0  0  0  0  0  0
    3.1670   -0.0430    0.0180 C   0  0  0  0  0  0  0  0  0  0  0  0
    3.7110   -0.2200    1.1810 O   0  0  0  0  0  0  0  0  0  0  0  0
    1.8020    0.1060    0.0170 O   0  0  0  0  0  0  0  0  0  0  0  0
    1.0340    0.0350    1.2400 C   0  0  0  0  0  0  0  0  0  0  0  0
   -0.3930    0.2360    1.0190 C   0  0  0  0  0  0  0  0  0  0  0  0
   -1.0660   -0.5550    0.1130 C   0  0  0  0  0  0  0  0  0  0  0  0
   -0.4120   -1.5100   -0.6350 O   0  0  0  0  0  0  0  0  0  0  0  0
   -2.4470   -0.3810   -0.0490 C   0  0  0  0  0  0  0  0  0  0  0  0
   -3.5740   -1.1890   -1.0950 S   0  0  0  0  0  0  0  0  0  0  0  0
   -5.0410   -0.2480   -0.5510 C   0  0  0  0  0  0  0  0  0  0  0  0
   -4.5090    0.5880    0.3740 C   0  0  0  0  0  0  0  0  0  0  0  0
   -3.1960    0.5350    0.6380 C   0  0  0  0  0  0  0  0  0  0  0  0
   -2.4850    1.2820    1.5080 O   0  0  0  0  0  0  0  0  0  0  0  0
   -1.2260    1.1500    1.6790 C   0  0  0  0  0  0  0  0  0  0  0  0
   -0.6310    1.8990    2.5070 O   0  0  0  0  0  0  0  0  0  0  0  0
  1  2  1  0
  2  3  2  0
  2  4  1  0
  4  5  2  0
  4  6  1  0
  6  7  1  0
  7  8  1  0
  8  9  2  0
  8 17  1  0
  9 10  1  0
  9 11  1  0
 11 12  1  0
 11 15  2  0
 12 13  1  0
 13 14  2  0
 14 15  1  0
 15 16  1  0
 16 17  1  0
 17 18  2  0
M  END
