
     RDKit          3D

 18 18  0  0  0  0  0  0  0  0999 V2000
   -3.7970    1.0340    1.8260 C   0  0  0  0  0  0  0  0  0  0  0  0
   -3.5220   -0.4540    1.7620 C   0  0  0  0  0  0  0  0  0  0  0  0
   -2.5880   -0.7440    0.7370 O   0  0  0  0  0  0  0  0  0  0  0  0
   -1.2910   -0.1860    0.7600 C   0  0  0  0  0  0  0  0  0  0  0  0
   -1.0650    0.5450    1.7210 O   0  0  0  0  0  0  0  0  0  0  0  0
   -0.3540   -0.4920   -0.2910 C   0  0  0  0  0  0  0  0  0  0  0  0
    1.0010    0.0650   -0.3020 C   0  0  0  0  0  0  0  0  0  0  0  0
    1.4300    0.8480    0.6320 C   0  0  0  0  0  0  0  0  0  0  0  0
    2.7250    1.4810    0.7770 C   0  0  0  0  0  0  0  0  0  0  0  0
    2.9700    2.3120    1.9050 O   0  0  0  0  0  0  0  0  0  0  0  0
    3.6880    1.3250   -0.0830 C   0  0  0  0  0  0  0  0  0  0  0  0
    3.4490    0.3210   -1.4820 S   0  0  2  0  0  0  0  0  0  0  0  0
    4.5020   -0.7780   -1.4030 O   0  0  0  0  0  0  0  0  0  0  0  0
    3.7300    1.1770   -2.6860 O   0  0  0  0  0  0  0  0  0  0  0  0
    1.8310   -0.3470   -1.4890 C   0  0  0  0  0  0  0  0  0  0  0  0
   -0.8170   -1.3050   -1.2430 C   0  0  0  0  0  0  0  0  0  0  0  0
   -0.2120   -1.8050   -2.3830 N   0  0  0  0  0  0  0  0  0  0  0  0
   -2.1700   -1.7490   -1.0780 O   0  0  0  0  0  0  0  0  0  0  0  0
  1  2  1  0
  2  3  1  0
  3  4  1  0
  4  5  2  0
  4  6  1  0
  6  7  1  0
  6 16  2  3
  7  8  2  0
  7 15  1  0
  8  9  1  0
  9 10  1  0
  9 11  2  0
 11 12  1  0
 12 13  2  0
 12 14  2  0
 12 15  1  6
 16 17  1  0
 16 18  1  0
M  END
