
     RDKit          3D

 18 19  0  0  0  0  0  0  0  0999 V2000
    3.4890   -1.4520   -0.9970 C   0  0  0  0  0  0  0  0  0  0  0  0
    2.4430   -0.6500   -0.5460 O   0  0  0  0  0  0  0  0  0  0  0  0
    1.1340   -1.0300   -0.4360 C   0  0  0  0  0  0  0  0  0  0  0  0
    0.8690   -2.2080   -0.7760 O   0  0  0  0  0  0  0  0  0  0  0  0
    0.0530   -0.1180    0.0590 C   0  0  0  0  0  0  0  0  0  0  0  0
    0.3990    1.1490    0.4180 C   0  0  0  0  0  0  0  0  0  0  0  0
    1.6370    1.8500    0.4220 N   0  0  0  0  0  0  0  0  0  0  0  0
    1.6170    3.2100    0.8810 C   0  0  0  0  0  0  0  0  0  0  0  0
    0.5690    3.7720    1.2640 O   0  0  0  0  0  0  0  0  0  0  0  0
    2.8060    3.9490    0.9070 O   0  0  0  0  0  0  0  0  0  0  0  0
   -1.1550    1.9130    0.9600 S   0  0  0  0  0  0  0  0  0  0  0  0
   -2.1370    0.4220    0.6440 C   0  0  0  0  0  0  0  0  0  0  0  0
   -1.2550   -0.4530    0.1880 C   0  0  0  0  0  0  0  0  0  0  0  0
   -1.8620   -1.8170   -0.1600 C   0  0  0  0  0  0  0  0  0  0  0  0
   -3.3050   -1.6870   -0.4930 C   0  0  0  0  0  0  0  0  0  0  0  0
   -4.0870   -1.0310    0.5060 O   0  0  0  0  0  0  0  0  0  0  0  0
   -3.5630    0.2360    0.8400 C   0  0  0  0  0  0  0  0  0  0  0  0
   -4.2240    1.1830    1.2810 O   0  0  0  0  0  0  0  0  0  0  0  0
  1  2  1  0
  2  3  1  0
  3  4  2  0
  3  5  1  0
  5  6  2  0
  5 13  1  0
  6  7  1  0
  6 11  1  0
  7  8  1  0
  8  9  2  0
  8 10  1  0
 11 12  1  0
 12 13  2  0
 12 17  1  0
 13 14  1  0
 14 15  1  0
 15 16  1  0
 16 17  1  0
 17 18  2  0
M  END
