
     RDKit          3D

 18 19  0  0  0  0  0  0  0  0999 V2000
   -5.5020    0.7710   -0.5980 N   0  0  0  0  0  0  0  0  0  0  0  0
   -4.1350    0.7580   -0.9460 C   0  0  0  0  0  0  0  0  0  0  0  0
   -3.7710    1.1760   -2.0770 O   0  0  0  0  0  0  0  0  0  0  0  0
   -3.1570    0.2610    0.0140 C   0  0  0  0  0  0  0  0  0  0  0  0
   -3.6000   -0.2310    1.1070 O   0  0  0  0  0  0  0  0  0  0  0  0
   -1.7680    0.2960   -0.2120 O   0  0  0  0  0  0  0  0  0  0  0  0
   -0.9550   -0.2530    0.8100 C   0  0  0  0  0  0  0  0  0  0  0  0
    0.4710   -0.1500    0.4770 C   0  0  0  0  0  0  0  0  0  0  0  0
    1.0280   -0.6350   -0.7020 C   0  0  0  0  0  0  0  0  0  0  0  0
    0.2370   -1.2150   -1.6610 O   0  0  0  0  0  0  0  0  0  0  0  0
    2.3900   -0.5110   -0.8860 C   0  0  0  0  0  0  0  0  0  0  0  0
    3.4210   -1.0030   -2.2490 S   0  0  0  0  0  0  0  0  0  0  0  0
    5.0240   -0.3840   -1.4880 C   0  0  0  0  0  0  0  0  0  0  0  0
    4.5670    0.1090   -0.3230 C   0  0  0  0  0  0  0  0  0  0  0  0
    3.2670    0.0540   -0.0100 C   0  0  0  0  0  0  0  0  0  0  0  0
    2.6680    0.5180    1.1380 O   0  0  0  0  0  0  0  0  0  0  0  0
    1.4030    0.4160    1.3360 C   0  0  0  0  0  0  0  0  0  0  0  0
    0.9380    0.8790    2.4360 O   0  0  0  0  0  0  0  0  0  0  0  0
  1  2  1  0
  2  3  2  0
  2  4  1  0
  4  5  2  0
  4  6  1  0
  6  7  1  0
  7  8  1  0
  8  9  2  0
  8 17  1  0
  9 10  1  0
  9 11  1  0
 11 12  1  0
 11 15  2  0
 12 13  1  0
 13 14  2  0
 14 15  1  0
 15 16  1  0
 16 17  1  0
 17 18  2  0
M  END
