
     RDKit          3D

 17 17  0  0  0  0  0  0  0  0999 V2000
    5.7750    0.0740   -0.3680 C   0  0  0  0  0  0  0  0  0  0  0  0
    4.5060   -0.5410   -0.2350 O   0  0  0  0  0  0  0  0  0  0  0  0
    3.4260    0.0680    0.3440 C   0  0  0  0  0  0  0  0  0  0  0  0
    3.5830    1.2480    0.7820 O   0  0  0  0  0  0  0  0  0  0  0  0
    2.1210   -0.5430    0.4890 C   0  0  0  0  0  0  0  0  0  0  0  0
    1.9000   -1.8580    0.0160 N   0  0  0  0  0  0  0  0  0  0  0  0
    1.0780    0.0800    1.0640 C   0  0  0  0  0  0  0  0  0  0  0  0
   -0.4490   -0.5830    1.2550 S   0  0  0  0  0  0  0  0  0  0  0  0
   -1.8740   -0.3380    0.3810 C   0  0  0  0  0  0  0  0  0  0  0  0
   -2.1530    0.4350   -0.6430 C   0  0  0  0  0  0  0  0  0  0  0  0
   -1.1990    1.2890   -1.2550 C   0  0  0  0  0  0  0  0  0  0  0  0
   -1.5790    2.0100   -2.2610 O   0  0  0  0  0  0  0  0  0  0  0  0
    0.0930    1.4280   -0.8840 O   0  0  0  0  0  0  0  0  0  0  0  0
   -3.5880    0.3930   -1.1890 C   0  0  0  0  0  0  0  0  0  0  0  0
   -4.5350    0.4550   -0.0190 C   0  0  0  0  0  0  0  0  0  0  0  0
   -4.0300   -0.1220    1.1300 O   0  0  0  0  0  0  0  0  0  0  0  0
   -3.1380   -1.1450    0.8240 C   0  0  0  0  0  0  0  0  0  0  0  0
  1  2  1  0
  2  3  1  0
  3  4  2  0
  3  5  1  0
  5  6  1  0
  5  7  2  3
  7  8  1  0
  8  9  1  0
  9 10  2  0
  9 17  1  0
 10 11  1  0
 10 14  1  0
 11 12  2  0
 11 13  1  0
 14 15  1  0
 15 16  1  0
 16 17  1  0
M  END
