
     RDKit          3D

 18 19  0  0  0  0  0  0  0  0999 V2000
    5.1430   -0.6360    0.6890 O   0  0  0  0  0  0  0  0  0  0  0  0
    4.7390   -0.3900   -0.4630 C   0  0  0  0  0  0  0  0  0  0  0  0
    5.6450   -0.3790   -1.4980 O   0  0  0  0  0  0  0  0  0  0  0  0
    3.2950   -0.1240   -0.6310 C   0  0  0  0  0  0  0  0  0  0  0  0
    2.9420    0.1160   -1.7930 O   0  0  0  0  0  0  0  0  0  0  0  0
    2.3900   -0.1370    0.4130 N   0  0  0  0  0  0  0  0  0  0  0  0
    1.0000    0.0370    0.4740 C   0  0  0  0  0  0  0  0  0  0  0  0
    0.3140    0.7180    2.1120 S   0  0  0  0  0  0  0  0  0  0  0  0
   -1.3020    0.7010    1.6400 C   0  0  0  0  0  0  0  0  0  0  0  0
   -1.3200    0.2040    0.3190 C   0  0  0  0  0  0  0  0  0  0  0  0
   -0.1240   -0.1250   -0.2290 C   0  0  0  0  0  0  0  0  0  0  0  0
   -0.1290   -0.8680   -1.5180 C   0  0  0  0  0  0  0  0  0  0  0  0
    0.8890   -1.3980   -1.9450 O   0  0  0  0  0  0  0  0  0  0  0  0
   -1.2630   -0.9990   -2.2930 O   0  0  0  0  0  0  0  0  0  0  0  0
   -2.7620    0.1870   -0.1650 C   0  0  0  0  0  0  0  0  0  0  0  0
   -3.2880    1.5860    0.1330 C   0  0  0  0  0  0  0  0  0  0  0  0
   -3.3240    1.8990    1.4570 O   0  0  0  0  0  0  0  0  0  0  0  0
   -2.6280    1.0650    2.2820 C   0  0  0  0  0  0  0  0  0  0  0  0
  1  2  2  0
  2  3  1  0
  2  4  1  0
  4  5  2  0
  4  6  1  0
  6  7  1  0
  7  8  1  0
  7 11  2  0
  8  9  1  0
  9 10  2  0
  9 18  1  0
 10 11  1  0
 10 15  1  0
 11 12  1  0
 12 13  2  0
 12 14  1  0
 15 16  1  0
 16 17  1  0
 17 18  1  0
M  END
