
     RDKit          3D

 11 12  0  0  0  0  0  0  0  0999 V2000
    3.6120   -0.1060    0.4030 Cl  0  0  0  0  0  0  0  0  0  0  0  0
    2.2870    0.9930    0.3550 O   0  0  0  0  0  0  0  0  0  0  0  0
    1.0160    0.4920    0.1630 C   0  0  0  0  0  0  0  0  0  0  0  0
   -0.0620    1.3780    0.1230 C   0  0  0  0  0  0  0  0  0  0  0  0
   -1.3230    0.8920   -0.0670 C   0  0  0  0  0  0  0  0  0  0  0  0
   -2.7090    1.9760   -0.1240 Cl  0  0  0  0  0  0  0  0  0  0  0  0
   -1.5480   -0.4630   -0.2210 C   0  0  0  0  0  0  0  0  0  0  0  0
   -3.1880   -1.0780   -0.4660 Cl  0  0  0  0  0  0  0  0  0  0  0  0
   -0.4760   -1.3200   -0.1790 C   0  0  0  0  0  0  0  0  0  0  0  0
    0.8060   -0.8450    0.0130 C   0  0  0  0  0  0  0  0  0  0  0  0
    2.1590   -1.9900    0.0590 Cl  0  0  0  0  0  0  0  0  0  0  0  0
  1  2  1  0
  2  3  1  0
  3  4  2  0
  3 10  1  0
  4  5  1  0
  5  6  1  0
  5  7  2  0
  7  8  1  0
  7  9  1  0
  9 10  2  0
 10 11  1  0
 11  1  1  0
M  END
