
     RDKit          3D

 12 11  0  0  0  0  0  0  0  0999 V2000
   -0.6540   -1.0380    2.6950 Cl  0  0  0  0  0  0  0  0  0  0  0  0
    0.8490   -0.6150    1.9350 C   0  0  0  0  0  0  0  0  0  0  0  0
    0.8840   -0.4190    0.6110 C   0  0  0  0  0  0  0  0  0  0  0  0
   -0.3320   -0.5790   -0.0460 O   0  0  0  0  0  0  0  0  0  0  0  0
   -1.3390    0.4070    0.0040 C   0  0  0  0  0  0  0  0  0  0  0  0
   -2.6080    0.0780   -0.6890 C   0  0  0  0  0  0  0  0  0  0  0  0
   -2.5070   -0.2360   -2.4070 Cl  0  0  0  0  0  0  0  0  0  0  0  0
    2.1420   -0.0730    0.0230 C   0  0  0  0  0  0  0  0  0  0  0  0
    3.5450    0.0790    1.0580 Cl  0  0  0  0  0  0  0  0  0  0  0  0
    2.3040    0.1380   -1.2540 C   0  0  0  0  0  0  0  0  0  0  0  0
    0.9880    0.0150   -2.3680 Cl  0  0  0  0  0  0  0  0  0  0  0  0
    3.8810    0.5640   -1.9240 Cl  0  0  0  0  0  0  0  0  0  0  0  0
  1  2  1  0
  2  3  2  3
  3  4  1  0
  3  8  1  0
  4  5  1  0
  5  6  1  0
  6  7  1  0
  8  9  1  0
  8 10  2  3
 10 11  1  0
 10 12  1  0
M  END
