
     RDKit          3D

 12 11  0  0  0  0  0  0  0  0999 V2000
    2.3860    0.7780   -0.0650 O   0  0  0  0  0  0  0  0  0  0  0  0
    2.4150   -0.4990    0.4910 C   0  0  0  0  0  0  0  0  0  0  0  0
    1.0880   -1.1940    0.2890 C   0  0  0  0  0  0  0  0  0  0  0  0
   -0.0210   -0.4570    0.9190 C   0  0  0  0  0  0  0  0  0  0  0  0
   -0.0380   -0.1500    2.6250 Cl  0  0  0  0  0  0  0  0  0  0  0  0
   -1.0120   -0.0260    0.1670 C   0  0  0  0  0  0  0  0  0  0  0  0
   -0.9700   -0.3530   -1.5710 Cl  0  0  0  0  0  0  0  0  0  0  0  0
   -2.1460    0.7080    0.6940 C   0  0  0  0  0  0  0  0  0  0  0  0
   -2.2030    1.0370    2.4020 Cl  0  0  0  0  0  0  0  0  0  0  0  0
   -3.0950    1.1070   -0.1000 C   0  0  0  0  0  0  0  0  0  0  0  0
   -3.1360    0.8300   -1.8240 Cl  0  0  0  0  0  0  0  0  0  0  0  0
   -4.4430    1.9890    0.5830 Cl  0  0  0  0  0  0  0  0  0  0  0  0
  1  2  1  0
  2  3  1  0
  3  4  1  0
  4  5  1  0
  4  6  2  3
  6  7  1  0
  6  8  1  0
  8  9  1  0
  8 10  2  3
 10 11  1  0
 10 12  1  0
M  END
