
     RDKit          3D

 12 12  0  0  0  0  0  0  0  0999 V2000
    2.6760    0.2270    0.8070 C   0  0  0  0  0  0  0  0  0  0  0  0
    1.3360    0.4650    0.5790 O   0  0  0  0  0  0  0  0  0  0  0  0
    0.6310   -0.6440    0.2460 C   0  0  0  0  0  0  0  0  0  0  0  0
   -0.8180   -0.4500   -0.0110 C   0  0  0  0  0  0  0  0  0  0  0  0
   -1.4590    0.6770    0.0550 C   0  0  0  0  0  0  0  0  0  0  0  0
   -3.2180    0.6070   -0.3130 Cl  0  0  0  0  0  0  0  0  0  0  0  0
   -0.9880    2.0190    0.4040 C   0  0  0  0  0  0  0  0  0  0  0  0
   -1.2060    3.1820   -0.9350 Cl  0  0  0  0  0  0  0  0  0  0  0  0
   -1.4700   -1.7790   -0.3730 C   0  0  1  0  0  0  0  0  0  0  0  0
   -3.1590   -1.7160   -0.7010 Cl  0  0  0  0  0  0  0  0  0  0  0  0
   -0.6080   -2.3330   -1.8330 Cl  0  0  0  0  0  0  0  0  0  0  0  0
   -1.0360   -2.8860    0.9500 Cl  0  0  0  0  0  0  0  0  0  0  0  0
  1  2  1  0
  2  3  1  0
  3  4  1  0
  4  5  2  0
  4  9  1  0
  5  6  1  0
  5  7  1  0
  7  8  1  0
  9 10  1  0
  9 11  1  6
  9 12  1  0
 10  6  1  0
M  END
