
     RDKit          3D

 19 19  0  0  0  0  0  0  0  0999 V2000
    6.9130    0.8760    0.5130 C   0  0  0  0  0  0  0  0  0  0  0  0
    5.7610   -0.0170    0.1280 C   0  0  0  0  0  0  0  0  0  0  0  0
    4.4630    0.6760    0.3940 C   0  0  0  0  0  0  0  0  0  0  0  0
    3.2720   -0.1890    0.0210 C   0  0  2  0  0  0  0  0  0  0  0  0
    1.9670    0.5270    0.2960 C   0  0  0  0  0  0  0  0  0  0  0  0
    0.8490   -0.4050   -0.1040 C   0  0  0  0  0  0  0  0  0  0  0  0
   -0.5150    0.2120    0.1300 C   0  0  0  0  0  0  0  0  0  0  0  0
   -1.5360   -0.8060   -0.3040 C   0  0  1  0  0  0  0  0  0  0  0  0
   -1.3780   -1.9800    0.4630 O   0  0  0  0  0  0  0  0  0  0  0  0
   -2.9170   -0.3450   -0.1820 C   0  0  0  0  0  0  0  0  0  0  0  0
   -3.5770    0.0550   -1.3280 C   0  0  0  0  0  0  0  0  0  0  0  0
   -4.8640    0.4950   -1.2890 C   0  0  0  0  0  0  0  0  0  0  0  0
   -5.5530    0.9220   -2.5520 C   0  0  0  0  0  0  0  0  0  0  0  0
   -5.5300    0.5460   -0.0840 C   0  0  0  0  0  0  0  0  0  0  0  0
   -4.8870    0.1530    1.0580 C   0  0  0  0  0  0  0  0  0  0  0  0
   -5.6140    0.2110    2.3600 C   0  0  0  0  0  0  0  0  0  0  0  0
   -3.5900   -0.2930    1.0350 C   0  0  0  0  0  0  0  0  0  0  0  0
    3.3410   -1.4090    0.6880 O   0  0  0  0  0  0  0  0  0  0  0  0
    3.4530   -2.4190   -0.2480 C   0  0  0  0  0  0  0  0  0  0  0  0
  1  2  1  0
  2  3  1  0
  4  3  1  1
  4  5  1  0
  4 18  1  0
  5  6  1  0
  6  7  1  0
  7  8  1  0
  8  9  1  1
  8 10  1  0
 10 11  2  0
 10 17  1  0
 11 12  1  0
 12 13  1  0
 12 14  2  0
 14 15  1  0
 15 16  1  0
 15 17  2  0
 18 19  1  0
M  END
