
     RDKit          3D

 20 20  0  0  0  0  0  0  0  0999 V2000
   -2.7780   -2.6770    0.2330 C   0  0  0  0  0  0  0  0  0  0  0  0
   -1.7530   -1.5930    0.2810 C   0  0  0  0  0  0  0  0  0  0  0  0
   -1.8780   -0.4780   -0.6820 C   0  0  1  0  0  0  0  0  0  0  0  0
   -3.1000    0.3720   -0.6400 C   0  0  0  0  0  0  0  0  0  0  0  0
   -4.3790   -0.3750   -0.9160 C   0  0  0  0  0  0  0  0  0  0  0  0
   -0.5890    0.2760   -0.9040 C   0  0  0  0  0  0  0  0  0  0  0  0
    0.0360    0.9010    0.2760 C   0  0  2  0  0  0  0  0  0  0  0  0
   -0.6780    1.9180    1.0440 C   0  0  0  0  0  0  0  0  0  0  0  0
   -1.1880    3.1570    0.4620 C   0  0  0  0  0  0  0  0  0  0  0  0
   -0.2180    4.0910   -0.1940 C   0  0  0  0  0  0  0  0  0  0  0  0
   -0.9050    5.2690   -0.6320 O   0  0  0  0  0  0  0  0  0  0  0  0
    1.5140    1.1350    0.1740 C   0  0  2  0  0  0  0  0  0  0  0  0
    1.9590    1.9210   -0.8420 O   0  0  0  0  0  0  0  0  0  0  0  0
    2.3100   -0.1230    0.3170 C   0  0  0  0  0  0  0  0  0  0  0  0
    2.7070   -0.8660   -0.7740 C   0  0  0  0  0  0  0  0  0  0  0  0
    3.4340   -2.0250   -0.6620 C   0  0  0  0  0  0  0  0  0  0  0  0
    3.8050   -2.5040    0.5750 C   0  0  0  0  0  0  0  0  0  0  0  0
    4.6010   -3.7730    0.7120 C   0  0  0  0  0  0  0  0  0  0  0  0
    3.4210   -1.7800    1.6830 C   0  0  0  0  0  0  0  0  0  0  0  0
    2.6890   -0.6150    1.5540 C   0  0  0  0  0  0  0  0  0  0  0  0
  1  2  1  0
  3  2  1  1
  3  4  1  0
  3  6  1  0
  4  5  1  0
  7  6  1  6
  7  8  1  0
  7 12  1  0
  8  9  1  0
  9 10  1  0
 10 11  1  0
 12 13  1  6
 12 14  1  0
 14 15  2  0
 14 20  1  0
 15 16  1  0
 16 17  2  0
 17 18  1  0
 17 19  1  0
 19 20  2  0
M  END
