
     RDKit          3D

 20 20  0  0  0  0  0  0  0  0999 V2000
   -1.4170   -3.0230   -0.5900 C   0  0  0  0  0  0  0  0  0  0  0  0
   -2.7330   -2.9420   -0.5190 C   0  0  0  0  0  0  0  0  0  0  0  0
   -3.3730   -1.8250    0.1450 C   0  0  0  0  0  0  0  0  0  0  0  0
   -4.7200   -1.8210    0.1770 C   0  0  0  0  0  0  0  0  0  0  0  0
   -2.6080   -0.7200    0.7720 C   0  0  0  0  0  0  0  0  0  0  0  0
   -1.8450   -0.1000   -0.1890 O   0  0  0  0  0  0  0  0  0  0  0  0
   -1.1510    1.0010    0.2980 C   0  0  2  0  0  0  0  0  0  0  0  0
   -1.7160    2.1980   -0.4560 C   0  0  0  0  0  0  0  0  0  0  0  0
   -1.0550    3.4850   -0.0330 C   0  0  0  0  0  0  0  0  0  0  0  0
   -1.6980    4.5970   -0.8470 C   0  0  0  0  0  0  0  0  0  0  0  0
    0.3110    0.8430    0.0190 C   0  0  0  0  0  0  0  0  0  0  0  0
    0.8380   -0.2890    0.6320 O   0  0  0  0  0  0  0  0  0  0  0  0
    2.1560   -0.6800    0.5660 C   0  0  0  0  0  0  0  0  0  0  0  0
    3.0400   -0.2280    1.5250 C   0  0  0  0  0  0  0  0  0  0  0  0
    2.6250    0.6660    2.6300 C   0  0  0  0  0  0  0  0  0  0  0  0
    4.3640   -0.6060    1.4810 C   0  0  0  0  0  0  0  0  0  0  0  0
    4.8510   -1.4350    0.4940 C   0  0  0  0  0  0  0  0  0  0  0  0
    3.9790   -1.8820   -0.4550 C   0  0  0  0  0  0  0  0  0  0  0  0
    2.6270   -1.5090   -0.4260 C   0  0  0  0  0  0  0  0  0  0  0  0
    1.7710   -2.0480   -1.5010 C   0  0  0  0  0  0  0  0  0  0  0  0
  1  2  2  0
  2  3  1  0
  3  4  2  0
  3  5  1  0
  5  6  1  0
  6  7  1  0
  7  8  1  6
  7 11  1  0
  8  9  1  0
  9 10  1  0
 11 12  1  0
 12 13  1  0
 13 14  2  0
 13 19  1  0
 14 15  1  0
 14 16  1  0
 16 17  2  0
 17 18  1  0
 18 19  2  0
 19 20  1  0
M  END
