
     RDKit          3D

 20 20  0  0  0  0  0  0  0  0999 V2000
   -0.8980    4.8860   -0.0430 C   0  0  0  0  0  0  0  0  0  0  0  0
   -0.4290    3.5110    0.3950 C   0  0  0  0  0  0  0  0  0  0  0  0
    0.1070    2.7140   -0.7380 C   0  0  0  0  0  0  0  0  0  0  0  0
    0.5770    1.3170   -0.2990 C   0  0  1  0  0  0  0  0  0  0  0  0
    1.6840    1.4770    0.7420 C   0  0  0  0  0  0  0  0  0  0  0  0
    2.1360    0.1080    1.1610 C   0  0  0  0  0  0  0  0  0  0  0  0
    2.6970   -0.6710    0.0160 C   0  0  0  0  0  0  0  0  0  0  0  0
    3.1370   -2.0350    0.5280 C   0  0  1  0  0  0  0  0  0  0  0  0
    3.6980   -2.7920   -0.6660 C   0  0  0  0  0  0  0  0  0  0  0  0
    4.1300   -1.9460    1.4830 O   0  0  0  0  0  0  0  0  0  0  0  0
   -0.3610    0.5340    0.1780 O   0  0  0  0  0  0  0  0  0  0  0  0
   -1.2510   -0.4130    0.1790 C   0  0  0  0  0  0  0  0  0  0  0  0
   -1.9390   -0.6610    1.3900 C   0  0  0  0  0  0  0  0  0  0  0  0
   -2.8970   -1.6280    1.5200 C   0  0  0  0  0  0  0  0  0  0  0  0
   -3.6240   -1.8920    2.7890 C   0  0  0  0  0  0  0  0  0  0  0  0
   -3.2240   -2.4120    0.4260 C   0  0  0  0  0  0  0  0  0  0  0  0
   -2.5860   -2.2110   -0.7670 C   0  0  0  0  0  0  0  0  0  0  0  0
   -1.6210   -1.2280   -0.8760 C   0  0  0  0  0  0  0  0  0  0  0  0
   -0.9910   -1.0560   -2.1910 C   0  0  0  0  0  0  0  0  0  0  0  0
   -1.5610    0.1870   -2.8840 C   0  0  0  0  0  0  0  0  0  0  0  0
  1  2  1  0
  2  3  1  0
  4  3  1  1
  4  5  1  0
  4 11  1  0
  5  6  1  0
  6  7  1  0
  7  8  1  0
  8  9  1  6
  8 10  1  0
 11 12  1  0
 12 13  2  0
 12 18  1  0
 13 14  1  0
 14 15  1  0
 14 16  2  0
 16 17  1  0
 17 18  2  0
 18 19  1  0
 19 20  1  0
M  END
