
     RDKit          3D

  9  8  0  0  0  0  0  0  0  0999 V2000
   -1.9460   -0.5950    1.0430 C   0  0  0  0  0  0  0  0  0  0  0  0
   -1.1690    0.5580    0.9420 O   0  0  0  0  0  0  0  0  0  0  0  0
   -0.6730    0.7500   -0.3270 C   0  0  1  0  0  0  0  0  0  0  0  0
   -1.2240    1.9110   -0.8870 O   0  0  0  0  0  0  0  0  0  0  0  0
    0.8390    0.8910   -0.3620 C   0  0  2  0  0  0  0  0  0  0  0  0
    1.2230    1.0760   -1.7050 O   0  0  0  0  0  0  0  0  0  0  0  0
    1.4740   -0.3730    0.1210 C   0  0  0  0  0  0  0  0  0  0  0  0
    1.1600   -0.6340    1.4300 O   0  0  0  0  0  0  0  0  0  0  0  0
    1.6910   -1.7230    1.8920 O   0  0  0  0  0  0  0  0  0  0  0  0
  1  2  1  0
  2  3  1  0
  3  4  1  1
  3  5  1  0
  5  6  1  6
  5  7  1  0
  7  8  1  0
  8  9  1  0
M  END
