
     RDKit          3D

  9  8  0  0  0  0  0  0  0  0999 V2000
   -3.0850    1.9780    0.1140 O   0  0  0  0  0  0  0  0  0  0  0  0
   -2.7220    0.6530    0.3640 C   0  0  0  0  0  0  0  0  0  0  0  0
   -1.4470    0.4680   -0.1100 O   0  0  0  0  0  0  0  0  0  0  0  0
   -0.9820   -0.8290    0.0910 C   0  0  0  0  0  0  0  0  0  0  0  0
    0.4250   -0.9800   -0.4480 C   0  0  0  0  0  0  0  0  0  0  0  0
    1.2320   -0.0790    0.2320 O   0  0  0  0  0  0  0  0  0  0  0  0
    2.5480   -0.1000   -0.1520 C   0  0  2  0  0  0  0  0  0  0  0  0
    3.3210   -0.4630    0.9510 O   0  0  0  0  0  0  0  0  0  0  0  0
    3.0190    1.1340   -0.5850 O   0  0  0  0  0  0  0  0  0  0  0  0
  1  2  1  0
  2  3  1  0
  3  4  1  0
  4  5  1  0
  5  6  1  0
  6  7  1  0
  7  8  1  1
  7  9  1  0
M  END
