
     RDKit          3D

 10  9  0  0  0  0  0  0  0  0999 V2000
   -1.7680    2.0180   -0.1550 O   0  0  0  0  0  0  0  0  0  0  0  0
   -0.5590    1.6210    0.4620 C   0  0  0  0  0  0  0  0  0  0  0  0
   -0.2330    0.2560   -0.0600 C   0  0  1  0  0  0  0  0  0  0  0  0
    0.8950   -0.3080    0.4110 O   0  0  0  0  0  0  0  0  0  0  0  0
    1.8850   -0.6090   -0.4860 C   0  0  1  0  0  0  0  0  0  0  0  0
    3.0630    0.0880   -0.2920 O   0  0  0  0  0  0  0  0  0  0  0  0
    2.1840   -1.9510   -0.5900 O   0  0  0  0  0  0  0  0  0  0  0  0
   -1.4770   -0.6030    0.1010 C   0  0  2  0  0  0  0  0  0  0  0  0
   -1.7390   -0.9000    1.4220 O   0  0  0  0  0  0  0  0  0  0  0  0
   -1.3620   -1.8140   -0.5850 O   0  0  0  0  0  0  0  0  0  0  0  0
  1  2  1  0
  3  2  1  1
  3  4  1  0
  3  8  1  0
  4  5  1  0
  5  6  1  1
  5  7  1  0
  8  9  1  1
  8 10  1  0
M  END
