
     RDKit          3D

  9  8  0  0  0  0  0  0  0  0999 V2000
   -2.4400    0.1520    1.2030 O   0  0  0  0  0  0  0  0  0  0  0  0
   -1.2080    0.7800    0.9710 C   0  0  0  0  0  0  0  0  0  0  0  0
   -0.3960   -0.0560    0.0050 C   0  0  1  0  0  0  0  0  0  0  0  0
   -1.2200   -0.1590   -1.2740 C   0  0  0  0  0  0  0  0  0  0  0  0
   -0.5550   -0.8720   -2.2560 O   0  0  0  0  0  0  0  0  0  0  0  0
    0.8180    0.5830   -0.2090 O   0  0  0  0  0  0  0  0  0  0  0  0
    1.9110   -0.1620    0.1520 C   0  0  1  0  0  0  0  0  0  0  0  0
    2.7400   -0.4980   -0.9160 O   0  0  0  0  0  0  0  0  0  0  0  0
    2.7000    0.4150    1.1310 O   0  0  0  0  0  0  0  0  0  0  0  0
  1  2  1  0
  3  2  1  1
  3  4  1  0
  3  6  1  0
  4  5  1  0
  6  7  1  0
  7  8  1  6
  7  9  1  0
M  END
