
     RDKit          3D

 10  9  0  0  0  0  0  0  0  0999 V2000
   -1.4650   -1.0600   -1.6130 O   0  0  0  0  0  0  0  0  0  0  0  0
   -1.3710   -0.4030   -0.5530 C   0  0  0  0  0  0  0  0  0  0  0  0
   -2.1560    0.7200   -0.3740 O   0  0  0  0  0  0  0  0  0  0  0  0
   -0.4390   -0.7850    0.5310 C   0  0  1  0  0  0  0  0  0  0  0  0
    0.2700   -1.9170    0.2060 O   0  0  0  0  0  0  0  0  0  0  0  0
    0.4360    0.3670    0.9580 C   0  0  2  0  0  0  0  0  0  0  0  0
   -0.4010    1.4410    1.2560 O   0  0  0  0  0  0  0  0  0  0  0  0
    1.4460    0.7270   -0.0360 C   0  0  0  0  0  0  0  0  0  0  0  0
    1.5190    1.8730   -0.5370 O   0  0  0  0  0  0  0  0  0  0  0  0
    2.3670   -0.2160   -0.4550 O   0  0  0  0  0  0  0  0  0  0  0  0
  1  2  2  0
  2  3  1  0
  2  4  1  0
  4  5  1  6
  4  6  1  0
  6  7  1  6
  6  8  1  0
  8  9  2  0
  8 10  1  0
M  END
