
     RDKit          3D

  9  8  0  0  0  0  0  0  0  0999 V2000
   -2.4230   -0.8560    0.5310 O   0  0  0  0  0  0  0  0  0  0  0  0
   -2.2740    0.5320    0.5180 C   0  0  0  0  0  0  0  0  0  0  0  0
   -1.0440    0.8660   -0.3140 C   0  0  2  0  0  0  0  0  0  0  0  0
   -1.2870    0.3620   -1.5920 O   0  0  0  0  0  0  0  0  0  0  0  0
    0.1200    0.1360    0.2880 C   0  0  0  0  0  0  0  0  0  0  0  0
    1.2660    0.3000   -0.4870 O   0  0  0  0  0  0  0  0  0  0  0  0
    2.3250   -0.3760    0.0790 C   0  0  1  0  0  0  0  0  0  0  0  0
    2.8440   -1.3600   -0.7580 O   0  0  0  0  0  0  0  0  0  0  0  0
    3.3450    0.5210    0.3860 O   0  0  0  0  0  0  0  0  0  0  0  0
  1  2  1  0
  2  3  1  0
  3  4  1  6
  3  5  1  0
  5  6  1  0
  6  7  1  0
  7  8  1  6
  7  9  1  0
M  END
