
     RDKit          3D

 11 11  0  0  0  0  0  0  0  0999 V2000
   -3.1550    0.0410   -0.5210 N   0  0  0  0  0  0  0  0  0  0  0  0
   -2.3810    0.8400    0.3870 C   0  0  0  0  0  0  0  0  0  0  0  0
   -1.3560    0.0420    1.1540 C   0  0  0  0  0  0  0  0  0  0  0  0
   -0.3800   -0.6230    0.2520 C   0  0  0  0  0  0  0  0  0  0  0  0
    0.9270   -0.4270    0.2560 C   0  0  0  0  0  0  0  0  0  0  0  0
    1.7400    0.4620    1.1140 C   0  0  0  0  0  0  0  0  0  0  0  0
    2.5010    1.4930    0.2990 C   0  0  0  0  0  0  0  0  0  0  0  0
    1.6660    2.3100   -0.4340 O   0  0  0  0  0  0  0  0  0  0  0  0
    1.5110   -1.2920   -0.8040 C   0  0  0  0  0  0  0  0  0  0  0  0
    0.4060   -2.2520   -1.1890 C   0  0  0  0  0  0  0  0  0  0  0  0
   -0.7310   -1.5510   -0.7260 O   0  0  0  0  0  0  0  0  0  0  0  0
  1  2  1  0
  2  3  1  0
  3  4  1  0
  4  5  2  0
  4 11  1  0
  5  6  1  0
  5  9  1  0
  6  7  1  0
  7  8  1  0
  9 10  1  0
 10 11  1  0
M  CHG  1   1   1
M  END
