
     RDKit          3D

 11 11  0  0  0  0  0  0  0  0999 V2000
    2.7570    1.1820   -0.3670 N   0  0  0  0  0  0  0  0  0  0  0  0
    2.1430   -0.1140   -0.3430 C   0  0  0  0  0  0  0  0  0  0  0  0
    0.6960    0.0060    0.1660 C   0  0  2  0  0  0  0  0  0  0  0  0
    0.8330    0.5520    1.4630 O   0  0  0  0  0  0  0  0  0  0  0  0
    0.1600   -1.3670    0.2760 C   0  0  0  0  0  0  0  0  0  0  0  0
   -1.3090   -1.5070    0.3140 C   0  0  0  0  0  0  0  0  0  0  0  0
   -2.0420   -0.4710    1.0900 C   0  0  0  0  0  0  0  0  0  0  0  0
   -2.5040    0.6050    0.1150 C   0  0  0  0  0  0  0  0  0  0  0  0
   -1.4390    0.6720   -0.9390 C   0  0  0  0  0  0  0  0  0  0  0  0
   -1.8620    0.4820   -2.0790 O   0  0  0  0  0  0  0  0  0  0  0  0
   -0.0190    0.9300   -0.7350 C   0  0  0  0  0  0  0  0  0  0  0  0
  1  2  1  0
  2  3  1  0
  3  4  1  1
  3  5  1  0
  3 11  1  0
  5  6  1  0
  6  7  1  0
  7  8  1  0
  8  9  1  0
  9 10  2  0
  9 11  1  0
M  CHG  1   1   1
M  END
