
     RDKit          3D

 11 11  0  0  0  0  0  0  0  0999 V2000
    2.0190    1.4450    0.9750 C   0  0  0  0  0  0  0  0  0  0  0  0
    1.3090    0.1200    1.0530 C   0  0  0  0  0  0  0  0  0  0  0  0
    0.2630   -0.0510   -0.0220 C   0  0  2  0  0  0  0  0  0  0  0  0
    0.9290    0.0420   -1.3700 C   0  0  0  0  0  0  0  0  0  0  0  0
    1.9660   -0.9740   -1.4410 N   0  0  0  0  0  0  0  0  0  0  0  0
   -0.8450    0.9720    0.1040 C   0  0  0  0  0  0  0  0  0  0  0  0
   -1.6880    0.7730    1.3080 C   0  0  0  0  0  0  0  0  0  0  0  0
   -2.5040   -0.3270    1.2830 O   0  0  0  0  0  0  0  0  0  0  0  0
   -2.6910   -0.8970    0.0520 C   0  0  0  0  0  0  0  0  0  0  0  0
   -1.4530   -1.5280   -0.5250 C   0  0  0  0  0  0  0  0  0  0  0  0
   -0.3150   -1.2950    0.1850 O   0  0  0  0  0  0  0  0  0  0  0  0
  1  2  1  0
  3  2  1  1
  3  4  1  0
  3  6  1  0
  3 11  1  0
  4  5  1  0
  6  7  1  0
  7  8  1  0
  8  9  1  0
  9 10  1  0
 10 11  1  0
M  CHG  1   5   1
M  END
