
     RDKit          3D

 22 24  0  0  0  0  0  0  0  0999 V2000
   -7.3660   -0.4120    0.7080 C   0  0  0  0  0  0  0  0  0  0  0  0
   -5.9740    0.0150    0.3340 C   0  0  0  0  0  0  0  0  0  0  0  0
   -4.8350   -0.5550    0.7900 N   0  0  0  0  0  0  0  0  0  0  0  0
   -3.7690    0.0670    0.2590 C   0  0  0  0  0  0  0  0  0  0  0  0
   -2.3410   -0.2310    0.4850 C   0  0  0  0  0  0  0  0  0  0  0  0
   -1.5110    0.6260   -0.2380 O   0  0  0  0  0  0  0  0  0  0  0  0
   -0.1380    0.4620   -0.1220 C   0  0  0  0  0  0  0  0  0  0  0  0
    0.7260    1.2770   -0.8100 C   0  0  0  0  0  0  0  0  0  0  0  0
    2.1260    1.1280   -0.7070 C   0  0  0  0  0  0  0  0  0  0  0  0
    2.6850    0.1740    0.0740 C   0  0  0  0  0  0  0  0  0  0  0  0
    4.0960   -0.1340    0.2390 C   0  0  0  0  0  0  0  0  0  0  0  0
    4.5930   -1.1680    1.5480 S   0  0  0  0  0  0  0  0  0  0  0  0
    6.2460   -1.4740    1.6080 C   0  0  0  0  0  0  0  0  0  0  0  0
    6.8350   -2.2030    2.4810 O   0  0  0  0  0  0  0  0  0  0  0  0
    6.9790   -0.8640    0.6140 C   0  0  0  0  0  0  0  0  0  0  0  0
    6.4580   -0.0800   -0.3500 C   0  0  0  0  0  0  0  0  0  0  0  0
    5.1370    0.2720   -0.5460 C   0  0  0  0  0  0  0  0  0  0  0  0
    4.7710    1.3700   -2.0980 Br  0  0  0  0  0  0  0  0  0  0  0  0
    1.8020   -0.6560    0.7760 C   0  0  0  0  0  0  0  0  0  0  0  0
    0.4350   -0.5080    0.6730 C   0  0  0  0  0  0  0  0  0  0  0  0
   -4.2890    1.0530   -0.5510 C   0  0  0  0  0  0  0  0  0  0  0  0
   -5.6370    1.0150   -0.4990 N   0  0  0  0  0  0  0  0  0  0  0  0
  1  2  1  0
  2  3  2  0
  2 22  1  0
  3  4  1  0
  4  5  1  0
  4 21  2  0
  5  6  1  0
  6  7  1  0
  7  8  2  0
  7 20  1  0
  8  9  1  0
  9 10  2  0
 10 11  1  0
 10 19  1  0
 11 12  1  0
 11 17  2  0
 12 13  1  0
 13 14  2  0
 13 15  1  0
 15 16  2  0
 16 17  1  0
 17 18  1  0
 19 20  2  0
 21 22  1  0
M  END
