
     RDKit          3D

 22 24  0  0  0  0  0  0  0  0999 V2000
    3.8710    2.2110   -0.7920 C   0  0  0  0  0  0  0  0  0  0  0  0
    3.8580    0.7780   -0.8370 O   0  0  0  0  0  0  0  0  0  0  0  0
    4.5500    0.0760    0.1240 C   0  0  0  0  0  0  0  0  0  0  0  0
    5.1680    0.7220    1.0050 O   0  0  0  0  0  0  0  0  0  0  0  0
    4.6100   -1.4050    0.1810 C   0  0  0  0  0  0  0  0  0  0  0  0
    3.6180   -2.0380   -1.2270 S   0  0  0  0  0  0  0  0  0  0  0  0
    1.9070   -1.6240   -0.9790 C   0  0  0  0  0  0  0  0  0  0  0  0
    1.0950   -2.4920   -0.3110 C   0  0  0  0  0  0  0  0  0  0  0  0
   -0.2310   -2.1800   -0.1150 C   0  0  0  0  0  0  0  0  0  0  0  0
   -0.7780   -0.9890   -0.5820 C   0  0  0  0  0  0  0  0  0  0  0  0
   -2.1750   -0.6970   -0.3720 C   0  0  0  0  0  0  0  0  0  0  0  0
   -3.1950   -1.5570   -0.6690 C   0  0  0  0  0  0  0  0  0  0  0  0
   -4.5080   -1.2280   -0.4660 C   0  0  0  0  0  0  0  0  0  0  0  0
   -4.8510   -0.0020    0.0540 C   0  0  0  0  0  0  0  0  0  0  0  0
   -3.8340    0.9030    0.3710 C   0  0  0  0  0  0  0  0  0  0  0  0
   -3.8790    2.1790    0.9000 C   0  0  0  0  0  0  0  0  0  0  0  0
   -2.5750    2.5990    1.0070 C   0  0  0  0  0  0  0  0  0  0  0  0
   -1.9760    4.3050    1.6800 Br  0  0  0  0  0  0  0  0  0  0  0  0
   -1.7880    1.6070    0.5570 N   0  0  0  0  0  0  0  0  0  0  0  0
   -2.5150    0.5520    0.1580 C   0  0  0  0  0  0  0  0  0  0  0  0
    0.0790   -0.1370   -1.2540 C   0  0  0  0  0  0  0  0  0  0  0  0
    1.3630   -0.4750   -1.4250 N   0  0  0  0  0  0  0  0  0  0  0  0
  1  2  1  0
  2  3  1  0
  3  4  2  0
  3  5  1  0
  5  6  1  0
  6  7  1  0
  7  8  2  0
  7 22  1  0
  8  9  1  0
  9 10  2  0
 10 11  1  0
 10 21  1  0
 11 12  2  0
 11 20  1  0
 12 13  1  0
 13 14  2  0
 14 15  1  0
 15 16  1  0
 15 20  2  0
 16 17  2  0
 17 18  1  0
 17 19  1  0
 19 20  1  0
 21 22  2  0
M  END
