
     RDKit          3D

 22 24  0  0  0  0  0  0  0  0999 V2000
   -5.6560    0.9260    1.0250 C   0  0  0  0  0  0  0  0  0  0  0  0
   -4.8120    0.7760   -0.5300 S   0  0  2  0  0  0  0  0  0  0  0  0
   -4.3280    2.1510   -0.9020 O   0  0  0  0  0  0  0  0  0  0  0  0
   -5.7150    0.2470   -1.6060 O   0  0  0  0  0  0  0  0  0  0  0  0
   -3.4310   -0.2990   -0.3960 C   0  0  0  0  0  0  0  0  0  0  0  0
   -3.5990   -1.6620   -0.6260 C   0  0  0  0  0  0  0  0  0  0  0  0
   -2.5000   -2.5060   -0.5190 C   0  0  0  0  0  0  0  0  0  0  0  0
   -2.6400   -4.3760   -0.8160 Br  0  0  0  0  0  0  0  0  0  0  0  0
   -1.2750   -1.9700   -0.1890 C   0  0  0  0  0  0  0  0  0  0  0  0
   -1.1080   -0.6200    0.0380 C   0  0  0  0  0  0  0  0  0  0  0  0
    0.2210   -0.0370    0.3930 C   0  0  0  0  0  0  0  0  0  0  0  0
    0.9400    0.3570   -0.8830 C   0  0  0  0  0  0  0  0  0  0  0  0
    2.2610    0.9380   -0.5330 C   0  0  0  0  0  0  0  0  0  0  0  0
    2.5860    2.2790   -0.5500 C   0  0  0  0  0  0  0  0  0  0  0  0
    3.8660    2.4390   -0.1760 N   0  0  0  0  0  0  0  0  0  0  0  0
    4.4240    1.2280    0.0970 C   0  0  0  0  0  0  0  0  0  0  0  0
    5.6570    0.8540    0.5020 N   0  0  0  0  0  0  0  0  0  0  0  0
    5.9740   -0.4350    0.7080 C   0  0  0  0  0  0  0  0  0  0  0  0
    4.9930   -1.3790    0.4930 C   0  0  0  0  0  0  0  0  0  0  0  0
    3.7230   -1.0170    0.0780 C   0  0  0  0  0  0  0  0  0  0  0  0
    3.4200    0.3120   -0.1280 C   0  0  0  0  0  0  0  0  0  0  0  0
   -2.1900    0.2160   -0.0660 C   0  0  0  0  0  0  0  0  0  0  0  0
  2  1  1  1
  2  3  2  0
  2  4  2  0
  2  5  1  0
  5  6  2  0
  5 22  1  0
  6  7  1  0
  7  8  1  0
  7  9  2  0
  9 10  1  0
 10 11  1  0
 10 22  2  0
 11 12  1  0
 12 13  1  0
 13 14  2  0
 13 21  1  0
 14 15  1  0
 15 16  1  0
 16 17  2  0
 16 21  1  0
 17 18  1  0
 18 19  2  0
 19 20  1  0
 20 21  2  0
M  END
