
     RDKit          3D

 22 24  0  0  0  0  0  0  0  0999 V2000
   -2.0690    2.2190    1.7200 C   0  0  0  0  0  0  0  0  0  0  0  0
   -2.2110    1.4930    0.5100 O   0  0  0  0  0  0  0  0  0  0  0  0
   -3.1910    0.5200    0.3280 C   0  0  0  0  0  0  0  0  0  0  0  0
   -4.0930    0.2150    1.2780 C   0  0  0  0  0  0  0  0  0  0  0  0
   -5.0620   -0.7540    1.1340 N   0  0  0  0  0  0  0  0  0  0  0  0
   -5.0740   -1.4030   -0.0370 C   0  0  0  0  0  0  0  0  0  0  0  0
   -4.1670   -1.1120   -1.0260 C   0  0  0  0  0  0  0  0  0  0  0  0
   -3.1820   -0.1350   -0.8950 C   0  0  0  0  0  0  0  0  0  0  0  0
   -2.3090    0.2870   -2.0210 C   0  0  0  0  0  0  0  0  0  0  0  0
   -0.9280    0.1230   -1.7400 N   0  0  0  0  0  0  0  0  0  0  0  0
   -0.1620   -1.0240   -1.4470 C   0  0  0  0  0  0  0  0  0  0  0  0
   -0.7460   -2.1140   -1.4620 O   0  0  0  0  0  0  0  0  0  0  0  0
    1.2720   -0.8440   -1.1300 C   0  0  0  0  0  0  0  0  0  0  0  0
    2.0320   -1.8260   -0.8390 C   0  0  0  0  0  0  0  0  0  0  0  0
    3.4720   -1.7680   -0.5070 C   0  0  0  0  0  0  0  0  0  0  0  0
    3.9430   -0.5800    0.2210 C   0  0  0  0  0  0  0  0  0  0  0  0
    4.9490   -0.4590    1.1200 C   0  0  0  0  0  0  0  0  0  0  0  0
    5.0050    0.9280    1.5510 C   0  0  0  0  0  0  0  0  0  0  0  0
    3.9120    1.6270    0.8240 C   0  0  0  0  0  0  0  0  0  0  0  0
    3.3980    3.4630    0.9370 Br  0  0  0  0  0  0  0  0  0  0  0  0
    3.3270    0.7250    0.0610 C   0  0  0  0  0  0  0  0  0  0  0  0
    1.9820    0.8250   -1.1480 S   0  0  0  0  0  0  0  0  0  0  0  0
  1  2  1  0
  2  3  1  0
  3  4  2  0
  3  8  1  0
  4  5  1  0
  5  6  2  0
  6  7  1  0
  7  8  2  0
  8  9  1  0
  9 10  1  0
 10 11  1  0
 11 12  2  0
 11 13  1  0
 13 14  2  0
 13 22  1  0
 14 15  1  0
 15 16  1  0
 16 17  2  0
 16 21  1  0
 17 18  1  0
 18 19  1  0
 19 20  1  0
 19 21  2  0
 21 22  1  0
M  END
