
     RDKit          3D

 22 24  0  0  0  0  0  0  0  0999 V2000
   -4.3990   -2.5480    0.2980 C   0  0  0  0  0  0  0  0  0  0  0  0
   -3.2680   -1.5310    0.2670 C   0  0  0  0  0  0  0  0  0  0  0  0
   -2.1220   -1.9840    0.3680 O   0  0  0  0  0  0  0  0  0  0  0  0
   -3.6750   -0.1510    0.1230 C   0  0  0  0  0  0  0  0  0  0  0  0
   -5.0390    0.1580    0.0250 C   0  0  0  0  0  0  0  0  0  0  0  0
   -5.4840    1.4460   -0.1130 C   0  0  0  0  0  0  0  0  0  0  0  0
   -6.7480    1.6200   -0.1950 O   0  0  0  0  0  0  0  0  0  0  0  0
   -4.6310    2.4680   -0.1590 N   0  0  0  0  0  0  0  0  0  0  0  0
   -3.3240    2.2320   -0.0700 C   0  0  0  0  0  0  0  0  0  0  0  0
   -2.8170    0.9270    0.0730 C   0  0  0  0  0  0  0  0  0  0  0  0
   -1.3800    0.7800    0.1610 C   0  0  0  0  0  0  0  0  0  0  0  0
   -0.6800   -0.2560    0.2900 N   0  0  0  0  0  0  0  0  0  0  0  0
    0.7090   -0.3400    0.3700 C   0  0  0  0  0  0  0  0  0  0  0  0
    1.6390   -0.3900    1.9580 S   0  0  0  0  0  0  0  0  0  0  0  0
    3.1890   -0.4860    1.2640 C   0  0  0  0  0  0  0  0  0  0  0  0
    2.9830   -0.4790   -0.0910 C   0  0  0  0  0  0  0  0  0  0  0  0
    1.7080   -0.4040   -0.5130 C   0  0  0  0  0  0  0  0  0  0  0  0
    1.2660   -0.3860   -2.4200 Br  0  0  0  0  0  0  0  0  0  0  0  0
    4.2950   -0.5610   -0.8720 C   0  0  0  0  0  0  0  0  0  0  0  0
    5.2420    0.4820   -0.3640 C   0  0  0  0  0  0  0  0  0  0  0  0
    5.3190    0.6000    1.1120 C   0  0  0  0  0  0  0  0  0  0  0  0
    4.6150   -0.5700    1.8120 C   0  0  0  0  0  0  0  0  0  0  0  0
  1  2  1  0
  2  3  2  0
  2  4  1  0
  4  5  2  0
  4 10  1  0
  5  6  1  0
  6  7  2  0
  6  8  1  0
  8  9  1  0
  9 10  2  0
 10 11  1  0
 11 12  2  3
 12 13  1  0
 13 14  1  0
 13 17  2  0
 14 15  1  0
 15 16  2  0
 15 22  1  0
 16 17  1  0
 16 19  1  0
 17 18  1  0
 19 20  1  0
 20 21  1  0
 21 22  1  0
M  END
