
     RDKit          3D

 32 35  0  0  0  0  0  0  0  0999 V2000
   -8.0310    0.1970   -2.6580 C   0  0  0  0  0  0  0  0  0  0  0  0
   -6.8010    0.8230   -2.2270 N   0  0  0  0  0  0  0  0  0  0  0  0
   -6.5330    0.4220   -0.8590 C   0  0  0  0  0  0  0  0  0  0  0  0
   -5.5810    1.3950   -0.1540 C   0  0  0  0  0  0  0  0  0  0  0  0
   -5.3970    0.9010    1.2520 C   0  0  0  0  0  0  0  0  0  0  0  0
   -4.8060   -0.4530    1.2490 C   0  0  0  0  0  0  0  0  0  0  0  0
   -5.5730   -1.5720    1.1330 N   0  0  0  0  0  0  0  0  0  0  0  0
   -4.7980   -2.6250    1.2120 N   0  0  0  0  0  0  0  0  0  0  0  0
   -3.5450   -2.1780    1.3770 C   0  0  0  0  0  0  0  0  0  0  0  0
   -2.5590   -2.9290    1.4870 O   0  0  0  0  0  0  0  0  0  0  0  0
   -3.5350   -0.8320    1.4020 N   0  0  0  0  0  0  0  0  0  0  0  0
   -2.4190    0.0570    1.6110 C   0  0  0  0  0  0  0  0  0  0  0  0
   -1.6340    0.4010    0.4370 C   0  0  0  0  0  0  0  0  0  0  0  0
   -2.0480    1.1730   -0.4160 O   0  0  0  0  0  0  0  0  0  0  0  0
   -0.0080   -0.2870    0.1840 S   0  0  0  0  0  0  0  0  0  0  0  0
    0.5020   -1.2000    1.5850 C   0  0  0  0  0  0  0  0  0  0  0  0
    1.7270   -1.3870    1.9700 C   0  0  0  0  0  0  0  0  0  0  0  0
    1.9570   -2.3740    3.4550 Cl  0  0  0  0  0  0  0  0  0  0  0  0
    2.9260   -0.8820    1.3290 C   0  0  0  0  0  0  0  0  0  0  0  0
    4.1820   -1.1160    1.7890 C   0  0  0  0  0  0  0  0  0  0  0  0
    5.1770   -0.4880    0.9460 C   0  0  0  0  0  0  0  0  0  0  0  0
    6.5700   -0.4480    1.0100 C   0  0  0  0  0  0  0  0  0  0  0  0
    7.3210    0.2240    0.0810 C   0  0  0  0  0  0  0  0  0  0  0  0
    6.6860    0.8830   -0.9520 C   0  0  0  0  0  0  0  0  0  0  0  0
    5.3060    0.8440   -1.0150 C   0  0  0  0  0  0  0  0  0  0  0  0
    4.5680    0.1670   -0.0770 C   0  0  0  0  0  0  0  0  0  0  0  0
    3.1300   -0.0670    0.1410 C   0  0  0  0  0  0  0  0  0  0  0  0
    2.2690    0.4010   -0.6280 O   0  0  0  0  0  0  0  0  0  0  0  0
    7.7010    1.5190   -1.8080 C   0  0  1  0  0  0  0  0  0  0  0  0
    8.0450    2.7610   -1.3260 F   0  0  0  0  0  0  0  0  0  0  0  0
    8.9050    0.5980   -1.5690 C   0  0  0  0  0  0  0  0  0  0  0  0
    8.8010    0.4050   -0.0570 C   0  0  0  0  0  0  0  0  0  0  0  0
  1  2  1  0
  2  3  1  0
  3  4  1  0
  4  5  1  0
  5  6  1  0
  6  7  2  0
  6 11  1  0
  7  8  1  0
  8  9  1  0
  9 10  2  0
  9 11  1  0
 11 12  1  0
 12 13  1  0
 13 14  2  0
 13 15  1  0
 15 16  1  0
 16 17  2  3
 17 18  1  0
 17 19  1  0
 19 20  2  0
 19 27  1  0
 20 21  1  0
 21 22  2  0
 21 26  1  0
 22 23  1  0
 23 24  2  0
 23 32  1  0
 24 25  1  0
 24 29  1  0
 25 26  2  0
 26 27  1  0
 27 28  2  0
 29 30  1  1
 29 31  1  0
 31 32  1  0
M  CHG  1   2   1
M  END
