
     RDKit          3D

 31 34  0  0  0  0  0  0  0  0999 V2000
    9.0530    1.8700    1.7310 C   0  0  0  0  0  0  0  0  0  0  0  0
    8.6230    2.8900    0.9540 O   0  0  0  0  0  0  0  0  0  0  0  0
    8.0110    2.5160   -0.1940 C   0  0  0  0  0  0  0  0  0  0  0  0
    6.7800    1.6960   -0.1180 C   0  0  0  0  0  0  0  0  0  0  0  0
    6.8900    0.4500    0.4960 O   0  0  0  0  0  0  0  0  0  0  0  0
    5.8050   -0.4050    0.6350 C   0  0  0  0  0  0  0  0  0  0  0  0
    4.5450   -0.1940    0.2320 C   0  0  0  0  0  0  0  0  0  0  0  0
    3.5610   -1.0840    0.4130 C   0  0  0  0  0  0  0  0  0  0  0  0
    2.1740   -1.1260    0.1050 C   0  0  0  0  0  0  0  0  0  0  0  0
    1.5720   -0.1280   -0.4790 C   0  0  0  0  0  0  0  0  0  0  0  0
    0.1250   -0.0670   -0.8440 C   0  0  0  0  0  0  0  0  0  0  0  0
   -0.5220   -1.3060   -0.6080 N   0  0  0  0  0  0  0  0  0  0  0  0
   -1.8610   -1.5090   -0.3960 C   0  0  0  0  0  0  0  0  0  0  0  0
   -2.1790   -2.7650   -0.1190 O   0  0  0  0  0  0  0  0  0  0  0  0
   -3.0110   -0.6510   -0.4090 C   0  0  0  0  0  0  0  0  0  0  0  0
   -2.8270    0.7080   -0.7380 N   0  0  0  0  0  0  0  0  0  0  0  0
   -4.1140    1.3520   -1.1100 C   0  0  1  0  0  0  0  0  0  0  0  0
   -4.4850    1.0190   -2.5090 C   0  0  0  0  0  0  0  0  0  0  0  0
   -5.7240    0.3050   -2.4170 N   0  0  0  0  0  0  0  0  0  0  0  0
   -6.1260    0.1730   -1.2090 C   0  0  0  0  0  0  0  0  0  0  0  0
   -7.2930   -0.4580   -0.6500 N   0  0  0  0  0  0  0  0  0  0  0  0
   -7.5150   -0.4650    0.7510 C   0  0  0  0  0  0  0  0  0  0  0  0
   -8.7390   -1.1270    1.3220 C   0  0  0  0  0  0  0  0  0  0  0  0
   -6.6320    0.1190    1.5600 C   0  0  0  0  0  0  0  0  0  0  0  0
   -5.4390    0.7650    1.0090 C   0  0  0  0  0  0  0  0  0  0  0  0
   -5.1920    0.7970   -0.2850 C   0  0  0  0  0  0  0  0  0  0  0  0
    0.3240   -2.5310   -0.6340 C   0  0  0  0  0  0  0  0  0  0  0  0
    1.3900   -2.3780    0.4400 C   0  0  0  0  0  0  0  0  0  0  0  0
    4.4490   -2.4560    1.2720 S   0  0  0  0  0  0  0  0  0  0  0  0
    6.0030   -1.6560    1.2710 C   0  0  0  0  0  0  0  0  0  0  0  0
    7.2550   -2.1340    1.7980 F   0  0  0  0  0  0  0  0  0  0  0  0
  1  2  1  0
  2  3  1  0
  3  4  1  0
  4  5  1  0
  5  6  1  0
  6  7  1  0
  6 30  2  0
  7  8  2  0
  8  9  1  0
  8 29  1  0
  9 10  2  0
  9 28  1  0
 10 11  1  0
 11 12  1  0
 12 13  1  0
 12 27  1  0
 13 14  2  0
 13 15  1  0
 15 16  1  0
 17 16  1  1
 17 18  1  0
 17 26  1  0
 18 19  1  0
 19 20  2  0
 20 21  1  0
 20 26  1  0
 21 22  1  0
 22 23  1  0
 22 24  2  0
 24 25  1  0
 25 26  2  0
 27 28  1  0
 29 30  1  0
 30 31  1  0
M  CHG  1  16   1
M  END
