
     RDKit          3D

 32 36  0  0  0  0  0  0  0  0999 V2000
    5.1230    0.1120    1.6000 C   0  0  0  0  0  0  0  0  0  0  0  0
    5.2430    0.1920    0.1000 C   0  0  2  0  0  0  0  0  0  0  0  0
    4.8600    1.5230   -0.4390 C   0  0  0  0  0  0  0  0  0  0  0  0
    3.4370    1.8210   -0.0860 C   0  0  0  0  0  0  0  0  0  0  0  0
    2.5290    0.7360   -0.5580 C   0  0  2  0  0  0  0  0  0  0  0  0
    1.1110    0.9660   -0.2270 C   0  0  0  0  0  0  0  0  0  0  0  0
    0.6210    2.0980    0.3700 C   0  0  0  0  0  0  0  0  0  0  0  0
   -0.7470    2.2080    0.6350 C   0  0  0  0  0  0  0  0  0  0  0  0
   -1.6330    1.2030    0.3140 C   0  0  0  0  0  0  0  0  0  0  0  0
   -2.9510    1.3460    0.5870 O   0  0  0  0  0  0  0  0  0  0  0  0
   -4.0320    0.5300    0.3840 C   0  0  2  0  0  0  0  0  0  0  0  0
   -4.8980    1.1370   -0.5070 O   0  0  0  0  0  0  0  0  0  0  0  0
   -6.0860    0.5410   -0.7140 C   0  0  2  0  0  0  0  0  0  0  0  0
   -7.1620    1.5440   -0.3730 C   0  0  0  0  0  0  0  0  0  0  0  0
   -8.3480    1.1680   -0.5040 O   0  0  0  0  0  0  0  0  0  0  0  0
   -6.8600    2.8200    0.0640 O   0  0  0  0  0  0  0  0  0  0  0  0
   -6.3740   -0.7430   -0.0500 C   0  0  1  0  0  0  0  0  0  0  0  0
   -6.1910   -1.8300   -0.9230 O   0  0  0  0  0  0  0  0  0  0  0  0
   -5.6390   -1.0310    1.2050 C   0  0  2  0  0  0  0  0  0  0  0  0
   -6.4440   -1.4810    2.2460 O   0  0  0  0  0  0  0  0  0  0  0  0
   -4.8460    0.2170    1.6140 C   0  0  1  0  0  0  0  0  0  0  0  0
   -4.1090   -0.0080    2.7390 O   0  0  0  0  0  0  0  0  0  0  0  0
   -1.1520    0.0620   -0.2850 C   0  0  0  0  0  0  0  0  0  0  0  0
    0.2130   -0.0320   -0.5440 C   0  0  0  0  0  0  0  0  0  0  0  0
    0.7970   -1.2490   -1.1930 C   0  0  0  0  0  0  0  0  0  0  0  0
    2.0310   -1.7170   -0.4640 C   0  0  0  0  0  0  0  0  0  0  0  0
    2.9650   -0.6330   -0.0800 C   0  0  1  0  0  0  0  0  0  0  0  0
    4.3570   -0.8400   -0.5920 C   0  0  2  0  0  0  0  0  0  0  0  0
    5.0110   -2.1110   -0.2170 C   0  0  0  0  0  0  0  0  0  0  0  0
    6.4930   -1.7760   -0.3520 C   0  0  0  0  0  0  0  0  0  0  0  0
    6.5760   -0.2900   -0.2780 C   0  0  0  0  0  0  0  0  0  0  0  0
    7.5890    0.3340   -0.5020 O   0  0  0  0  0  0  0  0  0  0  0  0
  2  1  1  1
  2  3  1  0
  2 28  1  0
  2 31  1  0
  3  4  1  0
  5  4  1  1
  5  6  1  0
  5 27  1  0
  6  7  2  0
  6 24  1  0
  7  8  1  0
  8  9  2  0
  9 10  1  0
  9 23  1  0
 11 10  1  1
 11 12  1  0
 11 21  1  0
 12 13  1  0
 13 14  1  1
 13 17  1  0
 14 15  2  0
 14 16  1  0
 17 18  1  6
 17 19  1  0
 19 20  1  1
 19 21  1  0
 21 22  1  1
 23 24  2  0
 24 25  1  0
 25 26  1  0
 27 26  1  6
 27 28  1  0
 28 29  1  1
 29 30  1  0
 30 31  1  0
 31 32  2  0
M  END
