
     RDKit          3D

 44 49  0  0  0  0  0  0  0  0999 V2000
   -7.3670   -2.1300   -1.5120 C   0  0  0  0  0  0  0  0  0  0  0  0
   -6.4660   -0.8940   -1.5560 C   0  0  0  0  0  0  0  0  0  0  0  0
   -5.0220   -1.2910   -1.5450 C   0  0  1  0  0  0  0  0  0  0  0  0
   -4.6660   -2.1460   -2.7120 C   0  0  0  0  0  0  0  0  0  0  0  0
   -4.5230   -1.2410   -3.9100 C   0  0  0  0  0  0  0  0  0  0  0  0
   -3.2590   -0.4600   -3.7540 C   0  0  0  0  0  0  0  0  0  0  0  0
   -3.1150    0.1330   -2.4180 C   0  0  0  0  0  0  0  0  0  0  0  0
   -4.1010   -0.1510   -1.4130 N   0  0  0  0  0  0  0  0  0  0  0  0
   -4.2140    0.6450   -0.2540 C   0  0  0  0  0  0  0  0  0  0  0  0
   -5.1120    0.3260    0.6220 O   0  0  0  0  0  0  0  0  0  0  0  0
   -3.4390    1.8320    0.1290 C   0  0  0  0  0  0  0  0  0  0  0  0
   -2.3430    1.5810    1.0370 N   0  0  0  0  0  0  0  0  0  0  0  0
   -1.0660    1.3680    0.7130 C   0  0  0  0  0  0  0  0  0  0  0  0
   -0.3290    1.3460   -0.4610 C   0  0  0  0  0  0  0  0  0  0  0  0
    1.0410    1.0980   -0.4930 C   0  0  0  0  0  0  0  0  0  0  0  0
    1.7230    0.8630    0.6470 C   0  0  0  0  0  0  0  0  0  0  0  0
    3.1100    0.5830    0.7020 N   0  0  0  0  0  0  0  0  0  0  0  0
    3.9580    0.2690   -0.3730 C   0  0  0  0  0  0  0  0  0  0  0  0
    3.5060    0.2100   -1.5320 O   0  0  0  0  0  0  0  0  0  0  0  0
    5.4110    0.0010   -0.1500 C   0  0  0  0  0  0  0  0  0  0  0  0
    5.8520    0.0770    1.0120 O   0  0  0  0  0  0  0  0  0  0  0  0
    6.2360   -0.3250   -1.2310 N   0  0  0  0  0  0  0  0  0  0  0  0
    7.6000   -0.5980   -1.1680 C   0  0  0  0  0  0  0  0  0  0  0  0
    8.3690   -0.5600   -0.0500 C   0  0  0  0  0  0  0  0  0  0  0  0
    9.7380   -0.8460   -0.0800 C   0  0  0  0  0  0  0  0  0  0  0  0
   10.3700   -1.1800   -1.2470 C   0  0  0  0  0  0  0  0  0  0  0  0
    9.6000   -1.2210   -2.3840 C   0  0  0  0  0  0  0  0  0  0  0  0
    8.2580   -0.9400   -2.3560 C   0  0  0  0  0  0  0  0  0  0  0  0
    7.5400   -1.0000   -3.5390 O   0  0  0  0  0  0  0  0  0  0  0  0
    8.0900   -1.3310   -4.7830 C   0  0  0  0  0  0  0  0  0  0  0  0
    0.9810    0.8850    1.8460 C   0  0  0  0  0  0  0  0  0  0  0  0
   -0.3680    1.1300    1.8780 C   0  0  0  0  0  0  0  0  0  0  0  0
   -1.2460    1.2010    2.9460 C   0  0  0  0  0  0  0  0  0  0  0  0
   -1.0980    1.0540    4.3020 C   0  0  0  0  0  0  0  0  0  0  0  0
   -2.1780    1.1830    5.2010 C   0  0  0  0  0  0  0  0  0  0  0  0
   -3.3800    1.4660    4.6080 C   0  0  0  0  0  0  0  0  0  0  0  0
   -3.5370    1.6170    3.2290 C   0  0  0  0  0  0  0  0  0  0  0  0
   -2.4670    1.4860    2.3770 C   0  0  0  0  0  0  0  0  0  0  0  0
   -4.4750    1.6200    5.3140 C   0  0  0  0  0  0  0  0  0  0  0  0
   -4.5360    1.4830    7.0940 S   0  0  0  0  0  0  0  0  0  0  0  0
   -2.8690    1.1010    7.6250 C   0  0  1  0  0  0  0  0  0  0  0  0
   -2.4420    2.2010    8.3950 F   0  0  0  0  0  0  0  0  0  0  0  0
   -2.8180   -0.0460    8.4080 F   0  0  0  0  0  0  0  0  0  0  0  0
   -1.9590    1.0270    6.4820 C   0  0  0  0  0  0  0  0  0  0  0  0
  1  2  1  0
  3  2  1  6
  3  4  1  0
  3  8  1  0
  4  5  1  0
  5  6  1  0
  6  7  1  0
  7  8  1  0
  8  9  1  0
  9 10  2  0
  9 11  1  0
 11 12  1  0
 12 13  1  0
 12 38  1  0
 13 14  2  0
 13 32  1  0
 14 15  1  0
 15 16  2  0
 16 17  1  0
 16 31  1  0
 17 18  1  0
 18 19  2  0
 18 20  1  0
 20 21  2  0
 20 22  1  0
 22 23  1  0
 23 24  2  0
 23 28  1  0
 24 25  1  0
 25 26  2  0
 26 27  1  0
 27 28  2  0
 28 29  1  0
 29 30  1  0
 31 32  2  0
 32 33  1  0
 33 34  2  0
 33 38  1  0
 34 35  1  0
 35 36  1  0
 35 44  2  0
 36 37  1  0
 36 39  2  0
 37 38  2  0
 39 40  1  0
 40 41  1  0
 41 42  1  1
 41 43  1  0
 41 44  1  0
M  END
