
     RDKit          3D

 44 47  0  0  0  0  0  0  0  0999 V2000
   -7.5590    3.3110   -1.7100 C   0  0  0  0  0  0  0  0  0  0  0  0
   -7.8740    2.0050   -1.2540 N   0  0  0  0  0  0  0  0  0  0  0  0
   -6.9770    1.3900   -0.3320 C   0  0  1  0  0  0  0  0  0  0  0  0
   -7.7660   -0.0710    0.3750 S   0  0  0  0  0  0  0  0  0  0  0  0
   -6.6730   -1.4850   -0.1150 C   0  0  2  0  0  0  0  0  0  0  0  0
   -7.4240   -2.6680    0.2530 C   0  0  0  0  0  0  0  0  0  0  0  0
   -8.6450   -2.5590   -0.5570 O   0  0  0  0  0  0  0  0  0  0  0  0
   -5.3300   -1.1420    0.2130 C   0  0  0  0  0  0  0  0  0  0  0  0
   -4.4320   -1.9440    0.8490 C   0  0  0  0  0  0  0  0  0  0  0  0
   -4.6630   -3.1990    1.5170 C   0  0  0  0  0  0  0  0  0  0  0  0
   -3.6370   -4.1980    1.5150 N   0  0  0  0  0  0  0  0  0  0  0  0
   -5.6880   -3.4890    2.0960 O   0  0  0  0  0  0  0  0  0  0  0  0
   -3.1070   -1.5390    1.0260 N   0  0  0  0  0  0  0  0  0  0  0  0
   -2.6870   -0.3800    0.5930 C   0  0  0  0  0  0  0  0  0  0  0  0
   -1.3280    0.0060    0.8150 N   0  0  0  0  0  0  0  0  0  0  0  0
   -0.4320   -0.8470    1.4980 C   0  0  0  0  0  0  0  0  0  0  0  0
   -0.9310   -1.9710    1.8680 O   0  0  0  0  0  0  0  0  0  0  0  0
    0.9090   -0.5400    1.7800 N   0  0  0  0  0  0  0  0  0  0  0  0
    1.8380   -0.5450    0.9180 C   0  0  0  0  0  0  0  0  0  0  0  0
    3.1970   -0.2140    1.3160 C   0  0  0  0  0  0  0  0  0  0  0  0
    4.2880   -0.1730    0.4980 N   0  0  0  0  0  0  0  0  0  0  0  0
    5.3270    0.1630    1.2530 C   0  0  0  0  0  0  0  0  0  0  0  0
    6.6960    0.3300    0.8450 N   0  0  0  0  0  0  0  0  0  0  0  0
    7.1340    0.1680   -0.4940 C   0  0  0  0  0  0  0  0  0  0  0  0
    6.3230   -0.1290   -1.3980 O   0  0  0  0  0  0  0  0  0  0  0  0
    8.5570    0.3520   -0.8080 C   0  0  0  0  0  0  0  0  0  0  0  0
    9.3790    0.6220    0.1180 O   0  0  0  0  0  0  0  0  0  0  0  0
    9.0490    0.2390   -2.1200 N   0  0  0  0  0  0  0  0  0  0  0  0
   10.4810    0.4320   -2.3680 C   0  0  0  0  0  0  0  0  0  0  0  0
   10.7740    0.2800   -3.7990 C   0  0  0  0  0  0  0  0  0  0  0  0
    9.7940   -0.0120   -4.7920 N   0  0  0  0  0  0  0  0  0  0  0  0
   11.9830    0.4170   -4.1810 O   0  0  0  0  0  0  0  0  0  0  0  0
    4.9120    0.3400    2.5620 C   0  0  0  0  0  0  0  0  0  0  0  0
    5.5420    0.6820    3.7330 C   0  0  0  0  0  0  0  0  0  0  0  0
    6.7750    0.9050    3.7220 O   0  0  0  0  0  0  0  0  0  0  0  0
    4.8350    0.7770    4.8920 N   0  0  0  0  0  0  0  0  0  0  0  0
    3.5180    0.5450    4.9340 C   0  0  0  0  0  0  0  0  0  0  0  0
    2.9010    0.2040    3.7480 C   0  0  0  0  0  0  0  0  0  0  0  0
    3.5800    0.1000    2.5790 N   0  0  0  0  0  0  0  0  0  0  0  0
   -3.5670    0.4050   -0.0250 N   0  0  0  0  0  0  0  0  0  0  0  0
   -4.8470    0.1000   -0.2390 C   0  0  0  0  0  0  0  0  0  0  0  0
   -5.6560    1.1330   -0.9180 C   0  0  1  0  0  0  0  0  0  0  0  0
   -5.6020    0.9350   -2.4040 C   0  0  0  0  0  0  0  0  0  0  0  0
   -4.2740    0.6770   -2.8000 O   0  0  0  0  0  0  0  0  0  0  0  0
  1  2  1  0
  3  2  1  6
  3  4  1  0
  3 42  1  0
  4  5  1  0
  5  6  1  1
  5  8  1  0
  6  7  1  0
  8  9  2  0
  8 41  1  0
  9 10  1  0
  9 13  1  0
 10 11  1  0
 10 12  2  0
 13 14  2  0
 14 15  1  0
 14 40  1  0
 15 16  1  0
 16 17  2  0
 16 18  1  0
 18 19  2  3
 19 20  1  0
 20 21  2  0
 20 39  1  0
 21 22  1  0
 22 23  1  0
 22 33  2  0
 23 24  1  0
 24 25  2  0
 24 26  1  0
 26 27  2  0
 26 28  1  0
 28 29  1  0
 29 30  1  0
 30 31  1  0
 30 32  2  0
 33 34  1  0
 33 39  1  0
 34 35  2  0
 34 36  1  0
 36 37  1  0
 37 38  2  0
 38 39  1  0
 40 41  2  0
 41 42  1  0
 42 43  1  6
 43 44  1  0
M  END
