
     RDKit          3D

 44 49  0  0  0  0  0  0  0  0999 V2000
   -4.5510   -1.9390   -1.2300 C   0  0  0  0  0  0  0  0  0  0  0  0
   -5.8550   -1.3070   -1.2990 C   0  0  0  0  0  0  0  0  0  0  0  0
   -6.2040   -0.3570   -0.4800 C   0  0  0  0  0  0  0  0  0  0  0  0
   -5.1980    0.0230    0.4810 C   0  0  0  0  0  0  0  0  0  0  0  0
   -3.9890   -0.6920    0.5420 N   0  0  0  0  0  0  0  0  0  0  0  0
   -2.6890   -0.1960    0.1350 C   0  0  0  0  0  0  0  0  0  0  0  0
   -1.5900   -1.2040    0.2540 C   0  0  1  0  0  0  0  0  0  0  0  0
   -0.3520   -0.6530   -0.3700 C   0  0  0  0  0  0  0  0  0  0  0  0
    0.5120    0.0930    0.5220 N   0  0  0  0  0  0  0  0  0  0  0  0
    1.2730    1.1980    0.0390 C   0  0  0  0  0  0  0  0  0  0  0  0
    1.0290    1.5540   -1.1860 O   0  0  0  0  0  0  0  0  0  0  0  0
    2.4690    2.0390    0.9720 S   0  0  0  0  0  0  0  0  0  0  0  0
    3.3250    1.1770    2.2510 C   0  0  0  0  0  0  0  0  0  0  0  0
    4.2480    0.1330    1.6710 C   0  0  0  0  0  0  0  0  0  0  0  0
    3.8740   -1.0270    1.4580 O   0  0  0  0  0  0  0  0  0  0  0  0
    5.5880    0.4770    1.3550 N   0  0  0  0  0  0  0  0  0  0  0  0
    6.5040   -0.4750    0.8030 C   0  0  0  0  0  0  0  0  0  0  0  0
    6.0460   -1.6330    0.6150 O   0  0  0  0  0  0  0  0  0  0  0  0
    7.8420   -0.1500    0.4840 N   0  0  0  0  0  0  0  0  0  0  0  0
    8.3510    1.1810    0.7050 C   0  0  0  0  0  0  0  0  0  0  0  0
    9.7840    1.3170    0.2390 C   0  0  0  0  0  0  0  0  0  0  0  0
    9.9900    0.6500   -1.0580 C   0  0  0  0  0  0  0  0  0  0  0  0
   10.7040    1.2400   -2.0980 C   0  0  0  0  0  0  0  0  0  0  0  0
   10.8820    0.5950   -3.3010 C   0  0  0  0  0  0  0  0  0  0  0  0
   10.3140   -0.6730   -3.4240 C   0  0  0  0  0  0  0  0  0  0  0  0
    9.6100   -1.2700   -2.4170 C   0  0  0  0  0  0  0  0  0  0  0  0
    9.4440   -0.6080   -1.2220 C   0  0  0  0  0  0  0  0  0  0  0  0
    8.6970   -1.1720   -0.0680 C   0  0  0  0  0  0  0  0  0  0  0  0
    0.5450   -0.2540    1.9160 C   0  0  0  0  0  0  0  0  0  0  0  0
   -0.8040   -0.7650    2.3670 C   0  0  0  0  0  0  0  0  0  0  0  0
   -1.3950   -1.6730    1.5430 O   0  0  0  0  0  0  0  0  0  0  0  0
   -5.2380    1.0150    1.4110 C   0  0  0  0  0  0  0  0  0  0  0  0
   -4.1300    1.1210    2.1670 F   0  0  0  0  0  0  0  0  0  0  0  0
   -6.2360    1.9840    1.7740 C   0  0  0  0  0  0  0  0  0  0  0  0
   -7.4680    2.1100    1.3400 C   0  0  0  0  0  0  0  0  0  0  0  0
   -8.2780    3.2170    1.9030 C   0  0  0  0  0  0  0  0  0  0  0  0
   -9.3780    2.6920    2.5500 F   0  0  0  0  0  0  0  0  0  0  0  0
   -8.1550    1.3020    0.3440 C   0  0  0  0  0  0  0  0  0  0  0  0
   -9.4260    1.4770    0.0040 C   0  0  0  0  0  0  0  0  0  0  0  0
   -9.7800    0.4930   -1.0180 C   0  0  0  0  0  0  0  0  0  0  0  0
   -8.5070   -0.2620   -1.2580 C   0  0  0  0  0  0  0  0  0  0  0  0
   -7.6070    0.2080   -0.4610 C   0  0  0  0  0  0  0  0  0  0  0  0
   -8.2220   -1.4000   -2.1550 C   0  0  0  0  0  0  0  0  0  0  0  0
   -6.8060   -1.6510   -2.4160 C   0  0  0  0  0  0  0  0  0  0  0  0
  1  2  1  0
  2  3  2  0
  2 44  1  0
  3  4  1  0
  3 42  1  0
  4  5  1  0
  4 32  2  0
  5  6  1  0
  7  6  1  1
  7  8  1  0
  7 31  1  0
  8  9  1  0
  9 10  1  0
  9 29  1  0
 10 11  2  0
 10 12  1  0
 12 13  1  0
 13 14  1  0
 14 15  2  0
 14 16  1  0
 16 17  1  0
 17 18  2  0
 17 19  1  0
 19 20  1  0
 19 28  1  0
 20 21  1  0
 21 22  1  0
 22 23  2  0
 22 27  1  0
 23 24  1  0
 24 25  2  0
 25 26  1  0
 26 27  2  0
 27 28  1  0
 29 30  1  0
 30 31  1  0
 32 33  1  0
 32 34  1  0
 34 35  2  0
 35 36  1  0
 35 38  1  0
 36 37  1  0
 38 39  2  0
 38 42  1  0
 39 40  1  0
 40 41  1  0
 41 42  2  0
 41 43  1  0
 43 44  1  0
M  END
