
     RDKit          3D

 44 49  0  0  0  0  0  0  0  0999 V2000
    5.6760    1.5610   -0.2440 C   0  0  0  0  0  0  0  0  0  0  0  0
    6.9070    0.7970    0.0520 C   0  0  0  0  0  0  0  0  0  0  0  0
    8.1400    1.4660   -0.0710 C   0  0  0  0  0  0  0  0  0  0  0  0
    9.3460    0.8430    0.1180 C   0  0  0  0  0  0  0  0  0  0  0  0
    9.3430   -0.4950    0.4420 C   0  0  0  0  0  0  0  0  0  0  0  0
    8.1430   -1.1440    0.5620 C   0  0  0  0  0  0  0  0  0  0  0  0
    8.1300   -2.4590    0.8790 F   0  0  0  0  0  0  0  0  0  0  0  0
    6.8930   -0.5140    0.3710 C   0  0  0  0  0  0  0  0  0  0  0  0
    5.6930   -1.3500    0.6130 C   0  0  0  0  0  0  0  0  0  0  0  0
    5.8170   -2.6000    0.3470 O   0  0  0  0  0  0  0  0  0  0  0  0
    4.4750   -0.8820    1.1050 N   0  0  0  0  0  0  0  0  0  0  0  0
    3.2950   -1.6830    1.3360 C   0  0  0  0  0  0  0  0  0  0  0  0
    3.2020   -3.0110    0.9850 C   0  0  0  0  0  0  0  0  0  0  0  0
    2.0540   -3.7810    1.2420 C   0  0  0  0  0  0  0  0  0  0  0  0
    1.9880   -5.0760    0.8900 F   0  0  0  0  0  0  0  0  0  0  0  0
    0.9930   -3.1860    1.8630 C   0  0  0  0  0  0  0  0  0  0  0  0
    1.0340   -1.8740    2.2300 C   0  0  0  0  0  0  0  0  0  0  0  0
    2.1870   -1.1260    1.9640 C   0  0  0  0  0  0  0  0  0  0  0  0
    2.2110    0.5740    2.3850 S   0  0  2  0  0  0  0  0  0  0  0  0
    3.4070    0.9160    3.2260 O   0  0  0  0  0  0  0  0  0  0  0  0
    0.9320    0.8470    3.1790 O   0  0  0  0  0  0  0  0  0  0  0  0
    2.1610    1.6240    1.0430 N   0  0  0  0  0  0  0  0  0  0  0  0
    0.8920    1.3610    0.3580 C   0  0  0  0  0  0  0  0  0  0  0  0
    0.7030    2.2090   -0.8400 C   0  0  0  0  0  0  0  0  0  0  0  0
    1.6760    3.1440   -1.2380 C   0  0  0  0  0  0  0  0  0  0  0  0
    1.4700    3.9120   -2.3600 C   0  0  0  0  0  0  0  0  0  0  0  0
    0.3010    3.7450   -3.0740 C   0  0  0  0  0  0  0  0  0  0  0  0
   -0.6550    2.8230   -2.6780 C   0  0  0  0  0  0  0  0  0  0  0  0
   -0.4540    2.0590   -1.5650 C   0  0  0  0  0  0  0  0  0  0  0  0
   -1.4800    1.0900   -1.1460 C   0  0  0  0  0  0  0  0  0  0  0  0
   -1.1460   -0.0210   -0.6740 O   0  0  0  0  0  0  0  0  0  0  0  0
   -2.8610    1.3830   -1.2640 N   0  0  0  0  0  0  0  0  0  0  0  0
   -3.9420    0.5510   -0.8990 C   0  0  0  0  0  0  0  0  0  0  0  0
   -5.2180    0.9940   -1.2940 C   0  0  0  0  0  0  0  0  0  0  0  0
   -6.3380    0.2520   -0.9710 C   0  0  0  0  0  0  0  0  0  0  0  0
   -6.1910   -0.9140   -0.2660 C   0  0  0  0  0  0  0  0  0  0  0  0
   -4.9800   -1.3960    0.1470 C   0  0  0  0  0  0  0  0  0  0  0  0
   -3.8850   -0.6110   -0.2040 C   0  0  0  0  0  0  0  0  0  0  0  0
   -5.1840   -2.6800    0.8840 C   0  0  0  0  0  0  0  0  0  0  0  0
   -6.6900   -2.8460    0.9150 C   0  0  0  0  0  0  0  0  0  0  0  0
   -7.2320   -1.7760    0.1350 N   0  0  0  0  0  0  0  0  0  0  0  0
   -8.6040   -1.4590   -0.2820 C   0  0  0  0  0  0  0  0  0  0  0  0
   -8.7240    0.0230   -0.4100 C   0  0  0  0  0  0  0  0  0  0  0  0
   -7.7150    0.6530   -1.3530 C   0  0  0  0  0  0  0  0  0  0  0  0
  1  2  1  0
  2  3  2  0
  2  8  1  0
  3  4  1  0
  4  5  2  0
  5  6  1  0
  6  7  1  0
  6  8  2  0
  8  9  1  0
  9 10  2  0
  9 11  1  0
 11 12  1  0
 12 13  2  0
 12 18  1  0
 13 14  1  0
 14 15  1  0
 14 16  2  0
 16 17  1  0
 17 18  2  0
 18 19  1  0
 19 20  2  0
 19 21  2  0
 19 22  1  6
 22 23  1  0
 23 24  1  0
 24 25  2  0
 24 29  1  0
 25 26  1  0
 26 27  2  0
 27 28  1  0
 28 29  2  0
 29 30  1  0
 30 31  2  0
 30 32  1  0
 32 33  1  0
 33 34  2  0
 33 38  1  0
 34 35  1  0
 35 36  2  0
 35 44  1  0
 36 37  1  0
 36 41  1  0
 37 38  2  0
 37 39  1  0
 39 40  1  0
 40 41  1  0
 41 42  1  0
 42 43  1  0
 43 44  1  0
M  END
