
     RDKit          3D

 44 48  0  0  0  0  0  0  0  0999 V2000
  -10.4250   -2.5230   -0.2750 C   0  0  0  0  0  0  0  0  0  0  0  0
   -9.1180   -3.0260   -0.1170 C   0  0  0  0  0  0  0  0  0  0  0  0
   -9.1350   -4.4610    0.0540 C   0  0  0  0  0  0  0  0  0  0  0  0
   -8.1240   -2.0470   -0.1660 C   0  0  0  0  0  0  0  0  0  0  0  0
   -8.7810   -0.7660   -0.3520 F   0  0  0  0  0  0  0  0  0  0  0  0
   -6.8440   -1.8910   -0.0900 C   0  0  0  0  0  0  0  0  0  0  0  0
   -6.1680   -0.6160   -0.2040 C   0  0  0  0  0  0  0  0  0  0  0  0
   -4.8330   -0.8420   -0.0490 C   0  0  0  0  0  0  0  0  0  0  0  0
   -4.6170   -2.1560    0.1510 C   0  0  0  0  0  0  0  0  0  0  0  0
   -3.4440   -2.8600    0.3690 C   0  0  0  0  0  0  0  0  0  0  0  0
   -2.1150   -2.2330    0.3510 C   0  0  0  0  0  0  0  0  0  0  0  0
   -1.5400   -2.0280   -1.0120 C   0  0  0  0  0  0  0  0  0  0  0  0
   -0.1900   -1.5360   -0.9420 N   0  0  0  0  0  0  0  0  0  0  0  0
    0.2820   -0.3670   -0.3400 C   0  0  0  0  0  0  0  0  0  0  0  0
   -0.5170    0.3940    0.2330 O   0  0  0  0  0  0  0  0  0  0  0  0
    1.7210    0.0020   -0.3610 C   0  0  0  0  0  0  0  0  0  0  0  0
    2.5220   -0.7540   -0.9140 O   0  0  0  0  0  0  0  0  0  0  0  0
    2.1790    1.1980    0.2390 N   0  0  0  0  0  0  0  0  0  0  0  0
    3.5070    1.6570    0.2900 C   0  0  0  0  0  0  0  0  0  0  0  0
    3.7040    2.9440    0.8060 C   0  0  0  0  0  0  0  0  0  0  0  0
    4.9530    3.5150    0.9170 C   0  0  0  0  0  0  0  0  0  0  0  0
    6.0680    2.8240    0.5180 C   0  0  0  0  0  0  0  0  0  0  0  0
    7.3810    3.0960    0.4990 N   0  0  0  0  0  0  0  0  0  0  0  0
    8.0820    2.0610   -0.0020 C   0  0  0  0  0  0  0  0  0  0  0  0
    9.5190    1.9970   -0.1740 C   0  0  0  0  0  0  0  0  0  0  0  0
   10.0490    0.9730   -0.6510 O   0  0  0  0  0  0  0  0  0  0  0  0
   10.3030    3.0670    0.1880 O   0  0  0  0  0  0  0  0  0  0  0  0
   11.7180    2.9820    0.0080 C   0  0  0  0  0  0  0  0  0  0  0  0
   12.2400    1.8190    0.8270 C   0  0  0  0  0  0  0  0  0  0  0  0
    7.1330    1.0930   -0.3090 C   0  0  0  0  0  0  0  0  0  0  0  0
    7.4890   -0.2260   -0.8910 C   0  0  0  0  0  0  0  0  0  0  0  0
    5.8850    1.5650    0.0120 C   0  0  0  0  0  0  0  0  0  0  0  0
    4.6280    0.9990   -0.0970 C   0  0  0  0  0  0  0  0  0  0  0  0
   -3.4560   -4.2460    0.5750 C   0  0  0  0  0  0  0  0  0  0  0  0
   -4.6620   -4.8530    0.5490 C   0  0  0  0  0  0  0  0  0  0  0  0
   -5.8250   -4.0970    0.3230 C   0  0  0  0  0  0  0  0  0  0  0  0
   -5.8230   -2.7710    0.1250 N   0  0  0  0  0  0  0  0  0  0  0  0
   -3.6840    0.5110   -0.1030 S   0  0  0  0  0  0  0  0  0  0  0  0
   -4.6380    1.9620   -0.4150 C   0  0  0  0  0  0  0  0  0  0  0  0
   -3.9970    3.2450   -0.5310 C   0  0  1  0  0  0  0  0  0  0  0  0
   -3.2220    3.6690    0.6960 C   0  0  0  0  0  0  0  0  0  0  0  0
   -3.0990    3.3130   -1.5990 F   0  0  0  0  0  0  0  0  0  0  0  0
   -5.9220    1.8150   -0.5300 C   0  0  0  0  0  0  0  0  0  0  0  0
   -6.6710    0.5750   -0.4300 C   0  0  0  0  0  0  0  0  0  0  0  0
  1  2  2  0
  2  3  1  0
  2  4  1  0
  4  5  1  0
  4  6  2  3
  6  7  1  0
  6 37  1  0
  7  8  1  0
  7 44  2  0
  8  9  2  0
  8 38  1  0
  9 10  1  0
  9 37  1  0
 10 11  1  0
 10 34  2  0
 11 12  1  0
 12 13  1  0
 13 14  1  0
 14 15  2  0
 14 16  1  0
 16 17  2  0
 16 18  1  0
 18 19  1  0
 19 20  2  0
 19 33  1  0
 20 21  1  0
 21 22  2  0
 22 23  1  0
 22 32  1  0
 23 24  1  0
 24 25  1  0
 24 30  2  0
 25 26  2  0
 25 27  1  0
 27 28  1  0
 28 29  1  0
 30 31  1  0
 30 32  1  0
 32 33  2  0
 34 35  1  0
 35 36  2  0
 36 37  1  0
 38 39  1  0
 39 40  1  0
 39 43  2  0
 40 41  1  1
 40 42  1  0
 43 44  1  0
M  END
