
     RDKit          3D

 45 47  0  0  0  0  0  0  0  0999 V2000
    0.7920   -3.0690    3.6850 C   0  0  0  0  0  0  0  0  0  0  0  0
   -0.0590   -3.5410    2.5540 C   0  0  2  0  0  0  0  0  0  0  0  0
   -0.4890   -4.9880    2.8560 C   0  0  0  0  0  0  0  0  0  0  0  0
    0.4990   -3.4340    1.1860 C   0  0  0  0  0  0  0  0  0  0  0  0
    0.8500   -2.1010    0.6540 C   0  0  2  0  0  0  0  0  0  0  0  0
    1.8640   -1.3560    1.3400 N   0  0  0  0  0  0  0  0  0  0  0  0
    2.3010   -0.1990    0.5710 C   0  0  2  0  0  0  0  0  0  0  0  0
    3.7770   -0.2610    0.2200 C   0  0  0  0  0  0  0  0  0  0  0  0
    4.6880   -0.3170    1.3970 C   0  0  0  0  0  0  0  0  0  0  0  0
    6.0550   -0.3600    0.9090 N   0  0  0  0  0  0  0  0  0  0  0  0
    6.6400    0.6730    0.1470 C   0  0  0  0  0  0  0  0  0  0  0  0
    5.9790    1.7070   -0.1400 O   0  0  0  0  0  0  0  0  0  0  0  0
    7.9640    0.5800   -0.3110 O   0  0  0  0  0  0  0  0  0  0  0  0
    8.6030    1.5780   -1.0650 C   0  0  0  0  0  0  0  0  0  0  0  0
    7.9390    1.8940   -2.3470 C   0  0  0  0  0  0  0  0  0  0  0  0
    7.1780    3.0650   -2.4690 C   0  0  0  0  0  0  0  0  0  0  0  0
    6.5510    3.3780   -3.6460 C   0  0  0  0  0  0  0  0  0  0  0  0
    6.6680    2.5330   -4.7270 C   0  0  0  0  0  0  0  0  0  0  0  0
    7.4110    1.3920   -4.6030 C   0  0  0  0  0  0  0  0  0  0  0  0
    8.0480    1.0600   -3.4300 C   0  0  0  0  0  0  0  0  0  0  0  0
    2.0830    1.0730    1.2800 C   0  0  0  0  0  0  0  0  0  0  0  0
    1.6690    1.2330    2.4330 O   0  0  0  0  0  0  0  0  0  0  0  0
    2.3810    2.2390    0.5540 O   0  0  0  0  0  0  0  0  0  0  0  0
   -0.3500   -1.2710    0.3380 C   0  0  0  0  0  0  0  0  0  0  0  0
   -0.3000   -0.0080    0.4490 O   0  0  0  0  0  0  0  0  0  0  0  0
   -1.5780   -1.8140   -0.0910 N   0  0  0  0  0  0  0  0  0  0  0  0
   -2.7080   -0.9410   -0.4060 C   0  0  1  0  0  0  0  0  0  0  0  0
   -3.3800   -1.4160   -1.6660 C   0  0  0  0  0  0  0  0  0  0  0  0
   -2.3700   -1.3720   -2.7750 C   0  0  0  0  0  0  0  0  0  0  0  0
   -2.2250   -0.2330   -3.5440 C   0  0  0  0  0  0  0  0  0  0  0  0
   -1.3050   -0.1620   -4.5620 C   0  0  0  0  0  0  0  0  0  0  0  0
   -0.4810   -1.2310   -4.8630 C   0  0  0  0  0  0  0  0  0  0  0  0
   -0.6170   -2.3650   -4.1060 C   0  0  0  0  0  0  0  0  0  0  0  0
   -1.5450   -2.4420   -3.0760 C   0  0  0  0  0  0  0  0  0  0  0  0
   -3.7110   -0.9740    0.7010 C   0  0  0  0  0  0  0  0  0  0  0  0
   -3.5370   -1.7100    1.7080 O   0  0  0  0  0  0  0  0  0  0  0  0
   -4.8860   -0.1770    0.6570 N   0  0  0  0  0  0  0  0  0  0  0  0
   -5.8760   -0.1750    1.7150 C   0  0  0  0  0  0  0  0  0  0  0  0
   -7.0110    0.7560    1.4360 C   0  0  0  0  0  0  0  0  0  0  0  0
   -6.6650    2.1250    1.2820 N   0  0  1  0  0  0  0  0  0  0  0  0
   -7.7570    2.9430    1.7670 C   0  0  0  0  0  0  0  0  0  0  0  0
   -7.2770    4.0180    2.7280 C   0  0  0  0  0  0  0  0  0  0  0  0
   -6.3290    4.7820    2.0620 O   0  0  0  0  0  0  0  0  0  0  0  0
   -5.2580    4.0360    1.6170 C   0  0  0  0  0  0  0  0  0  0  0  0
   -5.4570    2.5450    1.9190 C   0  0  0  0  0  0  0  0  0  0  0  0
  2  1  1  1
  2  3  1  0
  2  4  1  0
  5  4  1  1
  5  6  1  0
  5 24  1  0
  6  7  1  0
  7  8  1  1
  7 21  1  0
  8  9  1  0
  9 10  1  0
 10 11  1  0
 11 12  2  0
 11 13  1  0
 13 14  1  0
 14 15  1  0
 15 16  2  0
 15 20  1  0
 16 17  1  0
 17 18  2  0
 18 19  1  0
 19 20  2  0
 21 22  2  0
 21 23  1  0
 24 25  2  0
 24 26  1  0
 26 27  1  0
 27 28  1  6
 27 35  1  0
 28 29  1  0
 29 30  2  0
 29 34  1  0
 30 31  1  0
 31 32  2  0
 32 33  1  0
 33 34  2  0
 35 36  2  0
 35 37  1  0
 37 38  1  0
 38 39  1  0
 40 39  1  1
 40 41  1  0
 40 45  1  0
 41 42  1  0
 42 43  1  0
 43 44  1  0
 44 45  1  0
M  CHG  2   6   1  40   1
M  END
