
     RDKit          3D

 18 20  0  0  0  0  0  0  0  0999 V2000
   -0.9170   -0.5530   -1.6420 O   0  0  0  0  0  0  0  0  0  0  0  0
   -1.8230   -0.1950   -0.8440 C   0  0  0  0  0  0  0  0  0  0  0  0
   -3.0220    0.5790   -1.2310 C   0  0  0  0  0  0  0  0  0  0  0  0
   -4.2260    0.0140   -0.5430 C   0  0  0  0  0  0  0  0  0  0  0  0
   -4.0760   -0.2270    0.9210 C   0  0  0  0  0  0  0  0  0  0  0  0
   -2.8830   -1.0770    1.2970 C   0  0  0  0  0  0  0  0  0  0  0  0
   -1.6540   -0.5880    0.5700 C   0  0  0  0  0  0  0  0  0  0  0  0
   -0.5310   -0.5230    1.2030 C   0  0  0  0  0  0  0  0  0  0  0  0
    0.7220   -0.0580    0.6460 C   0  0  0  0  0  0  0  0  0  0  0  0
    1.8570   -0.8760    0.7810 C   0  0  0  0  0  0  0  0  0  0  0  0
    3.0800   -0.4720    0.2940 C   0  0  0  0  0  0  0  0  0  0  0  0
    3.1590    0.7470   -0.3230 C   0  0  0  0  0  0  0  0  0  0  0  0
    2.0360    1.5720   -0.4630 C   0  0  0  0  0  0  0  0  0  0  0  0
    0.8250    1.1640    0.0240 C   0  0  0  0  0  0  0  0  0  0  0  0
   -0.3240    1.9640   -0.0910 O   0  0  0  0  0  0  0  0  0  0  0  0
    4.4500    0.9550   -0.7320 O   0  0  0  0  0  0  0  0  0  0  0  0
    5.3260    0.0930   -0.0330 C   0  0  0  0  0  0  0  0  0  0  0  0
    4.4340   -1.0950    0.2840 C   0  0  0  0  0  0  0  0  0  0  0  0
  1  2  2  0
  2  3  1  0
  2  7  1  0
  3  4  1  0
  4  5  1  0
  5  6  1  0
  6  7  1  0
  7  8  2  3
  8  9  1  0
  9 10  2  0
  9 14  1  0
 10 11  1  0
 11 12  2  0
 11 18  1  0
 12 13  1  0
 12 16  1  0
 13 14  2  0
 14 15  1  0
 16 17  1  0
 17 18  1  0
M  END
