
     RDKit          3D

 18 20  0  0  0  0  0  0  0  0999 V2000
    1.5820    1.2840   -1.2640 C   0  0  0  0  0  0  0  0  0  0  0  0
    2.3610    0.7480   -0.1300 C   0  0  0  0  0  0  0  0  0  0  0  0
    3.6800    0.9800    0.0190 C   0  0  0  0  0  0  0  0  0  0  0  0
    4.1400    0.3170    1.2170 C   0  0  0  0  0  0  0  0  0  0  0  0
    3.1180   -0.3010    1.7750 C   0  0  0  0  0  0  0  0  0  0  0  0
    1.8880   -0.0790    0.9610 C   0  0  0  0  0  0  0  0  0  0  0  0
    0.6970   -0.5310    1.2590 C   0  0  0  0  0  0  0  0  0  0  0  0
    0.6280   -1.3420    2.4380 O   0  0  0  0  0  0  0  0  0  0  0  0
   -0.5400   -0.2990    0.5480 C   0  0  0  0  0  0  0  0  0  0  0  0
   -1.0840    0.9370    0.2770 C   0  0  0  0  0  0  0  0  0  0  0  0
   -2.2680    1.0390   -0.4230 C   0  0  0  0  0  0  0  0  0  0  0  0
   -2.8650    2.3820   -0.7180 C   0  0  0  0  0  0  0  0  0  0  0  0
   -2.9560   -0.0650   -0.8780 C   0  0  0  0  0  0  0  0  0  0  0  0
   -2.4210   -1.3320   -0.6130 C   0  0  0  0  0  0  0  0  0  0  0  0
   -1.2360   -1.4200    0.0880 C   0  0  0  0  0  0  0  0  0  0  0  0
   -0.9200   -2.7740    0.2180 O   0  0  0  0  0  0  0  0  0  0  0  0
   -1.7120   -3.4600   -0.7600 C   0  0  0  0  0  0  0  0  0  0  0  0
   -2.8320   -2.6180   -0.9100 O   0  0  0  0  0  0  0  0  0  0  0  0
  1  2  1  0
  2  3  2  0
  2  6  1  0
  3  4  1  0
  4  5  2  0
  5  6  1  0
  6  7  2  3
  7  8  1  0
  7  9  1  0
  9 10  2  0
  9 15  1  0
 10 11  1  0
 11 12  1  0
 11 13  2  0
 13 14  1  0
 14 15  2  0
 14 18  1  0
 15 16  1  0
 16 17  1  0
 17 18  1  0
M  END
