
     RDKit          3D

 18 20  0  0  0  0  0  0  0  0999 V2000
   -1.1670    3.2120   -0.9120 C   0  0  0  0  0  0  0  0  0  0  0  0
   -1.8760    1.9710   -0.4270 C   0  0  0  0  0  0  0  0  0  0  0  0
   -3.0340    1.9240    0.1790 O   0  0  0  0  0  0  0  0  0  0  0  0
   -3.3950    0.7050    0.4810 C   0  0  0  0  0  0  0  0  0  0  0  0
   -2.3930   -0.1410    0.0400 C   0  0  0  0  0  0  0  0  0  0  0  0
   -1.4370    0.6700   -0.5330 C   0  0  0  0  0  0  0  0  0  0  0  0
   -0.1950    0.2000   -1.1340 C   0  0  0  0  0  0  0  0  0  0  0  0
   -0.1610   -0.0930   -2.3570 O   0  0  0  0  0  0  0  0  0  0  0  0
    0.9670    0.0630   -0.3910 O   0  0  0  0  0  0  0  0  0  0  0  0
    2.1220   -0.3950   -1.0400 C   0  0  0  0  0  0  0  0  0  0  0  0
    3.2910   -0.5050   -0.1730 C   0  0  0  0  0  0  0  0  0  0  0  0
    3.9500   -1.6230    0.0590 C   0  0  0  0  0  0  0  0  0  0  0  0
    5.0670   -1.3960    0.9690 C   0  0  0  0  0  0  0  0  0  0  0  0
    4.9940    0.0480    1.2650 C   0  0  0  0  0  0  0  0  0  0  0  0
    3.9680    0.5450    0.6010 C   0  0  0  0  0  0  0  0  0  0  0  0
   -2.8120   -1.5330    0.3890 C   0  0  0  0  0  0  0  0  0  0  0  0
   -4.3350   -1.4450    0.5120 C   0  0  0  0  0  0  0  0  0  0  0  0
   -4.4910   -0.0760    1.1250 C   0  0  0  0  0  0  0  0  0  0  0  0
  1  2  1  0
  2  3  1  0
  2  6  2  0
  3  4  1  0
  4  5  2  0
  4 18  1  0
  5  6  1  0
  5 16  1  0
  6  7  1  0
  7  8  2  0
  7  9  1  0
  9 10  1  0
 10 11  1  0
 11 12  2  0
 11 15  1  0
 12 13  1  0
 13 14  1  0
 14 15  2  0
 16 17  1  0
 17 18  1  0
M  END
