
     RDKit          3D

  9  8  0  0  0  0  0  0  0  0999 V2000
   -0.9380   -1.6880    0.4660 C   0  0  0  0  0  0  0  0  0  0  0  0
   -0.5030   -0.4490   -0.1450 N   0  0  0  0  0  0  0  0  0  0  0  0
    0.8030   -0.3510   -0.7530 C   0  0  0  0  0  0  0  0  0  0  0  0
    1.8350    0.0920    0.2100 C   0  0  0  0  0  0  0  0  0  0  0  0
    3.0100    0.2100   -0.2180 O   0  0  0  0  0  0  0  0  0  0  0  0
    1.5960    0.3800    1.5270 O   0  0  0  0  0  0  0  0  0  0  0  0
   -1.3890    0.6540   -0.1280 C   0  0  0  0  0  0  0  0  0  0  0  0
   -1.0030    1.8870   -0.7160 N   0  0  0  0  0  0  0  0  0  0  0  0
   -2.5200    0.5660    0.3990 O   0  0  0  0  0  0  0  0  0  0  0  0
  1  2  1  0
  2  3  1  0
  2  7  1  0
  3  4  1  0
  4  5  2  0
  4  6  1  0
  7  8  1  0
  7  9  2  0
M  END
