
     RDKit          3D

 36 39  0  0  0  0  0  0  0  0999 V2000
    3.4820   -3.1590    0.1210 C   0  0  0  0  0  0  0  0  0  0  0  0
    3.0700   -2.1790    1.2280 C   0  0  0  0  0  0  0  0  0  0  0  0
    1.6580   -1.8210    0.9850 C   0  0  0  0  0  0  0  0  0  0  0  0
    1.2920   -0.9620    0.0150 C   0  0  0  0  0  0  0  0  0  0  0  0
    2.2150   -0.2190   -0.8040 C   0  0  0  0  0  0  0  0  0  0  0  0
    2.4330   -0.4390   -2.0220 O   0  0  0  0  0  0  0  0  0  0  0  0
    2.9360    0.8740   -0.1790 N   0  0  0  0  0  0  0  0  0  0  0  0
    3.8380    1.6710   -0.9390 C   0  0  0  0  0  0  0  0  0  0  0  0
    5.0420    1.0030   -1.5000 C   0  0  0  0  0  0  0  0  0  0  0  0
    5.9690    0.4890   -0.4190 C   0  0  1  0  0  0  0  0  0  0  0  0
    7.1780   -0.2020   -0.9970 C   0  0  0  0  0  0  0  0  0  0  0  0
    6.4550    1.6390    0.4570 C   0  0  0  0  0  0  0  0  0  0  0  0
    7.1710    2.6450   -0.2640 N   0  0  0  0  0  0  0  0  0  0  0  0
   -0.0900   -0.7130   -0.1360 C   0  0  0  0  0  0  0  0  0  0  0  0
   -1.0470   -1.2960    0.6510 C   0  0  0  0  0  0  0  0  0  0  0  0
   -2.4300   -1.0540    0.5920 N   0  0  0  0  0  0  0  0  0  0  0  0
   -3.0520   -0.1160   -0.3260 C   0  0  0  0  0  0  0  0  0  0  0  0
   -2.3180    0.4850   -1.0930 O   0  0  0  0  0  0  0  0  0  0  0  0
   -4.4590    0.0700   -0.2910 N   0  0  0  0  0  0  0  0  0  0  0  0
   -5.1220    0.9780   -1.1580 C   0  0  0  0  0  0  0  0  0  0  0  0
   -4.5280    1.4140   -2.3200 C   0  0  0  0  0  0  0  0  0  0  0  0
   -5.1770    2.2580   -3.2160 C   0  0  0  0  0  0  0  0  0  0  0  0
   -6.4370    2.6500   -2.9130 C   0  0  0  0  0  0  0  0  0  0  0  0
   -7.0650    2.2200   -1.7380 C   0  0  0  0  0  0  0  0  0  0  0  0
   -6.4470    1.3940   -0.8470 C   0  0  0  0  0  0  0  0  0  0  0  0
   -6.9500    0.9640    0.2690 C   0  0  0  0  0  0  0  0  0  0  0  0
   -8.2920    1.2480    0.8120 C   0  0  0  0  0  0  0  0  0  0  0  0
   -9.1910    2.2190   -0.1450 S   0  0  0  0  0  0  0  0  0  0  0  0
  -10.7790    2.6900    0.2710 O   0  0  0  0  0  0  0  0  0  0  0  0
   -8.3060    2.7090   -1.6270 C   0  0  0  0  0  0  0  0  0  0  0  0
   -0.6290   -2.1870    1.6520 C   0  0  0  0  0  0  0  0  0  0  0  0
    0.7130   -2.4480    1.8170 C   0  0  0  0  0  0  0  0  0  0  0  0
    1.0990   -3.3340    2.8170 O   0  0  0  0  0  0  0  0  0  0  0  0
    0.2180   -3.4640    3.9350 C   0  0  0  0  0  0  0  0  0  0  0  0
   -1.1300   -3.8410    3.3390 C   0  0  0  0  0  0  0  0  0  0  0  0
   -1.5530   -2.8090    2.4800 O   0  0  0  0  0  0  0  0  0  0  0  0
  1  2  1  0
  2  3  1  0
  3  4  2  0
  3 32  1  0
  4  5  1  0
  4 14  1  0
  5  6  2  0
  5  7  1  0
  7  8  1  0
  8  9  1  0
  9 10  1  0
 10 11  1  6
 10 12  1  0
 12 13  1  0
 14 15  2  0
 15 16  1  0
 15 31  1  0
 16 17  1  0
 17 18  2  0
 17 19  1  0
 19 20  1  0
 20 21  2  0
 20 25  1  0
 21 22  1  0
 22 23  2  0
 23 24  1  0
 24 25  1  0
 24 30  2  0
 25 26  2  0
 26 27  1  0
 27 28  2  0
 28 29  1  0
 28 30  1  0
 31 32  2  0
 31 36  1  0
 32 33  1  0
 33 34  1  0
 34 35  1  0
 35 36  1  0
M  CHG  1  13   1
M  END
