
     RDKit          3D

 36 39  0  0  0  0  0  0  0  0999 V2000
   -4.0800    3.2750   -0.4820 C   0  0  0  0  0  0  0  0  0  0  0  0
   -3.7900    1.9110   -0.6820 O   0  0  0  0  0  0  0  0  0  0  0  0
   -2.4790    1.4830   -0.8370 C   0  0  0  0  0  0  0  0  0  0  0  0
   -1.5920    2.3620   -0.7900 O   0  0  0  0  0  0  0  0  0  0  0  0
   -2.1200    0.0830   -1.0480 C   0  0  0  0  0  0  0  0  0  0  0  0
   -0.8400   -0.2100   -1.1840 C   0  0  0  0  0  0  0  0  0  0  0  0
    0.3530    1.1090   -1.1060 S   0  0  0  0  0  0  0  0  0  0  0  0
    2.0480    0.6300   -1.0690 C   0  0  0  0  0  0  0  0  0  0  0  0
    2.5260   -0.0430    0.1950 C   0  0  0  0  0  0  0  0  0  0  0  0
    3.9550   -0.3930    0.1240 C   0  0  0  0  0  0  0  0  0  0  0  0
    4.9370    0.2650    0.7640 C   0  0  0  0  0  0  0  0  0  0  0  0
    4.6010    1.3980    1.5760 C   0  0  0  0  0  0  0  0  0  0  0  0
    5.4230    2.2080    2.3820 N   0  0  0  0  0  0  0  0  0  0  0  0
    3.3450    1.7690    1.6040 O   0  0  0  0  0  0  0  0  0  0  0  0
    6.3190   -0.1930    0.6140 N   0  0  0  0  0  0  0  0  0  0  0  0
    7.3810    0.5140    1.2740 C   0  0  0  0  0  0  0  0  0  0  0  0
    8.7270   -0.0610    1.0510 C   0  0  0  0  0  0  0  0  0  0  0  0
    8.9690   -1.1080    0.3050 C   0  0  0  0  0  0  0  0  0  0  0  0
    7.8780   -1.7920   -0.3690 C   0  0  0  0  0  0  0  0  0  0  0  0
    6.6590   -1.3130   -0.1850 C   0  0  0  0  0  0  0  0  0  0  0  0
    5.6080   -2.0260   -0.8770 N   0  0  0  0  0  0  0  0  0  0  0  0
    4.3050   -1.5700   -0.7180 C   0  0  0  0  0  0  0  0  0  0  0  0
    3.3380   -2.1460   -1.2940 O   0  0  0  0  0  0  0  0  0  0  0  0
   -0.3680   -1.5370   -1.3570 N   0  0  0  0  0  0  0  0  0  0  0  0
   -1.3720   -2.5790   -1.3740 C   0  0  0  0  0  0  0  0  0  0  0  0
   -1.2540   -3.6300   -2.0020 O   0  0  0  0  0  0  0  0  0  0  0  0
   -2.5850   -2.2520   -0.5430 C   0  0  0  0  0  0  0  0  0  0  0  0
   -3.1360   -0.9800   -1.1330 C   0  0  1  0  0  0  0  0  0  0  0  0
   -4.4110   -0.6260   -0.5040 C   0  0  0  0  0  0  0  0  0  0  0  0
   -4.4700   -0.2920    0.8320 C   0  0  0  0  0  0  0  0  0  0  0  0
   -5.6930    0.0450    1.4220 C   0  0  0  0  0  0  0  0  0  0  0  0
   -6.8600    0.0490    0.6740 C   0  0  0  0  0  0  0  0  0  0  0  0
   -8.1630    0.4090    1.3070 C   0  0  0  0  0  0  0  0  0  0  0  0
   -6.8090   -0.2830   -0.6610 C   0  0  0  0  0  0  0  0  0  0  0  0
   -8.0750   -0.2740   -1.4500 C   0  0  0  0  0  0  0  0  0  0  0  0
   -5.5990   -0.6070   -1.2020 C   0  0  0  0  0  0  0  0  0  0  0  0
  1  2  1  0
  2  3  1  0
  3  4  2  0
  3  5  1  0
  5  6  2  0
  5 28  1  0
  6  7  1  0
  6 24  1  0
  7  8  1  0
  8  9  1  0
  9 10  1  0
 10 11  2  0
 10 22  1  0
 11 12  1  0
 11 15  1  0
 12 13  1  0
 12 14  2  0
 15 16  1  0
 15 20  1  0
 16 17  1  0
 17 18  2  0
 18 19  1  0
 19 20  2  0
 20 21  1  0
 21 22  1  0
 22 23  2  0
 24 25  1  0
 25 26  2  0
 25 27  1  0
 27 28  1  0
 28 29  1  1
 29 30  2  0
 29 36  1  0
 30 31  1  0
 31 32  2  0
 32 33  1  0
 32 34  1  0
 34 35  1  0
 34 36  2  0
M  CHG  1  13   1
M  END
