
     RDKit          3D

 36 39  0  0  0  0  0  0  0  0999 V2000
    4.9510   -2.5700   -0.9860 C   0  0  0  0  0  0  0  0  0  0  0  0
    3.4580   -2.7110   -0.7980 C   0  0  1  0  0  0  0  0  0  0  0  0
    3.1860   -3.2170    0.5710 C   0  0  0  0  0  0  0  0  0  0  0  0
    2.7490   -1.4140   -1.1490 C   0  0  2  0  0  0  0  0  0  0  0  0
    3.1670   -0.2940   -0.3340 N   0  0  0  0  0  0  0  0  0  0  0  0
    3.7340    0.7660   -1.0920 C   0  0  0  0  0  0  0  0  0  0  0  0
    4.5300    1.7460   -0.2230 C   0  0  0  0  0  0  0  0  0  0  0  0
    4.6800    1.6360    1.1080 C   0  0  0  0  0  0  0  0  0  0  0  0
    5.4230    2.5960    1.7630 C   0  0  0  0  0  0  0  0  0  0  0  0
    5.9210    3.6780    0.4600 S   0  0  0  0  0  0  0  0  0  0  0  0
    5.1210    2.8010   -0.8600 C   0  0  0  0  0  0  0  0  0  0  0  0
    5.1330    3.1780   -2.2860 C   0  0  0  0  0  0  0  0  0  0  0  0
    5.8790    4.3460   -2.4160 O   0  0  0  0  0  0  0  0  0  0  0  0
    1.3600   -1.6290   -1.2380 C   0  0  0  0  0  0  0  0  0  0  0  0
    0.8170   -2.7630   -1.7290 O   0  0  0  0  0  0  0  0  0  0  0  0
    0.1550   -1.1880   -1.0480 N   0  0  0  0  0  0  0  0  0  0  0  0
   -1.0830   -0.7390   -0.8550 C   0  0  0  0  0  0  0  0  0  0  0  0
   -0.8700   -0.0430    0.1950 N   0  0  0  0  0  0  0  0  0  0  0  0
   -1.8240    0.6690    0.8950 C   0  0  2  0  0  0  0  0  0  0  0  0
   -1.6910    0.1050    2.3060 C   0  0  0  0  0  0  0  0  0  0  0  0
   -2.1570   -1.1460    2.6280 C   0  0  0  0  0  0  0  0  0  0  0  0
   -1.9600   -1.6390    3.9350 C   0  0  0  0  0  0  0  0  0  0  0  0
   -1.3440   -0.9000    4.8080 O   0  0  0  0  0  0  0  0  0  0  0  0
   -0.8710    0.3080    4.5670 C   0  0  0  0  0  0  0  0  0  0  0  0
   -0.2850    0.9710    5.4530 O   0  0  0  0  0  0  0  0  0  0  0  0
   -1.0540    0.8220    3.2720 C   0  0  0  0  0  0  0  0  0  0  0  0
   -3.1870    0.3210    0.3760 C   0  0  0  0  0  0  0  0  0  0  0  0
   -3.4390   -0.3630   -0.7030 C   0  0  0  0  0  0  0  0  0  0  0  0
   -4.7930   -0.6470   -1.1440 C   0  0  0  0  0  0  0  0  0  0  0  0
   -5.7820    0.4470   -0.7990 C   0  0  1  0  0  0  0  0  0  0  0  0
   -5.5450    1.5530   -1.8190 C   0  0  0  0  0  0  0  0  0  0  0  0
   -7.2170   -0.0380   -0.9730 C   0  0  0  0  0  0  0  0  0  0  0  0
   -5.6180    0.9620    0.5830 C   0  0  0  0  0  0  0  0  0  0  0  0
   -4.3120    0.6650    1.2030 C   0  0  0  0  0  0  0  0  0  0  0  0
   -4.1320    0.6980    2.4600 O   0  0  0  0  0  0  0  0  0  0  0  0
   -2.3360   -0.9620   -1.4110 N   0  0  0  0  0  0  0  0  0  0  0  0
  2  1  1  1
  2  3  1  0
  2  4  1  0
  4  5  1  1
  4 14  1  0
  5  6  1  0
  6  7  1  0
  7  8  1  0
  7 11  2  0
  8  9  2  0
  9 10  1  0
 10 11  1  0
 11 12  1  0
 12 13  1  0
 14 15  2  0
 14 16  1  0
 16 17  1  0
 17 18  2  0
 17 36  1  0
 18 19  1  0
 19 20  1  1
 19 27  1  0
 20 21  1  0
 20 26  2  0
 21 22  2  0
 22 23  1  0
 23 24  1  0
 24 25  2  0
 24 26  1  0
 27 28  2  0
 27 34  1  0
 28 29  1  0
 28 36  1  0
 29 30  1  0
 30 31  1  6
 30 32  1  0
 30 33  1  0
 33 34  1  0
 34 35  2  0
M  CHG  1   5   1
M  END
