
     RDKit          3D

 36 40  0  0  0  0  0  0  0  0999 V2000
    5.8800   -0.1250   -3.1950 O   0  0  0  0  0  0  0  0  0  0  0  0
    5.0980   -0.9220   -2.6240 C   0  0  0  0  0  0  0  0  0  0  0  0
    5.5020   -2.2350   -2.5440 O   0  0  0  0  0  0  0  0  0  0  0  0
    3.8440   -0.4370   -2.1000 C   0  0  1  0  0  0  0  0  0  0  0  0
    3.7520   -0.4850   -0.5850 C   0  0  0  0  0  0  0  0  0  0  0  0
    4.7260    0.3160    0.1370 C   0  0  0  0  0  0  0  0  0  0  0  0
    4.4980    1.6210    0.5800 C   0  0  0  0  0  0  0  0  0  0  0  0
    5.6290    2.0410    1.1490 N   0  0  0  0  0  0  0  0  0  0  0  0
    6.5630    1.0940    1.1010 C   0  0  0  0  0  0  0  0  0  0  0  0
    7.8540    1.0810    1.5660 C   0  0  0  0  0  0  0  0  0  0  0  0
    8.6590   -0.0490    1.4150 C   0  0  0  0  0  0  0  0  0  0  0  0
    8.1380   -1.1580    0.7900 C   0  0  0  0  0  0  0  0  0  0  0  0
    6.8350   -1.1120    0.3330 C   0  0  0  0  0  0  0  0  0  0  0  0
    6.0110   -0.0060    0.4650 C   0  0  0  0  0  0  0  0  0  0  0  0
    3.5450    0.9320   -2.4440 N   0  0  0  0  0  0  0  0  0  0  0  0
    2.1260    1.2480   -3.2650 S   0  0  1  0  0  0  0  0  0  0  0  0
    2.0300    2.7570   -3.4540 O   0  0  0  0  0  0  0  0  0  0  0  0
    2.0220    0.6530   -4.6330 O   0  0  0  0  0  0  0  0  0  0  0  0
    0.6710    0.7990   -2.3870 C   0  0  0  0  0  0  0  0  0  0  0  0
    0.0870   -0.4370   -2.5260 C   0  0  0  0  0  0  0  0  0  0  0  0
   -1.0720   -0.7920   -1.8290 C   0  0  0  0  0  0  0  0  0  0  0  0
   -1.6660    0.1010   -0.9740 C   0  0  0  0  0  0  0  0  0  0  0  0
   -2.8430   -0.2070   -0.2570 N   0  0  0  0  0  0  0  0  0  0  0  0
   -3.5790   -1.4140   -0.5530 C   0  0  0  0  0  0  0  0  0  0  0  0
   -5.0540   -1.0660   -0.3020 C   0  0  0  0  0  0  0  0  0  0  0  0
   -5.2210   -0.9820    1.2040 C   0  0  2  0  0  0  0  0  0  0  0  0
   -6.5560   -0.5130    1.5860 C   0  0  0  0  0  0  0  0  0  0  0  0
   -7.4510   -1.3670    2.2260 C   0  0  0  0  0  0  0  0  0  0  0  0
   -8.7130   -0.9670    2.6030 C   0  0  0  0  0  0  0  0  0  0  0  0
   -9.1010    0.3260    2.3360 C   0  0  0  0  0  0  0  0  0  0  0  0
   -8.2520    1.1880    1.7120 C   0  0  0  0  0  0  0  0  0  0  0  0
   -6.9930    0.7750    1.3400 C   0  0  0  0  0  0  0  0  0  0  0  0
   -4.1170   -0.1730    1.8000 C   0  0  0  0  0  0  0  0  0  0  0  0
   -3.3490    0.6500    0.7870 C   0  0  0  0  0  0  0  0  0  0  0  0
   -1.0890    1.3480   -0.8240 C   0  0  0  0  0  0  0  0  0  0  0  0
    0.0490    1.6770   -1.5170 C   0  0  0  0  0  0  0  0  0  0  0  0
  1  2  2  0
  2  3  1  0
  2  4  1  0
  4  5  1  1
  4 15  1  0
  5  6  1  0
  6  7  2  0
  6 14  1  0
  7  8  1  0
  8  9  1  0
  9 10  2  0
  9 14  1  0
 10 11  1  0
 11 12  2  0
 12 13  1  0
 13 14  2  0
 16 15  1  1
 16 17  2  0
 16 18  2  0
 16 19  1  0
 19 20  2  0
 19 36  1  0
 20 21  1  0
 21 22  2  0
 22 23  1  0
 22 35  1  0
 23 24  1  0
 23 34  1  0
 24 25  1  0
 25 26  1  0
 26 27  1  6
 26 33  1  0
 27 28  2  0
 27 32  1  0
 28 29  1  0
 29 30  2  0
 30 31  1  0
 31 32  2  0
 33 34  1  0
 35 36  2  0
M  END
