
     RDKit          3D

 36 39  0  0  0  0  0  0  0  0999 V2000
   -1.1140    4.3210    1.7120 C   0  0  0  0  0  0  0  0  0  0  0  0
   -0.1380    3.9340    0.6240 C   0  0  2  0  0  0  0  0  0  0  0  0
    1.1030    4.8170    0.9100 C   0  0  0  0  0  0  0  0  0  0  0  0
   -0.6010    4.3680   -0.7440 C   0  0  0  0  0  0  0  0  0  0  0  0
    0.3700    2.5460    0.7150 C   0  0  0  0  0  0  0  0  0  0  0  0
   -0.6130    1.4310    0.6610 C   0  0  1  0  0  0  0  0  0  0  0  0
   -1.4870    1.6350    1.7690 O   0  0  0  0  0  0  0  0  0  0  0  0
   -1.3850    1.2590   -0.5890 C   0  0  0  0  0  0  0  0  0  0  0  0
   -2.3620    0.1690   -0.4420 C   0  0  0  0  0  0  0  0  0  0  0  0
   -3.5840    0.2250   -1.1230 C   0  0  0  0  0  0  0  0  0  0  0  0
   -4.5070   -0.7960   -1.0320 C   0  0  0  0  0  0  0  0  0  0  0  0
   -5.6970   -0.7340   -1.6990 N   0  0  0  0  0  0  0  0  0  0  0  0
   -6.5550   -1.7660   -1.5670 C   0  0  0  0  0  0  0  0  0  0  0  0
   -7.6550   -1.6760   -2.2030 O   0  0  0  0  0  0  0  0  0  0  0  0
   -6.2650   -2.8660   -0.7860 C   0  0  0  0  0  0  0  0  0  0  0  0
   -5.0680   -2.9400   -0.1070 C   0  0  0  0  0  0  0  0  0  0  0  0
   -4.6910   -4.0780    0.7410 C   0  0  0  0  0  0  0  0  0  0  0  0
   -5.7690   -5.0580    0.7270 N   0  0  0  0  0  0  0  0  0  0  0  0
   -4.2000   -1.8870   -0.2460 C   0  0  0  0  0  0  0  0  0  0  0  0
   -2.9920   -1.9350    0.4230 C   0  0  0  0  0  0  0  0  0  0  0  0
   -2.0720   -0.9180    0.3330 C   0  0  0  0  0  0  0  0  0  0  0  0
   -0.7960   -0.9620    1.0800 C   0  0  0  0  0  0  0  0  0  0  0  0
   -0.5490   -1.9530    1.7700 O   0  0  0  0  0  0  0  0  0  0  0  0
    0.0630    0.1840    0.9290 N   0  0  0  0  0  0  0  0  0  0  0  0
    1.4740   -0.0140    1.0600 C   0  0  0  0  0  0  0  0  0  0  0  0
    2.1580   -0.3760   -0.2390 C   0  0  0  0  0  0  0  0  0  0  0  0
    3.6330   -0.5680   -0.0420 C   0  0  0  0  0  0  0  0  0  0  0  0
    4.4670   -0.9990   -1.5700 S   0  0  0  0  0  0  0  0  0  0  0  0
    3.8420   -2.2370   -2.1940 O   0  0  0  0  0  0  0  0  0  0  0  0
    6.2020   -1.2180   -1.3010 C   0  0  0  0  0  0  0  0  0  0  0  0
    6.6810   -2.4770   -0.9670 C   0  0  0  0  0  0  0  0  0  0  0  0
    8.0290   -2.6980   -0.7470 C   0  0  0  0  0  0  0  0  0  0  0  0
    8.8550   -1.6560   -0.8680 N   0  0  0  0  0  0  0  0  0  0  0  0
    8.4630   -0.4110   -1.1870 C   0  0  0  0  0  0  0  0  0  0  0  0
    9.3610    0.6500   -1.3020 O   0  0  0  0  0  0  0  0  0  0  0  0
    7.1200   -0.2020   -1.4040 C   0  0  0  0  0  0  0  0  0  0  0  0
  2  1  1  1
  2  3  1  0
  2  4  1  0
  2  5  1  0
  5  6  1  0
  6  7  1  1
  6  8  1  0
  6 24  1  0
  8  9  1  0
  9 10  2  0
  9 21  1  0
 10 11  1  0
 11 12  1  0
 11 19  2  0
 12 13  1  0
 13 14  2  0
 13 15  1  0
 15 16  2  0
 16 17  1  0
 16 19  1  0
 17 18  1  0
 19 20  1  0
 20 21  2  0
 21 22  1  0
 22 23  2  0
 22 24  1  0
 24 25  1  0
 25 26  1  0
 26 27  1  0
 28 27  1  1
 28 29  2  0
 28 30  1  0
 30 31  2  0
 30 36  1  0
 31 32  1  0
 32 33  2  0
 33 34  1  0
 34 35  1  0
 34 36  2  0
M  CHG  1  18   1
M  END
