
     RDKit          3D

 36 39  0  0  0  0  0  0  0  0999 V2000
   -0.7250   -5.6960   -0.4790 C   0  0  0  0  0  0  0  0  0  0  0  0
   -0.6320   -4.5070    0.4110 C   0  0  0  0  0  0  0  0  0  0  0  0
    0.5300   -3.8380    0.6770 N   0  0  0  0  0  0  0  0  0  0  0  0
    0.2750   -2.8230    1.5070 C   0  0  0  0  0  0  0  0  0  0  0  0
    1.2280   -1.9230    2.1010 C   0  0  0  0  0  0  0  0  0  0  0  0
    1.4070   -0.6390    1.9750 C   0  0  0  0  0  0  0  0  0  0  0  0
    2.7600    0.0320    2.9730 S   0  0  0  0  0  0  0  0  0  0  0  0
    3.1330    1.7020    2.4540 C   0  0  0  0  0  0  0  0  0  0  0  0
    3.6800    1.6650    1.0760 C   0  0  0  0  0  0  0  0  0  0  0  0
    3.8470    0.6090    0.4310 O   0  0  0  0  0  0  0  0  0  0  0  0
    4.0340    2.8860    0.4530 N   0  0  0  0  0  0  0  0  0  0  0  0
    4.5630    2.8840   -0.8680 C   0  0  2  0  0  0  0  0  0  0  0  0
    5.9990    3.4280   -0.7750 C   0  0  0  0  0  0  0  0  0  0  0  0
    6.2180    3.8720   -2.2090 C   0  0  0  0  0  0  0  0  0  0  0  0
    4.9430    4.3710   -2.5640 O   0  0  0  0  0  0  0  0  0  0  0  0
    3.9340    3.7880   -1.8200 C   0  0  0  0  0  0  0  0  0  0  0  0
    2.7160    4.0170   -1.9640 O   0  0  0  0  0  0  0  0  0  0  0  0
    0.7460    0.2310    1.0480 C   0  0  0  0  0  0  0  0  0  0  0  0
    0.9860    1.4920    1.1280 O   0  0  0  0  0  0  0  0  0  0  0  0
   -0.1550   -0.1190    0.0240 N   0  0  0  0  0  0  0  0  0  0  0  0
   -0.8290    0.7050   -0.8770 C   0  0  0  0  0  0  0  0  0  0  0  0
   -0.9580    2.0460   -0.7260 C   0  0  0  0  0  0  0  0  0  0  0  0
   -1.6240    2.8080   -1.6750 C   0  0  0  0  0  0  0  0  0  0  0  0
   -2.1770    2.2480   -2.7980 C   0  0  0  0  0  0  0  0  0  0  0  0
   -2.8960    3.0570   -3.8390 C   0  0  0  0  0  0  0  0  0  0  0  0
   -2.8470    4.4640   -3.5050 N   0  0  0  0  0  0  0  0  0  0  0  0
   -2.0480    0.8850   -2.9540 C   0  0  0  0  0  0  0  0  0  0  0  0
   -1.3920    0.1420   -2.0180 C   0  0  0  0  0  0  0  0  0  0  0  0
   -1.0850   -2.8470    1.7780 C   0  0  0  0  0  0  0  0  0  0  0  0
   -1.6540   -3.9100    1.0860 C   0  0  0  0  0  0  0  0  0  0  0  0
   -3.0850   -4.2280    1.1440 C   0  0  0  0  0  0  0  0  0  0  0  0
   -3.9130   -3.2260    1.8720 C   0  0  1  0  0  0  0  0  0  0  0  0
   -5.1610   -3.9330    2.4190 C   0  0  0  0  0  0  0  0  0  0  0  0
   -3.2450   -2.5700    3.0340 C   0  0  0  0  0  0  0  0  0  0  0  0
   -1.9340   -2.0240    2.6020 C   0  0  0  0  0  0  0  0  0  0  0  0
   -1.6020   -0.8800    2.9570 O   0  0  0  0  0  0  0  0  0  0  0  0
  1  2  1  0
  2  3  1  0
  2 30  2  0
  3  4  1  0
  4  5  1  0
  4 29  2  0
  5  6  2  3
  6  7  1  0
  6 18  1  0
  7  8  1  0
  8  9  1  0
  9 10  2  0
  9 11  1  0
 12 11  1  1
 12 13  1  0
 12 16  1  0
 13 14  1  0
 14 15  1  0
 15 16  1  0
 16 17  2  0
 18 19  2  0
 18 20  1  0
 20 21  1  0
 21 22  2  0
 21 28  1  0
 22 23  1  0
 23 24  2  0
 24 25  1  0
 24 27  1  0
 25 26  1  0
 27 28  2  0
 29 30  1  0
 29 35  1  0
 30 31  1  0
 31 32  1  0
 32 33  1  1
 32 34  1  0
 34 35  1  0
 35 36  2  0
M  CHG  1  26   1
M  END
