
     RDKit          3D

 36 40  0  0  0  0  0  0  0  0999 V2000
   -6.3910   -0.2800    3.0760 C   0  0  0  0  0  0  0  0  0  0  0  0
   -5.1010    0.2740    2.5870 C   0  0  0  0  0  0  0  0  0  0  0  0
   -4.4760    1.3380    3.2390 C   0  0  0  0  0  0  0  0  0  0  0  0
   -3.2800    1.8600    2.7950 C   0  0  0  0  0  0  0  0  0  0  0  0
   -2.6930    1.3110    1.6760 C   0  0  0  0  0  0  0  0  0  0  0  0
   -3.3020    0.2380    0.9990 C   0  0  0  0  0  0  0  0  0  0  0  0
   -4.4970   -0.2560    1.4730 C   0  0  0  0  0  0  0  0  0  0  0  0
   -5.1940   -1.3890    0.7850 C   0  0  2  0  0  0  0  0  0  0  0  0
   -4.8670   -2.6120    1.2810 F   0  0  0  0  0  0  0  0  0  0  0  0
   -4.8960   -1.3060   -0.6850 C   0  0  0  0  0  0  0  0  0  0  0  0
   -5.8590   -1.7370   -1.5540 C   0  0  0  0  0  0  0  0  0  0  0  0
   -5.6410   -1.6750   -2.9070 C   0  0  0  0  0  0  0  0  0  0  0  0
   -4.4640   -1.1840   -3.3900 C   0  0  0  0  0  0  0  0  0  0  0  0
   -3.4870   -0.7470   -2.4950 C   0  0  0  0  0  0  0  0  0  0  0  0
   -3.7000   -0.8070   -1.1380 C   0  0  0  0  0  0  0  0  0  0  0  0
   -2.6920   -0.3680   -0.1860 C   0  0  1  0  0  0  0  0  0  0  0  0
   -1.6650    0.4650   -0.7760 N   0  0  0  0  0  0  0  0  0  0  0  0
   -0.2960    0.0750   -0.8270 C   0  0  0  0  0  0  0  0  0  0  0  0
   -0.0200   -1.0430   -0.3270 O   0  0  0  0  0  0  0  0  0  0  0  0
    0.7680    0.8850   -1.4130 C   0  0  0  0  0  0  0  0  0  0  0  0
    2.3410    0.0300   -1.2720 S   0  0  0  0  0  0  0  0  0  0  0  0
    3.6860    0.9730   -1.9730 C   0  0  0  0  0  0  0  0  0  0  0  0
    3.6420    2.1900   -2.5620 N   0  0  0  0  0  0  0  0  0  0  0  0
    4.8540    2.5430   -2.9500 N   0  0  0  0  0  0  0  0  0  0  0  0
    5.6720    1.5390   -2.6020 C   0  0  0  0  0  0  0  0  0  0  0  0
    6.9270    1.4970   -2.8030 O   0  0  0  0  0  0  0  0  0  0  0  0
    4.9590    0.5620   -1.9960 N   0  0  0  0  0  0  0  0  0  0  0  0
    5.5370   -0.6620   -1.4970 C   0  0  0  0  0  0  0  0  0  0  0  0
    5.9840   -0.5810   -0.1020 C   0  0  0  0  0  0  0  0  0  0  0  0
    5.2320   -0.8700    1.0150 C   0  0  0  0  0  0  0  0  0  0  0  0
    6.0420   -0.6600    2.1060 C   0  0  0  0  0  0  0  0  0  0  0  0
    7.2750   -0.2460    1.6010 C   0  0  0  0  0  0  0  0  0  0  0  0
    8.4800    0.1030    2.3960 C   0  0  2  0  0  0  0  0  0  0  0  0
    8.8150   -0.9620    3.2060 F   0  0  0  0  0  0  0  0  0  0  0  0
    8.1600    1.1580    3.2430 F   0  0  0  0  0  0  0  0  0  0  0  0
    7.1880   -0.2170    0.3110 O   0  0  0  0  0  0  0  0  0  0  0  0
  1  2  1  0
  2  3  2  0
  2  7  1  0
  3  4  1  0
  4  5  2  0
  5  6  1  0
  6  7  2  0
  6 16  1  0
  7  8  1  0
  8  9  1  1
  8 10  1  0
 10 11  2  0
 10 15  1  0
 11 12  1  0
 12 13  2  0
 13 14  1  0
 14 15  2  0
 15 16  1  0
 16 17  1  6
 17 18  1  0
 18 19  2  0
 18 20  1  0
 20 21  1  0
 21 22  1  0
 22 23  2  0
 22 27  1  0
 23 24  1  0
 24 25  1  0
 25 26  2  0
 25 27  1  0
 27 28  1  0
 28 29  1  0
 29 30  2  0
 29 36  1  0
 30 31  1  0
 31 32  2  0
 32 33  1  0
 32 36  1  0
 33 34  1  1
 33 35  1  0
M  END
