
     RDKit          3D

 23 23  0  0  0  0  0  0  0  0999 V2000
   -5.4000   -0.6120   -2.2400 C   0  0  0  0  0  0  0  0  0  0  0  0
   -4.5710   -0.5660   -1.1260 O   0  0  0  0  0  0  0  0  0  0  0  0
   -3.5080    0.2840   -1.2590 C   0  0  0  0  0  0  0  0  0  0  0  0
   -2.6910    0.2570   -0.0160 C   0  0  1  0  0  0  0  0  0  0  0  0
   -1.6050    1.1230   -0.1610 O   0  0  0  0  0  0  0  0  0  0  0  0
   -0.3920    0.4250   -0.0810 C   0  0  1  0  0  0  0  0  0  0  0  0
   -0.3620   -0.1790    1.1790 O   0  0  0  0  0  0  0  0  0  0  0  0
   -0.2460   -0.4690   -1.1170 O   0  0  0  0  0  0  0  0  0  0  0  0
    0.7240    1.3510   -0.1200 N   0  0  0  0  0  0  0  0  0  0  0  0
    1.9430    0.5570   -0.0330 C   0  0  2  0  0  0  0  0  0  0  0  0
    1.9620   -0.1640    1.1440 O   0  0  0  0  0  0  0  0  0  0  0  0
    3.0490    1.4120   -0.1880 O   0  0  0  0  0  0  0  0  0  0  0  0
    4.3270    0.8830   -0.1410 C   0  0  0  0  0  0  0  0  0  0  0  0
    4.8170    0.0860   -1.0910 C   0  0  0  0  0  0  0  0  0  0  0  0
    6.1920   -0.2940   -0.7310 C   0  0  2  0  0  0  0  0  0  0  0  0
    6.3250   -1.6780   -0.5790 O   0  0  0  0  0  0  0  0  0  0  0  0
    6.4340    0.3960    0.5650 C   0  0  0  0  0  0  0  0  0  0  0  0
    7.5800    0.3760    1.3470 O   0  0  0  0  0  0  0  0  0  0  0  0
    5.3410    1.0610    0.8700 C   0  0  0  0  0  0  0  0  0  0  0  0
   -3.4320    0.6660    1.2210 C   0  0  1  0  0  0  0  0  0  0  0  0
   -3.8930    1.9800    1.1200 O   0  0  0  0  0  0  0  0  0  0  0  0
   -4.5560   -0.2130    1.6300 C   0  0  0  0  0  0  0  0  0  0  0  0
   -5.0010    0.2670    2.8860 O   0  0  0  0  0  0  0  0  0  0  0  0
  1  2  1  0
  2  3  1  0
  4  3  1  6
  4  5  1  0
  4 20  1  0
  5  6  1  0
  6  7  1  1
  6  8  1  0
  6  9  1  0
  9 10  1  0
 10 11  1  1
 10 12  1  0
 12 13  1  0
 13 14  2  0
 13 19  1  0
 14 15  1  0
 15 16  1  1
 15 17  1  0
 17 18  1  0
 17 19  2  0
 20 21  1  6
 20 22  1  0
 22 23  1  0
M  END
