
     RDKit          3D

 22 22  0  0  0  0  0  0  0  0999 V2000
   -6.4590    1.0840    1.4190 O   0  0  0  0  0  0  0  0  0  0  0  0
   -6.6310    0.7180    0.0950 C   0  0  0  0  0  0  0  0  0  0  0  0
   -5.3050    0.2670   -0.4750 C   0  0  0  0  0  0  0  0  0  0  0  0
   -4.8040   -0.8240    0.2300 O   0  0  0  0  0  0  0  0  0  0  0  0
   -3.5810   -1.2520   -0.2840 C   0  0  2  0  0  0  0  0  0  0  0  0
   -3.7680   -2.7010   -0.6840 C   0  0  0  0  0  0  0  0  0  0  0  0
   -4.1270   -3.4930    0.3870 O   0  0  0  0  0  0  0  0  0  0  0  0
   -2.6350   -1.0840    0.7090 O   0  0  0  0  0  0  0  0  0  0  0  0
   -1.6270   -0.1940    0.3580 C   0  0  0  0  0  0  0  0  0  0  0  0
   -0.6760   -0.0990    1.5040 C   0  0  0  0  0  0  0  0  0  0  0  0
    0.3910    0.7630    1.2920 O   0  0  0  0  0  0  0  0  0  0  0  0
    1.1770    0.4220    0.2290 C   0  0  1  0  0  0  0  0  0  0  0  0
    1.4320    1.5650   -0.7250 C   0  0  0  0  0  0  0  0  0  0  0  0
    2.8010    1.8050   -0.5880 O   0  0  0  0  0  0  0  0  0  0  0  0
    3.3640    0.5550   -0.3200 C   0  0  1  0  0  0  0  0  0  0  0  0
    3.3370   -0.2520   -1.4330 O   0  0  0  0  0  0  0  0  0  0  0  0
    4.7760    0.7980    0.1510 C   0  0  2  0  0  0  0  0  0  0  0  0
    5.5990    1.5130   -0.8990 C   0  0  0  0  0  0  0  0  0  0  0  0
    5.0740    2.7460   -1.2330 O   0  0  0  0  0  0  0  0  0  0  0  0
    5.4360   -0.5410    0.4200 C   0  0  0  0  0  0  0  0  0  0  0  0
    6.7460   -0.3880    0.8600 O   0  0  0  0  0  0  0  0  0  0  0  0
    2.5100    0.0880    0.7540 N   0  0  0  0  0  0  0  0  0  0  0  0
  1  2  1  0
  2  3  1  0
  3  4  1  0
  4  5  1  0
  5  6  1  1
  5  8  1  0
  6  7  1  0
  8  9  1  0
  9 10  1  0
 10 11  1  0
 12 11  1  1
 12 13  1  0
 12 22  1  0
 13 14  1  0
 14 15  1  0
 15 16  1  6
 15 17  1  0
 15 22  1  0
 17 18  1  6
 17 20  1  0
 18 19  1  0
 20 21  1  0
M  END
