
     RDKit          3D

 26 26  0  0  0  0  0  0  0  0999 V2000
    8.3290    2.3070    0.4340 N   0  0  0  0  0  0  0  0  0  0  0  0
    7.5840    1.9800   -1.0880 S   0  0  1  0  0  0  0  0  0  0  0  0
    7.0490    3.2340   -1.7150 O   0  0  0  0  0  0  0  0  0  0  0  0
    8.5420    1.3560   -2.0520 O   0  0  0  0  0  0  0  0  0  0  0  0
    6.2550    0.8840   -0.7990 C   0  0  0  0  0  0  0  0  0  0  0  0
    6.4680   -0.4740   -0.8460 C   0  0  0  0  0  0  0  0  0  0  0  0
    5.4270   -1.3430   -0.6200 C   0  0  0  0  0  0  0  0  0  0  0  0
    4.1210   -0.9090   -0.3370 C   0  0  0  0  0  0  0  0  0  0  0  0
    3.0640   -1.8700   -0.1080 C   0  0  0  0  0  0  0  0  0  0  0  0
    3.3230   -3.0970   -0.1680 O   0  0  0  0  0  0  0  0  0  0  0  0
    1.7480   -1.4780    0.1820 N   0  0  0  0  0  0  0  0  0  0  0  0
    0.6830   -2.4690    0.4130 C   0  0  0  0  0  0  0  0  0  0  0  0
   -0.5870   -1.6700    0.6940 C   0  0  0  0  0  0  0  0  0  0  0  0
   -0.3460   -0.9120    1.7950 O   0  0  0  0  0  0  0  0  0  0  0  0
   -1.2980   -0.1120    2.3190 C   0  0  0  0  0  0  0  0  0  0  0  0
   -2.5090   -0.8330    2.7980 C   0  0  0  0  0  0  0  0  0  0  0  0
   -3.3030   -1.5470    2.0350 O   0  0  0  0  0  0  0  0  0  0  0  0
   -4.1500   -1.1300    1.0960 C   0  0  0  0  0  0  0  0  0  0  0  0
   -3.5980   -0.4780   -0.1040 C   0  0  0  0  0  0  0  0  0  0  0  0
   -4.6330   -0.0580   -1.0470 N   0  0  0  0  0  0  0  0  0  0  0  0
   -5.5870    0.8870   -0.6110 C   0  0  0  0  0  0  0  0  0  0  0  0
   -5.6150    1.4020    0.5310 O   0  0  0  0  0  0  0  0  0  0  0  0
   -6.6350    1.2830   -1.6190 C   0  0  0  0  0  0  0  0  0  0  0  0
   -7.5170    2.2460   -1.0080 N   0  0  0  0  0  0  0  0  0  0  0  0
    3.9680    0.4560   -0.3030 C   0  0  0  0  0  0  0  0  0  0  0  0
    4.9980    1.3490   -0.5270 C   0  0  0  0  0  0  0  0  0  0  0  0
  2  1  1  1
  2  3  2  0
  2  4  2  0
  2  5  1  0
  5  6  2  0
  5 26  1  0
  6  7  1  0
  7  8  2  0
  8  9  1  0
  8 25  1  0
  9 10  2  0
  9 11  1  0
 11 12  1  0
 12 13  1  0
 13 14  1  0
 14 15  1  0
 15 16  1  0
 16 17  1  0
 17 18  1  0
 18 19  1  0
 19 20  1  0
 20 21  1  0
 21 22  2  0
 21 23  1  0
 23 24  1  0
 25 26  2  0
M  CHG  1  24   1
M  END
