
     RDKit          3D

 22 22  0  0  0  0  0  0  0  0999 V2000
    7.0840    1.7110    1.4150 O   0  0  0  0  0  0  0  0  0  0  0  0
    7.1720    1.5610    0.0380 C   0  0  0  0  0  0  0  0  0  0  0  0
    6.6670    0.3240   -0.3020 O   0  0  0  0  0  0  0  0  0  0  0  0
    5.3530    0.1340    0.0520 C   0  0  0  0  0  0  0  0  0  0  0  0
    4.4230    1.1360   -0.5990 C   0  0  0  0  0  0  0  0  0  0  0  0
    3.1080    0.9460   -0.2440 O   0  0  0  0  0  0  0  0  0  0  0  0
    2.5810   -0.2780   -0.5720 C   0  0  0  0  0  0  0  0  0  0  0  0
    1.1180   -0.2690   -0.0900 C   0  0  1  0  0  0  0  0  0  0  0  0
    0.4730    0.7570   -0.7420 O   0  0  0  0  0  0  0  0  0  0  0  0
    0.5610   -1.6200   -0.3380 C   0  0  0  0  0  0  0  0  0  0  0  0
   -0.7260   -1.7510    0.0500 O   0  0  0  0  0  0  0  0  0  0  0  0
   -1.6690   -1.0130   -0.5990 C   0  0  1  0  0  0  0  0  0  0  0  0
   -2.6920   -1.9350   -1.0740 N   0  0  0  0  0  0  0  0  0  0  0  0
   -3.4960   -2.1210    0.1060 C   0  0  1  0  0  0  0  0  0  0  0  0
   -2.9130   -3.2040    0.8090 O   0  0  0  0  0  0  0  0  0  0  0  0
   -3.3520   -0.8700    0.8590 C   0  0  2  0  0  0  0  0  0  0  0  0
   -4.5640   -0.0360    1.0460 C   0  0  0  0  0  0  0  0  0  0  0  0
   -5.2350    0.4570   -0.1840 C   0  0  1  0  0  0  0  0  0  0  0  0
   -6.3520    1.2190    0.2430 O   0  0  0  0  0  0  0  0  0  0  0  0
   -4.3880    1.4290   -0.9820 C   0  0  0  0  0  0  0  0  0  0  0  0
   -3.9750    2.5170   -0.2210 O   0  0  0  0  0  0  0  0  0  0  0  0
   -2.3370   -0.1140    0.2350 O   0  0  0  0  0  0  0  0  0  0  0  0
  1  2  1  0
  2  3  1  0
  3  4  1  0
  4  5  1  0
  5  6  1  0
  6  7  1  0
  7  8  1  0
  8  9  1  6
  8 10  1  0
 10 11  1  0
 12 11  1  1
 12 13  1  0
 12 22  1  0
 13 14  1  0
 14 15  1  1
 14 16  1  0
 16 17  1  6
 16 22  1  0
 17 18  1  0
 18 19  1  1
 18 20  1  0
 20 21  1  0
M  END
