
     RDKit          3D

 22 22  0  0  0  0  0  0  0  0999 V2000
   -4.2310   -2.6900    0.7480 C   0  0  0  0  0  0  0  0  0  0  0  0
   -3.0630   -2.2710    1.3170 O   0  0  0  0  0  0  0  0  0  0  0  0
   -2.0180   -1.9480    0.5100 C   0  0  0  0  0  0  0  0  0  0  0  0
   -2.3370   -0.7930   -0.4540 C   0  0  2  0  0  0  0  0  0  0  0  0
   -3.3800   -1.1540   -1.3260 O   0  0  0  0  0  0  0  0  0  0  0  0
   -1.1400   -0.4790   -1.2990 C   0  0  0  0  0  0  0  0  0  0  0  0
    0.0780   -0.0540   -0.6450 C   0  0  1  0  0  0  0  0  0  0  0  0
    1.1930    0.0830   -1.5810 O   0  0  0  0  0  0  0  0  0  0  0  0
    2.1840    0.6540   -0.7890 C   0  0  2  0  0  0  0  0  0  0  0  0
    2.6080    1.8890   -1.3400 O   0  0  0  0  0  0  0  0  0  0  0  0
    3.3230   -0.1280   -0.5330 N   0  0  0  0  0  0  0  0  0  0  0  0
    3.1750   -1.3640    0.1390 C   0  0  2  0  0  0  0  0  0  0  0  0
    2.7570   -1.1530    1.4630 O   0  0  0  0  0  0  0  0  0  0  0  0
    4.5850   -1.9640    0.2730 C   0  0  2  0  0  0  0  0  0  0  0  0
    5.4100   -1.1190    0.9970 O   0  0  0  0  0  0  0  0  0  0  0  0
    5.1290   -2.0430   -1.0250 O   0  0  0  0  0  0  0  0  0  0  0  0
    1.6210    1.0340    0.4590 O   0  0  0  0  0  0  0  0  0  0  0  0
    0.2960    1.2380    0.0050 C   0  0  2  0  0  0  0  0  0  0  0  0
   -0.6060    2.0330    0.7840 C   0  0  0  0  0  0  0  0  0  0  0  0
   -1.7470    2.5930   -0.0170 C   0  0  0  0  0  0  0  0  0  0  0  0
   -2.6910    3.3800    0.8780 C   0  0  0  0  0  0  0  0  0  0  0  0
   -2.0050    4.4340    1.4780 O   0  0  0  0  0  0  0  0  0  0  0  0
  1  2  1  0
  2  3  1  0
  3  4  1  0
  4  5  1  6
  4  6  1  0
  7  6  1  6
  7  8  1  0
  7 18  1  0
  8  9  1  0
  9 10  1  6
  9 11  1  0
  9 17  1  0
 11 12  1  0
 12 13  1  1
 12 14  1  0
 14 15  1  1
 14 16  1  0
 17 18  1  0
 18 19  1  1
 19 20  1  0
 20 21  1  0
 21 22  1  0
M  END
