
     RDKit          3D

 23 24  0  0  0  0  0  0  0  0999 V2000
    3.7170    1.3240    1.4560 C   0  0  0  0  0  0  0  0  0  0  0  0
    4.2850    0.7360    0.3720 C   0  0  0  0  0  0  0  0  0  0  0  0
    5.7150    0.3690    0.5340 C   0  0  0  0  0  0  0  0  0  0  0  0
    3.4790    0.5380   -0.7780 C   0  0  0  0  0  0  0  0  0  0  0  0
    3.8060    0.0040   -1.9070 C   0  0  0  0  0  0  0  0  0  0  0  0
    5.1130   -0.5300   -2.2660 C   0  0  0  0  0  0  0  0  0  0  0  0
    2.1310    0.9810   -0.6870 O   0  0  0  0  0  0  0  0  0  0  0  0
    1.2040    0.0770   -0.2250 C   0  0  0  0  0  0  0  0  0  0  0  0
    1.5710   -1.0690    0.0900 O   0  0  0  0  0  0  0  0  0  0  0  0
   -0.1910    0.4550   -0.1040 C   0  0  0  0  0  0  0  0  0  0  0  0
   -0.5780    1.7130   -0.4520 C   0  0  0  0  0  0  0  0  0  0  0  0
   -1.9500    2.0810   -0.3320 C   0  0  0  0  0  0  0  0  0  0  0  0
   -2.2220    3.2930   -0.6860 C   0  0  0  0  0  0  0  0  0  0  0  0
   -3.4490    4.0640   -0.7250 C   0  0  0  0  0  0  0  0  0  0  0  0
   -2.8430    1.1540    0.1320 C   0  0  0  0  0  0  0  0  0  0  0  0
   -4.1090    1.3830    0.2800 C   0  0  0  0  0  0  0  0  0  0  0  0
   -2.3910   -0.1520    0.4850 C   0  0  0  0  0  0  0  0  0  0  0  0
   -1.0800   -0.4950    0.3670 C   0  0  0  0  0  0  0  0  0  0  0  0
   -0.8910   -1.8990    0.7980 C   0  0  0  0  0  0  0  0  0  0  0  0
   -2.2940   -2.4690    0.8050 C   0  0  2  0  0  0  0  0  0  0  0  0
   -2.3910   -3.4720    1.9220 C   0  0  0  0  0  0  0  0  0  0  0  0
   -2.6110   -3.0740   -0.5410 C   0  0  0  0  0  0  0  0  0  0  0  0
   -3.2020   -1.2840    1.0030 C   0  0  0  0  0  0  0  0  0  0  0  0
  1  2  2  0
  2  3  1  0
  2  4  1  0
  4  5  2  3
  4  7  1  0
  5  6  1  0
  7  8  1  0
  8  9  2  0
  8 10  1  0
 10 11  2  0
 10 18  1  0
 11 12  1  0
 12 13  2  3
 12 15  1  0
 13 14  1  0
 15 16  2  0
 15 17  1  0
 17 18  2  0
 17 23  1  0
 18 19  1  0
 19 20  1  0
 20 21  1  1
 20 22  1  0
 20 23  1  0
M  END
