
     RDKit          3D

 22 22  0  0  0  0  0  0  0  0999 V2000
    8.0450    1.8430   -1.1440 N   0  0  0  0  0  0  0  0  0  0  0  0
    7.4420    1.3040    0.3870 S   0  0  1  0  0  0  0  0  0  0  0  0
    8.5110    0.4160    1.0040 O   0  0  0  0  0  0  0  0  0  0  0  0
    7.3170    2.5090    1.2760 O   0  0  0  0  0  0  0  0  0  0  0  0
    5.9380    0.4430    0.2220 C   0  0  0  0  0  0  0  0  0  0  0  0
    4.7260    1.0930    0.2750 C   0  0  0  0  0  0  0  0  0  0  0  0
    3.5220    0.4080    0.1430 C   0  0  0  0  0  0  0  0  0  0  0  0
    3.4730   -0.9510   -0.0470 C   0  0  0  0  0  0  0  0  0  0  0  0
    2.2410   -1.7110   -0.1900 C   0  0  0  0  0  0  0  0  0  0  0  0
    2.2440   -2.9560   -0.3620 O   0  0  0  0  0  0  0  0  0  0  0  0
    0.9910   -1.0640   -0.1390 N   0  0  0  0  0  0  0  0  0  0  0  0
   -0.2460   -1.8360   -0.2840 C   0  0  0  0  0  0  0  0  0  0  0  0
   -1.4170   -0.8520   -0.1850 C   0  0  0  0  0  0  0  0  0  0  0  0
   -2.6080   -1.5340   -0.3160 O   0  0  0  0  0  0  0  0  0  0  0  0
   -3.7100   -0.6740   -0.2820 C   0  0  0  0  0  0  0  0  0  0  0  0
   -3.8390    0.1000    1.0000 C   0  0  0  0  0  0  0  0  0  0  0  0
   -4.8350    0.9410    1.1410 O   0  0  0  0  0  0  0  0  0  0  0  0
   -6.1300    0.8660    1.2020 C   0  0  0  0  0  0  0  0  0  0  0  0
   -6.8620    0.3200    0.0250 C   0  0  0  0  0  0  0  0  0  0  0  0
   -6.5770    1.1110   -1.1440 N   0  0  0  0  0  0  0  0  0  0  0  0
    4.7100   -1.6130   -0.1010 C   0  0  0  0  0  0  0  0  0  0  0  0
    5.8880   -0.9210    0.0310 C   0  0  0  0  0  0  0  0  0  0  0  0
  2  1  1  6
  2  3  2  0
  2  4  2  0
  2  5  1  0
  5  6  2  0
  5 22  1  0
  6  7  1  0
  7  8  2  0
  8  9  1  0
  8 21  1  0
  9 10  2  0
  9 11  1  0
 11 12  1  0
 12 13  1  0
 13 14  1  0
 14 15  1  0
 15 16  1  0
 16 17  1  0
 17 18  1  0
 18 19  1  0
 19 20  1  0
 21 22  2  0
M  CHG  1  20   1
M  END
