
     RDKit          3D

 15 16  0  0  0  0  0  0  0  0999 V2000
   -1.5330   -0.6520   -1.5230 C   0  0  0  0  0  0  0  0  0  0  0  0
   -1.8870   -0.1590   -0.1290 C   0  0  1  0  0  0  0  0  0  0  0  0
   -2.0860    1.3600   -0.2960 C   0  0  0  0  0  0  0  0  0  0  0  0
   -3.1990   -0.6930    0.3360 C   0  0  0  0  0  0  0  0  0  0  0  0
   -2.6170   -1.9510    1.5450 S   0  0  0  0  0  0  0  0  0  0  0  0
   -1.0040   -1.2210    1.7910 C   0  0  0  0  0  0  0  0  0  0  0  0
   -0.8390   -0.3450    0.8390 C   0  0  0  0  0  0  0  0  0  0  0  0
    0.3880    0.4320    0.7590 N   0  0  0  0  0  0  0  0  0  0  0  0
    1.5730   -0.1200    0.2550 C   0  0  0  0  0  0  0  0  0  0  0  0
    1.8190   -1.3650   -0.2180 N   0  0  0  0  0  0  0  0  0  0  0  0
    3.0740   -1.4750   -0.5960 N   0  0  0  0  0  0  0  0  0  0  0  0
    3.7180   -0.3050   -0.3900 C   0  0  0  0  0  0  0  0  0  0  0  0
    5.4040    0.0150   -0.7450 Cl  0  0  0  0  0  0  0  0  0  0  0  0
    2.7750    0.5370    0.1420 C   0  0  0  0  0  0  0  0  0  0  0  0
    3.0330    1.8860    0.5120 N   0  0  0  0  0  0  0  0  0  0  0  0
  2  1  1  6
  2  3  1  0
  2  4  1  0
  2  7  1  0
  4  5  1  0
  5  6  1  0
  6  7  2  0
  7  8  1  0
  8  9  1  0
  9 10  2  0
  9 14  1  0
 10 11  1  0
 11 12  1  0
 12 13  1  0
 12 14  2  0
 14 15  1  0
M  END
