
     RDKit          3D

 16 17  0  0  0  0  0  0  0  0999 V2000
   -1.5160   -1.8780    1.2710 N   0  0  0  0  0  0  0  0  0  0  0  0
   -2.1500   -0.7990    0.5990 C   0  0  0  0  0  0  0  0  0  0  0  0
   -3.3280   -0.2160    1.0760 C   0  0  0  0  0  0  0  0  0  0  0  0
   -3.9110    0.8390    0.3810 C   0  0  0  0  0  0  0  0  0  0  0  0
   -3.3270    1.3110   -0.7770 C   0  0  0  0  0  0  0  0  0  0  0  0
   -2.1640    0.7250   -1.2340 C   0  0  0  0  0  0  0  0  0  0  0  0
   -1.5840   -0.3180   -0.5520 C   0  0  0  0  0  0  0  0  0  0  0  0
   -0.0880   -1.0330   -1.1860 S   0  0  0  0  0  0  0  0  0  0  0  0
    1.2880   -0.1370   -0.4600 C   0  0  0  0  0  0  0  0  0  0  0  0
    1.2600    0.8880    0.4040 N   0  0  0  0  0  0  0  0  0  0  0  0
    2.5020    1.2470    0.6800 N   0  0  0  0  0  0  0  0  0  0  0  0
    3.3460    0.4580   -0.0020 C   0  0  0  0  0  0  0  0  0  0  0  0
    4.8270    0.4460   -0.0430 C   0  0  2  0  0  0  0  0  0  0  0  0
    5.3630    0.6200   -1.7050 Cl  0  0  0  0  0  0  0  0  0  0  0  0
    5.3430   -1.1220    0.6640 Cl  0  0  0  0  0  0  0  0  0  0  0  0
    2.5750   -0.3920   -0.7020 N   0  0  0  0  0  0  0  0  0  0  0  0
  1  2  1  0
  2  3  2  0
  2  7  1  0
  3  4  1  0
  4  5  2  0
  5  6  1  0
  6  7  2  0
  7  8  1  0
  8  9  1  0
  9 10  2  0
  9 16  1  0
 10 11  1  0
 11 12  2  0
 12 13  1  0
 12 16  1  0
 13 14  1  6
 13 15  1  0
M  END
