
     RDKit          3D

 23 24  0  0  0  0  0  0  0  0999 V2000
   -2.3020   -1.7710   -1.8020 C   0  0  0  0  0  0  0  0  0  0  0  0
   -2.1980   -1.8290   -0.4980 C   0  0  0  0  0  0  0  0  0  0  0  0
   -3.1160   -2.6900    0.2810 C   0  0  0  0  0  0  0  0  0  0  0  0
   -2.3070   -3.2960    1.4360 C   0  0  0  0  0  0  0  0  0  0  0  0
   -0.8470   -3.3470    0.9700 C   0  0  0  0  0  0  0  0  0  0  0  0
   -0.3890   -1.9010    0.9710 C   0  0  0  0  0  0  0  0  0  0  0  0
   -1.1250   -1.0750    0.1700 C   0  0  0  0  0  0  0  0  0  0  0  0
   -0.7330    0.2560   -0.0680 C   0  0  0  0  0  0  0  0  0  0  0  0
    0.5080    0.6660    0.3970 O   0  0  0  0  0  0  0  0  0  0  0  0
    1.7810    0.5100   -0.0690 C   0  0  2  0  0  0  0  0  0  0  0  0
    2.8220    1.1690    0.8000 C   0  0  0  0  0  0  0  0  0  0  0  0
    2.9050    0.7060    2.2100 C   0  0  1  0  0  0  0  0  0  0  0  0
    1.6360    0.8960    3.0070 C   0  0  0  0  0  0  0  0  0  0  0  0
    3.5210   -0.6530    2.3750 C   0  0  0  0  0  0  0  0  0  0  0  0
    1.9380    1.2200   -1.4320 C   0  0  0  0  0  0  0  0  0  0  0  0
    3.2040    0.5400   -1.9290 C   0  0  0  0  0  0  0  0  0  0  0  0
    3.2660   -0.6850   -1.3390 O   0  0  0  0  0  0  0  0  0  0  0  0
    2.1340   -0.8490   -0.5210 C   0  0  0  0  0  0  0  0  0  0  0  0
   -1.4580    1.1510   -0.7120 C   0  0  0  0  0  0  0  0  0  0  0  0
   -0.8330    2.5240   -0.8710 C   0  0  0  0  0  0  0  0  0  0  0  0
   -2.8470    1.0650   -1.0800 C   0  0  0  0  0  0  0  0  0  0  0  0
   -3.5930    1.8810   -1.7470 C   0  0  0  0  0  0  0  0  0  0  0  0
   -3.3130    3.1790   -2.3710 C   0  0  0  0  0  0  0  0  0  0  0  0
  1  2  2  0
  2  3  1  0
  2  7  1  0
  3  4  1  0
  4  5  1  0
  5  6  1  0
  6  7  2  0
  7  8  1  0
  8  9  1  0
  8 19  2  3
  9 10  1  0
 10 11  1  1
 10 15  1  0
 10 18  1  0
 11 12  1  0
 12 13  1  6
 12 14  1  0
 15 16  1  0
 16 17  1  0
 17 18  1  0
 19 20  1  0
 19 21  1  0
 21 22  2  3
 22 23  1  0
M  END
