
     RDKit          3D

 32 33  0  0  0  0  0  0  0  0999 V2000
    8.3230   -2.1020    0.1000 O   0  0  0  0  0  0  0  0  0  0  0  0
    7.4500   -1.5440   -0.8340 C   0  0  0  0  0  0  0  0  0  0  0  0
    6.5570   -0.5550   -0.1030 C   0  0  1  0  0  0  0  0  0  0  0  0
    5.8260   -1.2180    0.9030 O   0  0  0  0  0  0  0  0  0  0  0  0
    7.2520    0.4440    0.5010 O   0  0  0  0  0  0  0  0  0  0  0  0
    6.9470    1.7310    0.2450 C   0  0  0  0  0  0  0  0  0  0  0  0
    5.5660    2.2020    0.6850 C   0  0  0  0  0  0  0  0  0  0  0  0
    4.5120    1.7050    0.2650 O   0  0  0  0  0  0  0  0  0  0  0  0
    3.4630    1.1790   -0.1440 C   0  0  0  0  0  0  0  0  0  0  0  0
    2.5390    0.5240    0.9260 C   0  0  1  0  0  0  0  0  0  0  0  0
    2.1580    1.5010    1.8370 O   0  0  0  0  0  0  0  0  0  0  0  0
    1.3280   -0.0600    0.2060 C   0  0  2  0  0  0  0  0  0  0  0  0
    0.7140    0.9780   -0.4480 O   0  0  0  0  0  0  0  0  0  0  0  0
   -0.5640    1.1440    0.1380 C   0  0  1  0  0  0  0  0  0  0  0  0
   -1.4620    1.7010   -0.8990 C   0  0  0  0  0  0  0  0  0  0  0  0
   -2.4990    2.4850   -0.4960 O   0  0  0  0  0  0  0  0  0  0  0  0
   -3.5320    1.9340    0.1770 C   0  0  0  0  0  0  0  0  0  0  0  0
   -4.8340    1.8190   -0.5240 C   0  0  1  0  0  0  0  0  0  0  0  0
   -5.3040    3.1370   -0.7440 O   0  0  0  0  0  0  0  0  0  0  0  0
   -4.8860    1.1110   -1.8050 C   0  0  1  0  0  0  0  0  0  0  0  0
   -4.0580    1.7990   -2.7240 O   0  0  0  0  0  0  0  0  0  0  0  0
   -4.5930   -0.3240   -1.8590 C   0  0  0  0  0  0  0  0  0  0  0  0
   -4.7730   -1.1320   -0.6300 C   0  0  0  0  0  0  0  0  0  0  0  0
   -3.4730   -1.9150   -0.3530 C   0  0  2  0  0  0  0  0  0  0  0  0
   -3.4780   -2.2010    1.1100 C   0  0  2  0  0  0  0  0  0  0  0  0
   -2.3540   -2.8870    1.5640 O   0  0  0  0  0  0  0  0  0  0  0  0
   -4.6540   -3.1500    1.3810 C   0  0  0  0  0  0  0  0  0  0  0  0
   -4.6530   -3.3630    2.7770 O   0  0  0  0  0  0  0  0  0  0  0  0
   -2.4820   -1.1720   -0.8570 O   0  0  0  0  0  0  0  0  0  0  0  0
   -1.2210   -1.2200   -0.4210 C   0  0  0  0  0  0  0  0  0  0  0  0
   -0.8460   -0.2170    0.6410 C   0  0  1  0  0  0  0  0  0  0  0  0
    0.4200   -0.6020    1.0980 O   0  0  0  0  0  0  0  0  0  0  0  0
  1  2  1  0
  2  3  1  0
  3  4  1  1
  3  5  1  0
  5  6  1  0
  6  7  1  0
  7  8  1  0
  8  9  1  0
  9 10  1  0
 10 11  1  1
 10 12  1  0
 12 13  1  1
 12 32  1  0
 13 14  1  0
 14 15  1  6
 14 31  1  0
 15 16  1  0
 16 17  1  0
 17 18  1  0
 18 19  1  6
 18 20  1  0
 20 21  1  6
 20 22  1  0
 22 23  1  0
 24 23  1  1
 24 25  1  0
 24 29  1  0
 25 26  1  6
 25 27  1  0
 27 28  1  0
 29 30  1  0
 31 30  1  6
 31 32  1  0
M  END
