
     RDKit          3D

 32 32  0  0  0  0  0  0  0  0999 V2000
   -2.7570    4.1070    0.3640 C   0  0  0  0  0  0  0  0  0  0  0  0
   -3.3410    2.8670    0.5220 O   0  0  0  0  0  0  0  0  0  0  0  0
   -3.5110    2.1890   -0.6790 C   0  0  0  0  0  0  0  0  0  0  0  0
   -2.1580    1.9680   -1.3450 C   0  0  0  0  0  0  0  0  0  0  0  0
   -1.2380    1.1510   -0.4630 C   0  0  1  0  0  0  0  0  0  0  0  0
   -1.9450   -0.0720   -0.2850 O   0  0  0  0  0  0  0  0  0  0  0  0
   -2.1940   -0.3590    1.0290 C   0  0  2  0  0  0  0  0  0  0  0  0
   -1.1210   -0.0810    1.8700 O   0  0  0  0  0  0  0  0  0  0  0  0
   -2.5160   -1.8320    1.1470 C   0  0  1  0  0  0  0  0  0  0  0  0
   -1.8160   -2.3960    2.2330 O   0  0  0  0  0  0  0  0  0  0  0  0
   -4.0000   -2.0210    1.4100 C   0  0  0  0  0  0  0  0  0  0  0  0
   -4.7740   -1.4970    0.3910 O   0  0  0  0  0  0  0  0  0  0  0  0
   -2.1270   -2.5350   -0.1370 C   0  0  0  0  0  0  0  0  0  0  0  0
   -1.6380   -3.9290    0.0970 C   0  0  0  0  0  0  0  0  0  0  0  0
   -0.4160   -3.9850    0.7440 O   0  0  0  0  0  0  0  0  0  0  0  0
    0.6070   -3.4020    0.0010 C   0  0  0  0  0  0  0  0  0  0  0  0
    0.6860   -2.0520    0.3030 O   0  0  0  0  0  0  0  0  0  0  0  0
    1.5370   -1.3760   -0.5620 C   0  0  0  0  0  0  0  0  0  0  0  0
    2.0780   -0.1050    0.0600 C   0  0  1  0  0  0  0  0  0  0  0  0
    3.4380   -0.4320    0.6210 C   0  0  0  0  0  0  0  0  0  0  0  0
    3.2770   -1.4360    1.5740 O   0  0  0  0  0  0  0  0  0  0  0  0
    4.5380   -1.7310    2.0850 C   0  0  2  0  0  0  0  0  0  0  0  0
    4.8640   -3.0760    1.9010 O   0  0  0  0  0  0  0  0  0  0  0  0
    4.5780   -1.4690    3.4690 O   0  0  0  0  0  0  0  0  0  0  0  0
    2.2320    0.9430   -1.0430 C   0  0  1  0  0  0  0  0  0  0  0  0
    3.3760    1.8580   -0.7910 C   0  0  0  0  0  0  0  0  0  0  0  0
    2.5590    0.1920   -2.1990 O   0  0  0  0  0  0  0  0  0  0  0  0
    0.9180    1.6590   -1.2940 C   0  0  1  0  0  0  0  0  0  0  0  0
    0.9110    2.9240   -0.5370 C   0  0  0  0  0  0  0  0  0  0  0  0
    0.8830    1.9180   -2.8100 C   0  0  0  0  0  0  0  0  0  0  0  0
    1.8380    2.8070   -3.2290 O   0  0  0  0  0  0  0  0  0  0  0  0
   -0.0780    0.7760   -1.0460 O   0  0  0  0  0  0  0  0  0  0  0  0
  1  2  1  0
  2  3  1  0
  3  4  1  0
  5  4  1  6
  5  6  1  0
  5 32  1  0
  6  7  1  0
  7  8  1  1
  7  9  1  0
  9 10  1  1
  9 11  1  0
  9 13  1  0
 11 12  1  0
 13 14  1  0
 14 15  1  0
 15 16  1  0
 16 17  1  0
 17 18  1  0
 18 19  1  0
 19 20  1  6
 19 25  1  0
 20 21  1  0
 21 22  1  0
 22 23  1  1
 22 24  1  0
 25 26  1  1
 25 27  1  0
 25 28  1  0
 28 29  1  1
 28 30  1  0
 28 32  1  0
 30 31  1  0
M  END
