
     RDKit          3D

 33 34  0  0  0  0  0  0  0  0999 V2000
  -10.6980   -1.7910    2.3980 N   0  0  0  0  0  0  0  0  0  0  0  0
  -10.8220   -0.7320    1.0490 S   0  0  2  0  0  0  0  0  0  0  0  0
  -11.4240    0.5760    1.4650 O   0  0  0  0  0  0  0  0  0  0  0  0
  -11.6940   -1.3770    0.0190 O   0  0  0  0  0  0  0  0  0  0  0  0
   -9.2250   -0.5140    0.3670 C   0  0  0  0  0  0  0  0  0  0  0  0
   -8.8140   -1.3820   -0.6150 C   0  0  0  0  0  0  0  0  0  0  0  0
   -7.5790   -1.2400   -1.1640 C   0  0  0  0  0  0  0  0  0  0  0  0
   -6.7290   -0.2250   -0.7420 C   0  0  0  0  0  0  0  0  0  0  0  0
   -5.4270   -0.1300   -1.3730 C   0  0  0  0  0  0  0  0  0  0  0  0
   -5.1540   -0.8830   -2.3340 O   0  0  0  0  0  0  0  0  0  0  0  0
   -4.4510    0.7920   -0.9340 N   0  0  0  0  0  0  0  0  0  0  0  0
   -3.1260    0.9070   -1.5510 C   0  0  0  0  0  0  0  0  0  0  0  0
   -2.4000   -0.3940   -1.4090 C   0  0  0  0  0  0  0  0  0  0  0  0
   -1.1570   -0.3170   -1.9810 O   0  0  0  0  0  0  0  0  0  0  0  0
   -0.3040    0.6340   -1.4870 C   0  0  0  0  0  0  0  0  0  0  0  0
   -0.0560    0.4240   -0.0270 C   0  0  0  0  0  0  0  0  0  0  0  0
    0.8140    1.3690    0.5130 O   0  0  0  0  0  0  0  0  0  0  0  0
    2.0710    1.3720   -0.0810 C   0  0  0  0  0  0  0  0  0  0  0  0
    2.7810    0.0660    0.0390 C   0  0  0  0  0  0  0  0  0  0  0  0
    4.0700    0.1700   -0.6090 N   0  0  0  0  0  0  0  0  0  0  0  0
    5.0960    1.0720   -0.2320 C   0  0  0  0  0  0  0  0  0  0  0  0
    4.9140    1.8520    0.7280 O   0  0  0  0  0  0  0  0  0  0  0  0
    6.3930    1.1230   -0.9470 C   0  0  1  0  0  0  0  0  0  0  0  0
    7.2510    2.1280   -0.3580 N   0  0  0  0  0  0  0  0  0  0  0  0
    7.1090   -0.2030   -0.9330 C   0  0  0  0  0  0  0  0  0  0  0  0
    7.4170   -0.6870    0.4230 C   0  0  0  0  0  0  0  0  0  0  0  0
    8.6160   -0.3360    1.0060 C   0  0  0  0  0  0  0  0  0  0  0  0
    8.9500   -0.7710    2.2860 C   0  0  0  0  0  0  0  0  0  0  0  0
    8.0850   -1.5670    3.0090 C   0  0  0  0  0  0  0  0  0  0  0  0
    6.8950   -1.9100    2.4190 C   0  0  0  0  0  0  0  0  0  0  0  0
    6.5540   -1.4780    1.1370 C   0  0  0  0  0  0  0  0  0  0  0  0
   -7.1260    0.6640    0.2490 C   0  0  0  0  0  0  0  0  0  0  0  0
   -8.3980    0.4850    0.7870 C   0  0  0  0  0  0  0  0  0  0  0  0
  2  1  1  1
  2  3  2  0
  2  4  2  0
  2  5  1  0
  5  6  2  0
  5 33  1  0
  6  7  1  0
  7  8  2  0
  8  9  1  0
  8 32  1  0
  9 10  2  0
  9 11  1  0
 11 12  1  0
 12 13  1  0
 13 14  1  0
 14 15  1  0
 15 16  1  0
 16 17  1  0
 17 18  1  0
 18 19  1  0
 19 20  1  0
 20 21  1  0
 21 22  2  0
 21 23  1  0
 23 24  1  1
 23 25  1  0
 25 26  1  0
 26 27  2  0
 26 31  1  0
 27 28  1  0
 28 29  2  0
 29 30  1  0
 30 31  2  0
 32 33  2  0
M  CHG  1  24   1
M  END
