
     RDKit          3D

 32 33  0  0  0  0  0  0  0  0999 V2000
    0.7610    0.3550    1.6740 C   0  0  0  0  0  0  0  0  0  0  0  0
    0.6110    0.3790    0.1780 C   0  0  1  0  0  0  0  0  0  0  0  0
    1.6710    0.7270   -0.5420 O   0  0  0  0  0  0  0  0  0  0  0  0
    2.8360    0.1170   -0.5870 C   0  0  1  0  0  0  0  0  0  0  0  0
    3.1950    0.0340   -1.9630 O   0  0  0  0  0  0  0  0  0  0  0  0
    3.9090    1.0350    0.0120 C   0  0  0  0  0  0  0  0  0  0  0  0
    5.1620    0.4000   -0.0280 O   0  0  0  0  0  0  0  0  0  0  0  0
    6.1560    1.1850    0.4980 C   0  0  0  0  0  0  0  0  0  0  0  0
    7.3670    0.5430    0.4470 O   0  0  0  0  0  0  0  0  0  0  0  0
    7.3470   -0.6560    1.1720 C   0  0  0  0  0  0  0  0  0  0  0  0
    6.3670   -1.4670    0.6050 O   0  0  0  0  0  0  0  0  0  0  0  0
    3.0170   -1.2310   -0.0170 C   0  0  0  0  0  0  0  0  0  0  0  0
    1.8470   -2.1600   -0.2370 C   0  0  0  0  0  0  0  0  0  0  0  0
    0.9530   -1.5890   -1.1400 O   0  0  0  0  0  0  0  0  0  0  0  0
    0.0040   -0.9090   -0.3500 C   0  0  2  0  0  0  0  0  0  0  0  0
   -1.0880   -0.6800   -1.1440 O   0  0  0  0  0  0  0  0  0  0  0  0
   -1.4510   -1.7210   -1.9470 C   0  0  0  0  0  0  0  0  0  0  0  0
   -2.2010   -2.8120   -1.2580 C   0  0  0  0  0  0  0  0  0  0  0  0
   -3.5490   -2.6450   -1.1800 O   0  0  0  0  0  0  0  0  0  0  0  0
   -3.9950   -1.4120   -0.7920 C   0  0  1  0  0  0  0  0  0  0  0  0
   -5.3130   -1.3070   -1.3010 O   0  0  0  0  0  0  0  0  0  0  0  0
   -4.0520   -1.3100    0.7030 C   0  0  2  0  0  0  0  0  0  0  0  0
   -5.1090   -2.1580    1.1160 O   0  0  0  0  0  0  0  0  0  0  0  0
   -4.1910    0.0760    1.2330 C   0  0  0  0  0  0  0  0  0  0  0  0
   -4.1700    1.1660    0.2440 C   0  0  1  0  0  0  0  0  0  0  0  0
   -4.9870    2.2180    0.7310 O   0  0  0  0  0  0  0  0  0  0  0  0
   -2.8530    1.7510   -0.0960 C   0  0  1  0  0  0  0  0  0  0  0  0
   -2.8450    3.2800    0.0720 C   0  0  0  0  0  0  0  0  0  0  0  0
   -3.8140    3.8500   -0.7780 O   0  0  0  0  0  0  0  0  0  0  0  0
   -1.6940    1.2360    0.6950 C   0  0  0  0  0  0  0  0  0  0  0  0
   -0.4420    1.4740   -0.1030 C   0  0  1  0  0  0  0  0  0  0  0  0
    0.1820    2.6730    0.1870 O   0  0  0  0  0  0  0  0  0  0  0  0
  2  1  1  1
  2  3  1  0
  2 15  1  0
  2 31  1  0
  3  4  1  0
  4  5  1  6
  4  6  1  0
  4 12  1  0
  6  7  1  0
  7  8  1  0
  8  9  1  0
  9 10  1  0
 10 11  1  0
 12 13  1  0
 13 14  1  0
 15 14  1  6
 15 16  1  0
 16 17  1  0
 17 18  1  0
 18 19  1  0
 19 20  1  0
 20 21  1  6
 20 22  1  0
 22 23  1  6
 22 24  1  0
 24 25  1  0
 25 26  1  1
 25 27  1  0
 27 28  1  1
 27 30  1  0
 28 29  1  0
 30 31  1  0
 31 32  1  1
M  END
