
     RDKit          3D

 32 33  0  0  0  0  0  0  0  0999 V2000
   -4.3500   -1.6300    3.3600 C   0  0  0  0  0  0  0  0  0  0  0  0
   -3.7250   -2.0850    2.2110 O   0  0  0  0  0  0  0  0  0  0  0  0
   -3.8760   -1.2010    1.1650 C   0  0  2  0  0  0  0  0  0  0  0  0
   -4.6340   -1.8140   -0.0100 C   0  0  0  0  0  0  0  0  0  0  0  0
   -4.2250   -0.8380   -1.1140 C   0  0  1  0  0  0  0  0  0  0  0  0
   -4.2890   -1.5970   -2.4140 C   0  0  0  0  0  0  0  0  0  0  0  0
   -5.5980   -2.0440   -2.5900 O   0  0  0  0  0  0  0  0  0  0  0  0
   -5.1070    0.3610   -1.0830 C   0  0  0  0  0  0  0  0  0  0  0  0
   -4.6580    1.3460   -2.1350 C   0  0  2  0  0  0  0  0  0  0  0  0
   -5.2090    1.0190   -3.3920 O   0  0  0  0  0  0  0  0  0  0  0  0
   -3.1780    1.4800   -2.2360 C   0  0  0  0  0  0  0  0  0  0  0  0
   -2.4160    0.9100   -1.0840 C   0  0  2  0  0  0  0  0  0  0  0  0
   -1.0660    0.9070   -1.4260 O   0  0  0  0  0  0  0  0  0  0  0  0
   -0.3100    1.6930   -0.5600 C   0  0  0  0  0  0  0  0  0  0  0  0
    1.1530    1.6640   -0.9670 C   0  0  1  0  0  0  0  0  0  0  0  0
    1.2670    2.1600   -2.2640 O   0  0  0  0  0  0  0  0  0  0  0  0
    1.9920    2.5110   -0.0270 C   0  0  1  0  0  0  0  0  0  0  0  0
    1.5820    3.8370   -0.0230 O   0  0  0  0  0  0  0  0  0  0  0  0
    1.9990    1.9530    1.3640 C   0  0  0  0  0  0  0  0  0  0  0  0
    2.4040    0.6090    1.4180 O   0  0  0  0  0  0  0  0  0  0  0  0
    3.6300    0.1430    1.0000 C   0  0  0  0  0  0  0  0  0  0  0  0
    4.4750    0.9380    0.5320 O   0  0  0  0  0  0  0  0  0  0  0  0
    3.9670   -1.3040    1.0970 C   0  0  0  0  0  0  0  0  0  0  0  0
    5.2650   -1.5710    0.6190 O   0  0  0  0  0  0  0  0  0  0  0  0
    6.3590   -0.9770    1.2080 C   0  0  0  0  0  0  0  0  0  0  0  0
    6.1850   -0.1970    2.1760 O   0  0  0  0  0  0  0  0  0  0  0  0
    7.7390   -1.2620    0.6970 C   0  0  2  0  0  0  0  0  0  0  0  0
    7.6530   -2.1530   -0.3770 O   0  0  0  0  0  0  0  0  0  0  0  0
    8.5520   -1.8910    1.8360 C   0  0  0  0  0  0  0  0  0  0  0  0
    8.5840   -0.9370    2.8550 O   0  0  0  0  0  0  0  0  0  0  0  0
   -2.8430   -0.4770   -0.6890 C   0  0  1  0  0  0  0  0  0  0  0  0
   -2.6900   -0.7230    0.6520 O   0  0  0  0  0  0  0  0  0  0  0  0
  1  2  1  0
  3  2  1  1
  3  4  1  0
  3 32  1  0
  4  5  1  0
  5  6  1  6
  5  8  1  0
  5 31  1  0
  6  7  1  0
  8  9  1  0
  9 10  1  6
  9 11  1  0
 11 12  1  0
 12 13  1  6
 12 31  1  0
 13 14  1  0
 14 15  1  0
 15 16  1  6
 15 17  1  0
 17 18  1  1
 17 19  1  0
 19 20  1  0
 20 21  1  0
 21 22  2  0
 21 23  1  0
 23 24  1  0
 24 25  1  0
 25 26  2  0
 25 27  1  0
 27 28  1  6
 27 29  1  0
 29 30  1  0
 31 32  1  1
M  END
