
     RDKit          3D

 10  9  0  0  0  0  0  0  0  0999 V2000
    3.6520    0.4390    0.0070 N   0  0  0  0  0  0  0  0  0  0  0  0
    2.7920   -0.6750    0.1370 C   0  0  0  0  0  0  0  0  0  0  0  0
    3.3100   -1.8310    0.1600 O   0  0  0  0  0  0  0  0  0  0  0  0
    1.3510   -0.5630    0.2450 C   0  0  0  0  0  0  0  0  0  0  0  0
    0.5680   -1.7280    0.3710 N   0  0  0  0  0  0  0  0  0  0  0  0
    0.7850    0.6240    0.2240 C   0  0  0  0  0  0  0  0  0  0  0  0
   -0.5800    0.8210    0.3210 O   0  0  0  0  0  0  0  0  0  0  0  0
   -1.5460    0.1720   -0.4470 C   0  0  0  0  0  0  0  0  0  0  0  0
   -2.9100    0.7020    0.0040 C   0  0  0  0  0  0  0  0  0  0  0  0
   -3.9270    0.0790   -0.7410 O   0  0  0  0  0  0  0  0  0  0  0  0
  1  2  1  0
  2  3  2  0
  2  4  1  0
  4  5  1  0
  4  6  2  3
  6  7  1  0
  7  8  1  0
  8  9  1  0
  9 10  1  0
M  END
