
     RDKit          3D

 10  9  0  0  0  0  0  0  0  0999 V2000
   -3.9920   -0.0440   -0.0240 N   0  0  0  0  0  0  0  0  0  0  0  0
   -2.7180   -0.6110   -0.1830 N   0  0  0  0  0  0  0  0  0  0  0  0
   -1.6110    0.1820    0.2210 C   0  0  0  0  0  0  0  0  0  0  0  0
   -1.7720    1.3520    0.7030 O   0  0  0  0  0  0  0  0  0  0  0  0
   -0.2560   -0.3110    0.0980 C   0  0  0  0  0  0  0  0  0  0  0  0
   -0.0640   -1.5830   -0.4250 O   0  0  0  0  0  0  0  0  0  0  0  0
    0.7970    0.4080    0.4670 C   0  0  0  0  0  0  0  0  0  0  0  0
    2.1500   -0.0820    0.3460 C   0  0  0  0  0  0  0  0  0  0  0  0
    3.1910    0.6130    0.7040 C   0  0  0  0  0  0  0  0  0  0  0  0
    4.4980    0.1880    0.6070 O   0  0  0  0  0  0  0  0  0  0  0  0
  1  2  1  0
  2  3  1  0
  3  4  2  0
  3  5  1  0
  5  6  1  0
  5  7  2  3
  7  8  1  0
  8  9  2  3
  9 10  1  0
M  END
