
     RDKit          3D

  9  8  0  0  0  0  0  0  0  0999 V2000
    2.2350    0.0800   -1.1280 N   0  0  0  0  0  0  0  0  0  0  0  0
    2.0940    0.3870    0.1310 C   0  0  0  0  0  0  0  0  0  0  0  0
    3.1610    0.9610    0.8700 N   0  0  0  0  0  0  0  0  0  0  0  0
    0.8010    0.1130    0.7340 C   0  0  0  0  0  0  0  0  0  0  0  0
   -0.1960   -0.4170    0.0660 C   0  0  0  0  0  0  0  0  0  0  0  0
   -0.0040   -0.7260   -1.2650 O   0  0  0  0  0  0  0  0  0  0  0  0
   -1.4950   -0.6830    0.7040 C   0  0  0  0  0  0  0  0  0  0  0  0
   -2.6300    0.0700    0.0340 C   0  0  0  0  0  0  0  0  0  0  0  0
   -2.7140   -0.3140   -1.2840 O   0  0  0  0  0  0  0  0  0  0  0  0
  1  2  2  0
  2  3  1  0
  2  4  1  0
  4  5  2  3
  5  6  1  0
  5  7  1  0
  7  8  1  0
  8  9  1  0
M  END
