
     RDKit          3D

 14 13  0  0  0  0  0  0  0  0999 V2000
   -4.9040   -0.8850    0.1260 C   0  0  0  0  0  0  0  0  0  0  0  0
   -3.7440   -1.6510   -0.4250 C   0  0  0  0  0  0  0  0  0  0  0  0
   -2.4030   -1.1030    0.0670 C   0  0  0  0  0  0  0  0  0  0  0  0
   -2.2280    0.3040   -0.3330 C   0  0  0  0  0  0  0  0  0  0  0  0
   -1.0770    1.0850    0.0600 C   0  0  0  0  0  0  0  0  0  0  0  0
    0.3160    0.7600   -0.2750 C   0  0  2  0  0  0  0  0  0  0  0  0
    0.9040   -0.5170    0.2250 C   0  0  0  0  0  0  0  0  0  0  0  0
    2.3640   -0.6640   -0.2520 C   0  0  0  0  0  0  0  0  0  0  0  0
    2.9490   -1.9540    0.2610 C   0  0  0  0  0  0  0  0  0  0  0  0
    4.3630   -2.1610   -0.1650 C   0  0  0  0  0  0  0  0  0  0  0  0
    1.1220    1.8720    0.3640 C   0  0  0  0  0  0  0  0  0  0  0  0
    1.8050    1.5850    1.3560 O   0  0  0  0  0  0  0  0  0  0  0  0
    1.1230    3.1690   -0.1050 O   0  0  0  0  0  0  0  0  0  0  0  0
    1.8720    4.2110    0.4910 C   0  0  0  0  0  0  0  0  0  0  0  0
  1  2  1  0
  2  3  1  0
  3  4  1  0
  4  5  1  0
  6  5  1  1
  6  7  1  0
  6 11  1  0
  7  8  1  0
  8  9  1  0
  9 10  1  0
 11 12  2  0
 11 13  1  0
 13 14  1  0
M  END
