
     RDKit          3D

  9  8  0  0  0  0  0  0  0  0999 V2000
    2.9820    0.0300    0.8700 N   0  0  0  0  0  0  0  0  0  0  0  0
    1.9870    0.7890    0.1210 C   0  0  0  0  0  0  0  0  0  0  0  0
    1.3370   -0.0840   -0.9470 C   0  0  0  0  0  0  0  0  0  0  0  0
    0.7020   -1.1720   -0.4430 O   0  0  0  0  0  0  0  0  0  0  0  0
   -0.3210   -0.9750    0.4360 C   0  0  0  0  0  0  0  0  0  0  0  0
   -1.4650   -0.1850   -0.1220 C   0  0  0  0  0  0  0  0  0  0  0  0
   -1.2700    1.1500   -0.5970 N   0  0  0  0  0  0  0  0  0  0  0  0
   -2.6740   -0.6970   -0.1890 C   0  0  0  0  0  0  0  0  0  0  0  0
   -3.7040    0.0610   -0.7090 O   0  0  0  0  0  0  0  0  0  0  0  0
  1  2  1  0
  2  3  1  0
  3  4  1  0
  4  5  1  0
  5  6  1  0
  6  7  1  0
  6  8  2  3
  8  9  1  0
M  END
