
     RDKit          3D

 14 14  0  0  0  0  0  0  0  0999 V2000
    5.4780    0.7770    1.2360 C   0  0  0  0  0  0  0  0  0  0  0  0
    4.2030    0.9060    0.4190 C   0  0  0  0  0  0  0  0  0  0  0  0
    3.6140   -0.4930    0.3020 C   0  0  0  0  0  0  0  0  0  0  0  0
    2.3230   -0.3960   -0.5200 C   0  0  0  0  0  0  0  0  0  0  0  0
    1.4970    0.4440    0.1660 O   0  0  0  0  0  0  0  0  0  0  0  0
    0.2890    0.6920   -0.4390 C   0  0  0  0  0  0  0  0  0  0  0  0
   -0.4790   -0.5860   -0.6000 C   0  0  2  0  0  0  0  0  0  0  0  0
   -1.8590   -0.2780   -1.2070 C   0  0  0  0  0  0  0  0  0  0  0  0
   -2.7930   -0.1020   -0.0300 C   0  0  1  0  0  0  0  0  0  0  0  0
   -4.0840    0.5690   -0.4240 C   0  0  0  0  0  0  0  0  0  0  0  0
   -3.7450    1.9220   -0.9880 C   0  0  0  0  0  0  0  0  0  0  0  0
   -3.0200   -1.4860    0.5570 C   0  0  0  0  0  0  0  0  0  0  0  0
   -1.6320   -2.1040    0.7180 C   0  0  0  0  0  0  0  0  0  0  0  0
   -0.6430   -1.1240    0.6910 O   0  0  0  0  0  0  0  0  0  0  0  0
  1  2  1  0
  2  3  1  0
  3  4  1  0
  4  5  1  0
  5  6  1  0
  7  6  1  1
  7  8  1  0
  7 14  1  0
  8  9  1  0
  9 10  1  6
  9 12  1  0
 10 11  1  0
 12 13  1  0
 13 14  1  0
M  END
