
     RDKit          3D

  9  9  0  0  0  0  0  0  0  0999 V2000
   -2.1930    0.0040    1.5410 O   0  0  0  0  0  0  0  0  0  0  0  0
   -1.8640   -0.6070   -0.0650 P   0  0  0  0  0  0  0  0  0  0  0  0
   -2.0410    0.7670   -1.1440 O   0  0  0  0  0  0  0  0  0  0  0  0
   -0.1060   -1.0760   -0.1130 C   0  0  0  0  0  0  0  0  0  0  0  0
    0.8200   -0.1670    0.0170 C   0  0  0  0  0  0  0  0  0  0  0  0
    2.2730   -0.3990   -0.0020 C   0  0  0  0  0  0  0  0  0  0  0  0
    2.8020    0.7590    0.1580 N   0  0  0  0  0  0  0  0  0  0  0  0
    1.8200    1.7440    0.2820 N   0  0  0  0  0  0  0  0  0  0  0  0
    0.6740    1.2510    0.2060 N   0  0  0  0  0  0  0  0  0  0  0  0
  1  2  1  0
  2  3  1  0
  2  4  1  0
  4  5  2  3
  5  6  1  0
  5  9  1  0
  6  7  2  0
  7  8  1  0
  8  9  2  0
M  END
