
     RDKit          3D

  9  9  0  0  0  0  0  0  0  0999 V2000
    3.1530    1.3210    0.6390 O   0  0  0  0  0  0  0  0  0  0  0  0
    2.5310    0.1060    0.7950 N   0  0  0  0  0  0  0  0  0  0  0  0
    1.2920   -0.0010    0.4720 C   0  0  0  0  0  0  0  0  0  0  0  0
    0.6060   -1.2620    0.6220 N   0  0  0  0  0  0  0  0  0  0  0  0
   -0.4660   -1.5810   -0.2850 C   0  0  0  0  0  0  0  0  0  0  0  0
   -1.7050   -0.7300   -0.0350 C   0  0  0  0  0  0  0  0  0  0  0  0
   -1.2280    1.0580    0.1750 P   0  0  0  0  0  0  0  0  0  0  0  0
   -2.0440    2.0850   -0.9190 O   0  0  0  0  0  0  0  0  0  0  0  0
    0.5660    1.1100   -0.0410 N   0  0  0  0  0  0  0  0  0  0  0  0
  1  2  1  0
  2  3  2  3
  3  4  1  0
  3  9  1  0
  4  5  1  0
  5  6  1  0
  6  7  1  0
  7  8  1  0
  7  9  1  0
M  END
