
     RDKit          3D

  9  9  0  0  0  0  0  0  0  0999 V2000
    3.3450    1.3670    0.4940 O   0  0  0  0  0  0  0  0  0  0  0  0
    2.6190    0.0230    0.6420 P   0  0  0  0  0  0  0  0  0  0  0  0
    1.4980   -0.6900   -0.6520 C   0  0  0  0  0  0  0  0  0  0  0  0
    0.1290   -0.1260   -0.5190 C   0  0  0  0  0  0  0  0  0  0  0  0
   -0.4170    0.9670   -1.0820 N   0  0  0  0  0  0  0  0  0  0  0  0
   -1.6620    1.1050   -0.6960 N   0  0  0  0  0  0  0  0  0  0  0  0
   -1.9330    0.0890    0.1300 C   0  0  0  0  0  0  0  0  0  0  0  0
   -3.0200   -0.1740    0.7380 O   0  0  0  0  0  0  0  0  0  0  0  0
   -0.8280   -0.6820    0.2460 N   0  0  0  0  0  0  0  0  0  0  0  0
  1  2  2  0
  2  3  1  0
  3  4  1  0
  4  5  2  0
  4  9  1  0
  5  6  1  0
  6  7  1  0
  7  8  2  0
  7  9  1  0
M  END
