
     RDKit          3D

  9  9  0  0  0  0  0  0  0  0999 V2000
    3.9740    0.0860   -0.4130 O   0  0  0  0  0  0  0  0  0  0  0  0
    2.6420   -0.6200   -0.0880 P   0  0  0  0  0  0  0  0  0  0  0  0
    1.3310    0.2570    0.7840 N   0  0  0  0  0  0  0  0  0  0  0  0
    0.0510    0.3580    0.1250 C   0  0  0  0  0  0  0  0  0  0  0  0
   -0.5140    1.4870   -0.4370 C   0  0  0  0  0  0  0  0  0  0  0  0
   -1.7100    1.1200   -0.9570 N   0  0  0  0  0  0  0  0  0  0  0  0
   -1.9320   -0.1690   -0.7550 N   0  0  0  0  0  0  0  0  0  0  0  0
   -0.8550   -0.6620   -0.0880 C   0  0  0  0  0  0  0  0  0  0  0  0
   -0.6600   -1.9660    0.3320 O   0  0  0  0  0  0  0  0  0  0  0  0
  1  2  2  0
  2  3  1  0
  3  4  1  0
  4  5  1  0
  4  8  2  0
  5  6  2  0
  6  7  1  0
  7  8  1  0
  8  9  1  0
M  END
