
     RDKit          3D

  9  9  0  0  0  0  0  0  0  0999 V2000
    3.4280   -0.1560   -0.3310 O   0  0  0  0  0  0  0  0  0  0  0  0
    1.9560   -0.1060   -0.7490 P   0  0  0  0  0  0  0  0  0  0  0  0
    0.5980    0.2320    0.4750 C   0  0  2  0  0  0  0  0  0  0  0  0
   -0.3630   -0.9280    0.4220 C   0  0  0  0  0  0  0  0  0  0  0  0
   -1.3710   -0.7370   -0.5830 N   0  0  0  0  0  0  0  0  0  0  0  0
   -1.4300    0.3670   -1.4420 N   0  0  0  0  0  0  0  0  0  0  0  0
   -0.8280    1.4630   -1.1350 N   0  0  0  0  0  0  0  0  0  0  0  0
   -0.1180    1.4760    0.1030 C   0  0  0  0  0  0  0  0  0  0  0  0
   -0.0780    2.4710    0.8670 O   0  0  0  0  0  0  0  0  0  0  0  0
  1  2  2  0
  3  2  1  6
  3  4  1  0
  3  8  1  0
  4  5  1  0
  5  6  1  0
  6  7  2  0
  7  8  1  0
  8  9  2  0
M  END
