
     RDKit          3D

  8  7  0  0  0  0  0  0  0  0999 V2000
   -1.4650    1.6290    0.3930 C   0  0  0  0  0  0  0  0  0  0  0  0
   -0.3550    0.8530   -0.1360 N   0  0  0  0  0  0  0  0  0  0  0  0
   -0.4170   -0.4330   -0.0770 C   0  0  0  0  0  0  0  0  0  0  0  0
   -1.5240   -1.1140    0.4840 N   0  0  0  0  0  0  0  0  0  0  0  0
    0.6620   -1.2080   -0.5910 N   0  0  0  0  0  0  0  0  0  0  0  0
    1.9320   -0.6630   -0.9520 C   0  0  0  0  0  0  0  0  0  0  0  0
    2.6400    0.1250    0.6030 P   0  0  0  0  0  0  0  0  0  0  0  0
    2.6180    1.6700    0.7870 O   0  0  0  0  0  0  0  0  0  0  0  0
  1  2  1  0
  2  3  2  3
  3  4  1  0
  3  5  1  0
  5  6  1  0
  6  7  1  0
  7  8  2  0
M  END
