
     RDKit          3D

 39 41  0  0  0  0  0  0  0  0999 V2000
   -5.0360    5.4370   -0.2950 C   0  0  0  0  0  0  0  0  0  0  0  0
   -4.8420    3.9360   -0.3210 C   0  0  0  0  0  0  0  0  0  0  0  0
   -3.9190    3.5850    0.8120 C   0  0  0  0  0  0  0  0  0  0  0  0
   -3.7080    2.2430    0.8430 O   0  0  0  0  0  0  0  0  0  0  0  0
   -3.1130    1.6450   -0.2170 C   0  0  2  0  0  0  0  0  0  0  0  0
   -3.9120    0.5220   -0.8350 C   0  0  0  0  0  0  0  0  0  0  0  0
   -3.6400   -0.7050   -0.3060 O   0  0  0  0  0  0  0  0  0  0  0  0
   -3.9430   -0.9190    0.9860 C   0  0  0  0  0  0  0  0  0  0  0  0
   -3.1080   -1.8700    1.7490 C   0  0  0  0  0  0  0  0  0  0  0  0
   -2.4270   -1.4270    2.7170 O   0  0  0  0  0  0  0  0  0  0  0  0
   -3.0080   -3.2570    1.4840 N   0  0  0  0  0  0  0  0  0  0  0  0
   -2.5990   -3.9340    0.2580 C   0  0  0  0  0  0  0  0  0  0  0  0
   -3.4170   -4.7730   -0.4620 C   0  0  0  0  0  0  0  0  0  0  0  0
   -4.8740   -5.0460   -0.1010 C   0  0  0  0  0  0  0  0  0  0  0  0
   -5.3880   -4.5030    0.8890 O   0  0  0  0  0  0  0  0  0  0  0  0
   -5.6230   -5.8830   -0.8560 O   0  0  0  0  0  0  0  0  0  0  0  0
   -2.9660   -5.4360   -1.5300 C   0  0  0  0  0  0  0  0  0  0  0  0
   -1.2430   -4.9580   -1.6880 S   0  0  0  0  0  0  0  0  0  0  0  0
   -1.3180   -3.8290   -0.1890 C   0  0  0  0  0  0  0  0  0  0  0  0
   -0.1390   -3.1510    0.2170 N   0  0  0  0  0  0  0  0  0  0  0  0
    0.9230   -3.7460    0.9080 C   0  0  0  0  0  0  0  0  0  0  0  0
    1.8750   -2.8560    1.0810 N   0  0  0  0  0  0  0  0  0  0  0  0
    1.5310   -1.6840    0.5470 C   0  0  0  0  0  0  0  0  0  0  0  0
    2.3320   -0.5270    0.5580 O   0  0  0  0  0  0  0  0  0  0  0  0
    3.2420   -0.2660   -0.4520 C   0  0  0  0  0  0  0  0  0  0  0  0
    3.3200   -1.1130   -1.3810 O   0  0  0  0  0  0  0  0  0  0  0  0
    4.0390    0.8930   -0.4330 N   0  0  0  0  0  0  0  0  0  0  0  0
    4.9690    1.0800   -1.5420 C   0  0  0  0  0  0  0  0  0  0  0  0
    5.7010    2.3820   -1.2960 C   0  0  0  0  0  0  0  0  0  0  0  0
    6.4630    2.3670   -0.0060 C   0  0  0  0  0  0  0  0  0  0  0  0
    7.5050    1.2700    0.0250 C   0  0  0  0  0  0  0  0  0  0  0  0
    8.3570    1.3900    1.6900 P   0  0  0  0  0  0  0  0  0  0  0  0
   10.0020    1.9040    1.5140 O   0  0  0  0  0  0  0  0  0  0  0  0
    8.3270   -0.1520    2.4620 O   0  0  0  0  0  0  0  0  0  0  0  0
    0.2460   -1.8870    0.0010 C   0  0  0  0  0  0  0  0  0  0  0  0
   -0.4310   -0.8200   -0.7570 C   0  0  0  0  0  0  0  0  0  0  0  0
    0.1760   -0.4980   -1.9020 O   0  0  0  0  0  0  0  0  0  0  0  0
   -1.5750   -0.1170   -0.4700 O   0  0  0  0  0  0  0  0  0  0  0  0
   -1.8220    0.9910    0.3180 C   0  0  0  0  0  0  0  0  0  0  0  0
  1  2  1  0
  2  3  1  0
  3  4  1  0
  5  4  1  1
  5  6  1  0
  5 39  1  0
  6  7  1  0
  7  8  1  0
  8  9  1  0
  9 10  2  0
  9 11  1  0
 11 12  1  0
 12 13  1  0
 12 19  2  0
 13 14  1  0
 13 17  2  0
 14 15  2  0
 14 16  1  0
 17 18  1  0
 18 19  1  0
 19 20  1  0
 20 21  1  0
 20 35  1  0
 21 22  2  0
 22 23  1  0
 23 24  1  0
 23 35  2  0
 24 25  1  0
 25 26  2  0
 25 27  1  0
 27 28  1  0
 28 29  1  0
 29 30  1  0
 30 31  1  0
 31 32  1  0
 32 33  1  0
 32 34  1  0
 35 36  1  0
 36 37  2  0
 36 38  1  0
 38 39  1  0
M  END
