
     RDKit          3D

 39 39  0  0  0  0  0  0  0  0999 V2000
   -4.0780    3.8140   -2.4310 C   0  0  0  0  0  0  0  0  0  0  0  0
   -3.7090    2.7020   -1.6440 O   0  0  0  0  0  0  0  0  0  0  0  0
   -3.5730    1.6270   -2.4850 C   0  0  0  0  0  0  0  0  0  0  0  0
   -3.1650    0.3900   -1.7260 C   0  0  0  0  0  0  0  0  0  0  0  0
   -2.0930   -0.1400   -2.0340 N   0  0  0  0  0  0  0  0  0  0  0  0
   -1.3560   -1.2230   -1.6380 C   0  0  0  0  0  0  0  0  0  0  0  0
   -0.4320   -1.1270   -0.6430 C   0  0  0  0  0  0  0  0  0  0  0  0
   -0.2810    0.0760   -0.0740 O   0  0  0  0  0  0  0  0  0  0  0  0
    0.6560    0.9110    0.4130 C   0  0  0  0  0  0  0  0  0  0  0  0
    0.3520    1.5080    1.7070 N   0  0  0  0  0  0  0  0  0  0  0  0
    1.2770    1.8360    2.7190 C   0  0  0  0  0  0  0  0  0  0  0  0
    0.6420    2.6910    3.8080 C   0  0  0  0  0  0  0  0  0  0  0  0
    0.2020    3.9900    3.2550 C   0  0  0  0  0  0  0  0  0  0  0  0
   -0.7300    3.8710    2.2600 O   0  0  0  0  0  0  0  0  0  0  0  0
    1.7780    1.2670   -0.1120 N   0  0  0  0  0  0  0  0  0  0  0  0
    2.3330    0.8810   -1.3620 C   0  0  0  0  0  0  0  0  0  0  0  0
    2.7140    1.8790   -2.1450 O   0  0  0  0  0  0  0  0  0  0  0  0
    2.5690   -0.4080   -1.9650 C   0  0  0  0  0  0  0  0  0  0  0  0
    1.7600   -0.6730   -3.2010 C   0  0  0  0  0  0  0  0  0  0  0  0
    0.8700    0.1300   -3.6800 C   0  0  0  0  0  0  0  0  0  0  0  0
    0.1690   -0.1890   -4.8230 O   0  0  0  0  0  0  0  0  0  0  0  0
    3.4510   -1.3410   -1.6420 C   0  0  0  0  0  0  0  0  0  0  0  0
    4.4690   -1.3810   -0.6010 C   0  0  0  0  0  0  0  0  0  0  0  0
    5.6070   -2.0640   -0.9410 C   0  0  0  0  0  0  0  0  0  0  0  0
    5.7000   -2.6440   -2.1960 O   0  0  0  0  0  0  0  0  0  0  0  0
    4.3240   -0.7990    0.6000 O   0  0  0  0  0  0  0  0  0  0  0  0
    3.5070   -0.9200    2.0460 P   0  0  0  0  0  0  0  0  0  0  0  0
    4.2340   -0.0810    3.3510 O   0  0  0  0  0  0  0  0  0  0  0  0
    2.5230   -2.3490    2.4900 C   0  0  0  0  0  0  0  0  0  0  0  0
    1.0300   -2.2090    2.1740 C   0  0  0  0  0  0  0  0  0  0  0  0
    0.7240   -2.8540    0.9250 N   0  0  0  0  0  0  0  0  0  0  0  0
    0.3150   -2.3560   -0.2900 C   0  0  0  0  0  0  0  0  0  0  0  0
    0.6110   -3.0530   -1.3440 O   0  0  0  0  0  0  0  0  0  0  0  0
   -4.0090   -0.0550   -0.7530 O   0  0  0  0  0  0  0  0  0  0  0  0
   -3.5320   -0.7830    0.3490 C   0  0  0  0  0  0  0  0  0  0  0  0
   -5.0200   -1.1380    1.3740 S   0  0  0  0  0  0  0  0  0  0  0  0
   -6.0780   -2.2320    0.4550 C   0  0  0  0  0  0  0  0  0  0  0  0
   -5.7630   -2.6540   -0.6820 O   0  0  0  0  0  0  0  0  0  0  0  0
   -7.2910   -2.6430    0.9940 O   0  0  0  0  0  0  0  0  0  0  0  0
  1  2  1  0
  2  3  1  0
  3  4  1  0
  4  5  2  3
  4 34  1  0
  5  6  1  0
  6  7  2  3
  7  8  1  0
  7 32  1  0
  8  9  1  0
  9 10  1  0
  9 15  2  0
 10 11  1  0
 11 12  1  0
 12 13  1  0
 13 14  1  0
 15 16  1  0
 16 17  2  0
 16 18  1  0
 18 19  1  0
 18 22  2  0
 19 20  2  3
 20 21  1  0
 22 23  1  0
 23 24  2  3
 23 26  1  0
 24 25  1  0
 26 27  1  0
 27 28  1  0
 27 29  1  0
 29 30  1  0
 30 31  1  0
 31 32  1  0
 32 33  2  0
 34 35  1  0
 35 36  1  0
 36 37  1  0
 37 38  2  0
 37 39  1  0
M  END
