
     RDKit          3D

 38 39  0  0  0  0  0  0  0  0999 V2000
   -2.5310   -4.6930    2.6900 C   0  0  0  0  0  0  0  0  0  0  0  0
   -2.1760   -3.6860    1.5810 C   0  0  0  0  0  0  0  0  0  0  0  0
   -1.2010   -2.8830    2.0570 O   0  0  0  0  0  0  0  0  0  0  0  0
   -0.6240   -1.9320    1.3020 C   0  0  0  0  0  0  0  0  0  0  0  0
   -1.6630   -0.9050    0.8160 C   0  0  2  0  0  0  0  0  0  0  0  0
   -2.3700   -0.4390    2.0270 C   0  0  0  0  0  0  0  0  0  0  0  0
   -2.5220   -1.6230    0.0020 O   0  0  0  0  0  0  0  0  0  0  0  0
   -0.9240    0.0880    0.0160 C   0  0  1  0  0  0  0  0  0  0  0  0
   -0.1010   -0.4320   -0.9350 O   0  0  0  0  0  0  0  0  0  0  0  0
    0.1460   -1.4130   -1.7690 C   0  0  0  0  0  0  0  0  0  0  0  0
   -0.6400   -1.9880   -2.6250 O   0  0  0  0  0  0  0  0  0  0  0  0
    1.4640   -2.0270   -1.8340 N   0  0  0  0  0  0  0  0  0  0  0  0
    1.5440   -3.4770   -1.9460 C   0  0  0  0  0  0  0  0  0  0  0  0
    2.7000   -1.2990   -1.8010 C   0  0  0  0  0  0  0  0  0  0  0  0
    3.2350   -1.0600   -0.3920 C   0  0  1  0  0  0  0  0  0  0  0  0
    4.7170   -0.4940   -0.1340 S   0  0  0  0  0  0  0  0  0  0  0  0
    4.8020    0.2120   -1.4300 O   0  0  0  0  0  0  0  0  0  0  0  0
    4.8260    1.2320    0.4090 O   0  0  0  0  0  0  0  0  0  0  0  0
    4.6430   -0.6400    1.4240 O   0  0  0  0  0  0  0  0  0  0  0  0
    6.1660   -1.2560   -0.2430 C   0  0  0  0  0  0  0  0  0  0  0  0
    7.1840   -0.3550    0.1760 O   0  0  0  0  0  0  0  0  0  0  0  0
    2.2550   -0.2250    0.2060 O   0  0  0  0  0  0  0  0  0  0  0  0
    2.3560    1.0680    0.5040 N   0  0  0  0  0  0  0  0  0  0  0  0
    1.9220    2.1030   -0.1410 C   0  0  0  0  0  0  0  0  0  0  0  0
    2.2630    3.3290    0.5610 N   0  0  0  0  0  0  0  0  0  0  0  0
    2.3260    3.4380    2.0000 C   0  0  0  0  0  0  0  0  0  0  0  0
    1.2660    2.0000   -1.2950 N   0  0  0  0  0  0  0  0  0  0  0  0
    0.2370    1.9340   -1.9780 C   0  0  0  0  0  0  0  0  0  0  0  0
   -1.2000    1.9500   -1.6500 C   0  0  0  0  0  0  0  0  0  0  0  0
   -2.0280    2.8500   -2.3080 C   0  0  0  0  0  0  0  0  0  0  0  0
   -3.3860    2.9650   -2.0980 C   0  0  0  0  0  0  0  0  0  0  0  0
   -3.9340    2.1220   -1.1730 C   0  0  0  0  0  0  0  0  0  0  0  0
   -5.3890    2.2030   -0.9090 C   0  0  0  0  0  0  0  0  0  0  0  0
   -5.7880    3.3940    0.4350 P   0  0  0  0  0  0  0  0  0  0  0  0
   -4.4540    4.3910    0.8720 O   0  0  0  0  0  0  0  0  0  0  0  0
   -7.2200    4.3020    0.1160 O   0  0  0  0  0  0  0  0  0  0  0  0
   -3.1390    1.2110   -0.4980 C   0  0  0  0  0  0  0  0  0  0  0  0
   -1.7920    1.1040   -0.7130 C   0  0  0  0  0  0  0  0  0  0  0  0
  1  2  1  0
  2  3  1  0
  3  4  1  0
  4  5  1  0
  5  6  1  1
  5  7  1  0
  5  8  1  0
  8  9  1  6
  8 38  1  0
  9 10  1  0
 10 11  2  0
 10 12  1  0
 12 13  1  0
 12 14  1  0
 14 15  1  0
 15 16  1  6
 15 22  1  0
 16 17  2  0
 16 18  1  0
 16 19  1  0
 16 20  1  0
 20 21  1  0
 22 23  1  0
 23 24  2  0
 24 25  1  0
 24 27  1  0
 25 26  1  0
 27 28  2  0
 28 29  1  0
 29 30  2  0
 29 38  1  0
 30 31  1  0
 31 32  2  0
 32 33  1  0
 32 37  1  0
 33 34  1  0
 34 35  1  0
 34 36  1  0
 37 38  2  0
M  END
