
     RDKit          3D

 39 40  0  0  0  0  0  0  0  0999 V2000
   -5.0800   -4.5230    0.4060 C   0  0  0  0  0  0  0  0  0  0  0  0
   -4.5920   -3.0990    0.3370 C   0  0  0  0  0  0  0  0  0  0  0  0
   -3.2110   -3.0300    0.1670 O   0  0  0  0  0  0  0  0  0  0  0  0
   -2.6390   -1.4160    0.0890 P   0  0  0  0  0  0  0  0  0  0  0  0
   -0.8100   -1.3610    0.4090 C   0  0  0  0  0  0  0  0  0  0  0  0
   -0.2120   -0.4700   -0.6280 C   0  0  0  0  0  0  0  0  0  0  0  0
   -0.3130   -1.0010   -1.9920 C   0  0  0  0  0  0  0  0  0  0  0  0
    0.1630   -0.3680   -2.9670 O   0  0  0  0  0  0  0  0  0  0  0  0
   -0.9320   -2.2010   -2.2190 O   0  0  0  0  0  0  0  0  0  0  0  0
   -1.0690   -2.7830   -3.5210 C   0  0  0  0  0  0  0  0  0  0  0  0
    0.3760    0.6800   -0.3830 C   0  0  0  0  0  0  0  0  0  0  0  0
    0.6190    1.3910    0.8440 C   0  0  0  0  0  0  0  0  0  0  0  0
    1.9940    1.9330    1.0570 N   0  0  0  0  0  0  0  0  0  0  0  0
    3.0990    0.8110    1.7370 S   0  0  2  0  0  0  0  0  0  0  0  0
    2.5900    0.3140    3.0840 O   0  0  0  0  0  0  0  0  0  0  0  0
    4.4230    1.4810    1.9950 O   0  0  0  0  0  0  0  0  0  0  0  0
    3.3800   -0.6110    0.7070 C   0  0  2  0  0  0  0  0  0  0  0  0
    4.2090   -1.5370    1.4730 N   0  0  0  0  0  0  0  0  0  0  0  0
    5.4620   -2.0240    1.1000 C   0  0  0  0  0  0  0  0  0  0  0  0
    6.1380   -2.8460    1.8460 N   0  0  0  0  0  0  0  0  0  0  0  0
    6.0370   -1.6070   -0.1600 C   0  0  0  0  0  0  0  0  0  0  0  0
    7.1670   -2.0330   -0.5220 O   0  0  0  0  0  0  0  0  0  0  0  0
    5.2780   -0.7120   -0.9520 N   0  0  0  0  0  0  0  0  0  0  0  0
    5.8270   -0.2800   -2.2100 C   0  0  0  0  0  0  0  0  0  0  0  0
    6.9770    0.3780   -2.2680 C   0  0  0  0  0  0  0  0  0  0  0  0
    7.6810    0.6660   -1.0910 O   0  0  0  0  0  0  0  0  0  0  0  0
    4.0070   -0.2210   -0.5620 C   0  0  0  0  0  0  0  0  0  0  0  0
    3.4220    0.5790   -1.3590 O   0  0  0  0  0  0  0  0  0  0  0  0
   -0.1930    1.6570    1.8400 C   0  0  0  0  0  0  0  0  0  0  0  0
   -1.5630    1.3820    2.1170 C   0  0  0  0  0  0  0  0  0  0  0  0
   -2.6970    1.8680    1.6280 C   0  0  0  0  0  0  0  0  0  0  0  0
   -2.8690    2.8840    0.6020 C   0  0  0  0  0  0  0  0  0  0  0  0
   -3.5180    3.9870    0.9140 C   0  0  0  0  0  0  0  0  0  0  0  0
   -3.7850    5.1300   -0.0030 C   0  0  0  0  0  0  0  0  0  0  0  0
   -5.1570    5.3250   -0.1290 O   0  0  0  0  0  0  0  0  0  0  0  0
   -2.3960    2.7680   -0.6930 O   0  0  0  0  0  0  0  0  0  0  0  0
   -2.6360    1.7720   -1.6530 C   0  0  0  0  0  0  0  0  0  0  0  0
   -3.5480    0.6900   -1.1820 C   0  0  0  0  0  0  0  0  0  0  0  0
   -3.0650   -0.5980   -1.3680 O   0  0  0  0  0  0  0  0  0  0  0  0
  1  2  1  0
  2  3  1  0
  3  4  1  0
  4  5  1  0
  4 39  1  0
  5  6  1  0
  6  7  1  0
  6 11  2  0
  7  8  2  0
  7  9  1  0
  9 10  1  0
 11 12  1  0
 12 13  1  0
 12 29  2  0
 14 13  1  6
 14 15  2  0
 14 16  2  0
 14 17  1  0
 17 18  1  1
 17 27  1  0
 18 19  1  0
 19 20  2  0
 19 21  1  0
 21 22  2  0
 21 23  1  0
 23 24  1  0
 23 27  1  0
 24 25  2  3
 25 26  1  0
 27 28  2  0
 29 30  1  0
 30 31  2  0
 31 32  1  0
 32 33  2  3
 32 36  1  0
 33 34  1  0
 34 35  1  0
 36 37  1  0
 37 38  1  0
 38 39  1  0
M  END
