
     RDKit          3D

 16 17  0  0  0  0  0  0  0  0999 V2000
   -3.0190   -1.2590   -0.5730 C   0  0  0  0  0  0  0  0  0  0  0  0
   -2.3440   -0.7470    0.7180 C   0  0  0  0  0  0  0  0  0  0  0  0
   -0.9880   -1.2330    0.6580 C   0  0  0  0  0  0  0  0  0  0  0  0
   -0.8010   -2.6260    0.9340 C   0  0  0  0  0  0  0  0  0  0  0  0
   -2.2690   -3.4950    1.2950 Cl  0  0  0  0  0  0  0  0  0  0  0  0
    0.4130   -3.2350    0.9120 C   0  0  0  0  0  0  0  0  0  0  0  0
    1.5170   -2.4840    0.6110 C   0  0  0  0  0  0  0  0  0  0  0  0
    1.3970   -1.1380    0.3370 C   0  0  0  0  0  0  0  0  0  0  0  0
    2.5280   -0.4210    0.0340 C   0  0  0  0  0  0  0  0  0  0  0  0
    2.4680    0.9020   -0.2490 C   0  0  0  0  0  0  0  0  0  0  0  0
    3.6780    1.6670   -0.5710 C   0  0  0  0  0  0  0  0  0  0  0  0
    1.2400    1.5200   -0.2260 C   0  0  0  0  0  0  0  0  0  0  0  0
    0.0410    0.8490    0.0770 C   0  0  0  0  0  0  0  0  0  0  0  0
   -1.2320    1.5430    0.1110 C   0  0  0  0  0  0  0  0  0  0  0  0
   -0.9430    2.9700   -0.2570 N   0  0  0  0  0  0  0  0  0  0  0  0
    0.1250   -0.4990    0.3600 C   0  0  0  0  0  0  0  0  0  0  0  0
  1  2  1  0
  2  3  1  0
  3  4  2  0
  3 16  1  0
  4  5  1  0
  4  6  1  0
  6  7  2  0
  7  8  1  0
  8  9  2  0
  8 16  1  0
  9 10  1  0
 10 11  1  0
 10 12  2  0
 12 13  1  0
 13 14  1  0
 13 16  2  0
 14 15  1  0
M  CHG  1  15   1
M  END
