
     RDKit          3D

 16 17  0  0  0  0  0  0  0  0999 V2000
   -0.8190    3.5660   -0.3970 C   0  0  0  0  0  0  0  0  0  0  0  0
   -1.1760    2.2490    0.2290 C   0  0  0  0  0  0  0  0  0  0  0  0
   -0.1300    1.2380    0.0110 C   0  0  0  0  0  0  0  0  0  0  0  0
    1.1120    1.7630   -0.3870 C   0  0  0  0  0  0  0  0  0  0  0  0
    2.1540    0.9150   -0.5150 C   0  0  0  0  0  0  0  0  0  0  0  0
    3.7360    1.5270   -1.0350 Cl  0  0  0  0  0  0  0  0  0  0  0  0
    2.0560   -0.4330   -0.2650 C   0  0  0  0  0  0  0  0  0  0  0  0
    3.1840   -1.3270   -0.5850 C   0  0  0  0  0  0  0  0  0  0  0  0
    3.7810   -1.7770    0.6670 N   0  0  0  0  0  0  0  0  0  0  0  0
    0.8310   -0.9440    0.1230 C   0  0  0  0  0  0  0  0  0  0  0  0
   -0.2760   -0.0910    0.2560 C   0  0  0  0  0  0  0  0  0  0  0  0
   -1.5840   -0.7490    0.3550 C   0  0  0  0  0  0  0  0  0  0  0  0
   -2.4460   -1.0000    1.2770 C   0  0  0  0  0  0  0  0  0  0  0  0
   -3.6390   -1.7350    0.7660 C   0  0  0  0  0  0  0  0  0  0  0  0
   -3.3200   -1.8530   -0.6880 C   0  0  0  0  0  0  0  0  0  0  0  0
   -2.1730   -1.3140   -0.9270 C   0  0  0  0  0  0  0  0  0  0  0  0
  1  2  1  0
  2  3  1  0
  3  4  2  0
  3 11  1  0
  4  5  1  0
  5  6  1  0
  5  7  2  0
  7  8  1  0
  7 10  1  0
  8  9  1  0
 10 11  2  0
 11 12  1  0
 12 13  2  0
 12 16  1  0
 13 14  1  0
 14 15  1  0
 15 16  2  0
M  CHG  1   9   1
M  END
