
     RDKit          3D

 26 27  0  0  0  0  0  0  0  0999 V2000
   -4.4790    1.8110   -2.5150 C   0  0  0  0  0  0  0  0  0  0  0  0
   -3.5030    0.7060   -2.4900 N   0  0  0  0  0  0  0  0  0  0  0  0
   -2.5700    0.9660   -1.4640 C   0  0  0  0  0  0  0  0  0  0  0  0
   -2.6050   -0.0360   -0.2890 C   0  0  1  0  0  0  0  0  0  0  0  0
   -3.9450    0.0310    0.2840 C   0  0  0  0  0  0  0  0  0  0  0  0
   -4.3520   -0.7890    1.4350 C   0  0  1  0  0  0  0  0  0  0  0  0
   -4.3210   -2.2600    1.3260 C   0  0  0  0  0  0  0  0  0  0  0  0
   -3.7320   -0.3170    2.6910 N   0  0  0  0  0  0  0  0  0  0  0  0
   -2.2880   -1.3590   -0.8640 C   0  0  0  0  0  0  0  0  0  0  0  0
   -0.5940   -1.3770   -1.5960 S   0  0  0  0  0  0  0  0  0  0  0  0
    0.3950   -0.9520   -0.1000 C   0  0  1  0  0  0  0  0  0  0  0  0
    0.2250   -2.0860    0.8570 C   0  0  0  0  0  0  0  0  0  0  0  0
    1.7380   -0.7140   -0.5420 C   0  0  0  0  0  0  0  0  0  0  0  0
    2.3090   -0.9170   -1.6270 O   0  0  0  0  0  0  0  0  0  0  0  0
    2.6480   -0.1430    0.3480 N   0  0  0  0  0  0  0  0  0  0  0  0
    3.9450    0.1310   -0.0340 C   0  0  0  0  0  0  0  0  0  0  0  0
    4.8750    0.0830   -1.0810 N   0  0  0  0  0  0  0  0  0  0  0  0
    4.4880    0.6660    1.0580 N   0  0  0  0  0  0  0  0  0  0  0  0
    5.8590    0.9650    0.6910 C   0  0  0  0  0  0  0  0  0  0  0  0
    6.2330    2.0800    0.1330 C   0  0  0  0  0  0  0  0  0  0  0  0
    7.6980    1.9960   -0.0820 C   0  0  0  0  0  0  0  0  0  0  0  0
    8.0460    0.6860    0.1810 O   0  0  0  0  0  0  0  0  0  0  0  0
    7.0060    0.0750    0.8390 C   0  0  0  0  0  0  0  0  0  0  0  0
   -0.1870    0.3370    0.3890 C   0  0  0  0  0  0  0  0  0  0  0  0
    0.5930    1.3240    0.6350 O   0  0  0  0  0  0  0  0  0  0  0  0
   -1.5600    0.4810    0.5820 N   0  0  0  0  0  0  0  0  0  0  0  0
  1  2  1  0
  2  3  1  0
  4  3  1  6
  4  5  1  0
  4  9  1  0
  4 26  1  0
  5  6  1  0
  6  7  1  6
  6  8  1  0
  9 10  1  0
 10 11  1  0
 11 12  1  1
 11 13  1  0
 11 24  1  0
 13 14  2  0
 13 15  1  0
 15 16  1  0
 16 17  1  0
 16 18  2  3
 18 19  1  0
 19 20  2  0
 19 23  1  0
 20 21  1  0
 21 22  1  0
 22 23  1  0
 24 25  2  0
 24 26  1  0
M  CHG  2   2   1   8   1
M  END
