
     RDKit          3D

 26 27  0  0  0  0  0  0  0  0999 V2000
    2.6980    1.3930    2.6630 C   0  0  0  0  0  0  0  0  0  0  0  0
    2.3330    1.1030    1.2020 C   0  0  2  0  0  0  0  0  0  0  0  0
    1.1040    0.3610    1.2250 N   0  0  0  0  0  0  0  0  0  0  0  0
   -0.0850    0.8090    0.5830 C   0  0  0  0  0  0  0  0  0  0  0  0
   -0.0590    1.9010   -0.0310 O   0  0  0  0  0  0  0  0  0  0  0  0
   -1.3460    0.0350    0.6120 C   0  0  0  0  0  0  0  0  0  0  0  0
   -2.3920    0.7570   -0.1630 C   0  0  1  0  0  0  0  0  0  0  0  0
   -1.9890    0.9330   -1.5800 C   0  0  0  0  0  0  0  0  0  0  0  0
   -2.8750    0.2770   -2.5550 C   0  0  0  0  0  0  0  0  0  0  0  0
   -3.2170    1.1400   -3.8930 S   0  0  0  0  0  0  0  0  0  0  0  0
   -3.4690   -0.9870   -2.4980 N   0  0  0  0  0  0  0  0  0  0  0  0
   -3.6910   -1.9030   -1.4140 C   0  0  0  0  0  0  0  0  0  0  0  0
   -3.7490   -1.2480   -0.0650 C   0  0  0  0  0  0  0  0  0  0  0  0
   -3.7050    0.1730   -0.1030 N   0  0  1  0  0  0  0  0  0  0  0  0
   -4.4450    0.7160    1.0230 C   0  0  0  0  0  0  0  0  0  0  0  0
   -5.8890    0.6490    0.6840 C   0  0  0  0  0  0  0  0  0  0  0  0
   -6.3450    0.1280   -0.5500 N   0  0  0  0  0  0  0  0  0  0  0  0
   -6.7590    1.0600    1.4950 O   0  0  0  0  0  0  0  0  0  0  0  0
    3.4080    0.2400    0.6700 C   0  0  0  0  0  0  0  0  0  0  0  0
    3.1510   -0.9320    0.3300 O   0  0  0  0  0  0  0  0  0  0  0  0
    4.7520    0.6810    0.5190 N   0  0  0  0  0  0  0  0  0  0  0  0
    5.7740   -0.1570    0.0070 C   0  0  0  0  0  0  0  0  0  0  0  0
    6.8820   -0.5180    0.6260 C   0  0  0  0  0  0  0  0  0  0  0  0
    7.6680   -1.3720   -0.2210 N   0  0  0  0  0  0  0  0  0  0  0  0
    6.9290   -1.4920   -1.4060 C   0  0  0  0  0  0  0  0  0  0  0  0
    5.8140   -0.7900   -1.3040 C   0  0  0  0  0  0  0  0  0  0  0  0
  2  1  1  1
  2  3  1  0
  2 19  1  0
  3  4  1  0
  4  5  2  0
  4  6  1  0
  7  6  1  1
  7  8  1  0
  7 14  1  0
  8  9  1  0
  9 10  2  0
  9 11  1  0
 11 12  1  0
 12 13  1  0
 13 14  1  0
 14 15  1  1
 15 16  1  0
 16 17  1  0
 16 18  2  0
 19 20  2  0
 19 21  1  0
 21 22  1  0
 22 23  2  0
 22 26  1  0
 23 24  1  0
 24 25  1  0
 25 26  2  0
M  CHG  2  14   1  24   1
M  END
