
     RDKit          3D

 17 18  0  0  0  0  0  0  0  0999 V2000
    4.2800    1.5170   -2.2830 C   0  0  0  0  0  0  0  0  0  0  0  0
    3.4980    1.0620   -1.2800 C   0  0  0  0  0  0  0  0  0  0  0  0
    2.1550    0.8020   -1.5750 C   0  0  0  0  0  0  0  0  0  0  0  0
    1.1800    0.3960   -0.8160 C   0  0  0  0  0  0  0  0  0  0  0  0
    1.1180    0.0820    0.5570 N   0  0  0  0  0  0  0  0  0  0  0  0
   -0.2260   -0.3230    0.8760 C   0  0  0  0  0  0  0  0  0  0  0  0
   -0.6690   -0.7180    2.1760 N   0  0  0  0  0  0  0  0  0  0  0  0
   -0.9420   -0.2620   -0.2240 C   0  0  0  0  0  0  0  0  0  0  0  0
   -2.3940   -0.6170   -0.2550 C   0  0  2  0  0  0  0  0  0  0  0  0
   -2.5670   -1.7720   -1.2330 C   0  0  0  0  0  0  0  0  0  0  0  0
   -3.2300    0.5260   -0.7690 C   0  0  0  0  0  0  0  0  0  0  0  0
   -4.5210    0.2750    0.0250 C   0  0  0  0  0  0  0  0  0  0  0  0
   -3.8820   -0.1510    1.3520 C   0  0  0  0  0  0  0  0  0  0  0  0
   -2.8360   -0.9560    0.9900 O   0  0  0  0  0  0  0  0  0  0  0  0
   -0.1500    0.1630   -1.2660 O   0  0  0  0  0  0  0  0  0  0  0  0
    4.1750    0.8890    0.0100 C   0  0  0  0  0  0  0  0  0  0  0  0
    4.2460   -0.4890    0.4700 N   0  0  0  0  0  0  0  0  0  0  0  0
  1  2  2  0
  2  3  1  0
  2 16  1  0
  3  4  2  3
  4  5  1  0
  4 15  1  0
  5  6  1  0
  6  7  1  0
  6  8  2  0
  8  9  1  0
  8 15  1  0
  9 10  1  6
  9 11  1  0
  9 14  1  0
 11 12  1  0
 12 13  1  0
 13 14  1  0
 16 17  1  0
M  CHG  1  17   1
M  END
