
     RDKit          3D

 17 19  0  0  0  0  0  0  0  0999 V2000
   -4.5110   -0.0660    0.7930 N   0  0  0  0  0  0  0  0  0  0  0  0
   -3.6520   -0.1860   -0.3670 C   0  0  2  0  0  0  0  0  0  0  0  0
   -2.5110   -1.0660   -0.1040 C   0  0  0  0  0  0  0  0  0  0  0  0
   -1.4080   -0.3540   -0.2620 C   0  0  0  0  0  0  0  0  0  0  0  0
    0.0290   -0.6850   -0.1350 C   0  0  0  0  0  0  0  0  0  0  0  0
    0.9590    0.2030   -0.3440 C   0  0  0  0  0  0  0  0  0  0  0  0
    2.3750   -0.2190   -0.1940 C   0  0  0  0  0  0  0  0  0  0  0  0
    2.7780   -1.4620    0.1450 C   0  0  0  0  0  0  0  0  0  0  0  0
    4.1330   -1.7430    0.2560 C   0  0  0  0  0  0  0  0  0  0  0  0
    5.0340   -0.7770    0.0260 N   0  0  0  0  0  0  0  0  0  0  0  0
    4.6610    0.4590   -0.3100 C   0  0  0  0  0  0  0  0  0  0  0  0
    5.5320    1.3510   -0.5210 O   0  0  0  0  0  0  0  0  0  0  0  0
    3.3440    0.7080   -0.4110 N   0  0  0  0  0  0  0  0  0  0  0  0
    0.6850    1.6120   -0.7220 C   0  0  0  0  0  0  0  0  0  0  0  0
   -0.6520    1.9030   -0.8350 O   0  0  0  0  0  0  0  0  0  0  0  0
   -1.6850    1.0230   -0.6320 C   0  0  0  0  0  0  0  0  0  0  0  0
   -3.0140    1.1040   -0.6900 C   0  0  0  0  0  0  0  0  0  0  0  0
  2  1  1  1
  2  3  1  0
  2 17  1  0
  3  4  2  0
  4  5  1  0
  4 16  1  0
  5  6  2  0
  6  7  1  0
  6 14  1  0
  7  8  2  0
  7 13  1  0
  8  9  1  0
  9 10  2  0
 10 11  1  0
 11 12  2  0
 11 13  1  0
 14 15  1  0
 15 16  1  0
 16 17  2  0
M  CHG  1   1   1
M  END
