
     RDKit          3D

 17 18  0  0  0  0  0  0  0  0999 V2000
   -1.4720    2.2470    1.0580 O   0  0  0  0  0  0  0  0  0  0  0  0
   -1.9660    1.2210    0.5110 C   0  0  0  0  0  0  0  0  0  0  0  0
   -3.3910    1.1430    0.3760 N   0  0  0  0  0  0  0  0  0  0  0  0
   -4.0010   -0.0070   -0.2410 C   0  0  2  0  0  0  0  0  0  0  0  0
   -4.9400   -0.5190    0.6600 O   0  0  0  0  0  0  0  0  0  0  0  0
   -3.0400   -1.0200   -0.6850 C   0  0  0  0  0  0  0  0  0  0  0  0
   -1.7240   -0.9400   -0.5570 C   0  0  0  0  0  0  0  0  0  0  0  0
   -1.1100    0.1830    0.0480 N   0  0  0  0  0  0  0  0  0  0  0  0
    0.2960    0.3420    0.2220 C   0  0  2  0  0  0  0  0  0  0  0  0
    1.0030    0.3080   -0.9990 O   0  0  0  0  0  0  0  0  0  0  0  0
    2.3120    0.4530   -0.5360 C   0  0  2  0  0  0  0  0  0  0  0  0
    3.3370    0.0330   -1.5470 C   0  0  0  0  0  0  0  0  0  0  0  0
    4.5910    0.2150   -0.9910 O   0  0  0  0  0  0  0  0  0  0  0  0
    2.4120   -0.3550    0.7360 C   0  0  1  0  0  0  0  0  0  0  0  0
    2.7340    0.5100    1.8000 O   0  0  0  0  0  0  0  0  0  0  0  0
    0.9710   -0.7810    0.9410 C   0  0  1  0  0  0  0  0  0  0  0  0
    0.6360   -0.8520    2.2860 O   0  0  0  0  0  0  0  0  0  0  0  0
  1  2  2  0
  2  3  1  0
  2  8  1  0
  3  4  1  0
  4  5  1  1
  4  6  1  0
  6  7  2  0
  7  8  1  0
  9  8  1  6
  9 10  1  0
  9 16  1  0
 10 11  1  0
 11 12  1  6
 11 14  1  0
 12 13  1  0
 14 15  1  1
 14 16  1  0
 16 17  1  1
M  END
