
     RDKit          3D

 16 18  0  0  0  0  0  0  0  0999 V2000
   -4.0910   -0.8590   -0.1660 C   0  0  0  0  0  0  0  0  0  0  0  0
   -2.7850   -0.3120    0.3710 C   0  0  2  0  0  0  0  0  0  0  0  0
   -2.7830    1.1940    0.2200 C   0  0  0  0  0  0  0  0  0  0  0  0
   -1.5100    1.6710    0.7110 N   0  0  0  0  0  0  0  0  0  0  0  0
   -0.4930    1.3020   -0.2710 C   0  0  1  0  0  0  0  0  0  0  0  0
    0.7650    1.7840    0.0930 O   0  0  0  0  0  0  0  0  0  0  0  0
    1.6510    0.6970    0.0510 C   0  0  0  0  0  0  0  0  0  0  0  0
    0.9500   -0.4780   -0.1700 C   0  0  0  0  0  0  0  0  0  0  0  0
    1.6280   -1.6790   -0.2490 C   0  0  0  0  0  0  0  0  0  0  0  0
    2.9940   -1.7070   -0.1080 C   0  0  0  0  0  0  0  0  0  0  0  0
    3.7460   -0.5500    0.1170 C   0  0  0  0  0  0  0  0  0  0  0  0
    5.1500   -0.5970    0.2600 N   0  0  0  0  0  0  0  0  0  0  0  0
    3.0260    0.6310    0.1880 C   0  0  0  0  0  0  0  0  0  0  0  0
    3.7540    1.7910    0.4110 O   0  0  0  0  0  0  0  0  0  0  0  0
   -0.4150   -0.1430   -0.2730 N   0  0  0  0  0  0  0  0  0  0  0  0
   -1.6170   -0.9220   -0.3700 C   0  0  0  0  0  0  0  0  0  0  0  0
  2  1  1  6
  2  3  1  0
  2 16  1  0
  3  4  1  0
  5  4  1  1
  5  6  1  0
  5 15  1  0
  6  7  1  0
  7  8  2  0
  7 13  1  0
  8  9  1  0
  8 15  1  0
  9 10  2  0
 10 11  1  0
 11 12  1  0
 11 13  2  0
 13 14  1  0
 15 16  1  0
M  CHG  1   4   1
M  END
