
     RDKit          3D

 20 21  0  0  0  0  0  0  0  0999 V2000
    2.3000   -0.9790    1.9390 C   0  0  0  0  0  0  0  0  0  0  0  0
    1.5500   -0.2760    0.8090 C   0  0  0  0  0  0  0  0  0  0  0  0
    0.2100   -0.4170    0.6160 C   0  0  0  0  0  0  0  0  0  0  0  0
   -0.4090    0.1960   -0.3580 C   0  0  0  0  0  0  0  0  0  0  0  0
   -1.7950    0.2610   -0.8600 C   0  0  0  0  0  0  0  0  0  0  0  0
   -1.9140    1.0810   -1.8730 O   0  0  0  0  0  0  0  0  0  0  0  0
   -2.9160   -0.4050   -0.4080 N   0  0  0  0  0  0  0  0  0  0  0  0
   -3.1400   -1.3640    0.6240 C   0  0  0  0  0  0  0  0  0  0  0  0
   -3.9810   -0.7250    1.7260 C   0  0  0  0  0  0  0  0  0  0  0  0
   -5.2460   -0.3550    1.1140 N   0  0  0  0  0  0  0  0  0  0  0  0
   -5.0160    0.5780    0.0420 C   0  0  0  0  0  0  0  0  0  0  0  0
   -4.2000   -0.0530   -1.0960 C   0  0  0  0  0  0  0  0  0  0  0  0
    0.9270    1.1050   -1.1670 S   0  0  0  0  0  0  0  0  0  0  0  0
    2.2270    0.5290   -0.0520 C   0  0  0  0  0  0  0  0  0  0  0  0
    3.6000    0.9500   -0.2200 C   0  0  0  0  0  0  0  0  0  0  0  0
    3.8660    1.8430   -1.2960 O   0  0  0  0  0  0  0  0  0  0  0  0
    4.5910    0.6040    0.4940 C   0  0  0  0  0  0  0  0  0  0  0  0
    6.2970    1.2580    0.1170 P   0  0  0  0  0  0  0  0  0  0  0  0
    6.3010    1.8550   -1.5100 O   0  0  0  0  0  0  0  0  0  0  0  0
    7.4000   -0.0690    0.1980 O   0  0  0  0  0  0  0  0  0  0  0  0
  1  2  1  0
  2  3  1  0
  2 14  2  0
  3  4  2  0
  4  5  1  0
  4 13  1  0
  5  6  2  0
  5  7  1  0
  7  8  1  0
  7 12  1  0
  8  9  1  0
  9 10  1  0
 10 11  1  0
 11 12  1  0
 13 14  1  0
 14 15  1  0
 15 16  1  0
 15 17  2  3
 17 18  1  0
 18 19  1  0
 18 20  1  0
M  END
