
     RDKit          3D

 20 21  0  0  0  0  0  0  0  0999 V2000
   -0.2920    3.3940    2.6740 O   0  0  0  0  0  0  0  0  0  0  0  0
    0.6530    2.2380    2.5640 S   0  0  2  0  0  0  0  0  0  0  0  0
    1.2510    1.8530    3.8730 O   0  0  0  0  0  0  0  0  0  0  0  0
    1.8620    2.5350    1.3380 C   0  0  0  0  0  0  0  0  0  0  0  0
    1.6400    1.6130    0.4110 C   0  0  0  0  0  0  0  0  0  0  0  0
    2.5160    1.5860   -0.7980 C   0  0  0  0  0  0  0  0  0  0  0  0
    2.4100    0.7390   -1.7840 C   0  0  0  0  0  0  0  0  0  0  0  0
    1.4440   -0.3490   -1.9400 C   0  0  0  0  0  0  0  0  0  0  0  0
    2.2620   -2.0120   -2.0590 P   0  0  0  0  0  0  0  0  0  0  0  0
    3.1670   -2.2010   -3.5040 O   0  0  0  0  0  0  0  0  0  0  0  0
    3.1890   -2.3720   -0.6430 O   0  0  0  0  0  0  0  0  0  0  0  0
    0.5860    0.7480    0.6730 N   0  0  0  0  0  0  0  0  0  0  0  0
   -0.0780    0.8800    1.7380 C   0  0  0  0  0  0  0  0  0  0  0  0
   -1.1850    0.0870    2.1680 N   0  0  0  0  0  0  0  0  0  0  0  0
   -2.1620   -0.3730    1.2520 C   0  0  0  0  0  0  0  0  0  0  0  0
   -3.1650   -1.1890    1.7380 C   0  0  0  0  0  0  0  0  0  0  0  0
   -4.1660   -1.6840    0.9210 C   0  0  0  0  0  0  0  0  0  0  0  0
   -4.1980   -1.3770   -0.4230 C   0  0  0  0  0  0  0  0  0  0  0  0
   -3.2050   -0.5640   -0.9220 C   0  0  0  0  0  0  0  0  0  0  0  0
   -2.2000   -0.0710   -0.0850 C   0  0  0  0  0  0  0  0  0  0  0  0
  1  2  2  0
  2  3  2  0
  2  4  1  6
  2 13  1  0
  4  5  2  0
  5  6  1  0
  5 12  1  0
  6  7  2  3
  7  8  1  0
  8  9  1  0
  9 10  1  0
  9 11  1  0
 12 13  2  0
 13 14  1  0
 14 15  1  0
 15 16  2  0
 15 20  1  0
 16 17  1  0
 17 18  2  0
 18 19  1  0
 19 20  2  0
M  END
