
     RDKit          3D

 20 21  0  0  0  0  0  0  0  0999 V2000
    5.1380    1.8750    1.0890 N   0  0  0  0  0  0  0  0  0  0  0  0
    5.4180    0.6880    0.3850 C   0  0  0  0  0  0  0  0  0  0  0  0
    6.6190    0.3550    0.2440 O   0  0  0  0  0  0  0  0  0  0  0  0
    4.3180   -0.1150   -0.1550 C   0  0  0  0  0  0  0  0  0  0  0  0
    3.0760    0.2640    0.0130 C   0  0  0  0  0  0  0  0  0  0  0  0
    1.9950   -0.5290   -0.5200 C   0  0  0  0  0  0  0  0  0  0  0  0
    0.7260   -0.1890   -0.3770 C   0  0  0  0  0  0  0  0  0  0  0  0
    0.3560    0.9760    0.3090 O   0  0  0  0  0  0  0  0  0  0  0  0
   -0.8960    1.5780    0.2410 C   0  0  0  0  0  0  0  0  0  0  0  0
   -1.9560    0.5750   -0.0470 C   0  0  0  0  0  0  0  0  0  0  0  0
   -3.2040    0.8080    0.3460 C   0  0  0  0  0  0  0  0  0  0  0  0
   -3.6690    2.3130    1.2280 P   0  0  0  0  0  0  0  0  0  0  0  0
   -3.2430    3.7480    0.3510 O   0  0  0  0  0  0  0  0  0  0  0  0
   -5.3630    2.3260    1.5690 O   0  0  0  0  0  0  0  0  0  0  0  0
   -1.5680   -0.6190   -0.7510 C   0  0  0  0  0  0  0  0  0  0  0  0
   -0.3230   -1.0300   -0.9380 C   0  0  0  0  0  0  0  0  0  0  0  0
   -0.0550   -2.2260   -1.6460 N   0  0  0  0  0  0  0  0  0  0  0  0
   -0.8110   -3.4260   -1.6450 C   0  0  0  0  0  0  0  0  0  0  0  0
   -2.2260   -3.3500   -1.2210 C   0  0  0  0  0  0  0  0  0  0  0  0
   -2.8440   -1.6580   -1.4490 S   0  0  0  0  0  0  0  0  0  0  0  0
  1  2  1  0
  2  3  2  0
  2  4  1  0
  4  5  2  3
  5  6  1  0
  6  7  2  3
  7  8  1  0
  7 16  1  0
  8  9  1  0
  9 10  1  0
 10 11  2  3
 10 15  1  0
 11 12  1  0
 12 13  1  0
 12 14  1  0
 15 16  2  0
 15 20  1  0
 16 17  1  0
 17 18  1  0
 18 19  1  0
 19 20  1  0
M  END
