
     RDKit          3D

 21 22  0  0  0  0  0  0  0  0999 V2000
    2.5670   -2.1670    2.1470 O   0  0  0  0  0  0  0  0  0  0  0  0
    1.9270   -1.4310    1.2840 C   0  0  0  0  0  0  0  0  0  0  0  0
    2.5840   -0.2090    0.9440 C   0  0  0  0  0  0  0  0  0  0  0  0
    3.7820    0.1170    1.5400 C   0  0  0  0  0  0  0  0  0  0  0  0
    4.4560    1.2860    1.2360 C   0  0  0  0  0  0  0  0  0  0  0  0
    3.9170    2.1490    0.3120 C   0  0  0  0  0  0  0  0  0  0  0  0
    4.6100    3.3360    0.0080 O   0  0  0  0  0  0  0  0  0  0  0  0
    2.7360    1.8610   -0.3000 C   0  0  0  0  0  0  0  0  0  0  0  0
    2.0740    0.6660    0.0300 C   0  0  0  0  0  0  0  0  0  0  0  0
    0.4430   -2.1000    0.7590 S   0  0  1  0  0  0  0  0  0  0  0  0
   -0.1020   -2.9960    1.6620 O   0  0  0  0  0  0  0  0  0  0  0  0
   -0.5430   -1.1400   -0.0040 C   0  0  0  0  0  0  0  0  0  0  0  0
   -1.3990   -0.0530    0.6540 C   0  0  0  0  0  0  0  0  0  0  0  0
   -2.8370   -0.3730    0.6600 C   0  0  0  0  0  0  0  0  0  0  0  0
   -3.5410   -0.5400   -0.6210 C   0  0  0  0  0  0  0  0  0  0  0  0
   -3.5550    0.9230   -1.7220 P   0  0  0  0  0  0  0  0  0  0  0  0
   -4.4010    2.2650   -1.1160 O   0  0  0  0  0  0  0  0  0  0  0  0
   -3.8220    0.5690   -3.3640 O   0  0  0  0  0  0  0  0  0  0  0  0
   -0.5110   -1.4710   -1.3580 N   0  0  0  0  0  0  0  0  0  0  0  0
    0.3440   -2.5150   -1.6670 C   0  0  0  0  0  0  0  0  0  0  0  0
    0.9960   -3.0630   -0.7590 N   0  0  0  0  0  0  0  0  0  0  0  0
  1  2  2  0
  2  3  1  0
 10  2  1  1
  3  4  2  0
  3  9  1  0
  4  5  1  0
  5  6  2  0
  6  7  1  0
  6  8  1  0
  8  9  2  0
 10 11  2  0
 10 12  2  0
 10 21  1  0
 12 13  1  0
 12 19  1  0
 13 14  1  0
 14 15  1  0
 15 16  1  0
 16 17  1  0
 16 18  1  0
 19 20  1  0
 20 21  2  0
M  END
