
     RDKit          3D

 31 33  0  0  0  0  0  0  0  0999 V2000
   -5.0580    3.2580    0.8540 C   0  0  0  0  0  0  0  0  0  0  0  0
   -4.0740    2.1590    0.5670 C   0  0  0  0  0  0  0  0  0  0  0  0
   -4.0370    1.0780    1.4210 C   0  0  0  0  0  0  0  0  0  0  0  0
   -3.1600    0.0350    1.2200 C   0  0  0  0  0  0  0  0  0  0  0  0
   -3.1350   -1.0280    2.0630 N   0  0  0  0  0  0  0  0  0  0  0  0
   -2.2870   -2.0490    1.8660 C   0  0  0  0  0  0  0  0  0  0  0  0
   -2.1930   -3.1650    2.6700 C   0  0  0  0  0  0  0  0  0  0  0  0
   -2.9490   -3.2400    3.6530 O   0  0  0  0  0  0  0  0  0  0  0  0
   -1.2890   -4.1470    2.3730 N   0  0  0  0  0  0  0  0  0  0  0  0
   -0.4710   -4.0670    1.3080 C   0  0  0  0  0  0  0  0  0  0  0  0
    0.3370   -5.0070    1.0940 O   0  0  0  0  0  0  0  0  0  0  0  0
   -0.5250   -2.9800    0.4810 N   0  0  0  0  0  0  0  0  0  0  0  0
   -1.3920   -1.9820    0.7200 C   0  0  0  0  0  0  0  0  0  0  0  0
   -1.4210   -0.9090   -0.1270 N   0  0  0  0  0  0  0  0  0  0  0  0
   -0.5510   -0.8900   -1.2090 C   0  0  0  0  0  0  0  0  0  0  0  0
    0.7880   -0.2670   -0.7750 C   0  0  2  0  0  0  0  0  0  0  0  0
    0.6670    1.0170   -0.3150 O   0  0  0  0  0  0  0  0  0  0  0  0
    1.7550   -0.2730   -1.9230 C   0  0  2  0  0  0  0  0  0  0  0  0
    1.9460   -1.5430   -2.4480 O   0  0  0  0  0  0  0  0  0  0  0  0
    3.0090    0.4400   -1.5420 C   0  0  2  0  0  0  0  0  0  0  0  0
    3.8480    0.6100   -2.6700 O   0  0  0  0  0  0  0  0  0  0  0  0
    3.7840   -0.2940   -0.4650 C   0  0  0  0  0  0  0  0  0  0  0  0
    4.9250    0.4290   -0.0930 O   0  0  0  0  0  0  0  0  0  0  0  0
    5.7860   -0.3770    1.0970 P   0  0  1  0  0  0  0  0  0  0  0  0
    5.1880   -1.7280    1.4370 O   0  0  0  0  0  0  0  0  0  0  0  0
    7.3590   -0.6460    0.5140 O   0  0  0  0  0  0  0  0  0  0  0  0
    5.8890    0.5100    2.5300 O   0  0  0  0  0  0  0  0  0  0  0  0
   -2.2940    0.0830    0.1230 C   0  0  0  0  0  0  0  0  0  0  0  0
   -2.3540    1.1740   -0.7140 C   0  0  0  0  0  0  0  0  0  0  0  0
   -3.2360    2.2380   -0.5230 C   0  0  0  0  0  0  0  0  0  0  0  0
   -3.2860    3.4020   -1.4320 C   0  0  0  0  0  0  0  0  0  0  0  0
  1  2  1  0
  2  3  2  0
  2 30  1  0
  3  4  1  0
  4  5  1  0
  4 28  2  0
  5  6  2  0
  6  7  1  0
  6 13  1  0
  7  8  2  0
  7  9  1  0
  9 10  1  0
 10 11  2  0
 10 12  1  0
 12 13  2  0
 13 14  1  0
 14 15  1  0
 14 28  1  0
 15 16  1  0
 16 17  1  6
 16 18  1  0
 18 19  1  1
 18 20  1  0
 20 21  1  6
 20 22  1  0
 22 23  1  0
 23 24  1  0
 24 25  2  0
 24 26  1  6
 24 27  1  0
 28 29  1  0
 29 30  2  0
 30 31  1  0
M  END
