
     RDKit          3D

 31 33  0  0  0  0  0  0  0  0999 V2000
    7.3160   -1.6380    1.1690 O   0  0  0  0  0  0  0  0  0  0  0  0
    6.3730   -2.1800    0.5610 C   0  0  0  0  0  0  0  0  0  0  0  0
    6.5330   -3.4600    0.0710 O   0  0  0  0  0  0  0  0  0  0  0  0
    5.1250   -1.4620    0.3760 C   0  0  0  0  0  0  0  0  0  0  0  0
    5.0350   -0.1820    0.8940 C   0  0  0  0  0  0  0  0  0  0  0  0
    3.8760    0.5450    0.7490 C   0  0  0  0  0  0  0  0  0  0  0  0
    2.7550    0.0410    0.0860 C   0  0  0  0  0  0  0  0  0  0  0  0
    1.6340    0.8790    0.0040 N   0  0  0  0  0  0  0  0  0  0  0  0
    0.4050    0.5650   -0.6170 C   0  0  0  0  0  0  0  0  0  0  0  0
    0.2440   -0.5460   -1.1600 O   0  0  0  0  0  0  0  0  0  0  0  0
   -0.7180    1.5800   -0.6240 C   0  0  2  0  0  0  0  0  0  0  0  0
   -1.0240    2.0390    0.7750 C   0  0  0  0  0  0  0  0  0  0  0  0
   -2.1400    3.0410    0.7180 C   0  0  0  0  0  0  0  0  0  0  0  0
   -1.7430    4.5280   -0.2890 P   0  0  0  0  0  0  0  0  0  0  0  0
   -1.6840    4.2200   -1.9750 O   0  0  0  0  0  0  0  0  0  0  0  0
   -0.3840    5.3850    0.3090 O   0  0  0  0  0  0  0  0  0  0  0  0
   -1.8710    1.0580   -1.3090 N   0  0  0  0  0  0  0  0  0  0  0  0
   -2.5300   -0.1380   -0.8470 C   0  0  0  0  0  0  0  0  0  0  0  0
   -2.5020   -0.5900    0.3460 N   0  0  0  0  0  0  0  0  0  0  0  0
   -3.2430   -1.7810    0.4920 C   0  0  0  0  0  0  0  0  0  0  0  0
   -3.5220   -2.6270    1.5100 N   0  0  0  0  0  0  0  0  0  0  0  0
   -4.2840   -3.7080    1.3130 C   0  0  0  0  0  0  0  0  0  0  0  0
   -4.5200   -4.4690    2.2800 O   0  0  0  0  0  0  0  0  0  0  0  0
   -4.8090   -4.0290    0.1540 O   0  0  0  0  0  0  0  0  0  0  0  0
   -4.5700   -3.2420   -0.8690 C   0  0  0  0  0  0  0  0  0  0  0  0
   -5.0650   -3.5330   -1.9890 O   0  0  0  0  0  0  0  0  0  0  0  0
   -3.7940   -2.1100   -0.7410 C   0  0  0  0  0  0  0  0  0  0  0  0
   -3.3440   -1.0520   -1.6410 C   0  0  0  0  0  0  0  0  0  0  0  0
   -3.6220   -0.9720   -2.8570 O   0  0  0  0  0  0  0  0  0  0  0  0
    2.8780   -1.2230   -0.4110 C   0  0  0  0  0  0  0  0  0  0  0  0
    4.0450   -1.9850   -0.2780 C   0  0  0  0  0  0  0  0  0  0  0  0
  1  2  2  0
  2  3  1  0
  2  4  1  0
  4  5  2  0
  4 31  1  0
  5  6  1  0
  6  7  2  0
  7  8  1  0
  7 30  1  0
  8  9  1  0
  9 10  2  0
  9 11  1  0
 11 12  1  1
 11 17  1  0
 12 13  1  0
 13 14  1  0
 14 15  1  0
 14 16  1  0
 17 18  1  0
 18 19  2  0
 18 28  1  0
 19 20  1  0
 20 21  1  0
 20 27  2  0
 21 22  1  0
 22 23  2  0
 22 24  1  0
 24 25  1  0
 25 26  2  0
 25 27  1  0
 27 28  1  0
 28 29  2  0
 30 31  2  0
M  END
