
     RDKit          3D

 31 32  0  0  0  0  0  0  0  0999 V2000
    3.9770   -1.8120   -2.0090 C   0  0  0  0  0  0  0  0  0  0  0  0
    5.2790   -1.9570   -1.3890 C   0  0  0  0  0  0  0  0  0  0  0  0
    5.8520   -1.2370   -0.4230 C   0  0  0  0  0  0  0  0  0  0  0  0
    7.2000   -1.6970   -0.0610 C   0  0  0  0  0  0  0  0  0  0  0  0
    8.0360   -1.2860    0.7880 C   0  0  0  0  0  0  0  0  0  0  0  0
    8.0120   -0.2830    1.6760 O   0  0  0  0  0  0  0  0  0  0  0  0
    9.3780    0.7360    2.0980 P   0  0  0  0  0  0  0  0  0  0  0  0
    9.9590    0.2510    3.6780 O   0  0  0  0  0  0  0  0  0  0  0  0
    8.9890    2.4100    2.0760 O   0  0  0  0  0  0  0  0  0  0  0  0
    5.2820   -0.1740    0.2080 C   0  0  0  0  0  0  0  0  0  0  0  0
    6.0160    0.4450    1.1310 O   0  0  0  0  0  0  0  0  0  0  0  0
    4.1490    0.4940    0.1870 N   0  0  0  0  0  0  0  0  0  0  0  0
    2.9630    0.9490    0.0620 C   0  0  0  0  0  0  0  0  0  0  0  0
    3.1390    2.2340    0.6720 O   0  0  0  0  0  0  0  0  0  0  0  0
    1.6810    1.0900   -0.2250 N   0  0  0  0  0  0  0  0  0  0  0  0
    0.7500    0.1620   -0.6050 C   0  0  0  0  0  0  0  0  0  0  0  0
    1.1930   -0.9430   -0.8790 O   0  0  0  0  0  0  0  0  0  0  0  0
   -0.6490    0.5520   -0.6380 C   0  0  0  0  0  0  0  0  0  0  0  0
   -1.0880    1.7050   -0.4350 O   0  0  0  0  0  0  0  0  0  0  0  0
   -1.5680   -0.3980   -0.9040 O   0  0  0  0  0  0  0  0  0  0  0  0
   -2.9150   -0.2560   -0.9720 C   0  0  0  0  0  0  0  0  0  0  0  0
   -3.6540    0.2310    0.2200 C   0  0  0  0  0  0  0  0  0  0  0  0
   -5.0830    0.3400    0.0220 N   0  0  0  0  0  0  0  0  0  0  0  0
   -5.9590   -0.7840    0.3110 C   0  0  0  0  0  0  0  0  0  0  0  0
   -7.2320   -0.7760   -0.4600 C   0  0  1  0  0  0  0  0  0  0  0  0
   -8.3220   -0.2320    0.4750 C   0  0  0  0  0  0  0  0  0  0  0  0
   -8.0280    1.2570    0.3950 C   0  0  0  0  0  0  0  0  0  0  0  0
   -7.1400    1.4330   -0.8370 C   0  0  2  0  0  0  0  0  0  0  0  0
   -7.2910    0.1540   -1.5410 N   0  0  0  0  0  0  0  0  0  0  0  0
   -5.7070    1.5220   -0.4570 C   0  0  0  0  0  0  0  0  0  0  0  0
   -5.0220    2.5610   -0.5300 O   0  0  0  0  0  0  0  0  0  0  0  0
  1  2  1  0
  2  3  2  3
  3  4  1  0
  3 10  1  0
  4  5  2  3
  5  6  1  0
  6  7  1  0
  7  8  1  0
  7  9  1  0
 10 11  2  0
 10 12  1  0
 12 13  1  0
 13 14  2  0
 13 15  1  0
 15 16  1  0
 16 17  2  0
 16 18  1  0
 18 19  2  0
 18 20  1  0
 20 21  1  0
 21 22  1  0
 22 23  1  0
 23 24  1  0
 23 30  1  0
 25 24  1  1
 25 26  1  0
 25 29  1  0
 26 27  1  0
 28 27  1  1
 28 29  1  0
 28 30  1  0
 30 31  2  0
M  END
