
     RDKit          3D

 30 32  0  0  0  0  0  0  0  0999 V2000
   -5.4600   -2.9470    1.6420 O   0  0  0  0  0  0  0  0  0  0  0  0
   -4.7280   -2.0450    1.2200 C   0  0  0  0  0  0  0  0  0  0  0  0
   -4.0530   -1.2010    2.1660 N   0  0  0  0  0  0  0  0  0  0  0  0
   -3.1450   -0.2010    1.7220 C   0  0  0  0  0  0  0  0  0  0  0  0
   -2.7290    0.6710    2.4840 O   0  0  0  0  0  0  0  0  0  0  0  0
   -2.7540   -0.3120    0.2540 C   0  0  2  0  0  0  0  0  0  0  0  0
   -2.0090    0.8670   -0.1260 C   0  0  0  0  0  0  0  0  0  0  0  0
   -2.8060    1.7950   -0.6480 O   0  0  0  0  0  0  0  0  0  0  0  0
   -0.6740    1.2170   -0.0630 N   0  0  0  0  0  0  0  0  0  0  0  0
   -0.3200    2.5630   -0.5610 C   0  0  0  0  0  0  0  0  0  0  0  0
    0.5860    3.2840    0.3350 C   0  0  0  0  0  0  0  0  0  0  0  0
    1.4130    2.5470    1.1440 O   0  0  0  0  0  0  0  0  0  0  0  0
    0.9610    1.3540    1.5220 C   0  0  0  0  0  0  0  0  0  0  0  0
    0.4560    0.4860    0.3580 C   0  0  1  0  0  0  0  0  0  0  0  0
    0.3800   -0.9060    0.8500 C   0  0  0  0  0  0  0  0  0  0  0  0
   -0.2950   -1.1600    2.0010 O   0  0  0  0  0  0  0  0  0  0  0  0
    1.5050    0.5290   -0.7730 C   0  0  0  0  0  0  0  0  0  0  0  0
    2.6690   -0.1810   -0.5010 N   0  0  0  0  0  0  0  0  0  0  0  0
    3.6680    0.2440    0.3670 C   0  0  0  0  0  0  0  0  0  0  0  0
    4.7250   -0.8310    0.5760 C   0  0  0  0  0  0  0  0  0  0  0  0
    5.4090   -1.1540   -0.7070 C   0  0  0  0  0  0  0  0  0  0  0  0
    6.1590    0.4550   -1.3320 P   0  0  0  0  0  0  0  0  0  0  0  0
    7.4340    0.9590   -0.2970 O   0  0  0  0  0  0  0  0  0  0  0  0
    6.6530    0.2740   -2.9680 O   0  0  0  0  0  0  0  0  0  0  0  0
   -4.0460   -0.4830   -0.3830 N   0  0  0  0  0  0  0  0  0  0  0  0
   -4.9490    0.3000   -1.0610 C   0  0  0  0  0  0  0  0  0  0  0  0
   -5.1710    1.5480   -1.0830 O   0  0  0  0  0  0  0  0  0  0  0  0
   -5.7910   -0.6200   -1.9160 C   0  0  0  0  0  0  0  0  0  0  0  0
   -5.8380   -1.8480   -1.0050 C   0  0  0  0  0  0  0  0  0  0  0  0
   -4.5660   -1.8550   -0.2490 C   0  0  2  0  0  0  0  0  0  0  0  0
  1  2  2  0
  2  3  1  0
  2 30  1  0
  3  4  1  0
  4  5  2  0
  4  6  1  0
  6  7  1  6
  6 25  1  0
  7  8  2  0
  7  9  1  0
  9 10  1  0
  9 14  1  0
 10 11  1  0
 11 12  1  0
 12 13  1  0
 13 14  1  0
 14 15  1  1
 14 17  1  0
 15 16  1  0
 17 18  1  0
 18 19  1  0
 19 20  1  0
 20 21  1  0
 21 22  1  0
 22 23  1  0
 22 24  1  0
 25 26  1  0
 25 30  1  0
 26 27  2  0
 26 28  1  0
 28 29  1  0
 30 29  1  6
M  END
