
     RDKit          3D

 30 32  0  0  0  0  0  0  0  0999 V2000
   -0.3090   -6.3270    0.3940 O   0  0  0  0  0  0  0  0  0  0  0  0
    0.2530   -5.4270   -0.2750 C   0  0  0  0  0  0  0  0  0  0  0  0
    1.2940   -5.8270   -1.1210 O   0  0  0  0  0  0  0  0  0  0  0  0
   -0.1170   -4.0720   -0.2030 N   0  0  0  0  0  0  0  0  0  0  0  0
   -1.3440   -3.7130   -0.0940 C   0  0  0  0  0  0  0  0  0  0  0  0
   -2.3720   -4.6420   -0.0420 O   0  0  0  0  0  0  0  0  0  0  0  0
   -3.7310   -4.2630    0.0270 C   0  0  0  0  0  0  0  0  0  0  0  0
   -3.8310   -2.9730    0.7960 C   0  0  0  0  0  0  0  0  0  0  0  0
   -3.0400   -1.9800    0.0940 N   0  0  0  0  0  0  0  0  0  0  0  0
   -1.6440   -2.2610   -0.0250 C   0  0  0  0  0  0  0  0  0  0  0  0
   -0.6960   -1.3610   -0.0790 C   0  0  0  0  0  0  0  0  0  0  0  0
   -0.8730    0.0840   -0.0190 C   0  0  0  0  0  0  0  0  0  0  0  0
   -1.9950    0.6150    0.0980 N   0  0  0  0  0  0  0  0  0  0  0  0
   -2.5390    1.7890    0.1830 O   0  0  0  0  0  0  0  0  0  0  0  0
   -2.0970    3.1000    0.1740 C   0  0  0  0  0  0  0  0  0  0  0  0
   -3.2530    4.0900    0.3150 C   0  0  2  0  0  0  0  0  0  0  0  0
   -4.3090    4.0160   -0.7880 C   0  0  0  0  0  0  0  0  0  0  0  0
   -3.3620    5.1790   -0.7210 C   0  0  0  0  0  0  0  0  0  0  0  0
    0.3590    0.9060   -0.1030 C   0  0  1  0  0  0  0  0  0  0  0  0
    1.2210    0.5040    1.0730 C   0  0  0  0  0  0  0  0  0  0  0  0
    2.2530    1.3410    1.3500 O   0  0  0  0  0  0  0  0  0  0  0  0
    2.8220    2.0070    0.3050 C   0  0  0  0  0  0  0  0  0  0  0  0
    3.4750    1.1550   -0.7320 C   0  0  1  0  0  0  0  0  0  0  0  0
    4.4230    0.1660   -0.1220 C   0  0  0  0  0  0  0  0  0  0  0  0
    5.7310    1.1330    0.7960 P   0  0  0  0  0  0  0  0  0  0  0  0
    5.6160    0.8420    2.5180 O   0  0  0  0  0  0  0  0  0  0  0  0
    7.3160    0.7000    0.2220 O   0  0  0  0  0  0  0  0  0  0  0  0
    2.4200    0.5150   -1.5600 C   0  0  0  0  0  0  0  0  0  0  0  0
    2.7960   -0.0790   -2.5910 O   0  0  0  0  0  0  0  0  0  0  0  0
    1.0130    0.4730   -1.3530 N   0  0  0  0  0  0  0  0  0  0  0  0
  1  2  2  0
  2  3  1  0
  2  4  1  0
  4  5  2  3
  5  6  1  0
  5 10  1  0
  6  7  1  0
  7  8  1  0
  8  9  1  0
  9 10  1  0
 10 11  2  3
 11 12  1  0
 12 13  2  3
 19 12  1  1
 13 14  1  0
 14 15  1  0
 16 15  1  6
 16 17  1  0
 16 18  1  0
 17 18  1  0
 19 20  1  0
 19 30  1  0
 20 21  1  0
 21 22  1  0
 22 23  1  0
 23 24  1  1
 23 28  1  0
 24 25  1  0
 25 26  1  0
 25 27  1  0
 28 29  2  0
 28 30  1  0
M  END
