
     RDKit          3D

 21 22  0  0  0  0  0  0  0  0999 V2000
    5.5750    2.7910    0.6280 O   0  0  0  0  0  0  0  0  0  0  0  0
    5.4750    1.4570    1.4260 P   0  0  0  0  0  0  0  0  0  0  0  0
    3.9320    0.5220    1.2240 N   0  0  0  0  0  0  0  0  0  0  0  0
    3.6010   -0.1200    0.0020 C   0  0  0  0  0  0  0  0  0  0  0  0
    4.4120   -0.0250   -0.9490 O   0  0  0  0  0  0  0  0  0  0  0  0
    2.3080   -0.8800   -0.1040 C   0  0  1  0  0  0  0  0  0  0  0  0
    1.6360   -0.8500    1.0830 O   0  0  0  0  0  0  0  0  0  0  0  0
    1.5420   -0.5000   -1.2880 C   0  0  0  0  0  0  0  0  0  0  0  0
    2.1140   -0.3590   -2.5070 N   0  0  0  0  0  0  0  0  0  0  0  0
    1.1910   -0.0080   -3.3980 N   0  0  0  0  0  0  0  0  0  0  0  0
    0.0390    0.0770   -2.7620 N   0  0  0  0  0  0  0  0  0  0  0  0
    0.2340   -0.2280   -1.4350 C   0  0  0  0  0  0  0  0  0  0  0  0
   -0.7870   -0.2470   -0.4520 N   0  0  0  0  0  0  0  0  0  0  0  0
   -0.7490    0.7890    0.5420 C   0  0  0  0  0  0  0  0  0  0  0  0
   -2.0740    1.5220    0.4310 C   0  0  0  0  0  0  0  0  0  0  0  0
   -1.9000    2.7020    0.1070 O   0  0  0  0  0  0  0  0  0  0  0  0
   -3.4410    1.0450    0.6430 C   0  0  0  0  0  0  0  0  0  0  0  0
   -3.8850   -0.0030   -0.3600 C   0  0  0  0  0  0  0  0  0  0  0  0
   -3.2020   -1.3330   -0.1660 C   0  0  0  0  0  0  0  0  0  0  0  0
   -1.7610   -1.2700   -0.5680 C   0  0  0  0  0  0  0  0  0  0  0  0
   -1.3060   -2.3310   -1.1230 O   0  0  0  0  0  0  0  0  0  0  0  0
  1  2  2  0
  2  3  1  0
  3  4  1  0
  4  5  2  0
  4  6  1  0
  6  7  1  1
  6  8  1  0
  8  9  1  0
  8 12  2  0
  9 10  1  0
 10 11  2  0
 11 12  1  0
 12 13  1  0
 13 14  1  0
 13 20  1  0
 14 15  1  0
 15 16  2  0
 15 17  1  0
 17 18  1  0
 18 19  1  0
 19 20  1  0
 20 21  2  0
M  END
