
     RDKit          3D

 21 22  0  0  0  0  0  0  0  0999 V2000
    4.5070    2.3230    0.8940 N   0  0  0  0  0  0  0  0  0  0  0  0
    4.0780    1.3840   -0.0850 C   0  0  0  0  0  0  0  0  0  0  0  0
    4.8940    1.0600   -1.0040 O   0  0  0  0  0  0  0  0  0  0  0  0
    2.8060    0.7840   -0.1100 N   0  0  0  0  0  0  0  0  0  0  0  0
    2.4430   -0.1600   -1.1360 C   0  0  0  0  0  0  0  0  0  0  0  0
    1.2430   -0.7030   -1.1290 C   0  0  0  0  0  0  0  0  0  0  0  0
    0.3370   -0.3960   -0.1800 N   0  0  0  0  0  0  0  0  0  0  0  0
   -0.8890   -0.9640   -0.1890 C   0  0  0  0  0  0  0  0  0  0  0  0
   -1.1550   -1.8510   -1.1990 C   0  0  0  0  0  0  0  0  0  0  0  0
   -0.2640   -2.1600   -2.1440 O   0  0  0  0  0  0  0  0  0  0  0  0
    0.9180   -1.6040   -2.1220 C   0  0  0  0  0  0  0  0  0  0  0  0
    1.7710   -1.9000   -3.0260 O   0  0  0  0  0  0  0  0  0  0  0  0
   -2.3530   -2.4430   -1.2570 C   0  0  0  0  0  0  0  0  0  0  0  0
   -3.3750   -2.2040   -0.3250 N   0  0  0  0  0  0  0  0  0  0  0  0
   -3.1250   -1.2900    0.7300 C   0  0  0  0  0  0  0  0  0  0  0  0
   -4.0060   -1.0400    1.5920 O   0  0  0  0  0  0  0  0  0  0  0  0
   -1.8610   -0.6620    0.7950 N   0  0  0  0  0  0  0  0  0  0  0  0
   -1.5910    0.2670    1.8670 C   0  0  0  0  0  0  0  0  0  0  0  0
   -1.9660    1.6940    1.5270 C   0  0  0  0  0  0  0  0  0  0  0  0
   -1.0120    2.2720    0.0490 P   0  0  0  0  0  0  0  0  0  0  0  0
   -1.7530    3.2050   -0.9620 O   0  0  0  0  0  0  0  0  0  0  0  0
  1  2  1  0
  2  3  2  0
  2  4  1  0
  4  5  1  0
  5  6  2  3
  6  7  1  0
  6 11  1  0
  7  8  2  0
  8  9  1  0
  8 17  1  0
  9 10  1  0
  9 13  2  0
 10 11  1  0
 11 12  2  0
 13 14  1  0
 14 15  1  0
 15 16  2  0
 15 17  1  0
 17 18  1  0
 18 19  1  0
 19 20  1  0
 20 21  2  0
M  END
