
     RDKit          3D

 16 15  0  0  0  0  0  0  0  0999 V2000
    1.5890    0.0140    2.1760 O   0  0  0  0  0  0  0  0  0  0  0  0
    2.5560    0.2590    1.3980 C   0  0  0  0  0  0  0  0  0  0  0  0
    3.4880    1.2270    1.6630 O   0  0  0  0  0  0  0  0  0  0  0  0
    2.6380   -0.5610    0.1690 C   0  0  0  0  0  0  0  0  0  0  0  0
    1.6820   -0.0440   -0.8710 C   0  0  2  0  0  0  0  0  0  0  0  0
    0.2880   -0.0420   -0.4030 N   0  0  0  0  0  0  0  0  0  0  0  0
   -0.6050    0.9920   -0.7560 C   0  0  0  0  0  0  0  0  0  0  0  0
   -0.0400    1.8820   -1.5240 O   0  0  0  0  0  0  0  0  0  0  0  0
   -2.0120    1.1620   -0.3800 C   0  0  0  0  0  0  0  0  0  0  0  0
   -2.5880    0.1370    0.8380 P   0  0  0  0  0  0  0  0  0  0  0  0
   -1.6690   -0.9390    1.6750 O   0  0  0  0  0  0  0  0  0  0  0  0
   -4.1650    0.4690    1.4670 O   0  0  0  0  0  0  0  0  0  0  0  0
   -3.2940   -0.9570    0.0290 O   0  0  0  0  0  0  0  0  0  0  0  0
    1.7190   -1.0650   -1.9810 C   0  0  0  0  0  0  0  0  0  0  0  0
    0.6560   -1.6940   -2.2100 O   0  0  0  0  0  0  0  0  0  0  0  0
    2.8560   -1.3130   -2.7270 O   0  0  0  0  0  0  0  0  0  0  0  0
  1  2  2  0
  2  3  1  0
  2  4  1  0
  5  4  1  1
  5  6  1  0
  5 14  1  0
  6  7  1  0
  7  8  2  0
  7  9  1  0
  9 10  1  0
 10 11  1  0
 10 12  1  0
 10 13  1  0
 14 15  2  0
 14 16  1  0
M  END
