
     RDKit          3D

 21 22  0  0  0  0  0  0  0  0999 V2000
    2.8010    0.0320    0.3350 N   0  0  0  0  0  0  0  0  0  0  0  0
    3.0570    0.3160   -0.8950 C   0  0  0  0  0  0  0  0  0  0  0  0
    2.0450    0.9300   -1.6720 N   0  0  0  0  0  0  0  0  0  0  0  0
    0.7500    1.0820   -1.1120 C   0  0  0  0  0  0  0  0  0  0  0  0
    0.0480    0.0140   -0.8370 C   0  0  0  0  0  0  0  0  0  0  0  0
   -1.3030    0.1590   -0.2530 C   0  0  2  0  0  0  0  0  0  0  0  0
   -2.1600    0.5930   -1.2260 O   0  0  0  0  0  0  0  0  0  0  0  0
   -3.4620    0.7980   -0.8560 C   0  0  0  0  0  0  0  0  0  0  0  0
   -4.1600   -0.3980   -0.3290 C   0  0  0  0  0  0  0  0  0  0  0  0
   -4.8090   -1.2850   -1.0900 N   0  0  0  0  0  0  0  0  0  0  0  0
   -5.3040   -2.2080   -0.2920 N   0  0  0  0  0  0  0  0  0  0  0  0
   -4.9600   -1.8900    0.9600 C   0  0  0  0  0  0  0  0  0  0  0  0
   -4.2680   -0.7890    0.9040 O   0  0  0  0  0  0  0  0  0  0  0  0
   -1.1780    1.0780    0.9340 C   0  0  0  0  0  0  0  0  0  0  0  0
   -1.1970    0.2060    2.0090 O   0  0  0  0  0  0  0  0  0  0  0  0
   -1.0870   -1.0810    1.4960 C   0  0  0  0  0  0  0  0  0  0  0  0
   -1.7330   -1.0620    0.2600 O   0  0  0  0  0  0  0  0  0  0  0  0
    4.3460   -0.0050   -1.3990 N   0  0  0  0  0  0  0  0  0  0  0  0
    5.6440   -0.5400   -0.2820 P   0  0  0  0  0  0  0  0  0  0  0  0
    6.6580    0.8400    0.0350 O   0  0  0  0  0  0  0  0  0  0  0  0
    4.9700   -1.1860    1.1680 O   0  0  0  0  0  0  0  0  0  0  0  0
  1  2  2  0
  2  3  1  0
  2 18  1  0
  3  4  1  0
  4  5  2  3
  5  6  1  0
  6  7  1  6
  6 14  1  0
  6 17  1  0
  7  8  1  0
  8  9  1  0
  9 10  2  0
  9 13  1  0
 10 11  1  0
 11 12  2  0
 12 13  1  0
 14 15  1  0
 15 16  1  0
 16 17  1  0
 18 19  1  0
 19 20  1  0
 19 21  1  0
M  END
