
     RDKit          3D

 21 21  0  0  0  0  0  0  0  0999 V2000
   -4.7530    2.5210   -0.4290 C   0  0  0  0  0  0  0  0  0  0  0  0
   -3.8700    1.4220    0.1210 C   0  0  1  0  0  0  0  0  0  0  0  0
   -4.8380    0.2480    1.1490 P   0  0  0  0  0  0  0  0  0  0  0  0
   -3.2630    0.7700   -0.9890 O   0  0  0  0  0  0  0  0  0  0  0  0
   -2.3850   -0.2970   -0.8160 C   0  0  0  0  0  0  0  0  0  0  0  0
   -2.7600   -1.4900   -1.2360 C   0  0  0  0  0  0  0  0  0  0  0  0
   -4.0150   -1.6830   -1.8440 O   0  0  0  0  0  0  0  0  0  0  0  0
   -1.8800   -2.5900   -1.0690 N   0  0  0  0  0  0  0  0  0  0  0  0
   -0.6450   -2.3800   -0.4670 N   0  0  0  0  0  0  0  0  0  0  0  0
   -0.2350   -1.1010   -0.0120 C   0  0  0  0  0  0  0  0  0  0  0  0
    1.0160   -0.8960    0.5970 O   0  0  0  0  0  0  0  0  0  0  0  0
    2.3130   -2.0430    0.4710 P   0  0  0  0  0  0  0  0  0  0  0  0
    3.6560   -1.8440   -0.3900 N   0  0  0  0  0  0  0  0  0  0  0  0
    3.9610   -0.6990   -1.1660 C   0  0  0  0  0  0  0  0  0  0  0  0
    4.7360    0.2750   -0.7200 C   0  0  0  0  0  0  0  0  0  0  0  0
    5.0210    1.4280   -1.5500 C   0  0  0  0  0  0  0  0  0  0  0  0
    5.7500    2.3420   -1.1260 O   0  0  0  0  0  0  0  0  0  0  0  0
    5.2870    0.1550    0.6180 C   0  0  0  0  0  0  0  0  0  0  0  0
    6.1270    1.1510    1.1760 N   0  0  0  0  0  0  0  0  0  0  0  0
    5.0200   -0.8530    1.3050 O   0  0  0  0  0  0  0  0  0  0  0  0
   -1.0870   -0.1050   -0.1880 C   0  0  0  0  0  0  0  0  0  0  0  0
  2  1  1  6
  2  3  1  0
  2  4  1  0
  4  5  1  0
  5  6  2  0
  5 21  1  0
  6  7  1  0
  6  8  1  0
  8  9  1  0
  9 10  1  0
 10 11  1  0
 10 21  2  0
 11 12  1  0
 12 13  2  3
 13 14  1  0
 14 15  2  3
 15 16  1  0
 15 18  1  0
 16 17  2  0
 18 19  1  0
 18 20  2  0
M  END
