
     RDKit          3D

 21 23  0  0  0  0  0  0  0  0999 V2000
    5.3860   -0.2140    1.1200 C   0  0  0  0  0  0  0  0  0  0  0  0
    4.4160   -0.9010    0.1650 C   0  0  2  0  0  0  0  0  0  0  0  0
    5.1030   -1.0990   -1.0230 O   0  0  0  0  0  0  0  0  0  0  0  0
    3.1890   -0.0690   -0.0240 C   0  0  0  0  0  0  0  0  0  0  0  0
    2.0030   -0.5070    0.2850 C   0  0  0  0  0  0  0  0  0  0  0  0
    0.9810    0.1540   -0.2180 C   0  0  0  0  0  0  0  0  0  0  0  0
   -0.4180   -0.1840    0.1030 C   0  0  0  0  0  0  0  0  0  0  0  0
   -1.3980    0.0900   -0.9970 C   0  0  1  0  0  0  0  0  0  0  0  0
   -2.3850    0.9780   -0.6330 O   0  0  0  0  0  0  0  0  0  0  0  0
   -3.9150    0.2260   -0.7080 P   0  0  0  0  0  0  0  0  0  0  0  0
   -5.2250    1.2890    0.0770 C   0  0  0  0  0  0  0  0  0  0  0  0
   -5.8430    2.1630   -0.5340 O   0  0  0  0  0  0  0  0  0  0  0  0
   -5.3360    0.9100    1.3870 O   0  0  0  0  0  0  0  0  0  0  0  0
   -5.5980   -0.4200    1.5940 N   0  0  0  0  0  0  0  0  0  0  0  0
   -4.1360   -1.3040    0.9300 P   0  0  0  0  0  0  0  0  0  0  0  0
   -2.8100   -0.9700    2.0950 N   0  0  0  0  0  0  0  0  0  0  0  0
   -0.6970    0.4980   -2.2780 C   0  0  0  0  0  0  0  0  0  0  0  0
    0.2150    1.5790   -2.0250 O   0  0  0  0  0  0  0  0  0  0  0  0
    1.2280    1.2650   -1.1300 C   0  0  0  0  0  0  0  0  0  0  0  0
    2.3700    1.8840   -1.0480 C   0  0  0  0  0  0  0  0  0  0  0  0
    3.3740    1.2350   -0.5610 N   0  0  0  0  0  0  0  0  0  0  0  0
  2  1  1  1
  2  3  1  0
  2  4  1  0
  4  5  2  0
  4 21  1  0
  5  6  2  0
  6  7  1  0
  6 19  1  0
  7  8  1  0
  8  9  1  1
  8 17  1  0
  9 10  1  0
 10 11  1  0
 10 15  1  0
 11 12  2  0
 11 13  1  0
 13 14  1  0
 14 15  1  0
 15 16  1  0
 17 18  1  0
 18 19  1  0
 19 20  2  0
 20 21  2  0
M  END
