
     RDKit          3D

 21 23  0  0  0  0  0  0  0  0999 V2000
   -2.1520   -2.5720   -1.6340 C   0  0  0  0  0  0  0  0  0  0  0  0
   -1.8890   -1.2990   -1.3100 C   0  0  0  0  0  0  0  0  0  0  0  0
   -1.7330   -0.4650   -2.4040 O   0  0  0  0  0  0  0  0  0  0  0  0
   -0.4010    0.8110   -2.4520 P   0  0  0  0  0  0  0  0  0  0  0  0
   -1.1010    2.2910   -2.9650 O   0  0  0  0  0  0  0  0  0  0  0  0
    0.0110    0.7800   -0.7330 N   0  0  0  0  0  0  0  0  0  0  0  0
    1.2690    0.4320   -0.3240 C   0  0  0  0  0  0  0  0  0  0  0  0
    1.5360   -0.4790    0.6860 C   0  0  0  0  0  0  0  0  0  0  0  0
    2.9780   -0.4170    0.9390 C   0  0  0  0  0  0  0  0  0  0  0  0
    3.5350    0.6010    0.0100 C   0  0  0  0  0  0  0  0  0  0  0  0
    2.4580    0.9330   -0.9750 C   0  0  0  0  0  0  0  0  0  0  0  0
    0.5740   -1.3190    1.3310 N   0  0  0  0  0  0  0  0  0  0  0  0
   -0.7230   -1.6870    0.8700 C   0  0  0  0  0  0  0  0  0  0  0  0
   -1.0420   -2.9030    1.1530 O   0  0  0  0  0  0  0  0  0  0  0  0
   -1.8140   -1.0200    0.1400 C   0  0  2  0  0  0  0  0  0  0  0  0
   -3.0550   -1.1570    0.7650 N   0  0  0  0  0  0  0  0  0  0  0  0
   -3.4180   -2.1010    1.4120 O   0  0  0  0  0  0  0  0  0  0  0  0
   -1.4900    0.8950    0.3000 P   0  0  0  0  0  0  0  0  0  0  0  0
   -1.1380    1.2520    1.9870 N   0  0  0  0  0  0  0  0  0  0  0  0
   -1.7400    2.2080    2.5790 C   0  0  0  0  0  0  0  0  0  0  0  0
   -2.3790    3.6080    3.1940 P   0  0  0  0  0  0  0  0  0  0  0  0
  1  2  2  0
  2  3  1  0
  2 15  1  0
  3  4  1  0
  4  5  1  0
  4  6  1  0
  6  7  1  0
  6 18  1  0
  7  8  2  0
  7 11  1  0
  8  9  1  0
  8 12  1  0
  9 10  1  0
 10 11  1  0
 12 13  1  0
 13 14  2  0
 13 15  1  0
 15 16  1  1
 15 18  1  0
 16 17  2  0
 18 19  1  0
 19 20  2  0
 20 21  2  0
M  END
