
     RDKit          3D

 21 22  0  0  0  0  0  0  0  0999 V2000
    5.7090   -0.1980    0.0070 C   0  0  0  0  0  0  0  0  0  0  0  0
    4.5130   -0.1230    0.9010 C   0  0  0  0  0  0  0  0  0  0  0  0
    3.2630   -0.6720    0.2100 C   0  0  0  0  0  0  0  0  0  0  0  0
    2.9620    0.0910   -1.0120 C   0  0  0  0  0  0  0  0  0  0  0  0
    3.9090    0.1060   -2.0220 O   0  0  0  0  0  0  0  0  0  0  0  0
    1.8450    0.7630   -1.2080 C   0  0  0  0  0  0  0  0  0  0  0  0
    0.5010    0.8340    0.0380 P   0  0  0  0  0  0  0  0  0  0  0  0
    0.6590    2.4830    0.6910 O   0  0  0  0  0  0  0  0  0  0  0  0
   -0.5890    2.8200    1.2040 O   0  0  0  0  0  0  0  0  0  0  0  0
   -1.7640    2.0140    1.1210 C   0  0  0  0  0  0  0  0  0  0  0  0
   -2.2040    1.0880    1.9190 C   0  0  0  0  0  0  0  0  0  0  0  0
   -2.2000   -0.1630    1.1910 O   0  0  0  0  0  0  0  0  0  0  0  0
   -2.0740   -0.1470   -0.2180 C   0  0  1  0  0  0  0  0  0  0  0  0
   -2.1540   -1.5220   -0.6560 N   0  0  0  0  0  0  0  0  0  0  0  0
   -3.3720   -2.1630   -0.2810 C   0  0  0  0  0  0  0  0  0  0  0  0
   -3.5080   -2.3890    1.2210 C   0  0  0  0  0  0  0  0  0  0  0  0
   -3.2710    0.5530   -0.7720 N   0  0  0  0  0  0  0  0  0  0  0  0
   -2.8550    2.2980   -0.3650 P   0  0  0  0  0  0  0  0  0  0  0  0
   -4.2280    3.2310   -0.0140 O   0  0  0  0  0  0  0  0  0  0  0  0
   -0.9980    0.5690   -0.7690 N   0  0  0  0  0  0  0  0  0  0  0  0
   -0.7650    0.0300   -2.1110 C   0  0  0  0  0  0  0  0  0  0  0  0
  1  2  1  0
  2  3  1  0
  3  4  1  0
  4  5  1  0
  4  6  2  3
  6  7  1  0
  7  8  1  0
  7 20  1  0
  8  9  1  0
  9 10  1  0
 10 11  2  0
 10 18  1  0
 11 12  1  0
 12 13  1  0
 13 14  1  6
 13 17  1  0
 13 20  1  0
 14 15  1  0
 15 16  1  0
 17 18  1  0
 18 19  1  0
 20 21  1  0
M  END
