
     RDKit          3D

 21 22  0  0  0  0  0  0  0  0999 V2000
   -6.2580    0.1970   -2.1710 C   0  0  0  0  0  0  0  0  0  0  0  0
   -4.7850    0.2690   -2.1420 C   0  0  0  0  0  0  0  0  0  0  0  0
   -4.1570    0.6960   -1.0690 C   0  0  0  0  0  0  0  0  0  0  0  0
   -4.9320    1.1090    0.1250 C   0  0  0  0  0  0  0  0  0  0  0  0
   -2.6620    0.7810   -1.0080 C   0  0  0  0  0  0  0  0  0  0  0  0
   -2.0490   -0.2830    0.3450 P   0  0  0  0  0  0  0  0  0  0  0  0
   -0.9740   -1.6180    0.2240 C   0  0  1  0  0  0  0  0  0  0  0  0
   -0.4470   -2.0470   -1.0620 N   0  0  0  0  0  0  0  0  0  0  0  0
   -0.3110   -0.3510    0.8320 C   0  0  2  0  0  0  0  0  0  0  0  0
   -0.0710   -0.3430    2.3250 C   0  0  0  0  0  0  0  0  0  0  0  0
    1.3640   -0.4080    2.7110 C   0  0  0  0  0  0  0  0  0  0  0  0
    0.7290    0.3250   -0.0050 C   0  0  0  0  0  0  0  0  0  0  0  0
    0.6530    0.3770   -1.2520 O   0  0  0  0  0  0  0  0  0  0  0  0
    1.8240    0.9240    0.5880 O   0  0  0  0  0  0  0  0  0  0  0  0
    2.7730    1.5390   -0.1500 O   0  0  0  0  0  0  0  0  0  0  0  0
    4.2870    1.4060    0.6540 P   0  0  0  0  0  0  0  0  0  0  0  0
    4.5340   -0.2190    1.2760 O   0  0  0  0  0  0  0  0  0  0  0  0
    5.8740   -0.4460    1.1920 N   0  0  0  0  0  0  0  0  0  0  0  0
    6.2660   -0.8030   -0.0350 O   0  0  0  0  0  0  0  0  0  0  0  0
    7.0090    0.1840   -0.6800 C   0  0  0  0  0  0  0  0  0  0  0  0
    5.9650    1.7430   -0.7660 P   0  0  0  0  0  0  0  0  0  0  0  0
  1  2  1  0
  2  3  2  3
  3  4  1  0
  3  5  1  0
  5  6  1  0
  6  7  1  0
  6  9  1  0
  7  8  1  6
  7  9  1  0
  9 10  1  1
  9 12  1  0
 10 11  1  0
 12 13  2  0
 12 14  1  0
 14 15  1  0
 15 16  1  0
 16 17  1  0
 16 21  1  0
 17 18  1  0
 18 19  1  0
 19 20  1  0
 20 21  1  0
M  END
