
     RDKit          3D

 21 23  0  0  0  0  0  0  0  0999 V2000
    4.7840    0.0400   -0.3280 C   0  0  0  0  0  0  0  0  0  0  0  0
    3.6830    0.5520   -1.2330 C   0  0  0  0  0  0  0  0  0  0  0  0
    2.5740   -0.3250   -1.2380 O   0  0  0  0  0  0  0  0  0  0  0  0
    1.8660   -0.6290   -0.0750 C   0  0  0  0  0  0  0  0  0  0  0  0
    0.6420   -0.2380    0.1870 C   0  0  0  0  0  0  0  0  0  0  0  0
   -0.4000    0.5480   -0.4750 C   0  0  0  0  0  0  0  0  0  0  0  0
   -0.0030    1.4460   -1.2760 N   0  0  0  0  0  0  0  0  0  0  0  0
   -1.8010    0.2630   -0.2140 N   0  0  0  0  0  0  0  0  0  0  0  0
   -2.7000    1.0000   -0.8480 N   0  0  0  0  0  0  0  0  0  0  0  0
   -2.2480    2.0710   -1.7710 C   0  0  0  0  0  0  0  0  0  0  0  0
   -3.9870    0.9010   -0.7600 O   0  0  0  0  0  0  0  0  0  0  0  0
   -4.5910   -0.2650    0.2460 P   0  0  0  0  0  0  0  0  0  0  0  0
   -6.2410   -0.5710    0.6180 O   0  0  0  0  0  0  0  0  0  0  0  0
   -3.2940   -1.1370    0.9960 C   0  0  0  0  0  0  0  0  0  0  0  0
   -3.5270   -2.0730    1.8020 O   0  0  0  0  0  0  0  0  0  0  0  0
   -2.0580   -0.7190    0.6330 N   0  0  0  0  0  0  0  0  0  0  0  0
   -0.9930   -1.4790    1.2820 C   0  0  0  0  0  0  0  0  0  0  0  0
   -1.1900   -2.6650    1.5910 O   0  0  0  0  0  0  0  0  0  0  0  0
    0.2960   -0.7850    1.5460 C   0  0  1  0  0  0  0  0  0  0  0  0
    1.4340   -1.5260    1.9710 C   0  0  0  0  0  0  0  0  0  0  0  0
    2.3800   -1.4360    1.0200 C   0  0  0  0  0  0  0  0  0  0  0  0
  1  2  1  0
  2  3  1  0
  3  4  1  0
  4  5  2  0
  4 21  1  0
  5  6  1  0
  5 19  1  0
  6  7  2  0
  6  8  1  0
  8  9  1  0
  8 16  1  0
  9 10  1  0
  9 11  1  0
 11 12  1  0
 12 13  1  0
 12 14  1  0
 14 15  2  0
 14 16  1  0
 16 17  1  0
 17 18  2  0
 17 19  1  0
 19 20  1  6
 20 21  2  0
M  END
