
     RDKit          3D

 38 41  0  0  0  0  0  0  0  0999 V2000
   -2.0470    5.4140    2.1340 C   0  0  0  0  0  0  0  0  0  0  0  0
   -2.6380    4.0610    2.4380 C   0  0  0  0  0  0  0  0  0  0  0  0
   -1.7550    2.8900    2.3150 C   0  0  0  0  0  0  0  0  0  0  0  0
   -1.1520    2.5360    1.1030 N   0  0  0  0  0  0  0  0  0  0  0  0
   -0.1360    3.3280    0.6250 C   0  0  0  0  0  0  0  0  0  0  0  0
   -0.3420    3.7150   -0.8170 C   0  0  0  0  0  0  0  0  0  0  0  0
    0.6170    2.8860   -1.6330 C   0  0  0  0  0  0  0  0  0  0  0  0
    0.6530    1.5700   -0.9540 N   0  0  0  0  0  0  0  0  0  0  0  0
   -0.5900    1.0360   -0.6570 C   0  0  0  0  0  0  0  0  0  0  0  0
   -1.1910    1.1000    0.7430 C   0  0  1  0  0  0  0  0  0  0  0  0
   -0.3800    0.4490    1.7760 C   0  0  0  0  0  0  0  0  0  0  0  0
   -0.0840   -0.9650    1.8850 C   0  0  0  0  0  0  0  0  0  0  0  0
    0.6370   -1.6400    0.8330 N   0  0  0  0  0  0  0  0  0  0  0  0
    1.9540   -1.3470    0.4580 C   0  0  0  0  0  0  0  0  0  0  0  0
    2.5870   -0.4510    1.0540 O   0  0  0  0  0  0  0  0  0  0  0  0
    2.6380   -2.0800   -0.6480 C   0  0  0  0  0  0  0  0  0  0  0  0
    3.9820   -1.5840   -0.8480 N   0  0  0  0  0  0  0  0  0  0  0  0
    4.9730   -1.5970    0.1620 C   0  0  0  0  0  0  0  0  0  0  0  0
    4.7150   -2.0540    1.3010 O   0  0  0  0  0  0  0  0  0  0  0  0
    6.3490   -1.0780   -0.0800 C   0  0  1  0  0  0  0  0  0  0  0  0
    7.1780   -1.1100    1.1810 C   0  0  0  0  0  0  0  0  0  0  0  0
    7.0680   -1.8970   -1.1290 C   0  0  0  0  0  0  0  0  0  0  0  0
    6.2420    0.3300   -0.5760 C   0  0  0  0  0  0  0  0  0  0  0  0
   -2.5940    0.6840    0.4820 C   0  0  2  0  0  0  0  0  0  0  0  0
   -3.7230    0.6800    1.3660 C   0  0  0  0  0  0  0  0  0  0  0  0
   -4.8170    0.0030    0.5030 C   0  0  0  0  0  0  0  0  0  0  0  0
   -4.3220    0.1040   -0.7780 O   0  0  0  0  0  0  0  0  0  0  0  0
   -2.9120   -0.2590   -0.6390 C   0  0  2  0  0  0  0  0  0  0  0  0
   -3.0100   -1.6680   -0.4760 C   0  0  0  0  0  0  0  0  0  0  0  0
   -3.0200   -2.3310    0.7040 C   0  0  0  0  0  0  0  0  0  0  0  0
   -3.1250   -3.7140    0.8510 C   0  0  0  0  0  0  0  0  0  0  0  0
   -3.2260   -4.4710   -0.2680 C   0  0  0  0  0  0  0  0  0  0  0  0
   -3.2220   -3.8550   -1.4810 C   0  0  0  0  0  0  0  0  0  0  0  0
   -3.3360   -4.6570   -2.6130 C   0  0  0  0  0  0  0  0  0  0  0  0
   -3.3510   -4.1340   -3.8880 C   0  0  0  0  0  0  0  0  0  0  0  0
   -3.2480   -2.7710   -4.0300 C   0  0  0  0  0  0  0  0  0  0  0  0
   -3.1340   -1.9830   -2.8840 C   0  0  0  0  0  0  0  0  0  0  0  0
   -3.1170   -2.4760   -1.6090 C   0  0  0  0  0  0  0  0  0  0  0  0
  1  2  1  0
  2  3  1  0
  3  4  1  0
  4  5  1  0
  4 10  1  0
  5  6  1  0
  6  7  1  0
  7  8  1  0
  8  9  1  0
  9 10  1  0
 10 11  1  1
 10 24  1  0
 11 12  1  0
 12 13  1  0
 13 14  1  0
 14 15  2  0
 14 16  1  0
 16 17  1  0
 17 18  1  0
 18 19  2  0
 18 20  1  0
 20 21  1  1
 20 22  1  0
 20 23  1  0
 24 25  1  1
 24 28  1  0
 25 26  1  0
 26 27  1  0
 27 28  1  0
 28 29  1  1
 29 30  2  0
 29 38  1  0
 30 31  1  0
 31 32  2  0
 32 33  1  0
 33 34  2  0
 33 38  1  0
 34 35  1  0
 35 36  2  0
 36 37  1  0
 37 38  2  0
M  CHG  1   8   1
M  END
