
     RDKit          3D

 38 41  0  0  0  0  0  0  0  0999 V2000
    4.9430    2.5650    3.0970 C   0  0  0  0  0  0  0  0  0  0  0  0
    4.9580    3.1520    1.9150 C   0  0  0  0  0  0  0  0  0  0  0  0
    5.2180    2.4040    0.6970 C   0  0  0  0  0  0  0  0  0  0  0  0
    5.2300    2.9980   -0.4780 C   0  0  0  0  0  0  0  0  0  0  0  0
    5.4820    2.3300   -1.7630 C   0  0  0  0  0  0  0  0  0  0  0  0
    5.4620    1.0110    0.7700 N   0  0  0  0  0  0  0  0  0  0  0  0
    4.3480    0.0960    0.5220 C   0  0  0  0  0  0  0  0  0  0  0  0
    3.1680    0.5950    0.3230 C   0  0  0  0  0  0  0  0  0  0  0  0
    1.8890    0.0170    0.0590 C   0  0  0  0  0  0  0  0  0  0  0  0
    0.8810    0.8400   -0.0870 O   0  0  0  0  0  0  0  0  0  0  0  0
    1.6000   -1.3280   -0.0610 N   0  0  0  0  0  0  0  0  0  0  0  0
    0.3200   -1.8880   -0.3210 C   0  0  0  0  0  0  0  0  0  0  0  0
   -0.8060   -1.1580   -0.4510 C   0  0  0  0  0  0  0  0  0  0  0  0
   -2.0450   -1.7320   -0.6980 C   0  0  0  0  0  0  0  0  0  0  0  0
   -3.2860   -0.9270   -0.8250 C   0  0  0  0  0  0  0  0  0  0  0  0
   -4.2270   -1.3590   -1.5380 O   0  0  0  0  0  0  0  0  0  0  0  0
   -3.4170    0.3110   -0.1540 N   0  0  0  0  0  0  0  0  0  0  0  0
   -4.5350    1.1960   -0.1490 C   0  0  0  0  0  0  0  0  0  0  0  0
   -5.7950    0.7690    0.4850 C   0  0  2  0  0  0  0  0  0  0  0  0
   -5.5000    0.4580    1.9460 C   0  0  0  0  0  0  0  0  0  0  0  0
   -6.5550   -0.3220   -0.1740 C   0  0  0  0  0  0  0  0  0  0  0  0
   -7.9460   -0.2440    0.2880 N   0  0  0  0  0  0  0  0  0  0  0  0
   -8.7720    0.6430   -0.4360 C   0  0  2  0  0  0  0  0  0  0  0  0
   -9.7810   -0.1750   -1.2410 C   0  0  0  0  0  0  0  0  0  0  0  0
   -8.1070    1.5780   -1.3890 C   0  0  0  0  0  0  0  0  0  0  0  0
   -7.0080    2.2300   -0.8740 O   0  0  0  0  0  0  0  0  0  0  0  0
   -6.7660    1.9910    0.4450 C   0  0  0  0  0  0  0  0  0  0  0  0
   -2.1350   -3.0930   -0.8180 C   0  0  0  0  0  0  0  0  0  0  0  0
   -0.9940   -3.8450   -0.6870 C   0  0  0  0  0  0  0  0  0  0  0  0
    0.2220   -3.2860   -0.4440 C   0  0  0  0  0  0  0  0  0  0  0  0
    1.4600   -4.1240   -0.3050 C   0  0  0  0  0  0  0  0  0  0  0  0
    4.6550   -1.3170    0.5270 C   0  0  1  0  0  0  0  0  0  0  0  0
    4.9600   -1.8870   -0.8500 C   0  0  0  0  0  0  0  0  0  0  0  0
    6.0170   -1.7670    0.1970 C   0  0  1  0  0  0  0  0  0  0  0  0
    7.0760   -0.7560    0.2320 C   0  0  1  0  0  0  0  0  0  0  0  0
    7.5150   -0.3780   -1.1550 C   0  0  0  0  0  0  0  0  0  0  0  0
    6.7340    0.4430    1.0770 C   0  0  1  0  0  0  0  0  0  0  0  0
    7.8560    1.4480    0.9640 C   0  0  0  0  0  0  0  0  0  0  0  0
  1  2  2  0
  2  3  1  0
  3  4  2  3
  3  6  1  0
  4  5  1  0
  6  7  1  0
  6 37  1  0
  7  8  2  3
  7 32  1  0
  8  9  1  0
  9 10  2  0
  9 11  1  0
 11 12  1  0
 12 13  2  0
 12 30  1  0
 13 14  1  0
 14 15  1  0
 14 28  2  0
 15 16  2  0
 15 17  1  0
 17 18  1  0
 18 19  1  0
 19 20  1  1
 19 21  1  0
 19 27  1  0
 21 22  1  0
 22 23  1  0
 23 24  1  6
 23 25  1  0
 25 26  1  0
 26 27  1  0
 28 29  1  0
 29 30  2  0
 30 31  1  0
 32 33  1  6
 32 34  1  0
 34 33  1  6
 34 35  1  0
 35 36  1  6
 35 37  1  0
 37 38  1  6
M  CHG  1  22   1
M  END
