
     RDKit          3D

 38 42  0  0  0  0  0  0  0  0999 V2000
   -7.8390    1.9280    1.4990 C   0  0  0  0  0  0  0  0  0  0  0  0
   -6.7780    2.2720    0.5230 C   0  0  0  0  0  0  0  0  0  0  0  0
   -5.5760    1.3890    0.4570 C   0  0  0  0  0  0  0  0  0  0  0  0
   -5.7350    0.0620    0.1270 N   0  0  0  0  0  0  0  0  0  0  0  0
   -6.3820   -0.7480    1.1100 C   0  0  0  0  0  0  0  0  0  0  0  0
   -7.4230   -1.5900    0.3850 C   0  0  0  0  0  0  0  0  0  0  0  0
   -7.7120   -1.0530   -0.9100 N   0  0  0  0  0  0  0  0  0  0  0  0
   -6.7190   -1.2640   -1.9100 C   0  0  0  0  0  0  0  0  0  0  0  0
   -5.3850   -1.7200   -1.4290 C   0  0  0  0  0  0  0  0  0  0  0  0
   -4.7190   -0.6970   -0.5010 C   0  0  1  0  0  0  0  0  0  0  0  0
   -3.6700    0.0220   -1.2420 C   0  0  0  0  0  0  0  0  0  0  0  0
   -2.8170    0.9240   -0.6310 N   0  0  0  0  0  0  0  0  0  0  0  0
   -1.8540    0.5890    0.3100 C   0  0  2  0  0  0  0  0  0  0  0  0
   -1.3520    1.8910    0.9450 C   0  0  0  0  0  0  0  0  0  0  0  0
   -0.6080   -0.1290   -0.1440 C   0  0  2  0  0  0  0  0  0  0  0  0
   -0.8230   -1.4390   -0.7900 C   0  0  0  0  0  0  0  0  0  0  0  0
    0.4380   -2.2590   -0.6820 C   0  0  0  0  0  0  0  0  0  0  0  0
    0.4570   -3.4970   -0.8880 O   0  0  0  0  0  0  0  0  0  0  0  0
    1.7010   -1.6470   -0.3320 C   0  0  0  0  0  0  0  0  0  0  0  0
    1.6750   -0.5720    0.5610 C   0  0  0  0  0  0  0  0  0  0  0  0
    2.9320   -0.1460    0.7310 N   0  0  0  0  0  0  0  0  0  0  0  0
    3.7910   -0.8740    0.0040 C   0  0  0  0  0  0  0  0  0  0  0  0
    5.2770   -0.7060   -0.0940 C   0  0  0  0  0  0  0  0  0  0  0  0
    5.8820   -1.5040   -0.8150 O   0  0  0  0  0  0  0  0  0  0  0  0
    5.8810    0.3450    0.6360 C   0  0  0  0  0  0  0  0  0  0  0  0
    7.0900    0.7270    0.7660 C   0  0  0  0  0  0  0  0  0  0  0  0
    8.3440    0.2700    0.2480 C   0  0  0  0  0  0  0  0  0  0  0  0
    8.7690   -0.8320   -0.4240 C   0  0  0  0  0  0  0  0  0  0  0  0
   10.0500   -0.7130   -0.7110 O   0  0  0  0  0  0  0  0  0  0  0  0
   10.5200    0.4030   -0.2730 C   0  0  0  0  0  0  0  0  0  0  0  0
   11.8100    0.9700   -0.3360 C   0  0  0  0  0  0  0  0  0  0  0  0
   12.0630    2.1970    0.2150 C   0  0  0  0  0  0  0  0  0  0  0  0
   11.0550    2.8790    0.8330 C   0  0  0  0  0  0  0  0  0  0  0  0
    9.7830    2.3040    0.8880 C   0  0  0  0  0  0  0  0  0  0  0  0
    9.5200    1.0800    0.3410 C   0  0  0  0  0  0  0  0  0  0  0  0
    3.0250   -1.8100   -0.6590 C   0  0  0  0  0  0  0  0  0  0  0  0
    3.5120   -2.8590   -1.5860 C   0  0  0  0  0  0  0  0  0  0  0  0
    0.3160   -0.2480    1.0540 C   0  0  0  0  0  0  0  0  0  0  0  0
  1  2  1  0
  2  3  1  0
  3  4  1  0
  4  5  1  0
  4 10  1  0
  5  6  1  0
  6  7  1  0
  7  8  1  0
  8  9  1  0
  9 10  1  0
 10 11  1  6
 11 12  1  0
 12 13  1  0
 13 14  1  6
 13 15  1  0
 15 16  1  1
 15 38  1  0
 16 17  1  0
 17 18  2  0
 17 19  1  0
 19 20  2  0
 19 36  1  0
 20 21  1  0
 20 38  1  0
 21 22  1  0
 22 23  1  0
 22 36  2  0
 23 24  2  0
 23 25  1  0
 25 26  2  3
 26 27  1  0
 27 28  2  0
 27 35  1  0
 28 29  1  0
 29 30  1  0
 30 31  2  0
 30 35  1  0
 31 32  1  0
 32 33  2  0
 33 34  1  0
 34 35  2  0
 36 37  1  0
M  CHG  1   7   1
M  END
