
     RDKit          3D

 38 43  0  0  0  0  0  0  0  0999 V2000
   -3.3500    7.7020   -0.3090 O   0  0  0  0  0  0  0  0  0  0  0  0
   -2.7490    6.4690   -0.4950 C   0  0  0  0  0  0  0  0  0  0  0  0
   -3.1980    5.5680   -1.4230 C   0  0  0  0  0  0  0  0  0  0  0  0
   -2.6090    4.3690   -1.5990 C   0  0  0  0  0  0  0  0  0  0  0  0
   -1.4940    3.9400   -0.8550 C   0  0  0  0  0  0  0  0  0  0  0  0
   -0.8180    2.7670   -0.9650 C   0  0  0  0  0  0  0  0  0  0  0  0
   -1.2130    1.6900   -1.9670 C   0  0  0  0  0  0  0  0  0  0  0  0
   -2.2360    0.7630   -1.5210 C   0  0  0  0  0  0  0  0  0  0  0  0
   -3.3050    1.0640   -0.7260 C   0  0  0  0  0  0  0  0  0  0  0  0
   -4.2850    0.1170   -0.3730 C   0  0  0  0  0  0  0  0  0  0  0  0
   -4.2230   -1.1730   -0.8100 C   0  0  0  0  0  0  0  0  0  0  0  0
   -5.2180   -2.2220   -0.4860 C   0  0  0  0  0  0  0  0  0  0  0  0
   -6.2950   -1.8080    0.3450 N   0  0  1  0  0  0  0  0  0  0  0  0
   -7.4030   -2.7540    0.1080 C   0  0  0  0  0  0  0  0  0  0  0  0
   -8.3110   -2.4020    1.2900 C   0  0  0  0  0  0  0  0  0  0  0  0
   -7.3470   -1.9900    2.3890 C   0  0  0  0  0  0  0  0  0  0  0  0
   -6.0010   -2.1440    1.7380 C   0  0  0  0  0  0  0  0  0  0  0  0
   -3.1460   -1.5010   -1.6170 C   0  0  0  0  0  0  0  0  0  0  0  0
   -3.0360   -3.3110   -2.2450 Br  0  0  0  0  0  0  0  0  0  0  0  0
   -2.1930   -0.5770   -1.9590 C   0  0  0  0  0  0  0  0  0  0  0  0
    0.2440    2.5730   -0.1570 C   0  0  0  0  0  0  0  0  0  0  0  0
    1.2540    1.5500    0.0750 C   0  0  0  0  0  0  0  0  0  0  0  0
    1.2060    0.2530   -0.3440 C   0  0  0  0  0  0  0  0  0  0  0  0
    2.2550   -0.6320   -0.1180 C   0  0  0  0  0  0  0  0  0  0  0  0
    3.3910   -0.2230    0.5460 C   0  0  0  0  0  0  0  0  0  0  0  0
    4.4160   -1.1290    0.7530 O   0  0  0  0  0  0  0  0  0  0  0  0
    5.6080   -0.7830    1.4280 C   0  0  0  0  0  0  0  0  0  0  0  0
    6.4940   -1.9900    1.4770 C   0  0  0  0  0  0  0  0  0  0  0  0
    6.8550   -2.4930    0.1710 N   0  0  2  0  0  0  0  0  0  0  0  0
    7.8520   -3.5340    0.3670 C   0  0  0  0  0  0  0  0  0  0  0  0
    9.1300   -2.7790    0.6620 C   0  0  0  0  0  0  0  0  0  0  0  0
    8.9990   -1.5440   -0.1890 C   0  0  0  0  0  0  0  0  0  0  0  0
    7.5690   -1.5200   -0.6280 C   0  0  0  0  0  0  0  0  0  0  0  0
    3.4710    1.0740    0.9820 C   0  0  0  0  0  0  0  0  0  0  0  0
    2.4210    1.9410    0.7490 C   0  0  0  0  0  0  0  0  0  0  0  0
    0.3260    4.1470    0.8480 S   0  0  0  0  0  0  0  0  0  0  0  0
   -1.0810    4.8550    0.0470 C   0  0  0  0  0  0  0  0  0  0  0  0
   -1.6750    6.1100    0.2520 C   0  0  0  0  0  0  0  0  0  0  0  0
  1  2  1  0
  2  3  2  0
  2 38  1  0
  3  4  1  0
  4  5  2  0
  5  6  1  0
  5 37  1  0
  6  7  1  0
  6 21  2  0
  7  8  1  0
  8  9  2  0
  8 20  1  0
  9 10  1  0
 10 11  2  0
 11 12  1  0
 11 18  1  0
 13 12  1  6
 13 14  1  0
 13 17  1  0
 14 15  1  0
 15 16  1  0
 16 17  1  0
 18 19  1  0
 18 20  2  0
 21 22  1  0
 21 36  1  0
 22 23  2  0
 22 35  1  0
 23 24  1  0
 24 25  2  0
 25 26  1  0
 25 34  1  0
 26 27  1  0
 27 28  1  0
 29 28  1  1
 29 30  1  0
 29 33  1  0
 30 31  1  0
 31 32  1  0
 32 33  1  0
 34 35  2  0
 36 37  1  0
 37 38  2  0
M  CHG  2  13   1  29   1
M  END
