
     RDKit          3D

 38 41  0  0  0  0  0  0  0  0999 V2000
   -8.8270    2.9900   -0.3760 C   0  0  0  0  0  0  0  0  0  0  0  0
   -7.9400    2.5370   -1.4960 C   0  0  0  0  0  0  0  0  0  0  0  0
   -6.7710    1.7820   -1.0030 C   0  0  2  0  0  0  0  0  0  0  0  0
   -5.8610    1.4110   -2.1900 C   0  0  0  0  0  0  0  0  0  0  0  0
   -6.2460    1.5720   -3.3460 O   0  0  0  0  0  0  0  0  0  0  0  0
   -4.6090    0.8980   -1.7820 N   0  0  0  0  0  0  0  0  0  0  0  0
   -4.5710    0.2750   -0.4770 C   0  0  0  0  0  0  0  0  0  0  0  0
   -3.3190   -0.0860    0.0430 C   0  0  0  0  0  0  0  0  0  0  0  0
   -3.1290   -0.5390    1.3210 C   0  0  0  0  0  0  0  0  0  0  0  0
   -1.8490   -0.9330    1.8930 C   0  0  0  0  0  0  0  0  0  0  0  0
   -1.9020   -1.2980    3.1390 O   0  0  0  0  0  0  0  0  0  0  0  0
   -0.5950   -0.9790    1.3170 N   0  0  0  0  0  0  0  0  0  0  0  0
   -0.1870   -0.6580   -0.0240 C   0  0  0  0  0  0  0  0  0  0  0  0
    1.3190   -0.9700   -0.1760 C   0  0  0  0  0  0  0  0  0  0  0  0
    2.1590   -0.2120    0.8040 C   0  0  1  0  0  0  0  0  0  0  0  0
    1.4910   -0.2170    2.1230 C   0  0  2  0  0  0  0  0  0  0  0  0
    2.4230   -0.2170    3.3030 C   0  0  0  0  0  0  0  0  0  0  0  0
    3.4300   -1.3420    3.2150 C   0  0  0  0  0  0  0  0  0  0  0  0
    4.2040   -1.2960    1.9210 C   0  0  0  0  0  0  0  0  0  0  0  0
    3.5220   -0.6640    0.8430 N   0  0  0  0  0  0  0  0  0  0  0  0
    4.2930   -0.4530   -0.3790 C   0  0  0  0  0  0  0  0  0  0  0  0
    3.7540    0.1090   -1.3540 O   0  0  0  0  0  0  0  0  0  0  0  0
    5.6850   -0.8950   -0.4710 C   0  0  0  0  0  0  0  0  0  0  0  0
    6.5100   -0.3610   -1.5650 C   0  0  1  0  0  0  0  0  0  0  0  0
    6.8150    1.0780   -1.6350 C   0  0  0  0  0  0  0  0  0  0  0  0
    5.7880    2.0460   -1.7530 N   0  0  0  0  0  0  0  0  0  0  0  0
    6.4860    3.3470   -1.9930 C   0  0  0  0  0  0  0  0  0  0  0  0
    7.8510   -1.1010   -1.5780 C   0  0  1  0  0  0  0  0  0  0  0  0
    8.6010   -0.9370   -0.2980 C   0  0  0  0  0  0  0  0  0  0  0  0
    7.6640   -2.5600   -1.8900 C   0  0  0  0  0  0  0  0  0  0  0  0
    0.5380   -1.4130    2.1750 C   0  0  0  0  0  0  0  0  0  0  0  0
   -4.2970   -0.6160    2.0900 C   0  0  0  0  0  0  0  0  0  0  0  0
   -5.5440   -0.2690    1.6020 C   0  0  0  0  0  0  0  0  0  0  0  0
   -5.6800    0.1680    0.3290 C   0  0  0  0  0  0  0  0  0  0  0  0
   -6.9930    0.4600   -0.3550 C   0  0  2  0  0  0  0  0  0  0  0  0
   -7.0460   -0.5860   -1.4890 C   0  0  0  0  0  0  0  0  0  0  0  0
   -8.1920    0.2400    0.4650 C   0  0  0  0  0  0  0  0  0  0  0  0
   -8.2040   -1.2140    0.9590 C   0  0  0  0  0  0  0  0  0  0  0  0
  1  2  1  0
  3  2  1  6
  3  4  1  0
  3 35  1  0
  4  5  2  0
  4  6  1  0
  6  7  1  0
  7  8  2  0
  7 34  1  0
  8  9  1  0
  9 10  1  0
  9 32  2  0
 10 11  2  0
 10 12  1  0
 12 13  1  0
 12 31  1  0
 13 14  1  0
 15 14  1  6
 15 16  1  0
 15 20  1  0
 16 17  1  1
 16 31  1  0
 17 18  1  0
 18 19  1  0
 19 20  1  0
 20 21  1  0
 21 22  2  0
 21 23  1  0
 24 23  1  1
 24 25  1  0
 24 28  1  0
 25 26  1  0
 26 27  1  0
 28 29  1  1
 28 30  1  0
 32 33  1  0
 33 34  2  0
 34 35  1  0
 35 36  1  6
 35 37  1  0
 37 38  1  0
M  CHG  1  26   1
M  END
