
     RDKit          3D

 38 41  0  0  0  0  0  0  0  0999 V2000
    7.6590   -1.7480    2.6190 C   0  0  0  0  0  0  0  0  0  0  0  0
    6.8790   -0.8050    1.7670 C   0  0  0  0  0  0  0  0  0  0  0  0
    7.4100   -0.3340    0.5840 C   0  0  0  0  0  0  0  0  0  0  0  0
    6.7010    0.5420   -0.2200 C   0  0  0  0  0  0  0  0  0  0  0  0
    5.4500    0.9790    0.1140 C   0  0  0  0  0  0  0  0  0  0  0  0
    4.8970    0.5110    1.3070 C   0  0  0  0  0  0  0  0  0  0  0  0
    5.6080   -0.3630    2.1090 C   0  0  0  0  0  0  0  0  0  0  0  0
    3.6120    0.8420    1.8260 N   0  0  0  0  0  0  0  0  0  0  0  0
    2.5980    1.6290    1.1530 C   0  0  0  0  0  0  0  0  0  0  0  0
    1.7830    2.1770    1.9190 O   0  0  0  0  0  0  0  0  0  0  0  0
    2.5140    1.7840   -0.3050 C   0  0  1  0  0  0  0  0  0  0  0  0
    1.2140    2.3650   -0.7170 C   0  0  0  0  0  0  0  0  0  0  0  0
   -0.0220    1.6150   -0.3830 C   0  0  0  0  0  0  0  0  0  0  0  0
   -0.1320    0.2780   -0.9790 C   0  0  0  0  0  0  0  0  0  0  0  0
    0.9210   -0.2040   -1.5100 O   0  0  0  0  0  0  0  0  0  0  0  0
   -1.2690   -0.5240   -1.0180 N   0  0  0  0  0  0  0  0  0  0  0  0
   -1.1070   -1.8970   -1.5640 C   0  0  0  0  0  0  0  0  0  0  0  0
   -1.7160   -2.8860   -0.5540 C   0  0  1  0  0  0  0  0  0  0  0  0
   -2.8920   -3.5780   -1.2050 C   0  0  0  0  0  0  0  0  0  0  0  0
   -0.6300   -3.8990   -0.2960 C   0  0  0  0  0  0  0  0  0  0  0  0
   -0.8970   -4.9640    0.6860 C   0  0  1  0  0  0  0  0  0  0  0  0
   -2.0090   -5.9140    0.4530 C   0  0  0  0  0  0  0  0  0  0  0  0
    0.3850   -5.8220    0.7810 C   0  0  0  0  0  0  0  0  0  0  0  0
   -2.0230   -2.2230    0.7330 C   0  0  0  0  0  0  0  0  0  0  0  0
   -2.8970   -0.9890    0.6700 C   0  0  0  0  0  0  0  0  0  0  0  0
   -2.6140   -0.2450   -0.6060 C   0  0  1  0  0  0  0  0  0  0  0  0
   -3.1430    1.0900   -0.7410 C   0  0  0  0  0  0  0  0  0  0  0  0
   -3.1630    1.7380   -1.9920 C   0  0  0  0  0  0  0  0  0  0  0  0
   -3.6820    3.0040   -2.1280 C   0  0  0  0  0  0  0  0  0  0  0  0
   -4.2060    3.6960   -1.0530 C   0  0  0  0  0  0  0  0  0  0  0  0
   -4.7550    5.0110   -1.2060 N   0  0  0  0  0  0  0  0  0  0  0  0
   -4.4380    5.9090   -0.1430 C   0  0  0  0  0  0  0  0  0  0  0  0
   -5.6510    6.6150    0.3520 C   0  0  0  0  0  0  0  0  0  0  0  0
   -6.7450    6.4400   -0.1060 O   0  0  0  0  0  0  0  0  0  0  0  0
   -4.1980    3.0870    0.1820 C   0  0  0  0  0  0  0  0  0  0  0  0
   -3.6670    1.7960    0.3190 C   0  0  0  0  0  0  0  0  0  0  0  0
    3.6530    2.7050   -0.7510 C   0  0  0  0  0  0  0  0  0  0  0  0
    4.8670    1.8790   -0.8320 N   0  0  0  0  0  0  0  0  0  0  0  0
  1  2  1  0
  2  3  2  0
  2  7  1  0
  3  4  1  0
  4  5  2  0
  5  6  1  0
  5 38  1  0
  6  7  2  0
  6  8  1  0
  8  9  1  0
  9 10  2  0
  9 11  1  0
 11 12  1  1
 11 37  1  0
 12 13  1  0
 13 14  1  0
 14 15  2  0
 14 16  1  0
 16 17  1  0
 16 26  1  0
 17 18  1  0
 18 19  1  6
 18 20  1  0
 18 24  1  0
 20 21  1  0
 21 22  1  6
 21 23  1  0
 24 25  1  0
 25 26  1  0
 26 27  1  1
 27 28  2  0
 27 36  1  0
 28 29  1  0
 29 30  2  0
 30 31  1  0
 30 35  1  0
 31 32  1  0
 32 33  1  0
 33 34  2  0
 35 36  2  0
 37 38  1  0
M  CHG  1  31   1
M  END
