
     RDKit          3D

 45 50  0  0  0  0  0  0  0  0999 V2000
    6.0200    1.2460   -1.9580 C   0  0  0  0  0  0  0  0  0  0  0  0
    6.0860    0.9880   -0.5800 O   0  0  0  0  0  0  0  0  0  0  0  0
    5.0220    0.5310    0.1760 C   0  0  0  0  0  0  0  0  0  0  0  0
    5.2140    0.3200    1.5040 C   0  0  0  0  0  0  0  0  0  0  0  0
    4.1490   -0.1360    2.2560 C   0  0  0  0  0  0  0  0  0  0  0  0
    4.3540   -0.3480    3.6150 O   0  0  0  0  0  0  0  0  0  0  0  0
    5.6110   -0.1030    4.2170 C   0  0  0  0  0  0  0  0  0  0  0  0
    2.9170   -0.3750    1.6810 C   0  0  0  0  0  0  0  0  0  0  0  0
    2.6980   -0.1700    0.3420 C   0  0  0  0  0  0  0  0  0  0  0  0
    1.3090   -0.3580   -0.2850 C   0  0  2  0  0  0  0  0  0  0  0  0
    0.7130   -1.5950    0.0730 C   0  0  0  0  0  0  0  0  0  0  0  0
   -0.4010   -1.4210    1.1060 C   0  0  0  0  0  0  0  0  0  0  0  0
   -0.5670   -0.4000    1.9700 C   0  0  0  0  0  0  0  0  0  0  0  0
   -1.3780   -0.7010    3.0810 C   0  0  0  0  0  0  0  0  0  0  0  0
   -2.0180   -1.8650    3.3770 C   0  0  0  0  0  0  0  0  0  0  0  0
   -1.8210   -2.8630    2.4190 C   0  0  0  0  0  0  0  0  0  0  0  0
   -2.4550   -4.2190    2.6250 C   0  0  0  0  0  0  0  0  0  0  0  0
   -1.0560   -2.6250    1.3460 C   0  0  0  0  0  0  0  0  0  0  0  0
   -1.1650   -3.4320    0.0880 N   0  0  0  0  0  0  0  0  0  0  0  0
   -1.9290   -2.9690   -0.9270 C   0  0  0  0  0  0  0  0  0  0  0  0
   -2.7150   -1.7600   -1.0190 C   0  0  0  0  0  0  0  0  0  0  0  0
   -2.6140   -0.3930   -1.2950 C   0  0  2  0  0  0  0  0  0  0  0  0
   -2.9470   -0.3350   -2.7730 C   0  0  0  0  0  0  0  0  0  0  0  0
   -2.2770   -0.8910   -3.7410 C   0  0  0  0  0  0  0  0  0  0  0  0
   -1.1490   -1.6870   -4.0850 C   0  0  0  0  0  0  0  0  0  0  0  0
    0.3170   -1.2770   -3.9120 C   0  0  0  0  0  0  0  0  0  0  0  0
    0.7860   -1.4970   -2.4970 C   0  0  1  0  0  0  0  0  0  0  0  0
    1.4380   -2.7350   -2.5180 O   0  0  0  0  0  0  0  0  0  0  0  0
    1.5630   -0.4350   -1.7480 C   0  0  0  0  0  0  0  0  0  0  0  0
   -1.8010    0.8190   -1.2300 C   0  0  0  0  0  0  0  0  0  0  0  0
   -1.0190    1.4360   -2.1650 N   0  0  0  0  0  0  0  0  0  0  0  0
    0.0220    2.2840   -1.7910 C   0  0  0  0  0  0  0  0  0  0  0  0
    0.7540    2.0150   -0.5510 C   0  0  0  0  0  0  0  0  0  0  0  0
    0.5930    0.8280    0.3130 C   0  0  0  0  0  0  0  0  0  0  0  0
   -0.0270    0.8830    1.5040 C   0  0  0  0  0  0  0  0  0  0  0  0
   -0.4020    2.3180    1.9060 C   0  0  0  0  0  0  0  0  0  0  0  0
    0.1250    3.1400    2.6920 O   0  0  0  0  0  0  0  0  0  0  0  0
   -1.5930    2.9520    1.3220 C   0  0  0  0  0  0  0  0  0  0  0  0
   -2.8630    2.1990    1.2670 C   0  0  1  0  0  0  0  0  0  0  0  0
   -3.2500    2.0630    2.7810 C   0  0  0  0  0  0  0  0  0  0  0  0
   -3.8810    3.4310    0.9240 C   0  0  0  0  0  0  0  0  0  0  0  0
   -3.4780    1.1580    0.5760 C   0  0  0  0  0  0  0  0  0  0  0  0
   -4.6050    0.8750    1.3300 O   0  0  0  0  0  0  0  0  0  0  0  0
   -3.6660    0.2120   -0.4260 O   0  0  0  0  0  0  0  0  0  0  0  0
    3.7720    0.2860   -0.3880 C   0  0  0  0  0  0  0  0  0  0  0  0
  1  2  1  0
  2  3  1  0
  3  4  2  0
  3 45  1  0
  4  5  1  0
  5  6  1  0
  5  8  2  0
  6  7  1  0
  8  9  1  0
 10  9  1  1
  9 45  2  0
 10 11  1  0
 10 29  1  0
 10 34  1  0
 11 12  1  0
 12 13  2  0
 12 18  1  0
 13 14  1  0
 13 35  1  0
 14 15  2  0
 15 16  1  0
 16 17  1  0
 16 18  2  0
 18 19  1  0
 19 20  2  0
 20 21  1  0
 22 21  1  1
 22 23  1  0
 22 30  1  0
 22 44  1  0
 23 24  2  0
 24 25  1  0
 25 26  1  0
 26 27  1  0
 27 28  1  6
 27 29  1  0
 30 31  1  0
 31 32  1  0
 32 33  1  0
 33 34  1  0
 34 35  2  0
 35 36  1  0
 36 37  2  0
 36 38  1  0
 38 39  1  0
 39 40  1  1
 39 41  1  0
 39 42  1  0
 42 43  2  0
 42 44  1  0
M  CHG  1  31   1
M  END
