
     RDKit          3D

 45 50  0  0  0  0  0  0  0  0999 V2000
    2.1360   -0.3480   -3.6160 C   0  0  0  0  0  0  0  0  0  0  0  0
    2.6020   -0.8050   -2.2460 C   0  0  1  0  0  0  0  0  0  0  0  0
    3.8230    0.0040   -1.8390 C   0  0  0  0  0  0  0  0  0  0  0  0
    3.5580    1.3750   -1.3560 C   0  0  0  0  0  0  0  0  0  0  0  0
    2.9590    2.4310   -1.9390 C   0  0  0  0  0  0  0  0  0  0  0  0
    2.8080    3.6960   -1.2920 C   0  0  0  0  0  0  0  0  0  0  0  0
    3.2820    3.8890   -0.0160 C   0  0  0  0  0  0  0  0  0  0  0  0
    3.8980    2.8280    0.6050 C   0  0  0  0  0  0  0  0  0  0  0  0
    4.0220    1.6110   -0.0710 C   0  0  0  0  0  0  0  0  0  0  0  0
    4.7460    0.5140    0.6940 C   0  0  0  0  0  0  0  0  0  0  0  0
    3.8250   -0.4000    1.1270 O   0  0  0  0  0  0  0  0  0  0  0  0
    4.2150   -1.1000    2.2690 C   0  0  0  0  0  0  0  0  0  0  0  0
    4.2270   -2.5730    2.0510 C   0  0  0  0  0  0  0  0  0  0  0  0
    3.1620   -3.3510    2.1130 C   0  0  0  0  0  0  0  0  0  0  0  0
    1.7790   -2.8780    2.4110 C   0  0  0  0  0  0  0  0  0  0  0  0
    0.7840   -3.2830    1.3780 C   0  0  0  0  0  0  0  0  0  0  0  0
    0.4120   -2.1580    0.4350 C   0  0  2  0  0  0  0  0  0  0  0  0
    0.1920   -0.8870    1.1940 C   0  0  0  0  0  0  0  0  0  0  0  0
   -0.8850   -2.4720   -0.3020 C   0  0  0  0  0  0  0  0  0  0  0  0
   -2.0250   -2.4260    0.6560 C   0  0  0  0  0  0  0  0  0  0  0  0
   -3.3610   -2.1230   -0.0010 C   0  0  1  0  0  0  0  0  0  0  0  0
   -3.9430   -3.4710   -0.4350 C   0  0  0  0  0  0  0  0  0  0  0  0
   -5.4160   -3.2800   -0.6050 C   0  0  0  0  0  0  0  0  0  0  0  0
   -6.0060   -3.1710    0.7990 C   0  0  0  0  0  0  0  0  0  0  0  0
   -4.8930   -2.6960    1.7030 C   0  0  0  0  0  0  0  0  0  0  0  0
   -4.2310   -1.5780    1.0230 N   0  0  0  0  0  0  0  0  0  0  0  0
   -3.1970   -1.2150   -1.1630 C   0  0  0  0  0  0  0  0  0  0  0  0
   -3.5570   -1.6960   -2.2950 O   0  0  0  0  0  0  0  0  0  0  0  0
   -2.6930    0.0310   -0.9920 O   0  0  0  0  0  0  0  0  0  0  0  0
   -3.1850    1.1420   -0.3140 C   0  0  0  0  0  0  0  0  0  0  0  0
   -2.5240    2.3590   -0.7410 C   0  0  1  0  0  0  0  0  0  0  0  0
   -3.5860    3.4370   -0.8860 C   0  0  0  0  0  0  0  0  0  0  0  0
   -4.6250    3.4690   -0.3040 O   0  0  0  0  0  0  0  0  0  0  0  0
   -3.2690    4.5530   -1.8580 C   0  0  0  0  0  0  0  0  0  0  0  0
   -1.8060    4.5390   -1.9020 O   0  0  0  0  0  0  0  0  0  0  0  0
   -1.0670    4.1720   -0.7600 C   0  0  0  0  0  0  0  0  0  0  0  0
   -0.0150    4.9830   -0.3830 C   0  0  0  0  0  0  0  0  0  0  0  0
    0.7450    4.6840    0.7300 C   0  0  0  0  0  0  0  0  0  0  0  0
    0.3990    3.5560    1.4290 C   0  0  0  0  0  0  0  0  0  0  0  0
   -0.6810    2.7050    1.0560 C   0  0  0  0  0  0  0  0  0  0  0  0
   -1.4070    3.0060   -0.0270 C   0  0  0  0  0  0  0  0  0  0  0  0
    1.7990    5.5180    1.0840 O   0  0  0  0  0  0  0  0  0  0  0  0
    3.1160    5.2450    0.6350 C   0  0  0  0  0  0  0  0  0  0  0  0
    1.4920   -2.0920   -0.6030 C   0  0  0  0  0  0  0  0  0  0  0  0
    1.5440   -0.7950   -1.2930 N   0  0  0  0  0  0  0  0  0  0  0  0
  2  1  1  6
  2  3  1  0
  2 45  1  0
  3  4  1  0
  4  5  2  0
  4  9  1  0
  5  6  1  0
  6  7  2  0
  7  8  1  0
  7 43  1  0
  8  9  2  0
  9 10  1  0
 10 11  1  0
 11 12  1  0
 12 13  1  0
 13 14  2  0
 14 15  1  0
 15 16  1  0
 16 17  1  0
 17 18  1  1
 17 19  1  0
 17 44  1  0
 19 20  1  0
 21 20  1  1
 21 22  1  0
 21 26  1  0
 21 27  1  0
 22 23  1  0
 23 24  1  0
 24 25  1  0
 25 26  1  0
 27 28  2  0
 27 29  1  0
 29 30  1  0
 31 30  1  1
 31 32  1  0
 31 41  1  0
 32 33  2  0
 32 34  1  0
 34 35  1  0
 35 36  1  0
 36 37  2  0
 36 41  1  0
 37 38  1  0
 38 39  2  0
 38 42  1  0
 39 40  1  0
 40 41  2  0
 42 43  1  0
 44 45  1  0
M  CHG  2  26   1  45   1
M  END
