
     RDKit          3D

 44 48  0  0  0  0  0  0  0  0999 V2000
    6.1390   -3.3870    1.2260 C   0  0  0  0  0  0  0  0  0  0  0  0
    5.1280   -2.4380    0.7390 C   0  0  0  0  0  0  0  0  0  0  0  0
    5.1820   -2.0470   -0.5560 C   0  0  0  0  0  0  0  0  0  0  0  0
    4.1910   -1.1090   -1.0550 C   0  0  0  0  0  0  0  0  0  0  0  0
    3.2270   -0.6660   -0.1530 O   0  0  0  0  0  0  0  0  0  0  0  0
    1.9370   -0.1740   -0.6090 C   0  0  0  0  0  0  0  0  0  0  0  0
    1.1990    0.1930    0.6110 C   0  0  0  0  0  0  0  0  0  0  0  0
   -0.1330    0.7450    0.4740 N   0  0  0  0  0  0  0  0  0  0  0  0
   -0.2160    2.1700    0.3330 C   0  0  0  0  0  0  0  0  0  0  0  0
   -1.3040    2.7390    0.2660 O   0  0  0  0  0  0  0  0  0  0  0  0
    0.9550    2.9550    0.2660 N   0  0  0  0  0  0  0  0  0  0  0  0
    1.0400    4.3610    0.1320 C   0  0  0  0  0  0  0  0  0  0  0  0
   -0.0240    5.2140    0.0400 C   0  0  0  0  0  0  0  0  0  0  0  0
    0.0880    6.5990   -0.0920 C   0  0  0  0  0  0  0  0  0  0  0  0
    1.3410    7.1410   -0.1330 C   0  0  0  0  0  0  0  0  0  0  0  0
    2.4490    6.2880   -0.0420 C   0  0  0  0  0  0  0  0  0  0  0  0
    2.3270    4.9320    0.0880 C   0  0  0  0  0  0  0  0  0  0  0  0
    3.5970    4.3830    0.1520 O   0  0  0  0  0  0  0  0  0  0  0  0
    4.4620    5.4000   -0.3680 C   0  0  0  0  0  0  0  0  0  0  0  0
    3.7930    6.6100   -0.0610 O   0  0  0  0  0  0  0  0  0  0  0  0
   -1.2510   -0.1400    0.6030 C   0  0  1  0  0  0  0  0  0  0  0  0
   -1.6450   -0.1710    2.1200 C   0  0  0  0  0  0  0  0  0  0  0  0
   -2.3870   -1.4280    2.3250 C   0  0  0  0  0  0  0  0  0  0  0  0
   -3.4120   -1.7950    1.3190 C   0  0  1  0  0  0  0  0  0  0  0  0
   -3.6050   -3.3190    1.4170 C   0  0  0  0  0  0  0  0  0  0  0  0
   -3.8060   -3.6130    2.8830 C   0  0  0  0  0  0  0  0  0  0  0  0
   -5.0460   -2.9050    3.3250 C   0  0  0  0  0  0  0  0  0  0  0  0
   -5.1450   -1.4860    2.8520 C   0  0  0  0  0  0  0  0  0  0  0  0
   -4.6600   -1.2480    1.5960 O   0  0  0  0  0  0  0  0  0  0  0  0
   -3.0670   -1.5220   -0.1110 C   0  0  0  0  0  0  0  0  0  0  0  0
   -2.4170   -0.1080   -0.2470 C   0  0  2  0  0  0  0  0  0  0  0  0
   -2.1820    0.1850   -1.6670 C   0  0  0  0  0  0  0  0  0  0  0  0
   -1.3410   -0.6930   -2.5020 C   0  0  0  0  0  0  0  0  0  0  0  0
   -1.7280   -1.9890   -2.6920 O   0  0  0  0  0  0  0  0  0  0  0  0
   -2.8730   -2.2020   -3.4010 C   0  0  0  0  0  0  0  0  0  0  0  0
   -3.5670    0.7580    0.1800 C   0  0  0  0  0  0  0  0  0  0  0  0
   -3.7460    1.3490    1.2230 O   0  0  0  0  0  0  0  0  0  0  0  0
   -4.5850    0.8880   -0.7960 O   0  0  0  0  0  0  0  0  0  0  0  0
   -5.7340    1.6740   -0.5300 C   0  0  0  0  0  0  0  0  0  0  0  0
    4.1950   -0.6910   -2.3020 C   0  0  0  0  0  0  0  0  0  0  0  0
    5.2370   -1.2040   -3.1800 C   0  0  0  0  0  0  0  0  0  0  0  0
    6.1550   -2.0500   -2.7850 C   0  0  0  0  0  0  0  0  0  0  0  0
    6.2350   -2.5680   -1.4380 C   0  0  1  0  0  0  0  0  0  0  0  0
    7.8900   -2.3290   -0.7020 S   0  0  0  0  0  0  0  0  0  0  0  0
  1  2  1  0
  2  3  2  3
  3  4  1  0
  3 43  1  0
  4  5  1  0
  4 40  2  0
  5  6  1  0
  6  7  1  0
  7  8  1  0
  8  9  1  0
 21  8  1  1
  9 10  2  0
  9 11  1  0
 11 12  1  0
 12 13  2  0
 12 17  1  0
 13 14  1  0
 14 15  2  0
 15 16  1  0
 16 17  2  0
 16 20  1  0
 17 18  1  0
 18 19  1  0
 19 20  1  0
 21 22  1  0
 21 31  1  0
 22 23  1  0
 24 23  1  1
 24 25  1  0
 24 29  1  0
 24 30  1  0
 25 26  1  0
 26 27  1  0
 27 28  1  0
 28 29  1  0
 30 31  1  0
 31 32  1  6
 31 36  1  0
 32 33  1  0
 33 34  1  0
 34 35  1  0
 36 37  2  0
 36 38  1  0
 38 39  1  0
 40 41  1  0
 41 42  2  0
 42 43  1  0
 43 44  1  1
M  END
