
     RDKit          3D

 44 48  0  0  0  0  0  0  0  0999 V2000
   -8.9020    0.1060   -1.4530 C   0  0  0  0  0  0  0  0  0  0  0  0
   -7.9610   -0.8520   -0.8880 C   0  0  0  0  0  0  0  0  0  0  0  0
   -8.5090   -1.9940   -0.5730 O   0  0  0  0  0  0  0  0  0  0  0  0
   -6.5720   -0.6680   -0.6540 C   0  0  0  0  0  0  0  0  0  0  0  0
   -5.9630   -1.7250   -0.0740 C   0  0  0  0  0  0  0  0  0  0  0  0
   -6.2350   -3.1270    0.4330 C   0  0  0  0  0  0  0  0  0  0  0  0
   -5.0060   -3.5810    1.1000 C   0  0  1  0  0  0  0  0  0  0  0  0
   -5.1930   -3.2750    2.4980 O   0  0  0  0  0  0  0  0  0  0  0  0
   -4.2180   -4.6780    0.9590 O   0  0  0  0  0  0  0  0  0  0  0  0
   -2.8190   -4.2780    1.1730 C   0  0  0  0  0  0  0  0  0  0  0  0
   -1.8650   -4.9820    1.4740 O   0  0  0  0  0  0  0  0  0  0  0  0
   -2.7490   -2.8470    0.9570 C   0  0  0  0  0  0  0  0  0  0  0  0
   -1.9250   -1.7250    0.8270 C   0  0  0  0  0  0  0  0  0  0  0  0
   -2.4420   -0.4710    0.4340 C   0  0  0  0  0  0  0  0  0  0  0  0
   -1.5740    0.6030    0.2250 N   0  0  0  0  0  0  0  0  0  0  0  0
   -0.2360    0.7060    0.6710 C   0  0  0  0  0  0  0  0  0  0  0  0
    0.2760   -0.2150    1.3390 O   0  0  0  0  0  0  0  0  0  0  0  0
    0.6040    1.9330    0.3460 C   0  0  0  0  0  0  0  0  0  0  0  0
    1.1900    1.6430   -1.3710 S   0  0  0  0  0  0  0  0  0  0  0  0
    2.2060    0.1680   -1.3580 C   0  0  0  0  0  0  0  0  0  0  0  0
    3.4790    0.3010   -0.6280 C   0  0  0  0  0  0  0  0  0  0  0  0
    3.4870    0.4060    0.6110 O   0  0  0  0  0  0  0  0  0  0  0  0
    4.6740    0.3010   -1.3270 O   0  0  0  0  0  0  0  0  0  0  0  0
    5.9280    0.4120   -0.6690 C   0  0  2  0  0  0  0  0  0  0  0  0
    6.6850    1.5920   -1.1940 C   0  0  0  0  0  0  0  0  0  0  0  0
    6.7500   -0.8350   -0.9380 C   0  0  0  0  0  0  0  0  0  0  0  0
    8.0580   -0.7480   -0.2660 C   0  0  0  0  0  0  0  0  0  0  0  0
    9.1570   -0.1860   -0.9200 C   0  0  0  0  0  0  0  0  0  0  0  0
   10.3800   -0.1340   -0.2650 C   0  0  0  0  0  0  0  0  0  0  0  0
   10.5020   -0.6280    1.0080 C   0  0  0  0  0  0  0  0  0  0  0  0
   11.8210   -0.5710    1.6960 C   0  0  0  0  0  0  0  0  0  0  0  0
    9.4180   -1.1760    1.6410 C   0  0  0  0  0  0  0  0  0  0  0  0
    8.1890   -1.2480    1.0270 C   0  0  0  0  0  0  0  0  0  0  0  0
   -3.8150   -0.3230    0.1610 C   0  0  0  0  0  0  0  0  0  0  0  0
   -4.6010   -1.4560    0.2930 C   0  0  0  0  0  0  0  0  0  0  0  0
   -4.0140   -2.5520    0.6710 C   0  0  0  0  0  0  0  0  0  0  0  0
   -4.6310    0.8350   -0.1380 C   0  0  1  0  0  0  0  0  0  0  0  0
   -4.1400    2.1670   -0.1750 C   0  0  0  0  0  0  0  0  0  0  0  0
   -4.0060    2.7850   -1.2670 O   0  0  0  0  0  0  0  0  0  0  0  0
   -3.7800    2.8830    0.9700 N   0  0  0  0  0  0  0  0  0  0  0  0
   -3.2740    4.2590    0.9240 C   0  0  0  0  0  0  0  0  0  0  0  0
   -3.9030    2.2770    2.2730 C   0  0  0  0  0  0  0  0  0  0  0  0
   -5.6980    0.4290   -1.1390 C   0  0  2  0  0  0  0  0  0  0  0  0
   -6.3370    1.4920   -1.8950 C   0  0  0  0  0  0  0  0  0  0  0  0
  1  2  1  0
  2  3  2  0
  2  4  1  0
  4  5  2  0
  4 43  1  0
  5  6  1  0
  5 35  1  0
  6  7  1  0
  7  8  1  1
  7  9  1  0
  7 36  1  0
  9 10  1  0
 10 11  2  0
 10 12  1  0
 12 13  2  0
 12 36  1  0
 13 14  1  0
 14 15  1  0
 14 34  2  0
 15 16  1  0
 16 17  2  0
 16 18  1  0
 18 19  1  0
 19 20  1  0
 20 21  1  0
 21 22  2  0
 21 23  1  0
 23 24  1  0
 24 25  1  6
 24 26  1  0
 26 27  1  0
 27 28  2  0
 27 33  1  0
 28 29  1  0
 29 30  2  0
 30 31  1  0
 30 32  1  0
 32 33  2  0
 34 35  1  0
 34 37  1  0
 35 36  2  0
 37 38  1  6
 37 43  1  0
 38 39  2  0
 38 40  1  0
 40 41  1  0
 40 42  1  0
 43 44  1  1
M  END
