
     RDKit          3D

 44 48  0  0  0  0  0  0  0  0999 V2000
    8.3350    0.8680   -3.6430 C   0  0  0  0  0  0  0  0  0  0  0  0
    8.8240    0.4770   -2.3040 C   0  0  0  0  0  0  0  0  0  0  0  0
    8.1450    0.9070   -1.1460 C   0  0  0  0  0  0  0  0  0  0  0  0
    8.5140    0.5660    0.1040 C   0  0  0  0  0  0  0  0  0  0  0  0
    7.7420    1.0840    1.3170 C   0  0  0  0  0  0  0  0  0  0  0  0
    6.5570    0.3950    1.3270 O   0  0  0  0  0  0  0  0  0  0  0  0
    5.4680    0.2720    0.5950 C   0  0  0  0  0  0  0  0  0  0  0  0
    5.3940    1.0610   -0.4330 O   0  0  0  0  0  0  0  0  0  0  0  0
    4.3560   -0.6740    0.7830 C   0  0  1  0  0  0  0  0  0  0  0  0
    3.2240   -0.2620    1.6200 C   0  0  0  0  0  0  0  0  0  0  0  0
    1.9170   -0.3830    0.7970 C   0  0  0  0  0  0  0  0  0  0  0  0
    2.1580    0.4000   -0.3930 N   0  0  0  0  0  0  0  0  0  0  0  0
    1.3500    1.5210   -0.6740 C   0  0  0  0  0  0  0  0  0  0  0  0
    1.5830    2.3600   -1.6040 O   0  0  0  0  0  0  0  0  0  0  0  0
    0.1610    1.7240    0.1440 C   0  0  0  0  0  0  0  0  0  0  0  0
   -0.5570    3.0360   -0.0830 C   0  0  0  0  0  0  0  0  0  0  0  0
   -1.7860    2.8440    0.6730 O   0  0  0  0  0  0  0  0  0  0  0  0
   -2.4960    2.0170   -0.2010 C   0  0  0  0  0  0  0  0  0  0  0  0
   -3.6460    1.2420    0.3290 C   0  0  2  0  0  0  0  0  0  0  0  0
   -4.3060    0.6030   -0.8990 C   0  0  0  0  0  0  0  0  0  0  0  0
   -5.8180    0.7660   -0.5260 C   0  0  1  0  0  0  0  0  0  0  0  0
   -6.4940   -0.4250   -1.1120 C   0  0  2  0  0  0  0  0  0  0  0  0
   -6.1380   -0.1410   -2.5570 O   0  0  0  0  0  0  0  0  0  0  0  0
   -7.9350   -0.5580   -1.2130 C   0  0  0  0  0  0  0  0  0  0  0  0
   -8.7760   -1.0470   -0.1920 N   0  0  0  0  0  0  0  0  0  0  0  0
   -9.1040   -2.5210   -0.1490 C   0  0  0  0  0  0  0  0  0  0  0  0
  -10.5660   -2.7440   -0.0450 C   0  0  0  0  0  0  0  0  0  0  0  0
  -11.3800   -1.6460    0.5460 C   0  0  0  0  0  0  0  0  0  0  0  0
  -10.6420   -0.7520    1.4870 C   0  0  0  0  0  0  0  0  0  0  0  0
   -9.3920   -0.3270    0.7970 C   0  0  0  0  0  0  0  0  0  0  0  0
   -8.8680    0.8020    1.2000 O   0  0  0  0  0  0  0  0  0  0  0  0
   -5.7790    1.0970    0.8770 C   0  0  1  0  0  0  0  0  0  0  0  0
   -5.5320   -0.0320    1.8260 C   0  0  0  0  0  0  0  0  0  0  0  0
   -5.2600    0.4280    3.1370 O   0  0  0  0  0  0  0  0  0  0  0  0
   -4.6180    1.9540    0.9310 O   0  0  0  0  0  0  0  0  0  0  0  0
    3.1690   -0.0430   -1.3240 C   0  0  0  0  0  0  0  0  0  0  0  0
    3.9570   -1.1170   -0.6440 C   0  0  0  0  0  0  0  0  0  0  0  0
    9.6530   -0.2570    0.3080 C   0  0  0  0  0  0  0  0  0  0  0  0
   10.1090   -0.6650    1.4960 C   0  0  0  0  0  0  0  0  0  0  0  0
   11.2270   -1.4860    1.5650 C   0  0  0  0  0  0  0  0  0  0  0  0
   11.9200   -2.0880    2.6740 C   0  0  0  0  0  0  0  0  0  0  0  0
   11.6530   -1.6800   -0.2150 S   0  0  0  0  0  0  0  0  0  0  0  0
   10.2790   -0.6420   -0.8560 C   0  0  0  0  0  0  0  0  0  0  0  0
    9.9120   -0.3180   -2.1150 C   0  0  0  0  0  0  0  0  0  0  0  0
  1  2  1  0
  2  3  2  0
  2 44  1  0
  3  4  1  0
  4  5  1  0
  4 38  2  0
  5  6  1  0
  6  7  1  0
  7  8  2  0
  9  7  1  6
  9 10  1  0
  9 37  1  0
 10 11  1  0
 11 12  1  0
 12 13  1  0
 12 36  1  0
 13 14  2  0
 13 15  1  0
 15 16  1  0
 16 17  1  0
 17 18  1  0
 19 18  1  6
 19 20  1  0
 19 35  1  0
 21 20  1  1
 21 22  1  0
 21 32  1  0
 22 23  1  6
 22 24  1  0
 24 25  1  0
 25 26  1  0
 25 30  1  0
 26 27  1  0
 27 28  1  0
 28 29  1  0
 29 30  1  0
 30 31  2  0
 32 33  1  1
 32 35  1  0
 33 34  1  0
 36 37  1  0
 38 39  1  0
 38 43  1  0
 39 40  2  0
 40 41  1  0
 40 42  1  0
 42 43  1  0
 43 44  2  0
M  END
