
     RDKit          3D

 44 48  0  0  0  0  0  0  0  0999 V2000
    2.4290    2.0170    0.0870 C   0  0  0  0  0  0  0  0  0  0  0  0
    0.9320    1.7130   -0.0180 C   0  0  1  0  0  0  0  0  0  0  0  0
    0.3310    2.5400   -1.1300 C   0  0  0  0  0  0  0  0  0  0  0  0
   -0.1200    1.7680   -2.1760 O   0  0  0  0  0  0  0  0  0  0  0  0
   -0.9790    0.7320   -1.8000 C   0  0  2  0  0  0  0  0  0  0  0  0
   -2.1510    1.2100   -1.0320 C   0  0  0  0  0  0  0  0  0  0  0  0
   -3.1580    0.2210   -0.5900 C   0  0  1  0  0  0  0  0  0  0  0  0
   -3.7250   -0.5370   -1.8290 C   0  0  0  0  0  0  0  0  0  0  0  0
   -2.8350   -0.7130    0.3350 O   0  0  0  0  0  0  0  0  0  0  0  0
   -2.4170   -0.3060    1.5620 C   0  0  0  0  0  0  0  0  0  0  0  0
   -2.1740   -1.4430    2.5030 C   0  0  0  0  0  0  0  0  0  0  0  0
   -1.7530   -1.1240    3.6440 O   0  0  0  0  0  0  0  0  0  0  0  0
   -2.3950   -2.8040    2.1690 N   0  0  0  0  0  0  0  0  0  0  0  0
   -2.8640   -3.1960    0.8380 C   0  0  0  0  0  0  0  0  0  0  0  0
   -2.1710   -3.8170    3.1720 C   0  0  0  0  0  0  0  0  0  0  0  0
   -0.7830   -4.3650    3.2110 C   0  0  0  0  0  0  0  0  0  0  0  0
    0.1830   -3.4210    3.4700 O   0  0  0  0  0  0  0  0  0  0  0  0
   -4.4030    0.9850   -0.1390 C   0  0  0  0  0  0  0  0  0  0  0  0
   -4.9560    0.6220    0.9030 O   0  0  0  0  0  0  0  0  0  0  0  0
   -4.8810    2.0320   -0.8680 O   0  0  0  0  0  0  0  0  0  0  0  0
   -6.0250    2.7910   -0.5190 C   0  0  1  0  0  0  0  0  0  0  0  0
   -5.7100    4.2180   -0.1950 C   0  0  0  0  0  0  0  0  0  0  0  0
   -6.3550    5.1750   -1.1720 C   0  0  0  0  0  0  0  0  0  0  0  0
   -7.8660    5.0160   -1.1210 C   0  0  0  0  0  0  0  0  0  0  0  0
   -8.2770    3.5700   -0.9700 C   0  0  0  0  0  0  0  0  0  0  0  0
   -7.1480    2.6890   -1.5000 C   0  0  0  0  0  0  0  0  0  0  0  0
   -0.1600   -0.3190   -1.1290 C   0  0  0  0  0  0  0  0  0  0  0  0
    0.7770    0.3090   -0.2230 N   0  0  0  0  0  0  0  0  0  0  0  0
    1.6330   -0.5720    0.5370 C   0  0  0  0  0  0  0  0  0  0  0  0
    2.4740   -0.1210    1.3750 O   0  0  0  0  0  0  0  0  0  0  0  0
    1.5470   -2.0270    0.3500 C   0  0  0  0  0  0  0  0  0  0  0  0
    2.7340   -2.8470    1.4140 S   0  0  0  0  0  0  0  0  0  0  0  0
    4.4060   -2.4390    0.8960 C   0  0  0  0  0  0  0  0  0  0  0  0
    5.5830   -2.8820    1.4960 C   0  0  0  0  0  0  0  0  0  0  0  0
    6.6570   -2.3530    0.8100 C   0  0  0  0  0  0  0  0  0  0  0  0
    8.0370   -2.4450    0.9480 C   0  0  0  0  0  0  0  0  0  0  0  0
    8.8950   -1.7880    0.0910 C   0  0  0  0  0  0  0  0  0  0  0  0
    8.3360   -1.0310   -0.9160 C   0  0  0  0  0  0  0  0  0  0  0  0
    6.9670   -0.9420   -1.0500 C   0  0  0  0  0  0  0  0  0  0  0  0
    6.0900   -1.5980   -0.1940 C   0  0  0  0  0  0  0  0  0  0  0  0
    4.7880   -1.6800   -0.1010 O   0  0  0  0  0  0  0  0  0  0  0  0
    9.4490   -0.4200   -1.7120 C   0  0  0  0  0  0  0  0  0  0  0  0
   10.5750   -1.4030   -1.4580 C   0  0  0  0  0  0  0  0  0  0  0  0
   10.3910   -1.7140    0.0140 C   0  0  0  0  0  0  0  0  0  0  0  0
  2  1  1  6
  2  3  1  0
  2 28  1  0
  3  4  1  0
  4  5  1  0
  5  6  1  1
  5 27  1  0
  6  7  1  0
  7  8  1  6
  7  9  1  0
  7 18  1  0
  9 10  1  0
 10 11  1  0
 11 12  2  0
 11 13  1  0
 13 14  1  0
 13 15  1  0
 15 16  1  0
 16 17  1  0
 18 19  2  0
 18 20  1  0
 21 20  1  6
 21 22  1  0
 21 26  1  0
 22 23  1  0
 23 24  1  0
 24 25  1  0
 25 26  1  0
 27 28  1  0
 28 29  1  0
 29 30  2  0
 29 31  1  0
 31 32  1  0
 32 33  1  0
 33 34  2  0
 33 41  1  0
 34 35  1  0
 35 36  2  0
 35 40  1  0
 36 37  1  0
 37 38  2  0
 37 44  1  0
 38 39  1  0
 38 42  1  0
 39 40  2  0
 40 41  1  0
 42 43  1  0
 43 44  1  0
M  END
