
     RDKit          3D

 47 52  0  0  0  0  0  0  0  0999 V2000
   -3.8810   -0.3960   -0.9010 O   0  0  0  0  0  0  0  0  0  0  0  0
   -3.1850    0.1540   -0.0320 C   0  0  0  0  0  0  0  0  0  0  0  0
   -3.6870    0.2590    1.2880 N   0  0  0  0  0  0  0  0  0  0  0  0
   -4.9910   -0.2740    1.5830 C   0  0  1  0  0  0  0  0  0  0  0  0
   -5.0160   -1.0470    2.8310 C   0  0  0  0  0  0  0  0  0  0  0  0
   -4.1230   -1.9790    3.3440 C   0  0  0  0  0  0  0  0  0  0  0  0
   -4.3330   -2.6000    4.5610 C   0  0  0  0  0  0  0  0  0  0  0  0
   -5.4700   -2.2810    5.2900 C   0  0  0  0  0  0  0  0  0  0  0  0
   -6.3470   -1.3550    4.7710 C   0  0  0  0  0  0  0  0  0  0  0  0
   -6.1480   -0.7210    3.5450 C   0  0  0  0  0  0  0  0  0  0  0  0
   -6.9390    0.2900    2.7890 C   0  0  0  0  0  0  0  0  0  0  0  0
   -5.8810    0.9260    1.9220 C   0  0  1  0  0  0  0  0  0  0  0  0
   -5.1400    1.8260    2.6520 O   0  0  0  0  0  0  0  0  0  0  0  0
   -1.8420    0.7020   -0.3530 C   0  0  1  0  0  0  0  0  0  0  0  0
   -0.8290   -0.1120    0.4110 C   0  0  0  0  0  0  0  0  0  0  0  0
    0.5700    0.3890    0.1380 C   0  0  1  0  0  0  0  0  0  0  0  0
    0.7470    1.7050    0.5060 O   0  0  0  0  0  0  0  0  0  0  0  0
    1.6070   -0.5520    0.7150 C   0  0  1  0  0  0  0  0  0  0  0  0
    1.2930   -1.8270    0.2550 O   0  0  0  0  0  0  0  0  0  0  0  0
    1.0720   -2.7180    1.2970 C   0  0  0  0  0  0  0  0  0  0  0  0
    0.7590   -4.0430    0.6870 C   0  0  0  0  0  0  0  0  0  0  0  0
    0.3870   -5.1000    1.4880 C   0  0  0  0  0  0  0  0  0  0  0  0
    0.1000   -6.3470    0.9340 C   0  0  0  0  0  0  0  0  0  0  0  0
    0.1880   -6.5260   -0.4340 C   0  0  0  0  0  0  0  0  0  0  0  0
    0.5550   -5.4890   -1.2590 C   0  0  0  0  0  0  0  0  0  0  0  0
    0.8330   -4.2680   -0.6780 C   0  0  0  0  0  0  0  0  0  0  0  0
    2.9690   -0.2300    0.1940 C   0  0  0  0  0  0  0  0  0  0  0  0
    3.6050   -1.0440   -0.5590 O   0  0  0  0  0  0  0  0  0  0  0  0
    3.6390    0.9790    0.4960 N   0  0  0  0  0  0  0  0  0  0  0  0
    4.9320    1.2390   -0.0290 C   0  0  1  0  0  0  0  0  0  0  0  0
    5.0650    2.5260   -0.7310 C   0  0  0  0  0  0  0  0  0  0  0  0
    4.2270    3.3650   -1.4330 C   0  0  0  0  0  0  0  0  0  0  0  0
    4.6310    4.5440   -2.0020 C   0  0  0  0  0  0  0  0  0  0  0  0
    5.9460    4.9240   -1.8750 C   0  0  0  0  0  0  0  0  0  0  0  0
    6.8190    4.1090   -1.1770 C   0  0  0  0  0  0  0  0  0  0  0  0
    6.3840    2.9300   -0.6160 C   0  0  0  0  0  0  0  0  0  0  0  0
    7.1510    1.9060    0.1770 C   0  0  0  0  0  0  0  0  0  0  0  0
    6.0070    1.3530    1.0310 C   0  0  1  0  0  0  0  0  0  0  0  0
    5.7280    2.2960    1.9940 O   0  0  0  0  0  0  0  0  0  0  0  0
   -1.5860    0.5000   -1.7300 O   0  0  0  0  0  0  0  0  0  0  0  0
   -1.3430    1.7320   -2.3440 C   0  0  0  0  0  0  0  0  0  0  0  0
   -1.0710    1.5390   -3.7880 C   0  0  0  0  0  0  0  0  0  0  0  0
    0.2300    1.3800   -4.2120 C   0  0  0  0  0  0  0  0  0  0  0  0
    0.5540    1.1940   -5.5450 C   0  0  0  0  0  0  0  0  0  0  0  0
   -0.4640    1.1670   -6.4770 C   0  0  0  0  0  0  0  0  0  0  0  0
   -1.7610    1.3240   -6.0570 C   0  0  0  0  0  0  0  0  0  0  0  0
   -2.0890    1.5120   -4.7150 C   0  0  0  0  0  0  0  0  0  0  0  0
  1  2  2  0
  2  3  1  0
  2 14  1  0
  4  3  1  1
  4  5  1  0
  4 12  1  0
  5  6  2  0
  5 10  1  0
  6  7  1  0
  7  8  2  0
  8  9  1  0
  9 10  2  0
 10 11  1  0
 11 12  1  0
 12 13  1  1
 14 15  1  1
 14 40  1  0
 15 16  1  0
 16 17  1  1
 16 18  1  0
 18 19  1  6
 18 27  1  0
 19 20  1  0
 20 21  1  0
 21 22  2  0
 21 26  1  0
 22 23  1  0
 23 24  2  0
 24 25  1  0
 25 26  2  0
 27 28  2  0
 27 29  1  0
 30 29  1  1
 30 31  1  0
 30 38  1  0
 31 32  2  0
 31 36  1  0
 32 33  1  0
 33 34  2  0
 34 35  1  0
 35 36  2  0
 36 37  1  0
 37 38  1  0
 38 39  1  1
 40 41  1  0
 41 42  1  0
 42 43  2  0
 42 47  1  0
 43 44  1  0
 44 45  2  0
 45 46  1  0
 46 47  2  0
M  END
