
     RDKit          3D

 43 47  0  0  0  0  0  0  0  0999 V2000
   -6.5650    2.6640   -1.2890 C   0  0  0  0  0  0  0  0  0  0  0  0
   -5.9180    2.7750    0.0670 C   0  0  1  0  0  0  0  0  0  0  0  0
   -6.4370    4.0660    0.7130 C   0  0  0  0  0  0  0  0  0  0  0  0
   -6.3690    1.6560    0.9830 C   0  0  0  0  0  0  0  0  0  0  0  0
   -6.0360    0.3020    0.4560 C   0  0  1  0  0  0  0  0  0  0  0  0
   -4.5310    0.2010    0.2970 C   0  0  0  0  0  0  0  0  0  0  0  0
   -4.1740   -1.1480   -0.1830 N   0  0  2  0  0  0  0  0  0  0  0  0
   -4.6670   -1.2230   -1.5100 C   0  0  0  0  0  0  0  0  0  0  0  0
   -3.9130   -1.9940   -2.5140 C   0  0  2  0  0  0  0  0  0  0  0  0
   -3.7590   -3.4720   -2.1190 C   0  0  0  0  0  0  0  0  0  0  0  0
   -2.6480   -1.4330   -3.0340 C   0  0  0  0  0  0  0  0  0  0  0  0
   -1.5920   -1.2280   -2.0310 C   0  0  0  0  0  0  0  0  0  0  0  0
   -1.0290   -2.2450   -1.4810 O   0  0  0  0  0  0  0  0  0  0  0  0
   -1.1000   -0.0030   -1.5910 O   0  0  0  0  0  0  0  0  0  0  0  0
   -0.0540    0.0260   -0.6540 C   0  0  0  0  0  0  0  0  0  0  0  0
    1.2660   -0.0650   -1.1300 C   0  0  0  0  0  0  0  0  0  0  0  0
    2.3330   -0.0440   -0.2660 C   0  0  0  0  0  0  0  0  0  0  0  0
    3.6240   -0.1280   -0.7030 C   0  0  0  0  0  0  0  0  0  0  0  0
    4.7340   -0.1090    0.1420 C   0  0  0  0  0  0  0  0  0  0  0  0
    6.0730   -0.0840   -0.4170 C   0  0  0  0  0  0  0  0  0  0  0  0
    6.2850   -0.9290   -1.3610 O   0  0  0  0  0  0  0  0  0  0  0  0
    7.1330    0.7490   -0.0520 N   0  0  0  0  0  0  0  0  0  0  0  0
    8.4450    0.7710   -0.5840 C   0  0  0  0  0  0  0  0  0  0  0  0
    8.9310    0.0150   -1.6030 C   0  0  0  0  0  0  0  0  0  0  0  0
   10.2600    0.1370   -2.0340 C   0  0  0  0  0  0  0  0  0  0  0  0
   11.1290    1.0290   -1.4430 C   0  0  0  0  0  0  0  0  0  0  0  0
   12.4490    1.1690   -1.8540 O   0  0  0  0  0  0  0  0  0  0  0  0
   10.6560    1.7960   -0.4180 C   0  0  0  0  0  0  0  0  0  0  0  0
    9.3500    1.6700   -0.0010 C   0  0  0  0  0  0  0  0  0  0  0  0
    4.4970   -0.0050    1.4790 C   0  0  0  0  0  0  0  0  0  0  0  0
    5.5400   -0.0240    2.4040 C   0  0  0  0  0  0  0  0  0  0  0  0
    5.3400    0.0490    3.7830 C   0  0  0  0  0  0  0  0  0  0  0  0
    4.0680    0.1430    4.2420 C   0  0  0  0  0  0  0  0  0  0  0  0
    3.0080    0.1630    3.3650 C   0  0  0  0  0  0  0  0  0  0  0  0
    3.1980    0.0890    2.0100 C   0  0  0  0  0  0  0  0  0  0  0  0
    2.1320    0.0680    1.1130 C   0  0  0  0  0  0  0  0  0  0  0  0
    0.8680    0.1540    1.5480 N   0  0  0  0  0  0  0  0  0  0  0  0
   -0.2020    0.1340    0.6920 C   0  0  0  0  0  0  0  0  0  0  0  0
   -1.3400    0.2240    1.2170 O   0  0  0  0  0  0  0  0  0  0  0  0
   -4.7780   -2.1350    0.7170 C   0  0  1  0  0  0  0  0  0  0  0  0
   -3.7250   -3.0320    1.3100 C   0  0  0  0  0  0  0  0  0  0  0  0
   -5.4390   -1.3820    1.8500 C   0  0  0  0  0  0  0  0  0  0  0  0
   -6.5070   -0.6600    1.3380 O   0  0  0  0  0  0  0  0  0  0  0  0
  2  1  1  6
  2  3  1  0
  2  4  1  0
  5  4  1  1
  5  6  1  0
  5 43  1  0
  6  7  1  0
  7  8  1  6
  7 40  1  0
  8  9  1  0
  9 10  1  1
  9 11  1  0
 11 12  1  0
 12 13  2  0
 12 14  1  0
 14 15  1  0
 15 16  2  0
 15 38  1  0
 16 17  1  0
 17 18  2  0
 17 36  1  0
 18 19  1  0
 19 20  1  0
 19 30  2  0
 20 21  2  0
 20 22  1  0
 22 23  1  0
 23 24  2  0
 23 29  1  0
 24 25  1  0
 25 26  2  0
 26 27  1  0
 26 28  1  0
 28 29  2  0
 30 31  1  0
 30 35  1  0
 31 32  2  0
 32 33  1  0
 33 34  2  0
 34 35  1  0
 35 36  2  0
 36 37  1  0
 37 38  1  0
 38 39  2  0
 40 41  1  1
 40 42  1  0
 42 43  1  0
M  CHG  1   7   1
M  END
