
     RDKit          3D

 43 47  0  0  0  0  0  0  0  0999 V2000
    7.9960   -2.2640    1.1490 C   0  0  0  0  0  0  0  0  0  0  0  0
    6.6980   -2.9830    1.3610 C   0  0  2  0  0  0  0  0  0  0  0  0
    6.4820   -3.0730    2.8740 C   0  0  0  0  0  0  0  0  0  0  0  0
    6.7750   -4.3780    0.8170 C   0  0  0  0  0  0  0  0  0  0  0  0
    5.5920   -2.2580    0.8240 O   0  0  0  0  0  0  0  0  0  0  0  0
    5.5380   -1.9600   -0.5070 C   0  0  0  0  0  0  0  0  0  0  0  0
    6.4750   -2.3290   -1.2580 O   0  0  0  0  0  0  0  0  0  0  0  0
    4.4380   -1.2210   -1.1290 C   0  0  0  0  0  0  0  0  0  0  0  0
    4.4060   -0.9320   -2.4670 C   0  0  0  0  0  0  0  0  0  0  0  0
    3.3850   -0.2400   -3.0780 C   0  0  0  0  0  0  0  0  0  0  0  0
    2.3250    0.1850   -2.2670 C   0  0  0  0  0  0  0  0  0  0  0  0
    2.3090   -0.0800   -0.9140 C   0  0  0  0  0  0  0  0  0  0  0  0
    3.3770   -0.7860   -0.3630 C   0  0  0  0  0  0  0  0  0  0  0  0
    1.1540    0.4560   -0.3830 C   0  0  0  0  0  0  0  0  0  0  0  0
    0.7680    0.3860    1.0200 C   0  0  0  0  0  0  0  0  0  0  0  0
   -0.4610    0.9960    1.3810 N   0  0  1  0  0  0  0  0  0  0  0  0
   -0.3520    2.4220    1.3920 C   0  0  0  0  0  0  0  0  0  0  0  0
   -1.6090    3.1070    1.8710 C   0  0  0  0  0  0  0  0  0  0  0  0
   -1.4430    4.6100    1.8630 C   0  0  2  0  0  0  0  0  0  0  0  0
   -0.3340    5.0900    2.7410 C   0  0  0  0  0  0  0  0  0  0  0  0
   -0.8940    6.1580    3.6070 C   0  0  0  0  0  0  0  0  0  0  0  0
   -0.2100    6.9110    4.3310 O   0  0  0  0  0  0  0  0  0  0  0  0
   -2.2900    6.1700    3.4690 N   0  0  0  0  0  0  0  0  0  0  0  0
   -2.6610    5.2140    2.4810 C   0  0  0  0  0  0  0  0  0  0  0  0
   -3.8620    4.9590    2.2120 O   0  0  0  0  0  0  0  0  0  0  0  0
   -1.5550    0.4560    0.6410 C   0  0  0  0  0  0  0  0  0  0  0  0
   -2.4960   -0.3950    1.5110 C   0  0  1  0  0  0  0  0  0  0  0  0
   -3.0290    0.3850    2.5440 O   0  0  0  0  0  0  0  0  0  0  0  0
   -3.6450   -0.8090    0.6570 C   0  0  0  0  0  0  0  0  0  0  0  0
   -4.5720    0.1580    0.3260 C   0  0  0  0  0  0  0  0  0  0  0  0
   -5.6410   -0.1990   -0.4600 C   0  0  0  0  0  0  0  0  0  0  0  0
   -5.8320   -1.4970   -0.9400 C   0  0  0  0  0  0  0  0  0  0  0  0
   -4.9080   -2.4590   -0.6110 C   0  0  0  0  0  0  0  0  0  0  0  0
   -3.8230   -2.0730    0.1940 C   0  0  0  0  0  0  0  0  0  0  0  0
   -5.0180   -3.8740   -1.0690 C   0  0  0  0  0  0  0  0  0  0  0  0
   -6.0690   -3.9860   -2.1280 C   0  0  0  0  0  0  0  0  0  0  0  0
   -7.3220   -3.2610   -1.6760 C   0  0  0  0  0  0  0  0  0  0  0  0
   -7.0340   -1.7930   -1.7970 C   0  0  0  0  0  0  0  0  0  0  0  0
    0.5050    1.0310   -1.4440 C   0  0  0  0  0  0  0  0  0  0  0  0
    1.2290    0.8590   -2.5820 N   0  0  0  0  0  0  0  0  0  0  0  0
    0.8540    1.3380   -3.9150 C   0  0  0  0  0  0  0  0  0  0  0  0
    1.4150    2.7460   -4.1270 C   0  0  0  0  0  0  0  0  0  0  0  0
    1.0770    3.2240   -5.3790 O   0  0  0  0  0  0  0  0  0  0  0  0
  2  1  1  1
  2  3  1  0
  2  4  1  0
  2  5  1  0
  5  6  1  0
  6  7  2  0
  6  8  1  0
  8  9  2  0
  8 13  1  0
  9 10  1  0
 10 11  2  0
 11 12  1  0
 11 40  1  0
 12 13  2  0
 12 14  1  0
 14 15  1  0
 14 39  2  0
 16 15  1  6
 16 17  1  0
 16 26  1  0
 17 18  1  0
 19 18  1  1
 19 20  1  0
 19 24  1  0
 20 21  1  0
 21 22  2  0
 21 23  1  0
 23 24  1  0
 24 25  2  0
 26 27  1  0
 27 28  1  1
 27 29  1  0
 29 30  2  0
 29 34  1  0
 30 31  1  0
 31 32  2  0
 32 33  1  0
 32 38  1  0
 33 34  2  0
 33 35  1  0
 35 36  1  0
 36 37  1  0
 37 38  1  0
 39 40  1  0
 40 41  1  0
 41 42  1  0
 42 43  1  0
M  CHG  1  16   1
M  END
