
     RDKit          3D

 43 45  0  0  0  0  0  0  0  0999 V2000
   -3.8840   -3.0360    0.2770 C   0  0  0  0  0  0  0  0  0  0  0  0
   -4.7230   -1.7810    0.2290 C   0  0  2  0  0  0  0  0  0  0  0  0
   -6.1690   -2.2530   -0.0470 C   0  0  0  0  0  0  0  0  0  0  0  0
   -4.2980   -0.8550   -0.8470 C   0  0  0  0  0  0  0  0  0  0  0  0
   -2.9270   -0.3090   -0.8180 C   0  0  0  0  0  0  0  0  0  0  0  0
   -2.4940    0.4910    0.2310 N   0  0  0  0  0  0  0  0  0  0  0  0
   -2.1020    0.0200    1.4770 C   0  0  0  0  0  0  0  0  0  0  0  0
   -0.7010    0.1870    1.9190 C   0  0  1  0  0  0  0  0  0  0  0  0
   -0.6000   -0.3420    3.2340 O   0  0  0  0  0  0  0  0  0  0  0  0
    0.3980   -0.3350    1.0660 C   0  0  2  0  0  0  0  0  0  0  0  0
    0.3700   -1.8570    0.9970 C   0  0  0  0  0  0  0  0  0  0  0  0
    1.6670   -2.5020    0.6610 C   0  0  0  0  0  0  0  0  0  0  0  0
    2.0140   -2.7020   -0.6550 C   0  0  0  0  0  0  0  0  0  0  0  0
    3.2490   -3.3200   -1.0180 C   0  0  0  0  0  0  0  0  0  0  0  0
    4.1520   -3.7440   -0.0840 C   0  0  0  0  0  0  0  0  0  0  0  0
    3.8070   -3.5440    1.2220 C   0  0  0  0  0  0  0  0  0  0  0  0
    2.5790   -2.9300    1.5970 C   0  0  0  0  0  0  0  0  0  0  0  0
    5.3600   -4.3490   -0.4500 O   0  0  0  0  0  0  0  0  0  0  0  0
    6.5900   -3.7770   -0.7230 C   0  0  0  0  0  0  0  0  0  0  0  0
    6.7530   -2.5310    0.1130 C   0  0  0  0  0  0  0  0  0  0  0  0
    7.0400   -1.3120   -0.7320 C   0  0  0  0  0  0  0  0  0  0  0  0
    5.8730   -0.8270   -1.5250 C   0  0  0  0  0  0  0  0  0  0  0  0
    4.9460    0.0610   -0.7340 C   0  0  0  0  0  0  0  0  0  0  0  0
    3.6410    0.2450   -1.4230 C   0  0  0  0  0  0  0  0  0  0  0  0
    3.4610   -0.4360   -2.4780 O   0  0  0  0  0  0  0  0  0  0  0  0
    2.6430    1.1340   -0.9340 N   0  0  0  0  0  0  0  0  0  0  0  0
    2.8280    1.9090    0.2350 C   0  0  1  0  0  0  0  0  0  0  0  0
    2.3150    3.3250    0.1110 C   0  0  2  0  0  0  0  0  0  0  0  0
    0.8570    3.4130   -0.1780 C   0  0  0  0  0  0  0  0  0  0  0  0
    3.0490    4.0760   -1.0090 C   0  0  0  0  0  0  0  0  0  0  0  0
    2.2940    1.3410    1.4960 C   0  0  0  0  0  0  0  0  0  0  0  0
    2.5030    2.1350    2.5050 O   0  0  0  0  0  0  0  0  0  0  0  0
    1.6360    0.1160    1.6700 N   0  0  0  0  0  0  0  0  0  0  0  0
   -2.8460    2.1520    0.1230 S   0  0  1  0  0  0  0  0  0  0  0  0
   -2.2070    2.8960    1.2690 O   0  0  0  0  0  0  0  0  0  0  0  0
   -2.1310    2.6450   -1.1340 O   0  0  0  0  0  0  0  0  0  0  0  0
   -4.5240    2.5700    0.0760 C   0  0  0  0  0  0  0  0  0  0  0  0
   -5.2810    2.7240    1.2130 C   0  0  0  0  0  0  0  0  0  0  0  0
   -6.6130    3.0730    1.1420 C   0  0  0  0  0  0  0  0  0  0  0  0
   -7.2370    3.2800   -0.0690 C   0  0  0  0  0  0  0  0  0  0  0  0
   -8.6050    3.6390   -0.1670 N   0  0  0  0  0  0  0  0  0  0  0  0
   -6.4840    3.1280   -1.2240 C   0  0  0  0  0  0  0  0  0  0  0  0
   -5.1540    2.7790   -1.1270 C   0  0  0  0  0  0  0  0  0  0  0  0
  2  1  1  6
  2  3  1  0
  2  4  1  0
  4  5  1  0
  5  6  1  0
  6  7  1  0
 34  6  1  1
  7  8  1  0
  8  9  1  1
  8 10  1  0
 10 11  1  1
 10 33  1  0
 11 12  1  0
 12 13  2  0
 12 17  1  0
 13 14  1  0
 14 15  2  0
 15 16  1  0
 15 18  1  0
 16 17  2  0
 18 19  1  0
 19 20  1  0
 20 21  1  0
 21 22  1  0
 22 23  1  0
 23 24  1  0
 24 25  2  0
 24 26  1  0
 27 26  1  6
 27 28  1  0
 27 31  1  0
 28 29  1  6
 28 30  1  0
 31 32  2  0
 31 33  1  0
 34 35  2  0
 34 36  2  0
 34 37  1  0
 37 38  2  0
 37 43  1  0
 38 39  1  0
 39 40  2  0
 40 41  1  0
 40 42  1  0
 42 43  2  0
M  END
