
     RDKit          3D

 43 47  0  0  0  0  0  0  0  0999 V2000
   -0.9130    2.6560    2.1080 C   0  0  0  0  0  0  0  0  0  0  0  0
   -1.5050    1.3940    2.6570 C   0  0  0  0  0  0  0  0  0  0  0  0
   -1.8680    0.4890    1.6680 O   0  0  0  0  0  0  0  0  0  0  0  0
   -1.0500   -0.1090    0.7420 C   0  0  0  0  0  0  0  0  0  0  0  0
    0.2900    0.1060    0.6730 C   0  0  0  0  0  0  0  0  0  0  0  0
    1.1110   -0.4810   -0.2420 C   0  0  0  0  0  0  0  0  0  0  0  0
    2.4930   -0.2720   -0.3570 N   0  0  0  0  0  0  0  0  0  0  0  0
    3.1650    0.8210    0.2210 C   0  0  0  0  0  0  0  0  0  0  0  0
    2.5530    1.6810    0.8690 O   0  0  0  0  0  0  0  0  0  0  0  0
    4.6380    0.9680    0.0640 C   0  0  0  0  0  0  0  0  0  0  0  0
    5.2140    2.0050    0.6250 C   0  0  0  0  0  0  0  0  0  0  0  0
    6.6580    2.1890    0.4910 C   0  0  0  0  0  0  0  0  0  0  0  0
    7.3380    1.3120   -0.2000 C   0  0  0  0  0  0  0  0  0  0  0  0
    8.8340    1.2330   -0.5040 C   0  0  0  0  0  0  0  0  0  0  0  0
    8.9680   -0.1620   -1.0420 C   0  0  1  0  0  0  0  0  0  0  0  0
   10.1730   -0.8810   -0.4670 C   0  0  0  0  0  0  0  0  0  0  0  0
   11.4080   -0.0650   -0.8530 C   0  0  0  0  0  0  0  0  0  0  0  0
   12.6600   -0.7270   -0.3080 C   0  0  0  0  0  0  0  0  0  0  0  0
   12.5960   -0.8130    1.0760 O   0  0  0  0  0  0  0  0  0  0  0  0
    7.6830   -0.8500   -0.6540 C   0  0  0  0  0  0  0  0  0  0  0  0
    6.7360    0.2570   -0.8930 N   0  0  1  0  0  0  0  0  0  0  0  0
    5.4050   -0.0470   -0.6480 C   0  0  0  0  0  0  0  0  0  0  0  0
    0.5160   -1.3570   -1.1570 C   0  0  0  0  0  0  0  0  0  0  0  0
   -0.8080   -1.6020   -1.1280 C   0  0  0  0  0  0  0  0  0  0  0  0
   -1.6450   -0.9910   -0.1810 C   0  0  0  0  0  0  0  0  0  0  0  0
   -2.9070   -1.2210   -0.1470 O   0  0  0  0  0  0  0  0  0  0  0  0
   -4.1660   -1.4760   -0.1460 C   0  0  0  0  0  0  0  0  0  0  0  0
   -5.0940   -0.5210   -0.1030 C   0  0  0  0  0  0  0  0  0  0  0  0
   -6.4980   -0.7580   -0.1020 C   0  0  0  0  0  0  0  0  0  0  0  0
   -6.9730   -1.9100   -0.1520 O   0  0  0  0  0  0  0  0  0  0  0  0
   -7.4030    0.3630   -0.0420 N   0  0  0  0  0  0  0  0  0  0  0  0
   -7.0190    1.7550    0.0050 C   0  0  0  0  0  0  0  0  0  0  0  0
   -8.2350    2.4210    0.5980 C   0  0  0  0  0  0  0  0  0  0  0  0
   -9.3430    1.4760    0.3640 C   0  0  0  0  0  0  0  0  0  0  0  0
  -10.7140    1.5870    0.4540 C   0  0  0  0  0  0  0  0  0  0  0  0
  -11.5330    0.5200    0.1720 C   0  0  0  0  0  0  0  0  0  0  0  0
  -13.0260    0.6780    0.2820 C   0  0  0  0  0  0  0  0  0  0  0  0
  -11.0190   -0.6910   -0.2090 C   0  0  0  0  0  0  0  0  0  0  0  0
   -9.6570   -0.8100   -0.3000 C   0  0  0  0  0  0  0  0  0  0  0  0
   -8.8050    0.2460   -0.0220 C   0  0  0  0  0  0  0  0  0  0  0  0
   -4.6730   -2.9070   -0.1950 C   0  0  2  0  0  0  0  0  0  0  0  0
   -3.4530   -3.8100    0.0770 C   0  0  0  0  0  0  0  0  0  0  0  0
   -5.1630   -3.2340   -1.4360 O   0  0  0  0  0  0  0  0  0  0  0  0
  1  2  1  0
  2  3  1  0
  3  4  1  0
  4  5  2  0
  4 25  1  0
  5  6  1  0
  6  7  1  0
  6 23  2  0
  7  8  1  0
  8  9  2  0
  8 10  1  0
 10 11  2  0
 10 22  1  0
 11 12  1  0
 12 13  2  0
 13 14  1  0
 13 21  1  0
 14 15  1  0
 15 16  1  1
 15 20  1  0
 16 17  1  0
 17 18  1  0
 18 19  1  0
 21 20  1  1
 21 22  1  0
 23 24  1  0
 24 25  2  0
 25 26  1  0
 26 27  1  0
 27 28  2  3
 27 41  1  0
 28 29  1  0
 29 30  2  0
 29 31  1  0
 31 32  1  0
 31 40  1  0
 32 33  1  0
 33 34  1  0
 34 35  2  0
 34 40  1  0
 35 36  1  0
 36 37  1  0
 36 38  2  0
 38 39  1  0
 39 40  2  0
 41 42  1  6
 41 43  1  0
M  CHG  1  21   1
M  END
