
     RDKit          3D

 27 30  0  0  0  0  0  0  0  0999 V2000
    6.2250    2.2860    1.8740 N   0  0  0  0  0  0  0  0  0  0  0  0
    6.3830    0.8650    1.9720 C   0  0  0  0  0  0  0  0  0  0  0  0
    7.4440    0.4400    2.5560 N   0  0  0  0  0  0  0  0  0  0  0  0
    5.3660   -0.0320    1.4210 C   0  0  0  0  0  0  0  0  0  0  0  0
    5.4880   -1.3970    1.4990 C   0  0  0  0  0  0  0  0  0  0  0  0
    4.4980   -2.1970    0.9640 C   0  0  0  0  0  0  0  0  0  0  0  0
    3.3690   -1.6820    0.3410 C   0  0  0  0  0  0  0  0  0  0  0  0
    2.3070   -2.2360   -0.2360 N   0  0  0  0  0  0  0  0  0  0  0  0
    1.4520   -1.2760   -0.7120 C   0  0  0  0  0  0  0  0  0  0  0  0
    0.2130   -1.5380   -1.3960 C   0  0  0  0  0  0  0  0  0  0  0  0
   -0.0860   -2.8010   -1.5680 O   0  0  0  0  0  0  0  0  0  0  0  0
   -0.7280   -0.6450   -1.9090 N   0  0  0  0  0  0  0  0  0  0  0  0
   -0.6040    0.7680   -1.8230 C   0  0  0  0  0  0  0  0  0  0  0  0
   -1.8470    1.4300   -2.3480 C   0  0  0  0  0  0  0  0  0  0  0  0
   -3.0580    0.8380   -1.6790 C   0  0  2  0  0  0  0  0  0  0  0  0
   -3.0780    1.2330   -0.2460 C   0  0  0  0  0  0  0  0  0  0  0  0
   -4.2370    0.7090    0.5280 C   0  0  0  0  0  0  0  0  0  0  0  0
   -5.4100    1.4330    0.4950 C   0  0  0  0  0  0  0  0  0  0  0  0
   -6.4860    0.9750    1.2150 C   0  0  0  0  0  0  0  0  0  0  0  0
   -6.4610   -0.1770    1.9770 C   0  0  0  0  0  0  0  0  0  0  0  0
   -5.2650   -0.8690    1.9800 C   0  0  0  0  0  0  0  0  0  0  0  0
   -4.1620   -0.4420    1.2700 C   0  0  0  0  0  0  0  0  0  0  0  0
   -3.1540   -0.6370   -1.8920 C   0  0  0  0  0  0  0  0  0  0  0  0
   -1.9030   -1.1690   -2.5830 C   0  0  0  0  0  0  0  0  0  0  0  0
    2.0490   -0.0980   -0.3950 C   0  0  0  0  0  0  0  0  0  0  0  0
    3.2660   -0.3180    0.2740 C   0  0  0  0  0  0  0  0  0  0  0  0
    4.2340    0.5070    0.7970 C   0  0  0  0  0  0  0  0  0  0  0  0
  1  2  1  0
  2  3  2  0
  2  4  1  0
  4  5  2  0
  4 27  1  0
  5  6  1  0
  6  7  2  0
  7  8  1  0
  7 26  1  0
  8  9  1  0
  9 10  1  0
  9 25  2  0
 10 11  2  0
 10 12  1  0
 12 13  1  0
 12 24  1  0
 13 14  1  0
 14 15  1  0
 15 16  1  1
 15 23  1  0
 16 17  1  0
 17 18  2  0
 17 22  1  0
 18 19  1  0
 19 20  2  0
 20 21  1  0
 21 22  2  0
 23 24  1  0
 25 26  1  0
 26 27  2  0
M  CHG  1   3   1
M  END
