
     RDKit          3D

 26 27  0  0  0  0  0  0  0  0999 V2000
    2.0190   -1.2360   -2.7210 C   0  0  0  0  0  0  0  0  0  0  0  0
    2.6910   -0.5110   -1.8920 C   0  0  0  0  0  0  0  0  0  0  0  0
    3.8190    0.3740   -2.3790 C   0  0  0  0  0  0  0  0  0  0  0  0
    4.9330    0.3730   -1.3560 C   0  0  0  0  0  0  0  0  0  0  0  0
    4.5010    0.4040    0.0030 N   0  0  0  0  0  0  0  0  0  0  0  0
    3.6030   -0.6790    0.3890 C   0  0  0  0  0  0  0  0  0  0  0  0
    2.3870   -0.4960   -0.4470 C   0  0  0  0  0  0  0  0  0  0  0  0
    1.1640   -0.2970    0.0230 C   0  0  0  0  0  0  0  0  0  0  0  0
    0.0650   -0.0790   -0.8810 N   0  0  0  0  0  0  0  0  0  0  0  0
   -0.8390    1.0460   -0.8380 C   0  0  0  0  0  0  0  0  0  0  0  0
   -1.5400    1.3260   -1.8410 O   0  0  0  0  0  0  0  0  0  0  0  0
   -0.9740    1.8970    0.3720 C   0  0  0  0  0  0  0  0  0  0  0  0
   -1.7790    1.2600    1.3890 N   0  0  0  0  0  0  0  0  0  0  0  0
   -3.0220    0.5870    1.1440 C   0  0  0  0  0  0  0  0  0  0  0  0
   -4.0040    0.8900    1.9440 O   0  0  0  0  0  0  0  0  0  0  0  0
   -3.2670   -0.3910    0.0850 C   0  0  0  0  0  0  0  0  0  0  0  0
   -4.3410   -0.0400   -0.8740 C   0  0  0  0  0  0  0  0  0  0  0  0
   -4.9640    1.0950   -0.8130 C   0  0  0  0  0  0  0  0  0  0  0  0
   -6.0540    1.4780   -1.7660 C   0  0  0  0  0  0  0  0  0  0  0  0
   -2.6970   -1.5840   -0.0630 C   0  0  0  0  0  0  0  0  0  0  0  0
   -1.7280   -2.3000    0.6950 C   0  0  0  0  0  0  0  0  0  0  0  0
   -0.7160   -2.2010    1.4890 C   0  0  0  0  0  0  0  0  0  0  0  0
    0.0750   -1.1620    2.1100 C   0  0  0  0  0  0  0  0  0  0  0  0
   -0.0560   -1.0260    3.6250 C   0  0  0  0  0  0  0  0  0  0  0  0
    0.9170   -0.3090    1.4790 C   0  0  0  0  0  0  0  0  0  0  0  0
    1.6590    0.6600    2.3220 C   0  0  0  0  0  0  0  0  0  0  0  0
  1  2  2  0
  2  3  1  0
  2  7  1  0
  3  4  1  0
  4  5  1  0
  5  6  1  0
  6  7  1  0
  7  8  2  3
  8  9  1  0
  8 25  1  0
  9 10  1  0
 10 11  2  0
 10 12  1  0
 12 13  1  0
 13 14  1  0
 14 15  2  0
 14 16  1  0
 16 17  1  0
 16 20  2  0
 17 18  2  3
 18 19  1  0
 20 21  1  0
 21 22  2  0
 22 23  1  0
 23 24  1  0
 23 25  2  0
 25 26  1  0
M  CHG  1   5   1
M  END
