
     RDKit          3D

 26 28  0  0  0  0  0  0  0  0999 V2000
   -1.5980    2.9100   -0.5130 C   0  0  0  0  0  0  0  0  0  0  0  0
   -2.0200    1.5660    0.1120 C   0  0  1  0  0  0  0  0  0  0  0  0
   -0.8690    1.1240    0.9170 C   0  0  0  0  0  0  0  0  0  0  0  0
   -0.2240   -0.0250    0.8870 C   0  0  0  0  0  0  0  0  0  0  0  0
    0.9530   -0.1730    1.8660 C   0  0  0  0  0  0  0  0  0  0  0  0
    2.1040   -0.6640    1.0570 N   0  0  0  0  0  0  0  0  0  0  0  0
    3.2870    0.0510    1.0590 C   0  0  0  0  0  0  0  0  0  0  0  0
    3.2610    1.0790    1.8890 O   0  0  0  0  0  0  0  0  0  0  0  0
    4.5290   -0.0800    0.3600 C   0  0  0  0  0  0  0  0  0  0  0  0
    5.6700    0.6420    0.7960 C   0  0  0  0  0  0  0  0  0  0  0  0
    6.8590    0.5880    0.1140 C   0  0  0  0  0  0  0  0  0  0  0  0
    6.9510   -0.1770   -1.0110 C   0  0  0  0  0  0  0  0  0  0  0  0
    8.1470   -0.2380   -1.7040 O   0  0  0  0  0  0  0  0  0  0  0  0
    5.8780   -0.9010   -1.4830 C   0  0  0  0  0  0  0  0  0  0  0  0
    4.6740   -0.8280   -0.7690 C   0  0  0  0  0  0  0  0  0  0  0  0
    1.8610   -1.8930    0.3870 C   0  0  0  0  0  0  0  0  0  0  0  0
    0.7770   -1.7120   -0.6800 C   0  0  0  0  0  0  0  0  0  0  0  0
   -0.4720   -1.1720    0.0440 C   0  0  0  0  0  0  0  0  0  0  0  0
   -1.5580   -1.7450   -0.0970 N   0  0  0  0  0  0  0  0  0  0  0  0
   -2.8820   -1.7390    0.2970 C   0  0  0  0  0  0  0  0  0  0  0  0
   -3.7890   -1.9660   -0.9210 C   0  0  0  0  0  0  0  0  0  0  0  0
   -4.8330   -0.8760   -1.0290 C   0  0  0  0  0  0  0  0  0  0  0  0
   -5.3680   -0.4470    0.2690 C   0  0  0  0  0  0  0  0  0  0  0  0
   -5.2010    0.7220    0.8510 C   0  0  0  0  0  0  0  0  0  0  0  0
   -4.4180    1.8590    0.2890 C   0  0  0  0  0  0  0  0  0  0  0  0
   -3.1470    1.9140    0.9780 N   0  0  0  0  0  0  0  0  0  0  0  0
  2  1  1  1
  2  3  1  0
  2 26  1  0
  3  4  2  0
  4  5  1  0
  4 18  1  0
  5  6  1  0
  6  7  1  0
  6 16  1  0
  7  8  2  0
  7  9  1  0
  9 10  2  0
  9 15  1  0
 10 11  1  0
 11 12  2  0
 12 13  1  0
 12 14  1  0
 14 15  2  0
 16 17  1  0
 17 18  1  0
 18 19  2  0
 19 20  1  0
 20 21  1  0
 21 22  1  0
 22 23  1  0
 23 24  2  0
 24 25  1  0
 25 26  1  0
M  CHG  1  26   1
M  END
