
     RDKit          3D

 41 45  0  0  0  0  0  0  0  0999 V2000
   -2.1390    0.8920   -1.8840 C   0  0  0  0  0  0  0  0  0  0  0  0
   -2.8990   -0.0790   -0.9910 C   0  0  0  0  0  0  0  0  0  0  0  0
   -2.4400   -0.0790    0.3920 C   0  0  0  0  0  0  0  0  0  0  0  0
   -2.7560    1.0080    1.2080 C   0  0  0  0  0  0  0  0  0  0  0  0
   -3.6200    2.1100    0.7860 C   0  0  0  0  0  0  0  0  0  0  0  0
   -5.0640    1.7060    0.9940 C   0  0  0  0  0  0  0  0  0  0  0  0
   -5.9810    2.6510    0.6140 O   0  0  0  0  0  0  0  0  0  0  0  0
   -5.9490    3.0000   -0.7100 C   0  0  0  0  0  0  0  0  0  0  0  0
   -2.2930    1.0330    2.5100 C   0  0  0  0  0  0  0  0  0  0  0  0
   -1.5300    0.0180    3.0280 C   0  0  0  0  0  0  0  0  0  0  0  0
   -0.9690    0.1110    4.6930 Cl  0  0  0  0  0  0  0  0  0  0  0  0
   -1.2340   -1.0410    2.2100 C   0  0  0  0  0  0  0  0  0  0  0  0
   -1.6750   -1.1030    0.9090 C   0  0  0  0  0  0  0  0  0  0  0  0
   -1.3780   -2.2230    0.1170 N   0  0  0  0  0  0  0  0  0  0  0  0
   -0.1590   -2.4340   -0.3620 C   0  0  0  0  0  0  0  0  0  0  0  0
    0.9510   -1.6050   -0.1000 N   0  0  0  0  0  0  0  0  0  0  0  0
    1.8910   -1.8140    0.9860 C   0  0  0  0  0  0  0  0  0  0  0  0
    2.2750   -0.3550    1.2990 C   0  0  0  0  0  0  0  0  0  0  0  0
    2.5660    0.0650   -0.0840 N   0  0  0  0  0  0  0  0  0  0  0  0
    3.6920    0.7680   -0.5440 C   0  0  0  0  0  0  0  0  0  0  0  0
    4.6510    1.1620    0.3860 C   0  0  0  0  0  0  0  0  0  0  0  0
    5.8050    1.8520    0.0140 C   0  0  0  0  0  0  0  0  0  0  0  0
    6.8060    2.2340    1.0420 C   0  0  2  0  0  0  0  0  0  0  0  0
    8.1400    1.5810    0.7480 C   0  0  0  0  0  0  0  0  0  0  0  0
    6.3310    1.8870    2.2900 F   0  0  0  0  0  0  0  0  0  0  0  0
    7.0000    3.5930    0.9800 F   0  0  0  0  0  0  0  0  0  0  0  0
    6.0300    2.1660   -1.2840 C   0  0  0  0  0  0  0  0  0  0  0  0
    7.4510    3.0320   -1.8070 Cl  0  0  0  0  0  0  0  0  0  0  0  0
    5.0990    1.7880   -2.2180 C   0  0  0  0  0  0  0  0  0  0  0  0
    3.9490    1.1000   -1.8500 C   0  0  0  0  0  0  0  0  0  0  0  0
    3.0970    0.7640   -2.8320 F   0  0  0  0  0  0  0  0  0  0  0  0
    1.4220   -0.4450   -0.7880 C   0  0  0  0  0  0  0  0  0  0  0  0
    0.9440    0.0560   -1.8180 O   0  0  0  0  0  0  0  0  0  0  0  0
    0.0360   -3.5480   -1.1320 N   0  0  0  0  0  0  0  0  0  0  0  0
   -0.9510   -4.4110   -1.4080 C   0  0  0  0  0  0  0  0  0  0  0  0
   -0.8040   -5.4430   -2.1130 O   0  0  0  0  0  0  0  0  0  0  0  0
   -2.2170   -4.1820   -0.9020 C   0  0  0  0  0  0  0  0  0  0  0  0
   -3.3910   -4.8510   -0.9930 N   0  0  0  0  0  0  0  0  0  0  0  0
   -4.3390   -4.1960   -0.3000 C   0  0  0  0  0  0  0  0  0  0  0  0
   -3.7700   -3.0720    0.2570 C   0  0  0  0  0  0  0  0  0  0  0  0
   -2.4260   -3.0720   -0.1310 C   0  0  0  0  0  0  0  0  0  0  0  0
  1  2  1  0
  2  3  1  0
  3  4  2  0
  3 13  1  0
  4  5  1  0
  4  9  1  0
  5  6  1  0
  6  7  1  0
  7  8  1  0
  9 10  2  0
 10 11  1  0
 10 12  1  0
 12 13  2  0
 13 14  1  0
 14 15  1  0
 14 41  1  0
 15 16  1  0
 15 34  2  0
 16 17  1  0
 16 32  1  0
 17 18  1  0
 18 19  1  0
 19 20  1  0
 19 32  1  0
 20 21  2  0
 20 30  1  0
 21 22  1  0
 22 23  1  0
 22 27  2  0
 23 24  1  6
 23 25  1  0
 23 26  1  0
 27 28  1  0
 27 29  1  0
 29 30  2  0
 30 31  1  0
 32 33  2  0
 34 35  1  0
 35 36  2  0
 35 37  1  0
 37 38  1  0
 37 41  2  0
 38 39  1  0
 39 40  2  0
 40 41  1  0
M  END
