
     RDKit          3D

 41 45  0  0  0  0  0  0  0  0999 V2000
   10.4740   -2.3320   -0.6340 C   0  0  0  0  0  0  0  0  0  0  0  0
    9.4700   -1.3530   -0.3830 O   0  0  0  0  0  0  0  0  0  0  0  0
    9.0450   -1.0110    0.8750 C   0  0  0  0  0  0  0  0  0  0  0  0
    9.5860   -1.6080    1.8500 O   0  0  0  0  0  0  0  0  0  0  0  0
    8.0440   -0.0310    1.0510 N   0  0  0  0  0  0  0  0  0  0  0  0
    7.6200    0.3020    2.3680 C   0  0  0  0  0  0  0  0  0  0  0  0
    6.6120    1.3950    2.4500 C   0  0  0  0  0  0  0  0  0  0  0  0
    5.5920    1.1120    1.3780 C   0  0  0  0  0  0  0  0  0  0  0  0
    4.2610    1.2430    1.6720 C   0  0  0  0  0  0  0  0  0  0  0  0
    3.2560    0.9940    0.7280 C   0  0  0  0  0  0  0  0  0  0  0  0
    1.9790    1.1640    1.1460 O   0  0  0  0  0  0  0  0  0  0  0  0
    0.8410    0.9520    0.4270 C   0  0  0  0  0  0  0  0  0  0  0  0
    0.5640   -0.4790   -0.0030 C   0  0  0  0  0  0  0  0  0  0  0  0
   -0.7010   -0.3980   -0.7440 N   0  0  0  0  0  0  0  0  0  0  0  0
   -1.8630   -0.1130   -0.0230 C   0  0  0  0  0  0  0  0  0  0  0  0
   -1.9880   -0.1430    1.3880 C   0  0  0  0  0  0  0  0  0  0  0  0
   -3.2690    0.1330    1.7600 C   0  0  0  0  0  0  0  0  0  0  0  0
   -3.9660    0.3370    0.6280 N   0  0  0  0  0  0  0  0  0  0  0  0
   -5.2460    0.6390    0.4570 N   0  0  0  0  0  0  0  0  0  0  0  0
   -5.7870    0.8160   -0.7480 C   0  0  0  0  0  0  0  0  0  0  0  0
   -7.2070    1.2040   -0.8100 C   0  0  0  0  0  0  0  0  0  0  0  0
   -8.0810    0.2290   -0.1800 C   0  0  0  0  0  0  0  0  0  0  0  0
   -8.5540    0.4970    1.1130 C   0  0  0  0  0  0  0  0  0  0  0  0
   -9.4070   -0.3420    1.7870 C   0  0  0  0  0  0  0  0  0  0  0  0
   -9.8110   -1.4720    1.1850 N   0  0  0  0  0  0  0  0  0  0  0  0
   -9.3920   -1.7800   -0.0470 C   0  0  0  0  0  0  0  0  0  0  0  0
   -8.5110   -0.9180   -0.7470 C   0  0  0  0  0  0  0  0  0  0  0  0
   -8.0740   -1.3560   -2.0800 C   0  0  0  0  0  0  0  0  0  0  0  0
   -6.5530   -2.2340   -2.1100 Cl  0  0  0  0  0  0  0  0  0  0  0  0
   -5.0000    0.6850   -1.8620 C   0  0  0  0  0  0  0  0  0  0  0  0
   -3.6380    0.3660   -1.7290 C   0  0  0  0  0  0  0  0  0  0  0  0
   -2.7860    0.2360   -2.9180 C   0  0  2  0  0  0  0  0  0  0  0  0
   -3.6850    0.5000   -4.0120 F   0  0  0  0  0  0  0  0  0  0  0  0
   -2.3540   -1.0040   -3.2400 F   0  0  0  0  0  0  0  0  0  0  0  0
   -1.6170    1.5580   -3.1290 Cl  0  0  0  0  0  0  0  0  0  0  0  0
   -3.1570    0.1980   -0.4510 C   0  0  0  0  0  0  0  0  0  0  0  0
    3.7030    0.6110   -0.5120 C   0  0  0  0  0  0  0  0  0  0  0  0
    5.0580    0.4720   -0.8280 C   0  0  0  0  0  0  0  0  0  0  0  0
    5.4200    0.0920   -2.0650 F   0  0  0  0  0  0  0  0  0  0  0  0
    6.0080    0.7220    0.1160 C   0  0  0  0  0  0  0  0  0  0  0  0
    7.4780    0.6090   -0.1070 C   0  0  0  0  0  0  0  0  0  0  0  0
  1  2  1  0
  2  3  1  0
  3  4  2  0
  3  5  1  0
  5  6  1  0
  5 41  1  0
  6  7  1  0
  7  8  1  0
  8  9  2  0
  8 40  1  0
  9 10  1  0
 10 11  1  0
 10 37  2  0
 11 12  1  0
 12 13  1  0
 13 14  1  0
 14 15  1  0
 15 16  1  0
 15 36  2  0
 16 17  2  0
 17 18  1  0
 18 19  1  0
 18 36  1  0
 19 20  2  0
 20 21  1  0
 20 30  1  0
 21 22  1  0
 22 23  2  0
 22 27  1  0
 23 24  1  0
 24 25  2  0
 25 26  1  0
 26 27  2  0
 27 28  1  0
 28 29  1  0
 30 31  2  0
 31 32  1  0
 31 36  1  0
 32 33  1  6
 32 34  1  0
 32 35  1  0
 37 38  1  0
 38 39  1  0
 38 40  2  0
 40 41  1  0
M  END
