
     RDKit          3D

 42 45  0  0  0  0  0  0  0  0999 V2000
   -1.9480   -3.6910    0.9180 C   0  0  0  0  0  0  0  0  0  0  0  0
   -1.7650   -2.5720   -0.2050 C   0  0  0  0  0  0  0  0  0  0  0  0
   -1.9850   -1.3810    0.5870 N   0  0  0  0  0  0  0  0  0  0  0  0
   -3.3540   -0.9690    0.8720 C   0  0  0  0  0  0  0  0  0  0  0  0
   -3.9130    0.0320   -0.0800 C   0  0  0  0  0  0  0  0  0  0  0  0
   -5.2820    0.3760    0.1030 N   0  0  0  0  0  0  0  0  0  0  0  0
   -6.2860   -0.6370   -0.1740 C   0  0  0  0  0  0  0  0  0  0  0  0
   -7.5590   -0.3960   -0.0910 C   0  0  0  0  0  0  0  0  0  0  0  0
   -8.7660   -1.6610   -0.4420 Cl  0  0  0  0  0  0  0  0  0  0  0  0
   -8.0890    0.8250    0.2670 O   0  0  0  0  0  0  0  0  0  0  0  0
   -7.2240    1.8630    0.5600 C   0  0  0  0  0  0  0  0  0  0  0  0
   -7.7350    3.0530    0.9070 C   0  0  0  0  0  0  0  0  0  0  0  0
   -6.8690    4.0430    1.1840 O   0  0  0  0  0  0  0  0  0  0  0  0
   -5.4860    3.9920    1.1120 C   0  0  0  0  0  0  0  0  0  0  0  0
   -4.9450    2.6750    0.7360 C   0  0  0  0  0  0  0  0  0  0  0  0
   -5.7720    1.6420    0.4790 C   0  0  0  0  0  0  0  0  0  0  0  0
   -0.9310   -0.6150    1.1010 C   0  0  0  0  0  0  0  0  0  0  0  0
   -1.1280    0.2930    1.9790 O   0  0  0  0  0  0  0  0  0  0  0  0
    0.4460   -0.8630    0.6150 C   0  0  0  0  0  0  0  0  0  0  0  0
    1.5590   -0.7830    1.4250 C   0  0  0  0  0  0  0  0  0  0  0  0
    2.8000   -0.9160    0.9020 N   0  0  0  0  0  0  0  0  0  0  0  0
    3.0410   -1.1380   -0.4280 C   0  0  0  0  0  0  0  0  0  0  0  0
    4.4010   -1.2740   -0.9230 N   0  0  0  0  0  0  0  0  0  0  0  0
    5.3200   -1.2960    0.2490 C   0  0  0  0  0  0  0  0  0  0  0  0
    5.3700   -2.3960    0.8420 C   0  0  0  0  0  0  0  0  0  0  0  0
    4.5600   -3.6680    0.4370 C   0  0  1  0  0  0  0  0  0  0  0  0
    5.3360   -4.7960    0.7270 F   0  0  0  0  0  0  0  0  0  0  0  0
    3.3820   -3.6610    1.0680 F   0  0  0  0  0  0  0  0  0  0  0  0
    4.4130   -3.5900   -0.9530 F   0  0  0  0  0  0  0  0  0  0  0  0
    5.6710    0.0220    0.7320 C   0  0  0  0  0  0  0  0  0  0  0  0
    5.9180    0.1110    2.4770 Cl  0  0  0  0  0  0  0  0  0  0  0  0
    5.7350    1.0290   -0.1310 C   0  0  0  0  0  0  0  0  0  0  0  0
    5.8230    2.1150   -0.9450 C   0  0  0  0  0  0  0  0  0  0  0  0
    5.6120    1.9270   -2.3110 C   0  0  0  0  0  0  0  0  0  0  0  0
    5.7660    3.1710   -2.9860 C   0  0  0  0  0  0  0  0  0  0  0  0
    6.0940    4.1690   -1.9930 C   0  0  0  0  0  0  0  0  0  0  0  0
    6.1280    3.5330   -0.7770 C   0  0  0  0  0  0  0  0  0  0  0  0
    6.4160    4.2070    0.3400 F   0  0  0  0  0  0  0  0  0  0  0  0
    1.9990   -1.2200   -1.2370 C   0  0  0  0  0  0  0  0  0  0  0  0
    1.9840   -1.4960   -2.6300 C   0  0  0  0  0  0  0  0  0  0  0  0
    1.9900   -1.7420   -3.8550 N   0  0  0  0  0  0  0  0  0  0  0  0
    0.6660   -1.0770   -0.7100 C   0  0  0  0  0  0  0  0  0  0  0  0
  1  2  1  0
  2  3  1  0
  3  4  1  0
  3 17  1  0
  4  5  1  0
  5  6  1  0
  6  7  1  0
  6 16  1  0
  7  8  2  0
  8  9  1  0
  8 10  1  0
 10 11  1  0
 11 12  2  0
 11 16  1  0
 12 13  1  0
 13 14  1  0
 14 15  1  0
 15 16  2  0
 17 18  2  0
 17 19  1  0
 19 20  2  0
 19 42  1  0
 20 21  1  0
 21 22  2  0
 22 23  1  0
 22 39  1  0
 23 24  1  0
 24 25  2  3
 24 30  1  0
 25 26  1  0
 26 27  1  6
 26 28  1  0
 26 29  1  0
 30 31  1  0
 30 32  2  3
 32 33  1  0
 33 34  2  0
 33 37  1  0
 34 35  1  0
 35 36  1  0
 36 37  2  0
 37 38  1  0
 39 40  1  0
 39 42  2  0
 40 41  3  0
M  END
