
     RDKit          3D

 41 45  0  0  0  0  0  0  0  0999 V2000
   -2.3660    4.1900    2.3730 C   0  0  0  0  0  0  0  0  0  0  0  0
   -2.3670    3.0580    1.5900 O   0  0  0  0  0  0  0  0  0  0  0  0
   -1.9510    3.2330    0.3230 C   0  0  0  0  0  0  0  0  0  0  0  0
   -1.9320    2.0080   -0.5880 C   0  0  2  0  0  0  0  0  0  0  0  0
   -3.2590    1.5650   -0.9030 C   0  0  0  0  0  0  0  0  0  0  0  0
   -4.3640    1.8550   -0.1650 C   0  0  0  0  0  0  0  0  0  0  0  0
   -5.6190    1.3860   -0.4680 C   0  0  0  0  0  0  0  0  0  0  0  0
   -6.7110    1.7200    0.3290 O   0  0  0  0  0  0  0  0  0  0  0  0
   -5.8150    0.5810   -1.5620 C   0  0  0  0  0  0  0  0  0  0  0  0
   -7.4240   -0.0320   -1.9660 Cl  0  0  0  0  0  0  0  0  0  0  0  0
   -4.7220    0.2640   -2.3370 C   0  0  0  0  0  0  0  0  0  0  0  0
   -3.4770    0.7450   -2.0150 C   0  0  0  0  0  0  0  0  0  0  0  0
   -2.4680    0.4150   -2.8520 F   0  0  0  0  0  0  0  0  0  0  0  0
   -1.0450    1.0230    0.0530 N   0  0  0  0  0  0  0  0  0  0  0  0
   -1.4100    0.3030    1.2450 C   0  0  0  0  0  0  0  0  0  0  0  0
   -1.9400   -1.0450    1.0510 C   0  0  0  0  0  0  0  0  0  0  0  0
   -2.0140   -1.7150   -0.1400 C   0  0  0  0  0  0  0  0  0  0  0  0
   -2.4880   -3.0050   -0.2470 C   0  0  0  0  0  0  0  0  0  0  0  0
   -2.5410   -3.6210   -1.4440 F   0  0  0  0  0  0  0  0  0  0  0  0
   -2.9160   -3.6930    0.8630 C   0  0  0  0  0  0  0  0  0  0  0  0
   -3.5210   -5.3370    0.7410 Cl  0  0  0  0  0  0  0  0  0  0  0  0
   -2.8490   -3.0280    2.0900 C   0  0  0  0  0  0  0  0  0  0  0  0
   -2.3710   -1.7370    2.1700 C   0  0  0  0  0  0  0  0  0  0  0  0
   -2.3450   -1.1750    3.4120 F   0  0  0  0  0  0  0  0  0  0  0  0
    0.2400    0.8630   -0.5350 C   0  0  0  0  0  0  0  0  0  0  0  0
    0.5160    1.5970   -1.5550 O   0  0  0  0  0  0  0  0  0  0  0  0
    1.2580   -0.0660   -0.0710 C   0  0  0  0  0  0  0  0  0  0  0  0
    2.4720   -0.1210   -0.7580 C   0  0  0  0  0  0  0  0  0  0  0  0
    3.4980   -0.9680   -0.4080 C   0  0  0  0  0  0  0  0  0  0  0  0
    4.7500   -1.0080   -1.1440 C   0  0  0  0  0  0  0  0  0  0  0  0
    4.8900   -1.0250   -2.5240 C   0  0  0  0  0  0  0  0  0  0  0  0
    6.1900   -1.0630   -2.7780 N   0  0  0  0  0  0  0  0  0  0  0  0
    6.9020   -1.0720   -1.6830 N   0  0  0  0  0  0  0  0  0  0  0  0
    8.2480   -1.1080   -1.4710 C   0  0  0  0  0  0  0  0  0  0  0  0
    8.7220   -1.1100   -0.1770 C   0  0  0  0  0  0  0  0  0  0  0  0
    7.8370   -1.0740    0.8730 C   0  0  0  0  0  0  0  0  0  0  0  0
    6.5160   -1.0400    0.6150 N   0  0  0  0  0  0  0  0  0  0  0  0
    6.0510   -1.0380   -0.6440 C   0  0  0  0  0  0  0  0  0  0  0  0
    3.3120   -1.7990    0.6710 C   0  0  0  0  0  0  0  0  0  0  0  0
    2.1120   -1.7450    1.3490 C   0  0  0  0  0  0  0  0  0  0  0  0
    1.1450   -0.8990    0.9640 N   0  0  0  0  0  0  0  0  0  0  0  0
  1  2  1  0
  2  3  1  0
  4  3  1  1
  4  5  1  0
  4 14  1  0
  5  6  2  0
  5 12  1  0
  6  7  1  0
  7  8  1  0
  7  9  2  0
  9 10  1  0
  9 11  1  0
 11 12  2  0
 12 13  1  0
 14 15  1  0
 14 25  1  0
 15 16  1  0
 16 17  2  0
 16 23  1  0
 17 18  1  0
 18 19  1  0
 18 20  2  0
 20 21  1  0
 20 22  1  0
 22 23  2  0
 23 24  1  0
 25 26  2  0
 25 27  1  0
 27 28  2  0
 27 41  1  0
 28 29  1  0
 29 30  1  0
 29 39  2  0
 30 31  1  0
 30 38  2  0
 31 32  2  0
 32 33  1  0
 33 34  1  0
 33 38  1  0
 34 35  2  0
 35 36  1  0
 36 37  2  0
 37 38  1  0
 39 40  1  0
 40 41  2  0
M  END
