
     RDKit          3D

 42 45  0  0  0  0  0  0  0  0999 V2000
   -6.0440   -1.8110   -1.2480 C   0  0  0  0  0  0  0  0  0  0  0  0
   -5.1530   -0.5960   -0.9820 C   0  0  0  0  0  0  0  0  0  0  0  0
   -4.0880   -0.9280    0.0310 C   0  0  0  0  0  0  0  0  0  0  0  0
   -3.2160    0.3060    0.2820 C   0  0  1  0  0  0  0  0  0  0  0  0
   -3.9890    1.4560    0.7860 C   0  0  0  0  0  0  0  0  0  0  0  0
   -4.8010    1.4630    1.9920 C   0  0  0  0  0  0  0  0  0  0  0  0
   -6.0150    0.6860    2.1020 C   0  0  0  0  0  0  0  0  0  0  0  0
   -7.1950    1.2440    1.5950 C   0  0  0  0  0  0  0  0  0  0  0  0
   -8.4010    0.6060    1.6830 C   0  0  0  0  0  0  0  0  0  0  0  0
   -8.5010   -0.6330    2.2840 C   0  0  0  0  0  0  0  0  0  0  0  0
   -7.3520   -1.2010    2.7920 C   0  0  0  0  0  0  0  0  0  0  0  0
   -6.1480   -0.5320    2.6890 C   0  0  0  0  0  0  0  0  0  0  0  0
   -2.0000   -0.0090    1.0600 C   0  0  0  0  0  0  0  0  0  0  0  0
   -0.6690    0.2120    0.4740 C   0  0  0  0  0  0  0  0  0  0  0  0
    0.4460    0.1910    1.3780 O   0  0  0  0  0  0  0  0  0  0  0  0
   -0.4750    0.4310   -0.8030 C   0  0  0  0  0  0  0  0  0  0  0  0
    0.8420    0.6250   -1.3500 C   0  0  2  0  0  0  0  0  0  0  0  0
    0.9790    0.6970   -2.8530 C   0  0  0  0  0  0  0  0  0  0  0  0
    0.6020   -0.5470   -3.5840 C   0  0  0  0  0  0  0  0  0  0  0  0
    1.8390   -0.4660   -1.0060 C   0  0  0  0  0  0  0  0  0  0  0  0
    1.5360   -1.6490   -0.3990 C   0  0  0  0  0  0  0  0  0  0  0  0
    2.5320   -2.6200   -0.3260 C   0  0  0  0  0  0  0  0  0  0  0  0
    3.8140   -2.4220   -0.8550 C   0  0  0  0  0  0  0  0  0  0  0  0
    4.1150   -1.2460   -1.4610 C   0  0  0  0  0  0  0  0  0  0  0  0
    5.3000   -0.9580   -2.1810 N   0  0  0  0  0  0  0  0  0  0  0  0
    6.3000    0.3990   -2.0580 S   0  0  1  0  0  0  0  0  0  0  0  0
    7.3710    0.3990   -3.1200 O   0  0  0  0  0  0  0  0  0  0  0  0
    5.4760    1.6290   -2.3380 O   0  0  0  0  0  0  0  0  0  0  0  0
    7.1150    0.5510   -0.5170 C   0  0  0  0  0  0  0  0  0  0  0  0
    7.2540   -0.5590    0.3190 C   0  0  0  0  0  0  0  0  0  0  0  0
    8.0190   -0.5220    1.4600 C   0  0  0  0  0  0  0  0  0  0  0  0
    8.6790    0.6440    1.8210 C   0  0  0  0  0  0  0  0  0  0  0  0
    9.5710    0.7050    3.0260 C   0  0  1  0  0  0  0  0  0  0  0  0
    9.6920   -0.5110    3.6330 F   0  0  0  0  0  0  0  0  0  0  0  0
   10.8130    1.1820    2.6380 F   0  0  0  0  0  0  0  0  0  0  0  0
    9.1110    1.6170    3.9680 F   0  0  0  0  0  0  0  0  0  0  0  0
    8.5140    1.7210    0.9740 C   0  0  0  0  0  0  0  0  0  0  0  0
    7.7620    1.6630   -0.1440 N   0  0  0  0  0  0  0  0  0  0  0  0
    3.1160   -0.2710   -1.5220 C   0  0  0  0  0  0  0  0  0  0  0  0
   -1.7010    0.6690   -1.6060 C   0  0  0  0  0  0  0  0  0  0  0  0
   -1.4740    0.8790   -2.8450 O   0  0  0  0  0  0  0  0  0  0  0  0
   -2.9070    0.6630   -1.0840 O   0  0  0  0  0  0  0  0  0  0  0  0
  1  2  1  0
  2  3  1  0
  4  3  1  6
  4  5  1  0
  4 13  1  0
  4 42  1  0
  5  6  1  0
  6  7  1  0
  7  8  2  0
  7 12  1  0
  8  9  1  0
  9 10  2  0
 10 11  1  0
 11 12  2  0
 13 14  1  0
 14 15  1  0
 14 16  2  0
 16 17  1  0
 16 40  1  0
 17 18  1  6
 17 20  1  0
 18 19  1  0
 20 21  2  0
 20 39  1  0
 21 22  1  0
 22 23  2  0
 23 24  1  0
 24 25  1  0
 24 39  2  0
 26 25  1  1
 26 27  2  0
 26 28  2  0
 26 29  1  0
 29 30  2  0
 29 38  1  0
 30 31  1  0
 31 32  2  0
 32 33  1  0
 32 37  1  0
 33 34  1  1
 33 35  1  0
 33 36  1  0
 37 38  2  0
 40 41  2  0
 40 42  1  0
M  END
