
     RDKit          3D

 42 46  0  0  0  0  0  0  0  0999 V2000
   -1.7340   -1.6900    1.9680 O   0  0  0  0  0  0  0  0  0  0  0  0
   -2.1610   -1.8980    0.8060 C   0  0  0  0  0  0  0  0  0  0  0  0
   -1.5740   -2.8380    0.0030 C   0  0  0  0  0  0  0  0  0  0  0  0
   -2.0830   -3.0320   -1.2740 C   0  0  0  0  0  0  0  0  0  0  0  0
   -1.4910   -3.9840   -2.0910 C   0  0  0  0  0  0  0  0  0  0  0  0
   -0.4300   -4.7020   -1.6240 C   0  0  0  0  0  0  0  0  0  0  0  0
    0.0190   -4.4610   -0.3600 C   0  0  0  0  0  0  0  0  0  0  0  0
    1.0050   -5.1180    0.0930 O   0  0  0  0  0  0  0  0  0  0  0  0
   -0.5240   -3.5480    0.4650 N   0  0  0  0  0  0  0  0  0  0  0  0
   -0.0650   -3.3040    1.7710 C   0  0  0  0  0  0  0  0  0  0  0  0
   -0.5230   -3.9560    2.8210 N   0  0  0  0  0  0  0  0  0  0  0  0
   -0.1350   -3.7830    4.0860 C   0  0  0  0  0  0  0  0  0  0  0  0
    0.8220   -2.8480    4.3220 C   0  0  0  0  0  0  0  0  0  0  0  0
    1.3600   -2.1160    3.2890 C   0  0  0  0  0  0  0  0  0  0  0  0
    0.9380   -2.3140    1.9610 C   0  0  0  0  0  0  0  0  0  0  0  0
    1.3440   -1.7080    0.8830 O   0  0  0  0  0  0  0  0  0  0  0  0
    2.1530   -0.7930    0.3770 C   0  0  0  0  0  0  0  0  0  0  0  0
    3.0510   -0.0050    1.0670 C   0  0  0  0  0  0  0  0  0  0  0  0
    3.8760    0.9470    0.4510 C   0  0  0  0  0  0  0  0  0  0  0  0
    4.8780    1.8820    1.5450 Cl  0  0  0  0  0  0  0  0  0  0  0  0
    3.8360    1.1500   -0.8970 C   0  0  0  0  0  0  0  0  0  0  0  0
    4.7690    2.0830   -1.6040 C   0  0  0  0  0  0  0  0  0  0  0  0
    4.4300    2.4870   -2.7860 C   0  0  0  0  0  0  0  0  0  0  0  0
    5.0030    3.3620   -3.7950 C   0  0  0  0  0  0  0  0  0  0  0  0
    6.1510    3.9640   -3.4780 F   0  0  0  0  0  0  0  0  0  0  0  0
    6.0520    2.4470   -0.9860 C   0  0  1  0  0  0  0  0  0  0  0  0
    7.0710    2.7270   -1.9120 F   0  0  0  0  0  0  0  0  0  0  0  0
    6.0060    3.5770   -0.2000 F   0  0  0  0  0  0  0  0  0  0  0  0
    6.6080    1.3410   -0.3010 F   0  0  0  0  0  0  0  0  0  0  0  0
    2.9410    0.3680   -1.6040 C   0  0  0  0  0  0  0  0  0  0  0  0
    2.1330   -0.5600   -1.0110 C   0  0  0  0  0  0  0  0  0  0  0  0
    1.0060   -1.5310   -1.9440 Cl  0  0  0  0  0  0  0  0  0  0  0  0
   -3.1300   -2.2990   -1.6880 N   0  0  0  0  0  0  0  0  0  0  0  0
   -3.6770   -1.3760   -0.8480 C   0  0  0  0  0  0  0  0  0  0  0  0
   -3.2200   -1.1550    0.3900 N   0  0  0  0  0  0  0  0  0  0  0  0
   -3.8060   -0.1620    1.2950 C   0  0  0  0  0  0  0  0  0  0  0  0
   -3.1070    1.1630    1.1000 C   0  0  0  0  0  0  0  0  0  0  0  0
   -3.2610    1.6730   -0.2550 N   0  0  0  0  0  0  0  0  0  0  0  0
   -2.5010    2.9080   -0.4240 C   0  0  0  0  0  0  0  0  0  0  0  0
   -3.3240    3.8130   -1.2890 C   0  0  0  0  0  0  0  0  0  0  0  0
   -4.6060    3.0340   -1.5290 C   0  0  0  0  0  0  0  0  0  0  0  0
   -4.6660    2.1330   -0.3310 C   0  0  0  0  0  0  0  0  0  0  0  0
  1  2  2  0
  2  3  1  0
  2 35  1  0
  3  4  2  0
  3  9  1  0
  4  5  1  0
  4 33  1  0
  5  6  2  0
  6  7  1  0
  7  8  2  0
  7  9  1  0
  9 10  1  0
 10 11  2  0
 10 15  1  0
 11 12  1  0
 12 13  2  0
 13 14  1  0
 14 15  2  0
 15 16  1  0
 16 17  1  0
 17 18  2  0
 17 31  1  0
 18 19  1  0
 19 20  1  0
 19 21  2  0
 21 22  1  0
 21 30  1  0
 22 23  2  3
 22 26  1  0
 23 24  1  0
 24 25  1  0
 26 27  1  6
 26 28  1  0
 26 29  1  0
 30 31  2  0
 31 32  1  0
 33 34  2  0
 34 35  1  0
 35 36  1  0
 36 37  1  0
 37 38  1  0
 38 39  1  0
 38 42  1  0
 39 40  1  0
 40 41  1  0
 41 42  1  0
M  END
