
     RDKit          3D

 42 46  0  0  0  0  0  0  0  0999 V2000
    0.3560   -5.3210    2.3270 C   0  0  0  0  0  0  0  0  0  0  0  0
    0.4290   -4.0340    2.0510 C   0  0  0  0  0  0  0  0  0  0  0  0
   -0.3320   -3.4360    0.9340 C   0  0  0  0  0  0  0  0  0  0  0  0
   -1.1700   -4.3470    0.1390 C   0  0  0  0  0  0  0  0  0  0  0  0
   -0.0950   -5.4850   -0.7080 Cl  0  0  0  0  0  0  0  0  0  0  0  0
   -0.2220   -2.2390    0.7330 N   0  0  0  0  0  0  0  0  0  0  0  0
   -0.6810   -1.2520   -0.1180 C   0  0  0  0  0  0  0  0  0  0  0  0
   -0.8240   -1.5020   -1.4030 C   0  0  0  0  0  0  0  0  0  0  0  0
   -1.1030    0.0440    0.3930 C   0  0  0  0  0  0  0  0  0  0  0  0
   -2.4510    0.1430    0.8120 C   0  0  0  0  0  0  0  0  0  0  0  0
   -3.3400   -1.0290    0.6980 C   0  0  2  0  0  0  0  0  0  0  0  0
   -3.0410   -2.0520    1.5800 F   0  0  0  0  0  0  0  0  0  0  0  0
   -3.7080   -1.5650   -0.9330 Cl  0  0  0  0  0  0  0  0  0  0  0  0
   -2.9070    1.2980    1.3090 N   0  0  0  0  0  0  0  0  0  0  0  0
   -4.2940    1.4370    1.7690 C   0  0  0  0  0  0  0  0  0  0  0  0
   -5.1410    1.8710    0.6580 C   0  0  0  0  0  0  0  0  0  0  0  0
   -6.3560    1.9640    0.8850 O   0  0  0  0  0  0  0  0  0  0  0  0
   -4.7010    2.2110   -0.7050 C   0  0  0  0  0  0  0  0  0  0  0  0
   -5.8430    2.5910   -1.6100 C   0  0  1  0  0  0  0  0  0  0  0  0
   -6.7240    1.5230   -1.6990 F   0  0  0  0  0  0  0  0  0  0  0  0
   -6.5270    3.7040   -1.1670 F   0  0  0  0  0  0  0  0  0  0  0  0
   -5.3900    2.8840   -2.8820 F   0  0  0  0  0  0  0  0  0  0  0  0
   -2.1420    2.3850    1.4330 C   0  0  0  0  0  0  0  0  0  0  0  0
   -2.5940    3.4610    1.9020 O   0  0  0  0  0  0  0  0  0  0  0  0
   -0.8260    2.2860    1.0230 C   0  0  0  0  0  0  0  0  0  0  0  0
   -0.0860    3.3760    1.1640 N   0  0  0  0  0  0  0  0  0  0  0  0
    1.1870    3.3650    0.8030 C   0  0  0  0  0  0  0  0  0  0  0  0
    1.7820    2.2220    0.2710 C   0  0  0  0  0  0  0  0  0  0  0  0
    1.0590    1.0490    0.0970 C   0  0  0  0  0  0  0  0  0  0  0  0
   -0.2850    1.1020    0.4930 C   0  0  0  0  0  0  0  0  0  0  0  0
    1.6290   -0.1640   -0.4750 C   0  0  0  0  0  0  0  0  0  0  0  0
    3.0940    0.0370   -0.7550 C   0  0  0  0  0  0  0  0  0  0  0  0
    3.9680   -0.8960   -1.2510 N   0  0  0  0  0  0  0  0  0  0  0  0
    5.1820   -0.3890   -1.3970 C   0  0  0  0  0  0  0  0  0  0  0  0
    6.4080   -0.8440   -1.8350 C   0  0  0  0  0  0  0  0  0  0  0  0
    7.4840    0.0190   -1.8380 C   0  0  0  0  0  0  0  0  0  0  0  0
    7.3620    1.3240   -1.4150 C   0  0  0  0  0  0  0  0  0  0  0  0
    6.1490    1.7840   -0.9780 C   0  0  0  0  0  0  0  0  0  0  0  0
    5.0830    0.9300   -0.9740 C   0  0  0  0  0  0  0  0  0  0  0  0
    3.7970    1.1260   -0.5990 N   0  0  0  0  0  0  0  0  0  0  0  0
    3.1790    2.2810   -0.0780 C   0  0  0  0  0  0  0  0  0  0  0  0
    3.8010    3.3700    0.0960 O   0  0  0  0  0  0  0  0  0  0  0  0
  1  2  2  0
  2  3  1  0
  3  4  1  0
  3  6  2  3
  4  5  1  0
  6  7  1  0
  7  8  2  0
  7  9  1  0
  9 10  2  0
  9 30  1  0
 10 11  1  0
 10 14  1  0
 11 12  1  1
 11 13  1  0
 14 15  1  0
 14 23  1  0
 15 16  1  0
 16 17  2  0
 16 18  1  0
 18 19  1  0
 19 20  1  6
 19 21  1  0
 19 22  1  0
 23 24  2  0
 23 25  1  0
 25 26  2  0
 25 30  1  0
 26 27  1  0
 27 28  2  0
 28 29  1  0
 28 41  1  0
 29 30  2  0
 29 31  1  0
 31 32  1  0
 32 33  2  0
 32 40  1  0
 33 34  1  0
 34 35  2  0
 34 39  1  0
 35 36  1  0
 36 37  2  0
 37 38  1  0
 38 39  2  0
 39 40  1  0
 40 41  1  0
 41 42  2  0
M  END
