
     RDKit          3D

 28 30  0  0  0  0  0  0  0  0999 V2000
   -6.6140   -3.7090    0.3350 C   0  0  0  0  0  0  0  0  0  0  0  0
   -5.2950   -3.9110   -0.1300 O   0  0  0  0  0  0  0  0  0  0  0  0
   -4.3000   -2.9430    0.0700 C   0  0  0  0  0  0  0  0  0  0  0  0
   -3.0120   -3.1380   -0.3840 C   0  0  0  0  0  0  0  0  0  0  0  0
   -2.0230   -2.2130   -0.2040 C   0  0  0  0  0  0  0  0  0  0  0  0
   -2.2980   -1.0470    0.4470 C   0  0  0  0  0  0  0  0  0  0  0  0
   -1.2580   -0.0090    0.6690 C   0  0  0  0  0  0  0  0  0  0  0  0
   -1.2010    0.9790   -0.4600 C   0  0  2  0  0  0  0  0  0  0  0  0
   -2.5650    1.6740   -0.5850 C   0  0  0  0  0  0  0  0  0  0  0  0
   -1.0080    0.2770   -1.6490 O   0  0  0  0  0  0  0  0  0  0  0  0
   -0.1930    2.0440   -0.2730 C   0  0  0  0  0  0  0  0  0  0  0  0
   -0.5550    3.3840   -0.1400 C   0  0  0  0  0  0  0  0  0  0  0  0
    0.4070    4.3560    0.0420 C   0  0  0  0  0  0  0  0  0  0  0  0
   -0.0200    5.7830    0.1810 C   0  0  0  0  0  0  0  0  0  0  0  0
   -1.3850    5.9250    0.1030 O   0  0  0  0  0  0  0  0  0  0  0  0
    1.7280    3.9850    0.0900 C   0  0  0  0  0  0  0  0  0  0  0  0
    2.0830    2.6370   -0.0450 C   0  0  0  0  0  0  0  0  0  0  0  0
    1.1520    1.6410   -0.2280 C   0  0  0  0  0  0  0  0  0  0  0  0
    1.4230    0.3060   -0.3680 O   0  0  0  0  0  0  0  0  0  0  0  0
    2.6890   -0.2260   -0.3440 C   0  0  2  0  0  0  0  0  0  0  0  0
    3.0390   -1.0060   -1.6070 C   0  0  0  0  0  0  0  0  0  0  0  0
    4.4340   -1.5330   -1.4420 C   0  0  0  0  0  0  0  0  0  0  0  0
    5.0360   -1.0910   -0.2180 N   0  0  0  0  0  0  0  0  0  0  0  0
    4.3400   -1.4940    0.9610 C   0  0  2  0  0  0  0  0  0  0  0  0
    4.6660   -2.8940    1.4110 C   0  0  0  0  0  0  0  0  0  0  0  0
    2.8690   -1.2590    0.7870 C   0  0  0  0  0  0  0  0  0  0  0  0
   -3.5850   -0.8470    0.9020 C   0  0  0  0  0  0  0  0  0  0  0  0
   -4.5940   -1.7710    0.7280 C   0  0  0  0  0  0  0  0  0  0  0  0
  1  2  1  0
  2  3  1  0
  3  4  2  0
  3 28  1  0
  4  5  1  0
  5  6  2  0
  6  7  1  0
  6 27  1  0
  7  8  1  0
  8  9  1  6
  8 10  1  0
  8 11  1  0
 11 12  2  0
 11 18  1  0
 12 13  1  0
 13 14  1  0
 13 16  2  0
 14 15  1  0
 16 17  1  0
 17 18  2  0
 18 19  1  0
 20 19  1  6
 20 21  1  0
 20 26  1  0
 21 22  1  0
 22 23  1  0
 23 24  1  0
 24 25  1  6
 24 26  1  0
 27 28  2  0
M  END
