
     RDKit          3D

 28 30  0  0  0  0  0  0  0  0999 V2000
   -2.9670    5.3090    0.7890 C   0  0  0  0  0  0  0  0  0  0  0  0
   -2.4320    3.9250    0.3910 C   0  0  0  0  0  0  0  0  0  0  0  0
   -2.9000    2.9730    1.4430 C   0  0  0  0  0  0  0  0  0  0  0  0
   -2.4760    1.5760    1.2220 C   0  0  0  0  0  0  0  0  0  0  0  0
   -2.8300    0.7140    2.0670 O   0  0  0  0  0  0  0  0  0  0  0  0
   -1.7130    1.1350    0.1500 O   0  0  0  0  0  0  0  0  0  0  0  0
   -1.3670   -0.1960    0.0310 C   0  0  1  0  0  0  0  0  0  0  0  0
   -2.0110   -0.8630   -1.1850 C   0  0  0  0  0  0  0  0  0  0  0  0
   -2.0030   -2.3650   -0.8690 C   0  0  2  0  0  0  0  0  0  0  0  0
   -3.4050   -2.7040   -0.4030 C   0  0  1  0  0  0  0  0  0  0  0  0
   -4.2710   -2.3910   -1.4500 O   0  0  0  0  0  0  0  0  0  0  0  0
   -3.5520   -4.1230   -0.0710 C   0  0  0  0  0  0  0  0  0  0  0  0
   -4.4650   -4.9500   -0.7770 N   0  0  0  0  0  0  0  0  0  0  0  0
   -2.8730   -4.6450    0.8460 O   0  0  0  0  0  0  0  0  0  0  0  0
   -0.9900   -2.6940    0.1810 C   0  0  0  0  0  0  0  0  0  0  0  0
    0.2700   -1.8780    0.0460 C   0  0  0  0  0  0  0  0  0  0  0  0
    0.0600   -0.5420   -0.0340 C   0  0  0  0  0  0  0  0  0  0  0  0
    1.1880    0.3470   -0.1530 C   0  0  0  0  0  0  0  0  0  0  0  0
    1.0010    1.6900   -0.3350 C   0  0  0  0  0  0  0  0  0  0  0  0
    2.1170    2.5240   -0.4220 C   0  0  0  0  0  0  0  0  0  0  0  0
    3.3960    2.0380   -0.3330 C   0  0  0  0  0  0  0  0  0  0  0  0
    3.6110    0.6950   -0.1510 C   0  0  0  0  0  0  0  0  0  0  0  0
    4.9550    0.1330   -0.0500 C   0  0  0  0  0  0  0  0  0  0  0  0
    6.0780    0.8250   -0.1180 C   0  0  0  0  0  0  0  0  0  0  0  0
    7.2490   -0.0550    0.0220 C   0  0  0  0  0  0  0  0  0  0  0  0
    6.6490   -1.3890    0.1850 C   0  0  0  0  0  0  0  0  0  0  0  0
    5.3330   -1.2630    0.1420 C   0  0  0  0  0  0  0  0  0  0  0  0
    2.4900   -0.1290   -0.0650 C   0  0  0  0  0  0  0  0  0  0  0  0
  1  2  1  0
  2  3  1  0
  3  4  1  0
  4  5  2  0
  4  6  1  0
  7  6  1  6
  7  8  1  0
  7 17  1  0
  9  8  1  1
  9 10  1  0
  9 15  1  0
 10 11  1  6
 10 12  1  0
 12 13  1  0
 12 14  2  0
 15 16  1  0
 16 17  2  0
 17 18  1  0
 18 19  2  0
 18 28  1  0
 19 20  1  0
 20 21  2  0
 21 22  1  0
 22 23  1  0
 22 28  2  0
 23 24  2  0
 23 27  1  0
 24 25  1  0
 25 26  1  0
 26 27  2  0
M  END
