
     RDKit          3D

 28 30  0  0  0  0  0  0  0  0999 V2000
   -5.8030   -2.7990   -1.0150 C   0  0  0  0  0  0  0  0  0  0  0  0
   -4.6150   -2.1310   -0.5820 C   0  0  0  0  0  0  0  0  0  0  0  0
   -4.3280   -1.0660    0.0900 C   0  0  0  0  0  0  0  0  0  0  0  0
   -2.9450   -0.7740    0.2890 C   0  0  0  0  0  0  0  0  0  0  0  0
   -2.5310    0.3070    0.9790 C   0  0  0  0  0  0  0  0  0  0  0  0
   -1.0530    0.6040    1.1850 C   0  0  0  0  0  0  0  0  0  0  0  0
   -0.3410   -0.5190    0.7550 N   0  0  0  0  0  0  0  0  0  0  0  0
    1.0460   -0.5100    0.8300 C   0  0  0  0  0  0  0  0  0  0  0  0
    1.8200    0.2990   -0.1490 C   0  0  1  0  0  0  0  0  0  0  0  0
    1.4960    1.7280   -0.2520 C   0  0  0  0  0  0  0  0  0  0  0  0
    2.3980    2.3830   -1.1680 O   0  0  0  0  0  0  0  0  0  0  0  0
    3.2000    0.0850    0.2250 O   0  0  0  0  0  0  0  0  0  0  0  0
    4.0510   -0.5740   -0.6440 C   0  0  0  0  0  0  0  0  0  0  0  0
    3.5830   -0.9550   -1.7210 O   0  0  0  0  0  0  0  0  0  0  0  0
    5.4800   -0.8330   -0.3330 C   0  0  2  0  0  0  0  0  0  0  0  0
    5.4950   -1.6370    0.9540 C   0  0  0  0  0  0  0  0  0  0  0  0
    6.1260    0.4960   -0.0230 C   0  0  0  0  0  0  0  0  0  0  0  0
    6.1230    1.2860   -1.3320 C   0  0  0  0  0  0  0  0  0  0  0  0
    7.0610    0.5210   -2.2650 C   0  0  0  0  0  0  0  0  0  0  0  0
    7.1710   -0.9260   -1.9110 C   0  0  0  0  0  0  0  0  0  0  0  0
    6.0450   -1.4890   -1.3850 O   0  0  0  0  0  0  0  0  0  0  0  0
   -3.4630    1.1550    1.5070 C   0  0  0  0  0  0  0  0  0  0  0  0
   -4.8010    0.9150    1.3410 C   0  0  0  0  0  0  0  0  0  0  0  0
   -5.2470   -0.1890    0.6360 C   0  0  0  0  0  0  0  0  0  0  0  0
   -6.5520   -0.3920    0.4900 C   0  0  0  0  0  0  0  0  0  0  0  0
   -7.5790    0.5480    1.0740 C   0  0  0  0  0  0  0  0  0  0  0  0
   -6.9800    1.9430    1.0620 C   0  0  0  0  0  0  0  0  0  0  0  0
   -5.7550    1.8660    1.9400 C   0  0  0  0  0  0  0  0  0  0  0  0
  1  2  1  0
  2  3  2  3
  3  4  1  0
  3 24  1  0
  4  5  2  0
  5  6  1  0
  5 22  1  0
  6  7  1  0
  7  8  1  0
  9  8  1  1
  9 10  1  0
  9 12  1  0
 10 11  1  0
 12 13  1  0
 13 14  2  0
 13 15  1  0
 15 16  1  1
 15 17  1  0
 15 21  1  0
 17 18  1  0
 18 19  1  0
 19 20  1  0
 20 21  1  0
 22 23  2  0
 23 24  1  0
 23 28  1  0
 24 25  2  0
 25 26  1  0
 26 27  1  0
 27 28  1  0
M  END
