
     RDKit          3D

 36 37  0  0  0  0  0  0  0  0999 V2000
   -9.5990   -0.2620   -3.0740 N   0  0  0  0  0  0  0  0  0  0  0  0
   -9.2910   -0.7900   -2.0540 C   0  0  0  0  0  0  0  0  0  0  0  0
   -8.9160   -1.4340   -0.8600 C   0  0  0  0  0  0  0  0  0  0  0  0
   -7.5130   -1.5080   -0.5720 N   0  0  0  0  0  0  0  0  0  0  0  0
   -6.8110   -0.3010   -0.8690 C   0  0  1  0  0  0  0  0  0  0  0  0
   -7.5610    0.8380   -0.2030 C   0  0  0  0  0  0  0  0  0  0  0  0
   -6.9630    2.1860   -0.4220 C   0  0  0  0  0  0  0  0  0  0  0  0
   -6.9120    2.5480   -1.7780 O   0  0  0  0  0  0  0  0  0  0  0  0
   -5.4430   -0.2720   -0.2650 C   0  0  0  0  0  0  0  0  0  0  0  0
   -4.5830    0.5240   -0.7780 O   0  0  0  0  0  0  0  0  0  0  0  0
   -5.0220   -1.0490    0.8290 N   0  0  0  0  0  0  0  0  0  0  0  0
   -3.7090   -1.0360    1.4160 C   0  0  0  0  0  0  0  0  0  0  0  0
   -3.6530   -1.3450    2.7770 C   0  0  0  0  0  0  0  0  0  0  0  0
   -2.4380   -1.3880    3.3840 C   0  0  0  0  0  0  0  0  0  0  0  0
   -1.2690   -1.1260    2.6540 C   0  0  0  0  0  0  0  0  0  0  0  0
   -1.2810   -0.8210    1.3240 C   0  0  0  0  0  0  0  0  0  0  0  0
   -0.1370   -0.5680    0.5430 N   0  0  0  0  0  0  0  0  0  0  0  0
    1.1560   -0.4480    1.0550 C   0  0  0  0  0  0  0  0  0  0  0  0
    1.3940   -0.5470    2.2930 O   0  0  0  0  0  0  0  0  0  0  0  0
    2.3320   -0.2040    0.2210 C   0  0  0  0  0  0  0  0  0  0  0  0
    2.3010   -0.3670   -1.1630 C   0  0  0  0  0  0  0  0  0  0  0  0
    3.4620   -0.1460   -1.8930 C   0  0  0  0  0  0  0  0  0  0  0  0
    4.6440    0.2300   -1.2820 C   0  0  0  0  0  0  0  0  0  0  0  0
    4.6860    0.3970    0.0970 C   0  0  0  0  0  0  0  0  0  0  0  0
    5.8890    0.7400    0.8100 C   0  0  0  0  0  0  0  0  0  0  0  0
    7.1080    0.7790    0.2750 C   0  0  0  0  0  0  0  0  0  0  0  0
    8.2410    1.1380    1.0830 C   0  0  0  0  0  0  0  0  0  0  0  0
    9.4590    1.1780    0.6610 C   0  0  0  0  0  0  0  0  0  0  0  0
    9.8480    0.8520   -0.7180 C   0  0  0  0  0  0  0  0  0  0  0  0
   11.0930    0.8950   -1.1010 C   0  0  0  0  0  0  0  0  0  0  0  0
   12.1000    1.2320   -0.2960 F   0  0  0  0  0  0  0  0  0  0  0  0
   11.4240    0.4760   -2.5070 C   0  0  2  0  0  0  0  0  0  0  0  0
   10.2530    0.5420   -3.2340 F   0  0  0  0  0  0  0  0  0  0  0  0
   11.7470   -0.8950   -2.4770 F   0  0  0  0  0  0  0  0  0  0  0  0
    3.5150    0.1680    0.7770 C   0  0  0  0  0  0  0  0  0  0  0  0
   -2.5570   -0.7860    0.7310 C   0  0  0  0  0  0  0  0  0  0  0  0
  1  2  3  0
  2  3  1  0
  3  4  1  0
  4  5  1  0
  5  6  1  1
  5  9  1  0
  6  7  1  0
  7  8  1  0
  9 10  2  0
  9 11  1  0
 11 12  1  0
 12 13  2  0
 12 36  1  0
 13 14  1  0
 14 15  2  0
 15 16  1  0
 16 17  1  0
 16 36  2  0
 17 18  1  0
 18 19  2  0
 18 20  1  0
 20 21  2  0
 20 35  1  0
 21 22  1  0
 22 23  2  0
 23 24  1  0
 24 25  1  0
 24 35  2  0
 25 26  2  3
 26 27  1  0
 27 28  2  3
 28 29  1  0
 29 30  2  3
 30 31  1  0
 30 32  1  0
 32 33  1  6
 32 34  1  0
M  CHG  1   4   1
M  END
