
     RDKit          3D

 36 37  0  0  0  0  0  0  0  0999 V2000
    4.6340   -2.7950   -0.2580 C   0  0  0  0  0  0  0  0  0  0  0  0
    5.5100   -1.7140   -0.6500 N   0  0  0  0  0  0  0  0  0  0  0  0
    6.5520   -1.3330    0.2430 C   0  0  0  0  0  0  0  0  0  0  0  0
    6.6790   -1.9320    1.3190 O   0  0  0  0  0  0  0  0  0  0  0  0
    7.4910   -0.2210   -0.1170 C   0  0  2  0  0  0  0  0  0  0  0  0
    8.1000   -0.4750   -1.4750 C   0  0  0  0  0  0  0  0  0  0  0  0
    8.5500   -0.1900    0.9690 C   0  0  0  0  0  0  0  0  0  0  0  0
    9.5110    0.7510    0.8300 F   0  0  0  0  0  0  0  0  0  0  0  0
    6.7350    1.0540   -0.1650 C   0  0  0  0  0  0  0  0  0  0  0  0
    5.3730    1.1340    0.1610 C   0  0  0  0  0  0  0  0  0  0  0  0
    4.6690    2.3030    0.1560 C   0  0  0  0  0  0  0  0  0  0  0  0
    3.2960    2.4270    0.4620 N   0  0  0  0  0  0  0  0  0  0  0  0
    2.3350    1.4350    0.6270 C   0  0  0  0  0  0  0  0  0  0  0  0
    2.7400    0.2300    0.4740 O   0  0  0  0  0  0  0  0  0  0  0  0
    0.9230    1.5840    0.9500 C   0  0  0  0  0  0  0  0  0  0  0  0
    0.0710    0.4710    0.8840 C   0  0  0  0  0  0  0  0  0  0  0  0
   -1.2710    0.5140    1.1550 C   0  0  0  0  0  0  0  0  0  0  0  0
   -2.0840   -0.6740    1.0650 N   0  0  0  0  0  0  0  0  0  0  0  0
   -3.4630   -0.5530    1.3590 C   0  0  0  0  0  0  0  0  0  0  0  0
   -4.3120    0.0300    0.5240 C   0  0  0  0  0  0  0  0  0  0  0  0
   -3.8200    0.5800   -0.7670 C   0  0  0  0  0  0  0  0  0  0  0  0
   -5.7510    0.1570    0.8270 C   0  0  0  0  0  0  0  0  0  0  0  0
   -6.6040   -0.4880   -0.1290 N   0  0  0  0  0  0  0  0  0  0  0  0
   -7.7980   -1.0440    0.4860 C   0  0  0  0  0  0  0  0  0  0  0  0
   -8.4890   -2.0280   -0.4130 C   0  0  2  0  0  0  0  0  0  0  0  0
   -7.6350   -3.2180   -0.7360 C   0  0  0  0  0  0  0  0  0  0  0  0
   -8.9630   -1.3770   -1.7020 C   0  0  0  0  0  0  0  0  0  0  0  0
   -9.6150   -2.4960    0.2720 O   0  0  0  0  0  0  0  0  0  0  0  0
   -1.8260    1.7220    1.5160 C   0  0  0  0  0  0  0  0  0  0  0  0
   -1.0570    2.8550    1.6020 C   0  0  0  0  0  0  0  0  0  0  0  0
    0.3120    2.7510    1.3130 C   0  0  0  0  0  0  0  0  0  0  0  0
    1.0440    3.8790    1.4170 F   0  0  0  0  0  0  0  0  0  0  0  0
    5.3960    3.4410   -0.1980 C   0  0  0  0  0  0  0  0  0  0  0  0
    6.7200    3.4380   -0.5270 C   0  0  0  0  0  0  0  0  0  0  0  0
    7.3910    2.2100   -0.5060 C   0  0  0  0  0  0  0  0  0  0  0  0
    8.6940    2.2810   -0.8680 F   0  0  0  0  0  0  0  0  0  0  0  0
  1  2  1  0
  2  3  1  0
  3  4  2  0
  3  5  1  0
  5  6  1  6
  5  7  1  0
  5  9  1  0
  7  8  1  0
  9 10  2  0
  9 35  1  0
 10 11  1  0
 11 12  1  0
 11 33  2  0
 12 13  1  0
 13 14  2  0
 13 15  1  0
 15 16  2  0
 15 31  1  0
 16 17  1  0
 17 18  1  0
 17 29  2  0
 18 19  1  0
 19 20  2  3
 20 21  1  0
 20 22  1  0
 22 23  1  0
 23 24  1  0
 24 25  1  0
 25 26  1  6
 25 27  1  0
 25 28  1  0
 29 30  1  0
 30 31  2  0
 31 32  1  0
 33 34  1  0
 34 35  2  0
 35 36  1  0
M  CHG  1  23   1
M  END
