
     RDKit          3D

 37 40  0  0  0  0  0  0  0  0999 V2000
    4.3620    1.3740    0.1450 C   0  0  0  0  0  0  0  0  0  0  0  0
    4.6910    1.5190   -1.2910 C   0  0  0  0  0  0  0  0  0  0  0  0
    5.6540    2.4400   -1.6650 C   0  0  0  0  0  0  0  0  0  0  0  0
    5.9980    2.6150   -2.9640 C   0  0  0  0  0  0  0  0  0  0  0  0
    5.3610    1.8480   -3.8870 C   0  0  0  0  0  0  0  0  0  0  0  0
    4.4000    0.9180   -3.5660 C   0  0  0  0  0  0  0  0  0  0  0  0
    4.0230    0.7170   -2.2260 C   0  0  0  0  0  0  0  0  0  0  0  0
    3.0300   -0.2010   -1.7970 N   0  0  0  0  0  0  0  0  0  0  0  0
    2.4790   -1.2580   -2.5040 C   0  0  0  0  0  0  0  0  0  0  0  0
    2.9430   -1.3940   -3.6970 O   0  0  0  0  0  0  0  0  0  0  0  0
    1.4740   -2.2350   -2.1440 C   0  0  0  0  0  0  0  0  0  0  0  0
    0.9820   -3.4570   -3.4550 S   0  0  0  0  0  0  0  0  0  0  0  0
   -0.1890   -4.3210   -2.4690 C   0  0  0  0  0  0  0  0  0  0  0  0
   -0.1380   -3.6530   -1.2390 C   0  0  0  0  0  0  0  0  0  0  0  0
    0.7170   -2.6030   -1.1160 C   0  0  0  0  0  0  0  0  0  0  0  0
    0.7250   -1.9090    0.1860 N   0  0  0  0  0  0  0  0  0  0  0  0
   -0.4900   -1.1730    0.5090 C   0  0  0  0  0  0  0  0  0  0  0  0
   -0.7590   -0.1650   -0.1670 O   0  0  0  0  0  0  0  0  0  0  0  0
   -1.3060   -1.6630    1.5840 C   0  0  0  0  0  0  0  0  0  0  0  0
   -1.0360   -2.8920    2.2030 C   0  0  0  0  0  0  0  0  0  0  0  0
   -1.7830   -3.4280    3.2160 C   0  0  0  0  0  0  0  0  0  0  0  0
   -2.8730   -2.7750    3.6940 C   0  0  0  0  0  0  0  0  0  0  0  0
   -3.1720   -1.5540    3.0970 C   0  0  0  0  0  0  0  0  0  0  0  0
   -2.4360   -0.9970    2.0810 C   0  0  0  0  0  0  0  0  0  0  0  0
   -2.9090    0.2060    1.4900 N   0  0  0  0  0  0  0  0  0  0  0  0
   -3.9170    1.0490    1.9840 C   0  0  0  0  0  0  0  0  0  0  0  0
   -4.4590    0.7820    3.0650 O   0  0  0  0  0  0  0  0  0  0  0  0
   -4.3840    2.2780    1.2410 C   0  0  0  0  0  0  0  0  0  0  0  0
   -5.3220    2.9720    1.8010 C   0  0  0  0  0  0  0  0  0  0  0  0
   -6.0200    4.1910    1.4050 C   0  0  0  0  0  0  0  0  0  0  0  0
   -5.5120    4.6710   -0.2530 S   0  0  0  0  0  0  0  0  0  0  0  0
   -4.2260    3.5520   -0.7390 C   0  0  0  0  0  0  0  0  0  0  0  0
   -3.8350    2.5610   -0.0090 N   0  0  0  0  0  0  0  0  0  0  0  0
    1.8300   -1.8860    1.0400 C   0  0  1  0  0  0  0  0  0  0  0  0
    2.9780   -2.3620    0.4230 F   0  0  0  0  0  0  0  0  0  0  0  0
    2.0320   -0.5370    1.4890 F   0  0  0  0  0  0  0  0  0  0  0  0
    1.7810   -2.5590    2.2550 F   0  0  0  0  0  0  0  0  0  0  0  0
  1  2  1  0
  2  3  2  0
  2  7  1  0
  3  4  1  0
  4  5  2  0
  5  6  1  0
  6  7  2  0
  7  8  1  0
  8  9  1  0
  9 10  2  0
  9 11  1  0
 11 12  1  0
 11 15  2  0
 12 13  1  0
 13 14  2  0
 14 15  1  0
 15 16  1  0
 16 17  1  0
 16 34  1  0
 17 18  2  0
 17 19  1  0
 19 20  2  0
 19 24  1  0
 20 21  1  0
 21 22  2  0
 22 23  1  0
 23 24  2  0
 24 25  1  0
 25 26  1  0
 26 27  2  0
 26 28  1  0
 28 29  2  0
 28 33  1  0
 29 30  1  0
 30 31  1  0
 31 32  1  0
 32 33  2  0
 34 35  1  6
 34 36  1  0
 34 37  1  0
M  CHG  1  33   1
M  END
