
     RDKit          3D

 12 12  0  0  0  0  0  0  0  0999 V2000
    3.0520   -0.8460   -0.8960 C   0  0  0  0  0  0  0  0  0  0  0  0
    1.7830   -0.6540   -0.6330 C   0  0  0  0  0  0  0  0  0  0  0  0
    0.8100   -1.4170   -1.2610 O   0  0  0  0  0  0  0  0  0  0  0  0
   -0.4940   -1.7670   -0.7790 C   0  0  0  0  0  0  0  0  0  0  0  0
   -1.2840   -0.5860   -0.3760 C   0  0  0  0  0  0  0  0  0  0  0  0
   -2.6660   -0.6750   -0.7340 N   0  0  0  0  0  0  0  0  0  0  0  0
   -3.5370    0.4210   -0.3540 C   0  0  0  0  0  0  0  0  0  0  0  0
   -0.9510    0.5170    0.2430 N   0  0  0  0  0  0  0  0  0  0  0  0
    0.3320    0.9020    0.7230 C   0  0  0  0  0  0  0  0  0  0  0  0
    0.3740    1.9210    1.6990 N   0  0  0  0  0  0  0  0  0  0  0  0
    1.4990    0.3990    0.3460 C   0  0  0  0  0  0  0  0  0  0  0  0
    2.6310    0.9450    0.9670 N   0  0  0  0  0  0  0  0  0  0  0  0
  1  2  2  0
  2  3  1  0
  2 11  1  0
  3  4  1  0
  4  5  1  0
  5  6  1  0
  5  8  2  0
  6  7  1  0
  8  9  1  0
  9 10  1  0
  9 11  2  0
 11 12  1  0
M  END
