
     RDKit          3D

 12 13  0  0  0  0  0  0  0  0999 V2000
   -0.9710   -1.9870   -0.4970 N   0  0  0  0  0  0  0  0  0  0  0  0
   -1.1460   -0.6060   -0.2380 C   0  0  0  0  0  0  0  0  0  0  0  0
   -0.2140    0.2710    0.0550 C   0  0  0  0  0  0  0  0  0  0  0  0
    1.2340    0.0650    0.1940 C   0  0  0  0  0  0  0  0  0  0  0  0
    2.1080    0.9510    0.7350 N   0  0  0  0  0  0  0  0  0  0  0  0
    3.3320    0.4710    0.7340 N   0  0  0  0  0  0  0  0  0  0  0  0
    3.2600   -0.7620    0.1780 C   0  0  0  0  0  0  0  0  0  0  0  0
    4.2780   -1.4740    0.0390 O   0  0  0  0  0  0  0  0  0  0  0  0
    1.9700   -1.0060   -0.1520 N   0  0  0  0  0  0  0  0  0  0  0  0
   -0.8430    1.6240    0.2660 C   0  0  0  0  0  0  0  0  0  0  0  0
   -2.2440    1.2390    0.6630 C   0  0  0  0  0  0  0  0  0  0  0  0
   -2.4900    0.0680   -0.2700 C   0  0  0  0  0  0  0  0  0  0  0  0
  1  2  1  0
  2  3  2  0
  2 12  1  0
  3  4  1  0
  3 10  1  0
  4  5  2  0
  4  9  1  0
  5  6  1  0
  6  7  1  0
  7  8  2  0
  7  9  1  0
 10 11  1  0
 11 12  1  0
M  END
