
     RDKit          3D

  6  5  0  0  0  0  0  0  0  0999 V2000
    2.4860   -0.5400   -0.7020 C   0  0  0  0  0  0  0  0  0  0  0  0
    1.5450    0.9660   -1.0940 S   0  0  0  0  0  0  0  0  0  0  0  0
    0.0970    1.0900    0.0060 C   0  0  0  0  0  0  0  0  0  0  0  0
   -1.0570   -0.2370   -0.3370 S   0  0  0  0  0  0  0  0  0  0  0  0
   -2.4670   -0.0820    0.7610 C   0  0  0  0  0  0  0  0  0  0  0  0
   -0.4310   -1.6090   -0.1290 O   0  0  0  0  0  0  0  0  0  0  0  0
  1  2  1  0
  2  3  1  0
  3  4  1  0
  4  5  1  1
  4  6  2  0
M  END
