
     RDKit          3D

 13 13  0  0  0  0  0  0  0  0999 V2000
   -1.3610    2.8760    0.6510 C   0  0  0  0  0  0  0  0  0  0  0  0
   -1.1410    1.5430    0.0440 C   0  0  0  0  0  0  0  0  0  0  0  0
   -2.1300    0.8590   -0.6240 C   0  0  0  0  0  0  0  0  0  0  0  0
   -1.8620   -0.3780   -1.1660 C   0  0  0  0  0  0  0  0  0  0  0  0
   -2.9100   -1.1650   -1.9070 C   0  0  0  0  0  0  0  0  0  0  0  0
   -0.5950   -0.9210   -1.0320 C   0  0  0  0  0  0  0  0  0  0  0  0
   -0.3170   -2.1520   -1.5690 O   0  0  0  0  0  0  0  0  0  0  0  0
    0.4400   -0.2620   -0.3620 C   0  0  0  0  0  0  0  0  0  0  0  0
    1.6330   -0.8490   -0.2710 O   0  0  0  0  0  0  0  0  0  0  0  0
    2.8520   -0.6250    0.2700 C   0  0  0  0  0  0  0  0  0  0  0  0
    2.7920   -0.5580    1.7760 C   0  0  0  0  0  0  0  0  0  0  0  0
    2.2980   -1.8060    2.1960 O   0  0  0  0  0  0  0  0  0  0  0  0
    0.1350    0.9720    0.1660 C   0  0  0  0  0  0  0  0  0  0  0  0
  1  2  1  0
  2  3  2  0
  2 13  1  0
  3  4  1  0
  4  5  1  0
  4  6  2  0
  6  7  1  0
  6  8  1  0
  8  9  1  0
  8 13  2  0
  9 10  1  0
 10 11  1  0
 11 12  1  0
M  END
