
     RDKit          3D

 13 13  0  0  0  0  0  0  0  0999 V2000
    4.4670    0.2660    0.5080 C   0  0  0  0  0  0  0  0  0  0  0  0
    3.1870   -0.3110    0.4390 O   0  0  0  0  0  0  0  0  0  0  0  0
    2.0420    0.4480    0.1550 C   0  0  0  0  0  0  0  0  0  0  0  0
    2.2590    1.6650   -0.0280 O   0  0  0  0  0  0  0  0  0  0  0  0
    0.7320   -0.1870    0.0920 C   0  0  0  0  0  0  0  0  0  0  0  0
    0.6320   -1.4780    0.3000 C   0  0  0  0  0  0  0  0  0  0  0  0
   -0.6080   -2.2600    0.2720 C   0  0  0  0  0  0  0  0  0  0  0  0
   -1.8150   -1.5180   -0.0380 C   0  0  0  0  0  0  0  0  0  0  0  0
   -1.6760   -0.0730   -0.2670 C   0  0  0  0  0  0  0  0  0  0  0  0
   -2.9430    0.6870   -0.5950 C   0  0  0  0  0  0  0  0  0  0  0  0
   -3.8300    0.5680    0.4600 O   0  0  0  0  0  0  0  0  0  0  0  0
   -0.5140    0.5280   -0.2060 C   0  0  0  0  0  0  0  0  0  0  0  0
   -0.3420    1.9890   -0.4140 C   0  0  0  0  0  0  0  0  0  0  0  0
  1  2  1  0
  2  3  1  0
  3  4  2  0
  3  5  1  0
  5  6  2  0
  5 12  1  0
  6  7  1  0
  7  8  1  0
  8  9  1  0
  9 10  1  0
  9 12  2  0
 10 11  1  0
 12 13  1  0
M  END
