
     RDKit          3D

  6  5  0  0  0  0  0  0  0  0999 V2000
   -2.0690    0.3010    0.2860 C   0  0  0  0  0  0  0  0  0  0  0  0
   -0.6340    0.4130   -0.1390 C   0  0  0  0  0  0  0  0  0  0  0  0
   -0.4020    1.2780   -0.9490 O   0  0  0  0  0  0  0  0  0  0  0  0
    0.3120   -0.5060    0.4850 C   0  0  0  0  0  0  0  0  0  0  0  0
    1.7070   -0.4870   -0.0230 C   0  0  0  0  0  0  0  0  0  0  0  0
    2.3400    0.7290   -0.0020 O   0  0  0  0  0  0  0  0  0  0  0  0
  1  2  1  0
  2  3  2  0
  2  4  1  0
  4  5  1  0
  5  6  1  0
M  END
