
     RDKit          3D

 13 13  0  0  0  0  0  0  0  0999 V2000
   -2.6250   -1.1350   -1.5040 C   0  0  0  0  0  0  0  0  0  0  0  0
   -2.6760   -0.1870   -0.3510 C   0  0  0  0  0  0  0  0  0  0  0  0
   -3.8370    0.1990    0.1760 C   0  0  0  0  0  0  0  0  0  0  0  0
   -3.5550    1.1270    1.2890 C   0  0  0  0  0  0  0  0  0  0  0  0
   -2.0750    1.1960    1.2970 C   0  0  0  0  0  0  0  0  0  0  0  0
   -1.5640    0.4370    0.3510 C   0  0  0  0  0  0  0  0  0  0  0  0
   -0.1470    0.2230    0.0190 C   0  0  0  0  0  0  0  0  0  0  0  0
    0.1870   -0.5400   -0.9250 O   0  0  0  0  0  0  0  0  0  0  0  0
    0.8650    0.8410    0.7180 O   0  0  0  0  0  0  0  0  0  0  0  0
    2.2420    0.6960    0.4720 C   0  0  0  0  0  0  0  0  0  0  0  0
    2.7170   -0.7230    0.6130 C   0  0  0  0  0  0  0  0  0  0  0  0
    4.2080   -0.7710    0.3300 C   0  0  0  0  0  0  0  0  0  0  0  0
    4.4270   -0.3170   -0.9650 O   0  0  0  0  0  0  0  0  0  0  0  0
  1  2  1  0
  2  3  2  0
  2  6  1  0
  3  4  1  0
  4  5  1  0
  5  6  2  0
  6  7  1  0
  7  8  2  0
  7  9  1  0
  9 10  1  0
 10 11  1  0
 11 12  1  0
 12 13  1  0
M  END
