
     RDKit          3D

 13 12  0  0  0  0  0  0  0  0999 V2000
   -4.3710   -0.7790   -0.8620 C   0  0  0  0  0  0  0  0  0  0  0  0
   -3.2480   -0.1660   -0.4520 C   0  0  0  0  0  0  0  0  0  0  0  0
   -3.4140    1.1260    0.2280 C   0  0  0  0  0  0  0  0  0  0  0  0
   -1.9640   -0.7470   -0.6750 C   0  0  0  0  0  0  0  0  0  0  0  0
   -0.8100   -0.2230   -0.3070 C   0  0  0  0  0  0  0  0  0  0  0  0
   -0.7430    0.9670    0.3470 O   0  0  0  0  0  0  0  0  0  0  0  0
    0.3710   -0.9890   -0.6400 C   0  0  0  0  0  0  0  0  0  0  0  0
    1.5980   -0.6820   -0.3950 C   0  0  0  0  0  0  0  0  0  0  0  0
    2.5770   -1.7770   -0.9140 C   0  0  0  0  0  0  0  0  0  0  0  0
    2.1520    0.4620    0.2280 C   0  0  0  0  0  0  0  0  0  0  0  0
    1.5860    1.4520    0.6860 O   0  0  0  0  0  0  0  0  0  0  0  0
    3.5720    0.5050    0.3610 O   0  0  0  0  0  0  0  0  0  0  0  0
    4.2200    1.6070    0.9710 C   0  0  0  0  0  0  0  0  0  0  0  0
  1  2  2  0
  2  3  1  0
  2  4  1  0
  4  5  2  3
  5  6  1  0
  5  7  1  0
  7  8  2  3
  8  9  1  0
  8 10  1  0
 10 11  2  0
 10 12  1  0
 12 13  1  0
M  END
