
     RDKit          3D

 13 13  0  0  0  0  0  0  0  0999 V2000
    4.2200    0.7860    0.9940 C   0  0  0  0  0  0  0  0  0  0  0  0
    2.8910    0.7950    1.0060 C   0  0  0  0  0  0  0  0  0  0  0  0
    2.1790    1.7470    0.1310 C   0  0  0  0  0  0  0  0  0  0  0  0
    1.3260    1.2010   -0.8130 O   0  0  0  0  0  0  0  0  0  0  0  0
    0.1810    0.4820   -0.5770 C   0  0  0  0  0  0  0  0  0  0  0  0
   -0.3480    0.2090    0.6610 C   0  0  0  0  0  0  0  0  0  0  0  0
   -1.5230   -0.5390    0.7950 C   0  0  0  0  0  0  0  0  0  0  0  0
   -1.9930   -0.7740    2.0790 O   0  0  0  0  0  0  0  0  0  0  0  0
   -2.2090   -1.0380   -0.2830 C   0  0  0  0  0  0  0  0  0  0  0  0
   -3.4540   -1.8280   -0.1020 C   0  0  0  0  0  0  0  0  0  0  0  0
   -1.6930   -0.7710   -1.5300 C   0  0  0  0  0  0  0  0  0  0  0  0
   -0.5450   -0.0420   -1.6690 C   0  0  0  0  0  0  0  0  0  0  0  0
   -0.0080    0.2370   -2.9230 O   0  0  0  0  0  0  0  0  0  0  0  0
  1  2  2  0
  2  3  1  0
  3  4  1  0
  4  5  1  0
  5  6  2  0
  5 12  1  0
  6  7  1  0
  7  8  1  0
  7  9  2  0
  9 10  1  0
  9 11  1  0
 11 12  2  0
 12 13  1  0
M  END
