
     RDKit          3D

 13 13  0  0  0  0  0  0  0  0999 V2000
   -0.6620    2.2180    0.3100 C   0  0  0  0  0  0  0  0  0  0  0  0
   -1.3820    0.9990   -0.0920 C   0  0  0  0  0  0  0  0  0  0  0  0
   -2.6850    0.9320    0.0580 C   0  0  0  0  0  0  0  0  0  0  0  0
   -3.5610   -0.1840   -0.2810 C   0  0  0  0  0  0  0  0  0  0  0  0
   -2.8810   -1.3500   -0.8510 C   0  0  0  0  0  0  0  0  0  0  0  0
   -1.4300   -1.2150   -0.9930 C   0  0  0  0  0  0  0  0  0  0  0  0
   -0.7320   -0.1660   -0.6570 C   0  0  0  0  0  0  0  0  0  0  0  0
    0.6450   -0.1470   -0.8360 O   0  0  0  0  0  0  0  0  0  0  0  0
    1.4120   -0.9520    0.0410 C   0  0  0  0  0  0  0  0  0  0  0  0
    2.8920   -0.8450   -0.2570 C   0  0  2  0  0  0  0  0  0  0  0  0
    3.5420   -1.6800    0.6690 O   0  0  0  0  0  0  0  0  0  0  0  0
    3.3240    0.5850   -0.0050 C   0  0  0  0  0  0  0  0  0  0  0  0
    2.7080    1.4410   -0.8950 O   0  0  0  0  0  0  0  0  0  0  0  0
  1  2  1  0
  2  3  2  0
  2  7  1  0
  3  4  1  0
  4  5  1  0
  5  6  1  0
  6  7  2  0
  7  8  1  0
  8  9  1  0
  9 10  1  0
 10 11  1  1
 10 12  1  0
 12 13  1  0
M  END
