
     RDKit          3D

 31 33  0  0  0  0  0  0  0  0999 V2000
   -1.6600    4.0070   -0.4080 C   0  0  0  0  0  0  0  0  0  0  0  0
   -1.0810    3.0090   -1.3770 C   0  0  0  0  0  0  0  0  0  0  0  0
   -1.5590    1.7490   -1.1810 O   0  0  0  0  0  0  0  0  0  0  0  0
   -1.2590    1.2000    0.0850 C   0  0  1  0  0  0  0  0  0  0  0  0
   -2.5600    0.9310    0.7180 C   0  0  0  0  0  0  0  0  0  0  0  0
   -3.0080   -0.2870    0.8970 C   0  0  0  0  0  0  0  0  0  0  0  0
   -4.3460   -0.5510    1.5470 C   0  0  1  0  0  0  0  0  0  0  0  0
   -5.1270   -1.3370    0.7120 F   0  0  0  0  0  0  0  0  0  0  0  0
   -4.1670   -1.0910    2.7830 F   0  0  0  0  0  0  0  0  0  0  0  0
   -5.0810    0.6630    1.6900 O   0  0  0  0  0  0  0  0  0  0  0  0
   -5.3980    1.3630    0.5290 N   0  0  0  0  0  0  0  0  0  0  0  0
   -5.9360    2.8820    0.6140 S   0  0  0  0  0  0  0  0  0  0  0  0
   -2.1930   -1.4450    0.4760 C   0  0  1  0  0  0  0  0  0  0  0  0
   -2.6490   -2.0600   -0.8160 C   0  0  0  0  0  0  0  0  0  0  0  0
   -1.8160   -3.2300   -1.2140 C   0  0  0  0  0  0  0  0  0  0  0  0
   -0.8570   -1.1590    0.5540 O   0  0  0  0  0  0  0  0  0  0  0  0
   -0.4920   -0.0550   -0.1600 C   0  0  1  0  0  0  0  0  0  0  0  0
   -0.5750   -0.4210   -1.5270 O   0  0  0  0  0  0  0  0  0  0  0  0
    0.8720    0.2600    0.0390 O   0  0  0  0  0  0  0  0  0  0  0  0
    1.9420   -0.5630   -0.0740 C   0  0  0  0  0  0  0  0  0  0  0  0
    1.8100   -1.8870   -0.4200 C   0  0  0  0  0  0  0  0  0  0  0  0
    2.9310   -2.7210   -0.5310 C   0  0  0  0  0  0  0  0  0  0  0  0
    2.8060   -3.9400   -0.8510 O   0  0  0  0  0  0  0  0  0  0  0  0
    4.1420   -2.2350   -0.3000 N   0  0  0  0  0  0  0  0  0  0  0  0
    4.3230   -0.9590    0.0380 C   0  0  0  0  0  0  0  0  0  0  0  0
    5.4580   -0.2300    0.3240 C   0  0  0  0  0  0  0  0  0  0  0  0
    6.7880   -0.6380    0.3390 O   0  0  0  0  0  0  0  0  0  0  0  0
    5.0050    1.0410    0.6050 C   0  0  0  0  0  0  0  0  0  0  0  0
    5.8700    2.1190    0.9550 N   0  0  0  0  0  0  0  0  0  0  0  0
    3.6900    1.0710    0.4950 O   0  0  0  0  0  0  0  0  0  0  0  0
    3.2200   -0.1010    0.1570 C   0  0  0  0  0  0  0  0  0  0  0  0
  1  2  1  0
  2  3  1  0
  4  3  1  6
  4  5  1  0
  4 17  1  0
  5  6  2  0
  6  7  1  0
  6 13  1  0
  7  8  1  6
  7  9  1  0
  7 10  1  0
 10 11  1  0
 11 12  2  0
 13 14  1  6
 13 16  1  0
 14 15  1  0
 16 17  1  0
 17 18  1  6
 17 19  1  0
 19 20  1  0
 20 21  2  0
 20 31  1  0
 21 22  1  0
 22 23  2  0
 22 24  1  0
 24 25  1  0
 25 26  1  0
 25 31  2  0
 26 27  1  0
 26 28  2  0
 28 29  1  0
 28 30  1  0
 30 31  1  0
M  CHG  1  18  -1
M  END
