
     RDKit          3D

 32 35  0  0  0  0  0  0  0  0999 V2000
   -5.1230   -3.7900    0.8260 C   0  0  0  0  0  0  0  0  0  0  0  0
   -6.1030   -2.7190    1.1250 C   0  0  0  0  0  0  0  0  0  0  0  0
   -5.8550   -1.4430    0.8010 C   0  0  0  0  0  0  0  0  0  0  0  0
   -6.8850   -0.4580    1.1360 C   0  0  0  0  0  0  0  0  0  0  0  0
   -4.6100   -1.1440    0.1580 C   0  0  0  0  0  0  0  0  0  0  0  0
   -4.0780   -0.0550   -0.2730 C   0  0  0  0  0  0  0  0  0  0  0  0
   -4.6080    1.2560   -0.2350 N   0  0  0  0  0  0  0  0  0  0  0  0
   -3.9440    2.4220   -0.7540 C   0  0  0  0  0  0  0  0  0  0  0  0
   -4.5370    3.6680   -0.6620 C   0  0  0  0  0  0  0  0  0  0  0  0
   -3.9160    4.7980   -1.1410 C   0  0  0  0  0  0  0  0  0  0  0  0
   -2.6590    4.6300   -1.7270 C   0  0  0  0  0  0  0  0  0  0  0  0
   -2.0900    3.3790   -1.8070 C   0  0  0  0  0  0  0  0  0  0  0  0
   -2.7110    2.2550   -1.3290 C   0  0  0  0  0  0  0  0  0  0  0  0
   -2.1220    0.9300   -1.3940 C   0  0  0  0  0  0  0  0  0  0  0  0
   -0.9200    0.4850   -1.8890 N   0  0  0  0  0  0  0  0  0  0  0  0
   -0.8270   -0.8200   -1.7040 C   0  0  0  0  0  0  0  0  0  0  0  0
    0.2410   -1.7800   -2.0560 C   0  0  0  0  0  0  0  0  0  0  0  0
    1.5230   -1.4690   -1.3520 C   0  0  0  0  0  0  0  0  0  0  0  0
    2.2290   -0.5570   -1.8910 O   0  0  0  0  0  0  0  0  0  0  0  0
    1.9840   -2.0880   -0.1860 N   0  0  0  0  0  0  0  0  0  0  0  0
    3.2180   -1.7760    0.4690 C   0  0  0  0  0  0  0  0  0  0  0  0
    3.3710   -0.3830    0.9270 C   0  0  0  0  0  0  0  0  0  0  0  0
    2.4530    0.6200    0.7680 C   0  0  0  0  0  0  0  0  0  0  0  0
    2.9910    1.7330    1.3170 N   0  0  0  0  0  0  0  0  0  0  0  0
    4.1780    1.4590    1.7970 N   0  0  0  0  0  0  0  0  0  0  0  0
    4.4610    0.1410    1.5780 C   0  0  0  0  0  0  0  0  0  0  0  0
    5.7180   -0.5300    2.0320 C   0  0  0  0  0  0  0  0  0  0  0  0
    6.6790   -0.7450    0.9200 C   0  0  0  0  0  0  0  0  0  0  0  0
    7.0890    0.5830    0.2790 C   0  0  0  0  0  0  0  0  0  0  0  0
    8.0870    0.3220   -0.8360 C   0  0  0  0  0  0  0  0  0  0  0  0
   -1.9820   -1.1790   -1.0910 N   0  0  0  0  0  0  0  0  0  0  0  0
   -2.7650   -0.1400   -0.8990 N   0  0  0  0  0  0  0  0  0  0  0  0
  1  2  1  0
  2  3  2  3
  3  4  1  0
  3  5  1  0
  5  6  2  3
  6  7  1  0
  6 32  1  0
  7  8  1  0
  8  9  2  0
  8 13  1  0
  9 10  1  0
 10 11  2  0
 11 12  1  0
 12 13  2  0
 13 14  1  0
 14 15  2  0
 14 32  1  0
 15 16  1  0
 16 17  1  0
 16 31  2  0
 17 18  1  0
 18 19  2  0
 18 20  1  0
 20 21  1  0
 21 22  1  0
 22 23  2  0
 22 26  1  0
 23 24  1  0
 24 25  1  0
 25 26  2  0
 26 27  1  0
 27 28  1  0
 28 29  1  0
 29 30  1  0
 31 32  1  0
M  END
