
     RDKit          3D

 32 35  0  0  0  0  0  0  0  0999 V2000
   -7.9550   -1.3530    2.2920 C   0  0  0  0  0  0  0  0  0  0  0  0
   -8.6350   -1.3040    0.9290 C   0  0  0  0  0  0  0  0  0  0  0  0
   -7.7010   -1.6000   -0.1110 N   0  0  0  0  0  0  0  0  0  0  0  0
   -6.5400   -0.8230   -0.3740 C   0  0  0  0  0  0  0  0  0  0  0  0
   -6.2320    0.3180    0.3360 C   0  0  0  0  0  0  0  0  0  0  0  0
   -5.0940    1.0780    0.0820 C   0  0  0  0  0  0  0  0  0  0  0  0
   -4.2200    0.7000   -0.9130 C   0  0  0  0  0  0  0  0  0  0  0  0
   -3.0740    1.4360   -1.1950 O   0  0  0  0  0  0  0  0  0  0  0  0
   -2.7290    2.6060   -0.4890 C   0  0  0  0  0  0  0  0  0  0  0  0
   -1.4370    3.1430   -1.0490 C   0  0  0  0  0  0  0  0  0  0  0  0
   -4.5100   -0.4360   -1.6340 C   0  0  0  0  0  0  0  0  0  0  0  0
   -3.5930   -0.8590   -2.6970 C   0  0  0  0  0  0  0  0  0  0  0  0
   -2.3910   -1.4850   -2.1110 C   0  0  0  0  0  0  0  0  0  0  0  0
   -1.2650   -0.8430   -1.7730 N   0  0  0  0  0  0  0  0  0  0  0  0
   -0.3660   -1.7190   -1.2630 C   0  0  0  0  0  0  0  0  0  0  0  0
    0.9470   -1.4460   -0.7870 N   0  0  0  0  0  0  0  0  0  0  0  0
    1.4050   -0.0640   -0.8480 C   0  0  0  0  0  0  0  0  0  0  0  0
    2.7850    0.0640   -0.3010 C   0  0  0  0  0  0  0  0  0  0  0  0
    3.8840   -0.1430   -1.1090 C   0  0  0  0  0  0  0  0  0  0  0  0
    5.1710   -0.0270   -0.6050 C   0  0  0  0  0  0  0  0  0  0  0  0
    5.4160    0.2970    0.7120 C   0  0  0  0  0  0  0  0  0  0  0  0
    6.7290    0.4170    1.2400 N   0  0  0  0  0  0  0  0  0  0  0  0
    7.9500    0.2110    0.4890 C   0  0  0  0  0  0  0  0  0  0  0  0
    9.0400    0.0810    1.5360 C   0  0  1  0  0  0  0  0  0  0  0  0
   10.1510    1.0200    1.1660 C   0  0  0  0  0  0  0  0  0  0  0  0
    8.3660    0.5780    2.7420 C   0  0  0  0  0  0  0  0  0  0  0  0
    7.1250    0.7440    2.5350 N   0  0  0  0  0  0  0  0  0  0  0  0
    4.3060    0.5040    1.5160 C   0  0  0  0  0  0  0  0  0  0  0  0
    3.0250    0.3880    1.0170 C   0  0  0  0  0  0  0  0  0  0  0  0
   -0.9740   -2.9160   -1.2960 N   0  0  0  0  0  0  0  0  0  0  0  0
   -2.1850   -2.7710   -1.8040 N   0  0  0  0  0  0  0  0  0  0  0  0
   -5.6420   -1.1770   -1.3690 C   0  0  0  0  0  0  0  0  0  0  0  0
  1  2  1  0
  2  3  1  0
  3  4  1  0
  4  5  2  0
  4 32  1  0
  5  6  1  0
  6  7  2  0
  7  8  1  0
  7 11  1  0
  8  9  1  0
  9 10  1  0
 11 12  1  0
 11 32  2  0
 12 13  1  0
 13 14  2  0
 13 31  1  0
 14 15  1  0
 15 16  1  0
 15 30  2  0
 16 17  1  0
 17 18  1  0
 18 19  2  0
 18 29  1  0
 19 20  1  0
 20 21  2  0
 21 22  1  0
 21 28  1  0
 22 23  1  0
 22 27  1  0
 23 24  1  0
 24 25  1  6
 24 26  1  0
 26 27  2  0
 28 29  2  0
 30 31  1  0
M  END
