
     RDKit          3D

 21 23  0  0  0  0  0  0  0  0999 V2000
    1.4930   -2.9610    1.4400 C   0  0  0  0  0  0  0  0  0  0  0  0
    1.4030   -1.6510    1.4230 C   0  0  0  0  0  0  0  0  0  0  0  0
    1.0340   -1.0370    2.5980 O   0  0  0  0  0  0  0  0  0  0  0  0
   -0.2240    0.3210    2.6370 P   0  0  0  0  0  0  0  0  0  0  0  0
    0.5510    1.5390    3.6020 O   0  0  0  0  0  0  0  0  0  0  0  0
   -0.2070    0.6900    0.9150 N   0  0  0  0  0  0  0  0  0  0  0  0
   -1.3500    0.5470    0.1690 C   0  0  0  0  0  0  0  0  0  0  0  0
   -1.3990   -0.0970   -1.0510 C   0  0  0  0  0  0  0  0  0  0  0  0
   -2.7320    0.1160   -1.6310 C   0  0  0  0  0  0  0  0  0  0  0  0
   -3.4950    0.8920   -0.6100 C   0  0  0  0  0  0  0  0  0  0  0  0
   -2.6530    1.0020    0.6330 C   0  0  0  0  0  0  0  0  0  0  0  0
   -0.3370   -0.8570   -1.6530 N   0  0  0  0  0  0  0  0  0  0  0  0
    0.7870   -1.4210   -0.9870 C   0  0  0  0  0  0  0  0  0  0  0  0
    1.1080   -2.6070   -1.4140 O   0  0  0  0  0  0  0  0  0  0  0  0
    1.7310   -1.0350    0.0880 C   0  0  2  0  0  0  0  0  0  0  0  0
    3.0900   -1.1590   -0.2090 N   0  0  0  0  0  0  0  0  0  0  0  0
    3.4240   -1.2900   -1.3640 O   0  0  0  0  0  0  0  0  0  0  0  0
    1.4900    0.8860    0.2870 P   0  0  0  0  0  0  0  0  0  0  0  0
    1.5520    1.5750   -1.3340 N   0  0  0  0  0  0  0  0  0  0  0  0
    2.5310    2.3230   -1.6720 C   0  0  0  0  0  0  0  0  0  0  0  0
    3.9400    3.0380   -2.1390 P   0  0  0  0  0  0  0  0  0  0  0  0
  1  2  2  0
  2  3  1  0
  2 15  1  0
  3  4  1  0
  4  5  1  0
  4  6  1  0
  6  7  1  0
  6 18  1  0
  7  8  2  0
  7 11  1  0
  8  9  1  0
  8 12  1  0
  9 10  1  0
 10 11  1  0
 12 13  1  0
 13 14  2  0
 13 15  1  0
 15 16  1  6
 15 18  1  0
 16 17  2  0
 18 19  1  0
 19 20  2  0
 20 21  2  0
M  END
