
     RDKit          3D

 21 23  0  0  0  0  0  0  0  0999 V2000
   -4.1260    1.7520    0.7990 C   0  0  0  0  0  0  0  0  0  0  0  0
   -4.5020    0.7460   -0.2580 C   0  0  2  0  0  0  0  0  0  0  0  0
   -5.7880    0.2470    0.0130 O   0  0  0  0  0  0  0  0  0  0  0  0
   -3.5390   -0.3780   -0.2290 C   0  0  0  0  0  0  0  0  0  0  0  0
   -2.5700   -0.3540    0.6370 C   0  0  0  0  0  0  0  0  0  0  0  0
   -1.4910   -1.0140    0.3440 C   0  0  0  0  0  0  0  0  0  0  0  0
   -0.2410   -0.8180    1.1070 C   0  0  0  0  0  0  0  0  0  0  0  0
    0.8990   -0.8380    0.0850 C   0  0  1  0  0  0  0  0  0  0  0  0
    2.0940   -0.6310    0.7340 O   0  0  0  0  0  0  0  0  0  0  0  0
    2.8890    0.8300    0.2550 P   0  0  0  0  0  0  0  0  0  0  0  0
    2.9740    0.9580   -1.5790 C   0  0  0  0  0  0  0  0  0  0  0  0
    1.9900    0.8900   -2.3290 O   0  0  0  0  0  0  0  0  0  0  0  0
    4.2810    1.1360   -1.9580 O   0  0  0  0  0  0  0  0  0  0  0  0
    5.1870    0.2680   -1.4610 N   0  0  0  0  0  0  0  0  0  0  0  0
    5.1080    0.4230    0.3650 P   0  0  0  0  0  0  0  0  0  0  0  0
    5.8440    2.0420    0.7280 N   0  0  0  0  0  0  0  0  0  0  0  0
    0.9440   -2.1800   -0.5850 C   0  0  0  0  0  0  0  0  0  0  0  0
   -0.2910   -2.4990   -1.2220 O   0  0  0  0  0  0  0  0  0  0  0  0
   -1.4930   -1.9690   -0.7540 C   0  0  0  0  0  0  0  0  0  0  0  0
   -2.6480   -2.2960   -1.2630 C   0  0  0  0  0  0  0  0  0  0  0  0
   -3.6250   -1.4930   -1.1090 N   0  0  0  0  0  0  0  0  0  0  0  0
  2  1  1  1
  2  3  1  0
  2  4  1  0
  4  5  2  0
  4 21  1  0
  5  6  2  0
  6  7  1  0
  6 19  1  0
  7  8  1  0
  8  9  1  1
  8 17  1  0
  9 10  1  0
 10 11  1  0
 10 15  1  0
 11 12  2  0
 11 13  1  0
 13 14  1  0
 14 15  1  0
 15 16  1  0
 17 18  1  0
 18 19  1  0
 19 20  2  0
 20 21  2  0
M  END
