
     RDKit          3D

 21 21  0  0  0  0  0  0  0  0999 V2000
   -5.8910    0.1360   -0.4010 C   0  0  0  0  0  0  0  0  0  0  0  0
   -4.3750    0.0860   -0.6090 C   0  0  1  0  0  0  0  0  0  0  0  0
   -3.8500    1.7950   -1.1050 P   0  0  0  0  0  0  0  0  0  0  0  0
   -3.7870   -0.2810    0.5980 O   0  0  0  0  0  0  0  0  0  0  0  0
   -2.4490   -0.4360    0.8280 C   0  0  0  0  0  0  0  0  0  0  0  0
   -1.9950   -0.7590    2.0220 C   0  0  0  0  0  0  0  0  0  0  0  0
   -2.8920   -0.9410    3.0520 O   0  0  0  0  0  0  0  0  0  0  0  0
   -0.5930   -0.9230    2.2730 N   0  0  0  0  0  0  0  0  0  0  0  0
    0.3020   -0.7360    1.2270 N   0  0  0  0  0  0  0  0  0  0  0  0
   -0.1860   -0.3870   -0.0650 C   0  0  0  0  0  0  0  0  0  0  0  0
    0.6510   -0.1870   -1.1500 O   0  0  0  0  0  0  0  0  0  0  0  0
    1.7100    1.2090   -1.1310 P   0  0  0  0  0  0  0  0  0  0  0  0
    3.3100    0.9650   -1.0920 N   0  0  0  0  0  0  0  0  0  0  0  0
    3.8280   -0.3530   -1.0740 C   0  0  0  0  0  0  0  0  0  0  0  0
    4.9730   -0.5740   -0.4700 C   0  0  0  0  0  0  0  0  0  0  0  0
    5.5190   -1.9210   -0.4420 C   0  0  0  0  0  0  0  0  0  0  0  0
    4.9500   -2.9030   -0.9720 O   0  0  0  0  0  0  0  0  0  0  0  0
    5.6710    0.5270    0.1590 C   0  0  0  0  0  0  0  0  0  0  0  0
    5.1920    1.8580    0.1660 N   0  0  0  0  0  0  0  0  0  0  0  0
    6.7640    0.3030    0.7330 O   0  0  0  0  0  0  0  0  0  0  0  0
   -1.4950   -0.2460   -0.2470 C   0  0  0  0  0  0  0  0  0  0  0  0
  2  1  1  1
  2  3  1  0
  2  4  1  0
  4  5  1  0
  5  6  2  0
  5 21  1  0
  6  7  1  0
  6  8  1  0
  8  9  1  0
  9 10  1  0
 10 11  1  0
 10 21  2  0
 11 12  1  0
 12 13  2  3
 13 14  1  0
 14 15  2  3
 15 16  1  0
 15 18  1  0
 16 17  2  0
 18 19  1  0
 18 20  2  0
M  END
