
     RDKit          3D

 21 22  0  0  0  0  0  0  0  0999 V2000
    4.7850   -0.5810   -0.7510 C   0  0  0  0  0  0  0  0  0  0  0  0
    3.8250   -1.2260    0.2310 C   0  0  0  0  0  0  0  0  0  0  0  0
    2.4350   -0.8900   -0.2340 C   0  0  0  0  0  0  0  0  0  0  0  0
    1.6700   -0.2140    0.5950 C   0  0  0  0  0  0  0  0  0  0  0  0
    0.3380    0.1890    0.3300 N   0  0  0  0  0  0  0  0  0  0  0  0
   -0.1430    1.4200    0.7880 N   0  0  0  0  0  0  0  0  0  0  0  0
   -1.4240    1.5650    0.8490 C   0  0  0  0  0  0  0  0  0  0  0  0
   -1.8910    2.7870    1.3040 O   0  0  0  0  0  0  0  0  0  0  0  0
   -0.9750    3.8590    1.5840 C   0  0  0  0  0  0  0  0  0  0  0  0
   -2.2110    0.5160    0.4670 O   0  0  0  0  0  0  0  0  0  0  0  0
   -1.8370   -0.2560   -0.6100 N   0  0  0  0  0  0  0  0  0  0  0  0
   -2.1470    0.4450   -1.8020 C   0  0  0  0  0  0  0  0  0  0  0  0
   -3.6280    0.8390   -1.7380 C   0  0  0  0  0  0  0  0  0  0  0  0
   -0.5240   -0.7230   -0.4400 C   0  0  2  0  0  0  0  0  0  0  0  0
   -0.6390   -2.0640    0.3100 C   0  0  2  0  0  0  0  0  0  0  0  0
   -1.4030   -2.8830   -0.5160 O   0  0  0  0  0  0  0  0  0  0  0  0
   -1.3190   -1.9200    1.5940 C   0  0  0  0  0  0  0  0  0  0  0  0
   -0.7500   -1.1330    2.6260 N   0  0  0  0  0  0  0  0  0  0  0  0
   -2.4160   -2.4950    1.7950 O   0  0  0  0  0  0  0  0  0  0  0  0
    0.4020   -1.1200   -1.9830 P   0  0  0  0  0  0  0  0  0  0  0  0
    2.0820   -1.3230   -1.4990 O   0  0  0  0  0  0  0  0  0  0  0  0
  1  2  1  0
  2  3  1  0
  3  4  2  0
  3 21  1  0
  4  5  1  0
  5  6  1  0
  5 14  1  0
  6  7  2  0
  7  8  1  0
  7 10  1  0
  8  9  1  0
 10 11  1  0
 11 12  1  0
 11 14  1  0
 12 13  1  0
 14 15  1  0
 14 20  1  6
 15 16  1  6
 15 17  1  0
 17 18  1  0
 17 19  2  0
 20 21  1  0
M  END
