
     RDKit          3D

 29 32  0  0  0  0  0  0  0  0999 V2000
    7.7710    1.6950   -0.0440 C   0  0  0  0  0  0  0  0  0  0  0  0
    6.6480    1.9290    0.9520 C   0  0  0  0  0  0  0  0  0  0  0  0
    5.5660    1.0470    0.7370 N   0  0  0  0  0  0  0  0  0  0  0  0
    5.8060   -0.3670    1.0230 C   0  0  0  0  0  0  0  0  0  0  0  0
    4.4810   -0.9150    0.5590 C   0  0  0  0  0  0  0  0  0  0  0  0
    3.7320   -2.0050    0.9630 C   0  0  0  0  0  0  0  0  0  0  0  0
    2.4480   -2.2000    0.4430 C   0  0  0  0  0  0  0  0  0  0  0  0
    1.9390   -1.3380   -0.4470 C   0  0  0  0  0  0  0  0  0  0  0  0
    0.6090   -1.2030   -0.9010 N   0  0  0  0  0  0  0  0  0  0  0  0
   -0.4250   -0.9710    0.1070 C   0  0  0  0  0  0  0  0  0  0  0  0
   -0.0950   -0.9800    1.3110 O   0  0  0  0  0  0  0  0  0  0  0  0
   -1.8120   -0.7150   -0.3180 C   0  0  0  0  0  0  0  0  0  0  0  0
   -2.8560   -0.8000    0.7060 C   0  0  0  0  0  0  0  0  0  0  0  0
   -2.6690   -0.7350    1.9240 O   0  0  0  0  0  0  0  0  0  0  0  0
   -4.1960   -0.9820    0.2470 N   0  0  0  0  0  0  0  0  0  0  0  0
   -4.6970   -2.2900   -0.1480 C   0  0  0  0  0  0  0  0  0  0  0  0
   -6.1610   -2.4340   -0.0880 C   0  0  0  0  0  0  0  0  0  0  0  0
   -6.7910   -1.3820    0.6480 O   0  0  0  0  0  0  0  0  0  0  0  0
   -6.4320   -0.0590    0.3590 C   0  0  0  0  0  0  0  0  0  0  0  0
   -7.2710    0.9950    0.2470 C   0  0  0  0  0  0  0  0  0  0  0  0
   -6.7290    2.2670   -0.0780 C   0  0  0  0  0  0  0  0  0  0  0  0
   -5.4090    2.4420   -0.2830 C   0  0  0  0  0  0  0  0  0  0  0  0
   -4.8610    3.7310   -0.7740 C   0  0  0  0  0  0  0  0  0  0  0  0
   -4.4240    4.7290   -1.1750 N   0  0  0  0  0  0  0  0  0  0  0  0
   -4.5900    1.3670   -0.1600 C   0  0  0  0  0  0  0  0  0  0  0  0
   -5.0550    0.1200    0.1510 C   0  0  0  0  0  0  0  0  0  0  0  0
    2.7250   -0.2380   -0.8520 C   0  0  0  0  0  0  0  0  0  0  0  0
    3.9710   -0.0400   -0.3520 C   0  0  0  0  0  0  0  0  0  0  0  0
    4.9900    1.0400   -0.5630 C   0  0  0  0  0  0  0  0  0  0  0  0
  1  2  1  0
  2  3  1  0
  3  4  1  0
  3 29  1  0
  4  5  1  0
  5  6  2  0
  5 28  1  0
  6  7  1  0
  7  8  2  0
  8  9  1  0
  8 27  1  0
  9 10  1  0
 10 11  2  0
 10 12  1  0
 12 13  1  0
 13 14  2  0
 13 15  1  0
 15 16  1  0
 15 26  1  0
 16 17  1  0
 17 18  1  0
 18 19  1  0
 19 20  2  0
 19 26  1  0
 20 21  1  0
 21 22  2  0
 22 23  1  0
 22 25  1  0
 23 24  3  0
 25 26  2  0
 27 28  2  0
 28 29  1  0
M  END
