
     RDKit          3D

 29 33  0  0  0  0  0  0  0  0999 V2000
   -3.3190    2.1700    1.2170 C   0  0  0  0  0  0  0  0  0  0  0  0
   -2.9350    0.8530    0.6830 C   0  0  0  0  0  0  0  0  0  0  0  0
   -1.6190    0.4790    0.8060 C   0  0  0  0  0  0  0  0  0  0  0  0
   -0.6280    1.2860    1.4200 N   0  0  0  0  0  0  0  0  0  0  0  0
    0.7550    0.9250    1.5090 C   0  0  0  0  0  0  0  0  0  0  0  0
    1.4150    0.8500    0.1820 C   0  0  0  0  0  0  0  0  0  0  0  0
    0.9100    1.0870   -1.0770 C   0  0  0  0  0  0  0  0  0  0  0  0
    1.8890    0.9010   -1.9770 N   0  0  0  0  0  0  0  0  0  0  0  0
    3.0190    0.5510   -1.3540 N   0  0  0  0  0  0  0  0  0  0  0  0
    2.7560    0.5130   -0.0410 C   0  0  0  0  0  0  0  0  0  0  0  0
    3.7560    0.1720    0.8910 N   0  0  0  0  0  0  0  0  0  0  0  0
    5.0730   -0.1370    0.4000 C   0  0  0  0  0  0  0  0  0  0  0  0
    6.0700   -0.4720    1.2740 C   0  0  0  0  0  0  0  0  0  0  0  0
    7.3480   -0.7730    0.8170 C   0  0  0  0  0  0  0  0  0  0  0  0
    7.6130   -0.7320   -0.5350 C   0  0  0  0  0  0  0  0  0  0  0  0
    9.2180   -1.1090   -1.1300 Cl  0  0  0  0  0  0  0  0  0  0  0  0
    6.5900   -0.3910   -1.3920 C   0  0  0  0  0  0  0  0  0  0  0  0
    5.3090   -0.0880   -0.9580 C   0  0  0  0  0  0  0  0  0  0  0  0
    4.3010    0.2610   -1.9580 C   0  0  0  0  0  0  0  0  0  0  0  0
   -1.2740   -0.7540    0.3030 C   0  0  0  0  0  0  0  0  0  0  0  0
   -2.1920   -1.5840   -0.2960 C   0  0  0  0  0  0  0  0  0  0  0  0
   -3.5390   -1.1750   -0.4100 C   0  0  0  0  0  0  0  0  0  0  0  0
   -3.8950    0.0220    0.0730 C   0  0  0  0  0  0  0  0  0  0  0  0
   -5.3400    0.3840   -0.0880 C   0  0  0  0  0  0  0  0  0  0  0  0
   -6.0590   -1.1240   -0.5590 S   0  0  1  0  0  0  0  0  0  0  0  0
   -6.8700   -1.8510    0.5630 N   0  0  0  0  0  0  0  0  0  0  0  0
   -7.1190   -1.0270   -1.7000 N   0  0  0  0  0  0  0  0  0  0  0  0
   -4.6150   -1.9640   -1.0260 C   0  0  0  0  0  0  0  0  0  0  0  0
   -4.4960   -3.0120   -1.7310 O   0  0  0  0  0  0  0  0  0  0  0  0
  1  2  1  0
  2  3  2  0
  2 23  1  0
  3  4  1  0
  3 20  1  0
  4  5  1  0
  5  6  1  0
  6  7  1  0
  6 10  2  0
  7  8  2  0
  8  9  1  0
  9 10  1  0
  9 19  1  0
 10 11  1  0
 11 12  1  0
 12 13  2  0
 12 18  1  0
 13 14  1  0
 14 15  2  0
 15 16  1  0
 15 17  1  0
 17 18  2  0
 18 19  1  0
 20 21  2  0
 21 22  1  0
 22 23  2  0
 22 28  1  0
 23 24  1  0
 25 24  1  1
 25 26  2  0
 25 27  2  0
 25 28  1  0
 28 29  2  0
M  CHG  1  27   1
M  END
