
     RDKit          3D

 28 32  0  0  0  0  0  0  0  0999 V2000
    7.8740   -0.6360    0.2120 C   0  0  0  0  0  0  0  0  0  0  0  0
    6.6540   -0.9080    1.0530 C   0  0  0  0  0  0  0  0  0  0  0  0
    5.4310   -0.5040    0.2650 C   0  0  0  0  0  0  0  0  0  0  0  0
    4.1600   -0.7510    1.0550 C   0  0  0  0  0  0  0  0  0  0  0  0
    3.0050   -0.3330    0.2270 C   0  0  0  0  0  0  0  0  0  0  0  0
    2.3770   -1.1730   -0.6070 N   0  0  0  0  0  0  0  0  0  0  0  0
    1.3390   -0.8260   -1.3620 C   0  0  0  0  0  0  0  0  0  0  0  0
    0.6560   -1.6990   -2.2550 N   0  0  0  0  0  0  0  0  0  0  0  0
    0.9010    0.4620   -1.2700 N   0  0  0  0  0  0  0  0  0  0  0  0
    1.5090    1.3290   -0.4430 C   0  0  0  0  0  0  0  0  0  0  0  0
    0.9170    3.0050   -0.3430 S   0  0  0  0  0  0  0  0  0  0  0  0
   -0.3470    3.1070    0.9380 C   0  0  0  0  0  0  0  0  0  0  0  0
   -1.5780    2.3370    0.6010 C   0  0  0  0  0  0  0  0  0  0  0  0
   -2.6100    2.9770   -0.0960 C   0  0  0  0  0  0  0  0  0  0  0  0
   -3.7730    2.3130   -0.4320 C   0  0  0  0  0  0  0  0  0  0  0  0
   -3.8000    1.0030   -0.0190 C   0  0  0  0  0  0  0  0  0  0  0  0
   -2.8280    0.3450    0.6490 C   0  0  0  0  0  0  0  0  0  0  0  0
   -1.7210    1.0420    0.9500 N   0  0  0  0  0  0  0  0  0  0  0  0
   -3.0320   -1.0760    0.8890 C   0  0  0  0  0  0  0  0  0  0  0  0
   -2.2810   -1.9920    1.5540 C   0  0  0  0  0  0  0  0  0  0  0  0
   -2.9970   -3.1630    1.4860 C   0  0  0  0  0  0  0  0  0  0  0  0
   -4.1340   -2.9400    0.7990 N   0  0  0  0  0  0  0  0  0  0  0  0
   -4.1840   -1.6610    0.4160 C   0  0  0  0  0  0  0  0  0  0  0  0
   -5.2290   -0.9730   -0.3960 C   0  0  0  0  0  0  0  0  0  0  0  0
   -5.1390    0.4850   -0.3600 C   0  0  2  0  0  0  0  0  0  0  0  0
   -5.5480    1.2380   -1.4430 O   0  0  0  0  0  0  0  0  0  0  0  0
   -5.0510    2.5500   -1.1540 C   0  0  0  0  0  0  0  0  0  0  0  0
    2.5560    0.9400    0.3040 N   0  0  0  0  0  0  0  0  0  0  0  0
  1  2  1  0
  2  3  1  0
  3  4  1  0
  4  5  1  0
  5  6  2  0
  5 28  1  0
  6  7  1  0
  7  8  1  0
  7  9  2  0
  9 10  1  0
 10 11  1  0
 10 28  2  0
 11 12  1  0
 12 13  1  0
 13 14  2  0
 13 18  1  0
 14 15  1  0
 15 16  2  0
 15 27  1  0
 16 17  1  0
 16 25  1  0
 17 18  2  0
 17 19  1  0
 19 20  1  0
 19 23  2  0
 20 21  2  0
 21 22  1  0
 22 23  1  0
 23 24  1  0
 25 24  1  6
 25 26  1  0
 26 27  1  0
M  CHG  1  18   1
M  END
