
     RDKit          3D

 29 32  0  0  0  0  0  0  0  0999 V2000
    8.4090    1.3240    0.2750 C   0  0  0  0  0  0  0  0  0  0  0  0
    6.9700    1.0030    0.1370 C   0  0  0  0  0  0  0  0  0  0  0  0
    6.4050    0.0420    0.9150 C   0  0  0  0  0  0  0  0  0  0  0  0
    5.0750   -0.2290    0.7590 C   0  0  0  0  0  0  0  0  0  0  0  0
    4.2510    0.4110   -0.1440 C   0  0  0  0  0  0  0  0  0  0  0  0
    2.8680    0.1070   -0.2840 N   0  0  0  0  0  0  0  0  0  0  0  0
    1.9020    0.9910   -0.1030 N   0  0  0  0  0  0  0  0  0  0  0  0
    0.5870    0.6750   -0.2430 C   0  0  0  0  0  0  0  0  0  0  0  0
   -0.3150    1.5330   -0.0660 O   0  0  0  0  0  0  0  0  0  0  0  0
    0.1990   -0.5980   -0.5850 C   0  0  0  0  0  0  0  0  0  0  0  0
   -0.9990   -1.2270   -0.8030 C   0  0  0  0  0  0  0  0  0  0  0  0
   -2.3450   -0.6420   -0.6990 C   0  0  0  0  0  0  0  0  0  0  0  0
   -2.8600   -0.4970    0.6960 C   0  0  0  0  0  0  0  0  0  0  0  0
   -4.2250    0.1050    0.7050 C   0  0  0  0  0  0  0  0  0  0  0  0
   -4.4510    1.4620    0.7730 C   0  0  0  0  0  0  0  0  0  0  0  0
   -5.7270    1.9840    0.7790 C   0  0  0  0  0  0  0  0  0  0  0  0
   -6.8250    1.1540    0.7150 C   0  0  0  0  0  0  0  0  0  0  0  0
   -8.1890    1.6820    0.7200 C   0  0  0  0  0  0  0  0  0  0  0  0
   -8.3300    2.9240    0.7840 O   0  0  0  0  0  0  0  0  0  0  0  0
   -6.6310   -0.1960    0.6460 C   0  0  0  0  0  0  0  0  0  0  0  0
   -5.3560   -0.7050    0.6420 C   0  0  0  0  0  0  0  0  0  0  0  0
   -0.7020   -2.4960   -1.1160 N   0  0  0  0  0  0  0  0  0  0  0  0
   -1.6820   -3.5110   -1.4250 C   0  0  0  0  0  0  0  0  0  0  0  0
    0.5950   -2.6950   -1.1060 N   0  0  0  0  0  0  0  0  0  0  0  0
    1.1920   -1.5370   -0.7800 C   0  0  0  0  0  0  0  0  0  0  0  0
    2.5040   -1.1460   -0.6210 C   0  0  0  0  0  0  0  0  0  0  0  0
    3.3960   -2.0140   -0.8020 O   0  0  0  0  0  0  0  0  0  0  0  0
    4.8610    1.3910   -0.9270 C   0  0  0  0  0  0  0  0  0  0  0  0
    6.2000    1.6920   -0.7990 C   0  0  0  0  0  0  0  0  0  0  0  0
  1  2  1  0
  2  3  2  0
  2 29  1  0
  3  4  1  0
  4  5  2  0
  5  6  1  0
  5 28  1  0
  6  7  1  0
  6 26  1  0
  7  8  1  0
  8  9  2  0
  8 10  1  0
 10 11  2  0
 10 25  1  0
 11 12  1  0
 11 22  1  0
 12 13  1  0
 13 14  1  0
 14 15  2  0
 14 21  1  0
 15 16  1  0
 16 17  2  0
 17 18  1  0
 17 20  1  0
 18 19  2  0
 20 21  2  0
 22 23  1  0
 22 24  1  0
 24 25  2  0
 25 26  1  0
 26 27  2  0
 28 29  2  0
M  END
