
     RDKit          3D

 30 32  0  0  0  0  0  0  0  0999 V2000
   -6.6330   -1.8380    0.5010 C   0  0  0  0  0  0  0  0  0  0  0  0
   -6.6560   -0.5800    0.1120 C   0  0  0  0  0  0  0  0  0  0  0  0
   -5.3960    0.1210   -0.0770 C   0  0  0  0  0  0  0  0  0  0  0  0
   -4.2890   -0.2170    0.5570 C   0  0  0  0  0  0  0  0  0  0  0  0
   -3.0490    0.5070    0.3430 C   0  0  0  0  0  0  0  0  0  0  0  0
   -1.9180    0.1670    0.9890 C   0  0  0  0  0  0  0  0  0  0  0  0
   -1.9650   -0.9680    1.9310 C   0  0  0  0  0  0  0  0  0  0  0  0
   -0.7720   -1.2600    2.7160 C   0  0  0  0  0  0  0  0  0  0  0  0
    0.4970   -0.5070    2.3520 C   0  0  0  0  0  0  0  0  0  0  0  0
    0.4590   -0.1690    0.9240 C   0  0  1  0  0  0  0  0  0  0  0  0
    0.0670   -1.4260    0.1610 C   0  0  0  0  0  0  0  0  0  0  0  0
   -0.6700    0.8760    0.7950 C   0  0  1  0  0  0  0  0  0  0  0  0
   -0.4520    1.3960   -0.5940 C   0  0  0  0  0  0  0  0  0  0  0  0
    0.9250    0.9460   -1.0490 C   0  0  0  0  0  0  0  0  0  0  0  0
    1.5390    0.5740    0.2650 C   0  0  2  0  0  0  0  0  0  0  0  0
    2.9170    0.0320    0.2150 C   0  0  2  0  0  0  0  0  0  0  0  0
    3.5020   -0.0450    1.6090 C   0  0  0  0  0  0  0  0  0  0  0  0
    3.7960    0.6270   -0.8050 C   0  0  0  0  0  0  0  0  0  0  0  0
    5.1550    0.0950   -1.0340 C   0  0  0  0  0  0  0  0  0  0  0  0
    6.1190    0.0640    0.1000 C   0  0  0  0  0  0  0  0  0  0  0  0
    7.4780   -0.4520   -0.4150 C   0  0  1  0  0  0  0  0  0  0  0  0
    7.3850   -1.8250   -0.9870 C   0  0  0  0  0  0  0  0  0  0  0  0
    8.0390    0.4830   -1.4420 C   0  0  0  0  0  0  0  0  0  0  0  0
    8.3220   -0.4820    0.6890 O   0  0  0  0  0  0  0  0  0  0  0  0
   -5.3800    1.2690   -1.0300 C   0  0  0  0  0  0  0  0  0  0  0  0
   -6.6830    1.2800   -1.7930 C   0  0  1  0  0  0  0  0  0  0  0  0
   -6.8250    0.0870   -2.4670 O   0  0  0  0  0  0  0  0  0  0  0  0
   -7.8280    1.4070   -0.8080 C   0  0  0  0  0  0  0  0  0  0  0  0
   -7.9710    0.0660   -0.1150 C   0  0  2  0  0  0  0  0  0  0  0  0
   -8.6920    0.2000    1.0570 O   0  0  0  0  0  0  0  0  0  0  0  0
  1  2  2  0
  2  3  1  0
  2 29  1  0
  3  4  2  3
  3 25  1  0
  4  5  1  0
  5  6  2  3
  6  7  1  0
  6 12  1  0
  7  8  1  0
  8  9  1  0
  9 10  1  0
 10 11  1  6
 10 12  1  0
 10 15  1  0
 12 13  1  6
 13 14  1  0
 15 14  1  6
 15 16  1  0
 16 17  1  1
 16 18  1  0
 18 19  1  0
 19 20  1  0
 20 21  1  0
 21 22  1  6
 21 23  1  0
 21 24  1  0
 25 26  1  0
 26 27  1  1
 26 28  1  0
 28 29  1  0
 29 30  1  1
M  END
