
     RDKit          3D

 29 32  0  0  0  0  0  0  0  0999 V2000
   -2.3280   -2.5970   -2.6670 C   0  0  0  0  0  0  0  0  0  0  0  0
   -2.8600   -1.5530   -2.2230 O   0  0  0  0  0  0  0  0  0  0  0  0
   -3.4540   -0.4200   -1.9300 C   0  0  0  0  0  0  0  0  0  0  0  0
   -4.0310    0.3990   -2.8390 C   0  0  0  0  0  0  0  0  0  0  0  0
   -4.6910    1.6040   -2.5180 C   0  0  0  0  0  0  0  0  0  0  0  0
   -4.6970    1.8640   -1.1590 C   0  0  0  0  0  0  0  0  0  0  0  0
   -4.1240    1.0770   -0.2000 C   0  0  0  0  0  0  0  0  0  0  0  0
   -3.4910   -0.0630   -0.5110 C   0  0  0  0  0  0  0  0  0  0  0  0
   -2.9520   -1.0730    0.4120 C   0  0  0  0  0  0  0  0  0  0  0  0
   -1.7910   -0.8380    1.1130 N   0  0  0  0  0  0  0  0  0  0  0  0
   -1.4090    0.3580    1.6840 C   0  0  0  0  0  0  0  0  0  0  0  0
   -0.6970    1.2570    0.6590 C   0  0  0  0  0  0  0  0  0  0  0  0
    0.7700    1.1370    0.8000 C   0  0  0  0  0  0  0  0  0  0  0  0
    1.2360   -0.1810    1.1060 N   0  0  0  0  0  0  0  0  0  0  0  0
    2.6560   -0.2770    0.8430 C   0  0  0  0  0  0  0  0  0  0  0  0
    3.5310   -1.0110    1.5670 C   0  0  0  0  0  0  0  0  0  0  0  0
    4.8940   -1.0780    1.2520 C   0  0  0  0  0  0  0  0  0  0  0  0
    5.3670   -0.3780    0.1730 C   0  0  0  0  0  0  0  0  0  0  0  0
    6.7250   -0.4050   -0.2270 N   0  0  0  0  0  0  0  0  0  0  0  0
    7.1680    0.4790   -1.2890 C   0  0  0  0  0  0  0  0  0  0  0  0
    7.6740   -1.2830    0.3650 C   0  0  0  0  0  0  0  0  0  0  0  0
    4.4360    0.3670   -0.5610 C   0  0  0  0  0  0  0  0  0  0  0  0
    3.1260    0.4140   -0.2310 N   0  0  0  0  0  0  0  0  0  0  0  0
    0.5790   -1.3490    1.5830 C   0  0  0  0  0  0  0  0  0  0  0  0
   -0.6670   -1.7430    0.8360 C   0  0  0  0  0  0  0  0  0  0  0  0
   -4.2750    1.5760    1.1110 O   0  0  0  0  0  0  0  0  0  0  0  0
   -5.5350    2.1400    1.5290 C   0  0  0  0  0  0  0  0  0  0  0  0
   -6.1930    2.9470    0.4510 C   0  0  0  0  0  0  0  0  0  0  0  0
   -5.3380    3.0110   -0.7060 O   0  0  0  0  0  0  0  0  0  0  0  0
  1  2  1  0
  2  3  1  0
  3  4  2  0
  3  8  1  0
  4  5  1  0
  5  6  2  0
  6  7  1  0
  6 29  1  0
  7  8  2  0
  7 26  1  0
  8  9  1  0
  9 10  1  0
 10 11  1  0
 10 25  1  0
 11 12  1  0
 12 13  1  0
 13 14  1  0
 14 15  1  0
 14 24  1  0
 15 16  2  0
 15 23  1  0
 16 17  1  0
 17 18  2  0
 18 19  1  0
 18 22  1  0
 19 20  1  0
 19 21  1  0
 22 23  2  0
 24 25  1  0
 26 27  1  0
 27 28  1  0
 28 29  1  0
M  END
