
     RDKit          3D

 29 32  0  0  0  0  0  0  0  0999 V2000
    8.3340    0.5750   -1.7220 C   0  0  0  0  0  0  0  0  0  0  0  0
    7.6730    0.8940   -0.3750 C   0  0  0  0  0  0  0  0  0  0  0  0
    6.6020   -0.0340   -0.2010 N   0  0  0  0  0  0  0  0  0  0  0  0
    6.9350   -1.4420    0.0090 C   0  0  0  0  0  0  0  0  0  0  0  0
    5.9970   -2.1110    0.9450 C   0  0  0  0  0  0  0  0  0  0  0  0
    6.4510   -2.9900    1.7360 O   0  0  0  0  0  0  0  0  0  0  0  0
    4.6340   -1.7400    0.9170 N   0  0  0  0  0  0  0  0  0  0  0  0
    4.2550   -0.5090    0.3270 C   0  0  0  0  0  0  0  0  0  0  0  0
    2.9240   -0.1000    0.2760 C   0  0  0  0  0  0  0  0  0  0  0  0
    2.5290    1.0960   -0.2950 C   0  0  0  0  0  0  0  0  0  0  0  0
    1.1250    1.4920   -0.3290 C   0  0  0  0  0  0  0  0  0  0  0  0
    0.6470    2.6120   -0.8530 N   0  0  0  0  0  0  0  0  0  0  0  0
   -0.6880    2.6340   -0.7020 N   0  0  0  0  0  0  0  0  0  0  0  0
   -1.0110    1.4940   -0.0710 C   0  0  0  0  0  0  0  0  0  0  0  0
   -2.3680    1.1220    0.2880 C   0  0  0  0  0  0  0  0  0  0  0  0
   -2.6500   -0.0670    0.9420 C   0  0  0  0  0  0  0  0  0  0  0  0
   -3.9510   -0.3870    1.2660 C   0  0  0  0  0  0  0  0  0  0  0  0
   -5.0120    0.4400    0.9620 C   0  0  0  0  0  0  0  0  0  0  0  0
   -6.3130    0.0930    1.3000 O   0  0  0  0  0  0  0  0  0  0  0  0
   -7.1600   -0.6420    0.4510 C   0  0  1  0  0  0  0  0  0  0  0  0
   -6.5720   -2.0090    0.1240 C   0  0  0  0  0  0  0  0  0  0  0  0
   -8.4650   -0.8730    1.1810 C   0  0  0  0  0  0  0  0  0  0  0  0
   -7.4680    0.0680   -0.8290 C   0  0  0  0  0  0  0  0  0  0  0  0
   -4.7520    1.6250    0.3120 C   0  0  0  0  0  0  0  0  0  0  0  0
   -3.4460    1.9320   -0.0060 C   0  0  0  0  0  0  0  0  0  0  0  0
    0.0870    0.8400    0.1350 O   0  0  0  0  0  0  0  0  0  0  0  0
    3.5290    1.8850   -0.8220 C   0  0  0  0  0  0  0  0  0  0  0  0
    4.8610    1.5260   -0.7970 C   0  0  0  0  0  0  0  0  0  0  0  0
    5.2150    0.3260   -0.2200 C   0  0  0  0  0  0  0  0  0  0  0  0
  1  2  1  0
  2  3  1  0
  3  4  1  0
  3 29  1  0
  4  5  1  0
  5  6  2  0
  5  7  1  0
  7  8  1  0
  8  9  2  0
  8 29  1  0
  9 10  1  0
 10 11  1  0
 10 27  2  0
 11 12  2  0
 11 26  1  0
 12 13  1  0
 13 14  2  0
 14 15  1  0
 14 26  1  0
 15 16  2  0
 15 25  1  0
 16 17  1  0
 17 18  2  0
 18 19  1  0
 18 24  1  0
 19 20  1  0
 20 21  1  6
 20 22  1  0
 20 23  1  0
 24 25  2  0
 27 28  1  0
 28 29  2  0
M  END
