
     RDKit          3D

 22 22  0  0  0  0  0  0  0  0999 V2000
   -6.7780    0.2260   -0.6860 O   0  0  0  0  0  0  0  0  0  0  0  0
   -5.6500   -0.1290   -1.0800 C   0  0  0  0  0  0  0  0  0  0  0  0
   -5.5920   -0.9290   -2.2080 O   0  0  0  0  0  0  0  0  0  0  0  0
   -4.4960    0.2930   -0.3710 N   0  0  0  0  0  0  0  0  0  0  0  0
   -4.6320    1.1300    0.8020 C   0  0  0  0  0  0  0  0  0  0  0  0
   -3.7740    0.4900    1.8900 C   0  0  1  0  0  0  0  0  0  0  0  0
   -4.0820   -0.8750    2.0090 O   0  0  0  0  0  0  0  0  0  0  0  0
   -2.3410    0.6320    1.5000 C   0  0  0  0  0  0  0  0  0  0  0  0
   -2.1130    0.2400    0.1200 N   0  0  0  0  0  0  0  0  0  0  0  0
   -0.7770    0.1660   -0.3670 C   0  0  0  0  0  0  0  0  0  0  0  0
   -0.5920   -0.1750   -1.5690 O   0  0  0  0  0  0  0  0  0  0  0  0
    0.3180    0.4480    0.4040 O   0  0  0  0  0  0  0  0  0  0  0  0
    1.6380    0.3670   -0.0890 C   0  0  0  0  0  0  0  0  0  0  0  0
    2.0580   -0.9800   -0.5500 C   0  0  0  0  0  0  0  0  0  0  0  0
    3.3480   -0.9590   -1.0150 O   0  0  0  0  0  0  0  0  0  0  0  0
    4.2870   -0.5760   -0.0740 C   0  0  0  0  0  0  0  0  0  0  0  0
    5.6780   -0.6390   -0.7390 C   0  0  0  0  0  0  0  0  0  0  0  0
    6.5990   -0.2470    0.2350 O   0  0  0  0  0  0  0  0  0  0  0  0
    7.8180   -0.2650   -0.2270 O   0  0  0  0  0  0  0  0  0  0  0  0
    8.2890    0.9710   -0.3420 O   0  0  0  0  0  0  0  0  0  0  0  0
   -3.1790   -0.0720   -0.7600 C   0  0  0  0  0  0  0  0  0  0  0  0
   -3.0020   -0.6530   -1.8620 O   0  0  0  0  0  0  0  0  0  0  0  0
  1  2  2  0
  2  3  1  0
  2  4  1  0
  4  5  1  0
  4 21  1  0
  5  6  1  0
  6  7  1  6
  6  8  1  0
  8  9  1  0
  9 10  1  0
  9 21  1  0
 10 11  2  0
 10 12  1  0
 12 13  1  0
 13 14  1  0
 14 15  1  0
 15 16  1  0
 16 17  1  0
 17 18  1  0
 18 19  1  0
 19 20  1  0
 21 22  2  0
M  END
