
     RDKit          3D

 22 22  0  0  0  0  0  0  0  0999 V2000
    3.9730    1.5170    0.3140 O   0  0  0  0  0  0  0  0  0  0  0  0
    3.7710    0.4830   -0.3520 C   0  0  0  0  0  0  0  0  0  0  0  0
    4.7950   -0.4780   -0.5280 N   0  0  0  0  0  0  0  0  0  0  0  0
    6.1070   -0.4100    0.0030 C   0  0  0  0  0  0  0  0  0  0  0  0
    6.1260   -0.4340    1.4900 C   0  0  0  0  0  0  0  0  0  0  0  0
    5.4570    0.6020    2.0710 O   0  0  0  0  0  0  0  0  0  0  0  0
    2.4470    0.2370   -0.9770 C   0  0  0  0  0  0  0  0  0  0  0  0
    2.0740   -0.8490   -1.7360 C   0  0  0  0  0  0  0  0  0  0  0  0
    0.8160   -0.6710   -2.0940 O   0  0  0  0  0  0  0  0  0  0  0  0
    0.3680    0.4620   -1.6080 C   0  0  0  0  0  0  0  0  0  0  0  0
   -0.9330    0.8990   -1.8330 O   0  0  0  0  0  0  0  0  0  0  0  0
   -1.9840    0.5810   -0.9900 C   0  0  0  0  0  0  0  0  0  0  0  0
   -1.7170   -0.1360    0.0140 O   0  0  0  0  0  0  0  0  0  0  0  0
   -3.3940    1.0560   -1.2350 C   0  0  2  0  0  0  0  0  0  0  0  0
   -3.3410    1.8180   -2.4170 O   0  0  0  0  0  0  0  0  0  0  0  0
   -3.8310    1.8840   -0.2450 O   0  0  0  0  0  0  0  0  0  0  0  0
   -4.9400    1.3510    0.3860 C   0  0  0  0  0  0  0  0  0  0  0  0
   -4.7010    0.0380    1.0660 C   0  0  0  0  0  0  0  0  0  0  0  0
   -5.8790   -0.4160    1.6730 O   0  0  0  0  0  0  0  0  0  0  0  0
   -5.7010   -1.5630    2.2770 O   0  0  0  0  0  0  0  0  0  0  0  0
   -6.8760   -2.1960    2.2570 O   0  0  0  0  0  0  0  0  0  0  0  0
    1.3570    1.0210   -0.9260 N   0  0  0  0  0  0  0  0  0  0  0  0
  1  2  2  0
  2  3  1  0
  2  7  1  0
  3  4  1  0
  4  5  1  0
  5  6  1  0
  7  8  2  0
  7 22  1  0
  8  9  1  0
  9 10  1  0
 10 11  1  0
 10 22  2  0
 11 12  1  0
 12 13  2  0
 12 14  1  0
 14 15  1  6
 14 16  1  0
 16 17  1  0
 17 18  1  0
 18 19  1  0
 19 20  1  0
 20 21  1  0
M  END
