
     RDKit          3D

 21 22  0  0  0  0  0  0  0  0999 V2000
   -6.3680   -0.3260   -0.4700 O   0  0  0  0  0  0  0  0  0  0  0  0
   -5.1180   -0.1900   -0.2760 C   0  0  0  0  0  0  0  0  0  0  0  0
   -4.2630   -1.2620   -0.3440 C   0  0  0  0  0  0  0  0  0  0  0  0
   -2.9060   -1.0630   -0.1250 C   0  0  0  0  0  0  0  0  0  0  0  0
   -2.3950    0.1430    0.1530 N   0  0  0  0  0  0  0  0  0  0  0  0
   -1.0140    0.3490    0.3770 C   0  0  2  0  0  0  0  0  0  0  0  0
   -0.2230    0.2080   -0.7780 O   0  0  0  0  0  0  0  0  0  0  0  0
    1.0330    0.4490   -0.2280 C   0  0  2  0  0  0  0  0  0  0  0  0
    2.1660    0.0300   -1.0980 C   0  0  0  0  0  0  0  0  0  0  0  0
    3.3430    0.3460   -0.3900 O   0  0  0  0  0  0  0  0  0  0  0  0
    4.7240   -0.0600   -1.2280 P   0  0  1  0  0  0  0  0  0  0  0  0
    4.5160   -0.1530   -2.7160 O   0  0  0  0  0  0  0  0  0  0  0  0
    5.9280    1.0890   -0.8460 O   0  0  0  0  0  0  0  0  0  0  0  0
    5.2860   -1.5480   -0.6210 O   0  0  0  0  0  0  0  0  0  0  0  0
    1.1060   -0.3560    1.0560 C   0  0  1  0  0  0  0  0  0  0  0  0
    1.4790    0.5160    2.0660 O   0  0  0  0  0  0  0  0  0  0  0  0
   -0.3710   -0.7280    1.2550 C   0  0  1  0  0  0  0  0  0  0  0  0
   -0.7420   -0.6130    2.5770 O   0  0  0  0  0  0  0  0  0  0  0  0
   -3.2490    1.1820    0.2160 C   0  0  0  0  0  0  0  0  0  0  0  0
   -2.8390    2.3480    0.4740 O   0  0  0  0  0  0  0  0  0  0  0  0
   -4.5880    1.0140    0.0050 N   0  0  0  0  0  0  0  0  0  0  0  0
  1  2  2  0
  2  3  1  0
  2 21  1  0
  3  4  2  0
  4  5  1  0
  6  5  1  6
  5 19  1  0
  6  7  1  0
  6 17  1  0
  7  8  1  0
  8  9  1  6
  8 15  1  0
  9 10  1  0
 10 11  1  0
 11 12  2  0
 11 13  1  6
 11 14  1  0
 15 16  1  1
 15 17  1  0
 17 18  1  1
 19 20  2  0
 19 21  1  0
M  END
