
     RDKit          3D

 22 22  0  0  0  0  0  0  0  0999 V2000
    1.6340   -1.9380    0.5880 O   0  0  0  0  0  0  0  0  0  0  0  0
    2.2830   -0.8640    0.5340 C   0  0  0  0  0  0  0  0  0  0  0  0
    1.6270    0.3750    0.5860 N   0  0  0  0  0  0  0  0  0  0  0  0
    0.3180    0.4840    0.7080 O   0  0  0  0  0  0  0  0  0  0  0  0
   -0.3630    0.8260   -0.4290 C   0  0  2  0  0  0  0  0  0  0  0  0
   -0.7190    2.3290   -0.2410 C   0  0  0  0  0  0  0  0  0  0  0  0
   -1.4880    2.4730    0.9040 O   0  0  0  0  0  0  0  0  0  0  0  0
   -1.8690    4.1500    1.1120 P   0  0  0  0  0  0  0  0  0  0  0  0
   -1.0090    5.1130   -0.0470 O   0  0  0  0  0  0  0  0  0  0  0  0
   -1.3170    4.6420    2.6950 O   0  0  0  0  0  0  0  0  0  0  0  0
   -1.7040    0.1720   -0.5110 C   0  0  0  0  0  0  0  0  0  0  0  0
   -2.4530    0.3580   -1.5010 O   0  0  0  0  0  0  0  0  0  0  0  0
   -2.1850   -0.6760    0.5200 N   0  0  0  0  0  0  0  0  0  0  0  0
   -3.4760   -1.3220    0.4980 C   0  0  0  0  0  0  0  0  0  0  0  0
   -3.6920   -2.2530   -0.6470 C   0  0  0  0  0  0  0  0  0  0  0  0
   -4.9570   -2.8190   -0.5590 O   0  0  0  0  0  0  0  0  0  0  0  0
   -5.1290   -3.6140   -1.5730 O   0  0  0  0  0  0  0  0  0  0  0  0
    3.7400   -0.9560    0.4200 C   0  0  2  0  0  0  0  0  0  0  0  0
    4.3070   -0.3500   -0.8280 C   0  0  0  0  0  0  0  0  0  0  0  0
    5.6110   -0.9070   -0.7970 O   0  0  0  0  0  0  0  0  0  0  0  0
    5.3310   -2.2330   -0.4750 C   0  0  0  0  0  0  0  0  0  0  0  0
    4.2330   -2.2520    0.3660 O   0  0  0  0  0  0  0  0  0  0  0  0
  1  2  2  0
  2  3  1  0
 18  2  1  6
  3  4  1  0
  4  5  1  0
  5  6  1  1
  5 11  1  0
  6  7  1  0
  7  8  1  0
  8  9  1  0
  8 10  1  0
 11 12  2  0
 11 13  1  0
 13 14  1  0
 14 15  1  0
 15 16  1  0
 16 17  1  0
 18 19  1  0
 18 22  1  0
 19 20  1  0
 20 21  1  0
 21 22  1  0
M  END
