
     RDKit          3D

 28 30  0  0  0  0  0  0  0  0999 V2000
    4.1580   -0.7840    2.5200 C   0  0  0  0  0  0  0  0  0  0  0  0
    4.1960   -1.6100    1.3990 O   0  0  0  0  0  0  0  0  0  0  0  0
    3.8090   -0.9510    0.2510 C   0  0  1  0  0  0  0  0  0  0  0  0
    4.8650   -0.8940   -0.6910 O   0  0  0  0  0  0  0  0  0  0  0  0
    4.1150   -0.1540   -2.0980 P   0  0  0  0  0  0  0  0  0  0  0  0
    5.3590    1.3240   -3.0390 P   0  0  0  0  0  0  0  0  0  0  0  0
    2.6140    0.5090   -1.4590 O   0  0  0  0  0  0  0  0  0  0  0  0
    1.9210   -0.6140   -1.0500 C   0  0  2  0  0  0  0  0  0  0  0  0
    1.4970   -1.2640   -2.2210 O   0  0  0  0  0  0  0  0  0  0  0  0
    0.7340   -0.3650   -0.2120 C   0  0  1  0  0  0  0  0  0  0  0  0
    0.9990    0.2990    0.9800 O   0  0  0  0  0  0  0  0  0  0  0  0
    0.0000    0.2700    1.8500 N   0  0  0  0  0  0  0  0  0  0  0  0
   -1.2680    0.2110    1.3470 N   0  0  0  0  0  0  0  0  0  0  0  0
   -1.7410   -1.0520    1.4340 O   0  0  0  0  0  0  0  0  0  0  0  0
   -2.9390   -1.2040    0.9750 O   0  0  0  0  0  0  0  0  0  0  0  0
   -2.9860   -1.5320   -0.3040 O   0  0  0  0  0  0  0  0  0  0  0  0
   -4.3280   -1.3860   -0.7220 C   0  0  0  0  0  0  0  0  0  0  0  0
   -5.1350   -1.5210    0.3790 O   0  0  0  0  0  0  0  0  0  0  0  0
   -6.1040   -0.1900    0.8340 P   0  0  0  0  0  0  0  0  0  0  0  0
   -5.7700    1.4230    0.7130 C   0  0  0  0  0  0  0  0  0  0  0  0
   -6.7760    2.2470    1.1760 O   0  0  0  0  0  0  0  0  0  0  0  0
   -4.5720    1.7550    0.1850 O   0  0  0  0  0  0  0  0  0  0  0  0
   -3.3630    1.4050    0.6080 O   0  0  0  0  0  0  0  0  0  0  0  0
   -2.4310    1.5200   -0.2790 O   0  0  0  0  0  0  0  0  0  0  0  0
   -1.4080    0.7330    0.0560 N   0  0  0  0  0  0  0  0  0  0  0  0
   -0.3720    0.3570   -0.8700 C   0  0  0  0  0  0  0  0  0  0  0  0
   -0.4700    0.6430   -2.0660 O   0  0  0  0  0  0  0  0  0  0  0  0
    2.7440   -1.5360   -0.3850 O   0  0  0  0  0  0  0  0  0  0  0  0
  1  2  1  0
  3  2  1  1
  3  4  1  0
  3 28  1  0
  4  5  1  0
  5  6  1  0
  5  7  1  0
  7  8  1  0
  8  9  1  6
  8 10  1  0
  8 28  1  0
 10 11  1  1
 10 26  1  0
 11 12  1  0
 12 13  1  0
 13 14  1  0
 13 25  1  0
 14 15  1  0
 15 16  1  0
 16 17  1  0
 17 18  1  0
 18 19  1  0
 19 20  2  0
 20 21  1  0
 20 22  1  0
 22 23  1  0
 23 24  1  0
 24 25  1  0
 25 26  1  0
 26 27  2  0
M  END
