
     RDKit          3D

 26 25  0  0  0  0  0  0  0  0999 V2000
    6.6160    1.0820   -1.8070 C   0  0  0  0  0  0  0  0  0  0  0  0
    6.5510    1.3620   -0.5270 C   0  0  0  0  0  0  0  0  0  0  0  0
    5.5380    1.0560    0.4170 C   0  0  0  0  0  0  0  0  0  0  0  0
    5.5690    1.3840    1.6810 C   0  0  0  0  0  0  0  0  0  0  0  0
    6.6170    2.1020    2.3380 C   0  0  0  0  0  0  0  0  0  0  0  0
    7.6500    2.5270    1.8340 O   0  0  0  0  0  0  0  0  0  0  0  0
    4.3220    0.3070    0.0000 C   0  0  0  0  0  0  0  0  0  0  0  0
    4.2330   -0.0320   -1.1840 O   0  0  0  0  0  0  0  0  0  0  0  0
    3.3390    0.0050    0.8930 O   0  0  0  0  0  0  0  0  0  0  0  0
    2.1580   -0.6900    0.5560 C   0  0  0  0  0  0  0  0  0  0  0  0
    1.2940    0.0830   -0.3470 C   0  0  1  0  0  0  0  0  0  0  0  0
    1.8360    0.3480   -1.6070 O   0  0  0  0  0  0  0  0  0  0  0  0
   -0.1490   -0.2360   -0.3940 C   0  0  0  0  0  0  0  0  0  0  0  0
   -0.5710   -1.5730   -0.8050 C   0  0  1  0  0  0  0  0  0  0  0  0
   -0.0320   -1.8990   -2.0710 F   0  0  0  0  0  0  0  0  0  0  0  0
   -0.5810   -2.6940    0.1390 C   0  0  0  0  0  0  0  0  0  0  0  0
    0.5330   -3.1330    0.7520 O   0  0  0  0  0  0  0  0  0  0  0  0
   -2.1170   -1.3850   -1.1780 C   0  0  0  0  0  0  0  0  0  0  0  0
   -2.8620   -1.0350   -0.2440 O   0  0  0  0  0  0  0  0  0  0  0  0
   -3.1780   -0.2120    0.6780 C   0  0  0  0  0  0  0  0  0  0  0  0
   -4.5070   -0.6700    1.3020 C   0  0  0  0  0  0  0  0  0  0  0  0
   -5.5210    0.1580    1.2420 C   0  0  0  0  0  0  0  0  0  0  0  0
   -6.6920   -0.2400    1.7890 F   0  0  0  0  0  0  0  0  0  0  0  0
   -5.3670    1.3880    0.6350 O   0  0  0  0  0  0  0  0  0  0  0  0
   -6.3590    1.8670   -0.2270 C   0  0  0  0  0  0  0  0  0  0  0  0
   -6.6160    0.9890   -1.4140 C   0  0  0  0  0  0  0  0  0  0  0  0
  1  2  2  0
  2  3  1  0
  3  4  2  3
  3  7  1  0
  4  5  1  0
  5  6  2  0
  7  8  2  0
  7  9  1  0
  9 10  1  0
 10 11  1  0
 11 12  1  6
 11 13  1  0
 13 14  1  0
 14 15  1  6
 14 16  1  0
 14 18  1  0
 16 17  1  0
 18 19  1  0
 19 20  1  0
 20 21  1  0
 21 22  2  3
 22 23  1  0
 22 24  1  0
 24 25  1  0
 25 26  1  0
M  END
