
     RDKit          3D

 27 28  0  0  0  0  0  0  0  0999 V2000
    2.7500   -0.3000    1.7830 O   0  0  0  0  0  0  0  0  0  0  0  0
    2.6480   -0.7090    0.6040 C   0  0  0  0  0  0  0  0  0  0  0  0
    3.6870   -1.4330    0.0580 O   0  0  0  0  0  0  0  0  0  0  0  0
    4.8020   -1.7190    0.7320 O   0  0  0  0  0  0  0  0  0  0  0  0
    6.1240   -1.6500   -0.4170 P   0  0  0  0  0  0  0  0  0  0  0  0
    7.3740   -0.6960    0.3200 O   0  0  0  0  0  0  0  0  0  0  0  0
    7.3340   -0.9320    1.6130 O   0  0  0  0  0  0  0  0  0  0  0  0
    1.4240   -0.4070   -0.1690 C   0  0  0  0  0  0  0  0  0  0  0  0
    1.4140   -0.8580   -1.3400 O   0  0  0  0  0  0  0  0  0  0  0  0
    0.3390    0.3590    0.4250 C   0  0  0  0  0  0  0  0  0  0  0  0
    0.4970    0.7280    1.6380 O   0  0  0  0  0  0  0  0  0  0  0  0
   -0.8690    0.6890   -0.3160 C   0  0  2  0  0  0  0  0  0  0  0  0
   -0.6620    1.4890   -1.5470 C   0  0  0  0  0  0  0  0  0  0  0  0
    0.1000    1.0540   -2.4320 O   0  0  0  0  0  0  0  0  0  0  0  0
   -1.2840    2.7140   -1.7630 O   0  0  0  0  0  0  0  0  0  0  0  0
   -1.7780    1.3550    0.5360 O   0  0  0  0  0  0  0  0  0  0  0  0
   -2.8920    1.7640   -0.0630 N   0  0  0  0  0  0  0  0  0  0  0  0
   -3.3660    2.8920    0.6540 N   0  0  0  0  0  0  0  0  0  0  0  0
   -4.5370    3.3210    0.1390 O   0  0  0  0  0  0  0  0  0  0  0  0
   -5.5780    2.7270    0.6700 O   0  0  0  0  0  0  0  0  0  0  0  0
   -3.9390    0.8210    0.0710 O   0  0  0  0  0  0  0  0  0  0  0  0
   -3.6360   -0.5170    0.0530 C   0  0  0  0  0  0  0  0  0  0  0  0
   -4.0890   -2.1260    0.4230 P   0  0  0  0  0  0  0  0  0  0  0  0
   -2.7150   -3.1690   -0.1290 N   0  0  0  0  0  0  0  0  0  0  0  0
   -1.7810   -2.5610   -0.6320 C   0  0  0  0  0  0  0  0  0  0  0  0
   -0.6580   -3.1450   -1.1080 O   0  0  0  0  0  0  0  0  0  0  0  0
   -1.9260   -0.8950   -0.7250 P   0  0  0  0  0  0  0  0  0  0  0  0
  1  2  2  0
  2  3  1  0
  2  8  1  0
  3  4  1  0
  4  5  1  0
  5  6  1  0
  6  7  1  0
  8  9  2  0
  8 10  1  0
 10 11  2  0
 12 10  1  1
 12 13  1  0
 12 16  1  0
 12 27  1  0
 13 14  2  0
 13 15  1  0
 16 17  1  0
 17 18  1  0
 17 21  1  0
 18 19  1  0
 19 20  1  0
 21 22  1  0
 22 23  2  0
 22 27  1  0
 23 24  1  0
 24 25  1  0
 25 26  2  0
 25 27  1  0
M  END
