
     RDKit          3D

 26 25  0  0  0  0  0  0  0  0999 V2000
   10.3620    0.1140    0.3650 C   0  0  0  0  0  0  0  0  0  0  0  0
    8.9440    0.1380    0.3690 O   0  0  0  0  0  0  0  0  0  0  0  0
    8.1750   -0.3450   -0.6760 C   0  0  0  0  0  0  0  0  0  0  0  0
    8.7900   -0.8220   -1.6620 O   0  0  0  0  0  0  0  0  0  0  0  0
    6.7240   -0.3010   -0.6330 C   0  0  0  0  0  0  0  0  0  0  0  0
    6.0850    0.1990    0.3990 C   0  0  0  0  0  0  0  0  0  0  0  0
    4.6350    0.2190    0.3940 C   0  0  0  0  0  0  0  0  0  0  0  0
    4.0570    0.7050    1.3980 O   0  0  0  0  0  0  0  0  0  0  0  0
    3.8850   -0.2540   -0.6300 O   0  0  0  0  0  0  0  0  0  0  0  0
    2.4640   -0.2910   -0.7380 C   0  0  0  0  0  0  0  0  0  0  0  0
    1.8150   -1.1480    0.2830 C   0  0  1  0  0  0  0  0  0  0  0  0
    2.0120   -0.6940    1.5810 F   0  0  0  0  0  0  0  0  0  0  0  0
    0.4920   -1.7240    0.0820 C   0  0  0  0  0  0  0  0  0  0  0  0
   -0.6480   -0.8210   -0.1400 C   0  0  0  0  0  0  0  0  0  0  0  0
   -0.6220   -0.0510   -1.3940 C   0  0  0  0  0  0  0  0  0  0  0  0
   -1.8810    0.8200   -1.4860 C   0  0  0  0  0  0  0  0  0  0  0  0
   -3.1260   -0.0040   -1.4870 C   0  0  0  0  0  0  0  0  0  0  0  0
   -4.2650    0.7990   -1.5910 O   0  0  0  0  0  0  0  0  0  0  0  0
   -4.4100    1.7010   -0.5680 C   0  0  0  0  0  0  0  0  0  0  0  0
   -4.5230    1.0960    0.7960 C   0  0  1  0  0  0  0  0  0  0  0  0
   -4.6640    2.1250    1.7040 F   0  0  0  0  0  0  0  0  0  0  0  0
   -5.6940    0.1550    0.9140 C   0  0  0  0  0  0  0  0  0  0  0  0
   -6.9720    0.8990    0.6370 C   0  0  0  0  0  0  0  0  0  0  0  0
   -8.1050   -0.0780    0.7780 C   0  0  0  0  0  0  0  0  0  0  0  0
   -9.2750    0.2870    0.5990 O   0  0  0  0  0  0  0  0  0  0  0  0
   -7.8770   -1.4060    1.1100 O   0  0  0  0  0  0  0  0  0  0  0  0
  1  2  1  0
  2  3  1  0
  3  4  2  0
  3  5  1  0
  5  6  2  3
  6  7  1  0
  7  8  2  0
  7  9  1  0
  9 10  1  0
 10 11  1  0
 11 12  1  1
 11 13  1  0
 13 14  1  0
 14 15  1  0
 15 16  1  0
 16 17  1  0
 17 18  1  0
 18 19  1  0
 19 20  1  0
 20 21  1  1
 20 22  1  0
 22 23  1  0
 23 24  1  0
 24 25  2  0
 24 26  1  0
M  END
