
     RDKit          3D

 28 30  0  0  0  0  0  0  0  0999 V2000
    6.0080    1.0440    0.3210 N   0  0  0  0  0  0  0  0  0  0  0  0
    4.7720    0.6420   -0.1400 N   0  0  0  0  0  0  0  0  0  0  0  0
    4.2460   -0.9320    0.5750 P   0  0  0  0  0  0  0  0  0  0  0  0
    3.0100   -0.5320    1.7580 O   0  0  0  0  0  0  0  0  0  0  0  0
    2.0060    0.0220    1.0860 N   0  0  0  0  0  0  0  0  0  0  0  0
    0.8230   -0.7720    0.9900 C   0  0  0  0  0  0  0  0  0  0  0  0
   -0.3250    0.1490    0.6180 C   0  0  2  0  0  0  0  0  0  0  0  0
   -0.8400    0.7350    1.9290 C   0  0  0  0  0  0  0  0  0  0  0  0
   -2.2000    0.8100    1.7550 O   0  0  0  0  0  0  0  0  0  0  0  0
   -2.5300    0.2170    0.5640 C   0  0  2  0  0  0  0  0  0  0  0  0
   -2.8970    1.2350   -0.4260 C   0  0  0  0  0  0  0  0  0  0  0  0
   -3.2460    0.9510   -1.6160 O   0  0  0  0  0  0  0  0  0  0  0  0
   -2.8760    2.5680   -0.0950 O   0  0  0  0  0  0  0  0  0  0  0  0
   -3.2930    3.8680   -1.1910 P   0  0  0  0  0  0  0  0  0  0  0  0
   -4.0010   -0.8770    0.8440 P   0  0  0  0  0  0  0  0  0  0  0  0
   -4.4990   -1.6270   -0.6730 O   0  0  0  0  0  0  0  0  0  0  0  0
   -4.5020   -2.9680   -0.2150 C   0  0  0  0  0  0  0  0  0  0  0  0
   -3.3700   -3.1400    0.5450 O   0  0  0  0  0  0  0  0  0  0  0  0
   -3.5030   -2.3740    1.6330 O   0  0  0  0  0  0  0  0  0  0  0  0
   -1.4250   -0.5190    0.1430 O   0  0  0  0  0  0  0  0  0  0  0  0
    0.0930    1.2000   -0.1760 O   0  0  0  0  0  0  0  0  0  0  0  0
    0.4210    0.8630   -1.3830 O   0  0  0  0  0  0  0  0  0  0  0  0
    1.2340   -0.1440   -1.4720 O   0  0  0  0  0  0  0  0  0  0  0  0
    2.0320    0.0380   -2.5270 O   0  0  0  0  0  0  0  0  0  0  0  0
    3.0660   -0.8080   -2.8740 C   0  0  0  0  0  0  0  0  0  0  0  0
    3.3530   -1.0560   -4.0720 O   0  0  0  0  0  0  0  0  0  0  0  0
    3.8390   -1.4240   -1.9030 O   0  0  0  0  0  0  0  0  0  0  0  0
    3.4020   -1.7850   -0.7070 O   0  0  0  0  0  0  0  0  0  0  0  0
  1  2  1  0
  2  3  1  0
  3  4  1  0
  3 28  1  0
  4  5  1  0
  5  6  1  0
  7  6  1  1
  7  8  1  0
  7 20  1  0
  7 21  1  0
  8  9  1  0
  9 10  1  0
 10 11  1  0
 10 15  1  1
 10 20  1  0
 11 12  2  0
 11 13  1  0
 13 14  1  0
 15 16  1  0
 15 19  1  0
 16 17  1  0
 17 18  1  0
 18 19  1  0
 21 22  1  0
 22 23  1  0
 23 24  1  0
 24 25  1  0
 25 26  2  0
 25 27  1  0
 27 28  1  0
M  END
