
     RDKit          3D

 27 28  0  0  0  0  0  0  0  0999 V2000
   -0.8660   -4.5260   -2.8980 C   0  0  0  0  0  0  0  0  0  0  0  0
    0.2470   -3.4990   -2.7280 C   0  0  0  0  0  0  0  0  0  0  0  0
   -0.2000   -2.3730   -1.8600 C   0  0  0  0  0  0  0  0  0  0  0  0
   -0.2380   -1.1380   -2.2520 C   0  0  0  0  0  0  0  0  0  0  0  0
   -0.6810   -0.0500   -1.3850 C   0  0  0  0  0  0  0  0  0  0  0  0
   -0.7000    1.2180   -1.8340 C   0  0  0  0  0  0  0  0  0  0  0  0
   -0.2500    1.3740   -3.2040 N   0  0  0  0  0  0  0  0  0  0  0  0
   -1.1290    2.3810   -1.1820 N   0  0  0  0  0  0  0  0  0  0  0  0
   -0.7560    2.9720    0.0570 C   0  0  0  0  0  0  0  0  0  0  0  0
   -1.6120    3.4610    0.9450 C   0  0  0  0  0  0  0  0  0  0  0  0
   -0.8650    3.9850    2.0860 C   0  0  0  0  0  0  0  0  0  0  0  0
    0.5370    3.7510    1.7490 C   0  0  0  0  0  0  0  0  0  0  0  0
    0.5940    3.1580    0.5680 C   0  0  0  0  0  0  0  0  0  0  0  0
    1.8340    2.7420   -0.1190 C   0  0  0  0  0  0  0  0  0  0  0  0
    2.7880    3.6230   -0.1160 O   0  0  0  0  0  0  0  0  0  0  0  0
    2.0760    1.5110   -0.7620 N   0  0  0  0  0  0  0  0  0  0  0  0
    2.0310    0.2100   -0.3020 N   0  0  0  0  0  0  0  0  0  0  0  0
    1.7030   -0.2640    0.9890 C   0  0  0  0  0  0  0  0  0  0  0  0
    2.5520   -1.1120    1.5040 O   0  0  0  0  0  0  0  0  0  0  0  0
    0.5410    0.0620    1.8330 C   0  0  2  0  0  0  0  0  0  0  0  0
    0.4040   -0.9590    2.9140 C   0  0  0  0  0  0  0  0  0  0  0  0
    1.4380   -1.1460    3.6090 O   0  0  0  0  0  0  0  0  0  0  0  0
   -0.7020   -1.6770    3.2000 O   0  0  0  0  0  0  0  0  0  0  0  0
   -0.6730   -2.6110    4.2610 C   0  0  0  0  0  0  0  0  0  0  0  0
   -0.5830    0.2480    1.0830 O   0  0  0  0  0  0  0  0  0  0  0  0
   -1.0990   -0.3700   -0.0250 C   0  0  0  0  0  0  0  0  0  0  0  0
   -2.0100   -1.2900    0.0690 O   0  0  0  0  0  0  0  0  0  0  0  0
  1  2  1  0
  2  3  1  0
  3  4  2  3
  4  5  1  0
  5  6  2  0
  5 26  1  0
  6  7  1  0
  6  8  1  0
  8  9  1  0
  9 10  2  0
  9 13  1  0
 10 11  1  0
 11 12  1  0
 12 13  2  0
 13 14  1  0
 14 15  2  0
 14 16  1  0
 16 17  1  0
 17 18  1  0
 18 19  2  0
 18 20  1  0
 20 21  1  1
 20 25  1  0
 21 22  2  0
 21 23  1  0
 23 24  1  0
 25 26  1  0
 26 27  2  0
M  END
