
     RDKit          3D

 27 29  0  0  0  0  0  0  0  0999 V2000
   -5.8530    0.6100    1.7310 C   0  0  0  0  0  0  0  0  0  0  0  0
   -4.8240    1.5160    1.1990 C   0  0  0  0  0  0  0  0  0  0  0  0
   -3.9080    1.2900    0.2990 C   0  0  0  0  0  0  0  0  0  0  0  0
   -3.0180    2.3250   -0.0550 O   0  0  0  0  0  0  0  0  0  0  0  0
   -1.6610    1.9130   -0.3930 C   0  0  1  0  0  0  0  0  0  0  0  0
   -1.0850    1.2030    0.7690 C   0  0  0  0  0  0  0  0  0  0  0  0
    0.2500    0.7610    0.7870 N   0  0  0  0  0  0  0  0  0  0  0  0
    0.8730   -0.2230    0.0260 C   0  0  0  0  0  0  0  0  0  0  0  0
    0.2840   -0.8990   -0.8080 O   0  0  0  0  0  0  0  0  0  0  0  0
    2.3310   -0.4690    0.2370 C   0  0  1  0  0  0  0  0  0  0  0  0
    2.5620   -0.8580    1.6650 C   0  0  0  0  0  0  0  0  0  0  0  0
    2.7740   -1.5980   -0.5980 N   0  0  0  0  0  0  0  0  0  0  0  0
    4.1780   -1.7120   -0.7880 C   0  0  0  0  0  0  0  0  0  0  0  0
    4.6750   -2.8860   -0.8910 O   0  0  0  0  0  0  0  0  0  0  0  0
    5.0490   -0.5110   -0.8660 C   0  0  2  0  0  0  0  0  0  0  0  0
    5.9480   -0.3950    0.3510 C   0  0  0  0  0  0  0  0  0  0  0  0
    6.7620    0.7240    0.2370 O   0  0  0  0  0  0  0  0  0  0  0  0
    4.2410    0.6700   -0.9420 N   0  0  0  0  0  0  0  0  0  0  0  0
    3.0570    0.7570   -0.1820 C   0  0  0  0  0  0  0  0  0  0  0  0
    2.5920    1.8980    0.1560 O   0  0  0  0  0  0  0  0  0  0  0  0
   -1.8380    1.1210   -1.6340 C   0  0  0  0  0  0  0  0  0  0  0  0
   -2.6450   -0.0510   -1.3860 N   0  0  0  0  0  0  0  0  0  0  0  0
   -2.6550   -1.3640   -1.9400 C   0  0  0  0  0  0  0  0  0  0  0  0
   -1.8560   -1.7500   -2.8320 O   0  0  0  0  0  0  0  0  0  0  0  0
   -3.7310   -2.1090   -1.2840 C   0  0  0  0  0  0  0  0  0  0  0  0
   -4.3220   -1.1180   -0.3520 C   0  0  0  0  0  0  0  0  0  0  0  0
   -3.7000    0.0360   -0.4110 C   0  0  0  0  0  0  0  0  0  0  0  0
  1  2  1  0
  2  3  2  3
  3  4  1  0
  3 27  1  0
  4  5  1  0
  5  6  1  1
  5 21  1  0
  6  7  1  0
  7  8  1  0
  8  9  2  0
  8 10  1  0
 10 11  1  1
 10 12  1  0
 10 19  1  0
 12 13  1  0
 13 14  2  0
 13 15  1  0
 15 16  1  1
 15 18  1  0
 16 17  1  0
 18 19  1  0
 19 20  2  0
 21 22  1  0
 22 23  1  0
 22 27  1  0
 23 24  2  0
 23 25  1  0
 25 26  1  0
 26 27  2  0
M  END
