
     RDKit          3D

 27 29  0  0  0  0  0  0  0  0999 V2000
   -5.2660   -0.4550   -1.5630 C   0  0  0  0  0  0  0  0  0  0  0  0
   -5.5960   -0.1800   -0.3090 C   0  0  0  0  0  0  0  0  0  0  0  0
   -6.9430   -0.2850    0.1130 N   0  0  0  0  0  0  0  0  0  0  0  0
   -7.2880    0.0110    1.4540 C   0  0  0  0  0  0  0  0  0  0  0  0
   -6.3240    0.3870    2.2980 C   0  0  0  0  0  0  0  0  0  0  0  0
   -6.6600    0.6830    3.6330 O   0  0  0  0  0  0  0  0  0  0  0  0
   -4.9330    0.5030    1.8900 C   0  0  0  0  0  0  0  0  0  0  0  0
   -4.5810    0.2340    0.6490 C   0  0  0  0  0  0  0  0  0  0  0  0
   -3.2550    0.3530    0.2930 O   0  0  0  0  0  0  0  0  0  0  0  0
   -2.6990    1.4480   -0.3660 C   0  0  0  0  0  0  0  0  0  0  0  0
   -1.2530    1.2110   -0.5740 C   0  0  0  0  0  0  0  0  0  0  0  0
   -0.5440    2.0680   -1.1520 O   0  0  0  0  0  0  0  0  0  0  0  0
   -0.6670    0.0160   -0.1200 N   0  0  0  0  0  0  0  0  0  0  0  0
    0.7770   -0.1250   -0.3750 C   0  0  0  0  0  0  0  0  0  0  0  0
    1.5010   -0.2550    0.6740 C   0  0  0  0  0  0  0  0  0  0  0  0
    2.9610   -0.4160    0.7780 C   0  0  0  0  0  0  0  0  0  0  0  0
    3.5600   -0.5400    1.9590 N   0  0  0  0  0  0  0  0  0  0  0  0
    4.9540   -0.6780    1.7870 C   0  0  0  0  0  0  0  0  0  0  0  0
    5.7930   -1.1150    2.5940 O   0  0  0  0  0  0  0  0  0  0  0  0
    5.1930   -0.1770    0.4080 C   0  0  1  0  0  0  0  0  0  0  0  0
    6.3370   -0.9000   -0.2590 C   0  0  1  0  0  0  0  0  0  0  0  0
    6.6840   -0.4880   -1.6620 C   0  0  0  0  0  0  0  0  0  0  0  0
    7.5190    0.0110   -0.5550 C   0  0  0  0  0  0  0  0  0  0  0  0
    3.9440   -0.4720   -0.1710 O   0  0  0  0  0  0  0  0  0  0  0  0
    1.1170   -0.0930   -1.7630 C   0  0  0  0  0  0  0  0  0  0  0  0
    2.4270   -0.2050   -2.2660 N   0  0  0  0  0  0  0  0  0  0  0  0
    0.1930    0.0480   -2.6620 O   0  0  0  0  0  0  0  0  0  0  0  0
  1  2  2  0
  2  3  1  0
  2  8  1  0
  3  4  1  0
  4  5  2  0
  5  6  1  0
  5  7  1  0
  7  8  2  0
  8  9  1  0
  9 10  1  0
 10 11  1  0
 11 12  2  0
 11 13  1  0
 13 14  1  0
 14 15  2  3
 14 25  1  0
 15 16  1  0
 16 17  2  0
 16 24  1  0
 17 18  1  0
 18 19  2  0
 18 20  1  0
 20 21  1  0
 20 24  1  6
 21 22  1  6
 21 23  1  0
 22 23  1  0
 25 26  1  0
 25 27  2  0
M  END
