
     RDKit          3D

 27 28  0  0  0  0  0  0  0  0999 V2000
   -6.6900    0.2120    0.8150 C   0  0  0  0  0  0  0  0  0  0  0  0
   -5.7590   -0.7060    0.6580 C   0  0  0  0  0  0  0  0  0  0  0  0
   -6.1110   -2.1080    0.3870 C   0  0  0  0  0  0  0  0  0  0  0  0
   -5.2190   -3.0130    0.2400 N   0  0  0  0  0  0  0  0  0  0  0  0
   -4.3440   -0.3300    0.7430 C   0  0  1  0  0  0  0  0  0  0  0  0
   -3.7500   -1.2050    1.6830 O   0  0  0  0  0  0  0  0  0  0  0  0
   -3.6350   -0.5320   -0.5580 C   0  0  2  0  0  0  0  0  0  0  0  0
   -2.1230   -0.3820   -0.4070 C   0  0  0  0  0  0  0  0  0  0  0  0
   -1.7740    0.9980   -0.4700 N   0  0  0  0  0  0  0  0  0  0  0  0
   -0.4080    1.3600   -0.3140 C   0  0  0  0  0  0  0  0  0  0  0  0
   -0.0380    2.5730   -0.3590 O   0  0  0  0  0  0  0  0  0  0  0  0
    0.6430    0.3770   -0.0950 C   0  0  0  0  0  0  0  0  0  0  0  0
    0.3380   -0.8580   -0.0410 O   0  0  0  0  0  0  0  0  0  0  0  0
    1.9970    0.7070    0.0650 N   0  0  0  0  0  0  0  0  0  0  0  0
    3.0320   -0.3040    0.2840 C   0  0  1  0  0  0  0  0  0  0  0  0
    3.9930   -0.3440   -0.8070 C   0  0  0  0  0  0  0  0  0  0  0  0
    5.2880   -0.2640   -0.6210 C   0  0  0  0  0  0  0  0  0  0  0  0
    6.0870   -0.3200   -1.8050 N   0  0  0  0  0  0  0  0  0  0  0  0
    5.9240   -0.1250    0.6870 C   0  0  0  0  0  0  0  0  0  0  0  0
    7.2780   -0.0460    0.8160 O   0  0  0  0  0  0  0  0  0  0  0  0
    8.2250    0.1050   -0.1910 C   0  0  0  0  0  0  0  0  0  0  0  0
    5.0960   -0.0810    1.7380 C   0  0  0  0  0  0  0  0  0  0  0  0
    3.6630   -0.1650    1.5930 C   0  0  0  0  0  0  0  0  0  0  0  0
    2.9680   -0.1120    2.6720 O   0  0  0  0  0  0  0  0  0  0  0  0
   -2.7300    2.0350   -0.6840 C   0  0  0  0  0  0  0  0  0  0  0  0
   -3.9830    1.6130   -1.3650 C   0  0  0  0  0  0  0  0  0  0  0  0
   -4.1210    0.2670   -1.5780 O   0  0  0  0  0  0  0  0  0  0  0  0
  1  2  2  0
  2  3  1  0
  2  5  1  0
  3  4  2  0
  5  6  1  1
  5  7  1  0
  7  8  1  1
  7 27  1  0
  8  9  1  0
  9 10  1  0
  9 25  1  0
 10 11  2  0
 10 12  1  0
 12 13  2  0
 12 14  1  0
 15 14  1  6
 15 16  1  0
 15 23  1  0
 16 17  2  0
 17 18  1  0
 17 19  1  0
 19 20  1  0
 19 22  2  0
 20 21  1  0
 22 23  1  0
 23 24  2  0
 25 26  1  0
 26 27  1  0
M  END
