
     RDKit          3D

 27 29  0  0  0  0  0  0  0  0999 V2000
    5.3410   -3.1330    2.5230 C   0  0  0  0  0  0  0  0  0  0  0  0
    5.1460   -1.7220    2.7460 O   0  0  0  0  0  0  0  0  0  0  0  0
    4.2830   -1.0630    1.9040 C   0  0  0  0  0  0  0  0  0  0  0  0
    3.0080   -1.1040    2.1880 C   0  0  0  0  0  0  0  0  0  0  0  0
    2.0880   -0.4280    1.3270 C   0  0  0  0  0  0  0  0  0  0  0  0
    2.5290    0.2350    0.2500 C   0  0  0  0  0  0  0  0  0  0  0  0
    1.6190    0.8800   -0.5690 C   0  0  0  0  0  0  0  0  0  0  0  0
    2.1280    1.5340   -1.6410 O   0  0  0  0  0  0  0  0  0  0  0  0
    0.3250    1.0410   -0.5970 N   0  0  0  0  0  0  0  0  0  0  0  0
   -1.0060    1.2190   -0.6460 C   0  0  0  0  0  0  0  0  0  0  0  0
   -1.2880    1.9170   -1.7130 O   0  0  0  0  0  0  0  0  0  0  0  0
   -2.0270    0.8430    0.1400 N   0  0  0  0  0  0  0  0  0  0  0  0
   -3.3670    1.1890   -0.1700 C   0  0  2  0  0  0  0  0  0  0  0  0
   -4.3660    1.4740    0.8310 C   0  0  0  0  0  0  0  0  0  0  0  0
   -4.3940    0.1480    0.0400 C   0  0  1  0  0  0  0  0  0  0  0  0
   -5.5550   -0.0310   -0.8670 C   0  0  1  0  0  0  0  0  0  0  0  0
   -6.4290   -1.2380   -0.4630 C   0  0  0  0  0  0  0  0  0  0  0  0
   -7.7250   -0.8440   -1.1330 C   0  0  0  0  0  0  0  0  0  0  0  0
   -7.7850    0.5160   -1.1390 O   0  0  0  0  0  0  0  0  0  0  0  0
   -6.5970    1.0510   -0.6460 C   0  0  0  0  0  0  0  0  0  0  0  0
    3.8720    0.2900   -0.0660 O   0  0  0  0  0  0  0  0  0  0  0  0
    4.7820   -0.3350    0.7190 C   0  0  0  0  0  0  0  0  0  0  0  0
    6.0680   -0.3330    0.4930 C   0  0  0  0  0  0  0  0  0  0  0  0
    6.7950    0.2610   -0.5280 N   0  0  0  0  0  0  0  0  0  0  0  0
    6.3490    1.0290   -1.6100 C   0  0  0  0  0  0  0  0  0  0  0  0
    7.3020    1.5510   -2.5620 N   0  0  0  0  0  0  0  0  0  0  0  0
    5.1650    1.2930   -1.8030 O   0  0  0  0  0  0  0  0  0  0  0  0
  1  2  1  0
  2  3  1  0
  3  4  2  0
  3 22  1  0
  4  5  1  0
  5  6  2  0
  6  7  1  0
  6 21  1  0
  7  8  2  0
  7  9  1  0
  9 10  1  0
 10 11  2  0
 10 12  1  0
 13 12  1  1
 13 14  1  0
 13 15  1  0
 15 14  1  1
 15 16  1  0
 16 17  1  1
 16 20  1  0
 17 18  1  0
 18 19  1  0
 19 20  1  0
 21 22  1  0
 22 23  2  3
 23 24  1  0
 24 25  1  0
 25 26  1  0
 25 27  2  0
M  END
