
     RDKit          3D

 27 29  0  0  0  0  0  0  0  0999 V2000
    6.3720   -1.6370    2.1410 C   0  0  0  0  0  0  0  0  0  0  0  0
    5.7160   -0.8400    1.1730 O   0  0  0  0  0  0  0  0  0  0  0  0
    6.3370   -0.1130    0.1990 C   0  0  0  0  0  0  0  0  0  0  0  0
    7.6400   -0.2380    0.2610 O   0  0  0  0  0  0  0  0  0  0  0  0
    5.8390    0.7190   -0.8340 C   0  0  0  0  0  0  0  0  0  0  0  0
    4.6790    1.1220   -1.2300 C   0  0  0  0  0  0  0  0  0  0  0  0
    4.5480    2.0460   -2.4440 C   0  0  0  0  0  0  0  0  0  0  0  0
    3.5920    1.4190   -3.3200 O   0  0  0  0  0  0  0  0  0  0  0  0
    2.3260    1.0990   -2.8060 C   0  0  0  0  0  0  0  0  0  0  0  0
    1.2790    1.0750   -3.4910 O   0  0  0  0  0  0  0  0  0  0  0  0
    2.2400    0.7810   -1.4000 C   0  0  0  0  0  0  0  0  0  0  0  0
    3.3910    0.7990   -0.6380 C   0  0  0  0  0  0  0  0  0  0  0  0
    3.0370    0.5040    0.5960 N   0  0  0  0  0  0  0  0  0  0  0  0
    1.6860    0.2860    0.6780 C   0  0  0  0  0  0  0  0  0  0  0  0
    0.9970   -0.0660    1.9320 C   0  0  0  0  0  0  0  0  0  0  0  0
    1.1520    0.4510   -0.5580 C   0  0  0  0  0  0  0  0  0  0  0  0
   -0.2030    0.3470   -1.0710 C   0  0  0  0  0  0  0  0  0  0  0  0
   -1.2460    0.0110   -0.1840 N   0  0  0  0  0  0  0  0  0  0  0  0
   -2.5920   -0.0860   -0.7330 C   0  0  0  0  0  0  0  0  0  0  0  0
   -2.7540    0.1290   -1.9410 O   0  0  0  0  0  0  0  0  0  0  0  0
   -3.6760   -0.4160    0.0950 N   0  0  0  0  0  0  0  0  0  0  0  0
   -5.0280   -0.5220   -0.4130 C   0  0  1  0  0  0  0  0  0  0  0  0
   -5.6560   -1.8580   -0.1030 C   0  0  0  0  0  0  0  0  0  0  0  0
   -6.9560   -1.6030    0.3030 O   0  0  0  0  0  0  0  0  0  0  0  0
   -6.9690   -0.3730    0.9220 C   0  0  1  0  0  0  0  0  0  0  0  0
   -6.7830   -0.4800    2.3650 N   0  0  0  0  0  0  0  0  0  0  0  0
   -5.9020    0.4630    0.2930 C   0  0  0  0  0  0  0  0  0  0  0  0
  1  2  1  0
  2  3  1  0
  3  4  2  0
  3  5  1  0
  5  6  2  3
  6  7  1  0
  6 12  1  0
  7  8  1  0
  8  9  1  0
  9 10  2  0
  9 11  1  0
 11 12  2  0
 11 16  1  0
 12 13  1  0
 13 14  1  0
 14 15  1  0
 14 16  2  0
 16 17  1  0
 17 18  1  0
 18 19  1  0
 19 20  2  0
 19 21  1  0
 22 21  1  1
 22 23  1  0
 22 27  1  0
 23 24  1  0
 24 25  1  0
 25 26  1  1
 25 27  1  0
M  END
