
     RDKit          3D

 19 20  0  0  0  0  0  0  0  0999 V2000
    5.8790    2.1070   -0.6220 N   0  0  0  0  0  0  0  0  0  0  0  0
    5.0510    0.9170   -0.5400 C   0  0  0  0  0  0  0  0  0  0  0  0
    5.7350   -0.1530   -0.5840 O   0  0  0  0  0  0  0  0  0  0  0  0
    3.6500    1.0370   -0.4220 C   0  0  0  0  0  0  0  0  0  0  0  0
    2.9010    1.9290   -0.4180 O   0  0  0  0  0  0  0  0  0  0  0  0
    2.9290   -0.5220   -0.2420 N   0  0  0  0  0  0  0  0  0  0  0  0
    1.5980   -0.0640   -0.1710 C   0  0  0  0  0  0  0  0  0  0  0  0
    1.0000    0.9610   -0.3020 O   0  0  0  0  0  0  0  0  0  0  0  0
    0.7410   -1.2680    0.1660 N   0  0  0  0  0  0  0  0  0  0  0  0
   -0.6230   -1.0730    0.1760 C   0  0  0  0  0  0  0  0  0  0  0  0
   -1.3090   -1.9340   -0.6220 C   0  0  0  0  0  0  0  0  0  0  0  0
   -2.7010   -1.8930   -0.7520 N   0  0  0  0  0  0  0  0  0  0  0  0
   -3.4280   -0.8870   -0.0060 C   0  0  0  0  0  0  0  0  0  0  0  0
   -4.7110   -0.8250   -0.1080 N   0  0  0  0  0  0  0  0  0  0  0  0
   -5.3980    0.1960    0.6510 C   0  0  0  0  0  0  0  0  0  0  0  0
   -4.7470    1.0250    1.4150 C   0  0  0  0  0  0  0  0  0  0  0  0
   -3.3650    0.9870    1.5500 O   0  0  0  0  0  0  0  0  0  0  0  0
   -2.6480    0.0070    0.8270 C   0  0  0  0  0  0  0  0  0  0  0  0
   -1.3340   -0.0640    0.9260 C   0  0  0  0  0  0  0  0  0  0  0  0
  1  2  1  0
  2  3  2  0
  2  4  1  0
  4  5  2  0
  4  6  1  0
  6  7  1  0
  7  8  2  0
  7  9  1  0
  9 10  1  0
 10 11  2  0
 10 19  1  0
 11 12  1  0
 12 13  1  0
 13 14  2  0
 13 18  1  0
 14 15  1  0
 15 16  2  0
 16 17  1  0
 17 18  1  0
 18 19  2  0
M  END
