
     RDKit          3D

 19 20  0  0  0  0  0  0  0  0999 V2000
   -1.7870   -2.7960   -1.6570 C   0  0  0  0  0  0  0  0  0  0  0  0
   -1.7050   -1.5940   -0.8450 N   0  0  0  0  0  0  0  0  0  0  0  0
   -2.9560   -0.9420   -0.6770 C   0  0  0  0  0  0  0  0  0  0  0  0
   -2.9490    0.2290    0.1290 N   0  0  0  0  0  0  0  0  0  0  0  0
   -1.9300    1.1730    0.4980 C   0  0  0  0  0  0  0  0  0  0  0  0
   -2.3970    2.5210    0.8880 C   0  0  1  0  0  0  0  0  0  0  0  0
   -1.5130    3.5850    1.2850 C   0  0  0  0  0  0  0  0  0  0  0  0
   -1.8380    3.5200   -0.0630 O   0  0  0  0  0  0  0  0  0  0  0  0
   -0.6820    0.9240    0.5100 N   0  0  0  0  0  0  0  0  0  0  0  0
    0.0650   -0.2280    0.2020 C   0  0  0  0  0  0  0  0  0  0  0  0
    1.4930   -0.2380    0.5650 C   0  0  0  0  0  0  0  0  0  0  0  0
    2.1740   -1.2600    0.2970 O   0  0  0  0  0  0  0  0  0  0  0  0
    2.1140    0.8110    1.1790 O   0  0  0  0  0  0  0  0  0  0  0  0
    3.4870    0.7320    1.4980 C   0  0  0  0  0  0  0  0  0  0  0  0
    4.3360    0.5300    0.3100 C   0  0  0  0  0  0  0  0  0  0  0  0
    3.8520    0.4240   -1.0170 N   0  0  0  0  0  0  0  0  0  0  0  0
    5.5780    0.4480    0.4930 O   0  0  0  0  0  0  0  0  0  0  0  0
   -0.3840   -1.3220   -0.3870 C   0  0  0  0  0  0  0  0  0  0  0  0
    0.5870   -2.3690   -0.5920 N   0  0  0  0  0  0  0  0  0  0  0  0
  1  2  1  0
  2  3  1  0
  2 18  1  0
  3  4  1  0
  4  5  1  0
  6  5  1  6
  5  9  2  0
  6  7  1  0
  6  8  1  0
  7  8  1  0
  9 10  1  0
 10 11  1  0
 10 18  2  0
 11 12  2  0
 11 13  1  0
 13 14  1  0
 14 15  1  0
 15 16  1  0
 15 17  2  0
 18 19  1  0
M  END
