
     RDKit          3D

 19 21  0  0  0  0  0  0  0  0999 V2000
    5.2600   -0.0330    0.1320 N   0  0  0  0  0  0  0  0  0  0  0  0
    3.9500   -0.6100    0.1590 C   0  0  0  0  0  0  0  0  0  0  0  0
    3.7270   -1.9260    0.0460 N   0  0  0  0  0  0  0  0  0  0  0  0
    2.4570   -2.3880    0.0810 C   0  0  0  0  0  0  0  0  0  0  0  0
    1.3950   -1.5690    0.2270 N   0  0  0  0  0  0  0  0  0  0  0  0
    1.5960   -0.2470    0.3410 C   0  0  0  0  0  0  0  0  0  0  0  0
    2.8810    0.2510    0.3090 C   0  0  0  0  0  0  0  0  0  0  0  0
    2.7930    1.5770    0.4420 N   0  0  0  0  0  0  0  0  0  0  0  0
    1.5060    1.8880    0.5520 C   0  0  0  0  0  0  0  0  0  0  0  0
    0.7360    0.7630    0.4930 N   0  0  0  0  0  0  0  0  0  0  0  0
   -0.6800    0.7810    0.5830 C   0  0  2  0  0  0  0  0  0  0  0  0
   -1.2490   -0.3970    1.0030 O   0  0  0  0  0  0  0  0  0  0  0  0
   -2.5980   -0.2740    0.7810 C   0  0  2  0  0  0  0  0  0  0  0  0
   -3.2570   -1.6080    0.4360 C   0  0  0  0  0  0  0  0  0  0  0  0
   -2.6840   -2.1420   -0.7260 O   0  0  0  0  0  0  0  0  0  0  0  0
   -2.7970    0.6820   -0.3690 C   0  0  1  0  0  0  0  0  0  0  0  0
   -3.3110    1.9190    0.0840 O   0  0  0  0  0  0  0  0  0  0  0  0
   -1.3600    0.9700   -0.7800 C   0  0  1  0  0  0  0  0  0  0  0  0
   -1.1850    2.2410   -1.2680 O   0  0  0  0  0  0  0  0  0  0  0  0
  1  2  1  0
  2  3  2  0
  2  7  1  0
  3  4  1  0
  4  5  2  0
  5  6  1  0
  6  7  2  0
  6 10  1  0
  7  8  1  0
  8  9  2  0
  9 10  1  0
 11 10  1  6
 11 12  1  0
 11 18  1  0
 12 13  1  0
 13 14  1  6
 13 16  1  0
 14 15  1  0
 16 17  1  1
 16 18  1  0
 18 19  1  1
M  END
