
     RDKit          3D

 33 36  0  0  0  0  0  0  0  0999 V2000
   -8.1780   -1.8380    0.4820 C   0  0  0  0  0  0  0  0  0  0  0  0
   -7.9990   -0.6450   -0.3980 C   0  0  0  0  0  0  0  0  0  0  0  0
   -8.9670   -0.2120   -1.2380 C   0  0  0  0  0  0  0  0  0  0  0  0
   -8.8280    0.8670   -2.0430 C   0  0  0  0  0  0  0  0  0  0  0  0
   -7.6790    1.5410   -2.0080 N   0  0  0  0  0  0  0  0  0  0  0  0
   -6.6770    1.1630   -1.1990 C   0  0  0  0  0  0  0  0  0  0  0  0
   -5.5900    1.8310   -1.1890 O   0  0  0  0  0  0  0  0  0  0  0  0
   -6.7710    0.0570   -0.3490 C   0  0  0  0  0  0  0  0  0  0  0  0
   -5.7330   -0.3790    0.5320 C   0  0  0  0  0  0  0  0  0  0  0  0
   -6.1280   -1.3120    1.3850 O   0  0  0  0  0  0  0  0  0  0  0  0
   -4.3980   -0.0380    0.6820 C   0  0  0  0  0  0  0  0  0  0  0  0
   -3.2450    0.8490   -0.4690 S   0  0  0  0  0  0  0  0  0  0  0  0
   -1.8240    0.7070    0.5100 C   0  0  0  0  0  0  0  0  0  0  0  0
   -0.4460    1.2340    0.3460 C   0  0  0  0  0  0  0  0  0  0  0  0
    0.3290    0.6410   -0.7780 C   0  0  0  0  0  0  0  0  0  0  0  0
    1.7620    1.1120   -0.6520 C   0  0  0  0  0  0  0  0  0  0  0  0
    2.1660    2.4040   -0.7450 C   0  0  0  0  0  0  0  0  0  0  0  0
    3.4490    2.7920   -0.6700 N   0  0  0  0  0  0  0  0  0  0  0  0
    4.4210    1.8600   -0.4940 C   0  0  0  0  0  0  0  0  0  0  0  0
    4.1250    0.5390   -0.3970 C   0  0  0  0  0  0  0  0  0  0  0  0
    5.0860   -0.5080   -0.2840 C   0  0  0  0  0  0  0  0  0  0  0  0
    4.5420   -1.7030   -0.1780 O   0  0  0  0  0  0  0  0  0  0  0  0
    6.4780   -0.5940   -0.2560 N   0  0  0  0  0  0  0  0  0  0  0  0
    7.1050   -1.9490   -0.0930 C   0  0  0  0  0  0  0  0  0  0  0  0
    8.3420   -1.8460    0.7350 C   0  0  0  0  0  0  0  0  0  0  0  0
    8.3570   -0.6020    1.5880 C   0  0  0  0  0  0  0  0  0  0  0  0
    8.4370    0.6500    0.7280 C   0  0  0  0  0  0  0  0  0  0  0  0
    7.4220    0.4520   -0.3740 C   0  0  0  0  0  0  0  0  0  0  0  0
    7.3860    1.1850   -1.3980 O   0  0  0  0  0  0  0  0  0  0  0  0
    2.7620    0.1600   -0.4780 C   0  0  0  0  0  0  0  0  0  0  0  0
   -2.3110    0.0470    1.5540 N   0  0  0  0  0  0  0  0  0  0  0  0
   -3.4930   -0.3210    1.6870 C   0  0  0  0  0  0  0  0  0  0  0  0
   -4.0070   -1.0240    2.9600 C   0  0  0  0  0  0  0  0  0  0  0  0
  1  2  1  0
  2  3  1  0
  2  8  2  0
  3  4  2  0
  4  5  1  0
  5  6  1  0
  6  7  2  0
  6  8  1  0
  8  9  1  0
  9 10  2  0
  9 11  1  0
 11 12  1  0
 11 32  2  0
 12 13  1  0
 13 14  1  0
 13 31  2  0
 14 15  1  0
 15 16  1  0
 16 17  2  0
 16 30  1  0
 17 18  1  0
 18 19  2  0
 19 20  1  0
 20 21  1  0
 20 30  2  0
 21 22  2  0
 21 23  1  0
 23 24  1  0
 23 28  1  0
 24 25  1  0
 25 26  1  0
 26 27  1  0
 27 28  1  0
 28 29  2  0
 31 32  1  0
 32 33  1  0
M  END
