
     RDKit          3D

 33 36  0  0  0  0  0  0  0  0999 V2000
   -6.3460   -3.0400   -1.4780 C   0  0  0  0  0  0  0  0  0  0  0  0
   -5.1540   -2.3620   -1.1430 O   0  0  0  0  0  0  0  0  0  0  0  0
   -4.4480   -2.6250    0.0280 C   0  0  0  0  0  0  0  0  0  0  0  0
   -4.8830   -3.5720    0.9310 C   0  0  0  0  0  0  0  0  0  0  0  0
   -4.1850   -3.8360    2.0940 C   0  0  0  0  0  0  0  0  0  0  0  0
   -3.0480   -3.1190    2.3110 C   0  0  0  0  0  0  0  0  0  0  0  0
   -2.6170   -2.1730    1.4050 C   0  0  0  0  0  0  0  0  0  0  0  0
   -3.2850   -1.8850    0.2390 C   0  0  0  0  0  0  0  0  0  0  0  0
   -2.8830   -0.9230   -0.7120 N   0  0  0  0  0  0  0  0  0  0  0  0
   -1.6900   -0.1640   -0.5810 C   0  0  0  0  0  0  0  0  0  0  0  0
   -0.5890   -0.7890   -0.2570 N   0  0  0  0  0  0  0  0  0  0  0  0
    0.6570   -0.1340   -0.1100 C   0  0  0  0  0  0  0  0  0  0  0  0
    2.1030   -1.1120    0.3460 S   0  0  0  0  0  0  0  0  0  0  0  0
    3.5240    0.0130    0.4570 C   0  0  0  0  0  0  0  0  0  0  0  0
    4.7590   -0.6890    0.8190 C   0  0  0  0  0  0  0  0  0  0  0  0
    4.7510   -1.9230    1.0110 O   0  0  0  0  0  0  0  0  0  0  0  0
    5.9550    0.0410    0.9480 N   0  0  0  0  0  0  0  0  0  0  0  0
    7.1760   -0.6130    1.2980 C   0  0  0  0  0  0  0  0  0  0  0  0
    8.3530    0.2790    1.4860 C   0  0  0  0  0  0  0  0  0  0  0  0
    8.3930    1.4160    0.7340 O   0  0  0  0  0  0  0  0  0  0  0  0
    7.3060    1.7010   -0.0410 C   0  0  1  0  0  0  0  0  0  0  0  0
    7.2040    0.9200   -1.3100 C   0  0  0  0  0  0  0  0  0  0  0  0
    6.0000    1.4780    0.7330 C   0  0  0  0  0  0  0  0  0  0  0  0
    0.7460    1.1340   -0.3020 N   0  0  0  0  0  0  0  0  0  0  0  0
   -0.3520    1.9580   -0.6600 C   0  0  0  0  0  0  0  0  0  0  0  0
   -0.2920    3.1700   -0.8510 O   0  0  0  0  0  0  0  0  0  0  0  0
   -1.6650    1.2610   -0.8090 C   0  0  0  0  0  0  0  0  0  0  0  0
   -2.7420    1.9560   -1.0170 C   0  0  0  0  0  0  0  0  0  0  0  0
   -4.1340    1.6500   -1.0770 C   0  0  0  0  0  0  0  0  0  0  0  0
   -4.9880    2.6710   -1.3480 C   0  0  0  0  0  0  0  0  0  0  0  0
   -4.4620    4.0380   -1.5680 C   0  0  0  0  0  0  0  0  0  0  0  0
   -6.4270    2.3760   -1.4140 C   0  0  0  0  0  0  0  0  0  0  0  0
   -3.4150   -4.1110    3.3550 C   0  0  0  0  0  0  0  0  0  0  0  0
  1  2  1  0
  2  3  1  0
  3  4  2  0
  3  8  1  0
  4  5  1  0
  5  6  2  0
  5 33  1  0
  6  7  1  0
  6 33  1  0
  7  8  2  0
  8  9  1  0
  9 10  1  0
 10 11  2  0
 10 27  1  0
 11 12  1  0
 12 13  1  0
 12 24  2  0
 13 14  1  0
 14 15  1  0
 15 16  2  0
 15 17  1  0
 17 18  1  0
 17 23  1  0
 18 19  1  0
 19 20  1  0
 20 21  1  0
 21 22  1  6
 21 23  1  0
 24 25  1  0
 25 26  2  0
 25 27  1  0
 27 28  2  3
 28 29  1  0
 29 30  2  3
 30 31  1  0
 30 32  1  0
M  END
