
     RDKit          3D

 33 35  0  0  0  0  0  0  0  0999 V2000
   -6.7200   -1.6210    1.4680 C   0  0  0  0  0  0  0  0  0  0  0  0
   -6.1710   -0.2080    1.0860 C   0  0  0  0  0  0  0  0  0  0  0  0
   -4.8030   -0.3000    1.1630 N   0  0  0  0  0  0  0  0  0  0  0  0
   -3.8520    0.4490    0.4120 C   0  0  1  0  0  0  0  0  0  0  0  0
   -2.6330   -0.4070    0.3150 C   0  0  1  0  0  0  0  0  0  0  0  0
   -1.4210    0.0440   -0.3780 C   0  0  0  0  0  0  0  0  0  0  0  0
   -0.5920   -1.2290   -0.7240 C   0  0  0  0  0  0  0  0  0  0  0  0
   -0.2750   -1.8890    0.5210 N   0  0  0  0  0  0  0  0  0  0  0  0
    1.0390   -2.1960    0.9560 C   0  0  0  0  0  0  0  0  0  0  0  0
    1.2790   -2.7720    2.0460 O   0  0  0  0  0  0  0  0  0  0  0  0
    2.1950   -1.8280    0.0980 C   0  0  0  0  0  0  0  0  0  0  0  0
    3.5100   -2.2310    0.7490 C   0  0  0  0  0  0  0  0  0  0  0  0
    4.5950   -1.8560   -0.1090 N   0  0  0  0  0  0  0  0  0  0  0  0
    5.0270   -2.7620   -1.0240 C   0  0  0  0  0  0  0  0  0  0  0  0
    4.4780   -3.9010   -1.1060 O   0  0  0  0  0  0  0  0  0  0  0  0
    6.0300   -2.4910   -1.8590 N   0  0  0  0  0  0  0  0  0  0  0  0
    6.6490   -1.3190   -1.8280 C   0  0  0  0  0  0  0  0  0  0  0  0
    7.6030   -1.0270   -2.6040 O   0  0  0  0  0  0  0  0  0  0  0  0
    6.2420   -0.3630   -0.9110 C   0  0  0  0  0  0  0  0  0  0  0  0
    6.8530    0.8400   -0.8590 N   0  0  0  0  0  0  0  0  0  0  0  0
    6.4510    1.7570    0.0290 C   0  0  0  0  0  0  0  0  0  0  0  0
    7.1670    3.0690    0.0390 C   0  0  0  0  0  0  0  0  0  0  0  0
    8.2870    2.9080    0.9800 N   0  0  0  0  0  0  0  0  0  0  0  0
    5.4160    1.4930    0.8990 C   0  0  0  0  0  0  0  0  0  0  0  0
    4.7790    0.2830    0.8690 C   0  0  0  0  0  0  0  0  0  0  0  0
    5.2090   -0.6550   -0.0580 C   0  0  0  0  0  0  0  0  0  0  0  0
   -1.3810   -2.2580    1.3760 C   0  0  0  0  0  0  0  0  0  0  0  0
   -2.1500   -0.9510    1.6580 C   0  0  0  0  0  0  0  0  0  0  0  0
   -4.4100    1.1590   -0.7280 C   0  0  2  0  0  0  0  0  0  0  0  0
   -5.4690    2.1510   -0.2010 C   0  0  0  0  0  0  0  0  0  0  0  0
   -5.1490    0.2360   -1.7180 C   0  0  0  0  0  0  0  0  0  0  0  0
   -3.5450    1.9990   -1.6130 C   0  0  0  0  0  0  0  0  0  0  0  0
   -2.8150    3.1130   -0.9360 C   0  0  0  0  0  0  0  0  0  0  0  0
  1  2  1  0
  2  3  1  0
  4  3  1  6
  4  5  1  0
  4 29  1  0
  5  6  1  1
  5 28  1  0
  6  7  1  0
  7  8  1  0
  8  9  1  0
  8 27  1  0
  9 10  2  0
  9 11  1  0
 11 12  1  0
 12 13  1  0
 13 14  1  0
 13 26  1  0
 14 15  2  0
 14 16  1  0
 16 17  1  0
 17 18  2  0
 17 19  1  0
 19 20  2  0
 19 26  1  0
 20 21  1  0
 21 22  1  0
 21 24  2  0
 22 23  1  0
 24 25  1  0
 25 26  2  0
 27 28  1  0
 29 30  1  1
 29 31  1  0
 29 32  1  0
 32 33  1  0
M  CHG  2   3   1  23   1
M  END
