
     RDKit          3D

 33 35  0  0  0  0  0  0  0  0999 V2000
    9.3130    2.0740   -0.3720 C   0  0  0  0  0  0  0  0  0  0  0  0
    9.2070    0.8600   -1.2380 C   0  0  0  0  0  0  0  0  0  0  0  0
    8.0700    0.0790   -0.8880 O   0  0  0  0  0  0  0  0  0  0  0  0
    7.8840   -0.4520    0.3590 C   0  0  0  0  0  0  0  0  0  0  0  0
    8.7630   -0.2350    1.2300 O   0  0  0  0  0  0  0  0  0  0  0  0
    6.7180   -1.2560    0.7250 C   0  0  0  0  0  0  0  0  0  0  0  0
    5.5910   -0.4200    1.2990 C   0  0  1  0  0  0  0  0  0  0  0  0
    5.1840    0.5630    0.2490 C   0  0  0  0  0  0  0  0  0  0  0  0
    3.7480    0.9300    0.2490 C   0  0  0  0  0  0  0  0  0  0  0  0
    2.8160   -0.2130    0.4940 C   0  0  2  0  0  0  0  0  0  0  0  0
    2.9510   -1.2400   -0.4940 N   0  0  0  0  0  0  0  0  0  0  0  0
    2.6890   -0.7080   -1.8190 C   0  0  0  0  0  0  0  0  0  0  0  0
    1.4150    0.3010    0.5800 C   0  0  0  0  0  0  0  0  0  0  0  0
    1.2490    1.3230    1.3170 O   0  0  0  0  0  0  0  0  0  0  0  0
    0.3260   -0.2740   -0.0880 N   0  0  0  0  0  0  0  0  0  0  0  0
   -1.0180    0.1680   -0.0550 C   0  0  0  0  0  0  0  0  0  0  0  0
   -1.3980    1.4240    0.3570 C   0  0  0  0  0  0  0  0  0  0  0  0
   -2.7160    1.8250    0.4080 C   0  0  0  0  0  0  0  0  0  0  0  0
   -3.7230    0.9500    0.0330 C   0  0  0  0  0  0  0  0  0  0  0  0
   -3.3550   -0.3110   -0.3820 C   0  0  0  0  0  0  0  0  0  0  0  0
   -2.0430   -0.7080   -0.4310 C   0  0  0  0  0  0  0  0  0  0  0  0
   -4.5630   -1.0330   -0.7130 N   0  0  0  0  0  0  0  0  0  0  0  0
   -5.6140   -0.0490   -0.8270 C   0  0  1  0  0  0  0  0  0  0  0  0
   -6.8850   -0.5540   -0.1700 C   0  0  0  0  0  0  0  0  0  0  0  0
   -7.9550    0.3990   -0.2500 N   0  0  1  0  0  0  0  0  0  0  0  0
   -9.1060   -0.0330   -0.9870 C   0  0  0  0  0  0  0  0  0  0  0  0
   -9.4820   -1.4670   -0.8050 C   0  0  0  0  0  0  0  0  0  0  0  0
   -8.2660    0.8610    1.0760 C   0  0  0  0  0  0  0  0  0  0  0  0
   -9.6070    0.4120    1.4530 C   0  0  0  0  0  0  0  0  0  0  0  0
  -10.6480    0.0790    1.7560 N   0  0  0  0  0  0  0  0  0  0  0  0
   -5.1330    1.0470   -0.0260 N   0  0  0  0  0  0  0  0  0  0  0  0
    3.1760   -0.7650    1.8810 C   0  0  0  0  0  0  0  0  0  0  0  0
    4.5420   -1.3370    1.7930 C   0  0  0  0  0  0  0  0  0  0  0  0
  1  2  1  0
  2  3  1  0
  3  4  1  0
  4  5  2  0
  4  6  1  0
  7  6  1  6
  7  8  1  0
  7 33  1  0
  8  9  1  0
  9 10  1  0
 10 11  1  6
 10 13  1  0
 10 32  1  0
 11 12  1  0
 13 14  2  0
 13 15  1  0
 15 16  1  0
 16 17  2  0
 16 21  1  0
 17 18  1  0
 18 19  2  0
 19 20  1  0
 19 31  1  0
 20 21  2  0
 20 22  1  0
 22 23  1  0
 23 24  1  1
 23 31  1  0
 25 24  1  1
 25 26  1  0
 25 28  1  0
 26 27  1  0
 28 29  1  0
 29 30  3  0
 32 33  1  0
M  CHG  2  11   1  25   1
M  END
