
     RDKit          3D

 33 36  0  0  0  0  0  0  0  0999 V2000
   -1.8140   -3.0220   -2.6800 C   0  0  0  0  0  0  0  0  0  0  0  0
   -1.8590   -3.0530   -1.2350 N   0  0  0  0  0  0  0  0  0  0  0  0
   -1.2850   -2.0150   -0.4510 C   0  0  0  0  0  0  0  0  0  0  0  0
   -0.7080   -0.9330   -1.0740 C   0  0  0  0  0  0  0  0  0  0  0  0
   -0.1310    0.1420   -0.3910 C   0  0  0  0  0  0  0  0  0  0  0  0
    0.4270    1.1630   -1.1990 N   0  0  0  0  0  0  0  0  0  0  0  0
   -0.2910    2.3910   -1.3870 C   0  0  0  0  0  0  0  0  0  0  0  0
    0.0470    3.4500   -0.4210 C   0  0  0  0  0  0  0  0  0  0  0  0
    0.9070    3.3010    0.4880 O   0  0  0  0  0  0  0  0  0  0  0  0
   -0.6000    4.7020   -0.4870 N   0  0  0  0  0  0  0  0  0  0  0  0
   -1.6210    4.9330   -1.4860 C   0  0  0  0  0  0  0  0  0  0  0  0
   -2.4740    6.0710   -0.9700 C   0  0  0  0  0  0  0  0  0  0  0  0
   -1.7710    7.2470   -0.8450 O   0  0  0  0  0  0  0  0  0  0  0  0
   -0.5420    7.1230   -0.2480 C   0  0  0  0  0  0  0  0  0  0  0  0
   -0.2820    5.7970    0.4080 C   0  0  0  0  0  0  0  0  0  0  0  0
    1.6950    0.9000   -1.8090 C   0  0  0  0  0  0  0  0  0  0  0  0
    2.2080    1.7270   -2.5950 O   0  0  0  0  0  0  0  0  0  0  0  0
    2.4250   -0.3710   -1.5090 C   0  0  0  0  0  0  0  0  0  0  0  0
    3.6400   -0.6340   -2.0800 C   0  0  0  0  0  0  0  0  0  0  0  0
    4.0990   -2.2430   -1.4060 S   0  0  0  0  0  0  0  0  0  0  0  0
    2.4910   -2.3290   -0.3950 C   0  0  0  0  0  0  0  0  0  0  0  0
    2.3030   -3.5620    0.4660 C   0  0  2  0  0  0  0  0  0  0  0  0
    3.1650   -3.4400    1.7130 C   0  0  0  0  0  0  0  0  0  0  0  0
    2.5600   -4.8280   -0.2670 C   0  0  0  0  0  0  0  0  0  0  0  0
    2.0100   -1.3230   -0.7010 N   0  0  0  0  0  0  0  0  0  0  0  0
   -0.1560    0.0890    0.9610 C   0  0  0  0  0  0  0  0  0  0  0  0
   -0.7370   -0.9990    1.6230 C   0  0  0  0  0  0  0  0  0  0  0  0
   -1.3020   -2.0530    0.9420 C   0  0  0  0  0  0  0  0  0  0  0  0
   -1.9050   -3.2250    1.6120 C   0  0  0  0  0  0  0  0  0  0  0  0
   -1.3270   -3.3970    2.9980 C   0  0  0  0  0  0  0  0  0  0  0  0
   -1.5940   -2.1170    3.7720 C   0  0  0  0  0  0  0  0  0  0  0  0
   -0.7800   -1.0540    3.0790 C   0  0  0  0  0  0  0  0  0  0  0  0
   -0.1430   -0.2200    3.7430 O   0  0  0  0  0  0  0  0  0  0  0  0
  1  2  1  0
  2  3  1  0
  3  4  2  0
  3 28  1  0
  4  5  1  0
  5  6  1  0
  5 26  2  0
  6  7  1  0
  6 16  1  0
  7  8  1  0
  8  9  2  0
  8 10  1  0
 10 11  1  0
 10 15  1  0
 11 12  1  0
 12 13  1  0
 13 14  1  0
 14 15  1  0
 16 17  2  0
 16 18  1  0
 18 19  2  0
 18 25  1  0
 19 20  1  0
 20 21  1  0
 21 22  1  0
 21 25  2  0
 22 23  1  1
 22 24  1  0
 26 27  1  0
 27 28  2  0
 27 32  1  0
 28 29  1  0
 29 30  1  0
 30 31  1  0
 31 32  1  0
 32 33  2  0
M  END
