
     RDKit          3D

 33 36  0  0  0  0  0  0  0  0999 V2000
   11.1220    0.9640    0.8400 C   0  0  0  0  0  0  0  0  0  0  0  0
    9.8290    0.3700    0.5170 N   0  0  0  0  0  0  0  0  0  0  0  0
    8.8420    1.2200    0.2030 C   0  0  0  0  0  0  0  0  0  0  0  0
    7.5980    0.7520   -0.1160 C   0  0  0  0  0  0  0  0  0  0  0  0
    7.3270   -0.6300   -0.1190 C   0  0  0  0  0  0  0  0  0  0  0  0
    5.9780   -1.0740   -0.4470 C   0  0  0  0  0  0  0  0  0  0  0  0
    5.5160   -2.1070    0.0540 O   0  0  0  0  0  0  0  0  0  0  0  0
    5.2390   -0.2750   -1.3270 N   0  0  0  0  0  0  0  0  0  0  0  0
    3.8740   -0.5410   -1.6800 C   0  0  0  0  0  0  0  0  0  0  0  0
    3.0810   -0.5440   -0.3910 C   0  0  0  0  0  0  0  0  0  0  0  0
    2.5870   -1.5510    0.0710 O   0  0  0  0  0  0  0  0  0  0  0  0
    2.9750    0.6950    0.2170 O   0  0  0  0  0  0  0  0  0  0  0  0
    2.1650    0.6750    1.4310 C   0  0  0  0  0  0  0  0  0  0  0  0
    0.8360    0.4270    0.9000 C   0  0  0  0  0  0  0  0  0  0  0  0
    0.0310    1.1870    0.2230 N   0  0  0  0  0  0  0  0  0  0  0  0
   -1.1050    0.8550   -0.2170 C   0  0  0  0  0  0  0  0  0  0  0  0
   -1.5320   -0.4990    0.0700 C   0  0  0  0  0  0  0  0  0  0  0  0
   -0.1850   -1.1040    0.9590 S   0  0  0  0  0  0  0  0  0  0  0  0
   -2.8680   -0.8660   -0.4320 C   0  0  0  0  0  0  0  0  0  0  0  0
   -3.8770    0.0470    0.1560 C   0  0  2  0  0  0  0  0  0  0  0  0
   -3.9460   -0.1240    1.6270 C   0  0  0  0  0  0  0  0  0  0  0  0
   -5.1750    0.0490   -0.4560 N   0  0  0  0  0  0  0  0  0  0  0  0
   -5.7740   -1.2470   -0.6000 C   0  0  0  0  0  0  0  0  0  0  0  0
   -6.9790   -1.5430    0.1770 C   0  0  0  0  0  0  0  0  0  0  0  0
   -8.1570   -0.6600    0.0360 C   0  0  0  0  0  0  0  0  0  0  0  0
   -8.0890    0.4130   -1.0140 C   0  0  0  0  0  0  0  0  0  0  0  0
   -7.0790    1.4880   -0.6400 C   0  0  0  0  0  0  0  0  0  0  0  0
   -6.0680    0.9250    0.3190 C   0  0  0  0  0  0  0  0  0  0  0  0
   -3.4020    1.5180   -0.0760 C   0  0  0  0  0  0  0  0  0  0  0  0
   -2.2110    1.5460   -1.0110 C   0  0  0  0  0  0  0  0  0  0  0  0
    8.3560   -1.4450    0.2060 C   0  0  0  0  0  0  0  0  0  0  0  0
    9.6180   -0.9360    0.5270 C   0  0  0  0  0  0  0  0  0  0  0  0
   10.5740   -1.6980    0.8260 O   0  0  0  0  0  0  0  0  0  0  0  0
  1  2  1  0
  2  3  1  0
  2 32  1  0
  3  4  2  0
  4  5  1  0
  5  6  1  0
  5 31  2  0
  6  7  2  0
  6  8  1  0
  8  9  1  0
  9 10  1  0
 10 11  2  0
 10 12  1  0
 12 13  1  0
 13 14  1  0
 14 15  2  0
 14 18  1  0
 15 16  1  0
 16 17  2  0
 16 30  1  0
 17 18  1  0
 17 19  1  0
 19 20  1  0
 20 21  1  1
 20 22  1  0
 20 29  1  0
 22 23  1  0
 22 28  1  0
 23 24  1  0
 24 25  1  0
 25 26  1  0
 26 27  1  0
 27 28  1  0
 29 30  1  0
 31 32  1  0
 32 33  2  0
M  END
