
     RDKit          3D

 33 36  0  0  0  0  0  0  0  0999 V2000
   -5.4640    3.4620   -0.0200 C   0  0  0  0  0  0  0  0  0  0  0  0
   -5.6890    2.0040   -0.2690 C   0  0  0  0  0  0  0  0  0  0  0  0
   -6.9450    1.5340   -0.5900 C   0  0  0  0  0  0  0  0  0  0  0  0
   -7.1280    0.1980   -0.8150 C   0  0  0  0  0  0  0  0  0  0  0  0
   -8.4660   -0.3370   -1.1600 C   0  0  0  0  0  0  0  0  0  0  0  0
   -6.0290   -0.6430   -0.7120 C   0  0  0  0  0  0  0  0  0  0  0  0
   -4.7640   -0.2450   -0.4000 C   0  0  0  0  0  0  0  0  0  0  0  0
   -3.5780   -1.0570   -0.2880 C   0  0  0  0  0  0  0  0  0  0  0  0
   -1.9810   -0.4210    0.2090 S   0  0  0  0  0  0  0  0  0  0  0  0
   -1.0960   -1.9490    0.0950 C   0  0  0  0  0  0  0  0  0  0  0  0
    0.3380   -2.0980    0.3910 C   0  0  0  0  0  0  0  0  0  0  0  0
    1.0360   -0.8990    0.6000 N   0  0  0  0  0  0  0  0  0  0  0  0
    1.1070    0.0530   -0.4400 C   0  0  0  0  0  0  0  0  0  0  0  0
    1.8430    1.2790    0.1310 C   0  0  0  0  0  0  0  0  0  0  0  0
    2.9200    0.8870    0.9980 N   0  0  0  0  0  0  0  0  0  0  0  0
    4.2610    1.3740    0.8190 C   0  0  0  0  0  0  0  0  0  0  0  0
    4.4600    2.1560   -0.1150 O   0  0  0  0  0  0  0  0  0  0  0  0
    5.3050    0.9310    1.7330 C   0  0  0  0  0  0  0  0  0  0  0  0
    6.7060    1.2840    1.4470 C   0  0  0  0  0  0  0  0  0  0  0  0
    7.2770    0.7930    0.2170 N   0  0  0  0  0  0  0  0  0  0  0  0
    7.4070    1.3860   -1.0590 C   0  0  0  0  0  0  0  0  0  0  0  0
    7.0600    2.5520   -1.4220 O   0  0  0  0  0  0  0  0  0  0  0  0
    8.0190    0.4830   -1.9850 N   0  0  0  0  0  0  0  0  0  0  0  0
    8.2970   -0.7250   -1.3060 C   0  0  0  0  0  0  0  0  0  0  0  0
    8.8340   -1.7650   -1.7780 O   0  0  0  0  0  0  0  0  0  0  0  0
    7.8400   -0.5370    0.0550 C   0  0  0  0  0  0  0  0  0  0  0  0
    7.9040   -1.3740    0.9860 O   0  0  0  0  0  0  0  0  0  0  0  0
    2.6530   -0.0260    2.0900 C   0  0  0  0  0  0  0  0  0  0  0  0
    1.1770   -0.4260    1.9340 C   0  0  0  0  0  0  0  0  0  0  0  0
   -2.0330   -2.8080   -0.2980 C   0  0  0  0  0  0  0  0  0  0  0  0
   -3.3010   -2.4110   -0.5060 C   0  0  0  0  0  0  0  0  0  0  0  0
   -4.4150   -3.3640   -0.9680 C   0  0  0  0  0  0  0  0  0  0  0  0
   -4.6260    1.1410   -0.1760 C   0  0  0  0  0  0  0  0  0  0  0  0
  1  2  1  0
  2  3  2  0
  2 33  1  0
  3  4  1  0
  4  5  1  0
  4  6  2  0
  6  7  1  0
  7  8  1  0
  7 33  2  0
  8  9  1  0
  8 31  2  0
  9 10  1  0
 10 11  1  0
 10 30  2  0
 11 12  1  0
 12 13  1  0
 12 29  1  0
 13 14  1  0
 14 15  1  0
 15 16  1  0
 15 28  1  0
 16 17  2  0
 16 18  1  0
 18 19  1  0
 19 20  1  0
 20 21  1  0
 20 26  1  0
 21 22  2  0
 21 23  1  0
 23 24  1  0
 24 25  2  0
 24 26  1  0
 26 27  2  0
 28 29  1  0
 30 31  1  0
 31 32  1  0
M  END
