
     RDKit          3D

 33 36  0  0  0  0  0  0  0  0999 V2000
    5.6120    0.5610   -1.8700 C   0  0  0  0  0  0  0  0  0  0  0  0
    6.3300    1.1520   -0.7190 C   0  0  0  0  0  0  0  0  0  0  0  0
    7.7030    1.0950   -0.6300 C   0  0  0  0  0  0  0  0  0  0  0  0
    8.3700    1.6490    0.4250 C   0  0  0  0  0  0  0  0  0  0  0  0
    7.6700    2.2600    1.3890 N   0  0  0  0  0  0  0  0  0  0  0  0
    6.3140    2.3260    1.3160 C   0  0  0  0  0  0  0  0  0  0  0  0
    5.7170    2.9280    2.2760 O   0  0  0  0  0  0  0  0  0  0  0  0
    5.5960    1.7810    0.2740 C   0  0  0  0  0  0  0  0  0  0  0  0
    4.1670    1.8340    0.1890 C   0  0  0  0  0  0  0  0  0  0  0  0
    3.5910    2.9520    0.1290 O   0  0  0  0  0  0  0  0  0  0  0  0
    3.3840    0.6490    0.1710 C   0  0  0  0  0  0  0  0  0  0  0  0
    1.6310    0.6120   -0.4520 S   0  0  0  0  0  0  0  0  0  0  0  0
    1.4640   -1.1790   -0.1310 C   0  0  0  0  0  0  0  0  0  0  0  0
    0.1520   -1.8570   -0.4620 C   0  0  0  0  0  0  0  0  0  0  0  0
   -0.7030   -1.8180    0.7870 C   0  0  0  0  0  0  0  0  0  0  0  0
   -1.9990   -2.4610    0.5960 C   0  0  0  0  0  0  0  0  0  0  0  0
   -2.1940   -3.8050    0.7840 C   0  0  0  0  0  0  0  0  0  0  0  0
   -3.4170   -4.3310    0.5800 N   0  0  0  0  0  0  0  0  0  0  0  0
   -4.4480   -3.5660    0.1960 C   0  0  0  0  0  0  0  0  0  0  0  0
   -4.3480   -2.1800   -0.0210 C   0  0  0  0  0  0  0  0  0  0  0  0
   -5.4810   -1.4150   -0.4750 C   0  0  0  0  0  0  0  0  0  0  0  0
   -6.4780   -2.1890   -0.8460 O   0  0  0  0  0  0  0  0  0  0  0  0
   -5.6660   -0.0230   -0.5700 N   0  0  0  0  0  0  0  0  0  0  0  0
   -4.7420    1.0140   -0.1810 C   0  0  0  0  0  0  0  0  0  0  0  0
   -5.4310    2.3850   -0.1710 C   0  0  0  0  0  0  0  0  0  0  0  0
   -6.8230    2.2920    0.4160 C   0  0  0  0  0  0  0  0  0  0  0  0
   -7.6690    1.6160   -0.6410 C   0  0  0  0  0  0  0  0  0  0  0  0
   -6.9260    0.4150   -1.1380 C   0  0  0  0  0  0  0  0  0  0  0  0
   -7.4210   -0.2370   -2.0880 O   0  0  0  0  0  0  0  0  0  0  0  0
   -3.0910   -1.6690    0.1930 C   0  0  0  0  0  0  0  0  0  0  0  0
    2.5370   -1.4500    0.3140 N   0  0  0  0  0  0  0  0  0  0  0  0
    3.5500   -0.6490    0.5090 C   0  0  0  0  0  0  0  0  0  0  0  0
    4.8460   -1.1580    1.1050 C   0  0  0  0  0  0  0  0  0  0  0  0
  1  2  1  0
  2  3  1  0
  2  8  2  0
  3  4  2  0
  4  5  1  0
  5  6  1  0
  6  7  2  0
  6  8  1  0
  8  9  1  0
  9 10  2  0
  9 11  1  0
 11 12  1  0
 11 32  2  0
 12 13  1  0
 13 14  1  0
 13 31  2  0
 14 15  1  0
 15 16  1  0
 16 17  2  0
 16 30  1  0
 17 18  1  0
 18 19  2  0
 19 20  1  0
 20 21  1  0
 20 30  2  0
 21 22  2  0
 21 23  1  0
 23 24  1  0
 23 28  1  0
 24 25  1  0
 25 26  1  0
 26 27  1  0
 27 28  1  0
 28 29  2  0
 31 32  1  0
 32 33  1  0
M  END
