
     RDKit          3D

 33 36  0  0  0  0  0  0  0  0999 V2000
   -5.7090    2.3550    0.1430 C   0  0  0  0  0  0  0  0  0  0  0  0
   -6.8970    1.5350   -0.0110 C   0  0  0  0  0  0  0  0  0  0  0  0
   -7.1290    0.2990   -0.2410 C   0  0  0  0  0  0  0  0  0  0  0  0
   -8.5820   -0.0900   -0.3320 C   0  0  0  0  0  0  0  0  0  0  0  0
   -9.4880    0.8100   -0.6910 N   0  0  0  0  0  0  0  0  0  0  0  0
   -8.9820   -1.4650   -0.2870 C   0  0  0  0  0  0  0  0  0  0  0  0
   -8.0320   -2.3700   -0.1690 C   0  0  0  0  0  0  0  0  0  0  0  0
   -6.6470   -2.0280   -0.0940 C   0  0  0  0  0  0  0  0  0  0  0  0
   -6.1470   -0.7520   -0.1310 C   0  0  0  0  0  0  0  0  0  0  0  0
   -4.7200   -0.6210   -0.2130 C   0  0  0  0  0  0  0  0  0  0  0  0
   -3.8260   -1.4690   -0.1080 N   0  0  0  0  0  0  0  0  0  0  0  0
   -2.6360   -1.6070   -0.1470 C   0  0  0  0  0  0  0  0  0  0  0  0
   -1.2430   -1.7680   -0.1940 C   0  0  0  0  0  0  0  0  0  0  0  0
   -1.0800   -3.1390    0.2490 O   0  0  0  0  0  0  0  0  0  0  0  0
   -0.0150   -1.2800   -0.4400 N   0  0  0  0  0  0  0  0  0  0  0  0
    0.4610   -0.0220   -0.8960 C   0  0  0  0  0  0  0  0  0  0  0  0
    1.9540    0.0280   -1.2820 C   0  0  0  0  0  0  0  0  0  0  0  0
    2.7590   -0.5680   -0.2600 N   0  0  0  0  0  0  0  0  0  0  0  0
    4.1190   -0.3430   -0.1200 C   0  0  0  0  0  0  0  0  0  0  0  0
    4.7210    0.4790   -0.9170 O   0  0  0  0  0  0  0  0  0  0  0  0
    4.9580   -0.9930    0.9080 C   0  0  0  0  0  0  0  0  0  0  0  0
    6.3900   -0.5660    0.8300 C   0  0  0  0  0  0  0  0  0  0  0  0
    6.6040    0.8270    1.0820 C   0  0  0  0  0  0  0  0  0  0  0  0
    5.6000    1.3640    1.8160 O   0  0  0  0  0  0  0  0  0  0  0  0
    7.5940    1.7300    0.7410 C   0  0  0  0  0  0  0  0  0  0  0  0
    8.7620    1.7310    0.0170 C   0  0  0  0  0  0  0  0  0  0  0  0
    9.5380    2.7830   -0.1060 C   0  0  0  0  0  0  0  0  0  0  0  0
    9.1870    3.9860    0.5240 C   0  0  0  0  0  0  0  0  0  0  0  0
    7.6300    3.5000    1.3310 S   0  0  0  0  0  0  0  0  0  0  0  0
    2.0920   -1.4930    0.7020 C   0  0  0  0  0  0  0  0  0  0  0  0
    1.1460   -2.2540   -0.2170 C   0  0  0  0  0  0  0  0  0  0  0  0
   -2.6790    0.0690   -0.4440 C   0  0  0  0  0  0  0  0  0  0  0  0
   -3.8870    0.3970   -0.4360 O   0  0  0  0  0  0  0  0  0  0  0  0
  1  2  1  0
  2  3  2  3
  3  4  1  0
  3  9  1  0
  4  5  2  0
  4  6  1  0
  6  7  2  0
  7  8  1  0
  8  9  2  0
  9 10  1  0
 10 11  2  0
 10 33  1  0
 11 12  1  0
 12 13  1  0
 12 32  2  0
 13 14  2  0
 13 15  1  0
 15 16  1  0
 15 31  1  0
 16 17  1  0
 17 18  1  0
 18 19  1  0
 18 30  1  0
 19 20  2  0
 19 21  1  0
 21 22  1  0
 22 23  1  0
 23 24  2  0
 23 25  1  0
 25 26  2  0
 25 29  1  0
 26 27  1  0
 27 28  2  0
 28 29  1  0
 30 31  1  0
 32 33  1  0
M  END
