
     RDKit          3D

 33 36  0  0  0  0  0  0  0  0999 V2000
   -6.9970   -2.3230    0.2590 C   0  0  0  0  0  0  0  0  0  0  0  0
   -5.6870   -1.8380    0.0740 O   0  0  0  0  0  0  0  0  0  0  0  0
   -4.6110   -2.5540    0.5780 C   0  0  0  0  0  0  0  0  0  0  0  0
   -4.8520   -3.7310    1.2510 C   0  0  0  0  0  0  0  0  0  0  0  0
   -3.7770   -4.4450    1.7540 C   0  0  0  0  0  0  0  0  0  0  0  0
   -2.4550   -3.9810    1.5830 C   0  0  0  0  0  0  0  0  0  0  0  0
   -2.2650   -2.7920    0.8990 C   0  0  0  0  0  0  0  0  0  0  0  0
   -3.3170   -2.0740    0.3950 C   0  0  0  0  0  0  0  0  0  0  0  0
   -3.1680   -0.8510   -0.2990 N   0  0  0  0  0  0  0  0  0  0  0  0
   -1.8980   -0.3290   -0.6000 C   0  0  0  0  0  0  0  0  0  0  0  0
   -0.9220   -1.1070   -0.9830 N   0  0  0  0  0  0  0  0  0  0  0  0
    0.3710   -0.6250   -1.2980 C   0  0  0  0  0  0  0  0  0  0  0  0
    1.5830   -1.8480   -1.8070 S   0  0  0  0  0  0  0  0  0  0  0  0
    3.1740   -1.0820   -2.1550 C   0  0  0  0  0  0  0  0  0  0  0  0
    3.7890   -0.5150   -0.9220 C   0  0  0  0  0  0  0  0  0  0  0  0
    3.1480   -0.6390    0.1520 O   0  0  0  0  0  0  0  0  0  0  0  0
    5.0450    0.1280   -1.0050 N   0  0  0  0  0  0  0  0  0  0  0  0
    5.7830    0.2740   -2.2370 C   0  0  0  0  0  0  0  0  0  0  0  0
    7.2160    0.5900   -1.8620 C   0  0  0  0  0  0  0  0  0  0  0  0
    7.6760   -0.1490   -0.8060 O   0  0  0  0  0  0  0  0  0  0  0  0
    6.9710   -0.0510    0.3640 C   0  0  1  0  0  0  0  0  0  0  0  0
    7.7430    0.6090    1.4850 C   0  0  0  0  0  0  0  0  0  0  0  0
    5.6530    0.6780    0.1860 C   0  0  0  0  0  0  0  0  0  0  0  0
    0.6550    0.6230   -1.2220 N   0  0  0  0  0  0  0  0  0  0  0  0
   -0.3450    1.5890   -0.8090 C   0  0  0  0  0  0  0  0  0  0  0  0
   -0.0560    2.7970   -0.7400 O   0  0  0  0  0  0  0  0  0  0  0  0
   -1.6780    1.1270   -0.4790 C   0  0  0  0  0  0  0  0  0  0  0  0
   -2.6620    1.9070   -0.0930 C   0  0  0  0  0  0  0  0  0  0  0  0
   -2.6380    3.3420    0.0810 C   0  0  0  0  0  0  0  0  0  0  0  0
   -3.7680    3.9590    0.4890 C   0  0  0  0  0  0  0  0  0  0  0  0
   -3.7640    5.4080    0.6710 C   0  0  0  0  0  0  0  0  0  0  0  0
   -5.0040    3.1680    0.7490 C   0  0  0  0  0  0  0  0  0  0  0  0
   -2.6670   -5.2500    2.3130 C   0  0  0  0  0  0  0  0  0  0  0  0
  1  2  1  0
  2  3  1  0
  3  4  2  0
  3  8  1  0
  4  5  1  0
  5  6  2  0
  5 33  1  0
  6  7  1  0
  6 33  1  0
  7  8  2  0
  8  9  1  0
  9 10  1  0
 10 11  2  0
 10 27  1  0
 11 12  1  0
 12 13  1  0
 12 24  2  0
 13 14  1  0
 14 15  1  0
 15 16  2  0
 15 17  1  0
 17 18  1  0
 17 23  1  0
 18 19  1  0
 19 20  1  0
 20 21  1  0
 21 22  1  1
 21 23  1  0
 24 25  1  0
 25 26  2  0
 25 27  1  0
 27 28  2  3
 28 29  1  0
 29 30  2  3
 30 31  1  0
 30 32  1  0
M  END
