
     RDKit          3D

 33 35  0  0  0  0  0  0  0  0999 V2000
   -3.7570   -2.6730   -2.4230 C   0  0  0  0  0  0  0  0  0  0  0  0
   -4.3410   -1.9480   -1.2310 C   0  0  0  0  0  0  0  0  0  0  0  0
   -4.1700   -0.5010   -1.3130 N   0  0  0  0  0  0  0  0  0  0  0  0
   -4.0830    0.0940    0.0310 C   0  0  1  0  0  0  0  0  0  0  0  0
   -2.7210    0.7240    0.0750 C   0  0  1  0  0  0  0  0  0  0  0  0
   -2.3260    1.4320    1.3100 C   0  0  0  0  0  0  0  0  0  0  0  0
   -1.0010    2.1680    1.0060 C   0  0  0  0  0  0  0  0  0  0  0  0
   -0.0390    1.1480    0.6730 N   0  0  0  0  0  0  0  0  0  0  0  0
    1.1550    1.0710    1.4340 C   0  0  0  0  0  0  0  0  0  0  0  0
    1.4010    1.8570    2.3820 O   0  0  0  0  0  0  0  0  0  0  0  0
    2.1240    0.0110    1.0670 C   0  0  0  0  0  0  0  0  0  0  0  0
    3.3600    0.0280    1.9340 C   0  0  0  0  0  0  0  0  0  0  0  0
    4.2330   -1.0320    1.5010 N   0  0  0  0  0  0  0  0  0  0  0  0
    4.1080   -2.2340    2.0840 C   0  0  0  0  0  0  0  0  0  0  0  0
    3.2440   -2.4030    2.9830 O   0  0  0  0  0  0  0  0  0  0  0  0
    4.8870   -3.2580    1.7240 N   0  0  0  0  0  0  0  0  0  0  0  0
    5.8090   -3.0870    0.7670 C   0  0  0  0  0  0  0  0  0  0  0  0
    6.5490   -4.0440    0.4200 O   0  0  0  0  0  0  0  0  0  0  0  0
    5.9340   -1.8520    0.1720 C   0  0  0  0  0  0  0  0  0  0  0  0
    6.8440   -1.6290   -0.7970 N   0  0  0  0  0  0  0  0  0  0  0  0
    6.9630   -0.4270   -1.3800 C   0  0  0  0  0  0  0  0  0  0  0  0
    8.0030   -0.2820   -2.4450 C   0  0  0  0  0  0  0  0  0  0  0  0
    9.2620    0.0790   -1.8570 N   0  0  0  0  0  0  0  0  0  0  0  0
    6.1650    0.6350   -1.0160 C   0  0  0  0  0  0  0  0  0  0  0  0
    5.2110    0.4550   -0.0210 C   0  0  0  0  0  0  0  0  0  0  0  0
    5.1270   -0.7920    0.5450 C   0  0  0  0  0  0  0  0  0  0  0  0
   -0.3730    0.2770   -0.4230 C   0  0  0  0  0  0  0  0  0  0  0  0
   -1.6850   -0.4010   -0.0750 C   0  0  0  0  0  0  0  0  0  0  0  0
   -5.2340    0.9840    0.3130 C   0  0  1  0  0  0  0  0  0  0  0  0
   -6.5150    0.1500    0.1250 C   0  0  0  0  0  0  0  0  0  0  0  0
   -5.2760    1.2780    1.8430 C   0  0  0  0  0  0  0  0  0  0  0  0
   -5.3160    2.2880   -0.3720 C   0  0  0  0  0  0  0  0  0  0  0  0
   -5.3790    2.3180   -1.8570 C   0  0  0  0  0  0  0  0  0  0  0  0
  1  2  1  0
  2  3  1  0
  4  3  1  6
  4  5  1  0
  4 29  1  0
  5  6  1  1
  5 28  1  0
  6  7  1  0
  7  8  1  0
  8  9  1  0
  8 27  1  0
  9 10  2  0
  9 11  1  0
 11 12  1  0
 12 13  1  0
 13 14  1  0
 13 26  1  0
 14 15  2  0
 14 16  1  0
 16 17  1  0
 17 18  2  0
 17 19  1  0
 19 20  2  0
 19 26  1  0
 20 21  1  0
 21 22  1  0
 21 24  2  0
 22 23  1  0
 24 25  1  0
 25 26  2  0
 27 28  1  0
 29 30  1  6
 29 31  1  0
 29 32  1  0
 32 33  1  0
M  CHG  2   3   1  23   1
M  END
