
     RDKit          3D

 33 35  0  0  0  0  0  0  0  0999 V2000
   -9.1330   -1.4670    0.9310 C   0  0  0  0  0  0  0  0  0  0  0  0
   -9.1220   -1.9550   -0.4990 C   0  0  0  0  0  0  0  0  0  0  0  0
   -7.8930   -1.5760   -1.0870 O   0  0  0  0  0  0  0  0  0  0  0  0
   -7.4680   -0.2730   -1.1870 C   0  0  0  0  0  0  0  0  0  0  0  0
   -8.2530    0.6260   -0.7120 O   0  0  0  0  0  0  0  0  0  0  0  0
   -6.1790    0.1570   -1.7990 C   0  0  0  0  0  0  0  0  0  0  0  0
   -5.3230    0.8990   -0.7980 C   0  0  1  0  0  0  0  0  0  0  0  0
   -5.0140   -0.0050    0.4000 C   0  0  0  0  0  0  0  0  0  0  0  0
   -3.6160    0.2130    0.8940 C   0  0  0  0  0  0  0  0  0  0  0  0
   -2.6220   -0.3230   -0.1410 C   0  0  2  0  0  0  0  0  0  0  0  0
   -2.5010   -1.7300    0.0960 N   0  0  0  0  0  0  0  0  0  0  0  0
   -1.6900   -2.4300   -0.8510 C   0  0  0  0  0  0  0  0  0  0  0  0
   -1.3400    0.4210    0.1390 C   0  0  0  0  0  0  0  0  0  0  0  0
   -1.2970    1.6640   -0.0650 O   0  0  0  0  0  0  0  0  0  0  0  0
   -0.1770   -0.2180    0.6240 N   0  0  0  0  0  0  0  0  0  0  0  0
    1.0620    0.3850    0.9250 C   0  0  0  0  0  0  0  0  0  0  0  0
    1.2580    1.7290    1.1680 C   0  0  0  0  0  0  0  0  0  0  0  0
    2.5390    2.1840    1.4320 C   0  0  0  0  0  0  0  0  0  0  0  0
    3.6180    1.3360    1.4600 C   0  0  0  0  0  0  0  0  0  0  0  0
    3.4440   -0.0100    1.2210 C   0  0  0  0  0  0  0  0  0  0  0  0
    2.1780   -0.4470    0.9620 C   0  0  0  0  0  0  0  0  0  0  0  0
    4.7230   -0.6410    1.3070 N   0  0  0  0  0  0  0  0  0  0  0  0
    5.6060    0.3100    1.8800 C   0  0  1  0  0  0  0  0  0  0  0  0
    7.0300    0.1790    1.5560 C   0  0  0  0  0  0  0  0  0  0  0  0
    7.4590    0.2350    0.2080 N   0  0  1  0  0  0  0  0  0  0  0  0
    7.4390    1.4830   -0.4610 C   0  0  0  0  0  0  0  0  0  0  0  0
    7.2320    1.2340   -1.9660 C   0  0  0  0  0  0  0  0  0  0  0  0
    8.8790   -0.1830    0.2530 C   0  0  0  0  0  0  0  0  0  0  0  0
    9.5670    0.1140   -0.9720 C   0  0  0  0  0  0  0  0  0  0  0  0
   10.0970    0.3610   -1.9440 N   0  0  0  0  0  0  0  0  0  0  0  0
    4.9950    1.5920    1.7240 N   0  0  0  0  0  0  0  0  0  0  0  0
   -3.1510    0.0010   -1.5090 C   0  0  0  0  0  0  0  0  0  0  0  0
   -4.0060    1.2420   -1.4420 C   0  0  0  0  0  0  0  0  0  0  0  0
  1  2  1  0
  2  3  1  0
  3  4  1  0
  4  5  2  0
  4  6  1  0
  7  6  1  6
  7  8  1  0
  7 33  1  0
  8  9  1  0
  9 10  1  0
 10 11  1  6
 10 13  1  0
 10 32  1  0
 11 12  1  0
 13 14  2  0
 13 15  1  0
 15 16  1  0
 16 17  2  0
 16 21  1  0
 17 18  1  0
 18 19  2  0
 19 20  1  0
 19 31  1  0
 20 21  2  0
 20 22  1  0
 22 23  1  0
 23 24  1  6
 23 31  1  0
 25 24  1  1
 25 26  1  0
 25 28  1  0
 26 27  1  0
 28 29  1  0
 29 30  3  0
 32 33  1  0
M  CHG  2  11   1  25   1
M  END
