
     RDKit          3D

 23 24  0  0  0  0  0  0  0  0999 V2000
   -3.7530    2.7810    0.5610 N   0  0  0  0  0  0  0  0  0  0  0  0
   -4.1630    1.5760    0.3460 C   0  0  0  0  0  0  0  0  0  0  0  0
   -5.5020    1.0890    0.6290 N   0  0  0  0  0  0  0  0  0  0  0  0
   -5.6730   -0.0660   -0.1920 C   0  0  2  0  0  0  0  0  0  0  0  0
   -6.4720   -1.1930    0.4000 C   0  0  0  0  0  0  0  0  0  0  0  0
   -5.8100   -2.2900   -0.3000 O   0  0  0  0  0  0  0  0  0  0  0  0
   -4.4540   -1.9390   -0.3180 N   0  0  0  0  0  0  0  0  0  0  0  0
   -4.2950   -0.6790   -0.2560 C   0  0  0  0  0  0  0  0  0  0  0  0
   -3.4360    0.4760   -0.1990 N   0  0  0  0  0  0  0  0  0  0  0  0
   -2.0880    0.5350   -0.6070 C   0  0  0  0  0  0  0  0  0  0  0  0
   -1.2570   -0.4630   -0.3700 C   0  0  0  0  0  0  0  0  0  0  0  0
    0.1430   -0.3630   -0.8130 C   0  0  0  0  0  0  0  0  0  0  0  0
    0.5730    0.6490   -1.4120 O   0  0  0  0  0  0  0  0  0  0  0  0
    1.0500   -1.3870   -0.5850 O   0  0  0  0  0  0  0  0  0  0  0  0
    2.3880   -1.3240   -0.9930 C   0  0  0  0  0  0  0  0  0  0  0  0
    3.1340   -0.2090   -0.4060 C   0  0  0  0  0  0  0  0  0  0  0  0
    2.5720    0.5880    0.3860 O   0  0  0  0  0  0  0  0  0  0  0  0
    4.5020   -0.0130   -0.7240 N   0  0  0  0  0  0  0  0  0  0  0  0
    5.2660    1.1010   -0.1440 C   0  0  0  0  0  0  0  0  0  0  0  0
    5.2250    0.9180    1.2370 O   0  0  0  0  0  0  0  0  0  0  0  0
    5.9170   -0.5740    1.7230 P   0  0  0  0  0  0  0  0  0  0  0  0
    7.1510   -0.3740    2.9250 O   0  0  0  0  0  0  0  0  0  0  0  0
    6.4600   -1.5360    0.3950 O   0  0  0  0  0  0  0  0  0  0  0  0
  1  2  2  0
  2  3  1  0
  2  9  1  0
  3  4  1  0
  4  5  1  1
  4  8  1  0
  5  6  1  0
  6  7  1  0
  7  8  2  0
  8  9  1  0
  9 10  1  0
 10 11  2  3
 11 12  1  0
 12 13  2  0
 12 14  1  0
 14 15  1  0
 15 16  1  0
 16 17  2  0
 16 18  1  0
 18 19  1  0
 19 20  1  0
 20 21  1  0
 21 22  1  0
 21 23  1  0
M  END
