
     RDKit          3D

 23 24  0  0  0  0  0  0  0  0999 V2000
    3.0550    1.3320    1.3050 N   0  0  0  0  0  0  0  0  0  0  0  0
    2.9150    0.1640    0.8250 C   0  0  0  0  0  0  0  0  0  0  0  0
    1.6230   -0.4110    0.7520 N   0  0  0  0  0  0  0  0  0  0  0  0
    0.4740    0.3630    0.4440 C   0  0  0  0  0  0  0  0  0  0  0  0
    0.5300    1.6790    0.1950 N   0  0  0  0  0  0  0  0  0  0  0  0
   -0.5500    2.4230   -0.1010 C   0  0  0  0  0  0  0  0  0  0  0  0
   -1.7890    1.8090   -0.1550 C   0  0  0  0  0  0  0  0  0  0  0  0
   -2.9850    2.6140   -0.4790 C   0  0  0  0  0  0  0  0  0  0  0  0
   -2.8560    3.9920   -0.7300 N   0  0  0  0  0  0  0  0  0  0  0  0
   -4.0980    2.0210   -0.5200 O   0  0  0  0  0  0  0  0  0  0  0  0
   -1.8750    0.4680    0.0940 C   0  0  0  0  0  0  0  0  0  0  0  0
   -0.7630   -0.2720    0.3940 C   0  0  0  0  0  0  0  0  0  0  0  0
   -0.9270   -1.6270    0.6350 O   0  0  0  0  0  0  0  0  0  0  0  0
   -1.9460   -2.3160   -0.0620 C   0  0  1  0  0  0  0  0  0  0  0  0
   -2.1590   -3.6620    0.5280 C   0  0  0  0  0  0  0  0  0  0  0  0
   -1.4770   -4.0600    1.5200 O   0  0  0  0  0  0  0  0  0  0  0  0
   -3.1070   -4.5110    0.0070 O   0  0  0  0  0  0  0  0  0  0  0  0
   -3.2540   -1.5750   -0.0420 C   0  0  0  0  0  0  0  0  0  0  0  0
   -3.0980   -0.1830    0.0500 O   0  0  0  0  0  0  0  0  0  0  0  0
    4.0620   -0.5320    0.3770 N   0  0  0  0  0  0  0  0  0  0  0  0
    5.6280    0.2530    0.0550 P   0  0  0  0  0  0  0  0  0  0  0  0
    6.4120   -0.6200   -1.2250 O   0  0  0  0  0  0  0  0  0  0  0  0
    5.4520    1.8940   -0.4710 O   0  0  0  0  0  0  0  0  0  0  0  0
  1  2  2  0
  2  3  1  0
  2 20  1  0
  3  4  1  0
  4  5  2  0
  4 12  1  0
  5  6  1  0
  6  7  2  0
  7  8  1  0
  7 11  1  0
  8  9  1  0
  8 10  2  0
 11 12  2  0
 11 19  1  0
 12 13  1  0
 13 14  1  0
 14 15  1  1
 14 18  1  0
 15 16  2  0
 15 17  1  0
 18 19  1  0
 20 21  1  0
 21 22  1  0
 21 23  1  0
M  END
