
     RDKit          3D

 23 24  0  0  0  0  0  0  0  0999 V2000
   -5.3940   -1.9820    1.2650 C   0  0  0  0  0  0  0  0  0  0  0  0
   -3.9730   -1.7910    1.1030 N   0  0  0  0  0  0  0  0  0  0  0  0
   -3.6190   -0.4010    0.9050 C   0  0  1  0  0  0  0  0  0  0  0  0
   -2.1450   -0.3420    0.7530 C   0  0  0  0  0  0  0  0  0  0  0  0
   -1.6390   -0.2020   -0.4290 N   0  0  0  0  0  0  0  0  0  0  0  0
   -0.2060   -0.1410   -0.6080 C   0  0  0  0  0  0  0  0  0  0  0  0
    0.4260   -1.2420   -0.8290 N   0  0  0  0  0  0  0  0  0  0  0  0
    1.8520   -1.2620   -1.0210 C   0  0  0  0  0  0  0  0  0  0  0  0
    2.7290   -1.9910   -1.5600 N   0  0  0  0  0  0  0  0  0  0  0  0
    4.0440   -1.4880   -1.4440 C   0  0  0  0  0  0  0  0  0  0  0  0
    5.0940   -2.0080   -1.8770 O   0  0  0  0  0  0  0  0  0  0  0  0
    3.9110   -0.2490   -0.7170 N   0  0  0  0  0  0  0  0  0  0  0  0
    5.0240    0.6530   -0.4610 C   0  0  0  0  0  0  0  0  0  0  0  0
    5.7110    0.3020    0.8530 C   0  0  0  0  0  0  0  0  0  0  0  0
    6.7590    1.2070    1.0240 O   0  0  0  0  0  0  0  0  0  0  0  0
    2.5610   -0.1240   -0.3450 C   0  0  1  0  0  0  0  0  0  0  0  0
    1.8560    1.1310   -0.7070 C   0  0  0  0  0  0  0  0  0  0  0  0
    2.4750    2.1110   -1.1130 O   0  0  0  0  0  0  0  0  0  0  0  0
    0.4510    1.0740   -0.5370 O   0  0  0  0  0  0  0  0  0  0  0  0
   -4.2790    0.1660   -0.1690 O   0  0  0  0  0  0  0  0  0  0  0  0
   -5.2330    1.4910    0.4160 P   0  0  0  0  0  0  0  0  0  0  0  0
   -4.3310    2.2030    1.7440 O   0  0  0  0  0  0  0  0  0  0  0  0
   -5.3910    2.7340   -0.7860 O   0  0  0  0  0  0  0  0  0  0  0  0
  1  2  1  0
  3  2  1  6
  3  4  1  0
  3 20  1  0
  4  5  2  3
  5  6  1  0
  6  7  2  0
  6 19  1  0
  7  8  1  0
  8  9  2  0
  8 16  1  0
  9 10  1  0
 10 11  2  0
 10 12  1  0
 12 13  1  0
 16 12  1  6
 13 14  1  0
 14 15  1  0
 16 17  1  0
 17 18  2  0
 17 19  1  0
 20 21  1  0
 21 22  1  0
 21 23  1  0
M  END
