
     RDKit          3D

 22 22  0  0  0  0  0  0  0  0999 V2000
   -1.2510    1.8620    2.1670 O   0  0  0  0  0  0  0  0  0  0  0  0
   -1.2220    2.2650    0.9840 C   0  0  0  0  0  0  0  0  0  0  0  0
   -2.0680    1.5500    0.0070 C   0  0  0  0  0  0  0  0  0  0  0  0
   -3.1400    0.8080    0.6360 N   0  0  0  0  0  0  0  0  0  0  0  0
   -3.5000   -0.5180    0.2620 C   0  0  0  0  0  0  0  0  0  0  0  0
   -4.7290   -0.8800    0.2810 O   0  0  0  0  0  0  0  0  0  0  0  0
   -2.4730   -1.4850   -0.1500 C   0  0  0  0  0  0  0  0  0  0  0  0
   -2.7850   -2.4180   -1.0350 C   0  0  0  0  0  0  0  0  0  0  0  0
   -4.0800   -2.4950   -1.5830 O   0  0  0  0  0  0  0  0  0  0  0  0
   -1.0960   -1.4630    0.3830 C   0  0  0  0  0  0  0  0  0  0  0  0
   -0.1340   -1.4660   -0.6110 O   0  0  0  0  0  0  0  0  0  0  0  0
    1.0530   -1.9270   -0.0500 C   0  0  0  0  0  0  0  0  0  0  0  0
    1.7580   -0.7880    0.6540 C   0  0  1  0  0  0  0  0  0  0  0  0
    2.8650   -1.3060    1.5540 C   0  0  0  0  0  0  0  0  0  0  0  0
    3.7760   -1.9950    0.7630 O   0  0  0  0  0  0  0  0  0  0  0  0
    2.2760    0.2090   -0.3430 C   0  0  0  0  0  0  0  0  0  0  0  0
    1.3750    1.2810   -0.4470 O   0  0  0  0  0  0  0  0  0  0  0  0
    2.1110    2.3690   -0.8950 C   0  0  0  0  0  0  0  0  0  0  0  0
    1.2660    3.5680   -1.1260 C   0  0  0  0  0  0  0  0  0  0  0  0
    1.8510    4.5090   -1.7220 O   0  0  0  0  0  0  0  0  0  0  0  0
   -0.0250    3.5460   -0.6890 O   0  0  0  0  0  0  0  0  0  0  0  0
   -0.4680    3.3080    0.5530 O   0  0  0  0  0  0  0  0  0  0  0  0
  1  2  2  0
  2  3  1  0
  2 22  1  0
  3  4  1  0
  4  5  1  0
  5  6  2  0
  5  7  1  0
  7  8  2  3
  7 10  1  0
  8  9  1  0
 10 11  1  0
 11 12  1  0
 12 13  1  0
 13 14  1  6
 13 16  1  0
 14 15  1  0
 16 17  1  0
 17 18  1  0
 18 19  1  0
 19 20  2  0
 19 21  1  0
 21 22  1  0
M  END
