
     RDKit          3D

 22 24  0  0  0  0  0  0  0  0999 V2000
    2.2960    1.3100    1.1430 O   0  0  0  0  0  0  0  0  0  0  0  0
    2.4590    0.2710    0.4520 C   0  0  0  0  0  0  0  0  0  0  0  0
    3.6650    0.0100   -0.1070 O   0  0  0  0  0  0  0  0  0  0  0  0
    4.8020    0.7990    0.0110 C   0  0  0  0  0  0  0  0  0  0  0  0
    5.3250    0.9780    1.2550 O   0  0  0  0  0  0  0  0  0  0  0  0
    4.5910    1.5380    2.1410 O   0  0  0  0  0  0  0  0  0  0  0  0
    1.2710   -0.6150    0.3000 C   0  0  2  0  0  0  0  0  0  0  0  0
    0.9160   -0.8500   -1.1440 C   0  0  0  0  0  0  0  0  0  0  0  0
   -0.4510   -1.5020   -1.1440 C   0  0  2  0  0  0  0  0  0  0  0  0
   -0.4180   -2.5110   -0.1840 O   0  0  0  0  0  0  0  0  0  0  0  0
   -1.2120   -3.4910   -0.7490 C   0  0  0  0  0  0  0  0  0  0  0  0
   -1.6530   -3.0030   -1.9800 O   0  0  0  0  0  0  0  0  0  0  0  0
   -0.7810   -2.0810   -2.3360 O   0  0  0  0  0  0  0  0  0  0  0  0
   -1.4190   -0.4690   -0.6880 C   0  0  0  0  0  0  0  0  0  0  0  0
   -2.6140   -0.2130   -1.2900 C   0  0  0  0  0  0  0  0  0  0  0  0
   -3.4500    0.7780   -0.7830 C   0  0  0  0  0  0  0  0  0  0  0  0
   -3.0500    1.4930    0.3320 C   0  0  0  0  0  0  0  0  0  0  0  0
   -3.8880    2.5070    0.8630 N   0  0  0  0  0  0  0  0  0  0  0  0
   -3.5220    3.2140    1.9450 O   0  0  0  0  0  0  0  0  0  0  0  0
   -1.8290    1.2350    0.9520 C   0  0  0  0  0  0  0  0  0  0  0  0
   -1.0260    0.2610    0.4400 C   0  0  0  0  0  0  0  0  0  0  0  0
    0.1960   -0.0470    1.0030 O   0  0  0  0  0  0  0  0  0  0  0  0
  1  2  2  0
  2  3  1  0
  7  2  1  6
  3  4  1  0
  4  5  1  0
  5  6  1  0
  7  8  1  0
  7 22  1  0
  9  8  1  6
  9 10  1  0
  9 13  1  0
  9 14  1  0
 10 11  1  0
 11 12  1  0
 12 13  1  0
 14 15  2  0
 14 21  1  0
 15 16  1  0
 16 17  2  0
 17 18  1  0
 17 20  1  0
 18 19  1  0
 20 21  2  0
 21 22  1  0
M  END
