
     RDKit          3D

 22 22  0  0  0  0  0  0  0  0999 V2000
   -3.9070   -3.6690   -1.5140 O   0  0  0  0  0  0  0  0  0  0  0  0
   -3.3100   -4.0320   -0.4780 C   0  0  0  0  0  0  0  0  0  0  0  0
   -3.5690   -5.2930    0.0710 O   0  0  0  0  0  0  0  0  0  0  0  0
   -2.4040   -3.1630    0.0980 O   0  0  0  0  0  0  0  0  0  0  0  0
   -2.1270   -1.8690   -0.4500 C   0  0  2  0  0  0  0  0  0  0  0  0
   -0.6490   -1.8020   -0.7550 C   0  0  0  0  0  0  0  0  0  0  0  0
   -0.0270   -0.6070   -0.0450 C   0  0  1  0  0  0  0  0  0  0  0  0
    1.2580   -0.4560   -0.5060 O   0  0  0  0  0  0  0  0  0  0  0  0
    2.1910   -0.5590    0.4210 O   0  0  0  0  0  0  0  0  0  0  0  0
    3.3520    0.1980    0.2640 C   0  0  0  0  0  0  0  0  0  0  0  0
    3.4700    0.9430   -0.7410 O   0  0  0  0  0  0  0  0  0  0  0  0
    4.4210    0.1700    1.1940 N   0  0  0  0  0  0  0  0  0  0  0  0
    5.6220    0.9480    1.0380 C   0  0  0  0  0  0  0  0  0  0  0  0
    6.3770    0.6250   -0.2300 C   0  0  0  0  0  0  0  0  0  0  0  0
    6.7490   -0.7070   -0.2420 O   0  0  0  0  0  0  0  0  0  0  0  0
   -0.8260    0.6070   -0.4780 C   0  0  0  0  0  0  0  0  0  0  0  0
   -2.2540    0.5530    0.0420 C   0  0  2  0  0  0  0  0  0  0  0  0
   -2.3960    1.5310    0.9830 O   0  0  0  0  0  0  0  0  0  0  0  0
   -3.2840    2.5310    0.7250 C   0  0  0  0  0  0  0  0  0  0  0  0
   -2.8990    3.2790   -0.5330 C   0  0  0  0  0  0  0  0  0  0  0  0
   -3.8460    4.3030   -0.7570 O   0  0  0  0  0  0  0  0  0  0  0  0
   -2.5480   -0.8360    0.5610 C   0  0  0  0  0  0  0  0  0  0  0  0
  1  2  2  0
  2  3  1  0
  2  4  1  0
  5  4  1  1
  5  6  1  0
  5 22  1  0
  6  7  1  0
  7  8  1  6
  7 16  1  0
  8  9  1  0
  9 10  1  0
 10 11  2  0
 10 12  1  0
 12 13  1  0
 13 14  1  0
 14 15  1  0
 16 17  1  0
 17 18  1  1
 17 22  1  0
 18 19  1  0
 19 20  1  0
 20 21  1  0
M  END
