
     RDKit          3D

 22 23  0  0  0  0  0  0  0  0999 V2000
    1.3210    4.2550    0.3470 C   0  0  0  0  0  0  0  0  0  0  0  0
    1.4210    2.8610    0.1650 O   0  0  0  0  0  0  0  0  0  0  0  0
    0.2590    2.0650    0.0150 C   0  0  0  0  0  0  0  0  0  0  0  0
   -0.8080    2.6820    0.0580 O   0  0  0  0  0  0  0  0  0  0  0  0
    0.4220    0.6270   -0.1700 C   0  0  0  0  0  0  0  0  0  0  0  0
    1.5160   -0.0640   -0.2210 O   0  0  0  0  0  0  0  0  0  0  0  0
    1.3130   -1.3390   -0.3990 C   0  0  0  0  0  0  0  0  0  0  0  0
    2.2350   -2.4490   -0.5120 C   0  0  0  0  0  0  0  0  0  0  0  0
    3.5210   -2.3110   -0.4480 C   0  0  0  0  0  0  0  0  0  0  0  0
    4.2470   -1.0660   -0.2590 C   0  0  0  0  0  0  0  0  0  0  0  0
    5.0330   -1.1000    0.9150 O   0  0  0  0  0  0  0  0  0  0  0  0
    5.6510    0.0620    1.0040 O   0  0  0  0  0  0  0  0  0  0  0  0
   -0.0830   -1.4990   -0.4730 C   0  0  0  0  0  0  0  0  0  0  0  0
   -0.6360   -0.2570   -0.3280 C   0  0  0  0  0  0  0  0  0  0  0  0
   -2.0130    0.0450   -0.3390 N   0  0  0  0  0  0  0  0  0  0  0  0
   -2.9890   -0.9460   -0.5080 C   0  0  0  0  0  0  0  0  0  0  0  0
   -2.7580   -2.1530   -0.6600 O   0  0  0  0  0  0  0  0  0  0  0  0
   -4.4330   -0.5280   -0.5060 C   0  0  2  0  0  0  0  0  0  0  0  0
   -4.7640   -0.0810    0.8970 C   0  0  0  0  0  0  0  0  0  0  0  0
   -5.4390   -1.1880    1.3890 O   0  0  0  0  0  0  0  0  0  0  0  0
   -5.8740   -1.8830    0.4060 O   0  0  0  0  0  0  0  0  0  0  0  0
   -5.2600   -1.6000   -0.6800 O   0  0  0  0  0  0  0  0  0  0  0  0
  1  2  1  0
  2  3  1  0
  3  4  2  0
  3  5  1  0
  5  6  1  0
  5 14  2  0
  6  7  1  0
  7  8  1  0
  7 13  2  0
  8  9  2  3
  9 10  1  0
 10 11  1  0
 11 12  1  0
 13 14  1  0
 14 15  1  0
 15 16  1  0
 16 17  2  0
 18 16  1  1
 18 19  1  0
 18 22  1  0
 19 20  1  0
 20 21  1  0
 21 22  1  0
M  END
