
     RDKit          3D

 22 22  0  0  0  0  0  0  0  0999 V2000
   -3.1290   -2.4550   -0.3740 C   0  0  0  0  0  0  0  0  0  0  0  0
   -2.2950   -1.9430    0.7580 C   0  0  2  0  0  0  0  0  0  0  0  0
   -2.7850   -0.7320    1.3870 N   0  0  0  0  0  0  0  0  0  0  0  0
   -4.0570   -0.1390    1.1410 C   0  0  0  0  0  0  0  0  0  0  0  0
   -4.8830    0.0020    2.1280 O   0  0  0  0  0  0  0  0  0  0  0  0
   -4.5100    0.3320   -0.0670 O   0  0  0  0  0  0  0  0  0  0  0  0
   -3.8320    1.1250   -0.9920 C   0  0  0  0  0  0  0  0  0  0  0  0
   -3.0430    2.2470   -0.3050 C   0  0  0  0  0  0  0  0  0  0  0  0
   -1.9330    1.7560    0.3400 O   0  0  0  0  0  0  0  0  0  0  0  0
   -0.7890    2.0880   -0.3780 C   0  0  0  0  0  0  0  0  0  0  0  0
   -0.1620    0.7670   -0.8330 C   0  0  0  0  0  0  0  0  0  0  0  0
    0.5320    0.1200    0.2560 C   0  0  2  0  0  0  0  0  0  0  0  0
    1.9620   -0.2120   -0.1440 C   0  0  0  0  0  0  0  0  0  0  0  0
    2.8400    0.2410    0.7900 O   0  0  0  0  0  0  0  0  0  0  0  0
    4.0480   -0.2710    0.7590 C   0  0  0  0  0  0  0  0  0  0  0  0
    4.9530   -0.2900   -0.4050 C   0  0  0  0  0  0  0  0  0  0  0  0
    6.1570   -0.8840    0.1780 O   0  0  0  0  0  0  0  0  0  0  0  0
    7.0420    0.1360    0.0440 O   0  0  0  0  0  0  0  0  0  0  0  0
    6.2590    1.2160    0.1540 O   0  0  0  0  0  0  0  0  0  0  0  0
   -0.0430   -0.9690    0.9460 O   0  0  0  0  0  0  0  0  0  0  0  0
   -0.8730   -1.9450    0.4380 C   0  0  0  0  0  0  0  0  0  0  0  0
   -0.5270   -2.9400   -0.3250 O   0  0  0  0  0  0  0  0  0  0  0  0
  2  1  1  6
  2  3  1  0
  2 21  1  0
  3  4  1  0
  4  5  2  0
  4  6  1  0
  6  7  1  0
  7  8  1  0
  8  9  1  0
  9 10  1  0
 10 11  1  0
 11 12  1  0
 12 13  1  6
 12 20  1  0
 13 14  1  0
 14 15  1  0
 15 16  1  0
 16 17  1  0
 17 18  1  0
 18 19  1  0
 20 21  1  0
 21 22  2  0
M  END
