
     RDKit          3D

 21 22  0  0  0  0  0  0  0  0999 V2000
    2.2510   -0.2030   -1.4790 C   0  0  0  0  0  0  0  0  0  0  0  0
    1.5190   -0.3120   -0.1550 C   0  0  2  0  0  0  0  0  0  0  0  0
    2.3660    0.3510    0.9040 C   0  0  0  0  0  0  0  0  0  0  0  0
    3.6170   -0.2770    0.9150 O   0  0  0  0  0  0  0  0  0  0  0  0
    4.6640    0.4170    2.1030 P   0  0  0  0  0  0  0  0  0  0  0  0
    5.1890    1.9770    1.5440 O   0  0  0  0  0  0  0  0  0  0  0  0
    6.0420   -0.6130    2.3020 O   0  0  0  0  0  0  0  0  0  0  0  0
    1.3340   -1.7260    0.1040 N   0  0  0  0  0  0  0  0  0  0  0  0
    0.1370   -2.0600   -0.5880 C   0  0  0  0  0  0  0  0  0  0  0  0
   -0.2200   -3.1930   -0.9980 O   0  0  0  0  0  0  0  0  0  0  0  0
   -0.5920   -0.7730   -0.7160 C   0  0  1  0  0  0  0  0  0  0  0  0
   -0.9290   -0.4350   -2.1340 C   0  0  0  0  0  0  0  0  0  0  0  0
   -1.5740    0.9490   -2.1240 C   0  0  0  0  0  0  0  0  0  0  0  0
   -2.2660    1.1830   -0.9410 O   0  0  0  0  0  0  0  0  0  0  0  0
   -2.9160    0.0420   -0.4930 C   0  0  2  0  0  0  0  0  0  0  0  0
   -3.9300    0.4480    0.5530 C   0  0  0  0  0  0  0  0  0  0  0  0
   -3.3170    1.0890    1.6550 O   0  0  0  0  0  0  0  0  0  0  0  0
   -4.0870    1.5320    2.7140 C   0  0  0  0  0  0  0  0  0  0  0  0
   -5.3260    1.3820    2.7270 O   0  0  0  0  0  0  0  0  0  0  0  0
   -1.8870   -0.9060    0.0520 C   0  0  0  0  0  0  0  0  0  0  0  0
    0.2450    0.1830   -0.2020 O   0  0  0  0  0  0  0  0  0  0  0  0
  2  1  1  6
  2  3  1  0
  2  8  1  0
  2 21  1  0
  3  4  1  0
  4  5  1  0
  5  6  1  0
  5  7  1  0
  8  9  1  0
  9 10  2  0
  9 11  1  0
 11 12  1  6
 11 20  1  0
 11 21  1  0
 12 13  1  0
 13 14  1  0
 14 15  1  0
 15 16  1  1
 15 20  1  0
 16 17  1  0
 17 18  1  0
 18 19  2  0
M  END
