
     RDKit          3D

 40 42  0  0  0  0  0  0  0  0999 V2000
    2.3440    3.7670   -0.6540 C   0  0  0  0  0  0  0  0  0  0  0  0
    0.8610    3.9270   -0.8380 C   0  0  1  0  0  0  0  0  0  0  0  0
    0.6660    4.4450   -2.1370 O   0  0  0  0  0  0  0  0  0  0  0  0
    0.1410    2.5820   -0.8020 C   0  0  2  0  0  0  0  0  0  0  0  0
    0.6460    1.7080   -1.8790 C   0  0  0  0  0  0  0  0  0  0  0  0
    0.7520    2.1890   -3.0350 O   0  0  0  0  0  0  0  0  0  0  0  0
    0.9920    0.4110   -1.6490 O   0  0  0  0  0  0  0  0  0  0  0  0
    1.7080   -0.0690   -0.5120 C   0  0  2  0  0  0  0  0  0  0  0  0
    2.6840   -1.1030   -1.0320 C   0  0  1  0  0  0  0  0  0  0  0  0
    3.4650   -0.4100   -1.9870 O   0  0  0  0  0  0  0  0  0  0  0  0
    3.6620   -1.5630   -0.0190 C   0  0  0  0  0  0  0  0  0  0  0  0
    3.9140   -0.8730    1.1380 C   0  0  0  0  0  0  0  0  0  0  0  0
    4.8590   -1.3280    2.0670 C   0  0  0  0  0  0  0  0  0  0  0  0
    5.5480   -2.4910    1.8110 C   0  0  0  0  0  0  0  0  0  0  0  0
    6.4570   -2.9130    2.7180 F   0  0  0  0  0  0  0  0  0  0  0  0
    5.2860   -3.1880    0.6260 C   0  0  0  0  0  0  0  0  0  0  0  0
    5.9700   -4.3220    0.3890 F   0  0  0  0  0  0  0  0  0  0  0  0
    4.3540   -2.7240   -0.2700 C   0  0  0  0  0  0  0  0  0  0  0  0
    4.1360   -3.4510   -1.4130 F   0  0  0  0  0  0  0  0  0  0  0  0
    0.7130   -0.7270    0.4080 C   0  0  0  0  0  0  0  0  0  0  0  0
    1.1630   -1.3220    1.4110 O   0  0  0  0  0  0  0  0  0  0  0  0
   -0.6090   -0.6730    0.1540 O   0  0  0  0  0  0  0  0  0  0  0  0
   -1.3360   -1.0090   -0.9830 C   0  0  0  0  0  0  0  0  0  0  0  0
   -2.6390   -1.5930   -0.4930 C   0  0  0  0  0  0  0  0  0  0  0  0
   -2.8000   -3.0030   -0.7680 N   0  0  0  0  0  0  0  0  0  0  0  0
   -2.4680   -4.0030    0.2170 C   0  0  0  0  0  0  0  0  0  0  0  0
   -2.7180   -5.2810   -0.2700 O   0  0  0  0  0  0  0  0  0  0  0  0
   -2.4250   -6.2180    0.6010 F   0  0  0  0  0  0  0  0  0  0  0  0
   -3.5370   -0.8920    0.1330 C   0  0  0  0  0  0  0  0  0  0  0  0
   -4.8370   -1.3950    0.6450 C   0  0  0  0  0  0  0  0  0  0  0  0
   -5.4720   -2.4200    0.2690 O   0  0  0  0  0  0  0  0  0  0  0  0
   -5.2500   -0.4820    1.6690 N   0  0  0  0  0  0  0  0  0  0  0  0
   -4.1730    0.4240    1.9060 C   0  0  2  0  0  0  0  0  0  0  0  0
   -4.5190    1.6530    2.4090 O   0  0  0  0  0  0  0  0  0  0  0  0
   -3.5350    0.5210    0.5020 C   0  0  1  0  0  0  0  0  0  0  0  0
   -2.3360    1.1530    0.6810 O   0  0  0  0  0  0  0  0  0  0  0  0
   -1.8820    2.4130    0.4990 C   0  0  0  0  0  0  0  0  0  0  0  0
   -1.8330    3.3590    1.3320 O   0  0  0  0  0  0  0  0  0  0  0  0
   -1.3630    2.7840   -0.8460 C   0  0  1  0  0  0  0  0  0  0  0  0
   -1.5890    4.1640   -1.0890 O   0  0  0  0  0  0  0  0  0  0  0  0
  2  1  1  6
  2  3  1  0
  2  4  1  0
  4  5  1  6
  4 39  1  0
  5  6  2  0
  5  7  1  0
  8  7  1  6
  8  9  1  0
  8 20  1  0
  9 10  1  6
  9 11  1  0
 11 12  2  0
 11 18  1  0
 12 13  1  0
 13 14  2  0
 14 15  1  0
 14 16  1  0
 16 17  1  0
 16 18  2  0
 18 19  1  0
 20 21  2  0
 20 22  1  0
 22 23  1  0
 23 24  1  0
 24 25  1  0
 24 29  2  0
 25 26  1  0
 26 27  1  0
 27 28  1  0
 29 30  1  0
 29 35  1  0
 30 31  2  0
 30 32  1  0
 32 33  1  0
 33 34  1  6
 33 35  1  0
 35 36  1  1
 36 37  1  0
 37 38  2  0
 37 39  1  0
 39 40  1  1
M  END
