
     RDKit          3D

 40 41  0  0  0  0  0  0  0  0999 V2000
   -0.6390    7.2030    0.1870 C   0  0  0  0  0  0  0  0  0  0  0  0
   -1.8060    7.0690    0.7370 C   0  0  0  0  0  0  0  0  0  0  0  0
   -2.6130    5.9280    1.0490 C   0  0  0  0  0  0  0  0  0  0  0  0
   -3.8270    6.1860    1.5900 C   0  0  0  0  0  0  0  0  0  0  0  0
   -4.2860    7.5780    1.8380 C   0  0  0  0  0  0  0  0  0  0  0  0
   -2.2910    4.5590    0.7920 C   0  0  0  0  0  0  0  0  0  0  0  0
   -1.0180    4.0830    0.6980 C   0  0  0  0  0  0  0  0  0  0  0  0
   -0.6970    2.7460    0.3600 C   0  0  0  0  0  0  0  0  0  0  0  0
   -1.7180    1.8840    0.1140 C   0  0  0  0  0  0  0  0  0  0  0  0
   -1.5440    0.5190   -0.2300 N   0  0  0  0  0  0  0  0  0  0  0  0
   -0.5950    0.1200   -1.2360 C   0  0  0  0  0  0  0  0  0  0  0  0
    0.6750   -0.3210   -0.5820 C   0  0  0  0  0  0  0  0  0  0  0  0
    1.6410   -0.7360   -1.7110 C   0  0  0  0  0  0  0  0  0  0  0  0
    2.8120   -1.2240   -1.0310 N   0  0  0  0  0  0  0  0  0  0  0  0
    4.0600   -1.7490   -2.1000 S   0  0  2  0  0  0  0  0  0  0  0  0
    4.1460   -0.8250   -3.2990 O   0  0  0  0  0  0  0  0  0  0  0  0
    3.8010   -3.1370   -2.6060 O   0  0  0  0  0  0  0  0  0  0  0  0
    5.5780   -1.6250   -1.2810 N   0  0  0  0  0  0  0  0  0  0  0  0
    6.0170   -0.2550   -1.3490 C   0  0  0  0  0  0  0  0  0  0  0  0
    7.3460   -0.0540   -0.6510 C   0  0  2  0  0  0  0  0  0  0  0  0
    7.2410   -0.3800    0.8260 C   0  0  0  0  0  0  0  0  0  0  0  0
    8.6900   -0.4110    1.3250 C   0  0  0  0  0  0  0  0  0  0  0  0
    9.5740    0.2890    0.3230 C   0  0  0  0  0  0  0  0  0  0  0  0
    8.9510    1.4880   -0.3010 C   0  0  0  0  0  0  0  0  0  0  0  0
    7.6730    1.2870   -0.7620 O   0  0  0  0  0  0  0  0  0  0  0  0
   -2.3650   -0.4970    0.3710 C   0  0  0  0  0  0  0  0  0  0  0  0
   -3.2000   -0.1410    1.2250 O   0  0  0  0  0  0  0  0  0  0  0  0
   -2.2210   -1.8310    0.0030 N   0  0  0  0  0  0  0  0  0  0  0  0
   -2.9400   -2.9630    0.4810 C   0  0  0  0  0  0  0  0  0  0  0  0
   -4.3720   -3.0150    0.2190 C   0  0  2  0  0  0  0  0  0  0  0  0
   -5.2780   -2.0180    0.8060 C   0  0  0  0  0  0  0  0  0  0  0  0
   -4.9600   -4.4130    0.3630 C   0  0  0  0  0  0  0  0  0  0  0  0
   -6.1930   -4.6770   -0.3560 C   0  0  0  0  0  0  0  0  0  0  0  0
   -6.7780   -3.7760   -1.1140 C   0  0  0  0  0  0  0  0  0  0  0  0
   -4.3050   -5.2340    1.1110 C   0  0  0  0  0  0  0  0  0  0  0  0
   -4.5170   -6.6300    1.5010 C   0  0  0  0  0  0  0  0  0  0  0  0
   -5.9360   -7.4230    0.8450 S   0  0  0  0  0  0  0  0  0  0  0  0
   -5.6180   -8.2150   -0.4050 O   0  0  0  0  0  0  0  0  0  0  0  0
   -3.0480    2.3180    0.1970 C   0  0  0  0  0  0  0  0  0  0  0  0
   -3.3030    3.6210    0.5280 C   0  0  0  0  0  0  0  0  0  0  0  0
  1  2  2  0
  2  3  1  0
  3  4  2  3
  3  6  1  0
  4  5  1  0
  6  7  2  0
  6 40  1  0
  7  8  1  0
  8  9  2  0
  9 10  1  0
  9 39  1  0
 10 11  1  0
 10 26  1  0
 11 12  1  0
 12 13  1  0
 13 14  1  0
 15 14  1  1
 15 16  2  0
 15 17  2  0
 15 18  1  0
 18 19  1  0
 20 19  1  6
 20 21  1  0
 20 25  1  0
 21 22  1  0
 22 23  1  0
 23 24  1  0
 24 25  1  0
 26 27  2  0
 26 28  1  0
 28 29  1  0
 29 30  1  0
 30 31  1  1
 30 32  1  0
 32 33  1  0
 32 35  2  3
 33 34  2  0
 35 36  1  0
 36 37  1  0
 37 38  2  0
 39 40  2  0
M  END
