
     RDKit          3D

 39 41  0  0  0  0  0  0  0  0999 V2000
    7.0350   -2.6250   -1.1480 C   0  0  0  0  0  0  0  0  0  0  0  0
    5.8470   -2.9470   -0.4320 O   0  0  0  0  0  0  0  0  0  0  0  0
    5.2940   -1.9990    0.4240 C   0  0  0  0  0  0  0  0  0  0  0  0
    5.7040   -2.0070    1.7390 C   0  0  0  0  0  0  0  0  0  0  0  0
    6.6410   -2.9310    2.1980 O   0  0  0  0  0  0  0  0  0  0  0  0
    5.1340   -1.0490    2.5680 C   0  0  0  0  0  0  0  0  0  0  0  0
    4.2010   -0.1320    2.1020 C   0  0  0  0  0  0  0  0  0  0  0  0
    3.8070   -0.1410    0.7890 C   0  0  0  0  0  0  0  0  0  0  0  0
    4.3670   -1.0880   -0.0410 C   0  0  0  0  0  0  0  0  0  0  0  0
    3.9410   -1.0700   -1.3740 O   0  0  0  0  0  0  0  0  0  0  0  0
    2.5620   -0.7830   -1.6610 C   0  0  0  0  0  0  0  0  0  0  0  0
    2.1370    0.4650   -0.9330 C   0  0  1  0  0  0  0  0  0  0  0  0
    0.6730    0.4040   -0.4840 C   0  0  2  0  0  0  0  0  0  0  0  0
   -0.1810    0.1140   -1.6070 N   0  0  0  0  0  0  0  0  0  0  0  0
   -1.5690    0.3450   -1.6600 C   0  0  0  0  0  0  0  0  0  0  0  0
   -2.0400    0.5270   -2.8440 O   0  0  0  0  0  0  0  0  0  0  0  0
   -2.4160    0.3900   -0.6060 O   0  0  0  0  0  0  0  0  0  0  0  0
   -2.8240   -0.5790    0.3010 C   0  0  2  0  0  0  0  0  0  0  0  0
   -2.2850   -1.9550    0.0230 C   0  0  0  0  0  0  0  0  0  0  0  0
   -2.7100   -2.8820    0.9720 O   0  0  0  0  0  0  0  0  0  0  0  0
   -4.3590   -0.5780    0.4080 C   0  0  2  0  0  0  0  0  0  0  0  0
   -4.8270   -1.5190    1.2730 O   0  0  0  0  0  0  0  0  0  0  0  0
   -5.0150   -0.4880   -0.9160 C   0  0  0  0  0  0  0  0  0  0  0  0
   -4.9980   -1.6200   -1.7650 N   0  0  0  0  0  0  0  0  0  0  0  0
   -5.7720   -2.7500   -1.4240 C   0  0  2  0  0  0  0  0  0  0  0  0
   -5.6970   -3.7420   -2.4270 F   0  0  0  0  0  0  0  0  0  0  0  0
   -7.1390   -2.4690   -1.3390 F   0  0  0  0  0  0  0  0  0  0  0  0
   -5.4010   -3.4060   -0.2740 F   0  0  0  0  0  0  0  0  0  0  0  0
   -2.3370   -0.1940    1.6900 C   0  0  0  0  0  0  0  0  0  0  0  0
   -2.6220    1.2620    1.9700 C   0  0  0  0  0  0  0  0  0  0  0  0
   -2.5810    2.0280    0.7910 O   0  0  0  0  0  0  0  0  0  0  0  0
   -1.5940    2.9880    0.9000 C   0  0  0  0  0  0  0  0  0  0  0  0
   -1.0000    3.4010   -0.4290 C   0  0  1  0  0  0  0  0  0  0  0  0
   -0.8610    4.7910   -0.3950 O   0  0  0  0  0  0  0  0  0  0  0  0
    0.3610    2.7130   -0.6180 C   0  0  1  0  0  0  0  0  0  0  0  0
    1.3720    3.7600   -0.1490 C   0  0  0  0  0  0  0  0  0  0  0  0
    1.2380    4.8410   -1.0320 O   0  0  0  0  0  0  0  0  0  0  0  0
    0.3670    1.5830    0.1540 O   0  0  0  0  0  0  0  0  0  0  0  0
    2.8900    0.7260    0.2300 O   0  0  0  0  0  0  0  0  0  0  0  0
  1  2  1  0
  2  3  1  0
  3  4  2  0
  3  9  1  0
  4  5  1  0
  4  6  1  0
  6  7  2  0
  7  8  1  0
  8  9  2  0
  8 39  1  0
  9 10  1  0
 10 11  1  0
 12 11  1  1
 12 13  1  0
 12 39  1  0
 13 14  1  6
 13 38  1  0
 14 15  1  0
 15 16  2  0
 15 17  1  0
 17 18  1  0
 18 19  1  6
 18 21  1  0
 18 29  1  0
 19 20  1  0
 21 22  1  6
 21 23  1  0
 23 24  1  0
 24 25  1  0
 25 26  1  6
 25 27  1  0
 25 28  1  0
 29 30  1  0
 30 31  1  0
 31 32  1  0
 32 33  1  0
 33 34  1  1
 33 35  1  0
 35 36  1  1
 35 38  1  0
 36 37  1  0
M  END
