
     RDKit          3D

 40 42  0  0  0  0  0  0  0  0999 V2000
   12.1770   -0.3220   -0.8690 C   0  0  0  0  0  0  0  0  0  0  0  0
   11.5730   -0.6310    0.4850 C   0  0  0  0  0  0  0  0  0  0  0  0
   10.5930    0.4500    0.7660 C   0  0  0  0  0  0  0  0  0  0  0  0
   10.8220    1.4510    1.6030 O   0  0  0  0  0  0  0  0  0  0  0  0
    9.7910    2.2450    1.6460 N   0  0  0  0  0  0  0  0  0  0  0  0
    8.8340    1.7930    0.8300 C   0  0  0  0  0  0  0  0  0  0  0  0
    9.3410    0.6480    0.2680 C   0  0  0  0  0  0  0  0  0  0  0  0
    8.6710   -0.2720   -0.7230 C   0  0  0  0  0  0  0  0  0  0  0  0
    7.3330    0.2880   -0.9880 N   0  0  0  0  0  0  0  0  0  0  0  0
    6.4520    0.3180    0.1290 C   0  0  0  0  0  0  0  0  0  0  0  0
    6.8180   -0.1500    1.2590 O   0  0  0  0  0  0  0  0  0  0  0  0
    5.1380    0.9270   -0.1190 C   0  0  2  0  0  0  0  0  0  0  0  0
    5.2410    2.3450   -0.5820 C   0  0  0  0  0  0  0  0  0  0  0  0
    4.0890    0.7850    1.3530 S   0  0  0  0  0  0  0  0  0  0  0  0
    2.5660    0.0100    0.7700 C   0  0  0  0  0  0  0  0  0  0  0  0
    2.1890   -1.2460    1.0920 C   0  0  0  0  0  0  0  0  0  0  0  0
    0.9380   -1.7390    0.6800 C   0  0  0  0  0  0  0  0  0  0  0  0
    0.1270   -0.9310   -0.0430 C   0  0  0  0  0  0  0  0  0  0  0  0
   -1.2830   -1.1680   -0.2280 C   0  0  0  0  0  0  0  0  0  0  0  0
   -1.9780   -0.4930   -1.0420 O   0  0  0  0  0  0  0  0  0  0  0  0
   -1.9710   -2.1500    0.5290 O   0  0  0  0  0  0  0  0  0  0  0  0
   -3.4000   -2.2010    0.3850 C   0  0  0  0  0  0  0  0  0  0  0  0
   -3.8980   -0.8620    0.9510 C   0  0  0  0  0  0  0  0  0  0  0  0
   -3.0520    0.0570    1.4730 C   0  0  0  0  0  0  0  0  0  0  0  0
   -3.5820    1.2580    1.9860 C   0  0  0  0  0  0  0  0  0  0  0  0
   -4.9300    1.5110    1.9610 C   0  0  0  0  0  0  0  0  0  0  0  0
   -5.7690    0.5290    1.4110 C   0  0  0  0  0  0  0  0  0  0  0  0
   -7.1120    1.0270    1.0290 C   0  0  0  0  0  0  0  0  0  0  0  0
   -7.1050    1.9420    0.0440 C   0  0  0  0  0  0  0  0  0  0  0  0
   -8.2940    2.5750   -0.4900 C   0  0  0  0  0  0  0  0  0  0  0  0
   -8.2700    4.0240   -0.5340 N   0  0  0  0  0  0  0  0  0  0  0  0
   -5.2390   -0.6460    0.9180 C   0  0  0  0  0  0  0  0  0  0  0  0
   -6.0900   -1.6320    0.2230 C   0  0  0  0  0  0  0  0  0  0  0  0
   -7.1430   -2.1200    1.1640 N   0  0  0  0  0  0  0  0  0  0  0  0
   -8.0110   -3.0610    0.5450 C   0  0  0  0  0  0  0  0  0  0  0  0
   -9.1190   -2.5650   -0.2970 C   0  0  0  0  0  0  0  0  0  0  0  0
   -8.7290   -1.5130   -1.6570 S   0  0  0  0  0  0  0  0  0  0  0  0
   -8.3400   -2.1840   -2.9290 O   0  0  0  0  0  0  0  0  0  0  0  0
    0.5440    0.3480   -0.3710 C   0  0  0  0  0  0  0  0  0  0  0  0
    1.7440    0.8310    0.0240 C   0  0  0  0  0  0  0  0  0  0  0  0
  1  2  1  0
  2  3  1  0
  3  4  1  0
  3  7  2  0
  4  5  1  0
  5  6  2  0
  6  7  1  0
  7  8  1  0
  8  9  1  0
  9 10  1  0
 10 11  2  0
 10 12  1  0
 12 13  1  1
 12 14  1  0
 14 15  1  0
 15 16  2  0
 15 40  1  0
 16 17  1  0
 17 18  2  0
 18 19  1  0
 18 39  1  0
 19 20  2  0
 19 21  1  0
 21 22  1  0
 22 23  1  0
 23 24  2  0
 23 32  1  0
 24 25  1  0
 25 26  2  0
 26 27  1  0
 27 28  1  0
 27 32  2  0
 28 29  2  3
 29 30  1  0
 30 31  1  0
 32 33  1  0
 33 34  1  0
 34 35  1  0
 35 36  1  0
 36 37  1  0
 37 38  2  0
 39 40  2  0
M  END
