
     RDKit          3D

 39 40  0  0  0  0  0  0  0  0999 V2000
   -3.6260    2.6620   -3.6770 C   0  0  0  0  0  0  0  0  0  0  0  0
   -2.6870    1.7560   -3.1290 O   0  0  0  0  0  0  0  0  0  0  0  0
   -2.2960    1.8150   -1.7770 C   0  0  0  0  0  0  0  0  0  0  0  0
   -2.8350    2.7130   -1.1170 O   0  0  0  0  0  0  0  0  0  0  0  0
   -1.3220    0.8830   -1.1930 C   0  0  2  0  0  0  0  0  0  0  0  0
   -0.2530    1.6620   -0.4450 C   0  0  0  0  0  0  0  0  0  0  0  0
   -0.6380    0.3480   -2.3470 O   0  0  0  0  0  0  0  0  0  0  0  0
   -1.8630   -0.2860   -0.4170 C   0  0  1  0  0  0  0  0  0  0  0  0
   -2.6360   -0.0960    0.7890 C   0  0  0  0  0  0  0  0  0  0  0  0
   -3.9170    0.6000    0.8840 C   0  0  0  0  0  0  0  0  0  0  0  0
   -4.3290    0.4390    2.3940 C   0  0  1  0  0  0  0  0  0  0  0  0
   -5.5210    1.0540    2.6050 F   0  0  0  0  0  0  0  0  0  0  0  0
   -4.3090   -0.8960    2.7310 F   0  0  0  0  0  0  0  0  0  0  0  0
   -3.3570    1.0740    3.1410 F   0  0  0  0  0  0  0  0  0  0  0  0
   -2.7120   -1.0320   -1.5070 C   0  0  2  0  0  0  0  0  0  0  0  0
   -3.7880   -0.2550   -1.8790 O   0  0  0  0  0  0  0  0  0  0  0  0
   -3.0940   -2.4010   -1.1100 C   0  0  1  0  0  0  0  0  0  0  0  0
   -3.0250   -3.3530   -2.3160 C   0  0  0  0  0  0  0  0  0  0  0  0
   -2.5280   -2.9320   -0.0000 O   0  0  0  0  0  0  0  0  0  0  0  0
   -1.2470   -2.6400    0.2900 C   0  0  1  0  0  0  0  0  0  0  0  0
   -1.0230   -2.7130    1.7850 C   0  0  0  0  0  0  0  0  0  0  0  0
   -0.3550   -3.6050   -0.2560 O   0  0  0  0  0  0  0  0  0  0  0  0
   -0.7360   -1.2830   -0.2110 C   0  0  2  0  0  0  0  0  0  0  0  0
    0.2820   -0.8780    0.6100 O   0  0  0  0  0  0  0  0  0  0  0  0
    1.4990   -1.0340   -0.0700 C   0  0  0  0  0  0  0  0  0  0  0  0
    2.6410   -0.6100    0.7390 C   0  0  0  0  0  0  0  0  0  0  0  0
    3.8330   -0.7050    0.4120 O   0  0  0  0  0  0  0  0  0  0  0  0
    2.4910   -0.0450    1.9880 N   0  0  0  0  0  0  0  0  0  0  0  0
    3.5270    0.5060    2.7950 C   0  0  0  0  0  0  0  0  0  0  0  0
    3.4620    0.1690    3.9850 N   0  0  0  0  0  0  0  0  0  0  0  0
    4.5000    0.7930    4.6900 C   0  0  0  0  0  0  0  0  0  0  0  0
    4.7460    0.6360    5.8900 O   0  0  0  0  0  0  0  0  0  0  0  0
    5.2400    1.6430    3.7890 C   0  0  0  0  0  0  0  0  0  0  0  0
    6.3220    2.4580    4.0030 O   0  0  0  0  0  0  0  0  0  0  0  0
    4.6220    1.4710    2.6180 C   0  0  0  0  0  0  0  0  0  0  0  0
    4.9180    2.0860    1.4880 O   0  0  0  0  0  0  0  0  0  0  0  0
    5.1250    2.0660    0.1830 C   0  0  0  0  0  0  0  0  0  0  0  0
    6.2610    1.2500   -0.3430 C   0  0  0  0  0  0  0  0  0  0  0  0
    6.3120    1.3540   -1.7440 O   0  0  0  0  0  0  0  0  0  0  0  0
  1  2  1  0
  2  3  1  0
  3  4  2  0
  3  5  1  0
  5  6  1  1
  5  7  1  0
  5  8  1  0
  8  9  1  1
  8 15  1  0
  8 23  1  0
  9 10  1  0
 10 11  1  0
 11 12  1  6
 11 13  1  0
 11 14  1  0
 15 16  1  1
 15 17  1  0
 17 18  1  6
 17 19  1  0
 19 20  1  0
 20 21  1  1
 20 22  1  0
 20 23  1  0
 23 24  1  1
 24 25  1  0
 25 26  1  0
 26 27  2  0
 26 28  1  0
 28 29  1  0
 29 30  2  0
 29 35  1  0
 30 31  1  0
 31 32  2  0
 31 33  1  0
 33 34  1  0
 33 35  2  0
 35 36  1  0
 36 37  1  0
 37 38  1  0
 38 39  1  0
M  END
