
     RDKit          3D

 40 44  0  0  0  0  0  0  0  0999 V2000
   -5.7980    1.7040   -3.5090 N   0  0  0  0  0  0  0  0  0  0  0  0
   -4.7010    2.2610   -2.8100 C   0  0  0  0  0  0  0  0  0  0  0  0
   -4.0920    3.4000   -3.3450 C   0  0  0  0  0  0  0  0  0  0  0  0
   -3.0250    3.9340   -2.6580 C   0  0  0  0  0  0  0  0  0  0  0  0
   -2.5390    3.3940   -1.4740 C   0  0  0  0  0  0  0  0  0  0  0  0
   -3.1470    2.2740   -0.9600 C   0  0  0  0  0  0  0  0  0  0  0  0
   -2.6690    1.6520    0.3080 C   0  0  0  0  0  0  0  0  0  0  0  0
   -1.6090    0.6910    0.1080 N   0  0  0  0  0  0  0  0  0  0  0  0
   -0.3160    1.2640    0.1920 C   0  0  0  0  0  0  0  0  0  0  0  0
   -0.2010    2.3940    0.7520 O   0  0  0  0  0  0  0  0  0  0  0  0
    0.9400    0.7460   -0.2740 N   0  0  0  0  0  0  0  0  0  0  0  0
    1.9650    1.7590   -0.4690 C   0  0  0  0  0  0  0  0  0  0  0  0
    2.7640    1.9750    0.7620 C   0  0  0  0  0  0  0  0  0  0  0  0
    2.5420    1.3240    1.9520 C   0  0  0  0  0  0  0  0  0  0  0  0
    3.3530    1.6070    3.0350 C   0  0  0  0  0  0  0  0  0  0  0  0
    4.3820    2.5220    2.9630 C   0  0  0  0  0  0  0  0  0  0  0  0
    4.6140    3.1820    1.7710 C   0  0  0  0  0  0  0  0  0  0  0  0
    5.6570    4.1400    1.6210 N   0  0  0  0  0  0  0  0  0  0  0  0
    3.7920    2.8920    0.6850 C   0  0  0  0  0  0  0  0  0  0  0  0
    1.3530   -0.5890   -0.5600 C   0  0  2  0  0  0  0  0  0  0  0  0
    1.7900   -0.8840   -1.9400 C   0  0  0  0  0  0  0  0  0  0  0  0
    2.2180   -2.2860   -2.1520 C   0  0  0  0  0  0  0  0  0  0  0  0
    1.3520   -3.2460   -2.5980 C   0  0  0  0  0  0  0  0  0  0  0  0
    1.8100   -4.5610   -2.7720 C   0  0  0  0  0  0  0  0  0  0  0  0
    3.1170   -4.8970   -2.5020 C   0  0  0  0  0  0  0  0  0  0  0  0
    4.0020   -3.9340   -2.0510 C   0  0  0  0  0  0  0  0  0  0  0  0
    3.5420   -2.6560   -1.8850 C   0  0  0  0  0  0  0  0  0  0  0  0
    0.3040   -1.5180    0.0130 C   0  0  2  0  0  0  0  0  0  0  0  0
    0.8140   -2.7790    0.2750 O   0  0  0  0  0  0  0  0  0  0  0  0
   -0.9870   -1.5330   -0.7270 C   0  0  1  0  0  0  0  0  0  0  0  0
   -1.5060   -2.8250   -0.7860 O   0  0  0  0  0  0  0  0  0  0  0  0
   -2.0650   -0.6400   -0.1450 C   0  0  1  0  0  0  0  0  0  0  0  0
   -2.9010   -1.2750    0.9080 C   0  0  0  0  0  0  0  0  0  0  0  0
   -2.3240   -1.4530    2.2340 C   0  0  0  0  0  0  0  0  0  0  0  0
   -1.6770   -2.6100    2.6070 C   0  0  0  0  0  0  0  0  0  0  0  0
   -1.1330   -2.7760    3.8600 C   0  0  0  0  0  0  0  0  0  0  0  0
   -1.2220   -1.7750    4.7930 C   0  0  0  0  0  0  0  0  0  0  0  0
   -1.8620   -0.6090    4.4500 C   0  0  0  0  0  0  0  0  0  0  0  0
   -2.3910   -0.4770    3.1960 C   0  0  0  0  0  0  0  0  0  0  0  0
   -4.2160    1.7300   -1.6380 C   0  0  0  0  0  0  0  0  0  0  0  0
  1  2  1  0
  2  3  2  0
  2 40  1  0
  3  4  1  0
  4  5  2  0
  5  6  1  0
  6  7  1  0
  6 40  2  0
  7  8  1  0
  8  9  1  0
  8 32  1  0
  9 10  2  0
  9 11  1  0
 11 12  1  0
 11 20  1  0
 12 13  1  0
 13 14  2  0
 13 19  1  0
 14 15  1  0
 15 16  2  0
 16 17  1  0
 17 18  1  0
 17 19  2  0
 20 21  1  6
 20 28  1  0
 21 22  1  0
 22 23  2  0
 22 27  1  0
 23 24  1  0
 24 25  2  0
 25 26  1  0
 26 27  2  0
 28 29  1  6
 28 30  1  0
 30 31  1  1
 30 32  1  0
 32 33  1  1
 33 34  1  0
 34 35  2  0
 34 39  1  0
 35 36  1  0
 36 37  2  0
 37 38  1  0
 38 39  2  0
M  END
