
     RDKit          3D

 15 15  0  0  0  0  0  0  0  0999 V2000
    5.0830    1.5290    0.9030 O   0  0  0  0  0  0  0  0  0  0  0  0
    3.6180    1.2930    0.4690 P   0  0  0  0  0  0  0  0  0  0  0  0
    2.6320   -0.1340    0.9700 C   0  0  0  0  0  0  0  0  0  0  0  0
    3.1460   -1.0800    1.5990 O   0  0  0  0  0  0  0  0  0  0  0  0
    1.2590   -0.1870    0.6480 N   0  0  0  0  0  0  0  0  0  0  0  0
    0.7730   -1.2190    0.0530 C   0  0  0  0  0  0  0  0  0  0  0  0
   -0.6410   -1.2600   -0.2730 C   0  0  0  0  0  0  0  0  0  0  0  0
   -1.2420   -2.3350   -0.9130 C   0  0  0  0  0  0  0  0  0  0  0  0
   -2.5160   -2.0160   -1.0370 O   0  0  0  0  0  0  0  0  0  0  0  0
   -2.7570   -0.8190   -0.5220 C   0  0  0  0  0  0  0  0  0  0  0  0
   -1.5890   -0.2940   -0.0190 C   0  0  0  0  0  0  0  0  0  0  0  0
   -1.3640    0.9140    0.6030 O   0  0  0  0  0  0  0  0  0  0  0  0
   -1.0220    2.0270   -0.1450 C   0  0  0  0  0  0  0  0  0  0  0  0
   -0.9280    1.8900   -1.3880 O   0  0  0  0  0  0  0  0  0  0  0  0
   -0.7980    3.2390    0.4910 O   0  0  0  0  0  0  0  0  0  0  0  0
  1  2  2  0
  2  3  1  0
  3  4  2  0
  3  5  1  0
  5  6  2  3
  6  7  1  0
  7  8  2  0
  7 11  1  0
  8  9  1  0
  9 10  1  0
 10 11  2  0
 11 12  1  0
 12 13  1  0
 13 14  2  0
 13 15  1  0
M  END
