
     RDKit          3D

 16 16  0  0  0  0  0  0  0  0999 V2000
    4.2300    1.7650    0.1440 C   0  0  0  0  0  0  0  0  0  0  0  0
    3.0120    0.9450   -0.1370 C   0  0  0  0  0  0  0  0  0  0  0  0
    3.3370   -0.3990    0.0720 O   0  0  0  0  0  0  0  0  0  0  0  0
    1.9390   -1.4130   -0.2440 P   0  0  0  0  0  0  0  0  0  0  0  0
    0.4310   -0.3790   -0.5520 C   0  0  0  0  0  0  0  0  0  0  0  0
   -0.5070   -0.4000    0.4970 N   0  0  0  0  0  0  0  0  0  0  0  0
   -1.0680   -1.6340    0.8610 C   0  0  0  0  0  0  0  0  0  0  0  0
   -2.5500   -1.7060    0.6750 C   0  0  0  0  0  0  0  0  0  0  0  0
   -3.2040   -0.5110    0.9240 O   0  0  0  0  0  0  0  0  0  0  0  0
   -2.6650    0.5000    0.1670 C   0  0  1  0  0  0  0  0  0  0  0  0
   -3.4660    1.7110    0.1010 C   0  0  0  0  0  0  0  0  0  0  0  0
   -4.5590    1.7970    0.7000 O   0  0  0  0  0  0  0  0  0  0  0  0
   -3.0270    2.7950   -0.6300 O   0  0  0  0  0  0  0  0  0  0  0  0
   -1.2610    0.7650    0.7320 C   0  0  0  0  0  0  0  0  0  0  0  0
    2.2830   -2.2890   -1.7000 O   0  0  0  0  0  0  0  0  0  0  0  0
    2.0080   -3.5700   -1.5770 O   0  0  0  0  0  0  0  0  0  0  0  0
  1  2  1  0
  2  3  1  0
  3  4  1  0
  4  5  1  0
  4 15  1  0
  5  6  1  0
  6  7  1  0
  6 14  1  0
  7  8  1  0
  8  9  1  0
  9 10  1  0
 10 11  1  1
 10 14  1  0
 11 12  2  0
 11 13  1  0
 15 16  1  0
M  END
