
     RDKit          3D

 24 26  0  0  0  0  0  0  0  0999 V2000
    4.7830   -2.8410   -1.4680 N   0  0  0  0  0  0  0  0  0  0  0  0
    4.2490   -1.5190   -1.4190 C   0  0  0  0  0  0  0  0  0  0  0  0
    3.1970   -1.2070   -0.6480 N   0  0  0  0  0  0  0  0  0  0  0  0
    2.7210    0.0680   -0.5770 C   0  0  0  0  0  0  0  0  0  0  0  0
    1.7040    0.6240    0.1640 C   0  0  0  0  0  0  0  0  0  0  0  0
    0.7100   -0.1340    0.9860 C   0  0  2  0  0  0  0  0  0  0  0  0
   -0.5620   -0.1350    0.1980 N   0  0  0  0  0  0  0  0  0  0  0  0
   -1.5190   -0.6200    1.1610 C   0  0  2  0  0  0  0  0  0  0  0  0
   -2.9010   -0.1220    0.7430 C   0  0  0  0  0  0  0  0  0  0  0  0
   -3.2710   -0.5670   -0.4960 O   0  0  0  0  0  0  0  0  0  0  0  0
   -4.5820   -0.1730   -1.1630 P   0  0  0  0  0  0  0  0  0  0  0  0
   -5.1360    0.4370    0.2820 O   0  0  0  0  0  0  0  0  0  0  0  0
   -3.7570    0.8930   -2.1360 O   0  0  0  0  0  0  0  0  0  0  0  0
   -5.8950    0.2290   -1.8630 O   0  0  0  0  0  0  0  0  0  0  0  0
   -1.1590    0.0980    2.4500 C   0  0  1  0  0  0  0  0  0  0  0  0
   -1.1670   -0.8410    3.4720 O   0  0  0  0  0  0  0  0  0  0  0  0
    0.2040    0.6640    2.1730 C   0  0  1  0  0  0  0  0  0  0  0  0
    1.0230    0.3270    3.2770 O   0  0  0  0  0  0  0  0  0  0  0  0
    1.6620    1.9700   -0.0890 C   0  0  0  0  0  0  0  0  0  0  0  0
    2.6550    2.2090   -0.9870 N   0  0  0  0  0  0  0  0  0  0  0  0
    3.3080    1.0970   -1.3040 C   0  0  0  0  0  0  0  0  0  0  0  0
    4.3780    0.7380   -2.0850 C   0  0  0  0  0  0  0  0  0  0  0  0
    4.9270    1.6520   -2.7600 O   0  0  0  0  0  0  0  0  0  0  0  0
    4.8360   -0.5240   -2.1440 N   0  0  0  0  0  0  0  0  0  0  0  0
  1  2  1  0
  2  3  2  0
  2 24  1  0
  3  4  1  0
  4  5  1  0
  4 21  2  0
  6  5  1  6
  5 19  2  0
  6  7  1  0
  6 17  1  0
  7  8  1  0
  8  9  1  6
  8 15  1  0
  9 10  1  0
 10 11  1  0
 11 12  1  0
 11 13  1  0
 11 14  1  0
 15 16  1  1
 15 17  1  0
 17 18  1  1
 19 20  1  0
 20 21  1  0
 21 22  1  0
 22 23  2  0
 22 24  1  0
M  CHG  1   7   1
M  END
