
     RDKit          3D

 16 16  0  0  0  0  0  0  0  0999 V2000
   -4.6650   -1.5420    0.3110 C   0  0  0  0  0  0  0  0  0  0  0  0
   -3.2840   -1.6750    0.3490 O   0  0  0  0  0  0  0  0  0  0  0  0
   -2.4990   -0.8260   -0.9180 P   0  0  0  0  0  0  0  0  0  0  0  0
   -3.3320    0.8020   -1.2540 C   0  0  0  0  0  0  0  0  0  0  0  0
   -4.6010    0.6540   -1.7610 O   0  0  0  0  0  0  0  0  0  0  0  0
   -0.8260   -0.4940   -0.5200 O   0  0  0  0  0  0  0  0  0  0  0  0
   -0.4180    0.3590    0.4600 C   0  0  0  0  0  0  0  0  0  0  0  0
   -1.3900    0.9260    1.0980 O   0  0  0  0  0  0  0  0  0  0  0  0
    0.9150    0.7090    0.8750 C   0  0  0  0  0  0  0  0  0  0  0  0
    2.0690    0.2970    0.4170 C   0  0  0  0  0  0  0  0  0  0  0  0
    3.2660    0.8320    1.0420 N   0  0  0  0  0  0  0  0  0  0  0  0
    4.5140    0.0960    0.9630 C   0  0  0  0  0  0  0  0  0  0  0  0
    4.7570   -0.1810   -0.5110 C   0  0  0  0  0  0  0  0  0  0  0  0
    3.6740   -0.9320   -0.9770 O   0  0  0  0  0  0  0  0  0  0  0  0
    2.3310   -0.6360   -0.6510 C   0  0  0  0  0  0  0  0  0  0  0  0
    1.4000   -1.1630   -1.2640 O   0  0  0  0  0  0  0  0  0  0  0  0
  1  2  1  0
  2  3  1  0
  3  4  1  0
  3  6  1  0
  4  5  1  0
  6  7  1  0
  7  8  2  0
  7  9  1  0
  9 10  2  3
 10 11  1  0
 10 15  1  0
 11 12  1  0
 12 13  1  0
 13 14  1  0
 14 15  1  0
 15 16  2  0
M  END
