
     RDKit          3D

 15 14  0  0  0  0  0  0  0  0999 V2000
    4.6420    0.4170   -0.1170 C   0  0  0  0  0  0  0  0  0  0  0  0
    3.7500   -0.1830    0.8450 N   0  0  0  0  0  0  0  0  0  0  0  0
    2.4290   -0.2490    0.2360 C   0  0  0  0  0  0  0  0  0  0  0  0
    1.8410    1.0760    0.2520 N   0  0  0  0  0  0  0  0  0  0  0  0
    0.5680    1.0250   -0.1730 O   0  0  0  0  0  0  0  0  0  0  0  0
   -0.3950   -0.0410    0.8090 P   0  0  0  0  0  0  0  0  0  0  0  0
   -2.0270    0.5780    0.8690 O   0  0  0  0  0  0  0  0  0  0  0  0
   -2.2210    1.1790   -0.3400 N   0  0  0  0  0  0  0  0  0  0  0  0
   -1.9530    2.9220   -0.0940 P   0  0  0  0  0  0  0  0  0  0  0  0
   -3.5620    3.8000   -0.3280 C   0  0  0  0  0  0  0  0  0  0  0  0
   -0.5190   -1.7380    0.0360 C   0  0  2  0  0  0  0  0  0  0  0  0
   -1.6910   -1.8600   -0.7130 O   0  0  0  0  0  0  0  0  0  0  0  0
   -0.5310   -2.6390    1.1130 O   0  0  0  0  0  0  0  0  0  0  0  0
   -0.5560   -3.8810    0.7040 O   0  0  0  0  0  0  0  0  0  0  0  0
   -2.2100   -4.3990    0.7290 P   0  0  0  0  0  0  0  0  0  0  0  0
  1  2  1  0
  2  3  1  0
  3  4  1  0
  4  5  1  0
  5  6  1  0
  6  7  1  0
  6 11  1  0
  7  8  1  0
  8  9  1  0
  9 10  1  0
 11 12  1  1
 11 13  1  0
 13 14  1  0
 14 15  1  0
M  END
