
     RDKit          3D

 15 15  0  0  0  0  0  0  0  0999 V2000
    0.2350   -1.5350    0.1870 C   0  0  0  0  0  0  0  0  0  0  0  0
   -0.4370   -0.2370    0.3490 C   0  0  0  0  0  0  0  0  0  0  0  0
    0.2010    0.9750    0.5950 N   0  0  0  0  0  0  0  0  0  0  0  0
    1.2890    1.6290   -0.0270 C   0  0  0  0  0  0  0  0  0  0  0  0
    2.6460    1.0350    0.1840 C   0  0  0  0  0  0  0  0  0  0  0  0
    2.7320   -0.2320   -0.2820 O   0  0  0  0  0  0  0  0  0  0  0  0
    4.2610   -0.9830   -0.0520 P   0  0  0  0  0  0  0  0  0  0  0  0
    4.9110   -0.6660    1.5230 O   0  0  0  0  0  0  0  0  0  0  0  0
    5.3960   -0.6960   -1.2980 O   0  0  0  0  0  0  0  0  0  0  0  0
   -1.7620   -0.2200    0.2550 C   0  0  0  0  0  0  0  0  0  0  0  0
   -2.5710    1.0100    0.4000 C   0  0  0  0  0  0  0  0  0  0  0  0
   -3.4050    1.0620   -0.7410 O   0  0  0  0  0  0  0  0  0  0  0  0
   -4.3190    0.0200   -0.7010 C   0  0  0  0  0  0  0  0  0  0  0  0
   -3.7240   -1.3390   -0.6250 C   0  0  0  0  0  0  0  0  0  0  0  0
   -2.4520   -1.3900    0.0110 O   0  0  0  0  0  0  0  0  0  0  0  0
  1  2  1  0
  2  3  1  0
  2 10  2  3
  3  4  1  0
  4  5  1  0
  5  6  1  0
  6  7  1  0
  7  8  1  0
  7  9  1  0
 10 11  1  0
 10 15  1  0
 11 12  1  0
 12 13  1  0
 13 14  1  0
 14 15  1  0
M  END
