
     RDKit          3D

 14 13  0  0  0  0  0  0  0  0999 V2000
    5.5300    1.5790    0.4120 C   0  0  0  0  0  0  0  0  0  0  0  0
    4.2740    1.5030    0.6640 N   0  0  0  0  0  0  0  0  0  0  0  0
    3.6770    0.3440    1.0300 O   0  0  0  0  0  0  0  0  0  0  0  0
    2.6780   -0.6170   -0.0500 P   0  0  0  0  0  0  0  0  0  0  0  0
    3.5080   -0.8640   -1.5470 O   0  0  0  0  0  0  0  0  0  0  0  0
    1.0280    0.1030   -0.2900 C   0  0  0  0  0  0  0  0  0  0  0  0
    0.8390    1.3180   -0.0710 O   0  0  0  0  0  0  0  0  0  0  0  0
   -0.0300   -0.6710   -0.7150 O   0  0  0  0  0  0  0  0  0  0  0  0
   -1.2160   -0.1060   -0.8780 O   0  0  0  0  0  0  0  0  0  0  0  0
   -2.1000   -0.3720    0.1590 C   0  0  2  0  0  0  0  0  0  0  0  0
   -3.3990    0.3410   -0.1770 C   0  0  0  0  0  0  0  0  0  0  0  0
   -1.4720    0.3230    1.7670 P   0  0  0  0  0  0  0  0  0  0  0  0
   -2.3440   -1.7700    0.3340 N   0  0  0  0  0  0  0  0  0  0  0  0
   -3.5290   -2.2670    0.3530 C   0  0  0  0  0  0  0  0  0  0  0  0
  1  2  2  0
  2  3  1  0
  3  4  1  0
  4  5  1  0
  4  6  1  0
  6  7  2  0
  6  8  1  0
  8  9  1  0
  9 10  1  0
 10 11  1  6
 10 12  1  0
 10 13  1  0
 13 14  2  0
M  END
