
     RDKit          3D

 14 13  0  0  0  0  0  0  0  0999 V2000
    3.3960   -0.6390    0.3850 N   0  0  0  0  0  0  0  0  0  0  0  0
    2.1300   -1.3250    0.5010 C   0  0  0  0  0  0  0  0  0  0  0  0
    1.0310   -0.5410   -0.0220 N   0  0  0  0  0  0  0  0  0  0  0  0
    0.8190    0.6830    0.2840 C   0  0  0  0  0  0  0  0  0  0  0  0
   -0.2700    1.3170   -0.2900 O   0  0  0  0  0  0  0  0  0  0  0  0
   -1.3400    0.6520   -0.8580 C   0  0  0  0  0  0  0  0  0  0  0  0
   -1.7370    0.9560   -2.2260 C   0  0  0  0  0  0  0  0  0  0  0  0
   -1.1270    1.8140   -2.9090 O   0  0  0  0  0  0  0  0  0  0  0  0
   -2.0050   -0.2560   -0.1680 C   0  0  0  0  0  0  0  0  0  0  0  0
   -3.0820   -0.9340   -0.7220 O   0  0  0  0  0  0  0  0  0  0  0  0
   -1.6550   -0.5710    1.1370 O   0  0  0  0  0  0  0  0  0  0  0  0
   -2.6510   -0.8680    1.9940 O   0  0  0  0  0  0  0  0  0  0  0  0
    1.8810    1.6330    1.4390 P   0  0  0  0  0  0  0  0  0  0  0  0
    2.2270    3.1300    1.1760 O   0  0  0  0  0  0  0  0  0  0  0  0
  1  2  1  0
  2  3  1  0
  3  4  2  3
  4  5  1  0
  4 13  1  0
  5  6  1  0
  6  7  1  0
  6  9  2  3
  7  8  2  0
  9 10  1  0
  9 11  1  0
 11 12  1  0
 13 14  2  0
M  END
