
     RDKit          3D

 13 12  0  0  0  0  0  0  0  0999 V2000
   -1.3710   -0.5300    1.1720 C   0  0  0  0  0  0  0  0  0  0  0  0
   -2.1560    0.4220    0.2690 C   0  0  2  0  0  0  0  0  0  0  0  0
   -3.5720   -0.0990    0.1470 C   0  0  0  0  0  0  0  0  0  0  0  0
   -1.5270    0.4630   -0.9820 O   0  0  0  0  0  0  0  0  0  0  0  0
   -0.3070    0.8900   -0.8350 O   0  0  0  0  0  0  0  0  0  0  0  0
    0.8740   -0.1240   -1.5500 P   0  0  0  0  0  0  0  0  0  0  0  0
    0.2190   -1.1800   -2.7500 O   0  0  0  0  0  0  0  0  0  0  0  0
    1.7180   -1.1170   -0.3710 O   0  0  0  0  0  0  0  0  0  0  0  0
    3.0600   -0.8420   -0.1670 C   0  0  0  0  0  0  0  0  0  0  0  0
    3.4840    0.3270   -0.4270 N   0  0  0  0  0  0  0  0  0  0  0  0
    4.7820    0.7730   -0.2830 N   0  0  0  0  0  0  0  0  0  0  0  0
   -2.1260    2.1510    0.9440 P   0  0  0  0  0  0  0  0  0  0  0  0
   -2.1630    3.3600   -0.0450 O   0  0  0  0  0  0  0  0  0  0  0  0
  2  1  1  1
  2  3  1  0
  2  4  1  0
  2 12  1  0
  4  5  1  0
  5  6  1  0
  6  7  1  0
  6  8  1  0
  8  9  1  0
  9 10  2  3
 10 11  1  0
 12 13  2  0
M  END
