
     RDKit          3D

 13 13  0  0  0  0  0  0  0  0999 V2000
    2.9260    1.4030   -0.1370 O   0  0  0  0  0  0  0  0  0  0  0  0
    2.7890    0.4480   -1.0200 O   0  0  0  0  0  0  0  0  0  0  0  0
    1.7780   -0.3350   -0.7450 O   0  0  0  0  0  0  0  0  0  0  0  0
    1.3330   -0.2630    0.5610 C   0  0  2  0  0  0  0  0  0  0  0  0
    1.4430   -1.5520    1.1140 O   0  0  0  0  0  0  0  0  0  0  0  0
   -0.1290    0.0880    0.5150 C   0  0  0  0  0  0  0  0  0  0  0  0
   -1.0370   -0.6960    1.0270 C   0  0  0  0  0  0  0  0  0  0  0  0
   -2.4580   -0.3540    0.9820 C   0  0  1  0  0  0  0  0  0  0  0  0
   -3.0980   -1.3660    0.2240 O   0  0  0  0  0  0  0  0  0  0  0  0
   -3.0410   -0.4100    2.2490 F   0  0  0  0  0  0  0  0  0  0  0  0
   -2.6900    0.8550    0.3540 O   0  0  0  0  0  0  0  0  0  0  0  0
   -1.7540    1.6620   -0.1720 N   0  0  0  0  0  0  0  0  0  0  0  0
   -0.5010    1.3540   -0.1300 C   0  0  0  0  0  0  0  0  0  0  0  0
  1  2  1  0
  2  3  1  0
  3  4  1  0
  4  5  1  6
  4  6  1  0
  6  7  2  0
  6 13  1  0
  7  8  1  0
  8  9  1  6
  8 10  1  0
  8 11  1  0
 11 12  1  0
 12 13  2  0
M  END
