
     RDKit          3D

 23 23  0  0  0  0  0  0  0  0999 V2000
    6.3470   -0.2880   -0.8850 C   0  0  0  0  0  0  0  0  0  0  0  0
    5.2370    0.4830   -1.4700 C   0  0  0  0  0  0  0  0  0  0  0  0
    3.9700    0.4140   -1.0780 C   0  0  0  0  0  0  0  0  0  0  0  0
    3.5310   -0.4440   -0.0100 C   0  0  0  0  0  0  0  0  0  0  0  0
    4.5050   -1.2430    0.6290 O   0  0  0  0  0  0  0  0  0  0  0  0
    2.3000   -0.5300    0.3980 C   0  0  0  0  0  0  0  0  0  0  0  0
    2.0720   -1.4850    1.5210 C   0  0  0  0  0  0  0  0  0  0  0  0
    3.0930   -2.2440    2.1140 N   0  0  0  0  0  0  0  0  0  0  0  0
    0.9040   -1.6030    1.9430 O   0  0  0  0  0  0  0  0  0  0  0  0
    1.2040    0.1990   -0.1390 C   0  0  0  0  0  0  0  0  0  0  0  0
    1.2580    1.0020   -1.0520 O   0  0  0  0  0  0  0  0  0  0  0  0
   -0.0790    0.0280    0.3790 O   0  0  0  0  0  0  0  0  0  0  0  0
   -1.1950    0.7010   -0.0900 C   0  0  1  0  0  0  0  0  0  0  0  0
   -0.8980    2.1930    0.1090 C   0  0  0  0  0  0  0  0  0  0  0  0
   -1.5720    0.5280   -1.5030 C   0  0  0  0  0  0  0  0  0  0  0  0
   -3.0810    0.7600   -1.4810 C   0  0  2  0  0  0  0  0  0  0  0  0
   -3.4460    2.2020   -1.5630 C   0  0  0  0  0  0  0  0  0  0  0  0
   -3.5550    0.1830   -0.1910 C   0  0  1  0  0  0  0  0  0  0  0  0
   -3.9520   -1.2460   -0.4190 C   0  0  0  0  0  0  0  0  0  0  0  0
   -2.9040   -2.0310   -0.8850 O   0  0  0  0  0  0  0  0  0  0  0  0
   -2.3980    0.3580    0.7450 C   0  0  1  0  0  0  0  0  0  0  0  0
   -2.1960   -0.7730    1.6950 C   0  0  0  0  0  0  0  0  0  0  0  0
   -3.3750   -1.0110    2.4210 O   0  0  0  0  0  0  0  0  0  0  0  0
  1  2  1  0
  2  3  2  3
  3  4  1  0
  4  5  1  0
  4  6  2  3
  6  7  1  0
  6 10  1  0
  7  8  1  0
  7  9  2  0
 10 11  2  0
 10 12  1  0
 12 13  1  0
 13 14  1  6
 13 15  1  0
 13 21  1  0
 15 16  1  0
 16 17  1  1
 16 18  1  0
 18 19  1  6
 18 21  1  0
 19 20  1  0
 21 22  1  6
 22 23  1  0
M  END
