
     RDKit          3D

 26 28  0  0  0  0  0  0  0  0999 V2000
   -3.3030   -2.5890   -1.4330 C   0  0  0  0  0  0  0  0  0  0  0  0
   -3.1850   -1.5040   -0.7480 C   0  0  0  0  0  0  0  0  0  0  0  0
   -2.2780   -0.4470   -1.2660 C   0  0  0  0  0  0  0  0  0  0  0  0
   -1.8470    0.6470   -0.5760 C   0  0  0  0  0  0  0  0  0  0  0  0
   -0.9780    1.5650   -1.2510 C   0  0  0  0  0  0  0  0  0  0  0  0
   -0.5750    2.7050   -0.8200 C   0  0  0  0  0  0  0  0  0  0  0  0
   -0.9200    3.5460    0.6640 Cl  0  0  0  0  0  0  0  0  0  0  0  0
   -2.1070    0.8130    0.8490 C   0  0  0  0  0  0  0  0  0  0  0  0
   -1.0270    0.8280    1.6180 C   0  0  0  0  0  0  0  0  0  0  0  0
    0.3620    0.6960    1.2910 C   0  0  0  0  0  0  0  0  0  0  0  0
    0.9130   -0.1490    0.3590 C   0  0  0  0  0  0  0  0  0  0  0  0
    2.2940   -0.2080    0.1260 C   0  0  0  0  0  0  0  0  0  0  0  0
    2.8190   -1.0620   -0.8130 C   0  0  0  0  0  0  0  0  0  0  0  0
    4.1800   -1.0980   -1.0190 C   0  0  0  0  0  0  0  0  0  0  0  0
    4.7320   -1.9480   -1.9570 O   0  0  0  0  0  0  0  0  0  0  0  0
    6.1060   -2.0360   -2.2170 C   0  0  0  0  0  0  0  0  0  0  0  0
    5.0220   -0.2820   -0.2880 C   0  0  0  0  0  0  0  0  0  0  0  0
    4.4770    0.5730    0.6550 C   0  0  0  0  0  0  0  0  0  0  0  0
    3.1150    0.6130    0.8650 C   0  0  0  0  0  0  0  0  0  0  0  0
    2.5530    1.4640    1.8060 C   0  0  0  0  0  0  0  0  0  0  0  0
    3.3620    2.1860    2.4450 O   0  0  0  0  0  0  0  0  0  0  0  0
    1.2330    1.4890    1.9960 N   0  0  0  0  0  0  0  0  0  0  0  0
   -3.4550    0.8210    1.5060 C   0  0  0  0  0  0  0  0  0  0  0  0
   -4.3810   -0.0270    0.8070 N   0  0  0  0  0  0  0  0  0  0  0  0
   -5.1730    0.6130   -0.1850 C   0  0  0  0  0  0  0  0  0  0  0  0
   -3.9600   -1.3600    0.5110 C   0  0  0  0  0  0  0  0  0  0  0  0
  1  2  2  0
  2  3  1  0
  2 26  1  0
  3  4  2  0
  4  5  1  0
  4  8  1  0
  5  6  2  3
  6  7  1  0
  8  9  2  3
  8 23  1  0
  9 10  1  0
 10 11  2  0
 10 22  1  0
 11 12  1  0
 12 13  2  0
 12 19  1  0
 13 14  1  0
 14 15  1  0
 14 17  2  0
 15 16  1  0
 17 18  1  0
 18 19  2  0
 19 20  1  0
 20 21  2  0
 20 22  1  0
 23 24  1  0
 24 25  1  0
 24 26  1  0
M  END
