
     RDKit          3D

 26 29  0  0  0  0  0  0  0  0999 V2000
    4.3270   -2.8190   -2.3390 C   0  0  0  0  0  0  0  0  0  0  0  0
    3.3120   -1.8740   -1.7880 C   0  0  0  0  0  0  0  0  0  0  0  0
    1.9960   -1.4400   -2.8430 Cl  0  0  0  0  0  0  0  0  0  0  0  0
    3.4010   -1.3750   -0.5850 C   0  0  0  0  0  0  0  0  0  0  0  0
    2.3770   -0.4590   -0.1020 C   0  0  0  0  0  0  0  0  0  0  0  0
    1.0590   -0.7870   -0.2610 C   0  0  0  0  0  0  0  0  0  0  0  0
    0.0430    0.0840    0.1840 C   0  0  0  0  0  0  0  0  0  0  0  0
   -1.3400   -0.3170    0.0580 C   0  0  0  0  0  0  0  0  0  0  0  0
   -1.5210   -1.5580   -0.2090 O   0  0  0  0  0  0  0  0  0  0  0  0
   -2.4560    0.5330    0.2040 N   0  0  0  0  0  0  0  0  0  0  0  0
   -2.5090    1.9500    0.4130 C   0  0  0  0  0  0  0  0  0  0  0  0
   -3.8720    2.3440   -0.1980 C   0  0  0  0  0  0  0  0  0  0  0  0
   -4.6630    1.1060   -0.0080 C   0  0  0  0  0  0  0  0  0  0  0  0
   -3.8430    0.1180    0.2150 C   0  0  0  0  0  0  0  0  0  0  0  0
   -4.6060   -1.1090    0.4150 C   0  0  0  0  0  0  0  0  0  0  0  0
   -4.0770   -2.4720    0.7150 C   0  0  0  0  0  0  0  0  0  0  0  0
   -5.9090   -0.8400    0.3040 C   0  0  0  0  0  0  0  0  0  0  0  0
   -6.0690    0.5750    0.0250 C   0  0  0  0  0  0  0  0  0  0  0  0
    0.5060    1.2390    0.7660 C   0  0  0  0  0  0  0  0  0  0  0  0
    1.8300    1.5380    0.9100 N   0  0  0  0  0  0  0  0  0  0  0  0
    2.7890    0.7130    0.4880 C   0  0  0  0  0  0  0  0  0  0  0  0
    4.2050    1.0220    0.6160 C   0  0  0  0  0  0  0  0  0  0  0  0
    4.6940    2.1940    1.2290 C   0  0  0  0  0  0  0  0  0  0  0  0
    6.0670    2.1700    1.1810 C   0  0  0  0  0  0  0  0  0  0  0  0
    6.3770    0.9940    0.5460 C   0  0  0  0  0  0  0  0  0  0  0  0
    5.2700    0.3660    0.2390 O   0  0  0  0  0  0  0  0  0  0  0  0
  1  2  1  0
  2  3  1  0
  2  4  2  3
  4  5  1  0
  5  6  2  0
  5 21  1  0
  6  7  1  0
  7  8  1  0
  7 19  2  0
  8  9  2  0
  8 10  1  0
 10 11  1  0
 10 14  1  0
 11 12  1  0
 12 13  1  0
 13 14  2  0
 13 18  1  0
 14 15  1  0
 15 16  1  0
 15 17  2  0
 17 18  1  0
 19 20  1  0
 20 21  2  0
 21 22  1  0
 22 23  2  0
 22 26  1  0
 23 24  1  0
 24 25  2  0
 25 26  1  0
M  END
