
     RDKit          3D

 23 24  0  0  0  0  0  0  0  0999 V2000
    3.9810    2.0120    1.5730 C   0  0  0  0  0  0  0  0  0  0  0  0
    3.0980    0.8640    1.4420 N   0  0  0  0  0  0  0  0  0  0  0  0
    2.8760    0.2210    0.1940 C   0  0  0  0  0  0  0  0  0  0  0  0
    3.4850    0.6980   -0.7940 O   0  0  0  0  0  0  0  0  0  0  0  0
    1.9700   -0.9660    0.0320 C   0  0  2  0  0  0  0  0  0  0  0  0
    2.5820   -2.0800    0.9100 C   0  0  0  0  0  0  0  0  0  0  0  0
    2.0940   -1.4520   -1.3400 C   0  0  0  0  0  0  0  0  0  0  0  0
    1.2980   -0.9450   -2.2700 C   0  0  0  0  0  0  0  0  0  0  0  0
    1.3320   -1.3350   -3.5990 O   0  0  0  0  0  0  0  0  0  0  0  0
    0.3460    0.0860   -1.7930 C   0  0  0  0  0  0  0  0  0  0  0  0
   -0.4100   -0.4830   -0.5910 C   0  0  2  0  0  0  0  0  0  0  0  0
   -0.9030   -1.8350   -1.0430 C   0  0  0  0  0  0  0  0  0  0  0  0
   -1.6210   -2.5460   -0.1180 O   0  0  0  0  0  0  0  0  0  0  0  0
   -1.5300    0.4700   -0.3900 C   0  0  2  0  0  0  0  0  0  0  0  0
   -2.2230    0.3900   -1.6370 O   0  0  0  0  0  0  0  0  0  0  0  0
   -1.1490    1.8870   -0.2900 C   0  0  0  0  0  0  0  0  0  0  0  0
   -0.0470    2.3580    0.0380 O   0  0  0  0  0  0  0  0  0  0  0  0
   -2.1770    2.8020   -0.6090 O   0  0  0  0  0  0  0  0  0  0  0  0
   -3.5090    2.2880   -0.4410 C   0  0  0  0  0  0  0  0  0  0  0  0
   -3.4820    1.3940    0.7470 C   0  0  0  0  0  0  0  0  0  0  0  0
   -2.5610    0.1950    0.6320 C   0  0  2  0  0  0  0  0  0  0  0  0
   -2.0800   -0.0890    2.0310 C   0  0  0  0  0  0  0  0  0  0  0  0
    0.5670   -0.6520    0.4890 C   0  0  0  0  0  0  0  0  0  0  0  0
  1  2  1  0
  2  3  1  0
  3  4  2  0
  3  5  1  0
  5  6  1  1
  5  7  1  0
  5 23  1  0
  7  8  2  0
  8  9  1  0
  8 10  1  0
 10 11  1  0
 11 12  1  6
 11 14  1  0
 11 23  1  0
 12 13  1  0
 14 15  1  6
 14 16  1  0
 14 21  1  0
 16 17  2  0
 16 18  1  0
 18 19  1  0
 19 20  1  0
 20 21  1  0
 21 22  1  1
M  END
