
     RDKit          3D

 10 10  0  0  0  0  0  0  0  0999 V2000
    1.9350    0.5280   -0.5900 O   0  0  0  0  0  0  0  0  0  0  0  0
    1.2430   -0.3620    0.2270 C   0  0  2  0  0  0  0  0  0  0  0  0
    0.7070   -1.4790   -0.5810 C   0  0  0  0  0  0  0  0  0  0  0  0
   -0.5590   -1.4460   -0.9760 O   0  0  0  0  0  0  0  0  0  0  0  0
   -1.3680   -0.4140   -0.7730 C   0  0  1  0  0  0  0  0  0  0  0  0
   -2.4860   -0.8470   -0.0190 O   0  0  0  0  0  0  0  0  0  0  0  0
   -0.8390    0.8020   -0.1170 C   0  0  2  0  0  0  0  0  0  0  0  0
   -0.2390    1.7110   -0.9530 O   0  0  0  0  0  0  0  0  0  0  0  0
    0.1670    0.3970    0.9620 C   0  0  2  0  0  0  0  0  0  0  0  0
    0.7000    1.4940    1.6120 O   0  0  0  0  0  0  0  0  0  0  0  0
  2  1  1  6
  2  3  1  0
  2  9  1  0
  3  4  1  0
  4  5  1  0
  5  6  1  1
  5  7  1  0
  7  8  1  6
  7  9  1  0
  9 10  1  6
M  END
