
     RDKit          3D

 26 29  0  0  0  0  0  0  0  0999 V2000
   -5.4090   -1.8220    1.3760 C   0  0  0  0  0  0  0  0  0  0  0  0
   -3.9970   -1.4040    1.1020 C   0  0  0  0  0  0  0  0  0  0  0  0
   -2.7970   -1.9460    2.2520 Cl  0  0  0  0  0  0  0  0  0  0  0  0
   -3.6930   -0.6620    0.0620 C   0  0  0  0  0  0  0  0  0  0  0  0
   -2.3250   -0.2590   -0.2040 C   0  0  0  0  0  0  0  0  0  0  0  0
   -1.3020   -1.1690   -0.1080 C   0  0  0  0  0  0  0  0  0  0  0  0
    0.0390   -0.8360   -0.3420 C   0  0  0  0  0  0  0  0  0  0  0  0
    1.0880   -1.8040   -0.3410 C   0  0  0  0  0  0  0  0  0  0  0  0
    0.6220   -3.0430   -0.4230 O   0  0  0  0  0  0  0  0  0  0  0  0
    2.4690   -1.6950   -0.2790 N   0  0  0  0  0  0  0  0  0  0  0  0
    3.4370   -2.8420   -0.4520 C   0  0  0  0  0  0  0  0  0  0  0  0
    4.4810   -2.1100   -1.3300 C   0  0  0  0  0  0  0  0  0  0  0  0
    4.5220   -0.8110   -0.5750 C   0  0  0  0  0  0  0  0  0  0  0  0
    3.3260   -0.6140    0.0250 C   0  0  0  0  0  0  0  0  0  0  0  0
    3.4630    0.6270    0.7680 C   0  0  0  0  0  0  0  0  0  0  0  0
    2.4060    1.2100    1.6420 C   0  0  0  0  0  0  0  0  0  0  0  0
    4.6500    1.1680    0.6290 C   0  0  0  0  0  0  0  0  0  0  0  0
    5.4390    0.2950   -0.2630 C   0  0  0  0  0  0  0  0  0  0  0  0
    0.2530    0.4700   -0.6760 C   0  0  0  0  0  0  0  0  0  0  0  0
   -0.7550    1.3660   -0.7700 N   0  0  0  0  0  0  0  0  0  0  0  0
   -2.0550    1.0480   -0.5430 C   0  0  0  0  0  0  0  0  0  0  0  0
   -3.0970    2.0670   -0.6560 C   0  0  0  0  0  0  0  0  0  0  0  0
   -2.8810    3.3840   -0.9910 C   0  0  0  0  0  0  0  0  0  0  0  0
   -4.0980    4.0360   -0.9960 C   0  0  0  0  0  0  0  0  0  0  0  0
   -5.0160    3.0390   -0.6510 C   0  0  0  0  0  0  0  0  0  0  0  0
   -4.3590    1.9190   -0.4690 O   0  0  0  0  0  0  0  0  0  0  0  0
  1  2  1  0
  2  3  1  0
  2  4  2  3
  4  5  1  0
  5  6  2  0
  5 21  1  0
  6  7  1  0
  7  8  1  0
  7 19  2  0
  8  9  2  0
  8 10  1  0
 10 11  1  0
 10 14  1  0
 11 12  1  0
 12 13  1  0
 13 14  2  0
 13 18  1  0
 14 15  1  0
 15 16  1  0
 15 17  2  0
 17 18  1  0
 19 20  1  0
 20 21  2  0
 21 22  1  0
 22 23  2  0
 22 26  1  0
 23 24  1  0
 24 25  2  0
 25 26  1  0
M  END
