
     RDKit          3D

 26 28  0  0  0  0  0  0  0  0999 V2000
    0.7990   -0.4650   -1.5830 C   0  0  0  0  0  0  0  0  0  0  0  0
    1.3050    0.1070   -0.3270 C   0  0  0  0  0  0  0  0  0  0  0  0
    0.6810    0.5720    0.6880 C   0  0  0  0  0  0  0  0  0  0  0  0
   -0.7110    0.7320    1.0250 C   0  0  0  0  0  0  0  0  0  0  0  0
   -1.0210    1.2490    2.1550 O   0  0  0  0  0  0  0  0  0  0  0  0
   -1.7820    0.3610    0.2010 N   0  0  0  0  0  0  0  0  0  0  0  0
   -3.1640    0.4760    0.4400 C   0  0  0  0  0  0  0  0  0  0  0  0
   -3.7130    0.9980    1.5790 C   0  0  0  0  0  0  0  0  0  0  0  0
   -5.0780    1.1160    1.8250 C   0  0  0  0  0  0  0  0  0  0  0  0
   -5.9120    0.6670    0.8330 C   0  0  0  0  0  0  0  0  0  0  0  0
   -5.4300    0.1340   -0.3310 C   0  0  0  0  0  0  0  0  0  0  0  0
   -6.3350   -0.2920   -1.2710 C   0  0  0  0  0  0  0  0  0  0  0  0
   -5.9030   -0.8440   -2.4760 C   0  0  0  0  0  0  0  0  0  0  0  0
   -4.5780   -0.9600   -2.7170 C   0  0  0  0  0  0  0  0  0  0  0  0
   -3.6750   -0.5170   -1.7390 C   0  0  0  0  0  0  0  0  0  0  0  0
   -4.0590    0.0320   -0.5400 C   0  0  0  0  0  0  0  0  0  0  0  0
    2.7720    0.1370   -0.2480 N   0  0  0  0  0  0  0  0  0  0  0  0
    3.3850   -0.2120    0.7940 C   0  0  0  0  0  0  0  0  0  0  0  0
    4.8280   -0.2000    0.9220 C   0  0  0  0  0  0  0  0  0  0  0  0
    5.3460   -0.6040    2.1090 C   0  0  0  0  0  0  0  0  0  0  0  0
    6.7780   -0.6180    2.3050 C   0  0  0  0  0  0  0  0  0  0  0  0
    7.6140   -0.2400    1.3430 C   0  0  0  0  0  0  0  0  0  0  0  0
    7.1080    0.1720    0.1360 O   0  0  0  0  0  0  0  0  0  0  0  0
    5.7210    0.2140   -0.1350 C   0  0  0  0  0  0  0  0  0  0  0  0
    5.3160    0.6210   -1.3160 C   0  0  0  0  0  0  0  0  0  0  0  0
    6.4710    1.1100   -2.5530 Cl  0  0  0  0  0  0  0  0  0  0  0  0
  1  2  1  0
  2  3  2  3
  2 17  1  0
  3  4  1  0
  4  5  2  0
  4  6  1  0
  6  7  1  0
  7  8  2  0
  7 16  1  0
  8  9  1  0
  9 10  2  0
 10 11  1  0
 11 12  2  0
 11 16  1  0
 12 13  1  0
 13 14  2  0
 14 15  1  0
 15 16  2  0
 17 18  2  3
 18 19  1  0
 19 20  2  0
 19 24  1  0
 20 21  1  0
 21 22  2  0
 22 23  1  0
 23 24  1  0
 24 25  2  3
 25 26  1  0
M  END
