
     RDKit          3D

 44 48  0  0  0  0  0  0  0  0999 V2000
    9.5130    0.7620   -3.5910 C   0  0  0  0  0  0  0  0  0  0  0  0
    8.7240   -0.1500   -2.7150 C   0  0  0  0  0  0  0  0  0  0  0  0
    8.5760   -1.3590   -2.9620 O   0  0  0  0  0  0  0  0  0  0  0  0
    8.1010    0.4220   -1.5100 C   0  0  0  0  0  0  0  0  0  0  0  0
    7.3980   -0.3880   -0.7290 C   0  0  0  0  0  0  0  0  0  0  0  0
    6.7570    0.0640    0.4550 N   0  0  0  0  0  0  0  0  0  0  0  0
    6.0150   -0.8370    1.2650 C   0  0  2  0  0  0  0  0  0  0  0  0
    4.8580   -1.3430    0.6630 O   0  0  0  0  0  0  0  0  0  0  0  0
    4.1480   -1.9510    1.6660 C   0  0  2  0  0  0  0  0  0  0  0  0
    2.6810   -2.0680    1.3870 C   0  0  0  0  0  0  0  0  0  0  0  0
    2.2040   -0.7630    1.2230 O   0  0  0  0  0  0  0  0  0  0  0  0
    0.6890   -0.6790    0.9250 P   0  0  0  0  0  0  0  0  0  0  0  0
    0.8330    0.9850    0.9810 O   0  0  0  0  0  0  0  0  0  0  0  0
    0.3040   -1.4870    2.3060 O   0  0  0  0  0  0  0  0  0  0  0  0
   -0.7860   -0.4850    0.5480 O   0  0  0  0  0  0  0  0  0  0  0  0
   -1.5280   -0.7340   -0.7580 P   0  0  0  0  0  0  0  0  0  0  0  0
   -0.7380    0.5600   -1.4650 O   0  0  0  0  0  0  0  0  0  0  0  0
   -0.7870   -2.2230   -0.8960 O   0  0  0  0  0  0  0  0  0  0  0  0
   -3.0080   -0.5750   -0.1370 O   0  0  0  0  0  0  0  0  0  0  0  0
   -3.2320    0.3280    0.8610 C   0  0  0  0  0  0  0  0  0  0  0  0
   -4.6640    0.3310    1.3030 C   0  0  1  0  0  0  0  0  0  0  0  0
   -5.4710    0.6650    0.2190 O   0  0  0  0  0  0  0  0  0  0  0  0
   -6.7050    0.1630    0.6300 C   0  0  1  0  0  0  0  0  0  0  0  0
   -7.6170    0.2180   -0.4850 N   0  0  0  0  0  0  0  0  0  0  0  0
   -8.2080   -0.7710   -1.1770 C   0  0  0  0  0  0  0  0  0  0  0  0
   -8.9910   -0.2440   -2.1490 N   0  0  0  0  0  0  0  0  0  0  0  0
   -8.9150    1.0850   -2.0960 C   0  0  0  0  0  0  0  0  0  0  0  0
   -9.5120    2.0860   -2.8550 C   0  0  0  0  0  0  0  0  0  0  0  0
  -10.3880    1.7920   -3.9180 N   0  0  0  0  0  0  0  0  0  0  0  0
   -9.2090    3.3540   -2.5230 N   0  0  0  0  0  0  0  0  0  0  0  0
   -8.3720    3.6560   -1.5110 C   0  0  0  0  0  0  0  0  0  0  0  0
   -7.8080    2.6690   -0.7920 N   0  0  0  0  0  0  0  0  0  0  0  0
   -8.0560    1.3660   -1.0550 C   0  0  0  0  0  0  0  0  0  0  0  0
   -6.3380   -1.2780    0.9290 C   0  0  2  0  0  0  0  0  0  0  0  0
   -7.2680   -1.8790    1.7440 O   0  0  0  0  0  0  0  0  0  0  0  0
   -5.0370   -1.0770    1.7040 C   0  0  2  0  0  0  0  0  0  0  0  0
   -5.3030   -1.0420    3.0790 O   0  0  0  0  0  0  0  0  0  0  0  0
    4.4640   -1.2470    2.9550 C   0  0  1  0  0  0  0  0  0  0  0  0
    5.1800   -2.0830    3.8060 O   0  0  0  0  0  0  0  0  0  0  0  0
    5.4120   -0.1430    2.4710 C   0  0  1  0  0  0  0  0  0  0  0  0
    6.3470    0.1920    3.4240 O   0  0  0  0  0  0  0  0  0  0  0  0
    6.9050    1.4410    0.7700 C   0  0  0  0  0  0  0  0  0  0  0  0
    7.5910    2.2760    0.0260 C   0  0  0  0  0  0  0  0  0  0  0  0
    8.2680    1.8600   -1.2000 C   0  0  0  0  0  0  0  0  0  0  0  0
  1  2  1  0
  2  3  2  0
  2  4  1  0
  4  5  2  0
  4 44  1  0
  5  6  1  0
  7  6  1  6
  6 42  1  0
  7  8  1  0
  7 40  1  0
  8  9  1  0
  9 10  1  6
  9 38  1  0
 10 11  1  0
 11 12  1  0
 12 13  1  0
 12 14  1  0
 12 15  1  0
 15 16  1  0
 16 17  1  0
 16 18  1  0
 16 19  1  0
 19 20  1  0
 21 20  1  6
 21 22  1  0
 21 36  1  0
 22 23  1  0
 23 24  1  6
 23 34  1  0
 24 25  1  0
 24 33  1  0
 25 26  2  0
 26 27  1  0
 27 28  2  0
 27 33  1  0
 28 29  1  0
 28 30  1  0
 30 31  2  0
 31 32  1  0
 32 33  2  0
 34 35  1  1
 34 36  1  0
 36 37  1  1
 38 39  1  1
 38 40  1  0
 40 41  1  1
 42 43  2  0
 43 44  1  0
M  END
