
     RDKit          3D

 32 33  0  0  0  0  0  0  0  0999 V2000
   -5.8290    2.9880   -1.0780 C   0  0  0  0  0  0  0  0  0  0  0  0
   -5.5700    1.6210   -0.5330 C   0  0  0  0  0  0  0  0  0  0  0  0
   -5.1050    1.6560    0.7790 O   0  0  0  0  0  0  0  0  0  0  0  0
   -4.8090    0.0890    1.4010 P   0  0  0  0  0  0  0  0  0  0  0  0
   -3.0900   -0.1780    1.9670 C   0  0  0  0  0  0  0  0  0  0  0  0
   -2.3550   -1.2520    1.1920 C   0  0  0  0  0  0  0  0  0  0  0  0
   -2.3260   -0.8120   -0.2500 C   0  0  0  0  0  0  0  0  0  0  0  0
   -1.6440    0.4440   -0.4060 N   0  0  0  0  0  0  0  0  0  0  0  0
   -0.2680    0.6720   -0.2830 C   0  0  0  0  0  0  0  0  0  0  0  0
    0.6470   -0.3710   -0.1170 C   0  0  0  0  0  0  0  0  0  0  0  0
    2.0180   -0.1470   -0.0150 C   0  0  0  0  0  0  0  0  0  0  0  0
    2.8210   -1.1680    0.1420 C   0  0  0  0  0  0  0  0  0  0  0  0
    2.4100   -2.5540    0.2220 C   0  0  0  0  0  0  0  0  0  0  0  0
    3.3210   -3.5130    0.3830 C   0  0  0  0  0  0  0  0  0  0  0  0
    3.1540   -4.8830    0.4840 O   0  0  0  0  0  0  0  0  0  0  0  0
    4.3120   -5.4800    1.0370 C   0  0  0  0  0  0  0  0  0  0  0  0
    5.3910   -4.5020    0.6280 C   0  0  0  0  0  0  0  0  0  0  0  0
    4.6800   -3.2950    0.4850 O   0  0  0  0  0  0  0  0  0  0  0  0
    2.4320    1.1640   -0.0870 C   0  0  0  0  0  0  0  0  0  0  0  0
    3.7070    1.4710   -0.0010 C   0  0  0  0  0  0  0  0  0  0  0  0
    4.0860    2.8870   -0.0850 C   0  0  0  0  0  0  0  0  0  0  0  0
    5.3470    3.2630   -0.0060 C   0  0  0  0  0  0  0  0  0  0  0  0
    6.3470    2.3300    0.1590 O   0  0  0  0  0  0  0  0  0  0  0  0
    5.6620    4.6030   -0.0900 O   0  0  0  0  0  0  0  0  0  0  0  0
    6.5210    5.0670   -1.1160 C   0  0  0  0  0  0  0  0  0  0  0  0
    7.7730    4.4520   -1.0300 O   0  0  0  0  0  0  0  0  0  0  0  0
    1.5140    2.1740   -0.2520 N   0  0  0  0  0  0  0  0  0  0  0  0
    0.2090    1.9620   -0.3490 C   0  0  0  0  0  0  0  0  0  0  0  0
   -0.7080    3.0220   -0.5180 O   0  0  0  0  0  0  0  0  0  0  0  0
   -5.4480   -1.1840    0.4440 O   0  0  0  0  0  0  0  0  0  0  0  0
   -6.5940   -1.7120    1.0760 C   0  0  0  0  0  0  0  0  0  0  0  0
   -7.1610   -2.8340    0.2370 C   0  0  0  0  0  0  0  0  0  0  0  0
  1  2  1  0
  2  3  1  0
  3  4  1  0
  4  5  1  0
  4 30  1  0
  5  6  1  0
  6  7  1  0
  7  8  1  0
  8  9  1  0
  9 10  2  0
  9 28  1  0
 10 11  1  0
 11 12  2  3
 11 19  1  0
 12 13  1  0
 13 14  2  3
 14 15  1  0
 14 18  1  0
 15 16  1  0
 16 17  1  0
 17 18  1  0
 19 20  2  3
 19 27  1  0
 20 21  1  0
 21 22  2  3
 22 23  1  0
 22 24  1  0
 24 25  1  0
 25 26  1  0
 27 28  2  0
 28 29  1  0
 30 31  1  0
 31 32  1  0
M  END
