
     RDKit          3D

 32 33  0  0  0  0  0  0  0  0999 V2000
    2.1730   -4.1700    1.1180 C   0  0  0  0  0  0  0  0  0  0  0  0
    0.9680   -3.7980    0.5350 O   0  0  0  0  0  0  0  0  0  0  0  0
    0.3330   -2.5740    0.6800 C   0  0  0  0  0  0  0  0  0  0  0  0
    0.9060   -1.7280    1.4080 O   0  0  0  0  0  0  0  0  0  0  0  0
   -0.8930   -2.2730    0.0540 N   0  0  0  0  0  0  0  0  0  0  0  0
   -1.4680   -0.9810    0.2700 C   0  0  0  0  0  0  0  0  0  0  0  0
   -1.0710    0.0780   -0.7010 C   0  0  2  0  0  0  0  0  0  0  0  0
    0.4170    0.2770   -0.6550 C   0  0  0  0  0  0  0  0  0  0  0  0
    0.9030    1.3520   -0.0840 C   0  0  0  0  0  0  0  0  0  0  0  0
    2.4040    1.5170   -0.0580 C   0  0  2  0  0  0  0  0  0  0  0  0
    2.8410    2.4100   -1.2130 C   0  0  0  0  0  0  0  0  0  0  0  0
    2.9840    0.2670   -0.1810 O   0  0  0  0  0  0  0  0  0  0  0  0
    3.8180   -0.3440    0.7120 C   0  0  0  0  0  0  0  0  0  0  0  0
    4.1980    0.2290    1.8960 C   0  0  0  0  0  0  0  0  0  0  0  0
    5.0570   -0.4560    2.7650 C   0  0  0  0  0  0  0  0  0  0  0  0
    5.5120   -1.7090    2.4140 C   0  0  0  0  0  0  0  0  0  0  0  0
    5.1230   -2.2760    1.2200 C   0  0  0  0  0  0  0  0  0  0  0  0
    4.2830   -1.6220    0.3560 C   0  0  0  0  0  0  0  0  0  0  0  0
   -1.7860    1.2910   -0.3500 N   0  0  0  0  0  0  0  0  0  0  0  0
   -2.5890    1.9830   -1.2940 C   0  0  0  0  0  0  0  0  0  0  0  0
   -2.6300    1.4620   -2.4530 O   0  0  0  0  0  0  0  0  0  0  0  0
   -3.3330    3.2020   -1.0100 C   0  0  0  0  0  0  0  0  0  0  0  0
   -3.3250    3.7790    0.1650 C   0  0  0  0  0  0  0  0  0  0  0  0
   -4.0820    5.0100    0.4320 C   0  0  0  0  0  0  0  0  0  0  0  0
   -4.7900    5.5030   -0.6380 O   0  0  0  0  0  0  0  0  0  0  0  0
   -4.8180    4.9230   -1.8790 C   0  0  0  0  0  0  0  0  0  0  0  0
   -4.1220    3.8170   -2.0710 C   0  0  0  0  0  0  0  0  0  0  0  0
   -4.1230    3.1960   -3.3130 O   0  0  0  0  0  0  0  0  0  0  0  0
   -1.4930   -3.2920   -0.7710 C   0  0  0  0  0  0  0  0  0  0  0  0
   -2.6160   -4.3370    0.3110 P   0  0  0  0  0  0  0  0  0  0  0  0
   -4.0650   -3.4940    0.6890 O   0  0  0  0  0  0  0  0  0  0  0  0
   -2.9770   -5.7790   -0.5660 O   0  0  0  0  0  0  0  0  0  0  0  0
  1  2  1  0
  2  3  1  0
  3  4  2  0
  3  5  1  0
  5  6  1  0
  5 29  1  0
  7  6  1  1
  7  8  1  0
  7 19  1  0
  8  9  2  3
  9 10  1  0
 10 11  1  6
 10 12  1  0
 12 13  1  0
 13 14  2  0
 13 18  1  0
 14 15  1  0
 15 16  2  0
 16 17  1  0
 17 18  2  0
 19 20  1  0
 20 21  2  0
 20 22  1  0
 22 23  2  0
 22 27  1  0
 23 24  1  0
 24 25  1  0
 25 26  1  0
 26 27  2  0
 27 28  1  0
 29 30  1  0
 30 31  1  0
 30 32  1  0
M  END
