
     RDKit          3D

 26 27  0  0  0  0  0  0  0  0999 V2000
    5.8460   -2.6360   -1.1540 C   0  0  0  0  0  0  0  0  0  0  0  0
    6.3930   -1.4550   -1.6070 O   0  0  0  0  0  0  0  0  0  0  0  0
    5.7180   -0.0540   -0.8780 P   0  0  0  0  0  0  0  0  0  0  0  0
    6.2980    0.2120    0.7210 O   0  0  0  0  0  0  0  0  0  0  0  0
    7.6670    0.3190    0.7880 C   0  0  0  0  0  0  0  0  0  0  0  0
    8.1070    1.4110   -0.0120 O   0  0  0  0  0  0  0  0  0  0  0  0
    7.6280    2.6720    0.3140 C   0  0  0  0  0  0  0  0  0  0  0  0
    6.8350    2.8400    1.2810 O   0  0  0  0  0  0  0  0  0  0  0  0
    3.8840   -0.1530   -0.8310 C   0  0  0  0  0  0  0  0  0  0  0  0
    3.0900    0.5730   -1.6770 C   0  0  0  0  0  0  0  0  0  0  0  0
    1.7060    0.4640   -1.6030 C   0  0  0  0  0  0  0  0  0  0  0  0
    1.1250   -0.3690   -0.6830 C   0  0  0  0  0  0  0  0  0  0  0  0
   -0.2440   -0.4910   -0.5930 O   0  0  0  0  0  0  0  0  0  0  0  0
   -0.8430   -1.3400    0.3430 C   0  0  0  0  0  0  0  0  0  0  0  0
   -2.6480   -1.2900    0.2240 S   0  0  0  0  0  0  0  0  0  0  0  0
   -3.1890    0.3510    0.7110 C   0  0  0  0  0  0  0  0  0  0  0  0
   -2.3870    1.1990    1.0390 O   0  0  0  0  0  0  0  0  0  0  0  0
   -4.6390    0.6960    0.7170 C   0  0  1  0  0  0  0  0  0  0  0  0
   -4.7560    2.1340    1.1660 C   0  0  0  0  0  0  0  0  0  0  0  0
   -5.1340    0.5850   -0.6890 C   0  0  0  0  0  0  0  0  0  0  0  0
   -6.5210    0.0890   -0.8570 C   0  0  0  0  0  0  0  0  0  0  0  0
   -7.3170    0.1110    0.4070 C   0  0  0  0  0  0  0  0  0  0  0  0
   -6.6270   -0.5880    1.4300 N   0  0  0  0  0  0  0  0  0  0  0  0
   -5.3030   -0.2060    1.6990 C   0  0  0  0  0  0  0  0  0  0  0  0
    1.9220   -1.0940    0.1620 C   0  0  0  0  0  0  0  0  0  0  0  0
    3.2980   -0.9830    0.0840 C   0  0  0  0  0  0  0  0  0  0  0  0
  1  2  1  0
  2  3  1  0
  3  4  1  0
  3  9  1  0
  4  5  1  0
  5  6  1  0
  6  7  1  0
  7  8  2  0
  9 10  2  0
  9 26  1  0
 10 11  1  0
 11 12  2  0
 12 13  1  0
 12 25  1  0
 13 14  1  0
 14 15  1  0
 15 16  1  0
 16 17  2  0
 16 18  1  0
 18 19  1  1
 18 20  1  0
 18 24  1  0
 20 21  1  0
 21 22  1  0
 22 23  1  0
 23 24  1  0
 25 26  2  0
M  END
