
     RDKit          3D

 24 25  0  0  0  0  0  0  0  0999 V2000
   -6.0170    3.0140   -0.8900 O   0  0  0  0  0  0  0  0  0  0  0  0
   -5.1850    2.2620   -0.4170 C   0  0  0  0  0  0  0  0  0  0  0  0
   -5.4320    0.8460   -0.4700 C   0  0  0  0  0  0  0  0  0  0  0  0
   -4.5750   -0.0340    0.0530 C   0  0  0  0  0  0  0  0  0  0  0  0
   -3.4000    0.2860    0.6830 N   0  0  0  0  0  0  0  0  0  0  0  0
   -2.4710   -0.6320    1.2070 C   0  0  1  0  0  0  0  0  0  0  0  0
   -2.3880   -1.9970    0.6410 C   0  0  0  0  0  0  0  0  0  0  0  0
   -1.4330   -1.7910   -0.5510 C   0  0  2  0  0  0  0  0  0  0  0  0
   -0.7970   -2.9920   -0.8550 O   0  0  0  0  0  0  0  0  0  0  0  0
   -0.5490   -0.8300    0.1010 C   0  0  1  0  0  0  0  0  0  0  0  0
    0.3990   -0.0060   -0.7700 C   0  0  0  0  0  0  0  0  0  0  0  0
    1.1920    0.5300    0.2640 O   0  0  0  0  0  0  0  0  0  0  0  0
    2.7420    0.3050    0.2550 P   0  0  0  0  0  0  0  0  0  0  0  0
    2.6220   -1.1550   -0.2840 O   0  0  0  0  0  0  0  0  0  0  0  0
    3.4860   -0.1150    1.6780 O   0  0  0  0  0  0  0  0  0  0  0  0
    3.8060    0.5670   -1.0520 O   0  0  0  0  0  0  0  0  0  0  0  0
    5.2910    0.7440   -0.6490 P   0  0  0  0  0  0  0  0  0  0  0  0
    5.1800   -0.5850    0.3350 O   0  0  0  0  0  0  0  0  0  0  0  0
    5.7710    0.6070   -2.1880 O   0  0  0  0  0  0  0  0  0  0  0  0
    4.9030    2.2270    0.0010 O   0  0  0  0  0  0  0  0  0  0  0  0
   -1.2040   -0.0910    1.0200 O   0  0  0  0  0  0  0  0  0  0  0  0
   -3.1800    1.6200    0.7240 C   0  0  0  0  0  0  0  0  0  0  0  0
   -2.1180    2.0690    1.2750 O   0  0  0  0  0  0  0  0  0  0  0  0
   -4.0210    2.6020    0.1930 N   0  0  0  0  0  0  0  0  0  0  0  0
  1  2  2  0
  2  3  1  0
  2 24  1  0
  3  4  2  0
  4  5  1  0
  6  5  1  6
  5 22  1  0
  6  7  1  0
  6 21  1  0
  7  8  1  0
  8  9  1  1
  8 10  1  0
 10 11  1  6
 10 21  1  0
 11 12  1  0
 12 13  1  0
 13 14  1  0
 13 15  1  0
 13 16  1  0
 16 17  1  0
 17 18  1  0
 17 19  1  0
 17 20  1  0
 22 23  2  0
 22 24  1  0
M  END
