
     RDKit          3D

 17 16  0  0  0  0  0  0  0  0999 V2000
    4.3750    1.1130    0.8130 C   0  0  0  0  0  0  0  0  0  0  0  0
    3.3650    0.3370    0.1770 O   0  0  0  0  0  0  0  0  0  0  0  0
    3.4960   -0.9870   -0.1380 C   0  0  0  0  0  0  0  0  0  0  0  0
    4.6010   -1.5530    0.1600 O   0  0  0  0  0  0  0  0  0  0  0  0
    2.4830   -1.8270   -0.7930 C   0  0  0  0  0  0  0  0  0  0  0  0
    1.3090   -1.0920   -1.0730 O   0  0  0  0  0  0  0  0  0  0  0  0
    0.5410   -0.4730   -0.1150 C   0  0  0  0  0  0  0  0  0  0  0  0
    0.8800   -0.5500    1.0860 O   0  0  0  0  0  0  0  0  0  0  0  0
   -0.6130    0.2490   -0.4000 O   0  0  0  0  0  0  0  0  0  0  0  0
   -1.3810    0.8730    0.5970 C   0  0  1  0  0  0  0  0  0  0  0  0
   -1.4080    2.2630    0.4790 O   0  0  0  0  0  0  0  0  0  0  0  0
   -2.7800    0.3020    0.6810 C   0  0  1  0  0  0  0  0  0  0  0  0
   -3.4830    0.9650    1.6850 O   0  0  0  0  0  0  0  0  0  0  0  0
   -3.4200    0.5900   -0.5570 O   0  0  0  0  0  0  0  0  0  0  0  0
   -3.9910   -0.3720   -1.3590 C   0  0  0  0  0  0  0  0  0  0  0  0
   -3.9410   -1.5620   -0.9740 O   0  0  0  0  0  0  0  0  0  0  0  0
   -4.6070   -0.0500   -2.5620 O   0  0  0  0  0  0  0  0  0  0  0  0
  1  2  1  0
  2  3  1  0
  3  4  2  0
  3  5  1  0
  5  6  1  0
  6  7  1  0
  7  8  2  0
  7  9  1  0
  9 10  1  0
 10 11  1  6
 10 12  1  0
 12 13  1  1
 12 14  1  0
 14 15  1  0
 15 16  2  0
 15 17  1  0
M  END
