
     RDKit          3D

 17 17  0  0  0  0  0  0  0  0999 V2000
   -2.7420    0.8520   -0.1210 O   0  0  0  0  0  0  0  0  0  0  0  0
   -1.8050    1.5140   -0.0810 C   0  0  0  0  0  0  0  0  0  0  0  0
   -1.7430    3.0130    0.0650 C   0  0  0  0  0  0  0  0  0  0  0  0
   -3.1230    3.4660    0.0280 O   0  0  0  0  0  0  0  0  0  0  0  0
   -0.5020    0.9230   -0.1740 O   0  0  0  0  0  0  0  0  0  0  0  0
   -0.2960   -0.3590   -0.4910 C   0  0  1  0  0  0  0  0  0  0  0  0
    1.0740   -0.4820   -0.6480 O   0  0  0  0  0  0  0  0  0  0  0  0
    1.9480   -0.1980    0.3030 C   0  0  0  0  0  0  0  0  0  0  0  0
    3.0530    0.5410   -0.3520 C   0  0  0  0  0  0  0  0  0  0  0  0
    4.0200    0.7080    0.6050 O   0  0  0  0  0  0  0  0  0  0  0  0
    5.1920    0.1800   -0.0600 O   0  0  0  0  0  0  0  0  0  0  0  0
   -0.7410   -1.2880    0.6310 C   0  0  0  0  0  0  0  0  0  0  0  0
   -1.3880   -2.4260   -0.1420 C   0  0  2  0  0  0  0  0  0  0  0  0
   -2.7160   -2.1750   -0.4040 O   0  0  0  0  0  0  0  0  0  0  0  0
   -1.1580   -3.6590    0.3920 O   0  0  0  0  0  0  0  0  0  0  0  0
   -0.7010   -2.2590   -1.3770 O   0  0  0  0  0  0  0  0  0  0  0  0
   -0.8820   -0.9130   -1.5710 O   0  0  0  0  0  0  0  0  0  0  0  0
  1  2  2  0
  2  3  1  0
  2  5  1  0
  3  4  1  0
  6  5  1  1
  6  7  1  0
  6 12  1  0
  6 17  1  0
  7  8  1  0
  8  9  1  0
  9 10  1  0
 10 11  1  0
 12 13  1  0
 13 14  1  6
 13 15  1  0
 13 16  1  0
 16 17  1  0
M  END
