
     RDKit          3D

 10 10  0  0  0  0  0  0  0  0999 V2000
    3.4700    0.0480   -0.0670 O   0  0  0  0  0  0  0  0  0  0  0  0
    2.8580    1.2090   -0.1680 O   0  0  0  0  0  0  0  0  0  0  0  0
    1.7090    0.9880   -0.7480 O   0  0  0  0  0  0  0  0  0  0  0  0
    0.8450    0.3560    0.1280 C   0  0  0  0  0  0  0  0  0  0  0  0
   -0.3710   -0.1920   -0.5660 C   0  0  1  0  0  0  0  0  0  0  0  0
    0.0540   -0.9880   -1.6170 O   0  0  0  0  0  0  0  0  0  0  0  0
   -1.1950   -0.9400    0.4500 C   0  0  0  0  0  0  0  0  0  0  0  0
   -2.4890   -0.6170    0.0740 O   0  0  0  0  0  0  0  0  0  0  0  0
   -2.3870    0.7170   -0.3510 C   0  0  0  0  0  0  0  0  0  0  0  0
   -1.1960    0.7890   -1.0860 O   0  0  0  0  0  0  0  0  0  0  0  0
  1  2  1  0
  2  3  1  0
  3  4  1  0
  4  5  1  0
  5  6  1  6
  5  7  1  0
  5 10  1  0
  7  8  1  0
  8  9  1  0
  9 10  1  0
M  END
