
     RDKit          3D

 10 10  0  0  0  0  0  0  0  0999 V2000
    3.1980   -0.2860    0.1190 O   0  0  0  0  0  0  0  0  0  0  0  0
    2.4540    0.5200   -0.6790 O   0  0  0  0  0  0  0  0  0  0  0  0
    1.3870   -0.0330   -1.1330 C   0  0  0  0  0  0  0  0  0  0  0  0
    0.3540   -0.1580   -0.1020 C   0  0  2  0  0  0  0  0  0  0  0  0
    0.9390   -0.8160    1.0390 O   0  0  0  0  0  0  0  0  0  0  0  0
   -0.7410   -0.8970   -0.3940 O   0  0  0  0  0  0  0  0  0  0  0  0
   -1.6800   -0.5440    0.6100 C   0  0  0  0  0  0  0  0  0  0  0  0
   -2.2280    0.7910    0.1350 C   0  0  0  0  0  0  0  0  0  0  0  0
   -1.1400    1.5570   -0.2780 O   0  0  0  0  0  0  0  0  0  0  0  0
   -0.0080    1.1650    0.2960 O   0  0  0  0  0  0  0  0  0  0  0  0
  1  2  1  0
  2  3  1  0
  3  4  1  0
  4  5  1  1
  4  6  1  0
  4 10  1  0
  6  7  1  0
  7  8  1  0
  8  9  1  0
  9 10  1  0
M  END
