
     RDKit          3D

 10 10  0  0  0  0  0  0  0  0999 V2000
   -2.6580    1.9530   -1.1230 O   0  0  0  0  0  0  0  0  0  0  0  0
   -1.9550    1.0360   -0.7570 C   0  0  0  0  0  0  0  0  0  0  0  0
   -2.3620   -0.0660    0.1340 C   0  0  0  0  0  0  0  0  0  0  0  0
   -1.2050   -0.4280    0.7450 O   0  0  0  0  0  0  0  0  0  0  0  0
   -0.1240    0.0980    0.1240 C   0  0  1  0  0  0  0  0  0  0  0  0
    0.7910   -1.0200   -0.3740 C   0  0  0  0  0  0  0  0  0  0  0  0
    2.0640   -0.3880   -0.4900 O   0  0  0  0  0  0  0  0  0  0  0  0
    2.5120   -0.1700    0.7550 O   0  0  0  0  0  0  0  0  0  0  0  0
    3.7790    0.0490    0.8180 O   0  0  0  0  0  0  0  0  0  0  0  0
   -0.6590    0.7650   -1.0410 O   0  0  0  0  0  0  0  0  0  0  0  0
  1  2  2  0
  2  3  1  0
  2 10  1  0
  3  4  1  0
  4  5  1  0
  5  6  1  6
  5 10  1  0
  6  7  1  0
  7  8  1  0
  8  9  1  0
M  END
