
     RDKit          3D

 24 26  0  0  0  0  0  0  0  0999 V2000
    3.0220    1.9500   -2.4780 C   0  0  0  0  0  0  0  0  0  0  0  0
    3.3890    1.5500   -1.0350 C   0  0  2  0  0  0  0  0  0  0  0  0
    4.7130    0.9470   -1.0630 C   0  0  0  0  0  0  0  0  0  0  0  0
    4.9260   -0.2410   -0.5590 C   0  0  0  0  0  0  0  0  0  0  0  0
    6.2230   -0.7890   -0.6070 O   0  0  0  0  0  0  0  0  0  0  0  0
    3.8270   -0.9830    0.0430 C   0  0  0  0  0  0  0  0  0  0  0  0
    2.6050   -0.5550    0.1300 C   0  0  0  0  0  0  0  0  0  0  0  0
    1.4710   -1.2510    0.7190 C   0  0  0  0  0  0  0  0  0  0  0  0
    0.1960   -0.6740    0.7210 C   0  0  0  0  0  0  0  0  0  0  0  0
   -0.9080   -1.2890    1.2680 C   0  0  0  0  0  0  0  0  0  0  0  0
   -2.1500   -0.6880    1.2510 O   0  0  0  0  0  0  0  0  0  0  0  0
   -2.2910    0.5750    0.6650 C   0  0  0  0  0  0  0  0  0  0  0  0
   -3.7170    1.0830    0.7340 C   0  0  2  0  0  0  0  0  0  0  0  0
   -4.1630    1.1980    2.0430 O   0  0  0  0  0  0  0  0  0  0  0  0
   -4.6290    0.2490   -0.1250 C   0  0  0  0  0  0  0  0  0  0  0  0
   -5.4080    1.2940   -0.8970 C   0  0  0  0  0  0  0  0  0  0  0  0
   -5.2080    2.4810   -0.2310 O   0  0  0  0  0  0  0  0  0  0  0  0
   -3.8450    2.4490    0.0960 C   0  0  0  0  0  0  0  0  0  0  0  0
   -0.7930   -2.5300    1.8500 C   0  0  0  0  0  0  0  0  0  0  0  0
   -1.9160   -3.1690    2.4140 O   0  0  0  0  0  0  0  0  0  0  0  0
    0.4410   -3.1140    1.8600 C   0  0  0  0  0  0  0  0  0  0  0  0
    1.5650   -2.4730    1.2960 C   0  0  0  0  0  0  0  0  0  0  0  0
    2.7520   -3.1640    1.3690 O   0  0  0  0  0  0  0  0  0  0  0  0
    2.2970    0.8040   -0.4110 C   0  0  0  0  0  0  0  0  0  0  0  0
  2  1  1  6
  2  3  1  0
  2 24  1  0
  3  4  2  0
  4  5  1  0
  4  6  1  0
  6  7  2  0
  7  8  1  0
  7 24  1  0
  8  9  2  0
  8 22  1  0
  9 10  1  0
 10 11  1  0
 10 19  2  0
 11 12  1  0
 12 13  1  0
 13 14  1  1
 13 15  1  0
 13 18  1  0
 15 16  1  0
 16 17  1  0
 17 18  1  0
 19 20  1  0
 19 21  1  0
 21 22  2  0
 22 23  1  0
M  END
