
     RDKit          3D

 24 26  0  0  0  0  0  0  0  0999 V2000
   -0.1890   -2.0650    0.6360 C   0  0  0  0  0  0  0  0  0  0  0  0
   -0.4570   -0.8120   -0.2040 C   0  0  1  0  0  0  0  0  0  0  0  0
    0.7330   -0.5600   -1.0860 C   0  0  0  0  0  0  0  0  0  0  0  0
    0.6380   -0.5430   -2.3400 O   0  0  0  0  0  0  0  0  0  0  0  0
    1.9700   -0.3410   -0.5060 O   0  0  0  0  0  0  0  0  0  0  0  0
    3.0710   -0.1080   -1.3310 C   0  0  0  0  0  0  0  0  0  0  0  0
    4.3050    0.1030   -0.5050 C   0  0  0  0  0  0  0  0  0  0  0  0
    4.9580    1.2360   -0.5980 C   0  0  0  0  0  0  0  0  0  0  0  0
    6.1690    1.5210    0.1720 C   0  0  0  0  0  0  0  0  0  0  0  0
    6.5200    0.4570    0.9890 O   0  0  0  0  0  0  0  0  0  0  0  0
    5.8350   -0.7310    1.0870 C   0  0  0  0  0  0  0  0  0  0  0  0
    4.7440   -0.9670    0.3820 C   0  0  0  0  0  0  0  0  0  0  0  0
   -1.6660   -1.0150   -1.0560 C   0  0  0  0  0  0  0  0  0  0  0  0
   -2.9230   -0.5150   -0.4570 C   0  0  0  0  0  0  0  0  0  0  0  0
   -4.0760   -0.4940   -1.2610 C   0  0  0  0  0  0  0  0  0  0  0  0
   -5.2850   -0.0480   -0.7860 C   0  0  0  0  0  0  0  0  0  0  0  0
   -6.4020   -0.0440   -1.6180 O   0  0  0  0  0  0  0  0  0  0  0  0
   -5.3370    0.3850    0.5230 C   0  0  0  0  0  0  0  0  0  0  0  0
   -6.5600    0.8360    1.0020 O   0  0  0  0  0  0  0  0  0  0  0  0
   -4.2020    0.3640    1.3130 C   0  0  0  0  0  0  0  0  0  0  0  0
   -2.9820   -0.0820    0.8470 C   0  0  0  0  0  0  0  0  0  0  0  0
   -1.7640   -0.1010    1.6990 C   0  0  0  0  0  0  0  0  0  0  0  0
   -0.6420    0.3420    0.7450 C   0  0  2  0  0  0  0  0  0  0  0  0
   -1.1650    1.4420    0.0470 O   0  0  0  0  0  0  0  0  0  0  0  0
  2  1  1  1
  2  3  1  0
  2 13  1  0
  2 23  1  0
  3  4  2  0
  3  5  1  0
  5  6  1  0
  6  7  1  0
  7  8  2  0
  7 12  1  0
  8  9  1  0
  9 10  1  0
 10 11  1  0
 11 12  2  0
 13 14  1  0
 14 15  2  0
 14 21  1  0
 15 16  1  0
 16 17  1  0
 16 18  2  0
 18 19  1  0
 18 20  1  0
 20 21  2  0
 21 22  1  0
 22 23  1  0
 23 24  1  6
M  END
