
     RDKit          3D

 24 26  0  0  0  0  0  0  0  0999 V2000
    5.8410    1.9240    2.6730 O   0  0  0  0  0  0  0  0  0  0  0  0
    4.8500    1.0880    2.1710 C   0  0  0  0  0  0  0  0  0  0  0  0
    3.8710    1.9140    1.3480 C   0  0  1  0  0  0  0  0  0  0  0  0
    4.5720    2.5040    0.2910 O   0  0  0  0  0  0  0  0  0  0  0  0
    2.7860    1.0680    0.8270 C   0  0  0  0  0  0  0  0  0  0  0  0
    2.9550    0.1350   -0.1600 C   0  0  0  0  0  0  0  0  0  0  0  0
    1.8670   -0.6130   -0.5870 C   0  0  0  0  0  0  0  0  0  0  0  0
    0.6070   -0.4610   -0.0600 C   0  0  0  0  0  0  0  0  0  0  0  0
   -0.4530   -1.3630   -0.5510 C   0  0  0  0  0  0  0  0  0  0  0  0
   -0.1610   -2.6390   -0.4730 C   0  0  0  0  0  0  0  0  0  0  0  0
    1.1270   -2.9600    0.0720 O   0  0  0  0  0  0  0  0  0  0  0  0
   -1.0400   -3.7210   -0.8970 C   0  0  1  0  0  0  0  0  0  0  0  0
   -1.1790   -4.6710    0.1470 O   0  0  0  0  0  0  0  0  0  0  0  0
   -2.3360   -3.2940   -1.4350 C   0  0  0  0  0  0  0  0  0  0  0  0
   -2.5510   -1.8640   -1.4810 C   0  0  0  0  0  0  0  0  0  0  0  0
   -1.7110   -0.8910   -1.0820 C   0  0  0  0  0  0  0  0  0  0  0  0
   -2.0930    0.3350   -1.2140 O   0  0  0  0  0  0  0  0  0  0  0  0
   -2.4490    1.5690   -1.3470 C   0  0  1  0  0  0  0  0  0  0  0  0
   -4.0150    1.6350   -1.2510 C   0  0  0  0  0  0  0  0  0  0  0  0
   -4.1520    1.5700    0.2600 C   0  0  0  0  0  0  0  0  0  0  0  0
   -2.9070    1.8530    0.8130 O   0  0  0  0  0  0  0  0  0  0  0  0
   -2.1760    2.4900   -0.1770 C   0  0  0  0  0  0  0  0  0  0  0  0
    0.4260    0.4630    0.9200 C   0  0  0  0  0  0  0  0  0  0  0  0
    1.4980    1.2110    1.3530 C   0  0  0  0  0  0  0  0  0  0  0  0
  1  2  1  0
  2  3  1  0
  3  4  1  6
  3  5  1  0
  5  6  2  0
  5 24  1  0
  6  7  1  0
  7  8  2  0
  8  9  1  0
  8 23  1  0
  9 10  2  0
  9 16  1  0
 10 11  1  0
 10 12  1  0
 12 13  1  1
 12 14  1  0
 14 15  1  0
 15 16  2  0
 16 17  1  0
 18 17  1  1
 18 19  1  0
 18 22  1  0
 19 20  1  0
 20 21  1  0
 21 22  1  0
 23 24  2  0
M  END
