
     RDKit          3D

 24 26  0  0  0  0  0  0  0  0999 V2000
    6.0240    1.8800    1.8460 C   0  0  0  0  0  0  0  0  0  0  0  0
    4.9470    1.8200    0.9680 O   0  0  0  0  0  0  0  0  0  0  0  0
    3.8330    1.0090    1.0990 C   0  0  0  0  0  0  0  0  0  0  0  0
    3.7210    0.2420    2.0720 O   0  0  0  0  0  0  0  0  0  0  0  0
    2.7610    1.0730    0.0490 C   0  0  1  0  0  0  0  0  0  0  0  0
    3.2740    0.6560   -1.3050 C   0  0  0  0  0  0  0  0  0  0  0  0
    2.0160    0.3850   -2.1420 C   0  0  0  0  0  0  0  0  0  0  0  0
    1.4180   -0.8590   -1.5760 C   0  0  1  0  0  0  0  0  0  0  0  0
    2.4940   -1.8360   -1.7270 O   0  0  0  0  0  0  0  0  0  0  0  0
    1.0690   -0.8490   -0.1060 C   0  0  2  0  0  0  0  0  0  0  0  0
   -0.4280   -0.8500    0.0830 C   0  0  0  0  0  0  0  0  0  0  0  0
   -1.2520   -0.0470   -0.6820 C   0  0  0  0  0  0  0  0  0  0  0  0
   -2.5930    0.0320   -0.3830 C   0  0  0  0  0  0  0  0  0  0  0  0
   -3.0890   -0.6940    0.6600 C   0  0  0  0  0  0  0  0  0  0  0  0
   -2.2580   -1.5040    1.4280 C   0  0  0  0  0  0  0  0  0  0  0  0
   -0.9200   -1.5910    1.1520 C   0  0  0  0  0  0  0  0  0  0  0  0
   -0.0130   -2.4670    1.9450 C   0  0  0  0  0  0  0  0  0  0  0  0
   -0.7350   -3.1380    2.9440 O   0  0  0  0  0  0  0  0  0  0  0  0
   -4.4770   -0.4630    0.7650 O   0  0  0  0  0  0  0  0  0  0  0  0
   -4.9260    0.0690   -0.5070 C   0  0  1  0  0  0  0  0  0  0  0  0
   -6.1560    0.9210   -0.2620 C   0  0  0  0  0  0  0  0  0  0  0  0
   -6.5370    1.4610   -1.4970 O   0  0  0  0  0  0  0  0  0  0  0  0
   -3.7210    0.8680   -0.9030 C   0  0  0  0  0  0  0  0  0  0  0  0
    1.4530    0.5410    0.4460 C   0  0  0  0  0  0  0  0  0  0  0  0
  1  2  1  0
  2  3  1  0
  3  4  2  0
  5  3  1  1
  5  6  1  0
  5 24  1  0
  6  7  1  0
  7  8  1  0
  8  9  1  1
  8 10  1  0
 10 11  1  6
 10 24  1  0
 11 12  2  0
 11 16  1  0
 12 13  1  0
 13 14  2  0
 13 23  1  0
 14 15  1  0
 14 19  1  0
 15 16  2  0
 16 17  1  0
 17 18  1  0
 19 20  1  0
 20 21  1  1
 20 23  1  0
 21 22  1  0
M  END
