
     RDKit          3D

 23 23  0  0  0  0  0  0  0  0999 V2000
   -4.4350    2.3270    0.5050 O   0  0  0  0  0  0  0  0  0  0  0  0
   -3.6400    2.7390   -0.5680 C   0  0  0  0  0  0  0  0  0  0  0  0
   -2.5270    1.7540   -0.8610 C   0  0  2  0  0  0  0  0  0  0  0  0
   -3.1630    0.4170   -1.1950 C   0  0  0  0  0  0  0  0  0  0  0  0
   -2.3690   -0.6800   -0.5480 C   0  0  1  0  0  0  0  0  0  0  0  0
   -2.8100   -0.9700    0.8670 C   0  0  0  0  0  0  0  0  0  0  0  0
   -4.1670   -1.2890    0.9230 O   0  0  0  0  0  0  0  0  0  0  0  0
   -2.5520   -1.9740   -1.3340 C   0  0  1  0  0  0  0  0  0  0  0  0
   -1.7700   -2.9430   -0.6780 O   0  0  0  0  0  0  0  0  0  0  0  0
   -3.8830   -2.3610   -1.3900 O   0  0  0  0  0  0  0  0  0  0  0  0
   -1.0370   -0.3700   -0.5750 O   0  0  0  0  0  0  0  0  0  0  0  0
   -0.6930    0.7640    0.1400 C   0  0  2  0  0  0  0  0  0  0  0  0
   -0.3140    0.3600    1.4090 O   0  0  0  0  0  0  0  0  0  0  0  0
    0.9870    0.6680    1.7220 C   0  0  0  0  0  0  0  0  0  0  0  0
    2.0230    0.0250    0.8320 C   0  0  0  0  0  0  0  0  0  0  0  0
    3.2670    0.4500    1.2990 O   0  0  0  0  0  0  0  0  0  0  0  0
    4.3140   -0.0650    0.5740 C   0  0  1  0  0  0  0  0  0  0  0  0
    5.4960    0.4330    1.1380 O   0  0  0  0  0  0  0  0  0  0  0  0
    4.4080   -1.5630    0.6010 C   0  0  0  0  0  0  0  0  0  0  0  0
    5.5230   -1.9140   -0.1840 O   0  0  0  0  0  0  0  0  0  0  0  0
    4.3040    0.3840   -0.8710 C   0  0  0  0  0  0  0  0  0  0  0  0
    4.3900    1.7760   -0.9680 O   0  0  0  0  0  0  0  0  0  0  0  0
   -1.7420    1.6580    0.2820 O   0  0  0  0  0  0  0  0  0  0  0  0
  1  2  1  0
  3  2  1  1
  3  4  1  0
  3 23  1  0
  4  5  1  0
  5  6  1  1
  5  8  1  0
  5 11  1  0
  6  7  1  0
  8  9  1  1
  8 10  1  0
 11 12  1  0
 12 13  1  1
 12 23  1  0
 13 14  1  0
 14 15  1  0
 15 16  1  0
 16 17  1  0
 17 18  1  1
 17 19  1  0
 17 21  1  0
 19 20  1  0
 21 22  1  0
M  END
