
     RDKit          3D

 22 22  0  0  0  0  0  0  0  0999 V2000
   -4.0660   -2.2970    1.7830 O   0  0  0  0  0  0  0  0  0  0  0  0
   -2.8810   -1.5640    1.8410 C   0  0  0  0  0  0  0  0  0  0  0  0
   -3.1250   -0.0920    1.9820 C   0  0  0  0  0  0  0  0  0  0  0  0
   -3.9080    0.5300    0.8770 C   0  0  0  0  0  0  0  0  0  0  0  0
   -3.3130    0.4580   -0.4830 C   0  0  2  0  0  0  0  0  0  0  0  0
   -4.2480    1.1040   -1.3400 O   0  0  0  0  0  0  0  0  0  0  0  0
   -3.2870   -0.8590   -0.9130 O   0  0  0  0  0  0  0  0  0  0  0  0
   -1.9640    1.1240   -0.6210 C   0  0  1  0  0  0  0  0  0  0  0  0
   -1.5990    0.9810   -1.9720 O   0  0  0  0  0  0  0  0  0  0  0  0
   -2.0400    2.5990   -0.3330 C   0  0  0  0  0  0  0  0  0  0  0  0
   -0.7830    3.0500    0.0600 O   0  0  0  0  0  0  0  0  0  0  0  0
    0.2450    2.3900   -0.5790 C   0  0  0  0  0  0  0  0  0  0  0  0
    0.2550    0.9620   -0.1470 C   0  0  2  0  0  0  0  0  0  0  0  0
    0.9800    0.1350   -0.9930 O   0  0  0  0  0  0  0  0  0  0  0  0
    2.0870   -0.4380   -0.3840 C   0  0  0  0  0  0  0  0  0  0  0  0
    2.7910   -1.3080   -1.3870 C   0  0  0  0  0  0  0  0  0  0  0  0
    3.9120   -1.9430   -0.9170 O   0  0  0  0  0  0  0  0  0  0  0  0
    4.9220   -1.1390   -0.4650 C   0  0  2  0  0  0  0  0  0  0  0  0
    6.1220   -1.3000   -1.1510 O   0  0  0  0  0  0  0  0  0  0  0  0
    5.2330   -1.3560    1.0080 C   0  0  0  0  0  0  0  0  0  0  0  0
    5.6230   -2.6660    1.2580 O   0  0  0  0  0  0  0  0  0  0  0  0
   -1.0110    0.4750    0.1200 O   0  0  0  0  0  0  0  0  0  0  0  0
  1  2  1  0
  2  3  1  0
  3  4  1  0
  4  5  1  0
  5  6  1  6
  5  7  1  0
  5  8  1  0
  8  9  1  6
  8 10  1  0
  8 22  1  0
 10 11  1  0
 11 12  1  0
 12 13  1  0
 13 14  1  6
 13 22  1  0
 14 15  1  0
 15 16  1  0
 16 17  1  0
 17 18  1  0
 18 19  1  6
 18 20  1  0
 20 21  1  0
M  END
