
     RDKit          3D

 22 22  0  0  0  0  0  0  0  0999 V2000
   -3.5080    1.6430    0.1420 C   0  0  0  0  0  0  0  0  0  0  0  0
   -2.6470    0.4400    0.4980 C   0  0  1  0  0  0  0  0  0  0  0  0
   -2.1270    0.7510    1.7770 O   0  0  0  0  0  0  0  0  0  0  0  0
   -3.3310   -0.7240    0.6660 O   0  0  0  0  0  0  0  0  0  0  0  0
   -3.9600   -1.3450   -0.3340 C   0  0  0  0  0  0  0  0  0  0  0  0
   -5.0730   -0.6450   -1.0490 C   0  0  0  0  0  0  0  0  0  0  0  0
   -5.5620   -1.5360   -2.0490 O   0  0  0  0  0  0  0  0  0  0  0  0
   -1.5310    0.3740   -0.4760 C   0  0  2  0  0  0  0  0  0  0  0  0
   -2.0350    0.1140   -1.7920 O   0  0  0  0  0  0  0  0  0  0  0  0
   -0.4410   -0.5890   -0.2690 C   0  0  0  0  0  0  0  0  0  0  0  0
    0.4250   -0.5290    0.9190 C   0  0  2  0  0  0  0  0  0  0  0  0
    1.3460   -1.6280    0.7630 O   0  0  0  0  0  0  0  0  0  0  0  0
   -0.1300   -0.6560    2.1510 O   0  0  0  0  0  0  0  0  0  0  0  0
    1.3600    0.6810    0.9160 C   0  0  1  0  0  0  0  0  0  0  0  0
    0.5850    1.8620    1.0700 O   0  0  0  0  0  0  0  0  0  0  0  0
    2.2660    0.5330    1.8680 O   0  0  0  0  0  0  0  0  0  0  0  0
    3.5770    0.4660    1.7770 C   0  0  0  0  0  0  0  0  0  0  0  0
    4.2620   -0.6720    1.0810 C   0  0  1  0  0  0  0  0  0  0  0  0
    4.2290   -0.6000   -0.4130 C   0  0  0  0  0  0  0  0  0  0  0  0
    4.9420    0.6040   -0.6040 O   0  0  0  0  0  0  0  0  0  0  0  0
    5.9740    0.5380    0.3280 C   0  0  0  0  0  0  0  0  0  0  0  0
    5.6800   -0.4520    1.2580 O   0  0  0  0  0  0  0  0  0  0  0  0
  2  1  1  6
  2  3  1  0
  2  4  1  0
  2  8  1  0
  4  5  1  0
  5  6  1  0
  6  7  1  0
  8  9  1  6
  8 10  1  0
 10 11  1  0
 11 12  1  6
 11 13  1  0
 11 14  1  0
 14 15  1  1
 14 16  1  0
 16 17  1  0
 18 17  1  1
 18 19  1  0
 18 22  1  0
 19 20  1  0
 20 21  1  0
 21 22  1  0
M  END
