
     RDKit          3D

 22 23  0  0  0  0  0  0  0  0999 V2000
   -2.4180   -4.4230   -1.5600 C   0  0  0  0  0  0  0  0  0  0  0  0
   -2.6050   -3.1440   -1.7930 C   0  0  0  0  0  0  0  0  0  0  0  0
   -1.5190   -2.1620   -1.7450 C   0  0  0  0  0  0  0  0  0  0  0  0
   -1.7550   -1.1420   -0.7460 N   0  0  0  0  0  0  0  0  0  0  0  0
   -2.8300   -0.2760   -1.0110 C   0  0  0  0  0  0  0  0  0  0  0  0
   -2.9740    0.6520    0.1880 C   0  0  0  0  0  0  0  0  0  0  0  0
   -3.0410    0.2880    1.4970 C   0  0  0  0  0  0  0  0  0  0  0  0
   -3.1800    1.2550    2.4200 C   0  0  0  0  0  0  0  0  0  0  0  0
   -3.2500    2.5430    2.0340 C   0  0  0  0  0  0  0  0  0  0  0  0
   -3.1040    2.3580    0.2150 S   0  0  0  0  0  0  0  0  0  0  0  0
   -0.5410   -0.5690   -0.2580 C   0  0  0  0  0  0  0  0  0  0  0  0
    0.1970    0.2430   -1.2950 C   0  0  1  0  0  0  0  0  0  0  0  0
   -0.6390    1.2730   -1.7080 O   0  0  0  0  0  0  0  0  0  0  0  0
    1.4120    0.8650   -0.7080 C   0  0  0  0  0  0  0  0  0  0  0  0
    1.5210    2.1370   -0.6080 O   0  0  0  0  0  0  0  0  0  0  0  0
    2.5170    0.1190   -0.2270 N   0  0  0  0  0  0  0  0  0  0  0  0
    3.6780    0.7040    0.3360 C   0  0  0  0  0  0  0  0  0  0  0  0
    4.7330    0.0110    0.7910 N   0  0  0  0  0  0  0  0  0  0  0  0
    5.8110    0.6240    1.3220 C   0  0  0  0  0  0  0  0  0  0  0  0
    5.8660    2.0060    1.4170 C   0  0  0  0  0  0  0  0  0  0  0  0
    4.7670    2.7080    0.9420 C   0  0  0  0  0  0  0  0  0  0  0  0
    3.7330    2.0410    0.4280 N   0  0  0  0  0  0  0  0  0  0  0  0
  1  2  2  0
  2  3  1  0
  3  4  1  0
  4  5  1  0
  4 11  1  0
  5  6  1  0
  6  7  2  0
  6 10  1  0
  7  8  1  0
  8  9  2  0
  9 10  1  0
 11 12  1  0
 12 13  1  1
 12 14  1  0
 14 15  2  0
 14 16  1  0
 16 17  1  0
 17 18  2  0
 17 22  1  0
 18 19  1  0
 19 20  2  0
 20 21  1  0
 21 22  2  0
M  END
