
     RDKit          3D

 22 23  0  0  0  0  0  0  0  0999 V2000
   -5.3160   -1.6340    1.2960 C   0  0  0  0  0  0  0  0  0  0  0  0
   -5.7340   -0.3940    1.3640 C   0  0  0  0  0  0  0  0  0  0  0  0
   -4.9870    0.7650    0.9300 C   0  0  0  0  0  0  0  0  0  0  0  0
   -3.6770    0.5220    0.3820 N   0  0  0  0  0  0  0  0  0  0  0  0
   -2.9350    1.6440   -0.0490 C   0  0  0  0  0  0  0  0  0  0  0  0
   -3.5090    2.8000    0.0920 O   0  0  0  0  0  0  0  0  0  0  0  0
   -1.6030    1.6620   -0.6310 C   0  0  0  0  0  0  0  0  0  0  0  0
   -0.9110    2.8460   -0.9660 C   0  0  0  0  0  0  0  0  0  0  0  0
    0.2600    2.4880   -1.4660 N   0  0  0  0  0  0  0  0  0  0  0  0
    0.4180    1.2080   -1.4990 N   0  0  0  0  0  0  0  0  0  0  0  0
    1.5940    0.5320   -1.9920 C   0  0  0  0  0  0  0  0  0  0  0  0
    2.5760    0.3190   -0.8950 C   0  0  0  0  0  0  0  0  0  0  0  0
    2.3480    0.6890    0.2920 O   0  0  0  0  0  0  0  0  0  0  0  0
    3.8190   -0.3130   -1.1380 N   0  0  0  0  0  0  0  0  0  0  0  0
    4.7760   -0.5290   -0.1110 C   0  0  0  0  0  0  0  0  0  0  0  0
    5.9770   -1.0730   -0.0740 C   0  0  0  0  0  0  0  0  0  0  0  0
    6.6650   -1.1420    1.0690 C   0  0  0  0  0  0  0  0  0  0  0  0
    6.0720   -0.6190    2.2310 C   0  0  0  0  0  0  0  0  0  0  0  0
    4.4680   -0.0140    1.6230 S   0  0  0  0  0  0  0  0  0  0  0  0
   -0.7270    0.6560   -0.9840 C   0  0  0  0  0  0  0  0  0  0  0  0
   -0.9060   -0.7890   -0.8510 C   0  0  0  0  0  0  0  0  0  0  0  0
   -0.6930   -1.2680    0.5740 C   0  0  0  0  0  0  0  0  0  0  0  0
  1  2  2  0
  2  3  1  0
  3  4  1  0
  4  5  1  0
  5  6  2  0
  5  7  1  0
  7  8  1  0
  7 20  2  0
  8  9  2  0
  9 10  1  0
 10 11  1  0
 10 20  1  0
 11 12  1  0
 12 13  2  0
 12 14  1  0
 14 15  1  0
 15 16  2  0
 15 19  1  0
 16 17  1  0
 17 18  2  0
 18 19  1  0
 20 21  1  0
 21 22  1  0
M  END
