
     RDKit          3D

 25 27  0  0  0  0  0  0  0  0999 V2000
   -5.7230    0.6490   -1.9670 C   0  0  0  0  0  0  0  0  0  0  0  0
   -5.5030    0.3900   -0.6250 O   0  0  0  0  0  0  0  0  0  0  0  0
   -5.3940   -0.9660   -0.3450 C   0  0  2  0  0  0  0  0  0  0  0  0
   -6.4780   -1.3670    0.6330 C   0  0  0  0  0  0  0  0  0  0  0  0
   -4.0380   -1.1690    0.2510 C   0  0  0  0  0  0  0  0  0  0  0  0
   -2.8770   -0.6470   -0.2000 N   0  0  0  0  0  0  0  0  0  0  0  0
   -1.8720   -1.0340    0.5660 N   0  0  0  0  0  0  0  0  0  0  0  0
   -0.5100   -0.6690    0.3810 C   0  0  0  0  0  0  0  0  0  0  0  0
    0.0770    0.3770    1.0560 C   0  0  0  0  0  0  0  0  0  0  0  0
    1.4010    0.7550    0.8960 C   0  0  0  0  0  0  0  0  0  0  0  0
    2.1900    0.0640    0.0230 C   0  0  0  0  0  0  0  0  0  0  0  0
    3.5390    0.4100   -0.1720 N   0  0  0  0  0  0  0  0  0  0  0  0
    4.2910    1.4260    0.4320 C   0  0  0  0  0  0  0  0  0  0  0  0
    3.7670    2.1650    1.2670 O   0  0  0  0  0  0  0  0  0  0  0  0
    5.7170    1.6550    0.1070 C   0  0  0  0  0  0  0  0  0  0  0  0
    6.4970    1.0080   -0.7410 C   0  0  0  0  0  0  0  0  0  0  0  0
    7.7950    1.5830   -0.7190 N   0  0  0  0  0  0  0  0  0  0  0  0
    7.8570    2.2930    0.4030 O   0  0  0  0  0  0  0  0  0  0  0  0
    6.5610    2.6520    0.6670 N   0  0  0  0  0  0  0  0  0  0  0  0
    1.6110   -0.9910   -0.6630 C   0  0  0  0  0  0  0  0  0  0  0  0
    0.3020   -1.3520   -0.4930 C   0  0  0  0  0  0  0  0  0  0  0  0
   -0.3250   -2.6930   -1.4040 Cl  0  0  0  0  0  0  0  0  0  0  0  0
   -2.3510   -1.8220    1.5420 C   0  0  0  0  0  0  0  0  0  0  0  0
   -1.7280   -2.3930    2.4750 O   0  0  0  0  0  0  0  0  0  0  0  0
   -3.6920   -1.8950    1.3320 N   0  0  0  0  0  0  0  0  0  0  0  0
  1  2  1  0
  2  3  1  0
  3  4  1  1
  3  5  1  0
  5  6  2  0
  5 25  1  0
  6  7  1  0
  7  8  1  0
  7 23  1  0
  8  9  2  0
  8 21  1  0
  9 10  1  0
 10 11  2  0
 11 12  1  0
 11 20  1  0
 12 13  1  0
 13 14  2  0
 13 15  1  0
 15 16  2  0
 15 19  1  0
 16 17  1  0
 17 18  1  0
 18 19  1  0
 20 21  2  0
 21 22  1  0
 23 24  2  0
 23 25  1  0
M  CHG  1  17   1
M  END
