
     RDKit          3D

 17 17  0  0  0  0  0  0  0  0999 V2000
    4.7550    0.3300    0.9440 C   0  0  0  0  0  0  0  0  0  0  0  0
    4.0130    1.1110   -0.1240 C   0  0  1  0  0  0  0  0  0  0  0  0
    4.5120    0.7160   -1.5190 C   0  0  0  0  0  0  0  0  0  0  0  0
    2.5650    0.8440   -0.0810 C   0  0  0  0  0  0  0  0  0  0  0  0
    1.6210    1.7840    0.0450 N   0  0  0  0  0  0  0  0  0  0  0  0
    0.4750    1.2040    0.0470 N   0  0  0  0  0  0  0  0  0  0  0  0
    0.5590   -0.1200   -0.0730 C   0  0  0  0  0  0  0  0  0  0  0  0
   -0.4100   -1.1670   -0.1200 C   0  0  0  0  0  0  0  0  0  0  0  0
   -1.6580   -1.2830   -0.0720 C   0  0  0  0  0  0  0  0  0  0  0  0
   -2.9350   -0.7020    0.0370 C   0  0  0  0  0  0  0  0  0  0  0  0
   -3.9490   -1.6780   -0.0020 C   0  0  0  0  0  0  0  0  0  0  0  0
   -3.6190   -3.0240   -0.1350 N   0  0  0  0  0  0  0  0  0  0  0  0
   -3.4680    0.5900    0.1750 C   0  0  0  0  0  0  0  0  0  0  0  0
   -4.9850    0.5660    0.2420 N   0  0  0  0  0  0  0  0  0  0  0  0
   -3.0650    1.8090    0.2630 C   0  0  0  0  0  0  0  0  0  0  0  0
   -1.8380    2.3860    0.2570 O   0  0  0  0  0  0  0  0  0  0  0  0
    1.9340   -0.3310   -0.1540 N   0  0  0  0  0  0  0  0  0  0  0  0
  2  1  1  1
  2  3  1  0
  2  4  1  0
  4  5  2  0
  4 17  1  0
  5  6  1  0
  6  7  2  0
  7  8  1  0
  7 17  1  0
  8  9  2  3
  9 10  1  0
 10 11  2  3
 10 13  1  0
 11 12  1  0
 13 14  1  0
 13 15  2  3
 15 16  1  0
M  END
