
     RDKit          3D

 18 18  0  0  0  0  0  0  0  0999 V2000
   -2.9070    2.1790    1.4690 C   0  0  0  0  0  0  0  0  0  0  0  0
   -3.6350    1.8750    0.4180 C   0  0  0  0  0  0  0  0  0  0  0  0
   -3.7410    0.5340   -0.1400 C   0  0  0  0  0  0  0  0  0  0  0  0
   -4.4920    0.3020   -1.1980 C   0  0  0  0  0  0  0  0  0  0  0  0
   -4.6350   -1.0340   -1.8060 C   0  0  0  0  0  0  0  0  0  0  0  0
   -3.0460   -0.5460    0.4430 N   0  0  0  0  0  0  0  0  0  0  0  0
   -1.7740   -0.6630    0.4570 C   0  0  0  0  0  0  0  0  0  0  0  0
   -1.0810   -1.6860    1.0030 N   0  0  0  0  0  0  0  0  0  0  0  0
    0.2280   -1.4470    0.8180 C   0  0  0  0  0  0  0  0  0  0  0  0
    0.3530   -0.2450    0.1390 C   0  0  0  0  0  0  0  0  0  0  0  0
    1.6610    0.3360   -0.2340 C   0  0  0  0  0  0  0  0  0  0  0  0
    1.7410    1.4080   -0.8840 O   0  0  0  0  0  0  0  0  0  0  0  0
    2.8770   -0.2980    0.1310 N   0  0  0  0  0  0  0  0  0  0  0  0
    4.1450    0.2180   -0.2020 N   0  0  0  0  0  0  0  0  0  0  0  0
    5.2970   -0.4550    0.2690 C   0  0  0  0  0  0  0  0  0  0  0  0
    6.6930   -0.0240   -0.0030 C   0  0  0  0  0  0  0  0  0  0  0  0
    5.1040   -1.5020    0.9750 O   0  0  0  0  0  0  0  0  0  0  0  0
   -0.8760    0.1980   -0.0610 N   0  0  0  0  0  0  0  0  0  0  0  0
  1  2  2  0
  2  3  1  0
  3  4  2  3
  3  6  1  0
  4  5  1  0
  6  7  2  3
  7  8  1  0
  7 18  1  0
  8  9  1  0
  9 10  2  0
 10 11  1  0
 10 18  1  0
 11 12  2  0
 11 13  1  0
 13 14  1  0
 14 15  1  0
 15 16  1  0
 15 17  2  0
M  END
