
     RDKit          3D

 18 19  0  0  0  0  0  0  0  0999 V2000
   -5.2770   -0.6590   -0.6290 C   0  0  0  0  0  0  0  0  0  0  0  0
   -3.9090   -0.0670   -0.4070 C   0  0  0  0  0  0  0  0  0  0  0  0
   -3.0310   -1.0160    0.4180 C   0  0  0  0  0  0  0  0  0  0  0  0
   -1.7350   -0.4170    0.6080 N   0  0  0  0  0  0  0  0  0  0  0  0
   -1.5260    0.3630    1.6850 C   0  0  0  0  0  0  0  0  0  0  0  0
   -0.3060    0.9650    1.9230 C   0  0  0  0  0  0  0  0  0  0  0  0
    0.7210    0.7510    1.0210 C   0  0  0  0  0  0  0  0  0  0  0  0
    0.4950   -0.0560   -0.0890 C   0  0  0  0  0  0  0  0  0  0  0  0
    1.5630   -0.2620   -1.0020 N   0  0  0  0  0  0  0  0  0  0  0  0
    2.8250    0.3230   -0.8120 C   0  0  0  0  0  0  0  0  0  0  0  0
    3.9000   -0.2040   -0.1260 C   0  0  0  0  0  0  0  0  0  0  0  0
    3.9560   -1.4680    0.5430 N   0  0  0  0  0  0  0  0  0  0  0  0
    4.8940    0.6960   -0.2000 N   0  0  0  0  0  0  0  0  0  0  0  0
    4.5290    1.7630   -0.8880 N   0  0  0  0  0  0  0  0  0  0  0  0
    3.2590    1.5460   -1.2700 C   0  0  0  0  0  0  0  0  0  0  0  0
    2.5640    2.3610   -1.9560 O   0  0  0  0  0  0  0  0  0  0  0  0
   -0.7380   -0.6390   -0.2900 C   0  0  0  0  0  0  0  0  0  0  0  0
   -0.9100   -1.3630   -1.3020 O   0  0  0  0  0  0  0  0  0  0  0  0
  1  2  1  0
  2  3  1  0
  3  4  1  0
  4  5  1  0
  4 17  1  0
  5  6  2  0
  6  7  1  0
  7  8  2  0
  8  9  1  0
  8 17  1  0
  9 10  1  0
 10 11  2  0
 10 15  1  0
 11 12  1  0
 11 13  1  0
 13 14  1  0
 14 15  1  0
 15 16  2  0
 17 18  2  0
M  END
