
     RDKit          3D

 18 19  0  0  0  0  0  0  0  0999 V2000
    2.2410    2.9400    0.9390 N   0  0  0  0  0  0  0  0  0  0  0  0
    2.4830    1.5970    0.5150 C   0  0  0  0  0  0  0  0  0  0  0  0
    3.6050    1.2950   -0.1630 N   0  0  0  0  0  0  0  0  0  0  0  0
    3.8520    0.0170   -0.5760 C   0  0  0  0  0  0  0  0  0  0  0  0
    5.0350   -0.3010   -1.2910 N   0  0  0  0  0  0  0  0  0  0  0  0
    2.9000   -0.9180   -0.2580 C   0  0  0  0  0  0  0  0  0  0  0  0
    3.1070   -2.2650   -0.6640 N   0  0  0  0  0  0  0  0  0  0  0  0
    2.7660   -3.1540    0.1580 O   0  0  0  0  0  0  0  0  0  0  0  0
    1.7440   -0.6300    0.4360 C   0  0  0  0  0  0  0  0  0  0  0  0
    0.8050   -1.6020    0.7380 O   0  0  0  0  0  0  0  0  0  0  0  0
   -0.3900   -1.4090    1.4320 C   0  0  0  0  0  0  0  0  0  0  0  0
   -1.2510   -0.4270    0.6780 C   0  0  1  0  0  0  0  0  0  0  0  0
   -1.5810   -0.9230   -0.7170 C   0  0  0  0  0  0  0  0  0  0  0  0
   -2.2680    0.2500   -1.4060 C   0  0  0  0  0  0  0  0  0  0  0  0
   -3.5260    0.6530   -0.7370 C   0  0  0  0  0  0  0  0  0  0  0  0
   -3.5260    0.6220    0.7390 C   0  0  0  0  0  0  0  0  0  0  0  0
   -2.5840   -0.3130    1.3910 C   0  0  0  0  0  0  0  0  0  0  0  0
    1.5770    0.6500    0.8050 N   0  0  0  0  0  0  0  0  0  0  0  0
  1  2  1  0
  2  3  2  0
  2 18  1  0
  3  4  1  0
  4  5  1  0
  4  6  2  0
  6  7  1  0
  6  9  1  0
  7  8  2  0
  9 10  1  0
  9 18  2  0
 10 11  1  0
 12 11  1  1
 12 13  1  0
 12 17  1  0
 13 14  1  0
 14 15  1  0
 15 16  1  0
 16 17  1  0
M  END
