
     RDKit          3D

 18 19  0  0  0  0  0  0  0  0999 V2000
    5.4360   -0.2820    1.0140 C   0  0  0  0  0  0  0  0  0  0  0  0
    4.0810   -0.1700    0.4390 C   0  0  0  0  0  0  0  0  0  0  0  0
    3.0590    0.3680    1.1810 C   0  0  0  0  0  0  0  0  0  0  0  0
    1.7820    0.4680    0.6260 C   0  0  0  0  0  0  0  0  0  0  0  0
    1.5730    0.0260   -0.6510 C   0  0  0  0  0  0  0  0  0  0  0  0
    0.3420    0.0720   -1.3140 N   0  0  0  0  0  0  0  0  0  0  0  0
   -0.8700    0.5730   -0.7940 C   0  0  0  0  0  0  0  0  0  0  0  0
   -0.9260    1.0400    0.3730 O   0  0  0  0  0  0  0  0  0  0  0  0
   -2.0550    0.5450   -1.6180 N   0  0  0  0  0  0  0  0  0  0  0  0
   -3.2990    1.0440   -1.1200 C   0  0  0  0  0  0  0  0  0  0  0  0
   -3.9690    0.1220   -0.1640 C   0  0  0  0  0  0  0  0  0  0  0  0
   -4.8270   -0.9170   -0.4600 C   0  0  0  0  0  0  0  0  0  0  0  0
   -5.2030   -1.4910    0.6920 N   0  0  0  0  0  0  0  0  0  0  0  0
   -4.6290   -0.8710    1.7000 N   0  0  0  0  0  0  0  0  0  0  0  0
   -3.8640    0.1250    1.2080 C   0  0  0  0  0  0  0  0  0  0  0  0
    2.6630   -0.5110   -1.3460 C   0  0  0  0  0  0  0  0  0  0  0  0
    2.5080   -0.9260   -2.5190 O   0  0  0  0  0  0  0  0  0  0  0  0
    3.8920   -0.6070   -0.8130 N   0  0  0  0  0  0  0  0  0  0  0  0
  1  2  1  0
  2  3  2  0
  2 18  1  0
  3  4  1  0
  4  5  2  0
  5  6  1  0
  5 16  1  0
  6  7  1  0
  7  8  2  0
  7  9  1  0
  9 10  1  0
 10 11  1  0
 11 12  1  0
 11 15  2  0
 12 13  2  0
 13 14  1  0
 14 15  1  0
 16 17  2  0
 16 18  1  0
M  END
