
     RDKit          3D

 15 14  0  0  0  0  0  0  0  0999 V2000
    4.4080    0.3750   -0.2460 C   0  0  0  0  0  0  0  0  0  0  0  0
    3.6210    0.3980    1.0200 C   0  0  0  0  0  0  0  0  0  0  0  0
    2.4070   -0.2670    0.9310 O   0  0  0  0  0  0  0  0  0  0  0  0
    1.5730    0.2810   -0.0460 C   0  0  0  0  0  0  0  0  0  0  0  0
    0.3290   -0.5100   -0.0390 C   0  0  0  0  0  0  0  0  0  0  0  0
    0.5390   -1.8890   -0.3340 O   0  0  0  0  0  0  0  0  0  0  0  0
   -0.8880   -0.1330    0.1930 C   0  0  0  0  0  0  0  0  0  0  0  0
   -2.0430   -1.0180    0.1660 C   0  0  0  0  0  0  0  0  0  0  0  0
   -3.2160   -0.5110    0.4190 O   0  0  0  0  0  0  0  0  0  0  0  0
   -2.0720   -2.3970   -0.1050 N   0  0  0  0  0  0  0  0  0  0  0  0
   -3.3640   -3.1310   -0.0840 C   0  0  0  0  0  0  0  0  0  0  0  0
   -1.2520    1.3000    0.5220 C   0  0  1  0  0  0  0  0  0  0  0  0
   -0.2240    2.0720    0.9400 O   0  0  0  0  0  0  0  0  0  0  0  0
   -2.0570    1.9300   -0.5890 C   0  0  0  0  0  0  0  0  0  0  0  0
   -2.5610    3.1380   -0.0630 O   0  0  0  0  0  0  0  0  0  0  0  0
  1  2  1  0
  2  3  1  0
  3  4  1  0
  4  5  1  0
  5  6  1  0
  5  7  2  3
  7  8  1  0
  7 12  1  0
  8  9  2  0
  8 10  1  0
 10 11  1  0
 12 13  1  6
 12 14  1  0
 14 15  1  0
M  END
