
     RDKit          3D

 15 14  0  0  0  0  0  0  0  0999 V2000
    4.6810   -1.1300   -0.1570 C   0  0  0  0  0  0  0  0  0  0  0  0
    4.6720    0.1060    0.5970 C   0  0  0  0  0  0  0  0  0  0  0  0
    3.7230    0.9370    0.7980 C   0  0  0  0  0  0  0  0  0  0  0  0
    4.0420    2.1050    1.6170 O   0  0  0  0  0  0  0  0  0  0  0  0
    2.3720    0.9250    0.3510 C   0  0  0  0  0  0  0  0  0  0  0  0
    1.5800    1.8970    0.6900 O   0  0  0  0  0  0  0  0  0  0  0  0
    1.7760   -0.0560   -0.4450 N   0  0  0  0  0  0  0  0  0  0  0  0
    0.3840   -0.0360   -0.8570 C   0  0  0  0  0  0  0  0  0  0  0  0
   -0.5540   -0.1820    0.2680 C   0  0  1  0  0  0  0  0  0  0  0  0
   -0.4810    0.7980    1.2010 O   0  0  0  0  0  0  0  0  0  0  0  0
   -2.0090   -0.3550   -0.2440 C   0  0  0  0  0  0  0  0  0  0  0  0
   -2.7450   -0.6800    0.8560 O   0  0  0  0  0  0  0  0  0  0  0  0
   -4.0780   -0.9040    0.6880 C   0  0  0  0  0  0  0  0  0  0  0  0
   -4.8900    0.2190    0.1470 C   0  0  0  0  0  0  0  0  0  0  0  0
   -4.5090    0.6670   -1.1120 O   0  0  0  0  0  0  0  0  0  0  0  0
  1  2  1  0
  2  3  2  3
  3  4  1  0
  3  5  1  0
  5  6  2  0
  5  7  1  0
  7  8  1  0
  8  9  1  0
  9 10  1  1
  9 11  1  0
 11 12  1  0
 12 13  1  0
 13 14  1  0
 14 15  1  0
M  END
