
     RDKit          3D

 15 14  0  0  0  0  0  0  0  0999 V2000
    2.6240    1.6090   -0.6610 C   0  0  0  0  0  0  0  0  0  0  0  0
    1.9930    0.4630   -1.2260 O   0  0  0  0  0  0  0  0  0  0  0  0
    1.7540   -0.6780   -0.4760 C   0  0  0  0  0  0  0  0  0  0  0  0
    2.1140   -0.6690    0.7230 O   0  0  0  0  0  0  0  0  0  0  0  0
    1.1030   -1.8380   -1.0700 C   0  0  0  0  0  0  0  0  0  0  0  0
   -0.3490   -1.7080   -1.3860 C   0  0  0  0  0  0  0  0  0  0  0  0
   -1.2180   -1.4200   -0.3510 O   0  0  0  0  0  0  0  0  0  0  0  0
   -1.1890   -0.3110    0.4660 C   0  0  0  0  0  0  0  0  0  0  0  0
   -1.4460    0.9240    0.1060 C   0  0  0  0  0  0  0  0  0  0  0  0
   -1.8230    1.3990   -1.2350 C   0  0  0  0  0  0  0  0  0  0  0  0
   -0.8810    2.3140   -1.6940 O   0  0  0  0  0  0  0  0  0  0  0  0
   -0.8360   -0.5790    1.8630 C   0  0  0  0  0  0  0  0  0  0  0  0
   -0.7770    0.5290    2.7500 N   0  0  0  0  0  0  0  0  0  0  0  0
   -0.5730   -1.7580    2.3300 C   0  0  0  0  0  0  0  0  0  0  0  0
   -0.6190   -2.8580    1.4890 O   0  0  0  0  0  0  0  0  0  0  0  0
  1  2  1  0
  2  3  1  0
  3  4  2  0
  3  5  1  0
  5  6  1  0
  6  7  1  0
  7  8  1  0
  8  9  2  3
  8 12  1  0
  9 10  1  0
 10 11  1  0
 12 13  1  0
 12 14  2  3
 14 15  1  0
M  END
