
     RDKit          3D

 15 14  0  0  0  0  0  0  0  0999 V2000
    4.7590    0.9300    0.6610 C   0  0  0  0  0  0  0  0  0  0  0  0
    4.0840    0.1410   -0.4380 C   0  0  0  0  0  0  0  0  0  0  0  0
    2.6150    0.0890   -0.2570 C   0  0  0  0  0  0  0  0  0  0  0  0
    1.9980   -1.0480   -0.1160 C   0  0  0  0  0  0  0  0  0  0  0  0
    2.7150   -2.2370   -0.1330 O   0  0  0  0  0  0  0  0  0  0  0  0
    0.5410   -1.1340    0.0660 C   0  0  0  0  0  0  0  0  0  0  0  0
   -0.0440   -2.2390    0.2010 O   0  0  0  0  0  0  0  0  0  0  0  0
   -0.2590   -0.0040    0.0970 O   0  0  0  0  0  0  0  0  0  0  0  0
   -1.6750   -0.0450    0.2710 C   0  0  2  0  0  0  0  0  0  0  0  0
   -2.3860    0.4540   -0.9410 C   0  0  0  0  0  0  0  0  0  0  0  0
   -3.8840    0.4330   -0.8260 C   0  0  0  0  0  0  0  0  0  0  0  0
   -4.2550   -0.9090   -0.5820 O   0  0  0  0  0  0  0  0  0  0  0  0
   -2.0800    0.5810    1.5350 C   0  0  0  0  0  0  0  0  0  0  0  0
   -3.3670    0.6790    2.0720 N   0  0  0  0  0  0  0  0  0  0  0  0
   -1.1450    1.1050    2.2420 O   0  0  0  0  0  0  0  0  0  0  0  0
  1  2  1  0
  2  3  1  0
  3  4  2  3
  4  5  1  0
  4  6  1  0
  6  7  2  0
  6  8  1  0
  8  9  1  0
  9 10  1  6
  9 13  1  0
 10 11  1  0
 11 12  1  0
 13 14  1  0
 13 15  2  0
M  END
