
     RDKit          3D

 18 20  0  0  0  0  0  0  0  0999 V2000
    4.5640    0.6010   -1.2420 C   0  0  0  0  0  0  0  0  0  0  0  0
    3.4190    0.2560   -0.3470 C   0  0  0  0  0  0  0  0  0  0  0  0
    2.1320    0.1520   -0.8310 C   0  0  0  0  0  0  0  0  0  0  0  0
    1.0840   -0.1560   -0.0500 N   0  0  0  0  0  0  0  0  0  0  0  0
   -0.2160   -0.2460   -0.6170 C   0  0  1  0  0  0  0  0  0  0  0  0
   -0.9090   -1.5580   -0.3760 C   0  0  0  0  0  0  0  0  0  0  0  0
   -2.3770   -1.2210   -0.3860 C   0  0  2  0  0  0  0  0  0  0  0  0
   -2.8430   -1.2960   -1.6860 O   0  0  0  0  0  0  0  0  0  0  0  0
   -2.4480    0.1930    0.0970 C   0  0  2  0  0  0  0  0  0  0  0  0
   -3.2180    0.5180    1.3610 C   0  0  0  0  0  0  0  0  0  0  0  0
   -4.5530    0.1460    1.2020 O   0  0  0  0  0  0  0  0  0  0  0  0
   -2.2980    1.2690   -0.9310 C   0  0  0  0  0  0  0  0  0  0  0  0
   -1.1480    0.8320   -0.1040 C   0  0  2  0  0  0  0  0  0  0  0  0
    1.3460   -0.3630    1.2520 C   0  0  0  0  0  0  0  0  0  0  0  0
    0.4310   -0.6560    2.0630 O   0  0  0  0  0  0  0  0  0  0  0  0
    2.5910   -0.2700    1.7600 N   0  0  0  0  0  0  0  0  0  0  0  0
    3.6530    0.0390    0.9850 C   0  0  0  0  0  0  0  0  0  0  0  0
    4.8230    0.1240    1.4760 O   0  0  0  0  0  0  0  0  0  0  0  0
  1  2  1  0
  2  3  2  0
  2 17  1  0
  3  4  1  0
  5  4  1  1
  4 14  1  0
  5  6  1  0
  5 13  1  0
  6  7  1  0
  7  8  1  6
  7  9  1  0
  9 10  1  1
  9 12  1  0
  9 13  1  0
 10 11  1  0
 13 12  1  6
 14 15  2  0
 14 16  1  0
 16 17  1  0
 17 18  2  0
M  END
