
     RDKit          3D

 15 14  0  0  0  0  0  0  0  0999 V2000
   -0.8850   -2.7880   -0.0860 C   0  0  0  0  0  0  0  0  0  0  0  0
   -1.7660   -1.9540   -0.4750 C   0  0  0  0  0  0  0  0  0  0  0  0
   -3.0470   -2.5760   -0.8050 O   0  0  0  0  0  0  0  0  0  0  0  0
   -1.7310   -0.4880   -0.6520 C   0  0  0  0  0  0  0  0  0  0  0  0
   -2.8710   -0.0030   -1.0790 C   0  0  0  0  0  0  0  0  0  0  0  0
   -3.3600    1.2970   -1.4020 C   0  0  0  0  0  0  0  0  0  0  0  0
   -2.6400    2.4270   -1.3170 O   0  0  0  0  0  0  0  0  0  0  0  0
   -0.6100    0.3740   -0.4040 C   0  0  0  0  0  0  0  0  0  0  0  0
   -0.6990    1.6510   -0.5960 O   0  0  0  0  0  0  0  0  0  0  0  0
    0.6870    0.0310    0.0550 N   0  0  0  0  0  0  0  0  0  0  0  0
    1.6900    1.1110    0.2380 C   0  0  0  0  0  0  0  0  0  0  0  0
    2.9840    0.5460    0.7240 C   0  0  1  0  0  0  0  0  0  0  0  0
    3.8740    1.6090    0.8730 O   0  0  0  0  0  0  0  0  0  0  0  0
    2.8070   -0.1560    2.0540 C   0  0  0  0  0  0  0  0  0  0  0  0
    4.0730   -0.6240    2.4500 O   0  0  0  0  0  0  0  0  0  0  0  0
  1  2  2  0
  2  3  1  0
  2  4  1  0
  4  5  2  3
  4  8  1  0
  5  6  1  0
  6  7  1  0
  8  9  2  0
  8 10  1  0
 10 11  1  0
 11 12  1  0
 12 13  1  1
 12 14  1  0
 14 15  1  0
M  END
