
     RDKit          3D

 15 14  0  0  0  0  0  0  0  0999 V2000
    2.4480    1.3760   -0.3960 C   0  0  0  0  0  0  0  0  0  0  0  0
    2.0540   -0.0020    0.0330 C   0  0  1  0  0  0  0  0  0  0  0  0
    3.0520   -1.0200   -0.4810 C   0  0  0  0  0  0  0  0  0  0  0  0
    2.1280   -0.0410    1.5530 C   0  0  0  0  0  0  0  0  0  0  0  0
    1.8930   -1.3300    2.0510 O   0  0  0  0  0  0  0  0  0  0  0  0
    0.7870   -0.4050   -0.4490 O   0  0  0  0  0  0  0  0  0  0  0  0
   -0.4030    0.2830   -0.1410 C   0  0  0  0  0  0  0  0  0  0  0  0
   -0.2220    1.2780    0.5980 O   0  0  0  0  0  0  0  0  0  0  0  0
   -1.6620   -0.2090   -0.6870 C   0  0  1  0  0  0  0  0  0  0  0  0
   -2.3560    0.7910   -1.5840 C   0  0  0  0  0  0  0  0  0  0  0  0
   -1.3530   -1.3550   -1.5590 N   0  0  0  0  0  0  0  0  0  0  0  0
   -2.5730   -0.7250    0.3680 C   0  0  0  0  0  0  0  0  0  0  0  0
   -3.0020    0.2070    1.3950 C   0  0  0  0  0  0  0  0  0  0  0  0
   -3.7370   -0.2450    2.3220 O   0  0  0  0  0  0  0  0  0  0  0  0
   -2.6630    1.5420    1.4230 O   0  0  0  0  0  0  0  0  0  0  0  0
  2  1  1  6
  2  3  1  0
  2  4  1  0
  2  6  1  0
  4  5  1  0
  6  7  1  0
  7  8  2  0
  7  9  1  0
  9 10  1  6
  9 11  1  0
  9 12  1  0
 12 13  1  0
 13 14  2  0
 13 15  1  0
M  END
