
     RDKit          3D

 15 15  0  0  0  0  0  0  0  0999 V2000
   -1.7970    1.9630   -0.9900 O   0  0  0  0  0  0  0  0  0  0  0  0
   -2.1100    0.7260   -1.5680 C   0  0  0  0  0  0  0  0  0  0  0  0
   -1.9330   -0.4160   -0.6030 C   0  0  2  0  0  0  0  0  0  0  0  0
   -3.0310   -0.2520    0.4010 C   0  0  0  0  0  0  0  0  0  0  0  0
   -3.1690   -1.2520    1.3170 O   0  0  0  0  0  0  0  0  0  0  0  0
   -0.6530   -0.5180   -0.1410 N   0  0  0  0  0  0  0  0  0  0  0  0
   -0.2530   -1.5270    0.7570 C   0  0  0  0  0  0  0  0  0  0  0  0
    0.4680   -0.7770    1.8620 C   0  0  0  0  0  0  0  0  0  0  0  0
    1.1090    0.3190    1.3770 O   0  0  0  0  0  0  0  0  0  0  0  0
    1.5270    0.2980    0.0830 C   0  0  1  0  0  0  0  0  0  0  0  0
    1.7620    1.7630   -0.3110 C   0  0  0  0  0  0  0  0  0  0  0  0
    2.7400    2.2370    0.5670 O   0  0  0  0  0  0  0  0  0  0  0  0
    2.8540   -0.3990   -0.1190 C   0  0  0  0  0  0  0  0  0  0  0  0
    3.1980   -0.3710   -1.4700 O   0  0  0  0  0  0  0  0  0  0  0  0
    0.4690   -0.2000   -0.8970 C   0  0  0  0  0  0  0  0  0  0  0  0
  1  2  1  0
  3  2  1  6
  3  4  1  0
  3  6  1  0
  4  5  1  0
  6  7  1  0
  6 15  1  0
  7  8  1  0
  8  9  1  0
  9 10  1  0
 10 11  1  6
 10 13  1  0
 10 15  1  0
 11 12  1  0
 13 14  1  0
M  END
