
     RDKit          3D

 15 14  0  0  0  0  0  0  0  0999 V2000
    4.8760   -0.4450   -0.3110 C   0  0  0  0  0  0  0  0  0  0  0  0
    3.4540   -0.4470   -0.4120 O   0  0  0  0  0  0  0  0  0  0  0  0
    2.6410   -1.0830    0.4890 C   0  0  0  0  0  0  0  0  0  0  0  0
    3.1530   -1.6980    1.4530 O   0  0  0  0  0  0  0  0  0  0  0  0
    1.1440   -1.0910    0.3900 C   0  0  0  0  0  0  0  0  0  0  0  0
    0.6900   -0.3090   -0.8240 C   0  0  0  0  0  0  0  0  0  0  0  0
   -0.6840   -0.2480   -1.0030 O   0  0  0  0  0  0  0  0  0  0  0  0
   -1.6250    0.2750   -0.1390 C   0  0  0  0  0  0  0  0  0  0  0  0
   -2.3280   -0.6080    0.5590 C   0  0  0  0  0  0  0  0  0  0  0  0
   -2.1480   -2.0730    0.4480 C   0  0  0  0  0  0  0  0  0  0  0  0
   -3.3450   -2.6980    0.0300 O   0  0  0  0  0  0  0  0  0  0  0  0
   -1.8660    1.6960    0.0290 C   0  0  0  0  0  0  0  0  0  0  0  0
   -2.8430    2.1700    0.9360 N   0  0  0  0  0  0  0  0  0  0  0  0
   -1.1770    2.5660   -0.6620 C   0  0  0  0  0  0  0  0  0  0  0  0
   -1.3730    3.9360   -0.5340 O   0  0  0  0  0  0  0  0  0  0  0  0
  1  2  1  0
  2  3  1  0
  3  4  2  0
  3  5  1  0
  5  6  1  0
  6  7  1  0
  7  8  1  0
  8  9  2  3
  8 12  1  0
  9 10  1  0
 10 11  1  0
 12 13  1  0
 12 14  2  3
 14 15  1  0
M  END
