
     RDKit          3D

 18 20  0  0  0  0  0  0  0  0999 V2000
    3.8130   -1.5370   -0.9390 C   0  0  0  0  0  0  0  0  0  0  0  0
    3.0710   -0.4840   -0.1920 C   0  0  0  0  0  0  0  0  0  0  0  0
    1.7190   -0.2950   -0.3860 C   0  0  0  0  0  0  0  0  0  0  0  0
    1.0550    0.6420    0.2770 N   0  0  0  0  0  0  0  0  0  0  0  0
   -0.3460    0.8640    0.0990 C   0  0  1  0  0  0  0  0  0  0  0  0
   -0.7990    0.8380   -1.3280 C   0  0  0  0  0  0  0  0  0  0  0  0
   -2.3200    0.7230   -1.1460 C   0  0  2  0  0  0  0  0  0  0  0  0
   -2.8000    1.9880   -0.7840 O   0  0  0  0  0  0  0  0  0  0  0  0
   -2.4630   -0.2390   -0.0140 C   0  0  2  0  0  0  0  0  0  0  0  0
   -3.2390   -1.5010   -0.3060 C   0  0  0  0  0  0  0  0  0  0  0  0
   -3.2900   -2.2990    0.8370 O   0  0  0  0  0  0  0  0  0  0  0  0
   -2.4180    0.1950    1.3970 C   0  0  0  0  0  0  0  0  0  0  0  0
   -1.1870   -0.2630    0.7070 C   0  0  2  0  0  0  0  0  0  0  0  0
    1.7360    1.4060    1.1470 C   0  0  0  0  0  0  0  0  0  0  0  0
    1.1190    2.3040    1.7880 O   0  0  0  0  0  0  0  0  0  0  0  0
    3.0590    1.2640    1.3760 N   0  0  0  0  0  0  0  0  0  0  0  0
    3.7210    0.3250    0.7110 C   0  0  0  0  0  0  0  0  0  0  0  0
    4.9600    0.1640    0.9000 O   0  0  0  0  0  0  0  0  0  0  0  0
  1  2  1  0
  2  3  2  0
  2 17  1  0
  3  4  1  0
  5  4  1  6
  4 14  1  0
  5  6  1  0
  5 13  1  0
  6  7  1  0
  7  8  1  1
  7  9  1  0
  9 10  1  6
  9 12  1  0
  9 13  1  0
 10 11  1  0
 13 12  1  1
 14 15  2  0
 14 16  1  0
 16 17  1  0
 17 18  2  0
M  END
