
     RDKit          3D

 21 24  0  0  0  0  0  0  0  0999 V2000
    5.9130    1.5150    0.8100 C   0  0  0  0  0  0  0  0  0  0  0  0
    5.1110    0.6940   -0.1640 C   0  0  0  0  0  0  0  0  0  0  0  0
    3.7710    0.2870    0.3940 C   0  0  1  0  0  0  0  0  0  0  0  0
    2.9500   -0.5460   -0.5860 C   0  0  0  0  0  0  0  0  0  0  0  0
    1.6430   -0.9340   -0.0220 C   0  0  0  0  0  0  0  0  0  0  0  0
    0.5220   -0.5410   -0.6140 C   0  0  0  0  0  0  0  0  0  0  0  0
   -0.8440   -0.8310   -0.1980 C   0  0  0  0  0  0  0  0  0  0  0  0
   -1.6680    0.0590   -0.7020 C   0  0  0  0  0  0  0  0  0  0  0  0
   -0.8920    1.0450   -1.5220 C   0  0  0  0  0  0  0  0  0  0  0  0
    0.4020    0.2980   -1.8550 C   0  0  2  0  0  0  0  0  0  0  0  0
    0.3040   -0.4520   -2.9980 O   0  0  0  0  0  0  0  0  0  0  0  0
   -3.1390    0.0650   -0.4790 C   0  0  1  0  0  0  0  0  0  0  0  0
   -3.9040    0.1080   -1.7840 C   0  0  0  0  0  0  0  0  0  0  0  0
   -5.3470   -0.0280   -1.4630 C   0  0  0  0  0  0  0  0  0  0  0  0
   -5.8200   -0.4780   -0.3060 C   0  0  0  0  0  0  0  0  0  0  0  0
   -4.9460   -0.9050    0.8200 C   0  0  0  0  0  0  0  0  0  0  0  0
   -3.5820   -1.2040    0.2330 C   0  0  2  0  0  0  0  0  0  0  0  0
   -2.5840   -1.6190    1.2730 C   0  0  0  0  0  0  0  0  0  0  0  0
   -1.3550   -1.8600    0.6120 O   0  0  0  0  0  0  0  0  0  0  0  0
    3.6170    0.0200    1.8360 C   0  0  0  0  0  0  0  0  0  0  0  0
    2.9740    1.2150    1.2400 C   0  0  0  0  0  0  0  0  0  0  0  0
  1  2  1  0
  3  2  1  6
  3  4  1  0
  3 20  1  0
  3 21  1  0
  4  5  1  0
  5  6  2  3
  6  7  1  0
  6 10  1  0
  7  8  2  0
  7 19  1  0
  8  9  1  0
  8 12  1  0
  9 10  1  0
 10 11  1  6
 12 13  1  6
 12 17  1  0
 13 14  1  0
 14 15  2  0
 15 16  1  0
 17 16  1  1
 17 18  1  0
 18 19  1  0
 20 21  1  0
M  END
