
     RDKit          3D

 20 22  0  0  0  0  0  0  0  0999 V2000
    4.1710   -0.5350    0.2490 C   0  0  0  0  0  0  0  0  0  0  0  0
    3.7500    0.4360   -0.8210 C   0  0  0  0  0  0  0  0  0  0  0  0
    2.4450    0.6930   -0.8950 C   0  0  0  0  0  0  0  0  0  0  0  0
    1.4350    0.0970   -0.0140 C   0  0  1  0  0  0  0  0  0  0  0  0
    0.7710    1.0500    0.9160 C   0  0  2  0  0  0  0  0  0  0  0  0
    0.2530    0.1140    2.0350 C   0  0  0  0  0  0  0  0  0  0  0  0
   -0.8360   -0.8030    1.4520 C   0  0  1  0  0  0  0  0  0  0  0  0
   -0.5300   -2.2090    1.8350 C   0  0  0  0  0  0  0  0  0  0  0  0
   -2.0760   -0.3950    2.2140 C   0  0  0  0  0  0  0  0  0  0  0  0
   -0.9580   -0.5390   -0.0500 C   0  0  1  0  0  0  0  0  0  0  0  0
   -2.0430   -1.4090   -0.6150 C   0  0  0  0  0  0  0  0  0  0  0  0
   -2.2430   -1.2440   -1.9830 O   0  0  0  0  0  0  0  0  0  0  0  0
   -1.4810    0.8610   -0.0770 C   0  0  2  0  0  0  0  0  0  0  0  0
   -2.0640    1.4610   -1.2540 C   0  0  0  0  0  0  0  0  0  0  0  0
   -1.7690    2.9350   -1.0350 C   0  0  0  0  0  0  0  0  0  0  0  0
   -0.3610    2.8950   -0.4670 C   0  0  0  0  0  0  0  0  0  0  0  0
   -0.4250    1.7860    0.4930 C   0  0  2  0  0  0  0  0  0  0  0  0
    0.3630   -0.7240   -0.7250 C   0  0  1  0  0  0  0  0  0  0  0  0
    0.4400   -0.3360   -2.1650 C   0  0  0  0  0  0  0  0  0  0  0  0
    0.8420   -2.1660   -0.7240 C   0  0  0  0  0  0  0  0  0  0  0  0
  1  2  1  0
  2  3  2  3
  4  3  1  6
  4  5  1  0
  4 18  1  0
  5  6  1  1
  5 17  1  0
  6  7  1  0
  7  8  1  6
  7  9  1  0
  7 10  1  0
 10 11  1  6
 10 13  1  0
 10 18  1  0
 11 12  1  0
 13 14  1  6
 13 17  1  0
 14 15  1  0
 15 16  1  0
 17 16  1  6
 18 19  1  6
 18 20  1  0
M  END
