
     RDKit          3D

 21 24  0  0  0  0  0  0  0  0999 V2000
   -3.8690    1.7170    0.6660 C   0  0  0  0  0  0  0  0  0  0  0  0
   -3.2160    0.4430    0.2410 C   0  0  2  0  0  0  0  0  0  0  0  0
   -4.0010   -0.0620   -0.8150 O   0  0  0  0  0  0  0  0  0  0  0  0
   -3.3260   -0.6370    1.3190 C   0  0  0  0  0  0  0  0  0  0  0  0
   -2.1750   -1.5560    0.8700 C   0  0  0  0  0  0  0  0  0  0  0  0
   -1.1270   -0.5460    0.6940 C   0  0  1  0  0  0  0  0  0  0  0  0
    0.1120   -0.9100   -0.0130 C   0  0  2  0  0  0  0  0  0  0  0  0
    0.9260   -2.0150    0.5710 C   0  0  0  0  0  0  0  0  0  0  0  0
    2.0860   -2.2410   -0.4160 C   0  0  0  0  0  0  0  0  0  0  0  0
    2.9240   -1.0200   -0.3100 C   0  0  0  0  0  0  0  0  0  0  0  0
    4.2280   -1.0960   -0.3320 C   0  0  0  0  0  0  0  0  0  0  0  0
    4.9880    0.1410   -0.2230 C   0  0  0  0  0  0  0  0  0  0  0  0
    6.1420    0.1610    0.3290 O   0  0  0  0  0  0  0  0  0  0  0  0
    4.4070    1.3790   -0.7600 C   0  0  0  0  0  0  0  0  0  0  0  0
    3.0140    1.5570   -0.1810 C   0  0  0  0  0  0  0  0  0  0  0  0
    2.2570    0.2660   -0.1750 C   0  0  0  0  0  0  0  0  0  0  0  0
    0.9420    0.3520   -0.0250 C   0  0  0  0  0  0  0  0  0  0  0  0
    0.2470    1.6470    0.1460 C   0  0  0  0  0  0  0  0  0  0  0  0
   -1.0720    1.7370    0.0740 C   0  0  0  0  0  0  0  0  0  0  0  0
   -1.8170    0.5170   -0.1790 C   0  0  2  0  0  0  0  0  0  0  0  0
   -1.6830    0.1720   -1.6430 C   0  0  0  0  0  0  0  0  0  0  0  0
  2  1  1  1
  2  3  1  0
  2  4  1  0
  2 20  1  0
  4  5  1  0
  6  5  1  6
  6  7  1  0
  6 20  1  0
  7  8  1  1
  7 17  1  0
  8  9  1  0
  9 10  1  0
 10 11  2  0
 10 16  1  0
 11 12  1  0
 12 13  2  0
 12 14  1  0
 14 15  1  0
 15 16  1  0
 16 17  2  0
 17 18  1  0
 18 19  2  0
 19 20  1  0
 20 21  1  6
M  END
