
     RDKit          3D

 21 24  0  0  0  0  0  0  0  0999 V2000
   -2.6300    1.2140   -1.0610 C   0  0  0  0  0  0  0  0  0  0  0  0
   -2.1470    0.1890   -0.0430 C   0  0  1  0  0  0  0  0  0  0  0  0
   -2.1690    0.8620    1.3010 C   0  0  1  0  0  0  0  0  0  0  0  0
   -3.4320    1.3580    1.8970 C   0  0  0  0  0  0  0  0  0  0  0  0
   -2.8480    0.1200    2.4620 C   0  0  0  0  0  0  0  0  0  0  0  0
   -3.2560   -0.7030    0.0210 O   0  0  0  0  0  0  0  0  0  0  0  0
   -3.3360   -1.6400   -0.9250 C   0  0  0  0  0  0  0  0  0  0  0  0
   -2.4330   -1.6400   -2.0900 C   0  0  0  0  0  0  0  0  0  0  0  0
   -1.1340   -0.9020   -1.9330 C   0  0  0  0  0  0  0  0  0  0  0  0
   -0.9970   -0.5930   -0.4270 C   0  0  2  0  0  0  0  0  0  0  0  0
   -1.1990   -1.9080    0.1250 O   0  0  0  0  0  0  0  0  0  0  0  0
    0.3900   -0.3120   -0.1100 C   0  0  2  0  0  0  0  0  0  0  0  0
    0.7630   -0.3760    1.3510 C   0  0  0  0  0  0  0  0  0  0  0  0
    1.6040    0.8210    1.6800 C   0  0  0  0  0  0  0  0  0  0  0  0
    2.1160    1.2710    0.3490 C   0  0  1  0  0  0  0  0  0  0  0  0
    3.4080    0.6450   -0.0100 C   0  0  0  0  0  0  0  0  0  0  0  0
    3.7060   -0.1350   -1.0330 C   0  0  0  0  0  0  0  0  0  0  0  0
    5.1330   -0.4940   -0.9390 C   0  0  0  0  0  0  0  0  0  0  0  0
    5.5940    0.1970    0.2840 C   0  0  0  0  0  0  0  0  0  0  0  0
    4.5990    0.8610    0.8290 C   0  0  0  0  0  0  0  0  0  0  0  0
    0.9990    0.9540   -0.6060 C   0  0  0  0  0  0  0  0  0  0  0  0
  2  1  1  6
  2  3  1  0
  2  6  1  0
  2 10  1  0
  3  4  1  6
  3  5  1  0
  4  5  1  0
  6  7  1  0
  7  8  1  0
  8  9  1  0
  9 10  1  0
 10 11  1  1
 10 12  1  0
 12 13  1  1
 12 21  1  0
 13 14  1  0
 14 15  1  0
 15 16  1  6
 15 21  1  0
 16 17  2  0
 16 20  1  0
 17 18  1  0
 18 19  1  0
 19 20  2  0
M  END
