
     RDKit          3D

 21 23  0  0  0  0  0  0  0  0999 V2000
   -4.1000   -0.4970    0.6140 C   0  0  0  0  0  0  0  0  0  0  0  0
   -2.7150   -0.0120    0.1530 C   0  0  2  0  0  0  0  0  0  0  0  0
   -2.7970    1.2440   -0.6490 C   0  0  0  0  0  0  0  0  0  0  0  0
   -2.0540    2.4000   -0.0190 C   0  0  0  0  0  0  0  0  0  0  0  0
   -0.9270    2.9390   -0.8240 C   0  0  0  0  0  0  0  0  0  0  0  0
    0.4080    2.8900   -0.0830 C   0  0  0  0  0  0  0  0  0  0  0  0
    1.4550    2.1240   -0.8130 C   0  0  0  0  0  0  0  0  0  0  0  0
    2.0700    0.9920   -0.0100 C   0  0  2  0  0  0  0  0  0  0  0  0
    3.3710    1.4340    0.2830 O   0  0  0  0  0  0  0  0  0  0  0  0
    4.0670    0.5980    1.1040 C   0  0  0  0  0  0  0  0  0  0  0  0
    3.8510   -0.8740    0.8150 C   0  0  0  0  0  0  0  0  0  0  0  0
    3.4760   -0.9330   -0.6710 C   0  0  0  0  0  0  0  0  0  0  0  0
    2.0770   -0.3030   -0.7420 C   0  0  1  0  0  0  0  0  0  0  0  0
    1.0470   -1.3040   -0.3920 C   0  0  2  0  0  0  0  0  0  0  0  0
    1.6850   -2.5100   -0.0010 O   0  0  0  0  0  0  0  0  0  0  0  0
    0.1760   -1.7020   -1.5790 C   0  0  0  0  0  0  0  0  0  0  0  0
   -1.1200   -0.8990   -1.6030 C   0  0  0  0  0  0  0  0  0  0  0  0
   -1.9840   -1.1550   -0.4110 C   0  0  1  0  0  0  0  0  0  0  0  0
   -1.0840   -1.8550    0.6030 C   0  0  2  0  0  0  0  0  0  0  0  0
   -1.7440   -2.1310    1.8960 C   0  0  0  0  0  0  0  0  0  0  0  0
    0.1440   -0.9430    0.7410 C   0  0  0  0  0  0  0  0  0  0  0  0
  2  1  1  6
  2  3  1  0
  2 18  1  0
  3  4  1  0
  4  5  1  0
  5  6  1  0
  6  7  1  0
  8  7  1  6
  8  9  1  0
  8 13  1  0
  9 10  1  0
 10 11  1  0
 11 12  1  0
 13 12  1  1
 13 14  1  0
 14 15  1  1
 14 16  1  0
 14 21  1  0
 16 17  1  0
 18 17  1  6
 18 19  1  0
 19 20  1  1
 19 21  1  0
M  END
