
     RDKit          3D

 28 31  0  0  0  0  0  0  0  0999 V2000
    2.0250    0.7940    3.0080 C   0  0  0  0  0  0  0  0  0  0  0  0
    2.6940    0.6170    1.6930 C   0  0  1  0  0  0  0  0  0  0  0  0
    2.3430   -0.6520    1.1560 O   0  0  0  0  0  0  0  0  0  0  0  0
    2.5920   -0.4590   -0.1270 C   0  0  1  0  0  0  0  0  0  0  0  0
    2.2690   -1.3340   -1.2140 C   0  0  2  0  0  0  0  0  0  0  0  0
    3.3310   -2.4440   -1.3060 C   0  0  0  0  0  0  0  0  0  0  0  0
    3.3610   -3.1740   -0.1200 O   0  0  0  0  0  0  0  0  0  0  0  0
    2.4700   -0.3750   -2.3990 C   0  0  0  0  0  0  0  0  0  0  0  0
    2.3710    1.0360   -1.8140 C   0  0  0  0  0  0  0  0  0  0  0  0
    1.7480    0.8010   -0.4220 C   0  0  1  0  0  0  0  0  0  0  0  0
    0.3470    0.5030   -0.6110 C   0  0  2  0  0  0  0  0  0  0  0  0
   -0.4650    1.7490   -0.8940 C   0  0  0  0  0  0  0  0  0  0  0  0
   -1.6880    1.2720   -1.6580 C   0  0  0  0  0  0  0  0  0  0  0  0
   -2.5190    0.2670   -0.8900 C   0  0  2  0  0  0  0  0  0  0  0  0
   -3.0200   -0.5440   -1.9770 O   0  0  0  0  0  0  0  0  0  0  0  0
   -3.7490    0.9720   -0.4550 C   0  0  0  0  0  0  0  0  0  0  0  0
   -3.6480    2.1660    0.4080 C   0  0  0  0  0  0  0  0  0  0  0  0
   -3.0590    2.0330    1.6340 O   0  0  0  0  0  0  0  0  0  0  0  0
   -1.8090   -0.6490   -0.0190 C   0  0  2  0  0  0  0  0  0  0  0  0
   -1.5790   -2.0270   -0.6870 C   0  0  0  0  0  0  0  0  0  0  0  0
   -2.8560   -2.8640   -0.5300 C   0  0  0  0  0  0  0  0  0  0  0  0
   -2.8350   -3.4290    0.8980 C   0  0  0  0  0  0  0  0  0  0  0  0
   -2.0830   -2.4490    1.7320 C   0  0  0  0  0  0  0  0  0  0  0  0
   -2.4940   -1.0320    1.2920 C   0  0  0  0  0  0  0  0  0  0  0  0
   -0.4010   -0.2330    0.4240 C   0  0  0  0  0  0  0  0  0  0  0  0
    2.2700    1.6310    0.6350 C   0  0  1  0  0  0  0  0  0  0  0  0
    1.4370    2.6760    1.2720 C   0  0  0  0  0  0  0  0  0  0  0  0
    3.5500    2.3770    0.2040 C   0  0  0  0  0  0  0  0  0  0  0  0
  2  1  1  1
  2  3  1  0
  2 26  1  0
  4  3  1  1
  4  5  1  0
  4 10  1  0
  5  6  1  6
  5  8  1  0
  6  7  1  0
  8  9  1  0
 10  9  1  6
 10 11  1  0
 10 26  1  0
 11 12  1  1
 11 25  1  0
 12 13  1  0
 13 14  1  0
 14 15  1  6
 14 16  1  0
 14 19  1  0
 16 17  1  0
 17 18  1  0
 19 20  1  6
 19 24  1  0
 19 25  1  0
 20 21  1  0
 21 22  1  0
 22 23  1  0
 23 24  1  0
 26 27  1  1
 26 28  1  0
M  END
