
     RDKit          3D

 28 30  0  0  0  0  0  0  0  0999 V2000
    4.4300    0.6530   -1.4490 C   0  0  0  0  0  0  0  0  0  0  0  0
    3.4250    1.2520   -0.5250 C   0  0  2  0  0  0  0  0  0  0  0  0
    3.8180    2.5970   -0.0430 C   0  0  0  0  0  0  0  0  0  0  0  0
    3.9900    2.8980    1.1520 O   0  0  0  0  0  0  0  0  0  0  0  0
    4.0080    3.5890   -0.9950 O   0  0  0  0  0  0  0  0  0  0  0  0
    2.9920    0.3620    0.6060 C   0  0  2  0  0  0  0  0  0  0  0  0
    4.1150   -0.0640    1.5100 C   0  0  0  0  0  0  0  0  0  0  0  0
    4.8640   -1.2280    0.9070 C   0  0  0  0  0  0  0  0  0  0  0  0
    4.0740   -2.2330    0.5520 C   0  0  0  0  0  0  0  0  0  0  0  0
    2.5980   -2.0280    0.8150 C   0  0  0  0  0  0  0  0  0  0  0  0
    2.1590   -0.8360    0.1030 C   0  0  1  0  0  0  0  0  0  0  0  0
    0.7650   -0.3710    0.1360 C   0  0  0  0  0  0  0  0  0  0  0  0
   -0.3490   -1.2120   -0.2620 C   0  0  2  0  0  0  0  0  0  0  0  0
   -0.4180   -2.4200    0.6370 C   0  0  0  0  0  0  0  0  0  0  0  0
    0.0030   -1.7730   -1.5330 O   0  0  0  0  0  0  0  0  0  0  0  0
   -1.6790   -0.6010   -0.5710 C   0  0  2  0  0  0  0  0  0  0  0  0
   -1.4150    0.3840   -1.7240 C   0  0  0  0  0  0  0  0  0  0  0  0
   -1.5590    1.7700   -1.1560 C   0  0  0  0  0  0  0  0  0  0  0  0
   -2.0350    1.6790    0.2480 C   0  0  2  0  0  0  0  0  0  0  0  0
   -3.2770    2.5940    0.3300 C   0  0  0  0  0  0  0  0  0  0  0  0
   -1.1300    2.2110    1.2900 C   0  0  0  0  0  0  0  0  0  0  0  0
   -2.4060    0.2100    0.3760 C   0  0  2  0  0  0  0  0  0  0  0  0
   -2.4240   -0.1260    1.8130 C   0  0  0  0  0  0  0  0  0  0  0  0
   -3.8900    0.2120   -0.0560 C   0  0  0  0  0  0  0  0  0  0  0  0
   -4.5530   -1.1110    0.0480 C   0  0  0  0  0  0  0  0  0  0  0  0
   -3.7080   -2.1690   -0.5480 C   0  0  0  0  0  0  0  0  0  0  0  0
   -2.4730   -1.7460   -1.2160 C   0  0  1  0  0  0  0  0  0  0  0  0
   -2.7830   -1.4750   -2.5640 O   0  0  0  0  0  0  0  0  0  0  0  0
  2  1  1  1
  2  3  1  0
  2  6  1  0
  3  4  2  0
  3  5  1  0
  6  7  1  6
  6 11  1  0
  7  8  1  0
  8  9  2  0
  9 10  1  0
 10 11  1  0
 11 12  1  1
 12 13  1  0
 13 14  1  1
 13 15  1  0
 13 16  1  0
 16 17  1  6
 16 22  1  0
 16 27  1  0
 17 18  1  0
 18 19  1  0
 19 20  1  6
 19 21  1  0
 19 22  1  0
 22 23  1  1
 22 24  1  0
 24 25  1  0
 25 26  1  0
 26 27  1  0
 27 28  1  6
M  END
