
     RDKit          3D

 28 31  0  0  0  0  0  0  0  0999 V2000
   -4.1290   -1.1300    0.9300 C   0  0  0  0  0  0  0  0  0  0  0  0
   -3.8560    0.1270    0.1940 C   0  0  2  0  0  0  0  0  0  0  0  0
   -4.9250    0.3890   -0.8130 C   0  0  0  0  0  0  0  0  0  0  0  0
   -6.3120    0.5950   -0.3740 C   0  0  0  0  0  0  0  0  0  0  0  0
   -6.9250   -0.5450    0.3010 C   0  0  0  0  0  0  0  0  0  0  0  0
   -7.3950   -1.4880   -0.4340 O   0  0  0  0  0  0  0  0  0  0  0  0
   -7.0700   -0.7450    1.6520 O   0  0  0  0  0  0  0  0  0  0  0  0
   -2.5360    0.1680   -0.5470 C   0  0  1  0  0  0  0  0  0  0  0  0
   -2.4510    1.5250   -1.2910 C   0  0  0  0  0  0  0  0  0  0  0  0
   -1.0080    1.9290   -1.3210 C   0  0  0  0  0  0  0  0  0  0  0  0
   -0.3200    0.7030   -0.8220 C   0  0  1  0  0  0  0  0  0  0  0  0
    1.0670    0.9050   -0.3540 C   0  0  2  0  0  0  0  0  0  0  0  0
    1.8510    1.5030   -1.5000 C   0  0  0  0  0  0  0  0  0  0  0  0
    3.2370    0.8750   -1.6260 C   0  0  0  0  0  0  0  0  0  0  0  0
    3.7360    0.6660   -0.2150 C   0  0  2  0  0  0  0  0  0  0  0  0
    5.2140    0.6210   -0.0910 C   0  0  0  0  0  0  0  0  0  0  0  0
    5.8360   -0.7210   -0.2010 C   0  0  2  0  0  0  0  0  0  0  0  0
    6.9060   -0.6240   -1.1220 O   0  0  0  0  0  0  0  0  0  0  0  0
    4.9450   -1.8080   -0.6680 C   0  0  0  0  0  0  0  0  0  0  0  0
    3.5820   -1.8340   -0.0990 C   0  0  0  0  0  0  0  0  0  0  0  0
    3.0270   -0.5230    0.3540 C   0  0  1  0  0  0  0  0  0  0  0  0
    3.2240   -0.4570    1.8750 C   0  0  0  0  0  0  0  0  0  0  0  0
    1.5820   -0.4700    0.0360 C   0  0  1  0  0  0  0  0  0  0  0  0
    0.7330   -0.8670    1.2200 C   0  0  0  0  0  0  0  0  0  0  0  0
   -0.7490   -1.0120    0.8250 C   0  0  2  0  0  0  0  0  0  0  0  0
   -0.7810   -2.0730   -0.0390 O   0  0  0  0  0  0  0  0  0  0  0  0
   -1.3060    0.2460    0.2650 C   0  0  2  0  0  0  0  0  0  0  0  0
   -1.4620    1.3090    1.3230 C   0  0  0  0  0  0  0  0  0  0  0  0
  2  1  1  6
  2  3  1  0
  2  8  1  0
  3  4  1  0
  4  5  1  0
  5  6  2  0
  5  7  1  0
  8  9  1  6
  8 27  1  0
  9 10  1  0
 11 10  1  1
 11 12  1  0
 11 27  1  0
 12 13  1  6
 12 23  1  0
 13 14  1  0
 15 14  1  6
 15 16  1  0
 15 21  1  0
 16 17  1  0
 17 18  1  6
 17 19  1  0
 19 20  1  0
 20 21  1  0
 21 22  1  1
 21 23  1  0
 23 24  1  1
 24 25  1  0
 25 26  1  6
 25 27  1  0
 27 28  1  1
M  END
