
     RDKit          3D

 28 31  0  0  0  0  0  0  0  0999 V2000
    1.8500   -2.1610    1.3770 C   0  0  0  0  0  0  0  0  0  0  0  0
    1.8440   -1.4940    0.0250 C   0  0  2  0  0  0  0  0  0  0  0  0
    2.2240   -2.6850   -0.9250 C   0  0  0  0  0  0  0  0  0  0  0  0
    2.6890   -0.5580   -0.2240 O   0  0  0  0  0  0  0  0  0  0  0  0
    3.0160    0.6050    0.2440 C   0  0  2  0  0  0  0  0  0  0  0  0
    3.0950    1.6110   -0.8910 C   0  0  0  0  0  0  0  0  0  0  0  0
    3.6370    2.9390   -0.4230 C   0  0  0  0  0  0  0  0  0  0  0  0
    5.0690    2.7010    0.0680 C   0  0  0  0  0  0  0  0  0  0  0  0
    4.9580    1.8050    1.2750 C   0  0  0  0  0  0  0  0  0  0  0  0
    4.4550    0.4650    0.8420 C   0  0  2  0  0  0  0  0  0  0  0  0
    5.2840   -0.0330   -0.1470 O   0  0  0  0  0  0  0  0  0  0  0  0
    0.4160   -1.1280   -0.3520 C   0  0  1  0  0  0  0  0  0  0  0  0
    0.4340   -0.7840   -1.7280 O   0  0  0  0  0  0  0  0  0  0  0  0
   -0.4230   -2.3850   -0.2950 C   0  0  0  0  0  0  0  0  0  0  0  0
   -1.8370   -2.1910   -0.0070 C   0  0  1  0  0  0  0  0  0  0  0  0
   -2.0900   -2.7060    1.4220 C   0  0  0  0  0  0  0  0  0  0  0  0
   -3.5300   -3.0990    1.5730 C   0  0  0  0  0  0  0  0  0  0  0  0
   -4.3460   -2.2650    0.6310 C   0  0  0  0  0  0  0  0  0  0  0  0
   -3.7450   -0.8580    0.6080 C   0  0  0  0  0  0  0  0  0  0  0  0
   -2.4140   -0.8110   -0.1050 C   0  0  1  0  0  0  0  0  0  0  0  0
   -1.5600    0.2460    0.4760 C   0  0  2  0  0  0  0  0  0  0  0  0
   -1.8040    1.6270   -0.0560 C   0  0  2  0  0  0  0  0  0  0  0  0
   -3.1690    2.1920    0.2100 C   0  0  0  0  0  0  0  0  0  0  0  0
   -3.9120    2.2550   -1.1170 C   0  0  0  0  0  0  0  0  0  0  0  0
   -3.1740    3.2630   -1.9820 C   0  0  0  0  0  0  0  0  0  0  0  0
   -1.7970    3.1510   -1.8220 O   0  0  0  0  0  0  0  0  0  0  0  0
   -1.4240    1.8160   -1.5100 C   0  0  0  0  0  0  0  0  0  0  0  0
   -0.0720    0.0040    0.4360 C   0  0  0  0  0  0  0  0  0  0  0  0
  2  1  1  1
  2  3  1  0
  2  4  1  0
  2 12  1  0
  5  4  1  6
  5  6  1  0
  5 10  1  0
  6  7  1  0
  7  8  1  0
  8  9  1  0
  9 10  1  0
 10 11  1  6
 12 13  1  6
 12 14  1  0
 12 28  1  0
 15 14  1  1
 15 16  1  0
 15 20  1  0
 16 17  1  0
 17 18  1  0
 18 19  1  0
 20 19  1  1
 20 21  1  0
 21 22  1  0
 21 28  1  6
 22 23  1  6
 22 27  1  0
 23 24  1  0
 24 25  1  0
 25 26  1  0
 26 27  1  0
M  END
