
     RDKit          3D

 28 30  0  0  0  0  0  0  0  0999 V2000
    4.7450   -1.4730    1.5430 C   0  0  0  0  0  0  0  0  0  0  0  0
    4.3560   -1.5860    0.1150 C   0  0  2  0  0  0  0  0  0  0  0  0
    5.6640   -1.7220   -0.6880 C   0  0  0  0  0  0  0  0  0  0  0  0
    3.6940   -0.3460   -0.4070 C   0  0  0  0  0  0  0  0  0  0  0  0
    2.4150    0.0580    0.2560 C   0  0  2  0  0  0  0  0  0  0  0  0
    2.7030    0.2820    1.5910 O   0  0  0  0  0  0  0  0  0  0  0  0
    1.3330   -0.9610    0.1650 C   0  0  2  0  0  0  0  0  0  0  0  0
    1.0290   -1.1520   -1.3070 C   0  0  0  0  0  0  0  0  0  0  0  0
    0.3220    0.1070   -1.7640 C   0  0  0  0  0  0  0  0  0  0  0  0
    0.3740    1.1790   -0.6870 C   0  0  2  0  0  0  0  0  0  0  0  0
    1.8190    1.3170   -0.3880 C   0  0  2  0  0  0  0  0  0  0  0  0
    2.5060    1.5970   -1.7210 C   0  0  0  0  0  0  0  0  0  0  0  0
    2.2880    2.4490    0.4770 C   0  0  0  0  0  0  0  0  0  0  0  0
   -0.5390    0.7610    0.4250 C   0  0  1  0  0  0  0  0  0  0  0  0
   -0.4300    1.7210    1.6010 C   0  0  0  0  0  0  0  0  0  0  0  0
   -0.7120    3.0220    1.4060 O   0  0  0  0  0  0  0  0  0  0  0  0
   -1.9810    0.6430    0.1470 C   0  0  1  0  0  0  0  0  0  0  0  0
   -2.5630    0.5640    1.4260 O   0  0  0  0  0  0  0  0  0  0  0  0
   -2.3670    1.9360   -0.5810 C   0  0  0  0  0  0  0  0  0  0  0  0
   -3.8030    2.3380   -0.3670 C   0  0  0  0  0  0  0  0  0  0  0  0
   -4.7370    1.1900   -0.6670 C   0  0  0  0  0  0  0  0  0  0  0  0
   -4.2500   -0.1100   -0.1350 C   0  0  0  0  0  0  0  0  0  0  0  0
   -2.7420   -0.3460   -0.6010 C   0  0  2  0  0  0  0  0  0  0  0  0
   -2.6870   -1.8100   -0.4120 C   0  0  2  0  0  0  0  0  0  0  0  0
   -3.6300   -2.4090   -1.5060 C   0  0  0  0  0  0  0  0  0  0  0  0
   -3.3990   -2.3340    0.8420 C   0  0  0  0  0  0  0  0  0  0  0  0
   -2.9570   -1.8760    2.0300 O   0  0  0  0  0  0  0  0  0  0  0  0
    0.1400   -0.5150    0.9620 C   0  0  0  0  0  0  0  0  0  0  0  0
  2  1  1  1
  2  3  1  0
  2  4  1  0
  4  5  1  0
  5  6  1  1
  5  7  1  0
  5 11  1  0
  7  8  1  6
  7 28  1  0
  8  9  1  0
 10  9  1  6
 10 11  1  0
 10 14  1  0
 11 12  1  6
 11 13  1  0
 14 15  1  1
 14 17  1  0
 14 28  1  0
 15 16  1  0
 17 18  1  1
 17 19  1  0
 17 23  1  0
 19 20  1  0
 20 21  1  0
 21 22  1  0
 23 22  1  1
 23 24  1  0
 24 25  1  6
 24 26  1  0
 26 27  1  0
M  END
