
     RDKit          3D

 27 29  0  0  0  0  0  0  0  0999 V2000
    4.3690    2.8730   -1.1640 C   0  0  0  0  0  0  0  0  0  0  0  0
    3.4600    1.8990   -0.7220 O   0  0  0  0  0  0  0  0  0  0  0  0
    3.9450    0.7620   -0.0920 C   0  0  0  0  0  0  0  0  0  0  0  0
    5.3380    0.6260    0.0820 C   0  0  0  0  0  0  0  0  0  0  0  0
    5.8710   -0.4780    0.6980 C   0  0  0  0  0  0  0  0  0  0  0  0
    7.1620   -0.8800    1.0030 C   0  0  0  0  0  0  0  0  0  0  0  0
    7.1350   -2.0430    1.6090 O   0  0  0  0  0  0  0  0  0  0  0  0
    5.8910   -2.4510    1.7300 C   0  0  0  0  0  0  0  0  0  0  0  0
    5.0650   -1.4990    1.1720 C   0  0  0  0  0  0  0  0  0  0  0  0
    3.7090   -1.3490    0.9940 C   0  0  0  0  0  0  0  0  0  0  0  0
    3.1390   -0.2310    0.3680 C   0  0  0  0  0  0  0  0  0  0  0  0
    1.7030   -0.2060    0.2500 C   0  0  0  0  0  0  0  0  0  0  0  0
    0.9480    0.7200   -0.2900 C   0  0  0  0  0  0  0  0  0  0  0  0
   -0.5190    0.6440   -0.3580 C   0  0  0  0  0  0  0  0  0  0  0  0
   -1.0990    1.6100   -0.9050 O   0  0  0  0  0  0  0  0  0  0  0  0
   -1.2820   -0.4150    0.1390 N   0  0  0  0  0  0  0  0  0  0  0  0
   -2.6830   -0.5690    0.1220 C   0  0  0  0  0  0  0  0  0  0  0  0
   -3.2360   -1.7920    0.5120 C   0  0  0  0  0  0  0  0  0  0  0  0
   -4.5990   -1.9820    0.5190 C   0  0  0  0  0  0  0  0  0  0  0  0
   -5.1720   -3.5660    1.0300 Cl  0  0  0  0  0  0  0  0  0  0  0  0
   -5.4470   -0.9870    0.1470 C   0  0  0  0  0  0  0  0  0  0  0  0
   -6.9110   -1.2460    0.1730 C   0  0  0  0  0  0  0  0  0  0  0  0
   -4.9520    0.2450   -0.2480 C   0  0  0  0  0  0  0  0  0  0  0  0
   -5.8780    1.2220   -0.6170 N   0  0  0  0  0  0  0  0  0  0  0  0
   -5.5590    2.5100   -1.0420 C   0  0  0  0  0  0  0  0  0  0  0  0
   -4.4270    2.9560   -1.1490 O   0  0  0  0  0  0  0  0  0  0  0  0
   -3.5680    0.4060   -0.2450 C   0  0  0  0  0  0  0  0  0  0  0  0
  1  2  1  0
  2  3  1  0
  3  4  2  0
  3 11  1  0
  4  5  1  0
  5  6  2  0
  5  9  1  0
  6  7  1  0
  7  8  1  0
  8  9  2  0
  9 10  1  0
 10 11  2  0
 11 12  1  0
 12 13  2  3
 13 14  1  0
 14 15  2  0
 14 16  1  0
 16 17  1  0
 17 18  2  0
 17 27  1  0
 18 19  1  0
 19 20  1  0
 19 21  2  0
 21 22  1  0
 21 23  1  0
 23 24  1  0
 23 27  2  0
 24 25  1  0
 25 26  2  0
M  END
