
     RDKit          3D

 21 24  0  0  0  0  0  0  0  0999 V2000
    5.1280    0.7540   -0.0380 C   0  0  0  0  0  0  0  0  0  0  0  0
    4.1280    0.0140    0.7900 C   0  0  0  0  0  0  0  0  0  0  0  0
    2.7630    0.0860    0.1600 C   0  0  0  0  0  0  0  0  0  0  0  0
    2.6230    0.7470   -0.9640 C   0  0  0  0  0  0  0  0  0  0  0  0
    1.4430    0.4590   -1.8110 C   0  0  2  0  0  0  0  0  0  0  0  0
    0.2950    1.3720   -1.5310 C   0  0  0  0  0  0  0  0  0  0  0  0
   -0.8080    0.7500   -0.7590 C   0  0  0  0  0  0  0  0  0  0  0  0
   -2.0110    1.4050   -0.7120 N   0  0  0  0  0  0  0  0  0  0  0  0
   -3.0510    0.9000   -0.0310 C   0  0  0  0  0  0  0  0  0  0  0  0
   -4.2650    1.5840    0.0030 C   0  0  0  0  0  0  0  0  0  0  0  0
   -5.3450    1.0630    0.7080 C   0  0  0  0  0  0  0  0  0  0  0  0
   -6.8800    1.9340    0.7470 Cl  0  0  0  0  0  0  0  0  0  0  0  0
   -5.1920   -0.1390    1.3690 C   0  0  0  0  0  0  0  0  0  0  0  0
   -3.9920   -0.8300    1.3440 C   0  0  0  0  0  0  0  0  0  0  0  0
   -2.9490   -0.2940    0.6440 C   0  0  0  0  0  0  0  0  0  0  0  0
   -1.7170   -0.9660    0.5970 C   0  0  0  0  0  0  0  0  0  0  0  0
   -1.6520   -2.1950    1.3060 N   0  0  0  0  0  0  0  0  0  0  0  0
   -0.6610   -0.4410   -0.1020 C   0  0  0  0  0  0  0  0  0  0  0  0
    0.6250   -1.1430   -0.1540 C   0  0  2  0  0  0  0  0  0  0  0  0
    1.6140   -0.6020    0.8450 C   0  0  0  0  0  0  0  0  0  0  0  0
    1.1210   -1.0140   -1.5850 C   0  0  0  0  0  0  0  0  0  0  0  0
  1  2  1  0
  2  3  1  0
  3  4  2  0
  3 20  1  0
  4  5  1  0
  5  6  1  1
  5 21  1  0
  6  7  1  0
  7  8  2  0
  7 18  1  0
  8  9  1  0
  9 10  2  0
  9 15  1  0
 10 11  1  0
 11 12  1  0
 11 13  2  0
 13 14  1  0
 14 15  2  0
 15 16  1  0
 16 17  1  0
 16 18  2  0
 18 19  1  0
 19 20  1  1
 19 21  1  0
M  END
