
     RDKit          3D

 21 23  0  0  0  0  0  0  0  0999 V2000
   -4.0170    1.4100   -1.2640 C   0  0  0  0  0  0  0  0  0  0  0  0
   -3.1960    2.0580   -0.2230 C   0  0  0  0  0  0  0  0  0  0  0  0
   -1.8050    1.6580   -0.0170 C   0  0  0  0  0  0  0  0  0  0  0  0
   -1.4110    0.2960    0.3920 C   0  0  1  0  0  0  0  0  0  0  0  0
   -1.9070   -0.2060    1.6850 C   0  0  0  0  0  0  0  0  0  0  0  0
   -3.3530   -0.3300    1.9370 C   0  0  0  0  0  0  0  0  0  0  0  0
   -1.6140   -0.6480   -0.7690 C   0  0  0  0  0  0  0  0  0  0  0  0
   -1.0870   -2.0370   -0.5220 C   0  0  0  0  0  0  0  0  0  0  0  0
    0.4210   -1.9090   -0.4960 C   0  0  0  0  0  0  0  0  0  0  0  0
    0.7180   -1.0240    0.6970 C   0  0  1  0  0  0  0  0  0  0  0  0
    2.1480   -0.6920    0.5630 N   0  0  0  0  0  0  0  0  0  0  0  0
    2.1770    0.3730   -0.3850 C   0  0  0  0  0  0  0  0  0  0  0  0
    3.2430    0.8180   -0.9560 N   0  0  0  0  0  0  0  0  0  0  0  0
    4.5050    0.2730   -0.6830 C   0  0  0  0  0  0  0  0  0  0  0  0
    5.4040   -0.0970   -1.6050 C   0  0  0  0  0  0  0  0  0  0  0  0
    6.5830   -0.6130   -0.8910 C   0  0  0  0  0  0  0  0  0  0  0  0
    8.1600   -0.9980   -1.4940 Cl  0  0  0  0  0  0  0  0  0  0  0  0
    6.1620   -0.7230    0.3580 C   0  0  0  0  0  0  0  0  0  0  0  0
    5.0890    0.0020    0.6250 C   0  0  0  0  0  0  0  0  0  0  0  0
    0.8170    0.8420   -0.5770 N   0  0  0  0  0  0  0  0  0  0  0  0
    0.1240    0.3440    0.5580 C   0  0  1  0  0  0  0  0  0  0  0  0
  1  2  1  0
  2  3  1  0
  4  3  1  6
  4  5  1  0
  4  7  1  0
  4 21  1  0
  5  6  1  0
  7  8  1  0
  8  9  1  0
 10  9  1  6
 10 11  1  0
 10 21  1  0
 11 12  1  0
 12 13  2  3
 12 20  1  0
 13 14  1  0
 14 15  2  0
 14 19  1  0
 15 16  1  0
 16 17  1  0
 16 18  2  0
 18 19  2  0
 21 20  1  6
M  END
