
     RDKit          3D

 21 23  0  0  0  0  0  0  0  0999 V2000
    0.4510   -2.5100   -1.6250 C   0  0  0  0  0  0  0  0  0  0  0  0
    0.8690   -1.8270   -0.3450 C   0  0  0  0  0  0  0  0  0  0  0  0
    0.0750   -0.6210   -0.0600 C   0  0  0  0  0  0  0  0  0  0  0  0
    0.7800    0.5300   -0.0670 C   0  0  0  0  0  0  0  0  0  0  0  0
    2.1750    0.5610   -0.3270 N   0  0  0  0  0  0  0  0  0  0  0  0
    2.7270    0.7790   -1.5790 N   0  0  0  0  0  0  0  0  0  0  0  0
    3.9820    0.8100   -1.8280 C   0  0  0  0  0  0  0  0  0  0  0  0
    4.9900    0.6120   -0.7760 C   0  0  2  0  0  0  0  0  0  0  0  0
    6.0980   -0.7200   -1.2160 Cl  0  0  0  0  0  0  0  0  0  0  0  0
    4.4000    0.3850    0.5350 C   0  0  0  0  0  0  0  0  0  0  0  0
    3.0980    0.3610    0.7430 C   0  0  0  0  0  0  0  0  0  0  0  0
    2.6050    0.1220    2.1130 C   0  0  0  0  0  0  0  0  0  0  0  0
    0.0760    1.7360    0.1830 N   0  0  0  0  0  0  0  0  0  0  0  0
   -1.2870    1.9410   -0.2650 C   0  0  2  0  0  0  0  0  0  0  0  0
   -1.9110    2.9820    0.6170 C   0  0  0  0  0  0  0  0  0  0  0  0
   -2.0670    0.6600   -0.3190 C   0  0  2  0  0  0  0  0  0  0  0  0
   -3.3900    0.7680    0.4130 C   0  0  0  0  0  0  0  0  0  0  0  0
   -4.2240   -0.4240    0.1050 C   0  0  0  0  0  0  0  0  0  0  0  0
   -3.5400   -1.7350    0.3390 C   0  0  0  0  0  0  0  0  0  0  0  0
   -2.1140   -1.7610   -0.1480 C   0  0  0  0  0  0  0  0  0  0  0  0
   -1.3410   -0.5210    0.2470 C   0  0  1  0  0  0  0  0  0  0  0  0
  1  2  1  0
  2  3  1  0
  3  4  2  0
  3 21  1  0
  4  5  1  0
  4 13  1  0
  5  6  1  0
  5 11  1  0
  6  7  2  0
  7  8  1  0
  8  9  1  6
  8 10  1  0
 10 11  2  0
 11 12  1  0
 13 14  1  0
 14 15  1  1
 14 16  1  0
 16 17  1  1
 16 21  1  0
 17 18  1  0
 18 19  1  0
 19 20  1  0
 21 20  1  6
M  END
