
     RDKit          3D

 15 15  0  0  0  0  0  0  0  0999 V2000
   -3.7910   -0.9090    1.4960 C   0  0  0  0  0  0  0  0  0  0  0  0
   -3.6260   -0.2030    0.3040 O   0  0  0  0  0  0  0  0  0  0  0  0
   -2.2980    0.2000    0.1320 C   0  0  2  0  0  0  0  0  0  0  0  0
   -2.3480    1.7340    0.1640 C   0  0  0  0  0  0  0  0  0  0  0  0
   -3.1410    2.2480   -0.8320 O   0  0  0  0  0  0  0  0  0  0  0  0
   -1.8800   -0.2540   -1.2410 C   0  0  0  0  0  0  0  0  0  0  0  0
   -0.5990    0.0470   -1.5940 O   0  0  0  0  0  0  0  0  0  0  0  0
    0.3900   -0.4640   -0.8190 C   0  0  1  0  0  0  0  0  0  0  0  0
    1.3680   -1.3540   -1.5390 C   0  0  0  0  0  0  0  0  0  0  0  0
    2.1150   -2.1210   -0.4380 C   0  0  0  0  0  0  0  0  0  0  0  0
    2.5920   -1.1700    0.6280 C   0  0  0  0  0  0  0  0  0  0  0  0
    2.6180    0.2310    0.0800 C   0  0  2  0  0  0  0  0  0  0  0  0
    3.1720    1.1470    1.0700 N   0  0  0  0  0  0  0  0  0  0  0  0
    1.1890    0.6580   -0.1890 C   0  0  1  0  0  0  0  0  0  0  0  0
    1.1670    1.8050   -1.0010 O   0  0  0  0  0  0  0  0  0  0  0  0
  1  2  1  0
  2  3  1  0
  3  4  1  6
  3  6  1  0
  4  5  1  0
  6  7  1  0
  8  7  1  6
  8  9  1  0
  8 14  1  0
  9 10  1  0
 10 11  1  0
 11 12  1  0
 12 13  1  1
 12 14  1  0
 14 15  1  6
M  CHG  1  13   1
M  END
