
     RDKit          3D

 13 13  0  0  0  0  0  0  0  0999 V2000
    3.4320    0.3990    0.0760 O   0  0  0  0  0  0  0  0  0  0  0  0
    2.5410   -0.5210   -0.4420 C   0  0  0  0  0  0  0  0  0  0  0  0
    1.2220   -0.3520    0.3220 C   0  0  1  0  0  0  0  0  0  0  0  0
    0.7660    0.9830    0.1200 N   0  0  0  0  0  0  0  0  0  0  0  0
   -0.6040    1.3710    0.1680 C   0  0  0  0  0  0  0  0  0  0  0  0
   -1.0030    2.5880    0.1310 N   0  0  0  0  0  0  0  0  0  0  0  0
   -2.3390    2.9060    0.1820 O   0  0  0  0  0  0  0  0  0  0  0  0
   -1.5990    0.2570    0.2690 C   0  0  2  0  0  0  0  0  0  0  0  0
   -1.7640   -0.0940    1.6030 O   0  0  0  0  0  0  0  0  0  0  0  0
   -1.0840   -0.9700   -0.4700 C   0  0  1  0  0  0  0  0  0  0  0  0
   -1.1490   -0.7400   -1.8430 O   0  0  0  0  0  0  0  0  0  0  0  0
    0.2480   -1.4240    0.0060 C   0  0  2  0  0  0  0  0  0  0  0  0
    0.0650   -2.2770    1.1040 O   0  0  0  0  0  0  0  0  0  0  0  0
  1  2  1  0
  3  2  1  6
  3  4  1  0
  3 12  1  0
  4  5  1  0
  5  6  2  3
  5  8  1  0
  6  7  1  0
  8  9  1  1
  8 10  1  0
 10 11  1  6
 10 12  1  0
 12 13  1  1
M  END
