
     RDKit          3D

 15 15  0  0  0  0  0  0  0  0999 V2000
    4.6510   -0.9670    0.6420 C   0  0  0  0  0  0  0  0  0  0  0  0
    4.0270   -0.0930   -0.4590 C   0  0  1  0  0  0  0  0  0  0  0  0
    3.0840   -0.8700   -1.2900 C   0  0  0  0  0  0  0  0  0  0  0  0
    1.7860   -0.4530   -1.2990 O   0  0  0  0  0  0  0  0  0  0  0  0
    1.4770    0.0180   -0.0170 C   0  0  2  0  0  0  0  0  0  0  0  0
    0.0100    0.3360    0.1280 C   0  0  0  0  0  0  0  0  0  0  0  0
   -0.8480   -0.7850   -0.0940 N   0  0  0  0  0  0  0  0  0  0  0  0
   -2.1130   -0.6950    0.5940 C   0  0  0  0  0  0  0  0  0  0  0  0
   -2.8910    0.5310    0.2660 C   0  0  1  0  0  0  0  0  0  0  0  0
   -4.1740    0.5040    1.0720 C   0  0  0  0  0  0  0  0  0  0  0  0
   -2.2310    1.7060    0.5810 O   0  0  0  0  0  0  0  0  0  0  0  0
   -3.2890    0.6090   -1.1920 C   0  0  0  0  0  0  0  0  0  0  0  0
   -3.9720   -0.5670   -1.5800 O   0  0  0  0  0  0  0  0  0  0  0  0
    2.2600    1.2960    0.1320 C   0  0  0  0  0  0  0  0  0  0  0  0
    3.5870    1.0440    0.1170 O   0  0  0  0  0  0  0  0  0  0  0  0
  2  1  1  1
  2  3  1  0
  2 15  1  0
  3  4  1  0
  4  5  1  0
  5  6  1  6
  5 14  1  0
  6  7  1  0
  7  8  1  0
  8  9  1  0
  9 10  1  1
  9 11  1  0
  9 12  1  0
 12 13  1  0
 14 15  1  0
M  CHG  1   7   1
M  END
