
     RDKit          3D

 15 15  0  0  0  0  0  0  0  0999 V2000
   -4.1590   -1.3620   -0.5830 C   0  0  0  0  0  0  0  0  0  0  0  0
   -3.7950   -0.0240    0.0180 C   0  0  1  0  0  0  0  0  0  0  0  0
   -3.6470   -0.1920    1.3790 O   0  0  0  0  0  0  0  0  0  0  0  0
   -2.5130    0.5310   -0.5600 C   0  0  1  0  0  0  0  0  0  0  0  0
   -2.3140    1.9090    0.0040 C   0  0  0  0  0  0  0  0  0  0  0  0
   -1.3950   -0.3500   -0.3320 N   0  0  0  0  0  0  0  0  0  0  0  0
   -0.1540    0.3100   -0.6120 C   0  0  0  0  0  0  0  0  0  0  0  0
    0.8090    0.2020    0.5540 C   0  0  2  0  0  0  0  0  0  0  0  0
    2.0580    0.9730    0.1780 C   0  0  0  0  0  0  0  0  0  0  0  0
    2.7570    0.1980   -0.7460 O   0  0  0  0  0  0  0  0  0  0  0  0
    3.2970   -0.8840   -0.0660 C   0  0  1  0  0  0  0  0  0  0  0  0
    4.6350   -0.4550    0.4960 C   0  0  0  0  0  0  0  0  0  0  0  0
    5.4970   -0.0660   -0.5280 O   0  0  0  0  0  0  0  0  0  0  0  0
    2.4200   -1.3700    1.0600 C   0  0  0  0  0  0  0  0  0  0  0  0
    1.0710   -1.1260    0.8140 O   0  0  0  0  0  0  0  0  0  0  0  0
  2  1  1  6
  2  3  1  0
  2  4  1  0
  4  5  1  1
  4  6  1  0
  6  7  1  0
  8  7  1  6
  8  9  1  0
  8 15  1  0
  9 10  1  0
 10 11  1  0
 11 12  1  1
 11 14  1  0
 12 13  1  0
 14 15  1  0
M  CHG  1   6   1
M  END
