
     RDKit          3D

 35 36  0  0  0  0  0  0  0  0999 V2000
   -6.3640    3.4450   -2.7000 C   0  0  0  0  0  0  0  0  0  0  0  0
   -5.4820    2.2400   -2.4260 C   0  0  0  0  0  0  0  0  0  0  0  0
   -5.7880    1.7220   -1.0180 C   0  0  0  0  0  0  0  0  0  0  0  0
   -4.9530    0.5660   -0.7340 N   0  0  0  0  0  0  0  0  0  0  0  0
   -5.2880   -0.0980    0.5020 C   0  0  2  0  0  0  0  0  0  0  0  0
   -6.6580    0.3850    0.9420 C   0  0  0  0  0  0  0  0  0  0  0  0
   -4.2520    0.2740    1.5160 C   0  0  0  0  0  0  0  0  0  0  0  0
   -4.5680    1.1830    2.5350 C   0  0  0  0  0  0  0  0  0  0  0  0
   -3.5980    1.5410    3.4560 C   0  0  0  0  0  0  0  0  0  0  0  0
   -2.3490    0.9780    3.3220 C   0  0  0  0  0  0  0  0  0  0  0  0
   -2.0390    0.0700    2.3020 C   0  0  0  0  0  0  0  0  0  0  0  0
   -3.0020   -0.2920    1.3820 C   0  0  0  0  0  0  0  0  0  0  0  0
   -2.7620   -1.2140    0.3270 N   0  0  0  0  0  0  0  0  0  0  0  0
   -1.5170   -1.8730    0.1590 C   0  0  0  0  0  0  0  0  0  0  0  0
   -0.8620   -2.0590   -1.1570 C   0  0  0  0  0  0  0  0  0  0  0  0
   -0.5610   -0.7040   -1.7530 C   0  0  0  0  0  0  0  0  0  0  0  0
   -0.9350   -2.3410    1.2080 N   0  0  0  0  0  0  0  0  0  0  0  0
    0.3010   -3.0220    1.2230 C   0  0  0  0  0  0  0  0  0  0  0  0
    0.3280   -4.4140    1.1340 C   0  0  0  0  0  0  0  0  0  0  0  0
    1.5380   -5.0680    1.1550 C   0  0  0  0  0  0  0  0  0  0  0  0
    2.7440   -4.4090    1.2610 C   0  0  0  0  0  0  0  0  0  0  0  0
    2.7380   -3.0140    1.3520 C   0  0  0  0  0  0  0  0  0  0  0  0
    4.0360   -2.2930    1.4730 C   0  0  0  0  0  0  0  0  0  0  0  0
    4.6410   -2.1700    0.1610 N   0  0  0  0  0  0  0  0  0  0  0  0
    6.1370   -1.3560    0.1960 S   0  0  2  0  0  0  0  0  0  0  0  0
    7.0700   -1.9410   -0.8260 O   0  0  0  0  0  0  0  0  0  0  0  0
    6.7650   -1.5970    1.5560 O   0  0  0  0  0  0  0  0  0  0  0  0
    6.0240    0.3230   -0.0390 N   0  0  0  0  0  0  0  0  0  0  0  0
    6.1240    0.7100   -1.4310 C   0  0  0  0  0  0  0  0  0  0  0  0
    6.0190    2.2050   -1.6020 C   0  0  2  0  0  0  0  0  0  0  0  0
    6.1290    2.4540   -2.9880 O   0  0  0  0  0  0  0  0  0  0  0  0
    7.1770    2.8970   -0.9280 C   0  0  0  0  0  0  0  0  0  0  0  0
    7.1080    4.2660   -1.1890 O   0  0  0  0  0  0  0  0  0  0  0  0
    8.3900    5.1140   -0.4550 S   0  0  0  0  0  0  0  0  0  0  0  0
    1.5160   -2.3800    1.3290 C   0  0  0  0  0  0  0  0  0  0  0  0
  1  2  1  0
  2  3  1  0
  3  4  1  0
  4  5  1  0
  5  6  1  1
  5  7  1  0
  7  8  2  0
  7 12  1  0
  8  9  1  0
  9 10  2  0
 10 11  1  0
 11 12  2  0
 12 13  1  0
 13 14  1  0
 14 15  1  0
 14 17  2  3
 15 16  1  0
 17 18  1  0
 18 19  2  0
 18 35  1  0
 19 20  1  0
 20 21  2  0
 21 22  1  0
 22 23  1  0
 22 35  2  0
 23 24  1  0
 25 24  1  1
 25 26  2  0
 25 27  2  0
 25 28  1  0
 28 29  1  0
 29 30  1  0
 30 31  1  6
 30 32  1  0
 32 33  1  0
 33 34  1  0
M  CHG  1   4   1
M  END
