
     RDKit          3D

 34 38  0  0  0  0  0  0  0  0999 V2000
    8.8170    0.8540    1.6770 C   0  0  0  0  0  0  0  0  0  0  0  0
    7.6910   -0.1580    1.9150 C   0  0  2  0  0  0  0  0  0  0  0  0
    8.3240   -1.4970    1.9400 C   0  0  0  0  0  0  0  0  0  0  0  0
    9.1840   -1.7330    2.8650 O   0  0  0  0  0  0  0  0  0  0  0  0
    7.9830   -2.4840    0.9610 C   0  0  0  0  0  0  0  0  0  0  0  0
    7.1220   -2.2250   -0.0070 C   0  0  0  0  0  0  0  0  0  0  0  0
    6.4870   -0.9570   -0.1280 N   0  0  0  0  0  0  0  0  0  0  0  0
    6.7700   -0.0130    0.7580 C   0  0  0  0  0  0  0  0  0  0  0  0
    6.0310    1.1110    0.3840 C   0  0  0  0  0  0  0  0  0  0  0  0
    5.3270    0.8080   -0.7150 N   0  0  0  0  0  0  0  0  0  0  0  0
    5.6060   -0.4660   -1.0340 C   0  0  0  0  0  0  0  0  0  0  0  0
    4.9650   -1.4370   -2.3860 S   0  0  0  0  0  0  0  0  0  0  0  0
    3.8590   -0.5350   -3.4440 C   0  0  0  0  0  0  0  0  0  0  0  0
    2.5840   -0.1020   -2.8130 C   0  0  0  0  0  0  0  0  0  0  0  0
    1.7940    0.5300   -3.5590 O   0  0  0  0  0  0  0  0  0  0  0  0
    2.2240   -0.3470   -1.4800 N   0  0  0  0  0  0  0  0  0  0  0  0
    1.0180    0.0450   -0.8330 C   0  0  0  0  0  0  0  0  0  0  0  0
    0.9120   -0.1230    0.5630 C   0  0  0  0  0  0  0  0  0  0  0  0
   -0.2290    0.2310    1.2430 C   0  0  0  0  0  0  0  0  0  0  0  0
   -1.3260    0.7650    0.5960 C   0  0  0  0  0  0  0  0  0  0  0  0
   -1.2430    0.9360   -0.7550 C   0  0  0  0  0  0  0  0  0  0  0  0
   -0.0840    0.5770   -1.4410 C   0  0  0  0  0  0  0  0  0  0  0  0
   -2.4060    1.5110   -1.4770 C   0  0  0  0  0  0  0  0  0  0  0  0
   -3.6690    1.0500   -0.8890 C   0  0  0  0  0  0  0  0  0  0  0  0
   -4.7370    0.8170   -1.7490 C   0  0  0  0  0  0  0  0  0  0  0  0
   -5.9090    0.3900   -1.1500 C   0  0  0  0  0  0  0  0  0  0  0  0
   -5.9980    0.2120    0.2110 C   0  0  0  0  0  0  0  0  0  0  0  0
   -7.2850   -0.2440    0.7780 C   0  0  1  0  0  0  0  0  0  0  0  0
   -8.3020    0.8700    0.6500 C   0  0  0  0  0  0  0  0  0  0  0  0
   -7.8550   -1.4420    0.0140 C   0  0  0  0  0  0  0  0  0  0  0  0
   -7.1440   -0.6700    2.2180 C   0  0  0  0  0  0  0  0  0  0  0  0
   -4.9110    0.4590    0.9900 N   0  0  0  0  0  0  0  0  0  0  0  0
   -3.7410    0.8770    0.4590 C   0  0  0  0  0  0  0  0  0  0  0  0
   -2.5580    1.1430    1.2880 C   0  0  0  0  0  0  0  0  0  0  0  0
  2  1  1  6
  2  3  1  0
  2  8  1  0
  3  4  2  0
  3  5  1  0
  5  6  2  0
  6  7  1  0
  7  8  1  0
  7 11  1  0
  8  9  2  0
  9 10  1  0
 10 11  2  0
 11 12  1  0
 12 13  1  0
 13 14  1  0
 14 15  2  0
 14 16  1  0
 16 17  1  0
 17 18  2  0
 17 22  1  0
 18 19  1  0
 19 20  2  0
 20 21  1  0
 20 34  1  0
 21 22  2  0
 21 23  1  0
 23 24  1  0
 24 25  2  0
 24 33  1  0
 25 26  1  0
 26 27  2  0
 27 28  1  0
 27 32  1  0
 28 29  1  1
 28 30  1  0
 28 31  1  0
 32 33  2  0
 33 34  1  0
M  CHG  1  32   1
M  END
