
     RDKit          3D

 19 18  0  0  0  0  0  0  0  0999 V2000
    0.7530    0.5390    4.5320 O   0  0  0  0  0  0  0  0  0  0  0  0
   -0.1400    1.4730    3.6680 P   0  0  0  0  0  0  0  0  0  0  0  0
   -0.0460    1.3170    1.9470 O   0  0  0  0  0  0  0  0  0  0  0  0
   -0.7090   -0.2040    1.5180 P   0  0  0  0  0  0  0  0  0  0  0  0
    0.1220   -0.9890    0.3310 O   0  0  0  0  0  0  0  0  0  0  0  0
    1.2410   -0.4200   -0.2130 C   0  0  0  0  0  0  0  0  0  0  0  0
    2.3020   -1.6120   -0.0960 C   0  0  0  0  0  0  0  0  0  0  0  0
    3.2920   -1.1360   -0.9700 N   0  0  0  0  0  0  0  0  0  0  0  0
    4.2780   -0.2240   -0.8680 C   0  0  0  0  0  0  0  0  0  0  0  0
    4.6450    0.2370    0.2110 O   0  0  0  0  0  0  0  0  0  0  0  0
    4.9860    0.3020   -2.0090 O   0  0  0  0  0  0  0  0  0  0  0  0
   -2.4050   -0.1160    1.3410 O   0  0  0  0  0  0  0  0  0  0  0  0
   -2.6860    0.0300   -0.0230 C   0  0  1  0  0  0  0  0  0  0  0  0
   -4.0890   -0.3990   -0.3060 C   0  0  0  0  0  0  0  0  0  0  0  0
   -5.0160    0.3910    0.0120 O   0  0  0  0  0  0  0  0  0  0  0  0
   -4.3970   -1.5820   -0.9020 O   0  0  0  0  0  0  0  0  0  0  0  0
   -2.7340    1.5380   -0.2220 C   0  0  0  0  0  0  0  0  0  0  0  0
   -2.9760    2.3280    0.6430 O   0  0  0  0  0  0  0  0  0  0  0  0
   -2.5090    1.9350   -1.5140 O   0  0  0  0  0  0  0  0  0  0  0  0
  1  2  2  0
  2  3  1  0
  3  4  1  0
  4  5  1  0
  4 12  1  0
  5  6  1  0
  6  7  1  0
  7  8  1  0
  8  9  1  0
  9 10  2  0
  9 11  1  0
 13 12  1  1
 13 14  1  0
 13 17  1  0
 14 15  2  0
 14 16  1  0
 17 18  2  0
 17 19  1  0
M  END
