
     RDKit          3D

 21 21  0  0  0  0  0  0  0  0999 V2000
   -1.1310    1.7740    3.1410 O   0  0  0  0  0  0  0  0  0  0  0  0
   -1.4510    1.2160    2.0140 C   0  0  0  0  0  0  0  0  0  0  0  0
   -1.4170    2.0440    0.8740 N   0  0  0  0  0  0  0  0  0  0  0  0
   -0.6360    1.9260   -0.1620 C   0  0  0  0  0  0  0  0  0  0  0  0
   -0.8580    2.9310   -1.1430 O   0  0  0  0  0  0  0  0  0  0  0  0
   -1.8570    3.8150   -1.0440 O   0  0  0  0  0  0  0  0  0  0  0  0
    0.3170    0.9630   -0.3430 N   0  0  0  0  0  0  0  0  0  0  0  0
    0.5160   -0.1550   -0.8510 C   0  0  0  0  0  0  0  0  0  0  0  0
    1.8880   -0.7260   -0.6900 C   0  0  0  0  0  0  0  0  0  0  0  0
    2.8490   -0.1030   -0.0540 C   0  0  0  0  0  0  0  0  0  0  0  0
    4.2060   -0.6150    0.1310 C   0  0  0  0  0  0  0  0  0  0  0  0
    4.5430   -0.7570    1.4850 O   0  0  0  0  0  0  0  0  0  0  0  0
    5.7870   -1.2250    1.4940 O   0  0  0  0  0  0  0  0  0  0  0  0
   -0.4070   -0.9720   -1.5810 N   0  0  0  0  0  0  0  0  0  0  0  0
   -1.6300   -0.5330   -2.1540 C   0  0  0  0  0  0  0  0  0  0  0  0
   -1.8900   -0.8790   -3.3450 O   0  0  0  0  0  0  0  0  0  0  0  0
   -2.5880    0.2450   -1.5450 O   0  0  0  0  0  0  0  0  0  0  0  0
   -3.2600    0.0730   -0.4370 O   0  0  0  0  0  0  0  0  0  0  0  0
   -3.0160   -1.0840    0.2520 C   0  0  0  0  0  0  0  0  0  0  0  0
   -2.9770   -0.7450    1.7400 C   0  0  0  0  0  0  0  0  0  0  0  0
   -1.7850   -0.1060    2.0520 O   0  0  0  0  0  0  0  0  0  0  0  0
  1  2  2  0
  2  3  1  0
  2 21  1  0
  3  4  2  0
  4  5  1  0
  4  7  1  0
  5  6  1  0
  7  8  2  0
  8  9  1  0
  8 14  1  0
  9 10  2  3
 10 11  1  0
 11 12  1  0
 12 13  1  0
 14 15  1  0
 15 16  2  0
 15 17  1  0
 17 18  1  0
 18 19  1  0
 19 20  1  0
 20 21  1  0
M  END
