
     RDKit          3D

 19 18  0  0  0  0  0  0  0  0999 V2000
    6.5670   -1.3360   -1.2560 O   0  0  0  0  0  0  0  0  0  0  0  0
    6.3030   -0.6890   -0.2190 C   0  0  0  0  0  0  0  0  0  0  0  0
    7.2910   -0.3860    0.6840 O   0  0  0  0  0  0  0  0  0  0  0  0
    4.9040   -0.2590    0.0090 C   0  0  0  0  0  0  0  0  0  0  0  0
    4.0690   -0.6760   -1.0260 O   0  0  0  0  0  0  0  0  0  0  0  0
    2.4680   -0.1120   -0.6630 P   0  0  0  0  0  0  0  0  0  0  0  0
    2.5620    1.5950   -0.4590 O   0  0  0  0  0  0  0  0  0  0  0  0
    1.9080   -0.9430    0.7250 O   0  0  0  0  0  0  0  0  0  0  0  0
    0.1810   -1.0510    0.7960 P   0  0  0  0  0  0  0  0  0  0  0  0
   -0.4360   -2.0840   -0.4520 O   0  0  0  0  0  0  0  0  0  0  0  0
   -0.5110    0.6680    0.6570 C   0  0  0  0  0  0  0  0  0  0  0  0
   -1.7450    0.6260   -0.2100 C   0  0  0  0  0  0  0  0  0  0  0  0
   -2.6720   -0.2180    0.4110 O   0  0  0  0  0  0  0  0  0  0  0  0
   -3.8000   -0.3140   -0.3230 N   0  0  0  0  0  0  0  0  0  0  0  0
   -5.0470    0.1730    0.1080 C   0  0  0  0  0  0  0  0  0  0  0  0
   -5.0870    0.7360    1.2620 O   0  0  0  0  0  0  0  0  0  0  0  0
   -6.2750    0.0750   -0.6740 C   0  0  0  0  0  0  0  0  0  0  0  0
   -6.1670   -0.4850   -1.8000 O   0  0  0  0  0  0  0  0  0  0  0  0
   -7.4690    0.5510   -0.2440 O   0  0  0  0  0  0  0  0  0  0  0  0
  1  2  2  0
  2  3  1  0
  2  4  1  0
  4  5  1  0
  5  6  1  0
  6  7  1  0
  6  8  1  0
  8  9  1  0
  9 10  1  0
  9 11  1  0
 11 12  1  0
 12 13  1  0
 13 14  1  0
 14 15  1  0
 15 16  2  0
 15 17  1  0
 17 18  2  0
 17 19  1  0
M  END
