
     RDKit          3D

 19 18  0  0  0  0  0  0  0  0999 V2000
   -4.1330    0.5770   -1.5650 O   0  0  0  0  0  0  0  0  0  0  0  0
   -4.6070   -0.0990   -0.6770 C   0  0  0  0  0  0  0  0  0  0  0  0
   -6.0980   -0.0500   -0.2910 C   0  0  0  0  0  0  0  0  0  0  0  0
   -6.5040    1.1890   -0.9250 O   0  0  0  0  0  0  0  0  0  0  0  0
   -6.5310    2.1000    0.1180 O   0  0  0  0  0  0  0  0  0  0  0  0
   -3.8010   -0.9600    0.1290 N   0  0  0  0  0  0  0  0  0  0  0  0
   -2.4160   -0.4840    0.3430 C   0  0  0  0  0  0  0  0  0  0  0  0
   -2.0300    0.4330   -0.4020 O   0  0  0  0  0  0  0  0  0  0  0  0
   -1.6420   -1.0410    1.3380 O   0  0  0  0  0  0  0  0  0  0  0  0
   -0.3510   -0.4410    1.5500 C   0  0  0  0  0  0  0  0  0  0  0  0
    0.5800   -0.4430   -0.0170 P   0  0  0  0  0  0  0  0  0  0  0  0
    0.0340   -1.5820   -1.2020 O   0  0  0  0  0  0  0  0  0  0  0  0
    2.2300   -0.7500    0.3930 O   0  0  0  0  0  0  0  0  0  0  0  0
    3.0500   -1.0000   -0.6530 C   0  0  0  0  0  0  0  0  0  0  0  0
    4.4790   -1.0620    0.0670 C   0  0  0  0  0  0  0  0  0  0  0  0
    4.4880    0.1830    0.6300 O   0  0  0  0  0  0  0  0  0  0  0  0
    5.5820    1.2570   -0.0040 P   0  0  0  0  0  0  0  0  0  0  0  0
    7.0920    1.4730    0.6410 O   0  0  0  0  0  0  0  0  0  0  0  0
    4.7430    2.7930   -0.3560 O   0  0  0  0  0  0  0  0  0  0  0  0
  1  2  2  0
  2  3  1  0
  2  6  1  0
  3  4  1  0
  4  5  1  0
  6  7  1  0
  7  8  2  0
  7  9  1  0
  9 10  1  0
 10 11  1  0
 11 12  1  0
 11 13  1  0
 13 14  1  0
 14 15  1  0
 15 16  1  0
 16 17  1  0
 17 18  1  0
 17 19  1  0
M  END
