
     RDKit          3D

 19 18  0  0  0  0  0  0  0  0999 V2000
    3.4580    1.0750    1.4350 O   0  0  0  0  0  0  0  0  0  0  0  0
    4.2430    0.5900    0.6070 C   0  0  0  0  0  0  0  0  0  0  0  0
    5.5930    0.4390    0.9680 O   0  0  0  0  0  0  0  0  0  0  0  0
    3.7660    0.2190   -0.6320 O   0  0  0  0  0  0  0  0  0  0  0  0
    2.0880    0.3940   -1.1150 P   0  0  0  0  0  0  0  0  0  0  0  0
    1.1600   -1.1450   -0.6400 C   0  0  0  0  0  0  0  0  0  0  0  0
   -0.3180   -0.9880   -0.9290 C   0  0  0  0  0  0  0  0  0  0  0  0
   -0.8890    0.1010   -0.2050 N   0  0  0  0  0  0  0  0  0  0  0  0
   -0.9680   -0.0630    1.2060 C   0  0  0  0  0  0  0  0  0  0  0  0
   -1.9190   -1.0990    1.6530 C   0  0  0  0  0  0  0  0  0  0  0  0
   -2.5850   -1.7760    0.8380 O   0  0  0  0  0  0  0  0  0  0  0  0
   -2.0890   -1.3370    3.0040 O   0  0  0  0  0  0  0  0  0  0  0  0
   -2.9340   -2.2580    3.4330 O   0  0  0  0  0  0  0  0  0  0  0  0
   -2.1030    0.5420   -0.8060 C   0  0  0  0  0  0  0  0  0  0  0  0
   -2.8760    1.9580    0.1070 P   0  0  0  0  0  0  0  0  0  0  0  0
   -1.6930    3.0420    0.7460 O   0  0  0  0  0  0  0  0  0  0  0  0
   -3.8780    2.8590   -0.9960 O   0  0  0  0  0  0  0  0  0  0  0  0
    2.0840    0.4710   -2.8560 O   0  0  0  0  0  0  0  0  0  0  0  0
    2.5910   -0.6510   -3.2920 O   0  0  0  0  0  0  0  0  0  0  0  0
  1  2  2  0
  2  3  1  0
  2  4  1  0
  4  5  1  0
  5  6  1  0
  5 18  1  0
  6  7  1  0
  7  8  1  0
  8  9  1  0
  8 14  1  0
  9 10  1  0
 10 11  2  0
 10 12  1  0
 12 13  1  0
 14 15  1  0
 15 16  1  0
 15 17  1  0
 18 19  1  0
M  END
