
     RDKit          3D

 33 35  0  0  0  0  0  0  0  0999 V2000
   -0.0840    6.7550    1.3250 C   0  0  0  0  0  0  0  0  0  0  0  0
    0.0860    5.3780    1.6700 O   0  0  0  0  0  0  0  0  0  0  0  0
    0.0610    4.4220    0.6340 C   0  0  0  0  0  0  0  0  0  0  0  0
   -0.1220    4.8150   -0.6750 C   0  0  0  0  0  0  0  0  0  0  0  0
   -0.1460    3.8750   -1.6840 C   0  0  0  0  0  0  0  0  0  0  0  0
    0.0150    2.5410   -1.3730 C   0  0  0  0  0  0  0  0  0  0  0  0
   -0.0110    1.6230   -2.3820 O   0  0  0  0  0  0  0  0  0  0  0  0
   -0.1860    1.8580   -3.7410 C   0  0  0  0  0  0  0  0  0  0  0  0
    0.2010    2.1110   -0.0770 C   0  0  0  0  0  0  0  0  0  0  0  0
    0.3730    0.6540    0.2550 C   0  0  2  0  0  0  0  0  0  0  0  0
    1.4700    0.0650   -0.4490 N   0  0  0  0  0  0  0  0  0  0  0  0
    2.6210   -0.4430    0.2570 C   0  0  0  0  0  0  0  0  0  0  0  0
    2.6500   -0.3620    1.5070 O   0  0  0  0  0  0  0  0  0  0  0  0
    3.7420   -1.0440   -0.4540 C   0  0  0  0  0  0  0  0  0  0  0  0
    4.8610   -1.5650    0.3700 C   0  0  0  0  0  0  0  0  0  0  0  0
    4.4970   -2.6490    1.3160 C   0  0  0  0  0  0  0  0  0  0  0  0
    3.9680   -2.4080    2.3840 O   0  0  0  0  0  0  0  0  0  0  0  0
    4.7780   -4.0640    0.9690 C   0  0  1  0  0  0  0  0  0  0  0  0
    4.9980   -4.4920   -0.4270 C   0  0  0  0  0  0  0  0  0  0  0  0
    6.1860   -4.2940    0.4130 C   0  0  0  0  0  0  0  0  0  0  0  0
   -0.9020   -0.0480    0.0410 C   0  0  0  0  0  0  0  0  0  0  0  0
   -1.2730   -1.2490   -1.2660 S   0  0  0  0  0  0  0  0  0  0  0  0
   -2.9790   -1.5060   -0.7070 C   0  0  0  0  0  0  0  0  0  0  0  0
   -3.8960   -2.4510   -1.4130 C   0  0  0  0  0  0  0  0  0  0  0  0
   -5.1560   -2.3400   -0.7300 N   0  0  0  0  0  0  0  0  0  0  0  0
   -5.2670   -2.6370    0.6350 C   0  0  0  0  0  0  0  0  0  0  0  0
   -4.2510   -3.0040    1.2670 O   0  0  0  0  0  0  0  0  0  0  0  0
   -6.5600   -2.5280    1.3640 C   0  0  0  0  0  0  0  0  0  0  0  0
   -7.5590   -2.0990    0.4630 O   0  0  0  0  0  0  0  0  0  0  0  0
   -3.0430   -0.7780    0.2340 N   0  0  0  0  0  0  0  0  0  0  0  0
   -2.0920   -0.0100    0.7020 C   0  0  0  0  0  0  0  0  0  0  0  0
   -2.2750    0.8810    1.9080 C   0  0  0  0  0  0  0  0  0  0  0  0
    0.2170    3.0860    0.8950 C   0  0  0  0  0  0  0  0  0  0  0  0
  1  2  1  0
  2  3  1  0
  3  4  2  0
  3 33  1  0
  4  5  1  0
  5  6  2  0
  6  7  1  0
  6  9  1  0
  7  8  1  0
  9 10  1  0
  9 33  2  0
 10 11  1  6
 10 21  1  0
 11 12  1  0
 12 13  2  0
 12 14  1  0
 14 15  1  0
 15 16  1  0
 16 17  2  0
 18 16  1  6
 18 19  1  0
 18 20  1  0
 19 20  1  0
 21 22  1  0
 21 31  2  0
 22 23  1  0
 23 24  1  0
 23 30  2  0
 24 25  1  0
 25 26  1  0
 26 27  2  0
 26 28  1  0
 28 29  1  0
 30 31  1  0
 31 32  1  0
M  END
