
     RDKit          3D

 48 53  0  0  0  0  0  0  0  0999 V2000
   -3.2750    1.1780    1.1190 O   0  0  0  0  0  0  0  0  0  0  0  0
   -2.5120    0.2660    0.6360 C   0  0  0  0  0  0  0  0  0  0  0  0
   -3.1150   -0.5170   -0.3760 N   0  0  0  0  0  0  0  0  0  0  0  0
   -4.4860   -0.2920   -0.8430 C   0  0  1  0  0  0  0  0  0  0  0  0
   -4.5360   -0.2290   -2.3240 C   0  0  0  0  0  0  0  0  0  0  0  0
   -4.4180    0.7730   -3.2600 C   0  0  0  0  0  0  0  0  0  0  0  0
   -4.5110    0.5270   -4.6210 C   0  0  0  0  0  0  0  0  0  0  0  0
   -4.7310   -0.7640   -5.0630 C   0  0  0  0  0  0  0  0  0  0  0  0
   -4.8500   -1.7690   -4.1450 C   0  0  0  0  0  0  0  0  0  0  0  0
   -4.7550   -1.5140   -2.7720 C   0  0  0  0  0  0  0  0  0  0  0  0
   -4.8560   -2.4600   -1.6490 C   0  0  0  0  0  0  0  0  0  0  0  0
   -5.2530   -1.5730   -0.4830 C   0  0  1  0  0  0  0  0  0  0  0  0
   -4.7090   -2.1200    0.6720 O   0  0  0  0  0  0  0  0  0  0  0  0
   -1.1590    0.1350    1.1640 C   0  0  2  0  0  0  0  0  0  0  0  0
   -1.1190    0.8410    2.4150 O   0  0  0  0  0  0  0  0  0  0  0  0
   -0.7360   -0.0800    3.3720 C   0  0  0  0  0  0  0  0  0  0  0  0
   -0.6420    0.4820    4.7220 C   0  0  0  0  0  0  0  0  0  0  0  0
   -0.9450    1.7980    4.9750 C   0  0  0  0  0  0  0  0  0  0  0  0
   -0.8440    2.2950    6.2550 C   0  0  0  0  0  0  0  0  0  0  0  0
   -0.4400    1.4940    7.3090 C   0  0  0  0  0  0  0  0  0  0  0  0
   -0.1400    0.1760    7.0380 C   0  0  0  0  0  0  0  0  0  0  0  0
   -0.2410   -0.3150    5.7680 C   0  0  0  0  0  0  0  0  0  0  0  0
   -0.0550    0.7000    0.3100 C   0  0  2  0  0  0  0  0  0  0  0  0
   -0.1420    2.0780    0.0990 O   0  0  0  0  0  0  0  0  0  0  0  0
    0.1460   -0.0220   -0.9580 C   0  0  1  0  0  0  0  0  0  0  0  0
   -0.8580    0.2930   -1.8760 O   0  0  0  0  0  0  0  0  0  0  0  0
    1.4540    0.3110   -1.6450 C   0  0  1  0  0  0  0  0  0  0  0  0
    1.4320    1.6700   -1.9370 O   0  0  0  0  0  0  0  0  0  0  0  0
    1.4110    1.9500   -3.2890 C   0  0  0  0  0  0  0  0  0  0  0  0
    1.3910    3.4370   -3.4470 C   0  0  0  0  0  0  0  0  0  0  0  0
    0.2000    4.1250   -3.5350 C   0  0  0  0  0  0  0  0  0  0  0  0
    0.1630    5.4830   -3.6770 C   0  0  0  0  0  0  0  0  0  0  0  0
    1.3410    6.1990   -3.7350 C   0  0  0  0  0  0  0  0  0  0  0  0
    2.5580    5.5260   -3.6490 C   0  0  0  0  0  0  0  0  0  0  0  0
    2.5640    4.1590   -3.5060 C   0  0  0  0  0  0  0  0  0  0  0  0
    2.6410    0.0280   -0.8330 C   0  0  0  0  0  0  0  0  0  0  0  0
    3.4490    0.9610   -0.4940 O   0  0  0  0  0  0  0  0  0  0  0  0
    2.9990   -1.2680   -0.3600 N   0  0  0  0  0  0  0  0  0  0  0  0
    4.1950   -1.4740    0.4430 C   0  0  1  0  0  0  0  0  0  0  0  0
    3.9410   -2.2320    1.6620 C   0  0  0  0  0  0  0  0  0  0  0  0
    3.6460   -1.7790    2.9410 C   0  0  0  0  0  0  0  0  0  0  0  0
    3.4300   -2.6680    3.9730 C   0  0  0  0  0  0  0  0  0  0  0  0
    3.5200   -4.0110    3.6720 C   0  0  0  0  0  0  0  0  0  0  0  0
    3.8130   -4.4570    2.4010 C   0  0  0  0  0  0  0  0  0  0  0  0
    4.0300   -3.5720    1.3650 C   0  0  0  0  0  0  0  0  0  0  0  0
    4.3650   -3.7370   -0.0950 C   0  0  0  0  0  0  0  0  0  0  0  0
    5.0790   -2.4110   -0.3640 C   0  0  1  0  0  0  0  0  0  0  0  0
    5.0430   -2.0700   -1.7070 O   0  0  0  0  0  0  0  0  0  0  0  0
  1  2  2  0
  2  3  1  0
  2 14  1  0
  4  3  1  6
  4  5  1  0
  4 12  1  0
  5  6  2  0
  5 10  1  0
  6  7  1  0
  7  8  2  0
  8  9  1  0
  9 10  2  0
 10 11  1  0
 11 12  1  0
 12 13  1  1
 14 15  1  1
 14 23  1  0
 15 16  1  0
 16 17  1  0
 17 18  2  0
 17 22  1  0
 18 19  1  0
 19 20  2  0
 20 21  1  0
 21 22  2  0
 23 24  1  6
 23 25  1  0
 25 26  1  6
 25 27  1  0
 27 28  1  1
 27 36  1  0
 28 29  1  0
 29 30  1  0
 30 31  2  0
 30 35  1  0
 31 32  1  0
 32 33  2  0
 33 34  1  0
 34 35  2  0
 36 37  2  0
 36 38  1  0
 39 38  1  6
 39 40  1  0
 39 47  1  0
 40 41  2  0
 40 45  1  0
 41 42  1  0
 42 43  2  0
 43 44  1  0
 44 45  2  0
 45 46  1  0
 46 47  1  0
 47 48  1  6
M  END
