
     RDKit          3D

 33 35  0  0  0  0  0  0  0  0999 V2000
   -3.1020    3.6530    2.3660 C   0  0  0  0  0  0  0  0  0  0  0  0
   -2.7450    2.2780    1.8290 C   0  0  0  0  0  0  0  0  0  0  0  0
   -2.6250    2.2760    0.3410 C   0  0  0  0  0  0  0  0  0  0  0  0
   -2.3250    1.0650   -0.2420 O   0  0  0  0  0  0  0  0  0  0  0  0
   -3.0890   -0.0710   -0.2690 C   0  0  0  0  0  0  0  0  0  0  0  0
   -4.3460   -0.1630    0.2810 C   0  0  0  0  0  0  0  0  0  0  0  0
   -5.0560   -1.3680    0.2000 C   0  0  0  0  0  0  0  0  0  0  0  0
   -6.3940   -1.4450    0.7940 C   0  0  0  0  0  0  0  0  0  0  0  0
   -6.9570   -0.3190    1.4470 N   0  0  0  0  0  0  0  0  0  0  0  0
   -7.0740   -2.4990    0.7450 O   0  0  0  0  0  0  0  0  0  0  0  0
   -4.5530   -2.4910   -0.4150 C   0  0  0  0  0  0  0  0  0  0  0  0
   -5.3120   -3.6500   -0.4570 O   0  0  0  0  0  0  0  0  0  0  0  0
   -4.8490   -4.8380   -1.0760 C   0  0  0  0  0  0  0  0  0  0  0  0
   -3.2900   -2.3820   -0.9630 C   0  0  0  0  0  0  0  0  0  0  0  0
   -2.5670   -1.2190   -0.9030 C   0  0  0  0  0  0  0  0  0  0  0  0
   -1.2310   -1.1420   -1.4930 C   0  0  0  0  0  0  0  0  0  0  0  0
   -0.7050   -2.1230   -2.0730 O   0  0  0  0  0  0  0  0  0  0  0  0
   -0.4700    0.0230   -1.4450 O   0  0  0  0  0  0  0  0  0  0  0  0
    0.8240    0.0850   -2.0200 C   0  0  1  0  0  0  0  0  0  0  0  0
    0.9090    1.1060   -3.1340 C   0  0  0  0  0  0  0  0  0  0  0  0
    1.8350    0.4520   -0.9900 C   0  0  0  0  0  0  0  0  0  0  0  0
    3.0220    0.5280   -1.3650 O   0  0  0  0  0  0  0  0  0  0  0  0
    1.4960    0.7080    0.3580 N   0  0  0  0  0  0  0  0  0  0  0  0
    2.3910    1.0370    1.4220 C   0  0  0  0  0  0  0  0  0  0  0  0
    3.3050   -0.0250    1.8590 C   0  0  0  0  0  0  0  0  0  0  0  0
    4.2200   -0.6550    0.9040 C   0  0  0  0  0  0  0  0  0  0  0  0
    3.8970   -1.8720    0.2530 C   0  0  0  0  0  0  0  0  0  0  0  0
    5.3600   -2.1710   -0.7810 S   0  0  0  0  0  0  0  0  0  0  0  0
    6.1900   -0.5790   -0.1590 C   0  0  0  0  0  0  0  0  0  0  0  0
    7.5750   -0.2740   -0.7330 C   0  0  2  0  0  0  0  0  0  0  0  0
    8.5670    0.2380    0.2990 C   0  0  0  0  0  0  0  0  0  0  0  0
    7.9050    1.1520   -0.6950 C   0  0  0  0  0  0  0  0  0  0  0  0
    5.3970   -0.2020    0.5490 N   0  0  0  0  0  0  0  0  0  0  0  0
  1  2  1  0
  2  3  1  0
  3  4  1  0
  4  5  1  0
  5  6  2  0
  5 15  1  0
  6  7  1  0
  7  8  1  0
  7 11  2  0
  8  9  1  0
  8 10  2  0
 11 12  1  0
 11 14  1  0
 12 13  1  0
 14 15  2  0
 15 16  1  0
 16 17  2  0
 16 18  1  0
 18 19  1  0
 19 20  1  6
 19 21  1  0
 21 22  2  0
 21 23  1  0
 23 24  1  0
 24 25  1  0
 25 26  1  0
 26 27  2  0
 26 33  1  0
 27 28  1  0
 28 29  1  0
 30 29  1  1
 29 33  2  0
 30 31  1  0
 30 32  1  0
 31 32  1  0
M  END
