
     RDKit          3D

 46 49  0  0  0  0  0  0  0  0999 V2000
    9.9480    1.6890   -0.1940 C   0  0  0  0  0  0  0  0  0  0  0  0
    9.0190    1.1700    0.9400 C   0  0  1  0  0  0  0  0  0  0  0  0
    9.4310    2.0070    2.1350 C   0  0  0  0  0  0  0  0  0  0  0  0
    7.6500    1.3960    0.4360 C   0  0  0  0  0  0  0  0  0  0  0  0
    6.4850    0.9970    1.2460 C   0  0  2  0  0  0  0  0  0  0  0  0
    6.4960    1.7910    2.5810 C   0  0  0  0  0  0  0  0  0  0  0  0
    6.2580   -0.4210    1.5570 C   0  0  0  0  0  0  0  0  0  0  0  0
    6.0450   -1.4350    0.5100 C   0  0  2  0  0  0  0  0  0  0  0  0
    4.9000   -1.2880   -0.3810 C   0  0  0  0  0  0  0  0  0  0  0  0
    4.9140   -2.0790   -1.5410 C   0  0  0  0  0  0  0  0  0  0  0  0
    3.8640   -1.9940   -2.4130 C   0  0  0  0  0  0  0  0  0  0  0  0
    2.7780   -1.1710   -2.2290 C   0  0  0  0  0  0  0  0  0  0  0  0
    1.6870   -1.0990   -3.2280 C   0  0  0  0  0  0  0  0  0  0  0  0
    0.6140   -2.1150   -2.9770 C   0  0  0  0  0  0  0  0  0  0  0  0
   -0.1000   -2.0220   -1.6750 C   0  0  0  0  0  0  0  0  0  0  0  0
   -0.8210   -0.7760   -1.4230 C   0  0  0  0  0  0  0  0  0  0  0  0
   -0.6330    0.2320   -2.1890 O   0  0  0  0  0  0  0  0  0  0  0  0
   -1.7370   -0.5810   -0.3700 N   0  0  0  0  0  0  0  0  0  0  0  0
   -2.0340   -1.6580    0.5460 C   0  0  0  0  0  0  0  0  0  0  0  0
   -3.5540   -1.7120    0.7090 C   0  0  0  0  0  0  0  0  0  0  0  0
   -4.1750   -1.0460   -0.4970 C   0  0  0  0  0  0  0  0  0  0  0  0
   -3.9220    0.4540   -0.4680 C   0  0  1  0  0  0  0  0  0  0  0  0
   -4.1830    1.0240   -1.7040 O   0  0  0  0  0  0  0  0  0  0  0  0
   -4.7230    1.0260    0.5300 O   0  0  0  0  0  0  0  0  0  0  0  0
   -6.1250    0.9170    0.4430 C   0  0  0  0  0  0  0  0  0  0  0  0
   -6.8220   -0.1210    0.9980 C   0  0  0  0  0  0  0  0  0  0  0  0
   -8.1930   -0.2390    0.9180 C   0  0  0  0  0  0  0  0  0  0  0  0
   -8.9450   -1.3510    1.5010 C   0  0  1  0  0  0  0  0  0  0  0  0
   -8.7140   -2.6600    0.7710 C   0  0  0  0  0  0  0  0  0  0  0  0
   -8.6480   -1.4780    2.9740 C   0  0  0  0  0  0  0  0  0  0  0  0
   -8.8580    0.7530    0.2410 C   0  0  0  0  0  0  0  0  0  0  0  0
   -8.2160    1.8250   -0.3390 C   0  0  0  0  0  0  0  0  0  0  0  0
   -6.8470    1.9190   -0.2470 C   0  0  0  0  0  0  0  0  0  0  0  0
   -6.1140    3.0360   -0.7490 C   0  0  0  0  0  0  0  0  0  0  0  0
   -6.4100    3.8880   -1.6470 C   0  0  0  0  0  0  0  0  0  0  0  0
   -7.6280    3.9480   -2.4520 C   0  0  0  0  0  0  0  0  0  0  0  0
   -8.4360    5.1280   -2.2120 N   0  0  0  0  0  0  0  0  0  0  0  0
   -2.4390    0.6880   -0.1550 C   0  0  0  0  0  0  0  0  0  0  0  0
    2.7490   -0.3910   -1.0970 C   0  0  0  0  0  0  0  0  0  0  0  0
    3.8130   -0.4660   -0.1930 C   0  0  0  0  0  0  0  0  0  0  0  0
    6.0400   -2.7470    1.2210 N   0  0  0  0  0  0  0  0  0  0  0  0
    7.3970   -3.0820    1.4870 C   0  0  0  0  0  0  0  0  0  0  0  0
    7.8430   -3.8390    2.3810 O   0  0  0  0  0  0  0  0  0  0  0  0
    8.1760   -2.3670    0.5100 N   0  0  0  0  0  0  0  0  0  0  0  0
    7.2950   -1.6240   -0.3190 C   0  0  0  0  0  0  0  0  0  0  0  0
    7.4960   -1.2260   -1.4560 O   0  0  0  0  0  0  0  0  0  0  0  0
  2  1  1  6
  2  3  1  0
  2  4  1  0
  4  5  1  0
  5  6  1  1
  5  7  1  0
  8  7  1  1
  8  9  1  0
  8 41  1  0
  8 45  1  0
  9 10  2  0
  9 40  1  0
 10 11  1  0
 11 12  2  0
 12 13  1  0
 12 39  1  0
 13 14  1  0
 14 15  1  0
 15 16  1  0
 16 17  2  0
 16 18  1  0
 18 19  1  0
 18 38  1  0
 19 20  1  0
 20 21  1  0
 21 22  1  0
 22 23  1  6
 22 24  1  0
 22 38  1  0
 24 25  1  0
 25 26  2  0
 25 33  1  0
 26 27  1  0
 27 28  1  0
 27 31  2  0
 28 29  1  6
 28 30  1  0
 31 32  1  0
 32 33  2  0
 33 34  1  0
 34 35  2  3
 35 36  1  0
 36 37  1  0
 39 40  2  0
 41 42  1  0
 42 43  2  0
 42 44  1  0
 44 45  1  0
 45 46  2  0
M  END
