
     RDKit          3D

 45 47  0  0  0  0  0  0  0  0999 V2000
   -0.3270    0.6950    2.5600 C   0  0  0  0  0  0  0  0  0  0  0  0
   -0.1610    1.4500    1.3570 O   0  0  0  0  0  0  0  0  0  0  0  0
   -0.1020    0.3020    0.1580 C   0  0  0  0  0  0  0  0  0  0  0  0
   -1.2810    0.4160   -0.1910 O   0  0  0  0  0  0  0  0  0  0  0  0
   -2.5520    0.4250   -0.4860 C   0  0  0  0  0  0  0  0  0  0  0  0
   -3.3780   -0.6060    0.0440 C   0  0  0  0  0  0  0  0  0  0  0  0
   -4.7560   -0.5980   -0.2020 C   0  0  0  0  0  0  0  0  0  0  0  0
   -5.7010   -1.4870    0.4990 C   0  0  0  0  0  0  0  0  0  0  0  0
   -5.4310   -2.8570    0.0920 N   0  0  0  0  0  0  0  0  0  0  0  0
   -6.4860   -3.7850    0.3240 C   0  0  0  0  0  0  0  0  0  0  0  0
   -7.8220   -3.2980    0.6970 C   0  0  1  0  0  0  0  0  0  0  0  0
   -7.9200   -2.5410    1.8520 O   0  0  0  0  0  0  0  0  0  0  0  0
   -8.6480   -2.7960   -0.3960 C   0  0  0  0  0  0  0  0  0  0  0  0
   -9.6440   -1.7890   -0.3080 N   0  0  0  0  0  0  0  0  0  0  0  0
   -8.4510   -3.3280   -1.5620 O   0  0  0  0  0  0  0  0  0  0  0  0
   -5.2650    0.4090   -0.9520 C   0  0  0  0  0  0  0  0  0  0  0  0
   -6.9890    0.4110   -1.3210 Cl  0  0  0  0  0  0  0  0  0  0  0  0
   -4.5120    1.4100   -1.4830 C   0  0  0  0  0  0  0  0  0  0  0  0
   -3.1110    1.4480   -1.2670 C   0  0  0  0  0  0  0  0  0  0  0  0
   -2.3810    2.4450   -1.8210 O   0  0  0  0  0  0  0  0  0  0  0  0
   -2.8740    3.4700   -2.6000 C   0  0  0  0  0  0  0  0  0  0  0  0
    1.0910   -0.0320    0.2830 C   0  0  0  0  0  0  0  0  0  0  0  0
    1.8540   -1.0640   -0.4250 C   0  0  0  0  0  0  0  0  0  0  0  0
    1.3550   -1.6020   -1.4230 O   0  0  0  0  0  0  0  0  0  0  0  0
    3.1540   -1.4920    0.0250 N   0  0  0  0  0  0  0  0  0  0  0  0
    3.8620   -2.5450   -0.7450 C   0  0  0  0  0  0  0  0  0  0  0  0
    4.4500   -2.0730   -2.0170 C   0  0  0  0  0  0  0  0  0  0  0  0
    5.4990   -1.1480   -1.7080 O   0  0  0  0  0  0  0  0  0  0  0  0
    6.6910   -1.6250   -1.1310 C   0  0  0  0  0  0  0  0  0  0  0  0
    6.9460   -2.9480   -0.8900 C   0  0  0  0  0  0  0  0  0  0  0  0
    8.1540   -3.3660   -0.3090 C   0  0  0  0  0  0  0  0  0  0  0  0
    9.1150   -2.4080    0.0280 C   0  0  0  0  0  0  0  0  0  0  0  0
   10.3030   -2.8970    0.6220 N   0  0  0  0  0  0  0  0  0  0  0  0
    8.8660   -1.0950   -0.2150 C   0  0  0  0  0  0  0  0  0  0  0  0
    7.6490   -0.6940   -0.7950 C   0  0  0  0  0  0  0  0  0  0  0  0
    2.0400    1.1770    0.6720 C   0  0  0  0  0  0  0  0  0  0  0  0
    3.1370    1.0570    1.0950 O   0  0  0  0  0  0  0  0  0  0  0  0
    1.4590    2.4470    0.4570 N   0  0  0  0  0  0  0  0  0  0  0  0
    1.9360    3.7310    0.6910 C   0  0  0  0  0  0  0  0  0  0  0  0
    3.1690    4.1000    1.1480 C   0  0  0  0  0  0  0  0  0  0  0  0
    3.5210    5.4420    1.3060 C   0  0  0  0  0  0  0  0  0  0  0  0
    2.6180    6.4410    1.0000 C   0  0  0  0  0  0  0  0  0  0  0  0
    2.9180    7.7760    1.1370 O   0  0  0  0  0  0  0  0  0  0  0  0
    1.3700    6.1070    0.5420 C   0  0  0  0  0  0  0  0  0  0  0  0
    1.0560    4.7960    0.3990 C   0  0  0  0  0  0  0  0  0  0  0  0
  1  2  1  0
  2  3  1  0
  3  4  1  0
  3 22  2  3
  4  5  1  0
  5  6  2  0
  5 19  1  0
  6  7  1  0
  7  8  1  0
  7 16  2  0
  8  9  1  0
  9 10  1  0
 10 11  1  0
 11 12  1  1
 11 13  1  0
 13 14  1  0
 13 15  2  0
 16 17  1  0
 16 18  1  0
 18 19  2  0
 19 20  1  0
 20 21  1  0
 22 23  1  0
 22 36  1  0
 23 24  2  0
 23 25  1  0
 25 26  1  0
 26 27  1  0
 27 28  1  0
 28 29  1  0
 29 30  2  0
 29 35  1  0
 30 31  1  0
 31 32  2  0
 32 33  1  0
 32 34  1  0
 34 35  2  0
 36 37  2  0
 36 38  1  0
 38 39  1  0
 39 40  2  0
 39 45  1  0
 40 41  1  0
 41 42  2  0
 42 43  1  0
 42 44  1  0
 44 45  2  0
M  CHG  1   9   1
M  END
