
     RDKit          3D

 46 49  0  0  0  0  0  0  0  0999 V2000
    8.2810    5.1610   -1.0010 C   0  0  0  0  0  0  0  0  0  0  0  0
    7.3070    4.4570   -1.9240 C   0  0  0  0  0  0  0  0  0  0  0  0
    7.0890    3.0360   -1.4700 C   0  0  0  0  0  0  0  0  0  0  0  0
    7.8880    2.0220   -1.9450 C   0  0  0  0  0  0  0  0  0  0  0  0
    7.7160    0.7260   -1.5510 C   0  0  0  0  0  0  0  0  0  0  0  0
    6.7110    0.3550   -0.6360 C   0  0  0  0  0  0  0  0  0  0  0  0
    6.5790   -1.0700   -0.2610 C   0  0  1  0  0  0  0  0  0  0  0  0
    7.9310   -1.5070   -0.1430 O   0  0  0  0  0  0  0  0  0  0  0  0
    5.8640   -1.3380    1.0380 C   0  0  2  0  0  0  0  0  0  0  0  0
    6.4970   -0.5440    2.1510 C   0  0  0  0  0  0  0  0  0  0  0  0
    5.6980   -2.7750    1.3640 C   0  0  0  0  0  0  0  0  0  0  0  0
    6.8410   -3.6880    1.4980 C   0  0  2  0  0  0  0  0  0  0  0  0
    7.8730   -3.3590    2.5410 C   0  0  0  0  0  0  0  0  0  0  0  0
    7.4140   -4.2440    0.2180 C   0  0  0  0  0  0  0  0  0  0  0  0
    4.5770   -0.8500    0.8300 O   0  0  0  0  0  0  0  0  0  0  0  0
    3.6770   -0.9430    1.8330 C   0  0  0  0  0  0  0  0  0  0  0  0
    2.3590   -0.3000    1.4420 C   0  0  0  0  0  0  0  0  0  0  0  0
    2.1720    1.0560    1.4840 C   0  0  0  0  0  0  0  0  0  0  0  0
    0.9430    1.6200    1.1200 C   0  0  0  0  0  0  0  0  0  0  0  0
   -0.0920    0.7980    0.7130 C   0  0  0  0  0  0  0  0  0  0  0  0
   -1.4220    1.3880    0.3170 C   0  0  0  0  0  0  0  0  0  0  0  0
   -2.2990    0.2680   -0.0220 N   0  0  0  0  0  0  0  0  0  0  0  0
   -2.4360   -0.2980   -1.3250 C   0  0  0  0  0  0  0  0  0  0  0  0
   -3.1690   -1.5790   -1.0720 C   0  0  0  0  0  0  0  0  0  0  0  0
   -3.2590   -2.4760   -1.9500 O   0  0  0  0  0  0  0  0  0  0  0  0
   -3.7060   -1.5860    0.2580 N   0  0  0  0  0  0  0  0  0  0  0  0
   -4.5960   -2.5740    0.8240 C   0  0  0  0  0  0  0  0  0  0  0  0
   -5.9940   -2.1770    0.5270 C   0  0  0  0  0  0  0  0  0  0  0  0
   -6.9740   -2.8860    0.9280 O   0  0  0  0  0  0  0  0  0  0  0  0
   -6.3710   -1.0150   -0.2060 N   0  0  0  0  0  0  0  0  0  0  0  0
   -7.7370   -0.6360   -0.5030 C   0  0  2  0  0  0  0  0  0  0  0  0
   -8.0270   -0.7960   -1.9490 C   0  0  0  0  0  0  0  0  0  0  0  0
   -8.7130    0.2780   -2.6810 C   0  0  0  0  0  0  0  0  0  0  0  0
  -10.1900    0.3400   -2.3660 C   0  0  0  0  0  0  0  0  0  0  0  0
  -10.3610   -0.0100   -0.9110 C   0  0  0  0  0  0  0  0  0  0  0  0
   -9.5970    0.9810   -0.1090 C   0  0  0  0  0  0  0  0  0  0  0  0
   -8.1710    0.5740    0.1950 C   0  0  2  0  0  0  0  0  0  0  0  0
   -7.3240    1.7870    0.2100 C   0  0  2  0  0  0  0  0  0  0  0  0
   -5.9780    1.6880    0.8200 C   0  0  0  0  0  0  0  0  0  0  0  0
   -8.0220    2.9210    0.8450 N   0  0  0  0  0  0  0  0  0  0  0  0
   -3.1470   -0.4280    0.8820 C   0  0  0  0  0  0  0  0  0  0  0  0
   -3.3690   -0.0710    2.0660 O   0  0  0  0  0  0  0  0  0  0  0  0
    0.1330   -0.5560    0.6830 C   0  0  0  0  0  0  0  0  0  0  0  0
    1.3360   -1.1150    1.0400 C   0  0  0  0  0  0  0  0  0  0  0  0
    5.9390    1.3870   -0.1880 C   0  0  0  0  0  0  0  0  0  0  0  0
    6.1050    2.7170   -0.5840 C   0  0  0  0  0  0  0  0  0  0  0  0
  1  2  1  0
  2  3  1  0
  3  4  2  0
  3 46  1  0
  4  5  1  0
  5  6  2  0
  6  7  1  0
  6 45  1  0
  7  8  1  1
  7  9  1  0
  9 10  1  1
  9 11  1  0
  9 15  1  0
 11 12  1  0
 12 13  1  6
 12 14  1  0
 15 16  1  0
 16 17  1  0
 17 18  2  0
 17 44  1  0
 18 19  1  0
 19 20  2  0
 20 21  1  0
 20 43  1  0
 21 22  1  0
 22 23  1  0
 22 41  1  0
 23 24  1  0
 24 25  2  0
 24 26  1  0
 26 27  1  0
 26 41  1  0
 27 28  1  0
 28 29  2  0
 28 30  1  0
 31 30  1  6
 31 32  1  0
 31 37  1  0
 32 33  1  0
 33 34  1  0
 34 35  1  0
 35 36  1  0
 37 36  1  6
 37 38  1  0
 38 39  1  1
 38 40  1  0
 41 42  2  0
 43 44  2  0
 45 46  2  0
M  END
