
     RDKit          3D

 46 49  0  0  0  0  0  0  0  0999 V2000
    3.5930   10.3240   -1.7650 C   0  0  0  0  0  0  0  0  0  0  0  0
    2.2620    9.6930   -1.6390 C   0  0  0  0  0  0  0  0  0  0  0  0
    2.2140    8.4320   -1.1180 C   0  0  0  0  0  0  0  0  0  0  0  0
    3.4000    7.7740   -0.7200 C   0  0  0  0  0  0  0  0  0  0  0  0
    3.6740    6.6480   -0.2260 C   0  0  0  0  0  0  0  0  0  0  0  0
    2.8390    5.5200    0.1450 C   0  0  0  0  0  0  0  0  0  0  0  0
    3.4170    4.4900    0.9120 C   0  0  0  0  0  0  0  0  0  0  0  0
    2.7030    3.3510    1.2480 C   0  0  0  0  0  0  0  0  0  0  0  0
    1.4070    3.1670    0.8540 C   0  0  0  0  0  0  0  0  0  0  0  0
    0.6580    1.8920    1.2210 C   0  0  2  0  0  0  0  0  0  0  0  0
    0.1860    2.2300    2.7000 C   0  0  0  0  0  0  0  0  0  0  0  0
    1.6260    0.7890    1.4470 C   0  0  0  0  0  0  0  0  0  0  0  0
    2.5250    0.4310    0.3040 C   0  0  0  0  0  0  0  0  0  0  0  0
    3.5070   -0.5980    0.8040 C   0  0  0  0  0  0  0  0  0  0  0  0
    3.3500   -1.0020    1.9700 O   0  0  0  0  0  0  0  0  0  0  0  0
    4.5720   -1.0660   -0.0440 N   0  0  0  0  0  0  0  0  0  0  0  0
    5.4920   -2.0050    0.5080 C   0  0  0  0  0  0  0  0  0  0  0  0
    5.5710   -2.5830    1.7390 C   0  0  0  0  0  0  0  0  0  0  0  0
    6.6880   -3.3740    1.7820 N   0  0  0  0  0  0  0  0  0  0  0  0
    7.3210   -3.3190    0.6240 N   0  0  0  0  0  0  0  0  0  0  0  0
    8.5850   -4.0140    0.3080 C   0  0  0  0  0  0  0  0  0  0  0  0
    8.2260   -5.3590   -0.1840 C   0  0  0  0  0  0  0  0  0  0  0  0
    8.0480   -6.2650    0.6380 O   0  0  0  0  0  0  0  0  0  0  0  0
    8.0880   -5.6110   -1.5690 N   0  0  0  0  0  0  0  0  0  0  0  0
    7.7300   -6.9640   -1.9610 C   0  0  0  0  0  0  0  0  0  0  0  0
    6.6200   -2.4980   -0.1700 C   0  0  0  0  0  0  0  0  0  0  0  0
   -0.3900    1.6970    0.4240 O   0  0  0  0  0  0  0  0  0  0  0  0
   -1.3670    0.8380    0.1660 C   0  0  0  0  0  0  0  0  0  0  0  0
   -1.2930   -0.1390   -0.8190 C   0  0  0  0  0  0  0  0  0  0  0  0
   -2.3010   -1.0250   -1.1000 C   0  0  0  0  0  0  0  0  0  0  0  0
   -3.5020   -0.9850   -0.3750 C   0  0  0  0  0  0  0  0  0  0  0  0
   -4.5020   -1.8850   -0.6920 O   0  0  0  0  0  0  0  0  0  0  0  0
   -5.7420   -2.0460   -0.0780 C   0  0  1  0  0  0  0  0  0  0  0  0
   -6.6450   -0.9550   -0.7090 C   0  0  0  0  0  0  0  0  0  0  0  0
   -8.0520   -1.2780   -0.2520 C   0  0  0  0  0  0  0  0  0  0  0  0
   -8.5030   -2.4330   -1.1310 C   0  0  2  0  0  0  0  0  0  0  0  0
   -9.8690   -2.9480   -0.7370 C   0  0  0  0  0  0  0  0  0  0  0  0
   -7.4610   -3.4960   -1.2410 C   0  0  0  0  0  0  0  0  0  0  0  0
   -6.3340   -3.3910   -0.2440 C   0  0  2  0  0  0  0  0  0  0  0  0
   -6.6620   -4.1100    1.0390 C   0  0  0  0  0  0  0  0  0  0  0  0
   -5.4830   -4.3640    1.9280 C   0  0  0  0  0  0  0  0  0  0  0  0
   -4.4970   -5.1470    1.3320 O   0  0  0  0  0  0  0  0  0  0  0  0
   -3.5930   -0.0330    0.6040 C   0  0  0  0  0  0  0  0  0  0  0  0
   -2.5840    0.8620    0.8900 C   0  0  0  0  0  0  0  0  0  0  0  0
    0.8360    4.1580    0.1090 C   0  0  0  0  0  0  0  0  0  0  0  0
    1.5420    5.3130   -0.2370 C   0  0  0  0  0  0  0  0  0  0  0  0
  1  2  1  0
  2  3  2  3
  3  4  1  0
  4  5  2  3
  5  6  1  0
  6  7  2  0
  6 46  1  0
  7  8  1  0
  8  9  2  0
  9 10  1  0
  9 45  1  0
 10 11  1  1
 10 12  1  0
 10 27  1  0
 12 13  1  0
 13 14  1  0
 14 15  2  0
 14 16  1  0
 16 17  1  0
 17 18  1  0
 17 26  2  0
 18 19  2  0
 19 20  1  0
 20 21  1  0
 20 26  1  0
 21 22  1  0
 22 23  2  0
 22 24  1  0
 24 25  1  0
 27 28  1  0
 28 29  2  0
 28 44  1  0
 29 30  1  0
 30 31  2  0
 31 32  1  0
 31 43  1  0
 33 32  1  6
 33 34  1  0
 33 39  1  0
 34 35  1  0
 35 36  1  0
 36 37  1  1
 36 38  1  0
 38 39  1  0
 39 40  1  1
 40 41  1  0
 41 42  1  0
 43 44  2  0
 45 46  2  0
M  END
