
     RDKit          3D

 27 28  0  0  0  0  0  0  0  0999 V2000
    8.0660    0.4860    0.4830 C   0  0  0  0  0  0  0  0  0  0  0  0
    6.9200    1.0860   -0.3320 C   0  0  0  0  0  0  0  0  0  0  0  0
    5.6510    0.6680    0.4300 C   0  0  1  0  0  0  0  0  0  0  0  0
    4.4820    1.2180   -0.3120 C   0  0  0  0  0  0  0  0  0  0  0  0
    3.3230    0.2760   -0.2690 N   0  0  0  0  0  0  0  0  0  0  0  0
    2.1140    1.0160   -0.4090 C   0  0  0  0  0  0  0  0  0  0  0  0
    0.8970    0.2610   -0.8590 C   0  0  2  0  0  0  0  0  0  0  0  0
   -0.2300    1.2380   -0.9050 C   0  0  0  0  0  0  0  0  0  0  0  0
   -1.5260    0.7720   -1.2840 N   0  0  0  0  0  0  0  0  0  0  0  0
   -2.3870   -0.0810   -0.5480 C   0  0  0  0  0  0  0  0  0  0  0  0
   -2.0860   -0.4600    0.6030 O   0  0  0  0  0  0  0  0  0  0  0  0
   -3.6400   -0.5790   -1.0340 N   0  0  0  0  0  0  0  0  0  0  0  0
   -4.5070   -1.4290   -0.3050 C   0  0  0  0  0  0  0  0  0  0  0  0
   -5.1110   -0.9470    0.9510 C   0  0  1  0  0  0  0  0  0  0  0  0
   -4.2570   -0.5540    1.9570 O   0  0  0  0  0  0  0  0  0  0  0  0
   -6.2060    0.0060    0.8260 C   0  0  0  0  0  0  0  0  0  0  0  0
   -6.6720    0.4350   -0.3250 C   0  0  0  0  0  0  0  0  0  0  0  0
   -7.7920    1.4120   -0.4550 C   0  0  0  0  0  0  0  0  0  0  0  0
   -8.3440    1.7650    0.7640 O   0  0  0  0  0  0  0  0  0  0  0  0
   -7.8870    1.3490    1.9680 C   0  0  0  0  0  0  0  0  0  0  0  0
   -6.8530    0.4960    2.0320 C   0  0  0  0  0  0  0  0  0  0  0  0
    0.6150   -1.0310   -0.2480 C   0  0  0  0  0  0  0  0  0  0  0  0
    1.6200   -2.0060   -0.4130 O   0  0  0  0  0  0  0  0  0  0  0  0
    1.8880   -2.3380   -1.7100 C   0  0  0  0  0  0  0  0  0  0  0  0
    3.4960   -0.2820    1.1010 C   0  0  0  0  0  0  0  0  0  0  0  0
    4.5700   -1.3320    0.9490 C   0  0  0  0  0  0  0  0  0  0  0  0
    5.7140   -0.6970    0.5330 O   0  0  0  0  0  0  0  0  0  0  0  0
  1  2  1  0
  3  2  1  6
  3  4  1  0
  3 27  1  0
  4  5  1  0
  5  6  1  0
  5 25  1  0
  7  6  1  1
  7  8  1  0
  7 22  1  0
  8  9  1  0
  9 10  1  0
 10 11  2  0
 10 12  1  0
 12 13  1  0
 13 14  1  0
 14 15  1  1
 14 16  1  0
 16 17  2  0
 16 21  1  0
 17 18  1  0
 18 19  1  0
 19 20  1  0
 20 21  2  0
 22 23  1  0
 23 24  1  0
 25 26  1  0
 26 27  1  0
M  END
