
     RDKit          3D

 27 27  0  0  0  0  0  0  0  0999 V2000
   -6.5350   -0.6580   -0.7700 C   0  0  0  0  0  0  0  0  0  0  0  0
   -6.1620   -0.8360    0.4640 C   0  0  0  0  0  0  0  0  0  0  0  0
   -6.9050   -1.8930    1.2740 C   0  0  0  0  0  0  0  0  0  0  0  0
   -5.1040   -0.1310    1.1520 C   0  0  0  0  0  0  0  0  0  0  0  0
   -4.8840   -0.4690    2.4340 C   0  0  0  0  0  0  0  0  0  0  0  0
   -3.8290    0.2010    3.2040 C   0  0  0  0  0  0  0  0  0  0  0  0
   -4.3350    0.8220    0.6190 O   0  0  0  0  0  0  0  0  0  0  0  0
   -3.9530    1.3080   -0.5840 C   0  0  0  0  0  0  0  0  0  0  0  0
   -3.2210    0.4150   -1.5310 C   0  0  0  0  0  0  0  0  0  0  0  0
   -1.8910   -0.0890   -1.0440 C   0  0  2  0  0  0  0  0  0  0  0  0
   -1.3440   -0.9730   -2.1780 C   0  0  0  0  0  0  0  0  0  0  0  0
   -1.9760   -0.9560    0.1840 C   0  0  0  0  0  0  0  0  0  0  0  0
   -1.0130    1.0460   -0.8450 N   0  0  0  0  0  0  0  0  0  0  0  0
    0.3370    0.8450   -0.3670 C   0  0  0  0  0  0  0  0  0  0  0  0
    0.7860   -0.3070   -0.1140 O   0  0  0  0  0  0  0  0  0  0  0  0
    1.2030    1.9430   -0.1670 N   0  0  0  0  0  0  0  0  0  0  0  0
    2.5280    1.7150    0.3060 N   0  0  0  0  0  0  0  0  0  0  0  0
    3.4640    2.7620    0.3730 C   0  0  0  0  0  0  0  0  0  0  0  0
    3.0670    3.9040   -0.0050 O   0  0  0  0  0  0  0  0  0  0  0  0
    4.8290    2.6410    0.8350 C   0  0  0  0  0  0  0  0  0  0  0  0
    5.3270    1.4450    1.2090 O   0  0  0  0  0  0  0  0  0  0  0  0
    5.3970    0.4250    0.3110 C   0  0  2  0  0  0  0  0  0  0  0  0
    5.0020   -0.9330    0.8220 C   0  0  0  0  0  0  0  0  0  0  0  0
    6.1670   -1.8980    0.8930 C   0  0  0  0  0  0  0  0  0  0  0  0
    6.7660   -1.9590   -0.4960 C   0  0  0  0  0  0  0  0  0  0  0  0
    7.1750   -0.7080   -0.8880 O   0  0  0  0  0  0  0  0  0  0  0  0
    6.9220    0.2860    0.0170 C   0  0  0  0  0  0  0  0  0  0  0  0
  1  2  2  0
  2  3  1  0
  2  4  1  0
  4  5  2  3
  4  7  1  0
  5  6  1  0
  7  8  1  0
  8  9  1  0
  9 10  1  0
 10 11  1  6
 10 12  1  0
 10 13  1  0
 13 14  1  0
 14 15  2  0
 14 16  1  0
 16 17  1  0
 17 18  1  0
 18 19  2  0
 18 20  1  0
 20 21  1  0
 22 21  1  1
 22 23  1  0
 22 27  1  0
 23 24  1  0
 24 25  1  0
 25 26  1  0
 26 27  1  0
M  END
