
     RDKit          3D

 27 27  0  0  0  0  0  0  0  0999 V2000
   -5.8880   -0.3880   -0.0020 C   0  0  0  0  0  0  0  0  0  0  0  0
   -4.7610   -0.8440   -0.9160 C   0  0  2  0  0  0  0  0  0  0  0  0
   -4.1620   -2.1010   -0.3530 C   0  0  0  0  0  0  0  0  0  0  0  0
   -3.8290    0.2180   -1.3510 C   0  0  0  0  0  0  0  0  0  0  0  0
   -3.0870    0.9590   -0.4190 N   0  0  0  0  0  0  0  0  0  0  0  0
   -1.7490    0.5400   -0.0660 C   0  0  0  0  0  0  0  0  0  0  0  0
   -1.0800    1.1270    0.8320 O   0  0  0  0  0  0  0  0  0  0  0  0
   -1.0970   -0.5810   -0.7390 C   0  0  0  0  0  0  0  0  0  0  0  0
    0.2730   -0.6760   -0.2600 O   0  0  0  0  0  0  0  0  0  0  0  0
    1.0640   -1.7000   -0.7960 C   0  0  0  0  0  0  0  0  0  0  0  0
    0.5800   -2.4700   -1.6380 O   0  0  0  0  0  0  0  0  0  0  0  0
    2.4860   -1.7900   -0.2910 C   0  0  1  0  0  0  0  0  0  0  0  0
    2.5350   -2.0810    1.1760 C   0  0  0  0  0  0  0  0  0  0  0  0
    3.0430   -2.9370   -1.0260 N   0  0  0  0  0  0  0  0  0  0  0  0
    3.1270   -0.4920   -0.6700 C   0  0  0  0  0  0  0  0  0  0  0  0
    4.5580   -0.3600   -0.2440 C   0  0  1  0  0  0  0  0  0  0  0  0
    5.3840   -1.4320   -0.8610 C   0  0  0  0  0  0  0  0  0  0  0  0
    6.8570   -1.1530   -0.5460 C   0  0  0  0  0  0  0  0  0  0  0  0
    7.2350    0.2450   -0.9440 C   0  0  0  0  0  0  0  0  0  0  0  0
    6.2460    1.1980   -0.2970 C   0  0  0  0  0  0  0  0  0  0  0  0
    4.9870    0.8870   -0.7440 O   0  0  0  0  0  0  0  0  0  0  0  0
   -3.4880    2.1820    0.2660 C   0  0  2  0  0  0  0  0  0  0  0  0
   -2.3680    3.2430   -0.0180 C   0  0  0  0  0  0  0  0  0  0  0  0
   -3.5280    2.0340    1.7650 C   0  0  0  0  0  0  0  0  0  0  0  0
   -4.7600    2.7810   -0.1510 C   0  0  0  0  0  0  0  0  0  0  0  0
   -5.3230    3.7780    0.7220 N   0  0  0  0  0  0  0  0  0  0  0  0
   -5.4010    2.5260   -1.1640 O   0  0  0  0  0  0  0  0  0  0  0  0
  2  1  1  1
  2  3  1  0
  2  4  1  0
  4  5  1  0
  5  6  1  0
  5 22  1  0
  6  7  2  0
  6  8  1  0
  8  9  1  0
  9 10  1  0
 10 11  2  0
 10 12  1  0
 12 13  1  1
 12 14  1  0
 12 15  1  0
 16 15  1  6
 16 17  1  0
 16 21  1  0
 17 18  1  0
 18 19  1  0
 19 20  1  0
 20 21  1  0
 22 23  1  1
 22 24  1  0
 22 25  1  0
 25 26  1  0
 25 27  2  0
M  END
