
     RDKit          3D

 27 27  0  0  0  0  0  0  0  0999 V2000
   -5.1110   -0.0970    1.5730 C   0  0  0  0  0  0  0  0  0  0  0  0
   -4.7070    0.7420    0.4230 C   0  0  1  0  0  0  0  0  0  0  0  0
   -3.1900    0.8220    0.3730 C   0  0  0  0  0  0  0  0  0  0  0  0
   -2.5920   -0.5410    0.2190 C   0  0  0  0  0  0  0  0  0  0  0  0
   -1.1510   -0.4900    0.1720 N   0  0  0  0  0  0  0  0  0  0  0  0
   -0.3760    0.0240    1.2430 C   0  0  0  0  0  0  0  0  0  0  0  0
   -0.8990    0.4640    2.2930 O   0  0  0  0  0  0  0  0  0  0  0  0
    1.0050    0.0360    1.1090 O   0  0  0  0  0  0  0  0  0  0  0  0
    1.8290    0.5430    2.1570 C   0  0  0  0  0  0  0  0  0  0  0  0
    3.2570    0.4040    1.6780 C   0  0  0  0  0  0  0  0  0  0  0  0
    3.5540   -1.0760    1.4050 C   0  0  0  0  0  0  0  0  0  0  0  0
    4.9270   -1.2000    0.9450 N   0  0  0  0  0  0  0  0  0  0  0  0
    6.0730   -1.4030    1.7830 C   0  0  0  0  0  0  0  0  0  0  0  0
    6.0640   -1.5040    3.0290 O   0  0  0  0  0  0  0  0  0  0  0  0
    7.2260   -1.4710    0.9530 N   0  0  0  0  0  0  0  0  0  0  0  0
    6.8530   -0.8840   -0.3280 C   0  0  2  0  0  0  0  0  0  0  0  0
    7.6040   -1.5510   -1.4620 C   0  0  0  0  0  0  0  0  0  0  0  0
    7.1330    0.5860   -0.2460 C   0  0  0  0  0  0  0  0  0  0  0  0
    6.7810    1.3060   -1.5340 C   0  0  0  0  0  0  0  0  0  0  0  0
    5.4440    1.1630   -1.8370 O   0  0  0  0  0  0  0  0  0  0  0  0
    5.3980   -1.1480   -0.3800 C   0  0  0  0  0  0  0  0  0  0  0  0
    4.6470   -1.3080   -1.3990 O   0  0  0  0  0  0  0  0  0  0  0  0
   -5.2180    0.4050   -0.9110 C   0  0  0  0  0  0  0  0  0  0  0  0
   -6.7050    0.4200   -1.0920 C   0  0  1  0  0  0  0  0  0  0  0  0
   -7.3270    1.7580   -0.8120 C   0  0  0  0  0  0  0  0  0  0  0  0
   -6.9400    0.1700   -2.5960 C   0  0  0  0  0  0  0  0  0  0  0  0
   -7.3820   -0.7250   -0.3900 C   0  0  0  0  0  0  0  0  0  0  0  0
  2  1  1  1
  2  3  1  0
  2 23  1  0
  3  4  1  0
  4  5  1  0
  5  6  1  0
  6  7  2  0
  6  8  1  0
  8  9  1  0
  9 10  1  0
 10 11  1  0
 11 12  1  0
 12 13  1  0
 12 21  1  0
 13 14  2  0
 13 15  1  0
 15 16  1  0
 16 17  1  6
 16 18  1  0
 16 21  1  0
 18 19  1  0
 19 20  1  0
 21 22  2  0
 23 24  1  0
 24 25  1  1
 24 26  1  0
 24 27  1  0
M  END
