
     RDKit          3D

 16 17  0  0  0  0  0  0  0  0999 V2000
    3.7540    0.3510   -0.6740 O   0  0  0  0  0  0  0  0  0  0  0  0
    3.0270   -0.3710    0.0680 C   0  0  0  0  0  0  0  0  0  0  0  0
    3.5890   -1.4700    0.6540 O   0  0  0  0  0  0  0  0  0  0  0  0
    1.6030   -0.0280    0.2910 C   0  0  2  0  0  0  0  0  0  0  0  0
    0.6680   -1.1150   -0.1400 C   0  0  0  0  0  0  0  0  0  0  0  0
   -0.7410   -0.6830    0.2210 C   0  0  2  0  0  0  0  0  0  0  0  0
   -1.3670   -1.6700    1.1430 C   0  0  0  0  0  0  0  0  0  0  0  0
   -1.7520   -1.3310    2.2800 O   0  0  0  0  0  0  0  0  0  0  0  0
   -1.5230   -2.9710    0.7400 O   0  0  0  0  0  0  0  0  0  0  0  0
   -1.5030   -0.5360   -1.0440 C   0  0  0  0  0  0  0  0  0  0  0  0
   -1.7160    0.6670   -1.5250 C   0  0  0  0  0  0  0  0  0  0  0  0
   -0.8820    1.8590   -1.2350 C   0  0  1  0  0  0  0  0  0  0  0  0
   -1.7670    2.8930   -0.8830 O   0  0  0  0  0  0  0  0  0  0  0  0
    0.0300    1.6100   -0.0330 C   0  0  1  0  0  0  0  0  0  0  0  0
   -0.7420    0.6900    0.8740 C   0  0  0  0  0  0  0  0  0  0  0  0
    1.2560    1.1290   -0.4060 O   0  0  0  0  0  0  0  0  0  0  0  0
  1  2  2  0
  2  3  1  0
  4  2  1  6
  4  5  1  0
  4 16  1  0
  5  6  1  0
  6  7  1  1
  6 10  1  0
  6 15  1  0
  7  8  2  0
  7  9  1  0
 10 11  2  0
 11 12  1  0
 12 13  1  1
 12 14  1  0
 14 15  1  0
 14 16  1  6
M  END
