
     RDKit          3D

 27 27  0  0  0  0  0  0  0  0999 V2000
    3.9710   -0.9200    0.1310 C   0  0  0  0  0  0  0  0  0  0  0  0
    2.8780    0.0030   -0.1860 C   0  0  0  0  0  0  0  0  0  0  0  0
    3.1860    1.3210   -0.2930 C   0  0  0  0  0  0  0  0  0  0  0  0
    4.5090    1.7850   -0.1060 C   0  0  0  0  0  0  0  0  0  0  0  0
    4.9380    3.0000   -0.1770 C   0  0  0  0  0  0  0  0  0  0  0  0
    4.1150    4.1380   -0.4690 C   0  0  0  0  0  0  0  0  0  0  0  0
    4.7410    5.4440   -0.5160 N   0  0  0  0  0  0  0  0  0  0  0  0
    2.8980    4.0610   -0.6820 O   0  0  0  0  0  0  0  0  0  0  0  0
    1.4850   -0.4470   -0.3900 C   0  0  1  0  0  0  0  0  0  0  0  0
    1.3640   -1.2070   -1.5400 O   0  0  0  0  0  0  0  0  0  0  0  0
    0.9800   -1.1230    0.8630 C   0  0  0  0  0  0  0  0  0  0  0  0
   -0.4250   -1.4640    0.8130 N   0  0  0  0  0  0  0  0  0  0  0  0
   -1.3650   -0.4400    1.2100 C   0  0  0  0  0  0  0  0  0  0  0  0
   -2.5770   -0.7380    1.1830 O   0  0  0  0  0  0  0  0  0  0  0  0
   -1.0330    0.8550    1.6190 N   0  0  0  0  0  0  0  0  0  0  0  0
   -1.8230    1.9550    2.0010 C   0  0  0  0  0  0  0  0  0  0  0  0
   -2.6510    2.7760    1.1630 C   0  0  0  0  0  0  0  0  0  0  0  0
   -3.6540    2.3750    0.4310 O   0  0  0  0  0  0  0  0  0  0  0  0
   -3.4650    1.6160   -0.6550 C   0  0  1  0  0  0  0  0  0  0  0  0
   -4.5120    0.5540   -0.7840 C   0  0  0  0  0  0  0  0  0  0  0  0
   -3.6550    2.6040   -1.8690 C   0  0  0  0  0  0  0  0  0  0  0  0
   -0.9610   -2.7270    0.4650 C   0  0  1  0  0  0  0  0  0  0  0  0
   -0.8010   -3.1280   -1.0000 C   0  0  0  0  0  0  0  0  0  0  0  0
   -1.8490   -4.2300   -1.2770 C   0  0  0  0  0  0  0  0  0  0  0  0
   -2.0780   -4.9620   -0.1140 O   0  0  0  0  0  0  0  0  0  0  0  0
   -0.8940   -5.1680    0.5910 C   0  0  0  0  0  0  0  0  0  0  0  0
   -0.4950   -3.8900    1.2790 C   0  0  0  0  0  0  0  0  0  0  0  0
  1  2  1  0
  2  3  2  3
  2  9  1  0
  3  4  1  0
  4  5  2  3
  5  6  1  0
  6  7  1  0
  6  8  2  0
  9 10  1  6
  9 11  1  0
 11 12  1  0
 12 13  1  0
 22 12  1  6
 13 14  2  0
 13 15  1  0
 15 16  1  0
 16 17  1  0
 17 18  1  0
 18 19  1  0
 19 20  1  6
 19 21  1  0
 22 23  1  0
 22 27  1  0
 23 24  1  0
 24 25  1  0
 25 26  1  0
 26 27  1  0
M  END
