
     RDKit          3D

 28 28  0  0  0  0  0  0  0  0999 V2000
   -7.1660    2.3670    0.7530 C   0  0  0  0  0  0  0  0  0  0  0  0
   -7.1110    1.0360    1.4650 C   0  0  0  0  0  0  0  0  0  0  0  0
   -5.9110    0.2250    0.8780 C   0  0  0  0  0  0  0  0  0  0  0  0
   -4.7230    1.0490    1.1450 C   0  0  0  0  0  0  0  0  0  0  0  0
   -3.3740    0.6180    0.8140 C   0  0  0  0  0  0  0  0  0  0  0  0
   -2.9580    0.2710   -0.5560 C   0  0  1  0  0  0  0  0  0  0  0  0
   -3.2080    1.4110   -1.5450 C   0  0  0  0  0  0  0  0  0  0  0  0
   -1.4480    0.1920   -0.5670 N   0  0  0  0  0  0  0  0  0  0  0  0
   -0.7610   -0.7190    0.2240 C   0  0  0  0  0  0  0  0  0  0  0  0
   -1.3360   -1.5120    0.9730 O   0  0  0  0  0  0  0  0  0  0  0  0
    0.7050   -0.7210    0.1510 N   0  0  0  0  0  0  0  0  0  0  0  0
    1.4370   -1.6250    0.9340 C   0  0  0  0  0  0  0  0  0  0  0  0
    2.8820   -1.6170    0.8880 C   0  0  0  0  0  0  0  0  0  0  0  0
    3.4130   -2.5740    1.6520 O   0  0  0  0  0  0  0  0  0  0  0  0
    3.8410   -0.8530    0.2400 N   0  0  0  0  0  0  0  0  0  0  0  0
    3.5070    0.3250   -0.5800 C   0  0  0  0  0  0  0  0  0  0  0  0
    4.8050    1.1060   -0.8750 C   0  0  0  0  0  0  0  0  0  0  0  0
    5.6040    1.3370    0.3730 C   0  0  2  0  0  0  0  0  0  0  0  0
    6.9010    2.0030   -0.0250 C   0  0  0  0  0  0  0  0  0  0  0  0
    6.6890    3.2180   -0.6580 O   0  0  0  0  0  0  0  0  0  0  0  0
    5.9170    0.0170    1.0570 C   0  0  0  0  0  0  0  0  0  0  0  0
    5.2610   -1.1290    0.2740 C   0  0  1  0  0  0  0  0  0  0  0  0
    5.7210   -2.4060    0.8490 C   0  0  0  0  0  0  0  0  0  0  0  0
    5.2290   -3.5370    0.2080 O   0  0  0  0  0  0  0  0  0  0  0  0
   -3.3530   -1.0480   -1.0580 C   0  0  0  0  0  0  0  0  0  0  0  0
   -2.4320   -1.9150   -1.3580 O   0  0  0  0  0  0  0  0  0  0  0  0
   -4.6370   -1.5080   -1.2640 O   0  0  0  0  0  0  0  0  0  0  0  0
   -4.8730   -2.8070   -1.7570 C   0  0  0  0  0  0  0  0  0  0  0  0
  1  2  1  0
  2  3  1  0
  3  4  1  0
  4  5  1  0
  5  6  1  0
  6  7  1  6
  6  8  1  0
  6 25  1  0
  8  9  1  0
  9 10  2  0
  9 11  1  0
 11 12  1  0
 12 13  1  0
 13 14  2  0
 13 15  1  0
 15 16  1  0
 15 22  1  0
 16 17  1  0
 17 18  1  0
 18 19  1  6
 18 21  1  0
 19 20  1  0
 21 22  1  0
 22 23  1  1
 23 24  1  0
 25 26  2  0
 25 27  1  0
 27 28  1  0
M  END
