
     RDKit          3D

 28 28  0  0  0  0  0  0  0  0999 V2000
   -7.2050    2.0100    1.2820 C   0  0  0  0  0  0  0  0  0  0  0  0
   -7.3230    1.5190   -0.1450 C   0  0  1  0  0  0  0  0  0  0  0  0
   -7.2390    2.6550   -1.1270 C   0  0  0  0  0  0  0  0  0  0  0  0
   -6.1650    0.5770   -0.4580 C   0  0  0  0  0  0  0  0  0  0  0  0
   -6.1660   -0.6160    0.4580 C   0  0  0  0  0  0  0  0  0  0  0  0
   -5.0910   -1.4750    0.1520 O   0  0  0  0  0  0  0  0  0  0  0  0
   -3.7790   -1.0780    0.2280 C   0  0  0  0  0  0  0  0  0  0  0  0
   -3.4950    0.0790    0.5780 O   0  0  0  0  0  0  0  0  0  0  0  0
   -2.7030   -2.0230   -0.1070 C   0  0  1  0  0  0  0  0  0  0  0  0
   -2.8740   -2.3850   -1.5740 C   0  0  0  0  0  0  0  0  0  0  0  0
   -1.4660   -1.3600    0.0550 O   0  0  0  0  0  0  0  0  0  0  0  0
   -0.4470   -1.8320    0.8510 C   0  0  0  0  0  0  0  0  0  0  0  0
   -0.5930   -2.8920    1.4720 O   0  0  0  0  0  0  0  0  0  0  0  0
    0.7640   -1.1210    0.9690 N   0  0  0  0  0  0  0  0  0  0  0  0
    1.8840   -1.5370    1.7780 C   0  0  2  0  0  0  0  0  0  0  0  0
    2.1130   -0.4140    2.7970 C   0  0  0  0  0  0  0  0  0  0  0  0
    3.0850   -1.5980    0.9170 C   0  0  0  0  0  0  0  0  0  0  0  0
    2.9730   -1.3030   -0.2950 O   0  0  0  0  0  0  0  0  0  0  0  0
    4.3640   -1.9740    1.3970 N   0  0  0  0  0  0  0  0  0  0  0  0
    5.4750   -2.0020    0.4770 C   0  0  0  0  0  0  0  0  0  0  0  0
    5.6990   -0.6520   -0.1070 C   0  0  0  0  0  0  0  0  0  0  0  0
    4.9700    0.3230    0.2180 O   0  0  0  0  0  0  0  0  0  0  0  0
    6.7260   -0.3880   -1.0470 N   0  0  0  0  0  0  0  0  0  0  0  0
    6.9080    0.9220   -1.5830 C   0  0  0  0  0  0  0  0  0  0  0  0
    8.0090    1.6350   -1.4610 C   0  0  0  0  0  0  0  0  0  0  0  0
    7.8630    2.9390   -2.1310 C   0  0  0  0  0  0  0  0  0  0  0  0
    6.4900    2.8980   -2.6790 C   0  0  0  0  0  0  0  0  0  0  0  0
    5.9770    1.7330   -2.3470 C   0  0  0  0  0  0  0  0  0  0  0  0
  2  1  1  1
  2  3  1  0
  2  4  1  0
  4  5  1  0
  5  6  1  0
  6  7  1  0
  7  8  2  0
  7  9  1  0
  9 10  1  6
  9 11  1  0
 11 12  1  0
 12 13  2  0
 12 14  1  0
 14 15  1  0
 15 16  1  1
 15 17  1  0
 17 18  2  0
 17 19  1  0
 19 20  1  0
 20 21  1  0
 21 22  2  0
 21 23  1  0
 23 24  1  0
 24 25  2  0
 24 28  1  0
 25 26  1  0
 26 27  1  0
 27 28  2  0
M  END
