
     RDKit          3D

 28 28  0  0  0  0  0  0  0  0999 V2000
    4.5510    2.0530    2.1880 C   0  0  0  0  0  0  0  0  0  0  0  0
    3.8490    0.9380    1.5690 C   0  0  0  0  0  0  0  0  0  0  0  0
    3.8050    0.4950    0.3590 C   0  0  0  0  0  0  0  0  0  0  0  0
    2.9850   -0.6590    0.0840 O   0  0  0  0  0  0  0  0  0  0  0  0
    1.6730   -0.5020   -0.2760 C   0  0  0  0  0  0  0  0  0  0  0  0
    1.2030    0.6600   -0.3620 O   0  0  0  0  0  0  0  0  0  0  0  0
    0.7850   -1.6630   -0.5700 C   0  0  2  0  0  0  0  0  0  0  0  0
    1.4260   -2.5500   -1.6170 C   0  0  0  0  0  0  0  0  0  0  0  0
   -0.5400   -1.2610   -0.9270 N   0  0  0  0  0  0  0  0  0  0  0  0
   -1.6330   -1.6210   -0.1190 C   0  0  0  0  0  0  0  0  0  0  0  0
   -1.3930   -2.3110    0.9280 O   0  0  0  0  0  0  0  0  0  0  0  0
   -2.9790   -1.2640   -0.4000 N   0  0  0  0  0  0  0  0  0  0  0  0
   -4.1120   -1.6370    0.4380 C   0  0  2  0  0  0  0  0  0  0  0  0
   -5.0300   -2.5760   -0.2560 C   0  0  0  0  0  0  0  0  0  0  0  0
   -4.7270   -0.4620    1.1110 C   0  0  2  0  0  0  0  0  0  0  0  0
   -5.2650    0.6230    0.2750 C   0  0  0  0  0  0  0  0  0  0  0  0
   -6.3700    0.2530   -0.6740 C   0  0  0  0  0  0  0  0  0  0  0  0
   -7.4860   -0.2530   -0.0150 O   0  0  0  0  0  0  0  0  0  0  0  0
   -3.6880    0.1300    2.0180 C   0  0  0  0  0  0  0  0  0  0  0  0
   -3.2700    1.3020    1.9090 O   0  0  0  0  0  0  0  0  0  0  0  0
   -3.1460   -0.6520    3.0450 O   0  0  0  0  0  0  0  0  0  0  0  0
   -2.1650   -0.1380    3.9240 C   0  0  0  0  0  0  0  0  0  0  0  0
    4.5340    1.0870   -0.7550 C   0  0  0  0  0  0  0  0  0  0  0  0
    4.3790    0.5230   -1.9700 C   0  0  0  0  0  0  0  0  0  0  0  0
    5.0380    0.9890   -3.2100 C   0  0  0  0  0  0  0  0  0  0  0  0
    5.5990    2.3570   -2.9620 C   0  0  0  0  0  0  0  0  0  0  0  0
    6.3690    2.2530   -1.7340 N   0  0  0  0  0  0  0  0  0  0  0  0
    5.4340    2.2500   -0.6080 C   0  0  0  0  0  0  0  0  0  0  0  0
  1  2  1  0
  2  3  2  3
  3  4  1  0
  3 23  1  0
  4  5  1  0
  5  6  2  0
  5  7  1  0
  7  8  1  6
  7  9  1  0
  9 10  1  0
 10 11  2  0
 10 12  1  0
 12 13  1  0
 13 14  1  6
 13 15  1  0
 15 16  1  6
 15 19  1  0
 16 17  1  0
 17 18  1  0
 19 20  2  0
 19 21  1  0
 21 22  1  0
 23 24  2  0
 23 28  1  0
 24 25  1  0
 25 26  1  0
 26 27  1  0
 27 28  1  0
M  END
