
     RDKit          3D

 28 28  0  0  0  0  0  0  0  0999 V2000
   -2.5990    4.4500    0.0570 C   0  0  0  0  0  0  0  0  0  0  0  0
   -1.5040    4.3680   -0.7500 O   0  0  0  0  0  0  0  0  0  0  0  0
   -1.3950    3.1780   -1.4380 C   0  0  0  0  0  0  0  0  0  0  0  0
   -1.3410    1.9980   -0.5260 C   0  0  0  0  0  0  0  0  0  0  0  0
   -1.2170    0.8160   -1.3410 O   0  0  0  0  0  0  0  0  0  0  0  0
   -1.1560   -0.3900   -0.7030 C   0  0  0  0  0  0  0  0  0  0  0  0
   -0.0510   -0.8830   -0.2440 C   0  0  0  0  0  0  0  0  0  0  0  0
    1.2760   -0.3150   -0.3000 C   0  0  0  0  0  0  0  0  0  0  0  0
    1.5380    0.7670   -0.8760 O   0  0  0  0  0  0  0  0  0  0  0  0
    2.4040   -0.9470    0.3070 N   0  0  0  0  0  0  0  0  0  0  0  0
    3.7300   -0.4490    0.2850 C   0  0  1  0  0  0  0  0  0  0  0  0
    4.1280    0.3960    1.4660 C   0  0  2  0  0  0  0  0  0  0  0  0
    3.5210    1.7980    1.3490 C   0  0  0  0  0  0  0  0  0  0  0  0
    5.6110    0.6000    1.1920 C   0  0  0  0  0  0  0  0  0  0  0  0
    6.0820   -0.7120    0.6260 C   0  0  0  0  0  0  0  0  0  0  0  0
    4.8300   -1.3880    0.0430 C   0  0  1  0  0  0  0  0  0  0  0  0
    4.7580   -2.7070    0.6930 C   0  0  0  0  0  0  0  0  0  0  0  0
    5.7980   -3.6320    0.3020 N   0  0  0  0  0  0  0  0  0  0  0  0
    3.9410   -3.1180    1.5130 O   0  0  0  0  0  0  0  0  0  0  0  0
   -2.4280   -1.1480   -0.5400 C   0  0  0  0  0  0  0  0  0  0  0  0
   -3.5690   -0.7130   -0.9540 C   0  0  0  0  0  0  0  0  0  0  0  0
   -4.8190   -1.5000   -0.7730 C   0  0  0  0  0  0  0  0  0  0  0  0
   -5.7980   -0.8060    0.1270 C   0  0  0  0  0  0  0  0  0  0  0  0
   -6.2300    0.5190   -0.3640 C   0  0  0  0  0  0  0  0  0  0  0  0
   -7.0720    1.3660    0.4000 N   0  0  0  0  0  0  0  0  0  0  0  0
   -5.8670    0.9680   -1.5030 O   0  0  0  0  0  0  0  0  0  0  0  0
   -2.3400   -2.3880    0.0930 O   0  0  0  0  0  0  0  0  0  0  0  0
   -2.0500   -3.5040   -0.7640 C   0  0  0  0  0  0  0  0  0  0  0  0
  1  2  1  0
  2  3  1  0
  3  4  1  0
  4  5  1  0
  5  6  1  0
  6  7  2  3
  6 20  1  0
  7  8  1  0
  8  9  2  0
  8 10  1  0
 11 10  1  1
 11 12  1  0
 11 16  1  0
 12 13  1  6
 12 14  1  0
 14 15  1  0
 15 16  1  0
 16 17  1  1
 17 18  1  0
 17 19  2  0
 20 21  2  3
 20 27  1  0
 21 22  1  0
 22 23  1  0
 23 24  1  0
 24 25  1  0
 24 26  2  0
 27 28  1  0
M  END
