
     RDKit          3D

 19 20  0  0  0  0  0  0  0  0999 V2000
    5.2560    0.2860   -1.4110 N   0  0  0  0  0  0  0  0  0  0  0  0
    4.1140    0.4160   -0.5210 C   0  0  0  0  0  0  0  0  0  0  0  0
    4.3370    0.1480    0.6640 O   0  0  0  0  0  0  0  0  0  0  0  0
    2.9070    0.7920   -0.9120 O   0  0  0  0  0  0  0  0  0  0  0  0
    1.6580    1.0100   -0.4560 C   0  0  0  0  0  0  0  0  0  0  0  0
    0.7830   -0.0940    0.0380 C   0  0  1  0  0  0  0  0  0  0  0  0
    0.6310   -1.1070   -0.9070 O   0  0  0  0  0  0  0  0  0  0  0  0
    1.2030   -0.6790    1.3230 C   0  0  0  0  0  0  0  0  0  0  0  0
    0.4420    0.2590    2.2990 C   0  0  0  0  0  0  0  0  0  0  0  0
   -0.8390    0.0760    1.7220 O   0  0  0  0  0  0  0  0  0  0  0  0
   -0.5820    0.4770    0.4170 C   0  0  2  0  0  0  0  0  0  0  0  0
   -1.6800    0.1660   -0.5110 C   0  0  1  0  0  0  0  0  0  0  0  0
   -1.3990    0.7810   -1.7520 O   0  0  0  0  0  0  0  0  0  0  0  0
   -1.9720   -1.2570   -0.7730 C   0  0  0  0  0  0  0  0  0  0  0  0
   -3.4560   -1.4490   -1.0210 C   0  0  0  0  0  0  0  0  0  0  0  0
   -4.2250   -1.0670    0.1140 O   0  0  0  0  0  0  0  0  0  0  0  0
   -3.9650    0.2400    0.5550 C   0  0  0  0  0  0  0  0  0  0  0  0
   -4.7250    0.7510    1.4070 O   0  0  0  0  0  0  0  0  0  0  0  0
   -2.8570    0.8880    0.0010 N   0  0  0  0  0  0  0  0  0  0  0  0
  1  2  1  0
  2  3  2  0
  2  4  1  0
  4  5  1  0
  5  6  1  0
  6  7  1  6
  6  8  1  0
  6 11  1  0
  8  9  1  0
  9 10  1  0
 11 10  1  1
 11 12  1  0
 12 13  1  6
 12 14  1  0
 12 19  1  0
 14 15  1  0
 15 16  1  0
 16 17  1  0
 17 18  2  0
 17 19  1  0
M  END
