
     RDKit          3D

 19 19  0  0  0  0  0  0  0  0999 V2000
    4.1760    0.8150   -0.2300 N   0  0  0  0  0  0  0  0  0  0  0  0
    3.0480   -0.0090   -0.4600 C   0  0  0  0  0  0  0  0  0  0  0  0
    3.1780   -1.0710   -1.1090 O   0  0  0  0  0  0  0  0  0  0  0  0
    1.6940    0.3640    0.0570 C   0  0  1  0  0  0  0  0  0  0  0  0
    1.2990    1.6670   -0.5130 C   0  0  0  0  0  0  0  0  0  0  0  0
    0.1590    2.2850   -0.3950 C   0  0  0  0  0  0  0  0  0  0  0  0
   -0.0410    3.5450   -1.0210 O   0  0  0  0  0  0  0  0  0  0  0  0
   -0.9950    1.7590    0.3720 C   0  0  2  0  0  0  0  0  0  0  0  0
   -0.5290    0.9030    1.3520 O   0  0  0  0  0  0  0  0  0  0  0  0
   -2.0580    1.1390   -0.5070 C   0  0  1  0  0  0  0  0  0  0  0  0
   -1.5650    0.7380   -1.7530 O   0  0  0  0  0  0  0  0  0  0  0  0
   -2.6960   -0.0020    0.2570 C   0  0  0  0  0  0  0  0  0  0  0  0
   -2.8420   -1.1380   -0.5170 O   0  0  0  0  0  0  0  0  0  0  0  0
   -2.4440   -2.4280   -0.3160 C   0  0  0  0  0  0  0  0  0  0  0  0
   -3.3770   -3.3110   -0.3470 O   0  0  0  0  0  0  0  0  0  0  0  0
   -1.1410   -2.9180   -0.0800 N   0  0  0  0  0  0  0  0  0  0  0  0
   -0.2040   -2.4430    0.9160 C   0  0  0  0  0  0  0  0  0  0  0  0
    1.0340   -1.8310    0.3010 C   0  0  0  0  0  0  0  0  0  0  0  0
    0.7920   -0.6320   -0.3120 O   0  0  0  0  0  0  0  0  0  0  0  0
  1  2  1  0
  2  3  2  0
  4  2  1  6
  4  5  1  0
  4 19  1  0
  5  6  2  0
  6  7  1  0
  6  8  1  0
  8  9  1  1
  8 10  1  0
 10 11  1  6
 10 12  1  0
 12 13  1  0
 13 14  1  0
 14 15  2  0
 14 16  1  0
 16 17  1  0
 17 18  1  0
 18 19  1  0
M  END
