
     RDKit          3D

 20 22  0  0  0  0  0  0  0  0999 V2000
    5.5410    1.6670    0.7640 C   0  0  0  0  0  0  0  0  0  0  0  0
    4.1300    1.6850    0.7250 O   0  0  0  0  0  0  0  0  0  0  0  0
    3.4570    0.5860    0.2420 C   0  0  0  0  0  0  0  0  0  0  0  0
    4.1730   -0.5020   -0.1910 C   0  0  0  0  0  0  0  0  0  0  0  0
    3.5590   -1.6300   -0.6850 C   0  0  0  0  0  0  0  0  0  0  0  0
    2.1940   -1.6620   -0.7420 C   0  0  0  0  0  0  0  0  0  0  0  0
    1.4460   -0.5970   -0.3200 C   0  0  0  0  0  0  0  0  0  0  0  0
   -0.0340   -0.6300   -0.3820 C   0  0  0  0  0  0  0  0  0  0  0  0
   -0.8800    0.3360   -0.0040 N   0  0  0  0  0  0  0  0  0  0  0  0
   -2.1580   -0.0560   -0.2100 C   0  0  0  0  0  0  0  0  0  0  0  0
   -3.3810    0.5460    0.0030 C   0  0  0  0  0  0  0  0  0  0  0  0
   -3.3950    1.8890    0.5670 C   0  0  0  0  0  0  0  0  0  0  0  0
   -4.6510    2.5320    0.7960 N   0  0  0  0  0  0  0  0  0  0  0  0
   -2.3520    2.4950    0.8550 O   0  0  0  0  0  0  0  0  0  0  0  0
   -4.5480   -0.1280   -0.3170 C   0  0  0  0  0  0  0  0  0  0  0  0
   -4.5170   -1.4020   -0.8510 C   0  0  0  0  0  0  0  0  0  0  0  0
   -3.2820   -1.9750   -1.0520 C   0  0  0  0  0  0  0  0  0  0  0  0
   -2.0980   -1.3310   -0.7430 C   0  0  0  0  0  0  0  0  0  0  0  0
   -0.7940   -1.6430   -0.8320 N   0  0  0  0  0  0  0  0  0  0  0  0
    2.0830    0.5130    0.1670 C   0  0  0  0  0  0  0  0  0  0  0  0
  1  2  1  0
  2  3  1  0
  3  4  2  0
  3 20  1  0
  4  5  1  0
  5  6  2  0
  6  7  1  0
  7  8  1  0
  7 20  2  0
  8  9  2  0
  8 19  1  0
  9 10  1  0
 10 11  2  0
 10 18  1  0
 11 12  1  0
 11 15  1  0
 12 13  1  0
 12 14  2  0
 15 16  2  0
 16 17  1  0
 17 18  2  0
 18 19  1  0
M  END
