
     RDKit          3D

 19 20  0  0  0  0  0  0  0  0999 V2000
   -3.4110    2.5650    1.5780 N   0  0  0  0  0  0  0  0  0  0  0  0
   -2.5340    1.6650    0.9950 O   0  0  0  0  0  0  0  0  0  0  0  0
   -2.9410    0.3780    0.8090 C   0  0  0  0  0  0  0  0  0  0  0  0
   -4.1120    0.0340    1.1720 O   0  0  0  0  0  0  0  0  0  0  0  0
   -2.1190   -0.6830    0.2050 C   0  0  0  0  0  0  0  0  0  0  0  0
   -0.8940   -0.6150   -0.2520 C   0  0  0  0  0  0  0  0  0  0  0  0
   -0.0210    0.6160   -0.2580 C   0  0  2  0  0  0  0  0  0  0  0  0
    0.2450    0.9050   -1.5850 O   0  0  0  0  0  0  0  0  0  0  0  0
    1.2760    1.8240   -1.7450 C   0  0  0  0  0  0  0  0  0  0  0  0
    2.5370    1.1620   -1.1920 C   0  0  1  0  0  0  0  0  0  0  0  0
    2.9840    1.9470   -0.1270 O   0  0  0  0  0  0  0  0  0  0  0  0
    2.0540   -0.1590   -0.5840 C   0  0  1  0  0  0  0  0  0  0  0  0
    3.1790   -0.9710   -0.0800 C   0  0  0  0  0  0  0  0  0  0  0  0
    3.3350   -1.3560    1.2510 N   0  0  0  0  0  0  0  0  0  0  0  0
    4.0480   -1.3330   -0.9160 O   0  0  0  0  0  0  0  0  0  0  0  0
    1.1550    0.1890    0.4100 O   0  0  0  0  0  0  0  0  0  0  0  0
   -0.4580   -1.8600   -0.7580 O   0  0  0  0  0  0  0  0  0  0  0  0
   -1.5920   -2.6780   -0.9650 C   0  0  0  0  0  0  0  0  0  0  0  0
   -2.5810   -2.1090    0.0010 C   0  0  0  0  0  0  0  0  0  0  0  0
  1  2  1  0
  2  3  1  0
  3  4  2  0
  3  5  1  0
  5  6  2  0
  5 19  1  0
  7  6  1  6
  6 17  1  0
  7  8  1  0
  7 16  1  0
  8  9  1  0
  9 10  1  0
 10 11  1  1
 10 12  1  0
 12 13  1  1
 12 16  1  0
 13 14  1  0
 13 15  2  0
 17 18  1  0
 18 19  1  0
M  END
