
     RDKit          3D

 20 21  0  0  0  0  0  0  0  0999 V2000
    2.5220   -1.2920    1.8810 O   0  0  0  0  0  0  0  0  0  0  0  0
    3.0890   -0.5070    1.0740 C   0  0  0  0  0  0  0  0  0  0  0  0
    4.0390    0.4000    1.5860 N   0  0  0  0  0  0  0  0  0  0  0  0
    4.2410    1.6030    0.9890 O   0  0  0  0  0  0  0  0  0  0  0  0
    4.3900    1.4020   -0.3500 N   0  0  0  0  0  0  0  0  0  0  0  0
    3.8040    0.3280   -1.0440 C   0  0  0  0  0  0  0  0  0  0  0  0
    4.1390    0.0850   -2.2150 O   0  0  0  0  0  0  0  0  0  0  0  0
    2.7920   -0.5070   -0.3780 C   0  0  1  0  0  0  0  0  0  0  0  0
    2.8840   -1.8250   -0.8160 O   0  0  0  0  0  0  0  0  0  0  0  0
    1.4370    0.0930   -0.6600 C   0  0  0  0  0  0  0  0  0  0  0  0
    0.4000   -0.5730   -0.0560 O   0  0  0  0  0  0  0  0  0  0  0  0
   -0.7840    0.0410   -0.3680 C   0  0  1  0  0  0  0  0  0  0  0  0
   -1.6400   -0.9480   -1.1250 C   0  0  0  0  0  0  0  0  0  0  0  0
   -2.7190   -1.2910   -0.1450 C   0  0  1  0  0  0  0  0  0  0  0  0
   -2.2410   -2.2230    0.7780 O   0  0  0  0  0  0  0  0  0  0  0  0
   -2.9690    0.0580    0.5230 C   0  0  2  0  0  0  0  0  0  0  0  0
   -3.7430   -0.0830    1.6670 O   0  0  0  0  0  0  0  0  0  0  0  0
   -3.6350    0.9460   -0.4790 C   0  0  0  0  0  0  0  0  0  0  0  0
   -3.8370    2.2030    0.0670 O   0  0  0  0  0  0  0  0  0  0  0  0
   -1.5690    0.5090    0.8200 C   0  0  0  0  0  0  0  0  0  0  0  0
  1  2  2  0
  2  3  1  0
  2  8  1  0
  3  4  1  0
  4  5  1  0
  5  6  1  0
  6  7  2  0
  6  8  1  0
  8  9  1  6
  8 10  1  0
 10 11  1  0
 12 11  1  1
 12 13  1  0
 12 20  1  0
 13 14  1  0
 14 15  1  1
 14 16  1  0
 16 17  1  1
 16 18  1  0
 16 20  1  0
 18 19  1  0
M  END
