
     RDKit          3D

 23 25  0  0  0  0  0  0  0  0999 V2000
   -1.5120    0.6520    2.3410 O   0  0  0  0  0  0  0  0  0  0  0  0
   -1.6700    0.9790    1.1200 C   0  0  0  0  0  0  0  0  0  0  0  0
   -2.9110    1.6010    0.7310 C   0  0  0  0  0  0  0  0  0  0  0  0
   -3.9670    0.6290    0.5660 N   0  0  0  0  0  0  0  0  0  0  0  0
   -4.3390   -0.0290   -0.5350 C   0  0  0  0  0  0  0  0  0  0  0  0
   -3.8130    0.0570   -1.6740 O   0  0  0  0  0  0  0  0  0  0  0  0
   -5.3860   -0.8070   -0.1940 N   0  0  0  0  0  0  0  0  0  0  0  0
   -5.6510   -0.6320    1.0800 N   0  0  0  0  0  0  0  0  0  0  0  0
   -4.7900    0.2530    1.5870 C   0  0  0  0  0  0  0  0  0  0  0  0
   -4.7250    0.6810    2.7760 O   0  0  0  0  0  0  0  0  0  0  0  0
   -0.6010    0.7040    0.2260 N   0  0  0  0  0  0  0  0  0  0  0  0
   -0.5060    0.9200   -1.1050 C   0  0  0  0  0  0  0  0  0  0  0  0
    0.6970    0.5710   -1.5580 N   0  0  0  0  0  0  0  0  0  0  0  0
    1.3930    0.1190   -0.4940 C   0  0  0  0  0  0  0  0  0  0  0  0
    2.7960   -0.3550   -0.4230 C   0  0  2  0  0  0  0  0  0  0  0  0
    3.4080    0.4360    0.5800 O   0  0  0  0  0  0  0  0  0  0  0  0
    3.5770   -0.0610   -1.6840 C   0  0  0  0  0  0  0  0  0  0  0  0
    5.0540   -0.1260   -1.2490 C   0  0  0  0  0  0  0  0  0  0  0  0
    5.4400   -1.4680   -1.0840 O   0  0  0  0  0  0  0  0  0  0  0  0
    4.4720   -2.2130    0.1790 P   0  0  0  0  0  0  0  0  0  0  0  0
    4.9110   -1.6330    1.7510 O   0  0  0  0  0  0  0  0  0  0  0  0
    2.8110   -1.7080   -0.1150 O   0  0  0  0  0  0  0  0  0  0  0  0
    0.6010    0.2050    0.5650 N   0  0  0  0  0  0  0  0  0  0  0  0
  1  2  2  0
  2  3  1  0
  2 11  1  0
  3  4  1  0
  4  5  1  0
  4  9  1  0
  5  6  2  0
  5  7  1  0
  7  8  1  0
  8  9  1  0
  9 10  2  0
 11 12  1  0
 11 23  1  0
 12 13  2  0
 13 14  1  0
 14 15  1  0
 14 23  2  0
 15 16  1  1
 15 17  1  0
 15 22  1  0
 17 18  1  0
 18 19  1  0
 19 20  1  0
 20 21  1  0
 20 22  1  0
M  END
