
     RDKit          3D

 23 25  0  0  0  0  0  0  0  0999 V2000
    1.7550    1.7480   -0.4360 O   0  0  0  0  0  0  0  0  0  0  0  0
    2.2690    0.6450   -0.2750 C   0  0  0  0  0  0  0  0  0  0  0  0
    3.6790    0.6410   -0.3060 O   0  0  0  0  0  0  0  0  0  0  0  0
    4.5830    2.1270   -0.5580 P   0  0  0  0  0  0  0  0  0  0  0  0
    4.2220    3.2940    0.6790 O   0  0  0  0  0  0  0  0  0  0  0  0
    6.2770    1.7270   -0.3850 O   0  0  0  0  0  0  0  0  0  0  0  0
    1.5890   -0.6360   -0.0600 C   0  0  0  0  0  0  0  0  0  0  0  0
    2.2170   -1.8220    0.1110 N   0  0  0  0  0  0  0  0  0  0  0  0
    1.2880   -2.7660    0.2790 C   0  0  0  0  0  0  0  0  0  0  0  0
    1.4990   -4.1300    0.4870 O   0  0  0  0  0  0  0  0  0  0  0  0
    0.0680   -2.2280    0.2210 N   0  0  0  0  0  0  0  0  0  0  0  0
    0.2380   -0.9020    0.0110 C   0  0  0  0  0  0  0  0  0  0  0  0
   -0.8380    0.0920   -0.1210 C   0  0  0  0  0  0  0  0  0  0  0  0
   -0.7490    1.3890   -0.3250 N   0  0  0  0  0  0  0  0  0  0  0  0
   -1.9250    1.9960   -0.3940 C   0  0  0  0  0  0  0  0  0  0  0  0
   -2.8620    1.0040   -0.2180 C   0  0  0  0  0  0  0  0  0  0  0  0
   -4.1930    1.0900   -0.2020 N   0  0  0  0  0  0  0  0  0  0  0  0
   -4.9040   -0.0300   -0.0120 C   0  0  0  0  0  0  0  0  0  0  0  0
   -6.1670    0.0130    0.0090 O   0  0  0  0  0  0  0  0  0  0  0  0
   -4.2820   -1.2050    0.1580 N   0  0  0  0  0  0  0  0  0  0  0  0
   -2.9370   -1.2370    0.1330 C   0  0  0  0  0  0  0  0  0  0  0  0
   -2.4050   -2.3510    0.2950 O   0  0  0  0  0  0  0  0  0  0  0  0
   -2.1670   -0.1530   -0.0530 N   0  0  0  0  0  0  0  0  0  0  0  0
  1  2  2  0
  2  3  1  0
  2  7  1  0
  3  4  1  0
  4  5  1  0
  4  6  1  0
  7  8  1  0
  7 12  2  0
  8  9  1  0
  9 10  1  0
  9 11  2  0
 11 12  1  0
 12 13  1  0
 13 14  2  0
 13 23  1  0
 14 15  1  0
 15 16  2  0
 16 17  1  0
 16 23  1  0
 17 18  1  0
 18 19  2  0
 18 20  1  0
 20 21  1  0
 21 22  2  0
 21 23  1  0
M  END
