
     RDKit          3D

 23 25  0  0  0  0  0  0  0  0999 V2000
    3.7620   -2.3130   -0.5440 O   0  0  0  0  0  0  0  0  0  0  0  0
    3.9110   -1.1990    0.0690 C   0  0  0  0  0  0  0  0  0  0  0  0
    5.1580   -1.0520    0.8910 C   0  0  0  0  0  0  0  0  0  0  0  0
    5.3150    0.2900    1.2090 O   0  0  0  0  0  0  0  0  0  0  0  0
    6.6740    0.8840    0.2380 P   0  0  0  0  0  0  0  0  0  0  0  0
    6.3500    2.5780   -0.0710 O   0  0  0  0  0  0  0  0  0  0  0  0
    6.6380    0.0930   -1.3320 O   0  0  0  0  0  0  0  0  0  0  0  0
    2.9910   -0.2010   -0.1030 N   0  0  0  0  0  0  0  0  0  0  0  0
    1.6940   -0.2260   -0.7390 C   0  0  0  0  0  0  0  0  0  0  0  0
    1.4800   -0.6670   -2.0220 N   0  0  0  0  0  0  0  0  0  0  0  0
    0.1320   -0.5100   -2.2030 N   0  0  0  0  0  0  0  0  0  0  0  0
   -0.3770    0.0060   -1.0060 C   0  0  0  0  0  0  0  0  0  0  0  0
   -1.8150    0.3750   -0.8840 C   0  0  0  0  0  0  0  0  0  0  0  0
   -2.6370   -0.7530   -0.8570 N   0  0  0  0  0  0  0  0  0  0  0  0
   -2.5860   -1.4930    0.3930 C   0  0  0  0  0  0  0  0  0  0  0  0
   -3.8340   -0.7480    0.8150 C   0  0  1  0  0  0  0  0  0  0  0  0
   -3.6560    0.4760    1.4280 O   0  0  0  0  0  0  0  0  0  0  0  0
   -4.9460    1.1040    1.3850 C   0  0  0  0  0  0  0  0  0  0  0  0
   -4.9610    1.6790    0.0460 N   0  0  0  0  0  0  0  0  0  0  0  0
   -4.4730    0.8440   -0.9710 C   0  0  0  0  0  0  0  0  0  0  0  0
   -4.4740    1.2320   -2.1810 O   0  0  0  0  0  0  0  0  0  0  0  0
   -4.0600   -0.5580   -0.6670 C   0  0  1  0  0  0  0  0  0  0  0  0
    0.6010    0.0930   -0.2400 O   0  0  0  0  0  0  0  0  0  0  0  0
  1  2  2  0
  2  3  1  0
  2  8  1  0
  3  4  1  0
  4  5  1  0
  5  6  1  0
  5  7  1  0
  8  9  1  0
  9 10  2  0
  9 23  1  0
 10 11  1  0
 11 12  2  0
 12 13  1  0
 12 23  1  0
 13 14  1  0
 14 15  1  0
 22 14  1  6
 16 15  1  6
 16 17  1  0
 16 22  1  0
 17 18  1  0
 18 19  1  0
 19 20  1  0
 20 21  2  0
 20 22  1  0
M  END
