
     RDKit          3D

 27 28  0  0  0  0  0  0  0  0999 V2000
   -2.3380   -3.0100   -1.9380 O   0  0  0  0  0  0  0  0  0  0  0  0
   -1.4900   -2.4320   -1.2160 C   0  0  0  0  0  0  0  0  0  0  0  0
   -0.1500   -1.9630   -1.5850 C   0  0  0  0  0  0  0  0  0  0  0  0
    0.4300   -1.6630   -0.2600 N   0  0  0  0  0  0  0  0  0  0  0  0
    1.7600   -1.8290    0.1700 C   0  0  0  0  0  0  0  0  0  0  0  0
    2.4170   -2.7540   -0.4460 O   0  0  0  0  0  0  0  0  0  0  0  0
    2.4620   -1.1440    1.1590 N   0  0  0  0  0  0  0  0  0  0  0  0
    2.6740    0.2650    1.3100 C   0  0  0  0  0  0  0  0  0  0  0  0
    2.9280    1.0250    0.0550 C   0  0  0  0  0  0  0  0  0  0  0  0
    2.3620    0.4870   -1.1100 O   0  0  0  0  0  0  0  0  0  0  0  0
    1.5930    1.1930   -2.0120 C   0  0  0  0  0  0  0  0  0  0  0  0
    1.7640    0.9080   -3.2280 O   0  0  0  0  0  0  0  0  0  0  0  0
    0.6790    2.1600   -1.6640 O   0  0  0  0  0  0  0  0  0  0  0  0
    0.0510    2.2660   -0.4360 C   0  0  0  0  0  0  0  0  0  0  0  0
   -0.1250    3.4740   -0.0410 O   0  0  0  0  0  0  0  0  0  0  0  0
   -0.3770    1.2550    0.3550 O   0  0  0  0  0  0  0  0  0  0  0  0
   -1.2010    0.1720    0.1130 C   0  0  1  0  0  0  0  0  0  0  0  0
   -2.3540    0.3710    0.9190 O   0  0  0  0  0  0  0  0  0  0  0  0
   -1.6900    0.1540   -1.1900 O   0  0  0  0  0  0  0  0  0  0  0  0
   -2.6160    1.5150   -1.6170 P   0  0  0  0  0  0  0  0  0  0  0  0
   -2.0980    2.3360   -3.0260 O   0  0  0  0  0  0  0  0  0  0  0  0
   -3.0630    2.5300   -0.3200 O   0  0  0  0  0  0  0  0  0  0  0  0
   -0.6790   -1.1710    0.5100 C   0  0  2  0  0  0  0  0  0  0  0  0
   -0.4220   -1.3350    2.3360 P   0  0  0  0  0  0  0  0  0  0  0  0
   -1.0320   -2.8440    2.9320 O   0  0  0  0  0  0  0  0  0  0  0  0
   -1.0350   -0.0020    3.2250 O   0  0  0  0  0  0  0  0  0  0  0  0
   -1.7070   -2.1270    0.1470 N   0  0  0  0  0  0  0  0  0  0  0  0
  1  2  2  0
  2  3  1  0
  2 27  1  0
  3  4  1  0
  4  5  1  0
  4 23  1  0
  5  6  2  0
  5  7  1  0
  7  8  1  0
  8  9  1  0
  9 10  1  0
 10 11  1  0
 11 12  2  0
 11 13  1  0
 13 14  1  0
 14 15  2  0
 14 16  1  0
 16 17  1  0
 17 18  1  1
 17 19  1  0
 17 23  1  0
 19 20  1  0
 20 21  1  0
 20 22  1  0
 23 24  1  1
 23 27  1  0
 24 25  1  0
 24 26  1  0
M  END
