
     RDKit          3D

 28 28  0  0  0  0  0  0  0  0999 V2000
   -1.5480    0.2790    2.2050 O   0  0  0  0  0  0  0  0  0  0  0  0
   -0.6790    0.1000    1.2100 C   0  0  0  0  0  0  0  0  0  0  0  0
    0.6670    0.0640    1.6870 C   0  0  0  0  0  0  0  0  0  0  0  0
    1.7860   -0.1200    0.8430 N   0  0  0  0  0  0  0  0  0  0  0  0
    2.3280   -1.4280    0.5290 C   0  0  0  0  0  0  0  0  0  0  0  0
    1.7920   -2.5440    0.7570 O   0  0  0  0  0  0  0  0  0  0  0  0
    3.6090   -1.2490   -0.0970 N   0  0  0  0  0  0  0  0  0  0  0  0
    4.3010   -2.1270   -0.9430 C   0  0  0  0  0  0  0  0  0  0  0  0
    3.7600   -3.2290   -1.2140 O   0  0  0  0  0  0  0  0  0  0  0  0
    5.5420   -1.8340   -1.4870 O   0  0  0  0  0  0  0  0  0  0  0  0
    6.1420   -2.7400   -2.2960 O   0  0  0  0  0  0  0  0  0  0  0  0
    4.0210    0.0900    0.3700 C   0  0  0  0  0  0  0  0  0  0  0  0
    2.6650    0.7920    0.1660 C   0  0  2  0  0  0  0  0  0  0  0  0
    2.6390    2.5010    0.7190 P   0  0  0  0  0  0  0  0  0  0  0  0
    3.4680    3.5040   -0.4330 O   0  0  0  0  0  0  0  0  0  0  0  0
    3.2620    2.8010    2.2760 O   0  0  0  0  0  0  0  0  0  0  0  0
   -1.2920   -0.0050   -0.0400 N   0  0  0  0  0  0  0  0  0  0  0  0
   -0.6390   -0.2080   -1.2910 C   0  0  0  0  0  0  0  0  0  0  0  0
   -0.4340   -1.9850   -1.7800 P   0  0  0  0  0  0  0  0  0  0  0  0
   -1.0340   -2.9520   -0.4470 O   0  0  0  0  0  0  0  0  0  0  0  0
   -1.3480   -2.4090   -3.1680 O   0  0  0  0  0  0  0  0  0  0  0  0
   -2.7500    0.0920   -0.1110 C   0  0  0  0  0  0  0  0  0  0  0  0
   -3.3820    0.0070   -1.1690 O   0  0  0  0  0  0  0  0  0  0  0  0
   -3.4200    0.2840    1.0520 O   0  0  0  0  0  0  0  0  0  0  0  0
   -4.8090    0.4040    1.2040 C   0  0  0  0  0  0  0  0  0  0  0  0
   -5.4060    1.5540    0.4480 C   0  0  0  0  0  0  0  0  0  0  0  0
   -6.7880    1.5350    0.7030 O   0  0  0  0  0  0  0  0  0  0  0  0
   -7.3060    2.5530    0.0330 O   0  0  0  0  0  0  0  0  0  0  0  0
  1  2  2  0
  2  3  1  0
  2 17  1  0
  3  4  1  0
  4  5  1  0
  4 13  1  0
  5  6  2  0
  5  7  1  0
  7  8  1  0
  7 12  1  0
  8  9  2  0
  8 10  1  0
 10 11  1  0
 12 13  1  0
 13 14  1  1
 14 15  1  0
 14 16  1  0
 17 18  1  0
 17 22  1  0
 18 19  1  0
 19 20  1  0
 19 21  1  0
 22 23  2  0
 22 24  1  0
 24 25  1  0
 25 26  1  0
 26 27  1  0
 27 28  1  0
M  END
