
     RDKit          3D

 28 28  0  0  0  0  0  0  0  0999 V2000
    4.2580    2.4600    2.3590 N   0  0  0  0  0  0  0  0  0  0  0  0
    3.3790    1.8500    1.4210 C   0  0  0  0  0  0  0  0  0  0  0  0
    2.3650    2.4790    1.0300 O   0  0  0  0  0  0  0  0  0  0  0  0
    3.5900    0.5930    0.9200 O   0  0  0  0  0  0  0  0  0  0  0  0
    2.7600   -0.0650   -0.0130 C   0  0  1  0  0  0  0  0  0  0  0  0
    1.3770   -0.2390    0.5460 C   0  0  0  0  0  0  0  0  0  0  0  0
    1.0880    0.1280    1.7050 O   0  0  0  0  0  0  0  0  0  0  0  0
    0.3610   -0.8440   -0.2760 N   0  0  0  0  0  0  0  0  0  0  0  0
   -0.9420   -1.0580    0.1350 N   0  0  0  0  0  0  0  0  0  0  0  0
   -1.2210   -2.0140    1.1500 C   0  0  0  0  0  0  0  0  0  0  0  0
   -0.2590   -2.6580    1.6620 O   0  0  0  0  0  0  0  0  0  0  0  0
   -2.6110   -2.2290    1.5710 C   0  0  0  0  0  0  0  0  0  0  0  0
   -2.7740   -3.2260    2.5300 O   0  0  0  0  0  0  0  0  0  0  0  0
   -2.1730   -3.2070    3.7700 C   0  0  0  0  0  0  0  0  0  0  0  0
   -1.4220   -2.2050    4.0290 O   0  0  0  0  0  0  0  0  0  0  0  0
   -1.9820   -0.2850   -0.4930 C   0  0  1  0  0  0  0  0  0  0  0  0
   -1.7150    1.1950   -0.3220 C   0  0  0  0  0  0  0  0  0  0  0  0
   -2.7110    1.9620   -0.9180 O   0  0  0  0  0  0  0  0  0  0  0  0
   -2.4470    3.6440   -0.7400 P   0  0  0  0  0  0  0  0  0  0  0  0
   -3.7930    4.4250    0.0290 O   0  0  0  0  0  0  0  0  0  0  0  0
   -2.0380    4.4430   -2.2100 O   0  0  0  0  0  0  0  0  0  0  0  0
   -2.1150   -0.6050   -2.3080 P   0  0  0  0  0  0  0  0  0  0  0  0
   -0.8430   -1.5540   -2.9530 O   0  0  0  0  0  0  0  0  0  0  0  0
   -3.6810   -1.1570   -2.7760 O   0  0  0  0  0  0  0  0  0  0  0  0
    2.6860    0.5700   -1.2190 O   0  0  0  0  0  0  0  0  0  0  0  0
    3.2860   -0.2190   -2.1910 C   0  0  0  0  0  0  0  0  0  0  0  0
    4.1820   -1.1250   -1.3480 C   0  0  0  0  0  0  0  0  0  0  0  0
    3.3500   -1.3140   -0.2350 O   0  0  0  0  0  0  0  0  0  0  0  0
  1  2  1  0
  2  3  2  0
  2  4  1  0
  5  4  1  1
  5  6  1  0
  5 25  1  0
  5 28  1  0
  6  7  2  0
  6  8  1  0
  8  9  1  0
  9 10  1  0
  9 16  1  0
 10 11  2  0
 10 12  1  0
 12 13  1  0
 13 14  1  0
 14 15  2  0
 16 17  1  6
 16 22  1  0
 17 18  1  0
 18 19  1  0
 19 20  1  0
 19 21  1  0
 22 23  1  0
 22 24  1  0
 25 26  1  0
 26 27  1  0
 27 28  1  0
M  END
