
     RDKit          3D

 13 13  0  0  0  0  0  0  0  0999 V2000
   -2.3340   -0.8070   -0.2660 C   0  0  0  0  0  0  0  0  0  0  0  0
   -1.7550    0.5720   -0.0700 C   0  0  1  0  0  0  0  0  0  0  0  0
   -2.6290    1.5040   -0.6440 O   0  0  0  0  0  0  0  0  0  0  0  0
   -1.6040    0.8350    1.4150 C   0  0  0  0  0  0  0  0  0  0  0  0
   -0.9110   -0.2650    1.9170 O   0  0  0  0  0  0  0  0  0  0  0  0
    0.4170   -0.2230    1.5630 C   0  0  0  0  0  0  0  0  0  0  0  0
    0.7480    0.3650    0.2470 C   0  0  1  0  0  0  0  0  0  0  0  0
    1.7570   -0.5850   -0.4190 C   0  0  0  0  0  0  0  0  0  0  0  0
    2.9790   -0.7110    0.4090 C   0  0  0  0  0  0  0  0  0  0  0  0
    3.0360   -0.0620    1.4820 O   0  0  0  0  0  0  0  0  0  0  0  0
    4.0250   -1.5190    0.0110 O   0  0  0  0  0  0  0  0  0  0  0  0
   -0.3730    0.7020   -0.6680 C   0  0  1  0  0  0  0  0  0  0  0  0
   -0.2960   -0.0050   -1.9510 N   0  0  0  0  0  0  0  0  0  0  0  0
  2  1  1  1
  2  3  1  0
  2  4  1  0
  2 12  1  0
  4  5  1  0
  5  6  1  0
  6  7  1  0
  7  8  1  6
  7 12  1  0
  8  9  1  0
  9 10  2  0
  9 11  1  0
 12 13  1  6
M  CHG  1  13   1
M  END
