
     RDKit          3D

 13 13  0  0  0  0  0  0  0  0999 V2000
    3.5770    1.3350    0.1560 C   0  0  0  0  0  0  0  0  0  0  0  0
    2.5660    0.4950    0.3680 C   0  0  0  0  0  0  0  0  0  0  0  0
    2.8220   -0.9160    0.6720 C   0  0  0  0  0  0  0  0  0  0  0  0
    1.9600   -1.8030    0.0860 O   0  0  0  0  0  0  0  0  0  0  0  0
    0.8610   -1.2550   -0.5160 C   0  0  0  0  0  0  0  0  0  0  0  0
    0.2410   -0.1140    0.2290 C   0  0  2  0  0  0  0  0  0  0  0  0
   -0.8930    0.4520   -0.5700 C   0  0  1  0  0  0  0  0  0  0  0  0
   -1.4560    1.6410    0.0630 N   0  0  0  0  0  0  0  0  0  0  0  0
   -0.3800    0.8540   -1.8080 O   0  0  0  0  0  0  0  0  0  0  0  0
   -1.9880   -0.5340   -0.8380 C   0  0  0  0  0  0  0  0  0  0  0  0
   -2.6200   -1.0760    0.4170 C   0  0  0  0  0  0  0  0  0  0  0  0
   -3.1880   -0.0790    1.1970 O   0  0  0  0  0  0  0  0  0  0  0  0
    1.2380    0.9160    0.3100 O   0  0  0  0  0  0  0  0  0  0  0  0
  1  2  2  0
  2  3  1  0
  2 13  1  0
  3  4  1  0
  4  5  1  0
  6  5  1  6
  6  7  1  0
  6 13  1  0
  7  8  1  1
  7  9  1  0
  7 10  1  0
 10 11  1  0
 11 12  1  0
M  CHG  1   8   1
M  END
