
     RDKit          3D

 12 13  0  0  0  0  0  0  0  0999 V2000
    2.3900   -0.9360   -0.3330 N   0  0  0  0  0  0  0  0  0  0  0  0
    1.7270    0.3110   -0.1160 C   0  0  0  0  0  0  0  0  0  0  0  0
    0.2780    0.1820    0.2600 C   0  0  1  0  0  0  0  0  0  0  0  0
   -0.3270    1.5530    0.4670 C   0  0  0  0  0  0  0  0  0  0  0  0
   -0.9930    2.0910   -0.7580 C   0  0  0  0  0  0  0  0  0  0  0  0
   -1.0530    1.2040   -1.8100 O   0  0  0  0  0  0  0  0  0  0  0  0
   -1.6150    0.0020   -1.3790 C   0  0  0  0  0  0  0  0  0  0  0  0
   -0.5510   -0.7230   -0.5760 C   0  0  1  0  0  0  0  0  0  0  0  0
    0.1230   -1.6190   -1.3920 O   0  0  0  0  0  0  0  0  0  0  0  0
   -1.0960   -1.4040    0.6680 C   0  0  0  0  0  0  0  0  0  0  0  0
   -0.0100   -0.6900    1.4590 C   0  0  2  0  0  0  0  0  0  0  0  0
   -0.6200   -0.0110    2.5300 O   0  0  0  0  0  0  0  0  0  0  0  0
  1  2  1  0
  3  2  1  6
  3  4  1  0
  3  8  1  0
  3 11  1  0
  4  5  1  0
  5  6  1  0
  6  7  1  0
  7  8  1  0
  8  9  1  6
  8 10  1  0
 10 11  1  0
 11 12  1  1
M  CHG  1   1   1
M  END
