
     RDKit          3D

 12 13  0  0  0  0  0  0  0  0999 V2000
   -2.9170    0.8450   -0.1060 N   0  0  0  0  0  0  0  0  0  0  0  0
   -2.1080   -0.3000   -0.4430 C   0  0  0  0  0  0  0  0  0  0  0  0
   -0.8230   -0.2940    0.4210 C   0  0  2  0  0  0  0  0  0  0  0  0
   -0.0680    0.9150    0.1730 C   0  0  0  0  0  0  0  0  0  0  0  0
    1.2000    0.9120   -0.1240 C   0  0  0  0  0  0  0  0  0  0  0  0
    2.1230    1.9380   -0.4000 O   0  0  0  0  0  0  0  0  0  0  0  0
    3.4390    1.3900   -0.3940 C   0  0  0  0  0  0  0  0  0  0  0  0
    3.2420   -0.0170   -0.5470 O   0  0  0  0  0  0  0  0  0  0  0  0
    1.9310   -0.3430   -0.2210 C   0  0  0  0  0  0  0  0  0  0  0  0
    1.3100   -1.4840   -0.0100 C   0  0  0  0  0  0  0  0  0  0  0  0
   -0.1060   -1.5670    0.3270 C   0  0  2  0  0  0  0  0  0  0  0  0
   -0.7260   -2.3420   -0.7160 O   0  0  0  0  0  0  0  0  0  0  0  0
  1  2  1  0
  3  2  1  6
  3  4  1  0
  3 11  1  0
  4  5  2  0
  5  6  1  0
  5  9  1  0
  6  7  1  0
  7  8  1  0
  8  9  1  0
  9 10  2  0
 10 11  1  0
 11 12  1  6
M  CHG  1   1   1
M  END
