
     RDKit          3D

 12 13  0  0  0  0  0  0  0  0999 V2000
   -2.7720    1.2220    0.3910 N   0  0  0  0  0  0  0  0  0  0  0  0
   -1.9210    0.3830   -0.4310 C   0  0  1  0  0  0  0  0  0  0  0  0
   -0.5730    0.9880   -0.6870 C   0  0  0  0  0  0  0  0  0  0  0  0
    0.4340    0.2580    0.1390 C   0  0  1  0  0  0  0  0  0  0  0  0
   -0.3790   -0.6660    1.0490 C   0  0  0  0  0  0  0  0  0  0  0  0
   -1.6850   -0.8990    0.3550 C   0  0  2  0  0  0  0  0  0  0  0  0
   -1.6800   -2.0000   -0.4770 O   0  0  0  0  0  0  0  0  0  0  0  0
    1.3310   -0.6460   -0.6810 C   0  0  0  0  0  0  0  0  0  0  0  0
    2.6320   -0.4850    0.1200 C   0  0  1  0  0  0  0  0  0  0  0  0
    3.7370   -0.8400   -0.5890 O   0  0  0  0  0  0  0  0  0  0  0  0
    2.5250    1.0260    0.3530 C   0  0  0  0  0  0  0  0  0  0  0  0
    1.2320    1.1100    0.8520 O   0  0  0  0  0  0  0  0  0  0  0  0
  2  1  1  1
  2  3  1  0
  2  6  1  0
  4  3  1  6
  4  5  1  0
  4  8  1  0
  4 12  1  0
  5  6  1  0
  6  7  1  6
  8  9  1  0
  9 10  1  6
  9 11  1  0
 11 12  1  0
M  CHG  1   1   1
M  END
