
     RDKit          3D

 13 13  0  0  0  0  0  0  0  0999 V2000
    2.8830    1.9720    0.1230 C   0  0  0  0  0  0  0  0  0  0  0  0
    2.4280    0.5770   -0.1110 C   0  0  0  0  0  0  0  0  0  0  0  0
    1.1010    0.3790   -0.1570 C   0  0  0  0  0  0  0  0  0  0  0  0
    0.2890    1.4920    0.0180 O   0  0  0  0  0  0  0  0  0  0  0  0
   -1.1030    1.4410    0.2660 C   0  0  0  0  0  0  0  0  0  0  0  0
   -1.3930    0.3140    1.1870 C   0  0  1  0  0  0  0  0  0  0  0  0
   -2.5870    0.6230    1.8760 O   0  0  0  0  0  0  0  0  0  0  0  0
   -1.5840   -1.0210    0.5420 C   0  0  1  0  0  0  0  0  0  0  0  0
   -2.4800   -0.9660   -0.5710 N   0  0  0  0  0  0  0  0  0  0  0  0
   -0.3450   -1.6470    0.1940 O   0  0  0  0  0  0  0  0  0  0  0  0
    0.7490   -1.0190   -0.3910 C   0  0  0  0  0  0  0  0  0  0  0  0
    1.5170   -1.7150   -1.2030 C   0  0  0  0  0  0  0  0  0  0  0  0
    1.2050   -3.0430   -1.4410 O   0  0  0  0  0  0  0  0  0  0  0  0
  1  2  1  0
  2  3  2  3
  3  4  1  0
  3 11  1  0
  4  5  1  0
  5  6  1  0
  6  7  1  6
  6  8  1  0
  8  9  1  6
  8 10  1  0
 10 11  1  0
 11 12  2  3
 12 13  1  0
M  CHG  1   9   1
M  END
