
     RDKit          3D

 12 12  0  0  0  0  0  0  0  0999 V2000
   -2.0120   -0.3350   -1.0120 C   0  0  0  0  0  0  0  0  0  0  0  0
   -0.9610    0.2330   -0.0910 C   0  0  1  0  0  0  0  0  0  0  0  0
   -0.9190    1.7260   -0.2770 C   0  0  0  0  0  0  0  0  0  0  0  0
   -2.1620    2.2530   -0.0060 O   0  0  0  0  0  0  0  0  0  0  0  0
   -1.3260   -0.1440    1.2610 N   0  0  0  0  0  0  0  0  0  0  0  0
   -0.9480   -1.5450    1.3310 C   0  0  0  0  0  0  0  0  0  0  0  0
    0.2680   -1.6950    0.4290 C   0  0  0  0  0  0  0  0  0  0  0  0
    0.3400   -0.4420   -0.3830 C   0  0  1  0  0  0  0  0  0  0  0  0
    0.4010   -0.7130   -1.7370 O   0  0  0  0  0  0  0  0  0  0  0  0
    1.4980    0.4510    0.0010 C   0  0  0  0  0  0  0  0  0  0  0  0
    2.8290   -0.1750   -0.2690 C   0  0  0  0  0  0  0  0  0  0  0  0
    3.8150    0.7320    0.1200 O   0  0  0  0  0  0  0  0  0  0  0  0
  2  1  1  6
  2  3  1  0
  2  5  1  0
  2  8  1  0
  3  4  1  0
  5  6  1  0
  6  7  1  0
  7  8  1  0
  8  9  1  6
  8 10  1  0
 10 11  1  0
 11 12  1  0
M  CHG  1   5   1
M  END
