
     RDKit          3D

 32 32  0  0  0  0  0  0  0  0999 V2000
    4.4100   -1.1700   -1.7020 O   0  0  0  0  0  0  0  0  0  0  0  0
    5.7870   -1.0540   -1.6340 C   0  0  0  0  0  0  0  0  0  0  0  0
    6.1760    0.1430   -0.7900 C   0  0  2  0  0  0  0  0  0  0  0  0
    7.5420    0.2820   -0.7050 O   0  0  0  0  0  0  0  0  0  0  0  0
    5.5160   -0.0330    0.5680 C   0  0  2  0  0  0  0  0  0  0  0  0
    5.9940   -1.1640    1.2210 O   0  0  0  0  0  0  0  0  0  0  0  0
    4.1440   -0.2080    0.3140 O   0  0  0  0  0  0  0  0  0  0  0  0
    3.4070    0.8010    0.9320 C   0  0  0  0  0  0  0  0  0  0  0  0
    1.9450    0.5250    0.6000 C   0  0  1  0  0  0  0  0  0  0  0  0
    1.6490   -0.8630    1.0650 C   0  0  0  0  0  0  0  0  0  0  0  0
    0.3270   -1.0440    1.4510 O   0  0  0  0  0  0  0  0  0  0  0  0
   -0.0540   -2.3600    1.4910 C   0  0  2  0  0  0  0  0  0  0  0  0
    1.0040   -3.2320    1.7450 O   0  0  0  0  0  0  0  0  0  0  0  0
   -0.8210   -2.8100    0.2890 C   0  0  1  0  0  0  0  0  0  0  0  0
   -0.4270   -4.0930   -0.1010 O   0  0  0  0  0  0  0  0  0  0  0  0
   -2.3240   -2.7650    0.5480 C   0  0  0  0  0  0  0  0  0  0  0  0
   -2.8780   -1.4020    0.1610 C   0  0  2  0  0  0  0  0  0  0  0  0
   -2.7960   -0.5060    1.2090 O   0  0  0  0  0  0  0  0  0  0  0  0
   -4.2730   -1.5060   -0.4030 C   0  0  0  0  0  0  0  0  0  0  0  0
   -4.7770   -0.0980   -0.6260 C   0  0  2  0  0  0  0  0  0  0  0  0
   -5.6910   -0.1310   -1.8310 C   0  0  0  0  0  0  0  0  0  0  0  0
   -5.0180   -0.5010   -2.9710 O   0  0  0  0  0  0  0  0  0  0  0  0
   -3.7260    0.8120   -0.8020 O   0  0  0  0  0  0  0  0  0  0  0  0
   -4.1030    1.9950   -0.1960 C   0  0  0  0  0  0  0  0  0  0  0  0
   -3.4000    3.2030   -0.6960 C   0  0  0  0  0  0  0  0  0  0  0  0
   -2.0650    3.0250   -0.9850 O   0  0  0  0  0  0  0  0  0  0  0  0
   -1.3210    2.5350    0.0650 C   0  0  1  0  0  0  0  0  0  0  0  0
   -0.8040    1.2930   -0.3430 O   0  0  0  0  0  0  0  0  0  0  0  0
   -0.1440    3.4030    0.4280 C   0  0  1  0  0  0  0  0  0  0  0  0
   -0.3900    4.1310    1.5960 O   0  0  0  0  0  0  0  0  0  0  0  0
    1.1540    2.6600    0.4810 C   0  0  0  0  0  0  0  0  0  0  0  0
    1.1060    1.4770    1.1690 O   0  0  0  0  0  0  0  0  0  0  0  0
  1  2  1  0
  2  3  1  0
  3  4  1  1
  3  5  1  0
  5  6  1  6
  5  7  1  0
  7  8  1  0
  9  8  1  1
  9 10  1  0
  9 32  1  0
 10 11  1  0
 11 12  1  0
 12 13  1  6
 12 14  1  0
 14 15  1  1
 14 16  1  0
 16 17  1  0
 17 18  1  1
 17 19  1  0
 19 20  1  0
 20 21  1  6
 20 23  1  0
 21 22  1  0
 23 24  1  0
 24 25  1  0
 25 26  1  0
 26 27  1  0
 27 28  1  6
 27 29  1  0
 29 30  1  1
 29 31  1  0
 31 32  1  0
M  END
