
     RDKit          3D

 32 33  0  0  0  0  0  0  0  0999 V2000
   -2.9730    1.5070   -1.6400 C   0  0  0  0  0  0  0  0  0  0  0  0
   -3.2870    1.5100   -0.1800 C   0  0  2  0  0  0  0  0  0  0  0  0
   -4.3630    2.4120   -0.0020 O   0  0  0  0  0  0  0  0  0  0  0  0
   -2.2250    2.0630    0.5400 O   0  0  0  0  0  0  0  0  0  0  0  0
   -1.0060    1.4280    0.2700 C   0  0  1  0  0  0  0  0  0  0  0  0
    0.0330    2.2520    0.9220 C   0  0  0  0  0  0  0  0  0  0  0  0
   -0.0110    3.4680    0.6130 O   0  0  0  0  0  0  0  0  0  0  0  0
    0.9330    1.7460    1.7610 O   0  0  0  0  0  0  0  0  0  0  0  0
    2.0430    0.9330    1.6760 C   0  0  0  0  0  0  0  0  0  0  0  0
    2.6080    0.7290    0.2900 C   0  0  1  0  0  0  0  0  0  0  0  0
    3.1420    1.8670   -0.2890 O   0  0  0  0  0  0  0  0  0  0  0  0
    2.6490    2.5160   -1.4060 C   0  0  0  0  0  0  0  0  0  0  0  0
    1.6420    2.0190   -1.9190 O   0  0  0  0  0  0  0  0  0  0  0  0
    3.2460    3.6540   -1.9200 O   0  0  0  0  0  0  0  0  0  0  0  0
    3.4940   -0.4860    0.2070 C   0  0  2  0  0  0  0  0  0  0  0  0
    2.9190   -1.4830    0.9940 O   0  0  0  0  0  0  0  0  0  0  0  0
    4.8890   -0.2620    0.7040 C   0  0  0  0  0  0  0  0  0  0  0  0
    4.8110    0.1330    2.0330 O   0  0  0  0  0  0  0  0  0  0  0  0
    3.5860   -0.9990   -1.2140 C   0  0  0  0  0  0  0  0  0  0  0  0
    2.7080   -2.2190   -1.4170 C   0  0  2  0  0  0  0  0  0  0  0  0
    3.0230   -2.8130   -2.6390 O   0  0  0  0  0  0  0  0  0  0  0  0
    1.3640   -1.8450   -1.4730 O   0  0  0  0  0  0  0  0  0  0  0  0
    0.5670   -2.7690   -0.8050 C   0  0  0  0  0  0  0  0  0  0  0  0
   -0.3730   -2.0830    0.1690 C   0  0  0  0  0  0  0  0  0  0  0  0
   -0.8520   -0.8800   -0.3480 O   0  0  0  0  0  0  0  0  0  0  0  0
   -1.1070    0.0210    0.7150 C   0  0  2  0  0  0  0  0  0  0  0  0
   -2.4620   -0.3730    1.2540 C   0  0  0  0  0  0  0  0  0  0  0  0
   -3.5940    0.1890    0.4120 C   0  0  2  0  0  0  0  0  0  0  0  0
   -3.9850   -0.8700   -0.5800 C   0  0  0  0  0  0  0  0  0  0  0  0
   -5.1160   -0.5460   -1.3120 O   0  0  0  0  0  0  0  0  0  0  0  0
   -4.7730    0.3720    1.3610 C   0  0  0  0  0  0  0  0  0  0  0  0
   -5.0960   -0.8470    1.9400 O   0  0  0  0  0  0  0  0  0  0  0  0
  2  1  1  6
  2  3  1  0
  2  4  1  0
  2 28  1  0
  5  4  1  1
  5  6  1  0
  5 26  1  0
  6  7  2  0
  6  8  1  0
  8  9  1  0
  9 10  1  0
 10 11  1  1
 10 15  1  0
 11 12  1  0
 12 13  2  0
 12 14  1  0
 15 16  1  1
 15 17  1  0
 15 19  1  0
 17 18  1  0
 19 20  1  0
 20 21  1  6
 20 22  1  0
 22 23  1  0
 23 24  1  0
 24 25  1  0
 25 26  1  0
 26 27  1  6
 27 28  1  0
 28 29  1  6
 28 31  1  0
 29 30  1  0
 31 32  1  0
M  END
