
     RDKit          3D

 32 33  0  0  0  0  0  0  0  0999 V2000
    3.8280   -3.1220    1.1470 O   0  0  0  0  0  0  0  0  0  0  0  0
    4.5550   -2.9060    2.1390 C   0  0  0  0  0  0  0  0  0  0  0  0
    4.9040   -3.9560    2.9610 O   0  0  0  0  0  0  0  0  0  0  0  0
    5.0380   -1.5420    2.4310 C   0  0  0  0  0  0  0  0  0  0  0  0
    4.5530   -0.6660    1.4640 O   0  0  0  0  0  0  0  0  0  0  0  0
    3.2230   -0.4260    1.1970 C   0  0  0  0  0  0  0  0  0  0  0  0
    2.3560   -1.0200    1.8510 O   0  0  0  0  0  0  0  0  0  0  0  0
    2.8610    0.5260    0.1460 C   0  0  2  0  0  0  0  0  0  0  0  0
    3.6340    1.8220    0.2720 C   0  0  0  0  0  0  0  0  0  0  0  0
    3.3870    2.5130    1.5840 C   0  0  0  0  0  0  0  0  0  0  0  0
    4.1200    3.6960    1.6480 O   0  0  0  0  0  0  0  0  0  0  0  0
    1.4980    0.7300   -0.0770 O   0  0  0  0  0  0  0  0  0  0  0  0
    0.8200    0.4230   -1.2440 C   0  0  0  0  0  0  0  0  0  0  0  0
    1.5950   -0.0970   -2.1280 O   0  0  0  0  0  0  0  0  0  0  0  0
   -0.6160    0.6400   -1.5140 C   0  0  1  0  0  0  0  0  0  0  0  0
   -0.8220    0.3420   -2.9650 C   0  0  2  0  0  0  0  0  0  0  0  0
   -0.2960    1.3890   -3.7570 O   0  0  0  0  0  0  0  0  0  0  0  0
   -2.1710    0.0020   -3.4320 C   0  0  1  0  0  0  0  0  0  0  0  0
   -2.0410   -0.9380   -4.4930 O   0  0  0  0  0  0  0  0  0  0  0  0
   -3.0090   -0.5920   -2.5320 O   0  0  0  0  0  0  0  0  0  0  0  0
   -2.8710    0.0240   -1.2220 C   0  0  1  0  0  0  0  0  0  0  0  0
   -3.0620    1.5310   -1.4360 C   0  0  0  0  0  0  0  0  0  0  0  0
   -4.5710    1.5790   -1.6550 C   0  0  0  0  0  0  0  0  0  0  0  0
   -5.0370    0.2620   -1.5830 O   0  0  0  0  0  0  0  0  0  0  0  0
   -4.1340   -0.3010   -0.5670 C   0  0  0  0  0  0  0  0  0  0  0  0
   -1.5430   -0.3450   -0.7450 C   0  0  1  0  0  0  0  0  0  0  0  0
   -1.1880   -1.5990   -1.3150 O   0  0  0  0  0  0  0  0  0  0  0  0
   -1.2420   -0.3360    0.6810 C   0  0  0  0  0  0  0  0  0  0  0  0
   -1.9260   -1.2590    1.6200 C   0  0  2  0  0  0  0  0  0  0  0  0
   -3.2530   -1.2410    1.8000 O   0  0  0  0  0  0  0  0  0  0  0  0
   -1.2590   -1.2020    3.0110 C   0  0  0  0  0  0  0  0  0  0  0  0
   -1.6500   -0.0370    3.6360 O   0  0  0  0  0  0  0  0  0  0  0  0
  1  2  2  0
  2  3  1  0
  2  4  1  0
  4  5  1  0
  5  6  1  0
  6  7  2  0
  6  8  1  0
  8  9  1  1
  8 12  1  0
  9 10  1  0
 10 11  1  0
 12 13  1  0
 13 14  2  0
 15 13  1  1
 15 16  1  0
 15 26  1  0
 16 17  1  6
 16 18  1  0
 18 19  1  6
 18 20  1  0
 20 21  1  0
 21 22  1  6
 21 25  1  0
 21 26  1  0
 22 23  1  0
 23 24  1  0
 24 25  1  0
 26 27  1  6
 26 28  1  0
 28 29  1  0
 29 30  1  1
 29 31  1  0
 31 32  1  0
M  END
