
     RDKit          3D

 33 36  0  0  0  0  0  0  0  0999 V2000
   -6.4890    2.2110   -3.5720 N   0  0  0  0  0  0  0  0  0  0  0  0
   -6.5870    1.3800   -2.4450 C   0  0  0  0  0  0  0  0  0  0  0  0
   -7.6120    1.2030   -1.5440 C   0  0  0  0  0  0  0  0  0  0  0  0
   -7.4710    0.3450   -0.5410 C   0  0  0  0  0  0  0  0  0  0  0  0
   -6.2340   -0.3540   -0.4640 C   0  0  0  0  0  0  0  0  0  0  0  0
   -5.8470   -1.2910    0.6150 C   0  0  0  0  0  0  0  0  0  0  0  0
   -6.7780   -2.0390    1.2780 C   0  0  0  0  0  0  0  0  0  0  0  0
   -8.4540   -2.0250    0.7580 Cl  0  0  0  0  0  0  0  0  0  0  0  0
   -6.4740   -2.8960    2.3460 C   0  0  0  0  0  0  0  0  0  0  0  0
   -5.1630   -2.9600    2.7110 C   0  0  0  0  0  0  0  0  0  0  0  0
   -4.1610   -2.2280    2.0810 C   0  0  0  0  0  0  0  0  0  0  0  0
   -4.5140   -1.4030    1.0430 C   0  0  0  0  0  0  0  0  0  0  0  0
   -3.5500   -0.5860    0.4440 N   0  0  0  0  0  0  0  0  0  0  0  0
   -2.1460   -0.7430    0.5830 C   0  0  0  0  0  0  0  0  0  0  0  0
   -1.5990   -1.6350    1.2420 O   0  0  0  0  0  0  0  0  0  0  0  0
   -1.2260    0.1680   -0.0660 N   0  0  0  0  0  0  0  0  0  0  0  0
    0.2160    0.0040    0.0780 C   0  0  1  0  0  0  0  0  0  0  0  0
    0.8950   -0.1670   -1.2540 C   0  0  0  0  0  0  0  0  0  0  0  0
    2.1420    0.6840   -1.3720 C   0  0  0  0  0  0  0  0  0  0  0  0
    2.8260    0.6360   -0.0950 N   0  0  0  0  0  0  0  0  0  0  0  0
    4.0830    0.0010    0.0740 C   0  0  0  0  0  0  0  0  0  0  0  0
    4.6240   -0.0080    1.2000 O   0  0  0  0  0  0  0  0  0  0  0  0
    4.7090   -0.6380   -1.1280 C   0  0  0  0  0  0  0  0  0  0  0  0
    5.9730   -1.1680   -0.8860 O   0  0  0  0  0  0  0  0  0  0  0  0
    7.0140   -0.3350   -0.5070 C   0  0  0  0  0  0  0  0  0  0  0  0
    6.9060    1.0200   -0.3630 C   0  0  0  0  0  0  0  0  0  0  0  0
    7.9580    1.8440    0.0210 C   0  0  0  0  0  0  0  0  0  0  0  0
    9.1830    1.2880    0.2750 C   0  0  0  0  0  0  0  0  0  0  0  0
    9.3230   -0.0720    0.1390 C   0  0  0  0  0  0  0  0  0  0  0  0
    8.2780   -0.8730   -0.2400 C   0  0  0  0  0  0  0  0  0  0  0  0
    2.1730    1.2680    1.0230 C   0  0  0  0  0  0  0  0  0  0  0  0
    0.6990    1.2600    0.8050 C   0  0  0  0  0  0  0  0  0  0  0  0
   -5.3740    0.2420   -1.7910 S   0  0  0  0  0  0  0  0  0  0  0  0
  1  2  1  0
  2  3  2  0
  2 33  1  0
  3  4  1  0
  4  5  2  0
  5  6  1  0
  5 33  1  0
  6  7  2  0
  6 12  1  0
  7  8  1  0
  7  9  1  0
  9 10  2  0
 10 11  1  0
 11 12  2  0
 12 13  1  0
 13 14  1  0
 14 15  2  0
 14 16  1  0
 17 16  1  6
 17 18  1  0
 17 32  1  0
 18 19  1  0
 19 20  1  0
 20 21  1  0
 20 31  1  0
 21 22  2  0
 21 23  1  0
 23 24  1  0
 24 25  1  0
 25 26  2  0
 25 30  1  0
 26 27  1  0
 27 28  2  0
 28 29  1  0
 29 30  2  0
 31 32  1  0
M  END
