
     RDKit          3D

 33 36  0  0  0  0  0  0  0  0999 V2000
    5.3930   -0.9180   -0.6320 C   0  0  0  0  0  0  0  0  0  0  0  0
    6.2590    0.1010   -0.0150 C   0  0  0  0  0  0  0  0  0  0  0  0
    7.5150    0.3320   -0.5410 C   0  0  0  0  0  0  0  0  0  0  0  0
    8.3690    1.2790    0.0010 C   0  0  0  0  0  0  0  0  0  0  0  0
    7.9080    1.9860    1.0960 C   0  0  0  0  0  0  0  0  0  0  0  0
    6.6520    1.7530    1.6200 C   0  0  0  0  0  0  0  0  0  0  0  0
    6.1430    2.6920    3.0080 Cl  0  0  0  0  0  0  0  0  0  0  0  0
    5.8050    0.8040    1.0710 C   0  0  0  0  0  0  0  0  0  0  0  0
    4.5240    0.6120    1.6590 N   0  0  0  0  0  0  0  0  0  0  0  0
    3.3580    1.3140    1.2830 C   0  0  0  0  0  0  0  0  0  0  0  0
    3.4620    2.1680    0.3640 O   0  0  0  0  0  0  0  0  0  0  0  0
    2.0890    1.1240    1.8650 N   0  0  0  0  0  0  0  0  0  0  0  0
    0.8960    1.8480    1.4740 C   0  0  0  0  0  0  0  0  0  0  0  0
    0.3430    1.3560    0.1980 C   0  0  0  0  0  0  0  0  0  0  0  0
   -0.0450    2.2070   -0.8130 C   0  0  0  0  0  0  0  0  0  0  0  0
   -0.5610    1.7290   -1.9970 C   0  0  0  0  0  0  0  0  0  0  0  0
   -0.6880    0.3660   -2.1620 C   0  0  0  0  0  0  0  0  0  0  0  0
   -0.3080   -0.4940   -1.1690 C   0  0  0  0  0  0  0  0  0  0  0  0
   -0.4270   -1.9010   -1.3170 N   0  0  0  0  0  0  0  0  0  0  0  0
   -1.8790   -2.5460   -1.9540 S   0  0  1  0  0  0  0  0  0  0  0  0
   -2.1840   -2.0810   -3.3280 O   0  0  0  0  0  0  0  0  0  0  0  0
   -1.7090   -4.0540   -1.9980 O   0  0  0  0  0  0  0  0  0  0  0  0
   -3.2070   -2.1300   -0.8930 C   0  0  0  0  0  0  0  0  0  0  0  0
   -3.5830   -2.9680    0.1450 C   0  0  0  0  0  0  0  0  0  0  0  0
   -4.6260   -2.6480    0.9840 C   0  0  0  0  0  0  0  0  0  0  0  0
   -5.3330   -1.4730    0.8130 C   0  0  0  0  0  0  0  0  0  0  0  0
   -4.9710   -0.6420   -0.2050 C   0  0  0  0  0  0  0  0  0  0  0  0
   -3.9200   -0.9610   -1.0530 C   0  0  0  0  0  0  0  0  0  0  0  0
   -5.6630    0.6590   -0.4850 C   0  0  0  0  0  0  0  0  0  0  0  0
   -6.4710    1.0520    0.6650 N   0  0  0  0  0  0  0  0  0  0  0  0
   -7.3160   -0.0890    0.9720 C   0  0  0  0  0  0  0  0  0  0  0  0
   -6.4600   -1.1030    1.7000 C   0  0  0  0  0  0  0  0  0  0  0  0
    0.2010    0.0030   -0.0030 C   0  0  0  0  0  0  0  0  0  0  0  0
  1  2  1  0
  2  3  2  0
  2  8  1  0
  3  4  1  0
  4  5  2  0
  5  6  1  0
  6  7  1  0
  6  8  2  0
  8  9  1  0
  9 10  1  0
 10 11  2  0
 10 12  1  0
 12 13  1  0
 13 14  1  0
 14 15  2  0
 14 33  1  0
 15 16  1  0
 16 17  2  0
 17 18  1  0
 18 19  1  0
 18 33  2  0
 20 19  1  1
 20 21  2  0
 20 22  2  0
 20 23  1  0
 23 24  2  0
 23 28  1  0
 24 25  1  0
 25 26  2  0
 26 27  1  0
 26 32  1  0
 27 28  2  0
 27 29  1  0
 29 30  1  0
 30 31  1  0
 31 32  1  0
M  END
