
     RDKit          3D

 33 35  0  0  0  0  0  0  0  0999 V2000
    1.6450   -4.6280    2.7870 C   0  0  0  0  0  0  0  0  0  0  0  0
    0.7650   -4.7090    1.6170 C   0  0  0  0  0  0  0  0  0  0  0  0
    0.2850   -3.6090    0.9670 C   0  0  0  0  0  0  0  0  0  0  0  0
   -0.5560   -3.8120   -0.1500 C   0  0  0  0  0  0  0  0  0  0  0  0
   -1.1710   -2.9720   -0.9020 C   0  0  0  0  0  0  0  0  0  0  0  0
   -1.1960   -1.5120   -0.8200 C   0  0  0  0  0  0  0  0  0  0  0  0
   -2.6550   -1.0460   -0.6760 C   0  0  0  0  0  0  0  0  0  0  0  0
   -3.5660   -1.8890   -0.6460 O   0  0  0  0  0  0  0  0  0  0  0  0
   -2.9370    0.3230   -0.5810 N   0  0  0  0  0  0  0  0  0  0  0  0
   -4.2110    0.9010   -0.4450 C   0  0  0  0  0  0  0  0  0  0  0  0
   -4.2610    2.3000   -0.4070 C   0  0  0  0  0  0  0  0  0  0  0  0
   -5.4530    2.9780   -0.2750 C   0  0  0  0  0  0  0  0  0  0  0  0
   -5.5010    4.4570   -0.2350 C   0  0  0  0  0  0  0  0  0  0  0  0
   -6.6460    2.2990   -0.1750 C   0  0  0  0  0  0  0  0  0  0  0  0
   -6.6420    0.9290   -0.2080 C   0  0  0  0  0  0  0  0  0  0  0  0
   -8.1630   -0.0110   -0.0820 S   0  0  0  0  0  0  0  0  0  0  0  0
   -5.4120    0.2660   -0.3430 C   0  0  0  0  0  0  0  0  0  0  0  0
    0.7450   -2.4040    1.5180 N   0  0  0  0  0  0  0  0  0  0  0  0
    1.7380   -1.5980    0.8220 C   0  0  0  0  0  0  0  0  0  0  0  0
    2.1520   -2.0280   -0.2730 O   0  0  0  0  0  0  0  0  0  0  0  0
    2.1890   -0.3920    1.3870 N   0  0  0  0  0  0  0  0  0  0  0  0
    3.1500    0.4770    0.8300 C   0  0  0  0  0  0  0  0  0  0  0  0
    3.3200    1.7580    1.3680 C   0  0  0  0  0  0  0  0  0  0  0  0
    4.2490    2.6140    0.8590 C   0  0  0  0  0  0  0  0  0  0  0  0
    5.0680    2.2750   -0.2020 C   0  0  0  0  0  0  0  0  0  0  0  0
    5.9900    3.1050   -0.7180 N   0  0  0  0  0  0  0  0  0  0  0  0
    6.7740    2.7290   -1.7620 C   0  0  0  0  0  0  0  0  0  0  0  0
    6.6510    1.4720   -2.3350 C   0  0  0  0  0  0  0  0  0  0  0  0
    7.6610    0.9700   -3.6910 Cl  0  0  0  0  0  0  0  0  0  0  0  0
    5.6960    0.6330   -1.7900 C   0  0  0  0  0  0  0  0  0  0  0  0
    5.5790   -0.5130   -2.3070 O   0  0  0  0  0  0  0  0  0  0  0  0
    4.8980    1.0140   -0.7270 C   0  0  0  0  0  0  0  0  0  0  0  0
    3.9440    0.1180   -0.2150 C   0  0  0  0  0  0  0  0  0  0  0  0
  1  2  1  0
  2  3  2  3
  3  4  1  0
  3 18  1  0
  4  5  2  3
  5  6  1  0
  6  7  1  0
  7  8  2  0
  7  9  1  0
  9 10  1  0
 10 11  2  0
 10 17  1  0
 11 12  1  0
 12 13  1  0
 12 14  2  0
 14 15  1  0
 15 16  1  0
 15 17  2  0
 18 19  1  0
 19 20  2  0
 19 21  1  0
 21 22  1  0
 22 23  2  0
 22 33  1  0
 23 24  1  0
 24 25  2  0
 25 26  1  0
 25 32  1  0
 26 27  1  0
 27 28  2  0
 28 29  1  0
 28 30  1  0
 30 31  2  0
 30 32  1  0
 32 33  2  0
M  END
