
     RDKit          3D

 33 33  0  0  0  0  0  0  0  0999 V2000
    2.1830   -2.8320   -1.1600 C   0  0  0  0  0  0  0  0  0  0  0  0
    1.1300   -3.7530   -0.6090 C   0  0  2  0  0  0  0  0  0  0  0  0
    0.1150   -4.1040   -1.6590 C   0  0  0  0  0  0  0  0  0  0  0  0
    0.5780   -3.3360    0.7010 C   0  0  0  0  0  0  0  0  0  0  0  0
   -0.0870   -2.0110    0.7790 C   0  0  2  0  0  0  0  0  0  0  0  0
   -1.2300   -1.8380   -0.0800 N   0  0  0  0  0  0  0  0  0  0  0  0
   -2.5520   -1.6820    0.3600 C   0  0  0  0  0  0  0  0  0  0  0  0
   -2.7800   -1.6910    1.6000 O   0  0  0  0  0  0  0  0  0  0  0  0
   -3.7250   -1.5040   -0.5540 C   0  0  2  0  0  0  0  0  0  0  0  0
   -3.3890   -0.5290   -1.6190 C   0  0  0  0  0  0  0  0  0  0  0  0
   -2.9860    0.8380   -1.2610 C   0  0  0  0  0  0  0  0  0  0  0  0
   -3.9610    1.6830   -0.4990 C   0  0  0  0  0  0  0  0  0  0  0  0
   -3.3050    3.0630   -0.2960 C   0  0  0  0  0  0  0  0  0  0  0  0
   -3.0380    3.6140   -1.5960 N   0  0  0  0  0  0  0  0  0  0  0  0
   -4.9660   -1.3770    0.1060 N   0  0  0  0  0  0  0  0  0  0  0  0
   -6.0440   -2.2810   -0.1770 C   0  0  0  0  0  0  0  0  0  0  0  0
   -5.9260   -3.2110   -1.0150 O   0  0  0  0  0  0  0  0  0  0  0  0
   -7.3390   -2.1220    0.5360 C   0  0  1  0  0  0  0  0  0  0  0  0
   -8.2380   -3.0660    0.1190 F   0  0  0  0  0  0  0  0  0  0  0  0
   -7.1660   -2.3320    1.9110 F   0  0  0  0  0  0  0  0  0  0  0  0
   -7.8120   -0.8430    0.3260 F   0  0  0  0  0  0  0  0  0  0  0  0
    0.8610   -0.8520    0.6700 C   0  0  0  0  0  0  0  0  0  0  0  0
    0.5510    0.0500   -0.1020 O   0  0  0  0  0  0  0  0  0  0  0  0
    2.0220   -0.8690    1.4410 N   0  0  0  0  0  0  0  0  0  0  0  0
    2.9810    0.1830    1.3980 C   0  0  0  0  0  0  0  0  0  0  0  0
    3.9720    0.2000    2.3800 C   0  0  0  0  0  0  0  0  0  0  0  0
    4.9380    1.1660    2.3990 C   0  0  0  0  0  0  0  0  0  0  0  0
    5.0020    2.1750    1.4650 C   0  0  0  0  0  0  0  0  0  0  0  0
    6.0570    3.2230    1.4920 C   0  0  1  0  0  0  0  0  0  0  0  0
    6.7440    3.2280    0.1570 C   0  0  0  0  0  0  0  0  0  0  0  0
    5.4430    4.5960    1.7420 C   0  0  0  0  0  0  0  0  0  0  0  0
    4.0280    2.1650    0.4950 C   0  0  0  0  0  0  0  0  0  0  0  0
    3.0300    1.1780    0.4620 C   0  0  0  0  0  0  0  0  0  0  0  0
  2  1  1  6
  2  3  1  0
  2  4  1  0
  5  4  1  6
  5  6  1  0
  5 22  1  0
  6  7  1  0
  7  8  2  0
  7  9  1  0
  9 10  1  1
  9 15  1  0
 10 11  1  0
 11 12  1  0
 12 13  1  0
 13 14  1  0
 15 16  1  0
 16 17  2  0
 16 18  1  0
 18 19  1  6
 18 20  1  0
 18 21  1  0
 22 23  2  0
 22 24  1  0
 24 25  1  0
 25 26  2  0
 25 33  1  0
 26 27  1  0
 27 28  2  0
 28 29  1  0
 28 32  1  0
 29 30  1  6
 29 31  1  0
 32 33  2  0
M  CHG  1  14   1
M  END
