
     RDKit          3D

 37 39  0  0  0  0  0  0  0  0999 V2000
    5.7370   -3.1810    0.4140 C   0  0  0  0  0  0  0  0  0  0  0  0
    5.5140   -1.8580    0.3600 C   0  0  0  0  0  0  0  0  0  0  0  0
    4.1610   -1.3250    0.4540 C   0  0  0  0  0  0  0  0  0  0  0  0
    3.8900   -0.0420    0.4190 C   0  0  0  0  0  0  0  0  0  0  0  0
    2.5090    0.4960    0.5160 C   0  0  0  0  0  0  0  0  0  0  0  0
    1.5940   -0.5670    0.6600 N   0  0  0  0  0  0  0  0  0  0  0  0
    0.2200   -0.3240    0.7960 C   0  0  0  0  0  0  0  0  0  0  0  0
   -0.5560    0.2060   -0.3410 C   0  0  2  0  0  0  0  0  0  0  0  0
   -0.0810    1.5620   -0.8140 C   0  0  0  0  0  0  0  0  0  0  0  0
   -2.0160    0.2360   -0.0900 C   0  0  0  0  0  0  0  0  0  0  0  0
   -2.5840    1.0300    0.8520 N   0  0  0  0  0  0  0  0  0  0  0  0
   -3.8780    0.8560    0.8540 N   0  0  0  0  0  0  0  0  0  0  0  0
   -4.8430    1.5170    1.7070 C   0  0  0  0  0  0  0  0  0  0  0  0
   -4.4010    2.3990    2.5760 C   0  0  0  0  0  0  0  0  0  0  0  0
   -5.1560    3.1730    3.5160 C   0  0  0  0  0  0  0  0  0  0  0  0
   -4.5930    3.9810    4.2880 O   0  0  0  0  0  0  0  0  0  0  0  0
   -6.2700    1.2100    1.6000 C   0  0  0  0  0  0  0  0  0  0  0  0
   -6.4700   -0.1440    1.8700 F   0  0  0  0  0  0  0  0  0  0  0  0
   -4.1530   -0.0450   -0.0790 C   0  0  0  0  0  0  0  0  0  0  0  0
   -5.2910   -0.4840   -0.3870 O   0  0  0  0  0  0  0  0  0  0  0  0
   -2.9940   -0.4420   -0.6790 N   0  0  0  0  0  0  0  0  0  0  0  0
   -2.8230   -1.3800   -1.7160 C   0  0  0  0  0  0  0  0  0  0  0  0
   -2.4420   -2.6540   -1.5070 N   0  0  0  0  0  0  0  0  0  0  0  0
   -2.2930   -3.5190   -2.5450 C   0  0  0  0  0  0  0  0  0  0  0  0
   -2.5210   -3.1340   -3.8320 C   0  0  0  0  0  0  0  0  0  0  0  0
   -2.9110   -1.8430   -4.0910 C   0  0  0  0  0  0  0  0  0  0  0  0
   -3.0530   -0.9930   -3.0210 C   0  0  0  0  0  0  0  0  0  0  0  0
   -3.4380    0.2850   -3.2720 F   0  0  0  0  0  0  0  0  0  0  0  0
    5.0060    0.8810    0.2730 C   0  0  0  0  0  0  0  0  0  0  0  0
    4.7290    2.3650    0.2340 C   0  0  2  0  0  0  0  0  0  0  0  0
    4.1510    2.8030    1.4070 F   0  0  0  0  0  0  0  0  0  0  0  0
    3.9070    2.6380   -0.8600 F   0  0  0  0  0  0  0  0  0  0  0  0
    5.9120    3.0430    0.0870 F   0  0  0  0  0  0  0  0  0  0  0  0
    6.2450    0.4370    0.1790 C   0  0  0  0  0  0  0  0  0  0  0  0
    6.6720   -0.9630    0.2040 C   0  0  1  0  0  0  0  0  0  0  0  0
    7.5910   -1.1250    1.2360 F   0  0  0  0  0  0  0  0  0  0  0  0
    7.3800   -1.2490   -0.9630 F   0  0  0  0  0  0  0  0  0  0  0  0
  1  2  2  0
  2  3  1  0
  2 35  1  0
  3  4  2  0
  4  5  1  0
  4 29  1  0
  5  6  1  0
  6  7  1  0
  7  8  1  0
  8  9  1  1
  8 10  1  0
 10 11  2  0
 10 21  1  0
 11 12  1  0
 12 13  1  0
 12 19  1  0
 13 14  2  3
 13 17  1  0
 14 15  1  0
 15 16  2  0
 17 18  1  0
 19 20  2  0
 19 21  1  0
 21 22  1  0
 22 23  2  0
 22 27  1  0
 23 24  1  0
 24 25  2  0
 25 26  1  0
 26 27  2  0
 27 28  1  0
 29 30  1  0
 29 34  2  0
 30 31  1  1
 30 32  1  0
 30 33  1  0
 34 35  1  0
 35 36  1  1
 35 37  1  0
M  END
