
     RDKit          3D

 36 39  0  0  0  0  0  0  0  0999 V2000
    5.1710   -5.1500    0.3500 C   0  0  0  0  0  0  0  0  0  0  0  0
    3.7260   -5.0180    0.8740 C   0  0  0  0  0  0  0  0  0  0  0  0
    3.2870   -3.6400    0.4240 C   0  0  0  0  0  0  0  0  0  0  0  0
    3.5190   -2.5290    1.1930 C   0  0  0  0  0  0  0  0  0  0  0  0
    2.9780   -1.4770    0.4450 C   0  0  0  0  0  0  0  0  0  0  0  0
    2.9930   -0.1910    0.9080 F   0  0  0  0  0  0  0  0  0  0  0  0
    2.4550   -1.9950   -0.7170 C   0  0  0  0  0  0  0  0  0  0  0  0
    1.7900   -1.2930   -1.8260 C   0  0  0  0  0  0  0  0  0  0  0  0
    0.7180   -0.3620   -1.2470 N   0  0  0  0  0  0  0  0  0  0  0  0
    1.2650    0.9010   -1.0460 C   0  0  0  0  0  0  0  0  0  0  0  0
    2.4520    1.0280   -1.6220 O   0  0  0  0  0  0  0  0  0  0  0  0
    0.8910    2.0550   -0.3880 N   0  0  0  0  0  0  0  0  0  0  0  0
    1.5530    3.2960   -0.2560 C   0  0  0  0  0  0  0  0  0  0  0  0
    2.7850    3.5200   -0.7960 C   0  0  0  0  0  0  0  0  0  0  0  0
    3.4570    4.7450   -0.6510 C   0  0  0  0  0  0  0  0  0  0  0  0
    2.8610    5.7160    0.0410 N   0  0  0  0  0  0  0  0  0  0  0  0
    1.6470    5.5340    0.5890 C   0  0  0  0  0  0  0  0  0  0  0  0
    0.9660    4.3260    0.4540 C   0  0  0  0  0  0  0  0  0  0  0  0
   -0.1600    4.4150    1.0670 N   0  0  0  0  0  0  0  0  0  0  0  0
   -0.3330    5.7260    1.6790 C   0  0  0  0  0  0  0  0  0  0  0  0
    0.9430    6.3870    1.2920 C   0  0  0  0  0  0  0  0  0  0  0  0
   -0.5040   -0.9660   -1.0370 C   0  0  0  0  0  0  0  0  0  0  0  0
   -0.4660   -2.3110   -1.2360 O   0  0  0  0  0  0  0  0  0  0  0  0
   -1.8340   -0.5930   -0.6650 C   0  0  0  0  0  0  0  0  0  0  0  0
   -2.7470   -1.5780   -0.5120 C   0  0  0  0  0  0  0  0  0  0  0  0
   -4.1200   -1.4150   -0.1360 C   0  0  0  0  0  0  0  0  0  0  0  0
   -4.5000   -0.7620    1.0310 C   0  0  0  0  0  0  0  0  0  0  0  0
   -5.8270   -0.6210    1.3390 C   0  0  0  0  0  0  0  0  0  0  0  0
   -6.8310   -1.1060    0.5280 C   0  0  0  0  0  0  0  0  0  0  0  0
   -6.4190   -1.7530   -0.6270 C   0  0  0  0  0  0  0  0  0  0  0  0
   -5.1050   -1.9170   -0.9750 C   0  0  0  0  0  0  0  0  0  0  0  0
   -4.7500   -2.5710   -2.1400 O   0  0  0  0  0  0  0  0  0  0  0  0
   -2.3270    0.7890   -0.5640 C   0  0  1  0  0  0  0  0  0  0  0  0
   -1.8070    1.4630   -1.6750 F   0  0  0  0  0  0  0  0  0  0  0  0
   -3.7230    0.8750   -0.7150 F   0  0  0  0  0  0  0  0  0  0  0  0
    2.6720   -3.3000   -0.6670 O   0  0  0  0  0  0  0  0  0  0  0  0
  1  2  1  0
  2  3  1  0
  3  4  2  0
  3 36  1  0
  4  5  1  0
  5  6  1  0
  5  7  2  0
  7  8  1  0
  7 36  1  0
  8  9  1  0
  9 10  1  0
  9 22  1  0
 10 11  2  0
 10 12  1  0
 12 13  1  0
 13 14  2  0
 13 18  1  0
 14 15  1  0
 15 16  2  0
 16 17  1  0
 17 18  1  0
 17 21  2  0
 18 19  2  0
 19 20  1  0
 20 21  1  0
 22 23  2  0
 22 24  1  0
 24 25  2  3
 24 33  1  0
 25 26  1  0
 26 27  2  0
 26 31  1  0
 27 28  1  0
 28 29  2  0
 29 30  1  0
 30 31  2  0
 31 32  1  0
 33 34  1  6
 33 35  1  0
M  END
