
     RDKit          3D

 32 35  0  0  0  0  0  0  0  0999 V2000
    6.7990    2.2160    1.4390 C   0  0  0  0  0  0  0  0  0  0  0  0
    7.5520    1.1800    1.2700 C   0  0  0  0  0  0  0  0  0  0  0  0
    7.2880    0.0030    0.4680 C   0  0  0  0  0  0  0  0  0  0  0  0
    8.2570   -0.9450    0.4010 C   0  0  0  0  0  0  0  0  0  0  0  0
    6.0970   -0.2790   -0.3560 C   0  0  0  0  0  0  0  0  0  0  0  0
    4.9580   -0.6060    0.3200 N   0  0  0  0  0  0  0  0  0  0  0  0
    4.1280    0.1370    1.1330 C   0  0  0  0  0  0  0  0  0  0  0  0
    3.1530    1.0000    0.3310 C   0  0  0  0  0  0  0  0  0  0  0  0
    2.3660    0.2330   -0.6670 C   0  0  1  0  0  0  0  0  0  0  0  0
    1.0080   -0.1950   -0.2240 C   0  0  0  0  0  0  0  0  0  0  0  0
    0.6390   -1.5020   -0.0370 C   0  0  0  0  0  0  0  0  0  0  0  0
   -0.6550   -1.8360    0.3020 C   0  0  0  0  0  0  0  0  0  0  0  0
   -1.6660   -0.8680    0.4780 C   0  0  0  0  0  0  0  0  0  0  0  0
   -2.9620   -1.3300    0.7920 N   0  0  0  0  0  0  0  0  0  0  0  0
   -4.1900   -0.6830    0.5120 C   0  0  0  0  0  0  0  0  0  0  0  0
   -4.0980    0.4290   -0.0600 O   0  0  0  0  0  0  0  0  0  0  0  0
   -5.4910   -1.2920    0.8630 C   0  0  0  0  0  0  0  0  0  0  0  0
   -6.6860   -0.5720    0.4610 C   0  0  0  0  0  0  0  0  0  0  0  0
   -7.8160   -0.7340    1.2680 C   0  0  0  0  0  0  0  0  0  0  0  0
   -9.0260   -0.1290    0.9960 C   0  0  0  0  0  0  0  0  0  0  0  0
   -9.1530    0.6760   -0.1130 C   0  0  0  0  0  0  0  0  0  0  0  0
  -10.4570    1.3460   -0.4570 C   0  0  0  0  0  0  0  0  0  0  0  0
   -8.0260    0.8410   -0.9190 C   0  0  0  0  0  0  0  0  0  0  0  0
   -6.8110    0.2270   -0.6390 C   0  0  0  0  0  0  0  0  0  0  0  0
   -1.2850    0.4300    0.2920 C   0  0  0  0  0  0  0  0  0  0  0  0
    0.0330    0.7530   -0.0540 C   0  0  0  0  0  0  0  0  0  0  0  0
    2.1490    1.2010   -1.8690 C   0  0  0  0  0  0  0  0  0  0  0  0
    3.5330    1.1660   -2.4270 C   0  0  0  0  0  0  0  0  0  0  0  0
    4.1140    2.1580   -2.9090 O   0  0  0  0  0  0  0  0  0  0  0  0
    3.9840   -0.1860   -2.2810 N   0  0  0  0  0  0  0  0  0  0  0  0
    3.1640   -0.8480   -1.2940 C   0  0  1  0  0  0  0  0  0  0  0  0
    4.1050   -1.5960   -0.3910 C   0  0  0  0  0  0  0  0  0  0  0  0
  1  2  2  0
  2  3  1  0
  3  4  2  0
  3  5  1  0
  5  6  1  0
  6  7  1  0
  6 32  1  0
  7  8  1  0
  8  9  1  0
  9 10  1  1
  9 27  1  0
  9 31  1  0
 10 11  2  0
 10 26  1  0
 11 12  1  0
 12 13  2  0
 13 14  1  0
 13 25  1  0
 14 15  1  0
 15 16  2  0
 15 17  1  0
 17 18  1  0
 18 19  2  0
 18 24  1  0
 19 20  1  0
 20 21  2  0
 21 22  1  0
 21 23  1  0
 23 24  2  0
 25 26  2  0
 27 28  1  0
 28 29  2  0
 28 30  1  0
 30 31  1  0
 31 32  1  1
M  END
