
     RDKit          3D

 32 34  0  0  0  0  0  0  0  0999 V2000
   -4.0410   -4.1540   -1.8060 C   0  0  0  0  0  0  0  0  0  0  0  0
   -4.1360   -2.8860   -1.0730 C   0  0  0  0  0  0  0  0  0  0  0  0
   -3.1810   -1.9530   -1.2250 C   0  0  0  0  0  0  0  0  0  0  0  0
   -2.0340   -2.1640   -2.1060 C   0  0  0  0  0  0  0  0  0  0  0  0
   -3.3520   -0.7030   -0.4720 C   0  0  0  0  0  0  0  0  0  0  0  0
   -2.6390    0.3440   -0.3840 C   0  0  0  0  0  0  0  0  0  0  0  0
   -1.4470    0.8750   -0.8750 N   0  0  0  0  0  0  0  0  0  0  0  0
   -0.5630    1.5430    0.0650 C   0  0  0  0  0  0  0  0  0  0  0  0
   -0.9670    2.7560    0.5310 C   0  0  0  0  0  0  0  0  0  0  0  0
   -2.2300    3.3160    0.0850 C   0  0  0  0  0  0  0  0  0  0  0  0
   -2.6930    3.3410   -1.2400 C   0  0  0  0  0  0  0  0  0  0  0  0
   -3.9460    3.8980   -1.2580 C   0  0  0  0  0  0  0  0  0  0  0  0
   -4.7480    4.0570   -2.4980 C   0  0  0  0  0  0  0  0  0  0  0  0
   -4.2540    4.2160    0.0020 N   0  0  0  0  0  0  0  0  0  0  0  0
   -3.2390    3.8780    0.8330 C   0  0  0  0  0  0  0  0  0  0  0  0
   -3.2170    4.0470    2.3290 C   0  0  0  0  0  0  0  0  0  0  0  0
    0.5650    0.8670    0.6460 C   0  0  0  0  0  0  0  0  0  0  0  0
    1.0580    1.1880    1.9030 C   0  0  0  0  0  0  0  0  0  0  0  0
    2.0650    0.4900    2.5240 C   0  0  0  0  0  0  0  0  0  0  0  0
    2.5770    0.8720    3.8770 C   0  0  0  0  0  0  0  0  0  0  0  0
    2.0050   -0.0410    4.9010 C   0  0  0  0  0  0  0  0  0  0  0  0
    2.6460   -0.5910    1.9120 C   0  0  0  0  0  0  0  0  0  0  0  0
    3.6660   -1.3240    2.5230 O   0  0  0  0  0  0  0  0  0  0  0  0
    2.1920   -0.9480    0.6490 C   0  0  0  0  0  0  0  0  0  0  0  0
    2.6660   -2.2350    0.0980 C   0  0  0  0  0  0  0  0  0  0  0  0
    3.5750   -2.2190   -0.9180 N   0  0  0  0  0  0  0  0  0  0  0  0
    3.4970   -1.5250   -2.1100 C   0  0  0  0  0  0  0  0  0  0  0  0
    4.9560   -1.1170   -2.4920 C   0  0  0  0  0  0  0  0  0  0  0  0
    5.7740   -1.0120   -1.4030 O   0  0  0  0  0  0  0  0  0  0  0  0
    5.9180   -2.1280   -0.6340 C   0  0  0  0  0  0  0  0  0  0  0  0
    4.7210   -3.0780   -0.8080 C   0  0  0  0  0  0  0  0  0  0  0  0
    1.1820   -0.2390    0.0250 C   0  0  0  0  0  0  0  0  0  0  0  0
  1  2  1  0
  2  3  2  3
  3  4  1  0
  3  5  1  0
  5  6  2  3
  6  7  1  0
  7  8  1  0
  8  9  2  3
  8 17  1  0
  9 10  1  0
 10 11  1  0
 10 15  2  0
 11 12  2  0
 12 13  1  0
 12 14  1  0
 14 15  1  0
 15 16  1  0
 17 18  2  0
 17 32  1  0
 18 19  1  0
 19 20  1  0
 19 22  2  0
 20 21  1  0
 22 23  1  0
 22 24  1  0
 24 25  1  0
 24 32  2  0
 25 26  1  0
 26 27  1  0
 26 31  1  0
 27 28  1  0
 28 29  1  0
 29 30  1  0
 30 31  1  0
M  END
