
     RDKit          3D

 33 34  0  0  0  0  0  0  0  0999 V2000
    0.7440   -2.3060    0.9260 C   0  0  0  0  0  0  0  0  0  0  0  0
    0.8610   -0.8030    0.7960 C   0  0  2  0  0  0  0  0  0  0  0  0
   -0.2930   -0.1070    0.3370 N   0  0  0  0  0  0  0  0  0  0  0  0
   -1.4680   -0.7760   -0.0880 C   0  0  0  0  0  0  0  0  0  0  0  0
   -1.4520   -2.0250   -0.1130 O   0  0  0  0  0  0  0  0  0  0  0  0
   -2.6940   -0.0390   -0.4870 C   0  0  2  0  0  0  0  0  0  0  0  0
   -2.7480    1.3180    0.0610 C   0  0  0  0  0  0  0  0  0  0  0  0
   -3.9290    2.1430   -0.2380 C   0  0  0  0  0  0  0  0  0  0  0  0
   -3.9700    2.9620   -1.3170 C   0  0  0  0  0  0  0  0  0  0  0  0
   -5.0590    3.7840   -1.6100 C   0  0  0  0  0  0  0  0  0  0  0  0
   -6.1240    3.7200   -0.7230 C   0  0  0  0  0  0  0  0  0  0  0  0
   -6.0930    2.8770    0.3950 C   0  0  0  0  0  0  0  0  0  0  0  0
   -5.0000    2.1030    0.6200 C   0  0  0  0  0  0  0  0  0  0  0  0
   -3.9270   -0.7520   -0.4320 N   0  0  0  0  0  0  0  0  0  0  0  0
   -4.1850   -1.8610    0.3450 C   0  0  0  0  0  0  0  0  0  0  0  0
   -3.3530   -2.3490    1.1340 O   0  0  0  0  0  0  0  0  0  0  0  0
   -5.5350   -2.5540    0.2680 C   0  0  1  0  0  0  0  0  0  0  0  0
   -5.2570   -3.8750   -0.0960 F   0  0  0  0  0  0  0  0  0  0  0  0
   -6.0570   -2.5980    1.5770 F   0  0  0  0  0  0  0  0  0  0  0  0
   -6.3430   -1.9190   -0.6050 F   0  0  0  0  0  0  0  0  0  0  0  0
    2.1610   -0.3690    0.3370 C   0  0  0  0  0  0  0  0  0  0  0  0
    2.3200    0.7580   -0.2240 O   0  0  0  0  0  0  0  0  0  0  0  0
    3.3480   -1.1340    0.4800 N   0  0  0  0  0  0  0  0  0  0  0  0
    4.6670   -0.8130    0.1050 C   0  0  0  0  0  0  0  0  0  0  0  0
    5.5630   -0.4560    1.1630 C   0  0  0  0  0  0  0  0  0  0  0  0
    6.8920   -0.2090    0.9260 C   0  0  0  0  0  0  0  0  0  0  0  0
    7.3900   -0.3100   -0.3770 C   0  0  0  0  0  0  0  0  0  0  0  0
    8.8430   -0.0540   -0.5910 C   0  0  1  0  0  0  0  0  0  0  0  0
    9.4890   -0.5960    0.5070 F   0  0  0  0  0  0  0  0  0  0  0  0
    9.2360   -0.5850   -1.7890 F   0  0  0  0  0  0  0  0  0  0  0  0
    8.9910    1.3120   -0.5790 F   0  0  0  0  0  0  0  0  0  0  0  0
    6.5250   -0.6450   -1.3960 C   0  0  0  0  0  0  0  0  0  0  0  0
    5.1820   -0.8920   -1.1610 C   0  0  0  0  0  0  0  0  0  0  0  0
  2  1  1  6
  2  3  1  0
  2 21  1  0
  3  4  1  0
  4  5  2  0
  4  6  1  0
  6  7  1  1
  6 14  1  0
  7  8  1  0
  8  9  2  0
  8 13  1  0
  9 10  1  0
 10 11  2  0
 11 12  1  0
 12 13  2  0
 14 15  1  0
 15 16  2  0
 15 17  1  0
 17 18  1  6
 17 19  1  0
 17 20  1  0
 21 22  2  0
 21 23  1  0
 23 24  1  0
 24 25  2  0
 24 33  1  0
 25 26  1  0
 26 27  2  0
 27 28  1  0
 27 32  1  0
 28 29  1  1
 28 30  1  0
 28 31  1  0
 32 33  2  0
M  END
