
     RDKit          3D

 32 35  0  0  0  0  0  0  0  0999 V2000
    1.5620   -5.0650   -2.8090 C   0  0  0  0  0  0  0  0  0  0  0  0
    1.8160   -3.8810   -2.0780 O   0  0  0  0  0  0  0  0  0  0  0  0
    0.8980   -3.2730   -1.2370 C   0  0  0  0  0  0  0  0  0  0  0  0
   -0.3740   -3.7810   -1.0380 C   0  0  0  0  0  0  0  0  0  0  0  0
   -1.2380   -3.1170   -0.1770 C   0  0  0  0  0  0  0  0  0  0  0  0
   -0.8710   -1.9730    0.4850 C   0  0  0  0  0  0  0  0  0  0  0  0
   -1.7490   -1.3050    1.3770 N   0  0  0  0  0  0  0  0  0  0  0  0
   -2.2390   -0.0130    1.2540 N   0  0  0  0  0  0  0  0  0  0  0  0
   -2.9780    0.5360    0.1990 C   0  0  0  0  0  0  0  0  0  0  0  0
   -2.4380    1.4940   -0.6070 C   0  0  0  0  0  0  0  0  0  0  0  0
   -1.0600    1.9960   -0.3980 C   0  0  0  0  0  0  0  0  0  0  0  0
   -3.1460    2.0700   -1.6660 C   0  0  0  0  0  0  0  0  0  0  0  0
   -2.5390    3.1270   -2.5300 C   0  0  0  0  0  0  0  0  0  0  0  0
   -4.4210    1.6730   -1.9160 C   0  0  0  0  0  0  0  0  0  0  0  0
   -5.0230    0.6880   -1.1150 C   0  0  0  0  0  0  0  0  0  0  0  0
   -4.2950    0.1420   -0.0790 C   0  0  0  0  0  0  0  0  0  0  0  0
   -4.8690   -0.7890    0.6710 C   0  0  0  0  0  0  0  0  0  0  0  0
   -6.2320   -1.2990    0.5020 C   0  0  0  0  0  0  0  0  0  0  0  0
   -6.9720   -0.6790   -0.6340 C   0  0  0  0  0  0  0  0  0  0  0  0
   -6.2260    0.3040   -1.3510 N   0  0  0  0  0  0  0  0  0  0  0  0
    0.4340   -1.4580    0.2770 C   0  0  0  0  0  0  0  0  0  0  0  0
    0.6950   -0.3280    0.9710 O   0  0  0  0  0  0  0  0  0  0  0  0
    1.7790    0.4740    1.0870 C   0  0  0  0  0  0  0  0  0  0  0  0
    2.9700   -0.1910    1.7050 C   0  0  0  0  0  0  0  0  0  0  0  0
    4.1200    0.7560    1.8240 C   0  0  0  0  0  0  0  0  0  0  0  0
    4.3190    1.5330    2.9610 C   0  0  0  0  0  0  0  0  0  0  0  0
    5.3970    2.3870    2.9700 C   0  0  0  0  0  0  0  0  0  0  0  0
    6.2820    2.4980    1.8950 C   0  0  0  0  0  0  0  0  0  0  0  0
    7.4180    3.4590    1.9980 C   0  0  0  0  0  0  0  0  0  0  0  0
    6.0760    1.7240    0.7710 C   0  0  0  0  0  0  0  0  0  0  0  0
    4.9840    0.8630    0.7710 C   0  0  0  0  0  0  0  0  0  0  0  0
    1.2920   -2.1260   -0.5860 C   0  0  0  0  0  0  0  0  0  0  0  0
  1  2  1  0
  2  3  1  0
  3  4  2  0
  3 32  1  0
  4  5  1  0
  5  6  2  0
  6  7  1  0
  6 21  1  0
  7  8  1  0
  8  9  1  0
  9 10  2  0
  9 16  1  0
 10 11  1  0
 10 12  1  0
 12 13  1  0
 12 14  2  0
 14 15  1  0
 15 16  1  0
 15 20  2  0
 16 17  2  0
 17 18  1  0
 18 19  1  0
 19 20  1  0
 21 22  1  0
 21 32  2  0
 22 23  1  0
 23 24  1  0
 24 25  1  0
 25 26  2  0
 25 31  1  0
 26 27  1  0
 27 28  2  0
 28 29  1  0
 28 30  1  0
 30 31  2  0
M  END
