
     RDKit          3D

 29 31  0  0  0  0  0  0  0  0999 V2000
   -3.8590    3.4970    1.9010 C   0  0  0  0  0  0  0  0  0  0  0  0
   -2.3730    3.5910    1.9430 C   0  0  0  0  0  0  0  0  0  0  0  0
   -1.6490    2.4630    1.2430 C   0  0  1  0  0  0  0  0  0  0  0  0
   -1.9810    1.1540    1.8470 C   0  0  0  0  0  0  0  0  0  0  0  0
   -1.9890    0.0840    0.9650 N   0  0  0  0  0  0  0  0  0  0  0  0
   -1.1310   -1.0010    1.1830 C   0  0  0  0  0  0  0  0  0  0  0  0
    0.3280   -0.7030    0.9480 C   0  0  0  0  0  0  0  0  0  0  0  0
    0.7040    0.4270    0.5880 O   0  0  0  0  0  0  0  0  0  0  0  0
    1.2570   -1.7470    1.1470 N   0  0  0  0  0  0  0  0  0  0  0  0
    2.6540   -1.6540    0.9650 C   0  0  0  0  0  0  0  0  0  0  0  0
    3.4250   -2.7620    1.3520 C   0  0  0  0  0  0  0  0  0  0  0  0
    4.7900   -2.7680    1.1960 C   0  0  0  0  0  0  0  0  0  0  0  0
    5.4740   -1.6990    0.6590 C   0  0  0  0  0  0  0  0  0  0  0  0
    4.7390   -0.6130    0.2780 C   0  0  0  0  0  0  0  0  0  0  0  0
    3.3330   -0.6020    0.4360 C   0  0  0  0  0  0  0  0  0  0  0  0
    5.3810    0.5730   -0.2980 C   0  0  2  0  0  0  0  0  0  0  0  0
    4.7790    0.7580   -1.5680 O   0  0  0  0  0  0  0  0  0  0  0  0
    6.8470    0.5210   -0.4730 C   0  0  0  0  0  0  0  0  0  0  0  0
    7.5150   -0.7040   -0.0230 C   0  0  0  0  0  0  0  0  0  0  0  0
    6.8810   -1.7040    0.4880 N   0  0  0  0  0  0  0  0  0  0  0  0
   -2.5710    0.2260   -0.3290 C   0  0  2  0  0  0  0  0  0  0  0  0
   -4.0380    0.5300   -0.1040 C   0  0  0  0  0  0  0  0  0  0  0  0
   -2.4450   -1.0160   -1.1220 C   0  0  0  0  0  0  0  0  0  0  0  0
   -2.9680   -1.0670   -2.4920 C   0  0  2  0  0  0  0  0  0  0  0  0
   -4.4070   -0.8400   -2.7360 C   0  0  0  0  0  0  0  0  0  0  0  0
   -2.6940   -2.5110   -2.9800 C   0  0  0  0  0  0  0  0  0  0  0  0
   -1.8620    1.3900   -0.9590 C   0  0  0  0  0  0  0  0  0  0  0  0
   -1.3670    1.3570   -2.1150 O   0  0  0  0  0  0  0  0  0  0  0  0
   -1.7890    2.5270   -0.1640 O   0  0  0  0  0  0  0  0  0  0  0  0
  1  2  1  0
  3  2  1  1
  3  4  1  0
  3 29  1  0
  4  5  1  0
  5  6  1  0
  5 21  1  0
  6  7  1  0
  7  8  2  0
  7  9  1  0
  9 10  1  0
 10 11  2  0
 10 15  1  0
 11 12  1  0
 12 13  2  0
 13 14  1  0
 13 20  1  0
 14 15  2  0
 14 16  1  0
 16 17  1  6
 16 18  1  0
 18 19  1  0
 19 20  2  0
 21 22  1  1
 21 23  1  0
 21 27  1  0
 23 24  1  0
 24 25  1  1
 24 26  1  0
 27 28  2  0
 27 29  1  0
M  END
