
     RDKit          3D

  8  8  0  0  0  0  0  0  0  0999 V2000
    2.3380   -1.6430   -0.2860 O   0  0  0  0  0  0  0  0  0  0  0  0
    1.7810   -0.3860   -0.0060 C   0  0  0  0  0  0  0  0  0  0  0  0
    0.4720   -0.2220   -0.0020 C   0  0  0  0  0  0  0  0  0  0  0  0
   -0.5330   -1.2590   -0.2710 C   0  0  0  0  0  0  0  0  0  0  0  0
   -1.6960   -0.6500   -0.1590 C   0  0  0  0  0  0  0  0  0  0  0  0
   -1.4910    0.7220    0.1670 N   0  0  0  0  0  0  0  0  0  0  0  0
   -0.2550    1.0060    0.2660 C   0  0  0  0  0  0  0  0  0  0  0  0
    0.2570    2.2690    0.5750 O   0  0  0  0  0  0  0  0  0  0  0  0
  1  2  1  0
  2  3  2  3
  3  4  1  0
  3  7  1  0
  4  5  2  0
  5  6  1  0
  6  7  2  0
  7  8  1  0
M  CHG  1   1  -1
M  END
