
     RDKit          3D

  8  8  0  0  0  0  0  0  0  0999 V2000
   -1.3300   -1.3000   -0.0700 C   0  0  0  0  0  0  0  0  0  0  0  0
   -0.3210   -0.4600   -0.0090 C   0  0  0  0  0  0  0  0  0  0  0  0
    1.0930   -0.8350    0.1800 C   0  0  0  0  0  0  0  0  0  0  0  0
    1.7500    0.3150    0.1810 C   0  0  0  0  0  0  0  0  0  0  0  0
    3.1300    0.4620    0.3310 O   0  0  0  0  0  0  0  0  0  0  0  0
    0.8490    1.3980    0.0050 N   0  0  0  0  0  0  0  0  0  0  0  0
   -0.3590    0.9780   -0.1080 C   0  0  0  0  0  0  0  0  0  0  0  0
   -1.5040    1.7740   -0.2930 O   0  0  0  0  0  0  0  0  0  0  0  0
  1  2  2  0
  2  3  1  0
  2  7  1  0
  3  4  2  0
  4  5  1  0
  4  6  1  0
  6  7  2  0
  7  8  1  0
M  CHG  1   5  -1
M  END
