
     RDKit          3D

 35 39  0  0  0  0  0  0  0  0999 V2000
   -6.9380   -1.1490    1.7310 N   0  0  0  0  0  0  0  0  0  0  0  0
   -5.7320   -0.9070    1.4220 C   0  0  0  0  0  0  0  0  0  0  0  0
   -4.9650   -1.5160    0.3870 N   0  0  0  0  0  0  0  0  0  0  0  0
   -4.0070   -0.4860   -0.0540 C   0  0  0  0  0  0  0  0  0  0  0  0
   -3.1690   -0.6900   -1.0260 C   0  0  0  0  0  0  0  0  0  0  0  0
   -2.1450    0.1600   -1.6180 C   0  0  0  0  0  0  0  0  0  0  0  0
   -1.4800   -0.2850   -2.6420 N   0  0  0  0  0  0  0  0  0  0  0  0
   -0.4990    0.4660   -3.2520 N   0  0  0  0  0  0  0  0  0  0  0  0
    0.2100   -0.0420   -4.3880 C   0  0  0  0  0  0  0  0  0  0  0  0
    1.4300   -0.7800   -3.8770 C   0  0  0  0  0  0  0  0  0  0  0  0
    2.1920   -1.2940   -4.7150 O   0  0  0  0  0  0  0  0  0  0  0  0
    1.7010   -0.8870   -2.5050 N   0  0  0  0  0  0  0  0  0  0  0  0
    2.8140   -1.5580   -1.9640 C   0  0  0  0  0  0  0  0  0  0  0  0
    3.7300   -2.3150   -2.6280 C   0  0  0  0  0  0  0  0  0  0  0  0
    4.8140   -2.9390   -2.0020 C   0  0  0  0  0  0  0  0  0  0  0  0
    4.9860   -2.7970   -0.6460 C   0  0  0  0  0  0  0  0  0  0  0  0
    4.0860   -2.0420    0.0690 C   0  0  0  0  0  0  0  0  0  0  0  0
    4.3000   -1.9260    1.4420 O   0  0  0  0  0  0  0  0  0  0  0  0
    5.0970   -0.8550    1.8630 C   0  0  0  0  0  0  0  0  0  0  0  0
    5.3660   -0.6570    3.2150 C   0  0  0  0  0  0  0  0  0  0  0  0
    6.1620    0.4150    3.6160 C   0  0  0  0  0  0  0  0  0  0  0  0
    6.7010    1.2990    2.7120 C   0  0  0  0  0  0  0  0  0  0  0  0
    7.7030    2.6530    3.1740 Cl  0  0  0  0  0  0  0  0  0  0  0  0
    6.4350    1.1060    1.3560 C   0  0  0  0  0  0  0  0  0  0  0  0
    5.6530    0.0500    0.9840 C   0  0  0  0  0  0  0  0  0  0  0  0
    3.0420   -1.4490   -0.5770 C   0  0  0  0  0  0  0  0  0  0  0  0
   -0.2030    1.7620   -2.7500 C   0  0  0  0  0  0  0  0  0  0  0  0
    0.3120    2.5910   -3.5380 O   0  0  0  0  0  0  0  0  0  0  0  0
   -0.5290    2.0240   -1.3350 C   0  0  0  0  0  0  0  0  0  0  0  0
   -1.8750    1.4490   -1.0040 C   0  0  0  0  0  0  0  0  0  0  0  0
   -4.2880    0.6500    0.7500 N   0  0  0  0  0  0  0  0  0  0  0  0
   -4.3620    2.0800    0.8790 C   0  0  0  0  0  0  0  0  0  0  0  0
   -5.6140    2.2470    1.7430 C   0  0  0  0  0  0  0  0  0  0  0  0
   -5.3570    1.1710    2.7730 C   0  0  0  0  0  0  0  0  0  0  0  0
   -4.7630    0.0570    2.0220 C   0  0  1  0  0  0  0  0  0  0  0  0
  1  2  2  0
  2  3  1  0
  2 35  1  0
  3  4  1  0
  4  5  2  3
  4 31  1  0
  5  6  1  0
  6  7  2  0
  6 30  1  0
  7  8  1  0
  8  9  1  0
  8 27  1  0
  9 10  1  0
 10 11  2  0
 10 12  1  0
 12 13  1  0
 13 14  2  0
 13 26  1  0
 14 15  1  0
 15 16  2  0
 16 17  1  0
 17 18  1  0
 17 26  2  0
 18 19  1  0
 19 20  2  0
 19 25  1  0
 20 21  1  0
 21 22  2  0
 22 23  1  0
 22 24  1  0
 24 25  2  0
 27 28  2  0
 27 29  1  0
 29 30  1  0
 31 32  1  0
 31 35  1  0
 32 33  1  0
 33 34  1  0
 35 34  1  1
M  CHG  1   1   1
M  END
