
     RDKit          3D

 35 39  0  0  0  0  0  0  0  0999 V2000
    6.2990    1.8280   -2.1910 C   0  0  0  0  0  0  0  0  0  0  0  0
    7.0460    2.3350   -1.0140 C   0  0  0  0  0  0  0  0  0  0  0  0
    7.7640    3.3090   -1.1480 O   0  0  0  0  0  0  0  0  0  0  0  0
    6.9430    1.6890    0.3190 C   0  0  0  0  0  0  0  0  0  0  0  0
    6.0400    0.5470    0.2740 N   0  0  0  0  0  0  0  0  0  0  0  0
    4.7240    0.5700    0.4980 C   0  0  0  0  0  0  0  0  0  0  0  0
    4.2380   -0.7050    0.3600 C   0  0  0  0  0  0  0  0  0  0  0  0
    5.3000   -1.5110    0.0440 C   0  0  0  0  0  0  0  0  0  0  0  0
    5.4670   -2.8570   -0.2160 C   0  0  0  0  0  0  0  0  0  0  0  0
    6.7080   -3.3760   -0.5120 C   0  0  0  0  0  0  0  0  0  0  0  0
    7.8140   -2.5660   -0.5580 C   0  0  0  0  0  0  0  0  0  0  0  0
    7.6750   -1.2180   -0.3030 C   0  0  0  0  0  0  0  0  0  0  0  0
    6.4270   -0.7160   -0.0080 C   0  0  0  0  0  0  0  0  0  0  0  0
    2.8090   -1.0820    0.5370 C   0  0  0  0  0  0  0  0  0  0  0  0
    1.9730    0.0780    0.7170 N   0  0  0  0  0  0  0  0  0  0  0  0
    0.7400    0.0380    1.4080 C   0  0  0  0  0  0  0  0  0  0  0  0
    0.0760    1.1140    1.5210 O   0  0  0  0  0  0  0  0  0  0  0  0
    0.2630   -1.1710    1.9560 N   0  0  0  0  0  0  0  0  0  0  0  0
   -0.9880   -1.1570    2.6470 C   0  0  0  0  0  0  0  0  0  0  0  0
   -2.1300   -0.7310    1.7800 C   0  0  0  0  0  0  0  0  0  0  0  0
   -1.9730   -0.6330    0.4220 C   0  0  0  0  0  0  0  0  0  0  0  0
   -3.0200   -0.2410   -0.3620 N   0  0  0  0  0  0  0  0  0  0  0  0
   -4.2230    0.0590    0.1550 C   0  0  0  0  0  0  0  0  0  0  0  0
   -5.3140    0.4780   -0.6930 N   0  0  0  0  0  0  0  0  0  0  0  0
   -5.1990    0.7030   -2.1080 C   0  0  0  0  0  0  0  0  0  0  0  0
   -6.5890    0.7530   -2.6250 C   0  0  0  0  0  0  0  0  0  0  0  0
   -7.3070    1.4630   -1.4640 C   0  0  0  0  0  0  0  0  0  0  0  0
   -6.6690    0.7370   -0.2820 C   0  0  1  0  0  0  0  0  0  0  0  0
   -7.4100   -0.5640   -0.0160 C   0  0  0  0  0  0  0  0  0  0  0  0
   -8.8160   -0.3250    0.4210 C   0  0  0  0  0  0  0  0  0  0  0  0
   -8.8140    0.4410    1.6070 O   0  0  0  0  0  0  0  0  0  0  0  0
   -4.3690   -0.0430    1.5210 C   0  0  0  0  0  0  0  0  0  0  0  0
   -3.3310   -0.4330    2.3060 N   0  0  0  0  0  0  0  0  0  0  0  0
    2.4670    1.3270    0.1390 C   0  0  0  0  0  0  0  0  0  0  0  0
    3.7640    1.6550    0.8460 C   0  0  0  0  0  0  0  0  0  0  0  0
  1  2  1  0
  2  3  2  0
  2  4  1  0
  4  5  1  0
  5  6  1  0
  5 13  1  0
  6  7  2  0
  6 35  1  0
  7  8  1  0
  7 14  1  0
  8  9  2  0
  8 13  1  0
  9 10  1  0
 10 11  2  0
 11 12  1  0
 12 13  2  0
 14 15  1  0
 15 16  1  0
 15 34  1  0
 16 17  2  0
 16 18  1  0
 18 19  1  0
 19 20  1  0
 20 21  2  0
 20 33  1  0
 21 22  1  0
 22 23  2  0
 23 24  1  0
 23 32  1  0
 24 25  1  0
 24 28  1  0
 25 26  1  0
 26 27  1  0
 27 28  1  0
 28 29  1  6
 29 30  1  0
 30 31  1  0
 32 33  2  0
 34 35  1  0
M  CHG  1  33   1
M  END
