
     RDKit          3D

 34 37  0  0  0  0  0  0  0  0999 V2000
   -3.5960    0.0030   -0.6860 O   0  0  0  0  0  0  0  0  0  0  0  0
   -4.3240   -0.4360    0.2130 C   0  0  0  0  0  0  0  0  0  0  0  0
   -3.7780   -1.0410    1.3470 N   0  0  0  0  0  0  0  0  0  0  0  0
   -2.4260   -1.2770    1.7140 C   0  0  0  0  0  0  0  0  0  0  0  0
   -1.5190   -0.1210    1.8750 C   0  0  0  0  0  0  0  0  0  0  0  0
   -1.3080    0.6170    0.7620 O   0  0  0  0  0  0  0  0  0  0  0  0
   -0.5810   -0.0970   -0.2090 C   0  0  0  0  0  0  0  0  0  0  0  0
   -0.3690    0.7840   -1.4150 C   0  0  0  0  0  0  0  0  0  0  0  0
    0.3310    1.9350   -1.1210 O   0  0  0  0  0  0  0  0  0  0  0  0
    1.5940    1.7240   -0.6100 C   0  0  0  0  0  0  0  0  0  0  0  0
    2.4930    0.9580   -1.5450 C   0  0  0  0  0  0  0  0  0  0  0  0
    3.7860    0.7930   -0.9130 N   0  0  0  0  0  0  0  0  0  0  0  0
    4.8640    0.1120   -1.5350 C   0  0  0  0  0  0  0  0  0  0  0  0
    4.7020   -0.3710   -2.6760 O   0  0  0  0  0  0  0  0  0  0  0  0
    6.1680   -0.0300   -0.8460 C   0  0  0  0  0  0  0  0  0  0  0  0
    7.2860   -0.6630   -1.3350 C   0  0  0  0  0  0  0  0  0  0  0  0
    8.2760   -0.5670   -0.3820 C   0  0  0  0  0  0  0  0  0  0  0  0
    9.5980   -1.0120   -0.3210 C   0  0  0  0  0  0  0  0  0  0  0  0
   10.3530   -0.7560    0.7910 C   0  0  0  0  0  0  0  0  0  0  0  0
   12.0320   -1.3030    0.9090 Cl  0  0  0  0  0  0  0  0  0  0  0  0
    9.8300   -0.0610    1.8620 C   0  0  0  0  0  0  0  0  0  0  0  0
    8.5350    0.3840    1.8200 C   0  0  0  0  0  0  0  0  0  0  0  0
    7.7700    0.1280    0.7010 C   0  0  0  0  0  0  0  0  0  0  0  0
    6.4910    0.4300    0.3680 N   0  0  0  0  0  0  0  0  0  0  0  0
   -5.7870   -0.2860    0.0220 C   0  0  0  0  0  0  0  0  0  0  0  0
   -6.4360    0.2880   -1.0450 C   0  0  0  0  0  0  0  0  0  0  0  0
   -7.8050    0.2160   -0.8140 C   0  0  0  0  0  0  0  0  0  0  0  0
   -8.9180    0.6160   -1.5110 C   0  0  0  0  0  0  0  0  0  0  0  0
  -10.1750    0.3780   -0.9660 C   0  0  0  0  0  0  0  0  0  0  0  0
  -11.6070    0.8750   -1.8310 Cl  0  0  0  0  0  0  0  0  0  0  0  0
  -10.3280   -0.2430    0.2470 C   0  0  0  0  0  0  0  0  0  0  0  0
   -9.2280   -0.6470    0.9550 C   0  0  0  0  0  0  0  0  0  0  0  0
   -7.9690   -0.4080    0.4070 C   0  0  0  0  0  0  0  0  0  0  0  0
   -6.7520   -0.6880    0.8660 N   0  0  0  0  0  0  0  0  0  0  0  0
  1  2  2  0
  2  3  1  0
  2 25  1  0
  3  4  1  0
  4  5  1  0
  5  6  1  0
  6  7  1  0
  7  8  1  0
  8  9  1  0
  9 10  1  0
 10 11  1  0
 11 12  1  0
 12 13  1  0
 13 14  2  0
 13 15  1  0
 15 16  2  0
 15 24  1  0
 16 17  1  0
 17 18  2  0
 17 23  1  0
 18 19  1  0
 19 20  1  0
 19 21  2  0
 21 22  1  0
 22 23  2  0
 23 24  1  0
 25 26  2  0
 25 34  1  0
 26 27  1  0
 27 28  2  0
 27 33  1  0
 28 29  1  0
 29 30  1  0
 29 31  2  0
 31 32  1  0
 32 33  2  0
 33 34  1  0
M  END
