
     RDKit          3D

 35 39  0  0  0  0  0  0  0  0999 V2000
   -3.2890    3.0020    0.2870 C   0  0  0  0  0  0  0  0  0  0  0  0
   -3.0930    1.5830   -0.0790 C   0  0  0  0  0  0  0  0  0  0  0  0
   -1.8120    1.1280   -0.4020 C   0  0  0  0  0  0  0  0  0  0  0  0
   -1.5550   -0.1650   -0.7480 C   0  0  0  0  0  0  0  0  0  0  0  0
   -0.2850   -0.7120   -1.0730 N   0  0  0  0  0  0  0  0  0  0  0  0
    0.9140   -0.0240   -0.8160 C   0  0  0  0  0  0  0  0  0  0  0  0
    0.9920    1.1010   -0.2870 O   0  0  0  0  0  0  0  0  0  0  0  0
    2.2000   -0.6490   -1.1880 C   0  0  0  0  0  0  0  0  0  0  0  0
    2.2200   -1.6810   -2.0970 C   0  0  0  0  0  0  0  0  0  0  0  0
    3.4330   -2.2640   -2.4290 C   0  0  0  0  0  0  0  0  0  0  0  0
    3.5330   -3.5800   -3.5760 Cl  0  0  0  0  0  0  0  0  0  0  0  0
    4.5720   -1.7810   -1.8320 C   0  0  0  0  0  0  0  0  0  0  0  0
    4.5590   -0.7290   -0.9040 C   0  0  0  0  0  0  0  0  0  0  0  0
    5.8220   -0.3480   -0.3880 N   0  0  0  0  0  0  0  0  0  0  0  0
    6.0830    0.5710    0.6330 C   0  0  0  0  0  0  0  0  0  0  0  0
    5.1410    1.1560    1.1970 O   0  0  0  0  0  0  0  0  0  0  0  0
    7.4550    0.8890    1.0860 C   0  0  0  0  0  0  0  0  0  0  0  0
    7.8230    1.7720    2.0730 C   0  0  0  0  0  0  0  0  0  0  0  0
    9.2190    1.7610    2.1700 C   0  0  0  0  0  0  0  0  0  0  0  0
    9.6410    0.8800    1.2450 N   0  0  0  0  0  0  0  0  0  0  0  0
   11.0590    0.5630    1.0100 C   0  0  0  0  0  0  0  0  0  0  0  0
    8.6010    0.3690    0.6100 N   0  0  0  0  0  0  0  0  0  0  0  0
    3.3650   -0.1600   -0.5810 C   0  0  0  0  0  0  0  0  0  0  0  0
   -2.6310   -1.0450   -0.7730 C   0  0  0  0  0  0  0  0  0  0  0  0
   -3.8800   -0.5930   -0.4570 C   0  0  0  0  0  0  0  0  0  0  0  0
   -4.9770   -1.4670   -0.4780 C   0  0  0  0  0  0  0  0  0  0  0  0
   -4.7850   -2.6760   -0.7930 O   0  0  0  0  0  0  0  0  0  0  0  0
   -6.1970   -1.0110   -0.1660 N   0  0  0  0  0  0  0  0  0  0  0  0
   -6.4210    0.2740    0.1730 C   0  0  0  0  0  0  0  0  0  0  0  0
   -5.3910    1.1380    0.2030 N   0  0  0  0  0  0  0  0  0  0  0  0
   -4.1330    0.7060   -0.1100 C   0  0  0  0  0  0  0  0  0  0  0  0
   -7.8160    0.6630    0.4950 C   0  0  0  0  0  0  0  0  0  0  0  0
   -8.4520   -0.3210    1.4330 C   0  0  0  0  0  0  0  0  0  0  0  0
   -8.0320   -1.7490    1.1830 C   0  0  0  0  0  0  0  0  0  0  0  0
   -7.3600   -1.8770   -0.1710 C   0  0  0  0  0  0  0  0  0  0  0  0
  1  2  1  0
  2  3  2  0
  2 31  1  0
  3  4  1  0
  4  5  1  0
  4 24  2  0
  5  6  1  0
  6  7  2  0
  6  8  1  0
  8  9  2  0
  8 23  1  0
  9 10  1  0
 10 11  1  0
 10 12  2  0
 12 13  1  0
 13 14  1  0
 13 23  2  0
 14 15  1  0
 15 16  2  0
 15 17  1  0
 17 18  1  0
 17 22  2  0
 18 19  2  0
 19 20  1  0
 20 21  1  0
 20 22  1  0
 24 25  1  0
 25 26  1  0
 25 31  2  0
 26 27  2  0
 26 28  1  0
 28 29  2  0
 28 35  1  0
 29 30  1  0
 29 32  1  0
 30 31  1  0
 32 33  1  0
 33 34  1  0
 34 35  1  0
M  CHG  1  28   1
M  END
