
     RDKit          3D

 35 39  0  0  0  0  0  0  0  0999 V2000
    5.0790    1.6340    3.4040 C   0  0  0  0  0  0  0  0  0  0  0  0
    4.7470    0.2590    2.8530 C   0  0  0  0  0  0  0  0  0  0  0  0
    5.6280   -0.6260    2.8700 O   0  0  0  0  0  0  0  0  0  0  0  0
    3.4720   -0.0200    2.3320 N   0  0  0  0  0  0  0  0  0  0  0  0
    3.0530   -1.2560    1.7990 C   0  0  0  0  0  0  0  0  0  0  0  0
    3.7370   -2.4420    1.8160 C   0  0  0  0  0  0  0  0  0  0  0  0
    3.2670   -3.6240    1.2570 C   0  0  0  0  0  0  0  0  0  0  0  0
    2.0500   -3.6450    0.6430 C   0  0  0  0  0  0  0  0  0  0  0  0
    1.3270   -2.4510    0.6070 C   0  0  0  0  0  0  0  0  0  0  0  0
    1.8040   -1.2950    1.1640 C   0  0  0  0  0  0  0  0  0  0  0  0
    0.0750   -2.5160   -0.0600 N   0  0  0  0  0  0  0  0  0  0  0  0
   -0.3190   -1.5130   -0.9360 C   0  0  0  0  0  0  0  0  0  0  0  0
   -1.5300   -1.6370   -1.3790 O   0  0  0  0  0  0  0  0  0  0  0  0
    0.3880   -0.3460   -1.4600 C   0  0  0  0  0  0  0  0  0  0  0  0
   -0.3700    0.3210   -2.5670 C   0  0  0  0  0  0  0  0  0  0  0  0
   -1.4560    1.1400   -2.4700 C   0  0  0  0  0  0  0  0  0  0  0  0
   -2.1980    1.6470   -1.2990 C   0  0  2  0  0  0  0  0  0  0  0  0
   -3.4870    2.3290   -1.7260 C   0  0  0  0  0  0  0  0  0  0  0  0
   -3.2150    3.8070   -1.6140 C   0  0  0  0  0  0  0  0  0  0  0  0
   -1.7830    3.9150   -1.1380 C   0  0  0  0  0  0  0  0  0  0  0  0
   -1.4890    2.6240   -0.5120 N   0  0  1  0  0  0  0  0  0  0  0  0
   -1.9710    2.7520    0.8440 C   0  0  0  0  0  0  0  0  0  0  0  0
   -2.1270    1.5010    1.5820 C   0  0  0  0  0  0  0  0  0  0  0  0
   -1.0320    1.0060    2.2510 C   0  0  0  0  0  0  0  0  0  0  0  0
   -1.1600   -0.1670    2.9560 C   0  0  0  0  0  0  0  0  0  0  0  0
   -2.3560   -0.8350    2.9930 C   0  0  0  0  0  0  0  0  0  0  0  0
   -3.4020   -0.3440    2.3420 N   0  0  0  0  0  0  0  0  0  0  0  0
   -3.3060    0.8010    1.6460 C   0  0  0  0  0  0  0  0  0  0  0  0
   -1.7590    1.4520   -3.7760 N   0  0  0  0  0  0  0  0  0  0  0  0
   -0.9210    0.8690   -4.5980 N   0  0  0  0  0  0  0  0  0  0  0  0
   -0.0320    0.1500   -3.8950 C   0  0  0  0  0  0  0  0  0  0  0  0
    1.0850   -0.6610   -4.4650 C   0  0  0  0  0  0  0  0  0  0  0  0
   -0.7790   -3.7080    0.1580 C   0  0  0  0  0  0  0  0  0  0  0  0
    0.0520   -4.9680    0.0950 C   0  0  0  0  0  0  0  0  0  0  0  0
    1.4480   -4.7420    0.0440 O   0  0  0  0  0  0  0  0  0  0  0  0
  1  2  1  0
  2  3  2  0
  2  4  1  0
  4  5  1  0
  5  6  2  0
  5 10  1  0
  6  7  1  0
  7  8  2  0
  8  9  1  0
  8 35  1  0
  9 10  2  0
  9 11  1  0
 11 12  1  0
 11 33  1  0
 12 13  2  0
 12 14  1  0
 14 15  1  0
 15 16  1  0
 15 31  2  0
 17 16  1  6
 16 29  2  0
 17 18  1  0
 17 21  1  0
 18 19  1  0
 19 20  1  0
 20 21  1  0
 21 22  1  1
 22 23  1  0
 23 24  2  0
 23 28  1  0
 24 25  1  0
 25 26  2  0
 26 27  1  0
 27 28  2  0
 29 30  1  0
 30 31  1  0
 31 32  1  0
 33 34  1  0
 34 35  1  0
M  CHG  1  21   1
M  END
