
     RDKit          3D

 35 39  0  0  0  0  0  0  0  0999 V2000
   -2.2570   -5.4020    0.7620 C   0  0  0  0  0  0  0  0  0  0  0  0
   -2.0210   -3.9570    0.7650 C   0  0  0  0  0  0  0  0  0  0  0  0
   -2.0590   -3.2470    1.9700 C   0  0  0  0  0  0  0  0  0  0  0  0
   -1.8300   -1.8690    1.9500 C   0  0  0  0  0  0  0  0  0  0  0  0
   -1.5720   -1.2150    0.7680 C   0  0  0  0  0  0  0  0  0  0  0  0
   -1.3320    0.2270    0.7470 C   0  0  1  0  0  0  0  0  0  0  0  0
   -0.2100    0.6130   -0.0740 N   0  0  0  0  0  0  0  0  0  0  0  0
    1.0040    0.3770    0.1700 C   0  0  0  0  0  0  0  0  0  0  0  0
    1.3240   -0.2830    1.2720 O   0  0  0  0  0  0  0  0  0  0  0  0
    2.5410   -0.5890    1.6380 C   0  0  0  0  0  0  0  0  0  0  0  0
    2.8810   -1.3200    2.8620 C   0  0  0  0  0  0  0  0  0  0  0  0
    3.5510   -0.1740    0.7810 C   0  0  0  0  0  0  0  0  0  0  0  0
    4.8960   -0.3980    0.9880 C   0  0  0  0  0  0  0  0  0  0  0  0
    5.2810   -1.0100    1.9990 O   0  0  0  0  0  0  0  0  0  0  0  0
    5.7880    0.0540    0.0830 N   0  0  0  0  0  0  0  0  0  0  0  0
    5.4090    0.7350   -1.0490 C   0  0  0  0  0  0  0  0  0  0  0  0
    6.2100    1.1620   -1.8980 O   0  0  0  0  0  0  0  0  0  0  0  0
    4.0590    0.9810   -1.2930 C   0  0  0  0  0  0  0  0  0  0  0  0
    3.2950    1.6000   -2.2630 C   0  0  0  0  0  0  0  0  0  0  0  0
    3.7740    2.2320   -3.4240 N   0  0  0  0  0  0  0  0  0  0  0  0
    1.9960    1.4660   -1.8550 N   0  0  0  0  0  0  0  0  0  0  0  0
    1.9440    0.8020   -0.6950 N   0  0  0  0  0  0  0  0  0  0  0  0
    3.2010    0.5020   -0.3440 C   0  0  0  0  0  0  0  0  0  0  0  0
   -2.4920    0.9410    0.2430 N   0  0  0  0  0  0  0  0  0  0  0  0
   -2.5330    2.3540    0.1300 C   0  0  0  0  0  0  0  0  0  0  0  0
   -1.4860    3.1740    0.4940 C   0  0  0  0  0  0  0  0  0  0  0  0
   -1.5350    4.5500    0.3810 C   0  0  0  0  0  0  0  0  0  0  0  0
   -0.1670    5.5560    0.8610 Cl  0  0  0  0  0  0  0  0  0  0  0  0
   -2.6650    5.1590   -0.1110 C   0  0  0  0  0  0  0  0  0  0  0  0
   -3.7230    4.3500   -0.4800 C   0  0  0  0  0  0  0  0  0  0  0  0
   -3.6600    2.9720   -0.3620 C   0  0  0  0  0  0  0  0  0  0  0  0
   -4.8600    2.1740   -0.7890 C   0  0  0  0  0  0  0  0  0  0  0  0
   -1.5440   -1.9550   -0.3940 C   0  0  0  0  0  0  0  0  0  0  0  0
   -1.7660   -3.3170   -0.4070 C   0  0  0  0  0  0  0  0  0  0  0  0
   -1.7210   -4.0360   -1.6750 C   0  0  0  0  0  0  0  0  0  0  0  0
  1  2  1  0
  2  3  2  0
  2 34  1  0
  3  4  1  0
  4  5  2  0
  5  6  1  0
  5 33  1  0
  6  7  1  0
  6 24  1  6
  7  8  2  3
  8  9  1  0
  8 22  1  0
  9 10  1  0
 10 11  1  0
 10 12  2  0
 12 13  1  0
 12 23  1  0
 13 14  2  0
 13 15  1  0
 15 16  1  0
 16 17  2  0
 16 18  1  0
 18 19  1  0
 18 23  2  0
 19 20  1  0
 19 21  2  0
 21 22  1  0
 22 23  1  0
 24 25  1  0
 25 26  2  0
 25 31  1  0
 26 27  1  0
 27 28  1  0
 27 29  2  0
 29 30  1  0
 30 31  2  0
 31 32  1  0
 33 34  2  0
 34 35  1  0
M  CHG  1  20   1
M  END
