
     RDKit          3D

 35 38  0  0  0  0  0  0  0  0999 V2000
    8.1770   -1.7650    0.9030 C   0  0  0  0  0  0  0  0  0  0  0  0
    6.8980   -2.0930    0.5950 C   0  0  0  0  0  0  0  0  0  0  0  0
    5.8710   -1.0670    0.6920 C   0  0  0  0  0  0  0  0  0  0  0  0
    4.6140   -1.3510    0.4540 C   0  0  0  0  0  0  0  0  0  0  0  0
    3.5840   -0.3120    0.5560 C   0  0  0  0  0  0  0  0  0  0  0  0
    2.8670   -0.1320   -0.7710 C   0  0  0  0  0  0  0  0  0  0  0  0
    1.8600    0.8870   -0.7050 N   0  0  0  0  0  0  0  0  0  0  0  0
    2.1430    2.1650   -0.9880 C   0  0  0  0  0  0  0  0  0  0  0  0
    3.3370    2.4670   -1.3290 O   0  0  0  0  0  0  0  0  0  0  0  0
    1.2290    3.1380   -0.9290 N   0  0  0  0  0  0  0  0  0  0  0  0
   -0.0580    2.8350   -0.5650 C   0  0  0  0  0  0  0  0  0  0  0  0
   -0.9640    3.9890   -0.4990 C   0  0  0  0  0  0  0  0  0  0  0  0
   -1.1590    4.5100    0.8910 C   0  0  0  0  0  0  0  0  0  0  0  0
   -0.8640    5.7860    1.1430 C   0  0  0  0  0  0  0  0  0  0  0  0
   -0.3530    6.6700    0.0610 C   0  0  0  0  0  0  0  0  0  0  0  0
   -0.4270    1.5480   -0.2600 C   0  0  0  0  0  0  0  0  0  0  0  0
   -1.7970    1.2420    0.1020 C   0  0  0  0  0  0  0  0  0  0  0  0
   -2.6710    2.1750    0.1100 O   0  0  0  0  0  0  0  0  0  0  0  0
   -2.2760   -0.0530    0.4620 N   0  0  0  0  0  0  0  0  0  0  0  0
   -3.6960   -0.2010    0.8060 C   0  0  2  0  0  0  0  0  0  0  0  0
   -3.7600   -0.8700    2.1430 C   0  0  0  0  0  0  0  0  0  0  0  0
   -4.7570   -1.9160    2.2130 N   0  0  0  0  0  0  0  0  0  0  0  0
   -4.5820   -2.9360    1.2250 C   0  0  0  0  0  0  0  0  0  0  0  0
   -4.7640   -2.3060   -0.1190 C   0  0  0  0  0  0  0  0  0  0  0  0
   -4.3280   -1.0130   -0.2670 C   0  0  0  0  0  0  0  0  0  0  0  0
   -4.5990   -0.6670   -1.5600 C   0  0  0  0  0  0  0  0  0  0  0  0
   -5.1750   -1.7390   -2.1330 N   0  0  0  0  0  0  0  0  0  0  0  0
   -5.2820   -2.7380   -1.2770 N   0  0  0  0  0  0  0  0  0  0  0  0
   -5.8470   -4.0660   -1.5060 C   0  0  0  0  0  0  0  0  0  0  0  0
    0.5850    0.5970   -0.3470 C   0  0  0  0  0  0  0  0  0  0  0  0
    0.3380   -0.5900   -0.0880 O   0  0  0  0  0  0  0  0  0  0  0  0
    4.2690   -2.7000    0.0740 C   0  0  0  0  0  0  0  0  0  0  0  0
    5.1550   -3.6670   -0.0490 C   0  0  0  0  0  0  0  0  0  0  0  0
    4.6450   -5.3030   -0.5200 Cl  0  0  0  0  0  0  0  0  0  0  0  0
    6.5770   -3.4610    0.1770 C   0  0  0  0  0  0  0  0  0  0  0  0
  1  2  2  0
  2  3  1  0
  2 35  1  0
  3  4  2  0
  4  5  1  0
  4 32  1  0
  5  6  1  0
  6  7  1  0
  7  8  1  0
  7 30  1  0
  8  9  2  0
  8 10  1  0
 10 11  1  0
 11 12  1  0
 11 16  2  0
 12 13  1  0
 13 14  2  3
 14 15  1  0
 16 17  1  0
 16 30  1  0
 17 18  2  0
 17 19  1  0
 20 19  1  6
 20 21  1  0
 20 25  1  0
 21 22  1  0
 22 23  1  0
 23 24  1  0
 24 25  2  0
 24 28  1  0
 25 26  1  0
 26 27  2  0
 27 28  1  0
 28 29  1  0
 30 31  2  0
 32 33  2  0
 33 34  1  0
 33 35  1  0
M  CHG  1  22   1
M  END
