
     RDKit          3D

 35 39  0  0  0  0  0  0  0  0999 V2000
   -3.9900    1.1960    2.0820 O   0  0  0  0  0  0  0  0  0  0  0  0
   -3.9850    0.5330    1.0380 C   0  0  0  0  0  0  0  0  0  0  0  0
   -5.1170    0.2050    0.2730 N   0  0  0  0  0  0  0  0  0  0  0  0
   -6.4200    0.6190    0.6480 C   0  0  0  0  0  0  0  0  0  0  0  0
   -6.6830    1.3170    1.7800 C   0  0  0  0  0  0  0  0  0  0  0  0
   -8.0060    1.6680    2.0730 C   0  0  0  0  0  0  0  0  0  0  0  0
   -9.0300    1.3340    1.2650 C   0  0  0  0  0  0  0  0  0  0  0  0
  -10.6770    1.7850    1.6550 Cl  0  0  0  0  0  0  0  0  0  0  0  0
   -8.7620    0.6210    0.1100 C   0  0  0  0  0  0  0  0  0  0  0  0
   -9.8480    0.2940   -0.7050 C   0  0  0  0  0  0  0  0  0  0  0  0
   -9.6650   -0.4090   -1.8680 C   0  0  0  0  0  0  0  0  0  0  0  0
   -8.3860   -0.7650   -2.1800 C   0  0  0  0  0  0  0  0  0  0  0  0
   -7.2940   -0.4400   -1.3680 C   0  0  0  0  0  0  0  0  0  0  0  0
   -7.4770    0.2600   -0.2100 C   0  0  0  0  0  0  0  0  0  0  0  0
   -2.6730    0.0440    0.5570 C   0  0  0  0  0  0  0  0  0  0  0  0
   -2.4230   -0.6950   -0.5760 C   0  0  0  0  0  0  0  0  0  0  0  0
   -1.0600   -0.9300   -0.6210 C   0  0  0  0  0  0  0  0  0  0  0  0
   -0.2370   -1.6010   -1.4990 C   0  0  0  0  0  0  0  0  0  0  0  0
    1.1260   -1.6430   -1.2300 C   0  0  0  0  0  0  0  0  0  0  0  0
    1.5890   -1.0200   -0.1080 C   0  0  0  0  0  0  0  0  0  0  0  0
    2.9960   -1.0950    0.1920 N   0  0  0  0  0  0  0  0  0  0  0  0
    3.8930   -2.0270   -0.4390 C   0  0  0  0  0  0  0  0  0  0  0  0
    5.0700   -1.2990   -1.0630 C   0  0  0  0  0  0  0  0  0  0  0  0
    5.6850   -0.4360   -0.0650 N   0  0  0  0  0  0  0  0  0  0  0  0
    7.0930   -0.2590   -0.1300 C   0  0  0  0  0  0  0  0  0  0  0  0
    7.7880   -0.8390   -1.0320 O   0  0  0  0  0  0  0  0  0  0  0  0
    7.8030    0.5550    0.7840 N   0  0  0  0  0  0  0  0  0  0  0  0
    9.2250    0.7930    0.7930 C   0  0  0  0  0  0  0  0  0  0  0  0
    9.6190    1.4580   -0.4980 C   0  0  0  0  0  0  0  0  0  0  0  0
    8.9000    2.6620   -0.5570 O   0  0  0  0  0  0  0  0  0  0  0  0
    4.9430    0.2140    0.9620 C   0  0  0  0  0  0  0  0  0  0  0  0
    3.5370   -0.1830    1.1590 C   0  0  0  0  0  0  0  0  0  0  0  0
    0.7810   -0.3670    0.7460 N   0  0  0  0  0  0  0  0  0  0  0  0
   -0.5300   -0.3200    0.4950 C   0  0  0  0  0  0  0  0  0  0  0  0
   -1.5220    0.2670    1.1990 N   0  0  0  0  0  0  0  0  0  0  0  0
  1  2  2  0
  2  3  1  0
  2 15  1  0
  3  4  1  0
  4  5  2  0
  4 14  1  0
  5  6  1  0
  6  7  2  0
  7  8  1  0
  7  9  1  0
  9 10  2  0
  9 14  1  0
 10 11  1  0
 11 12  2  0
 12 13  1  0
 13 14  2  0
 15 16  2  0
 15 35  1  0
 16 17  1  0
 17 18  2  0
 17 34  1  0
 18 19  1  0
 19 20  2  0
 20 21  1  0
 20 33  1  0
 21 22  1  0
 21 32  1  0
 22 23  1  0
 23 24  1  0
 24 25  1  0
 24 31  1  0
 25 26  2  0
 25 27  1  0
 27 28  1  0
 28 29  1  0
 29 30  1  0
 31 32  1  0
 33 34  2  0
 34 35  1  0
M  CHG  1  33   1
M  END
