
     RDKit          3D

 35 39  0  0  0  0  0  0  0  0999 V2000
   -3.2150    3.1450    1.5440 C   0  0  0  0  0  0  0  0  0  0  0  0
   -4.5120    2.5420    1.1690 C   0  0  0  0  0  0  0  0  0  0  0  0
   -5.6290    3.2190    1.4760 C   0  0  0  0  0  0  0  0  0  0  0  0
   -6.9760    2.7870    1.1810 C   0  0  0  0  0  0  0  0  0  0  0  0
   -7.0510    1.5730    0.4660 N   0  0  0  0  0  0  0  0  0  0  0  0
   -6.0190    0.8920    0.1370 C   0  0  0  0  0  0  0  0  0  0  0  0
   -4.6220    1.2920    0.4560 C   0  0  0  0  0  0  0  0  0  0  0  0
   -3.6440    0.4270    0.1880 C   0  0  0  0  0  0  0  0  0  0  0  0
   -2.3850    0.5660    0.5580 N   0  0  0  0  0  0  0  0  0  0  0  0
   -1.4110   -0.3080    0.1260 C   0  0  0  0  0  0  0  0  0  0  0  0
   -0.1530   -0.1040    0.5400 N   0  0  0  0  0  0  0  0  0  0  0  0
    0.7830   -0.9780    0.1010 C   0  0  0  0  0  0  0  0  0  0  0  0
    2.1980   -0.8030    0.5130 C   0  0  0  0  0  0  0  0  0  0  0  0
    3.0160   -1.6250    0.0860 O   0  0  0  0  0  0  0  0  0  0  0  0
    2.5150    0.3460    1.4080 C   0  0  0  0  0  0  0  0  0  0  0  0
    3.9420    0.4820    1.7910 C   0  0  1  0  0  0  0  0  0  0  0  0
    4.4950   -0.6950    2.5160 C   0  0  0  0  0  0  0  0  0  0  0  0
    4.8650    0.8720    0.7110 C   0  0  0  0  0  0  0  0  0  0  0  0
    4.9860    2.1650    0.2450 C   0  0  0  0  0  0  0  0  0  0  0  0
    5.8750    2.4860   -0.7480 C   0  0  0  0  0  0  0  0  0  0  0  0
    6.6700    1.5170   -1.3010 C   0  0  0  0  0  0  0  0  0  0  0  0
    6.5650    0.2280   -0.8510 C   0  0  0  0  0  0  0  0  0  0  0  0
    7.4170   -0.8320   -1.4360 C   0  0  0  0  0  0  0  0  0  0  0  0
    5.6690   -0.0840    0.1460 C   0  0  0  0  0  0  0  0  0  0  0  0
    0.4440   -2.0040   -0.7180 C   0  0  0  0  0  0  0  0  0  0  0  0
   -0.8190   -2.2230   -1.1440 N   0  0  0  0  0  0  0  0  0  0  0  0
   -1.1750   -3.2300   -1.9550 C   0  0  0  0  0  0  0  0  0  0  0  0
   -0.3040   -4.0380   -2.3610 O   0  0  0  0  0  0  0  0  0  0  0  0
   -2.4680   -3.4030   -2.3550 N   0  0  0  0  0  0  0  0  0  0  0  0
   -2.7840   -4.5070   -3.2290 C   0  0  0  0  0  0  0  0  0  0  0  0
   -3.3800   -2.5340   -1.9140 C   0  0  0  0  0  0  0  0  0  0  0  0
   -4.5800   -2.6540   -2.2540 O   0  0  0  0  0  0  0  0  0  0  0  0
   -3.0500   -1.4850   -1.0780 C   0  0  0  0  0  0  0  0  0  0  0  0
   -1.7420   -1.3410   -0.6960 C   0  0  0  0  0  0  0  0  0  0  0  0
   -3.9770   -0.6180   -0.6440 N   0  0  0  0  0  0  0  0  0  0  0  0
  1  2  1  0
  2  3  2  0
  2  7  1  0
  3  4  1  0
  4  5  1  0
  5  6  2  0
  6  7  1  0
  7  8  2  3
  8  9  1  0
  8 35  1  0
  9 10  1  0
 10 11  2  0
 10 34  1  0
 11 12  1  0
 12 13  1  0
 12 25  2  0
 13 14  2  0
 13 15  1  0
 15 16  1  0
 16 17  1  6
 16 18  1  0
 18 19  2  0
 18 24  1  0
 19 20  1  0
 20 21  2  0
 21 22  1  0
 22 23  1  0
 22 24  2  0
 25 26  1  0
 26 27  1  0
 26 34  1  0
 27 28  2  0
 27 29  1  0
 29 30  1  0
 29 31  1  0
 31 32  2  0
 31 33  1  0
 33 34  2  0
 33 35  1  0
M  CHG  1   5   1
M  END
