
     RDKit          3D

  9  9  0  0  0  0  0  0  0  0999 V2000
   -2.3700    0.8750    0.0710 C   0  0  0  0  0  0  0  0  0  0  0  0
   -1.2280    0.2140    0.0590 C   0  0  0  0  0  0  0  0  0  0  0  0
   -1.2130   -1.2470    0.1980 C   0  0  0  0  0  0  0  0  0  0  0  0
   -0.0930   -1.9440    0.1910 C   0  0  0  0  0  0  0  0  0  0  0  0
    1.2140   -1.3110    0.0430 C   0  0  0  0  0  0  0  0  0  0  0  0
    1.2780    0.0250   -0.0900 C   0  0  0  0  0  0  0  0  0  0  0  0
    2.5740    0.5790   -0.2290 N   0  0  0  0  0  0  0  0  0  0  0  0
    0.0720    0.8520   -0.0890 C   0  0  0  0  0  0  0  0  0  0  0  0
    0.1920    2.1220   -0.2200 N   0  0  0  0  0  0  0  0  0  0  0  0
  1  2  2  0
  2  3  1  0
  2  8  1  0
  3  4  2  0
  4  5  1  0
  5  6  2  0
  6  7  1  0
  6  8  1  0
  8  9  2  0
M  END
