
     RDKit          3D

  9  9  0  0  0  0  0  0  0  0999 V2000
   -0.2300    2.0980    1.2920 N   0  0  0  0  0  0  0  0  0  0  0  0
   -0.5600    0.9930    0.7520 C   0  0  0  0  0  0  0  0  0  0  0  0
   -1.9530    0.5120    0.9110 C   0  0  0  0  0  0  0  0  0  0  0  0
   -2.2510   -0.6360    0.3360 C   0  0  0  0  0  0  0  0  0  0  0  0
   -1.2930   -1.4270   -0.4270 C   0  0  0  0  0  0  0  0  0  0  0  0
   -0.0430   -1.0400   -0.5960 C   0  0  0  0  0  0  0  0  0  0  0  0
    0.4210    0.2300   -0.0020 C   0  0  0  0  0  0  0  0  0  0  0  0
    1.6730    0.5740   -0.1960 C   0  0  0  0  0  0  0  0  0  0  0  0
    2.5610   -0.2360   -0.9480 N   0  0  0  0  0  0  0  0  0  0  0  0
  1  2  2  0
  2  3  1  0
  2  7  1  0
  3  4  2  0
  4  5  1  0
  5  6  2  0
  6  7  1  0
  7  8  2  3
  8  9  1  0
M  END
