
     RDKit          3D

  9  9  0  0  0  0  0  0  0  0999 V2000
   -1.7340   -1.7570    0.0200 C   0  0  0  0  0  0  0  0  0  0  0  0
   -0.7740   -0.5910    0.0120 C   0  0  0  0  0  0  0  0  0  0  0  0
   -1.2140    0.6450    0.0200 C   0  0  0  0  0  0  0  0  0  0  0  0
   -2.6400    0.7860    0.0380 N   0  0  0  0  0  0  0  0  0  0  0  0
   -0.3360    1.8030    0.0130 C   0  0  0  0  0  0  0  0  0  0  0  0
    0.9660    1.5840   -0.0030 C   0  0  0  0  0  0  0  0  0  0  0  0
    1.4980    0.2760   -0.0130 N   0  0  0  0  0  0  0  0  0  0  0  0
    2.9520    0.0980   -0.0310 C   0  0  0  0  0  0  0  0  0  0  0  0
    0.6660   -0.8880   -0.0060 C   0  0  0  0  0  0  0  0  0  0  0  0
  1  2  1  0
  2  3  2  0
  2  9  1  0
  3  4  1  0
  3  5  1  0
  5  6  2  0
  6  7  1  0
  7  8  1  0
  7  9  1  0
M  END
