
     RDKit          3D

  9  9  0  0  0  0  0  0  0  0999 V2000
    4.0450    0.4600    0.1660 N   0  0  0  0  0  0  0  0  0  0  0  0
    2.9650   -0.3410   -0.2400 C   0  0  0  0  0  0  0  0  0  0  0  0
    1.7000    0.0310   -0.1210 C   0  0  0  0  0  0  0  0  0  0  0  0
    0.6210   -0.8290   -0.5540 C   0  0  0  0  0  0  0  0  0  0  0  0
   -0.6270   -0.4560   -0.4340 C   0  0  0  0  0  0  0  0  0  0  0  0
   -1.0610    0.8410    0.1380 C   0  0  0  0  0  0  0  0  0  0  0  0
   -2.5320    0.9350   -0.1030 C   0  0  0  0  0  0  0  0  0  0  0  0
   -2.9170   -0.2170   -0.8500 N   0  0  0  0  0  0  0  0  0  0  0  0
   -1.8580   -1.1770   -0.8110 C   0  0  0  0  0  0  0  0  0  0  0  0
  1  2  1  0
  2  3  2  3
  3  4  1  0
  4  5  2  3
  5  6  1  0
  5  9  1  0
  6  7  1  0
  7  8  1  0
  8  9  1  0
M  END
