
     RDKit          3D

 27 30  0  0  0  0  0  0  0  0999 V2000
   -3.9010   -3.2980   -1.7830 C   0  0  0  0  0  0  0  0  0  0  0  0
   -3.3350   -2.0160   -1.2920 C   0  0  0  0  0  0  0  0  0  0  0  0
   -2.1980   -1.4310   -1.6970 N   0  0  0  0  0  0  0  0  0  0  0  0
   -1.9940   -0.2940   -1.0510 N   0  0  0  0  0  0  0  0  0  0  0  0
   -0.8890    0.5910   -1.2230 C   0  0  0  0  0  0  0  0  0  0  0  0
   -0.8690    1.5710   -2.1910 C   0  0  0  0  0  0  0  0  0  0  0  0
    0.1780    2.4460   -2.3900 C   0  0  0  0  0  0  0  0  0  0  0  0
    1.2610    2.3250   -1.5680 C   0  0  0  0  0  0  0  0  0  0  0  0
    2.3690    3.1930   -1.7190 N   0  0  0  0  0  0  0  0  0  0  0  0
    1.3040    1.3520   -0.5640 C   0  0  0  0  0  0  0  0  0  0  0  0
    2.4890    1.2860    0.2710 C   0  0  0  0  0  0  0  0  0  0  0  0
    3.4640    2.0860    0.1010 O   0  0  0  0  0  0  0  0  0  0  0  0
    2.5670    0.3150    1.2930 N   0  0  0  0  0  0  0  0  0  0  0  0
    3.7730    0.2810    2.1100 C   0  0  0  0  0  0  0  0  0  0  0  0
    4.8430   -0.3530    1.2950 C   0  0  0  0  0  0  0  0  0  0  0  0
    6.1390   -0.5740    1.7120 C   0  0  0  0  0  0  0  0  0  0  0  0
    6.7770   -1.1770    0.6490 C   0  0  0  0  0  0  0  0  0  0  0  0
    5.9320   -1.3300   -0.3900 N   0  0  0  0  0  0  0  0  0  0  0  0
    4.7580   -0.8310    0.0010 C   0  0  0  0  0  0  0  0  0  0  0  0
    0.2340    0.4990   -0.4030 C   0  0  0  0  0  0  0  0  0  0  0  0
   -3.0420   -0.1400   -0.1950 C   0  0  0  0  0  0  0  0  0  0  0  0
   -3.3450    0.8420    0.7050 C   0  0  0  0  0  0  0  0  0  0  0  0
   -4.5000    0.7350    1.4560 C   0  0  0  0  0  0  0  0  0  0  0  0
   -5.3580   -0.3430    1.3170 C   0  0  0  0  0  0  0  0  0  0  0  0
   -6.5440   -0.4150    2.1140 N   0  0  0  0  0  0  0  0  0  0  0  0
   -5.0590   -1.3370    0.4120 C   0  0  0  0  0  0  0  0  0  0  0  0
   -3.9040   -1.2180   -0.3300 C   0  0  0  0  0  0  0  0  0  0  0  0
  1  2  1  0
  2  3  2  0
  2 27  1  0
  3  4  1  0
  4  5  1  0
  4 21  1  0
  5  6  2  0
  5 20  1  0
  6  7  1  0
  7  8  2  0
  8  9  1  0
  8 10  1  0
 10 11  1  0
 10 20  2  0
 11 12  2  0
 11 13  1  0
 13 14  1  0
 14 15  1  0
 15 16  1  0
 15 19  2  0
 16 17  2  0
 17 18  1  0
 18 19  1  0
 21 22  2  0
 21 27  1  0
 22 23  1  0
 23 24  2  0
 24 25  1  0
 24 26  1  0
 26 27  2  0
M  END
