
     RDKit          3D

 28 31  0  0  0  0  0  0  0  0999 V2000
    1.0990    7.0320    0.6090 N   0  0  0  0  0  0  0  0  0  0  0  0
    0.5590    5.7230    0.7580 C   0  0  0  0  0  0  0  0  0  0  0  0
    0.2510    5.2690    1.9100 O   0  0  0  0  0  0  0  0  0  0  0  0
    0.3320    4.8540   -0.3400 N   0  0  0  0  0  0  0  0  0  0  0  0
   -0.2000    3.5800   -0.1410 N   0  0  0  0  0  0  0  0  0  0  0  0
    0.6000    2.6210    0.2110 C   0  0  0  0  0  0  0  0  0  0  0  0
    0.0500    1.2710    0.4220 C   0  0  0  0  0  0  0  0  0  0  0  0
   -1.2600    0.8750    0.2890 C   0  0  0  0  0  0  0  0  0  0  0  0
   -1.2950   -0.4590    0.5820 C   0  0  0  0  0  0  0  0  0  0  0  0
   -2.4570   -1.3170    0.5760 N   0  0  0  0  0  0  0  0  0  0  0  0
   -2.7500   -2.2180    1.4900 N   0  0  0  0  0  0  0  0  0  0  0  0
   -3.8980   -2.8370    1.1800 C   0  0  0  0  0  0  0  0  0  0  0  0
   -4.5580   -3.8650    1.9040 N   0  0  0  0  0  0  0  0  0  0  0  0
   -4.3290   -2.2790    0.0100 C   0  0  0  0  0  0  0  0  0  0  0  0
   -5.4300   -2.4900   -0.7950 C   0  0  0  0  0  0  0  0  0  0  0  0
   -5.6010   -1.7570   -1.9430 C   0  0  0  0  0  0  0  0  0  0  0  0
   -4.6830   -0.8050   -2.3080 C   0  0  0  0  0  0  0  0  0  0  0  0
   -3.5670   -0.5790   -1.5070 C   0  0  0  0  0  0  0  0  0  0  0  0
   -3.4070   -1.3180   -0.3630 C   0  0  0  0  0  0  0  0  0  0  0  0
   -0.0380   -0.8290    0.8780 N   0  0  0  0  0  0  0  0  0  0  0  0
    0.8290    0.1900    0.7960 C   0  0  0  0  0  0  0  0  0  0  0  0
    2.2330    0.2440    1.0610 C   0  0  0  0  0  0  0  0  0  0  0  0
    3.1530   -0.5440    0.5610 C   0  0  0  0  0  0  0  0  0  0  0  0
    2.8100   -1.6050   -0.3700 C   0  0  0  0  0  0  0  0  0  0  0  0
    3.7210   -2.2910   -1.0450 C   0  0  0  0  0  0  0  0  0  0  0  0
    5.1330   -1.9330   -0.8190 C   0  0  0  0  0  0  0  0  0  0  0  0
    5.3100   -1.6750    0.6530 C   0  0  0  0  0  0  0  0  0  0  0  0
    4.6070   -0.3660    0.9620 C   0  0  0  0  0  0  0  0  0  0  0  0
  1  2  1  0
  2  3  2  0
  2  4  1  0
  4  5  1  0
  5  6  2  3
  6  7  1  0
  7  8  1  0
  7 21  2  0
  8  9  2  0
  9 10  1  0
  9 20  1  0
 10 11  1  0
 10 19  1  0
 11 12  2  0
 12 13  1  0
 12 14  1  0
 14 15  2  0
 14 19  1  0
 15 16  1  0
 16 17  2  0
 17 18  1  0
 18 19  2  0
 20 21  1  0
 21 22  1  0
 22 23  2  3
 23 24  1  0
 23 28  1  0
 24 25  2  0
 25 26  1  0
 26 27  1  0
 27 28  1  0
M  END
