
     RDKit          3D

 11 10  0  0  0  0  0  0  0  0999 V2000
   -4.0110    0.2020   -0.5290 C   0  0  0  0  0  0  0  0  0  0  0  0
   -2.5300   -0.1230   -0.5000 C   0  0  0  0  0  0  0  0  0  0  0  0
   -1.8760    1.0210   -0.0470 O   0  0  0  0  0  0  0  0  0  0  0  0
   -0.5520    0.8750    0.0280 N   0  0  0  0  0  0  0  0  0  0  0  0
    0.1230    0.1720    1.0460 C   0  0  0  0  0  0  0  0  0  0  0  0
   -0.5680   -0.3740    1.9780 O   0  0  0  0  0  0  0  0  0  0  0  0
    1.5720    0.0730    1.0330 C   0  0  0  0  0  0  0  0  0  0  0  0
    2.2020   -0.5890    1.9930 C   0  0  0  0  0  0  0  0  0  0  0  0
    3.5970   -0.7010    2.0060 O   0  0  0  0  0  0  0  0  0  0  0  0
    2.2570    0.6840    0.0010 O   0  0  0  0  0  0  0  0  0  0  0  0
    2.8340   -0.1430   -0.9820 C   0  0  0  0  0  0  0  0  0  0  0  0
  1  2  1  0
  2  3  1  0
  3  4  1  0
  4  5  1  0
  5  6  2  0
  5  7  1  0
  7  8  2  3
  7 10  1  0
  8  9  1  0
 10 11  1  0
M  END
