
     RDKit          3D

 10 11  0  0  0  0  0  0  0  0999 V2000
    2.5720    1.9020    0.2500 O   0  0  0  0  0  0  0  0  0  0  0  0
    1.9920    0.6340    0.0440 C   0  0  0  0  0  0  0  0  0  0  0  0
    2.6000   -0.4840   -0.2460 O   0  0  0  0  0  0  0  0  0  0  0  0
    1.7220   -1.4680   -0.3650 C   0  0  0  0  0  0  0  0  0  0  0  0
    0.4500   -0.9790   -0.1410 C   0  0  0  0  0  0  0  0  0  0  0  0
    0.6320    0.3700    0.1200 C   0  0  0  0  0  0  0  0  0  0  0  0
   -0.4810    1.1400    0.3860 O   0  0  0  0  0  0  0  0  0  0  0  0
   -1.7440    0.5230    0.6250 C   0  0  0  0  0  0  0  0  0  0  0  0
   -1.8930   -0.5800   -0.3960 C   0  0  0  0  0  0  0  0  0  0  0  0
   -0.8330   -1.5100   -0.1270 O   0  0  0  0  0  0  0  0  0  0  0  0
  1  2  1  0
  2  3  1  0
  2  6  2  0
  3  4  1  0
  4  5  2  0
  5  6  1  0
  5 10  1  0
  6  7  1  0
  7  8  1  0
  8  9  1  0
  9 10  1  0
M  END
