
     RDKit          3D

 11 10  0  0  0  0  0  0  0  0999 V2000
   -4.6750    0.6080    0.6640 C   0  0  0  0  0  0  0  0  0  0  0  0
   -3.6560   -0.1980   -0.1380 C   0  0  0  0  0  0  0  0  0  0  0  0
   -2.3790    0.2310    0.2620 O   0  0  0  0  0  0  0  0  0  0  0  0
   -1.2630   -0.3480   -0.3210 C   0  0  0  0  0  0  0  0  0  0  0  0
   -1.4230   -1.2270   -1.1760 O   0  0  0  0  0  0  0  0  0  0  0  0
    0.0150    0.0240    0.0230 O   0  0  0  0  0  0  0  0  0  0  0  0
    1.1850   -0.5250   -0.5310 C   0  0  0  0  0  0  0  0  0  0  0  0
    2.3330    0.1460    0.1070 C   0  0  0  0  0  0  0  0  0  0  0  0
    2.1650    1.0300    0.9720 O   0  0  0  0  0  0  0  0  0  0  0  0
    3.6590   -0.1990   -0.2500 N   0  0  0  0  0  0  0  0  0  0  0  0
    4.8320    0.4360    0.3520 C   0  0  0  0  0  0  0  0  0  0  0  0
  1  2  1  0
  2  3  1  0
  3  4  1  0
  4  5  2  0
  4  6  1  0
  6  7  1  0
  7  8  1  0
  8  9  2  0
  8 10  1  0
 10 11  1  0
M  END
