
     RDKit          3D

 10  9  0  0  0  0  0  0  0  0999 V2000
    3.6980    0.6520   -0.1700 C   0  0  0  0  0  0  0  0  0  0  0  0
    2.5510    0.4810    0.4710 C   0  0  0  0  0  0  0  0  0  0  0  0
    1.9490   -0.8670    0.6510 C   0  0  0  0  0  0  0  0  0  0  0  0
    0.6370   -0.9800    0.0550 N   0  0  0  0  0  0  0  0  0  0  0  0
   -0.3900   -0.1090    0.5210 C   0  0  0  0  0  0  0  0  0  0  0  0
   -0.1310    0.7240    1.4280 O   0  0  0  0  0  0  0  0  0  0  0  0
   -1.7160   -0.2090   -0.0680 C   0  0  0  0  0  0  0  0  0  0  0  0
   -1.9900   -1.0350   -0.9730 O   0  0  0  0  0  0  0  0  0  0  0  0
   -2.7380    0.6220    0.3620 O   0  0  0  0  0  0  0  0  0  0  0  0
   -4.0220    0.5400   -0.1940 C   0  0  0  0  0  0  0  0  0  0  0  0
  1  2  2  0
  2  3  1  0
  3  4  1  0
  4  5  1  0
  5  6  2  0
  5  7  1  0
  7  8  2  0
  7  9  1  0
  9 10  1  0
M  END
