
     RDKit          3D

 46 50  0  0  0  0  0  0  0  0999 V2000
    5.7340    2.3890   -2.0260 C   0  0  0  0  0  0  0  0  0  0  0  0
    4.9470    1.1630   -1.9130 C   0  0  0  0  0  0  0  0  0  0  0  0
    4.0060    1.0180   -0.9720 C   0  0  0  0  0  0  0  0  0  0  0  0
    3.8930    2.2300   -0.1120 C   0  0  0  0  0  0  0  0  0  0  0  0
    2.7410    2.8260    0.1900 C   0  0  0  0  0  0  0  0  0  0  0  0
    2.9430    4.1130    0.4970 C   0  0  0  0  0  0  0  0  0  0  0  0
    2.5820    4.7600    1.7310 C   0  0  0  0  0  0  0  0  0  0  0  0
    1.4960    5.4410    2.0360 C   0  0  0  0  0  0  0  0  0  0  0  0
    0.3480    5.7270    1.1750 C   0  0  0  0  0  0  0  0  0  0  0  0
   -0.1790    4.8250    0.3450 N   0  0  0  0  0  0  0  0  0  0  0  0
   -1.2110    5.3740   -0.3100 C   0  0  0  0  0  0  0  0  0  0  0  0
   -1.3420    6.6780    0.1210 C   0  0  0  0  0  0  0  0  0  0  0  0
   -0.3820    6.8760    1.0290 N   0  0  0  0  0  0  0  0  0  0  0  0
   -2.0020    4.6400   -1.2930 C   0  0  0  0  0  0  0  0  0  0  0  0
   -2.7470    5.2260   -2.1190 O   0  0  0  0  0  0  0  0  0  0  0  0
   -1.9620    3.2090   -1.3430 N   0  0  0  0  0  0  0  0  0  0  0  0
   -1.6620    2.4200   -0.1910 C   0  0  1  0  0  0  0  0  0  0  0  0
   -2.1150    2.6910    1.1700 C   0  0  0  0  0  0  0  0  0  0  0  0
   -3.0230    1.9170    0.3310 C   0  0  1  0  0  0  0  0  0  0  0  0
   -4.2700    2.6350   -0.1790 C   0  0  0  0  0  0  0  0  0  0  0  0
   -2.9800    0.4270    0.1690 C   0  0  0  0  0  0  0  0  0  0  0  0
   -3.8840   -0.2170    1.1010 N   0  0  0  0  0  0  0  0  0  0  0  0
   -4.4710   -1.4890    0.8840 C   0  0  0  0  0  0  0  0  0  0  0  0
   -5.5810   -1.7000    1.4700 O   0  0  0  0  0  0  0  0  0  0  0  0
   -3.9430   -2.5290    0.0880 N   0  0  0  0  0  0  0  0  0  0  0  0
   -4.8720   -3.4850   -0.5190 C   0  0  0  0  0  0  0  0  0  0  0  0
   -5.1630   -4.6660    0.3420 C   0  0  2  0  0  0  0  0  0  0  0  0
   -3.9570   -5.4930    0.7020 C   0  0  0  0  0  0  0  0  0  0  0  0
   -6.0820   -5.5990   -0.4500 C   0  0  0  0  0  0  0  0  0  0  0  0
   -2.5110   -2.6980   -0.1690 C   0  0  0  0  0  0  0  0  0  0  0  0
   -1.7850   -2.7180    1.1060 C   0  0  0  0  0  0  0  0  0  0  0  0
   -2.2650   -2.0670    2.0980 O   0  0  0  0  0  0  0  0  0  0  0  0
   -0.5660   -3.4100    1.3530 N   0  0  0  0  0  0  0  0  0  0  0  0
    0.5380   -3.4270    0.4560 N   0  0  0  0  0  0  0  0  0  0  0  0
    1.2000   -2.2680   -0.0150 C   0  0  0  0  0  0  0  0  0  0  0  0
    0.8890   -1.2700   -0.8700 C   0  0  0  0  0  0  0  0  0  0  0  0
    1.8120   -0.2290   -1.1510 C   0  0  0  0  0  0  0  0  0  0  0  0
    3.0870   -0.1480   -0.5850 C   0  0  0  0  0  0  0  0  0  0  0  0
    3.3940   -1.1780    0.2960 C   0  0  0  0  0  0  0  0  0  0  0  0
    4.5610   -1.6000    1.1810 C   0  0  0  0  0  0  0  0  0  0  0  0
    5.5490   -2.2090    0.3270 N   0  0  0  0  0  0  0  0  0  0  0  0
    6.5720   -1.6150   -0.3130 C   0  0  0  0  0  0  0  0  0  0  0  0
    7.2900   -2.5490   -1.0350 C   0  0  0  0  0  0  0  0  0  0  0  0
    6.6670   -3.7530   -0.8150 C   0  0  0  0  0  0  0  0  0  0  0  0
    5.6210   -3.5090    0.0130 C   0  0  0  0  0  0  0  0  0  0  0  0
    2.4390   -2.1190    0.4900 N   0  0  0  0  0  0  0  0  0  0  0  0
  1  2  1  0
  2  3  2  3
  3  4  1  0
  3 38  1  0
  4  5  2  0
  5  6  2  0
  6  7  1  0
  7  8  2  0
  8  9  1  0
  9 10  2  0
  9 13  1  0
 10 11  1  0
 11 12  2  0
 11 14  1  0
 12 13  1  0
 14 15  2  0
 14 16  1  0
 16 17  1  0
 17 18  1  1
 17 19  1  0
 18 19  1  0
 19 20  1  6
 19 21  1  0
 21 22  1  0
 22 23  1  0
 23 24  2  0
 23 25  1  0
 25 26  1  0
 25 30  1  0
 26 27  1  0
 27 28  1  6
 27 29  1  0
 30 31  1  0
 31 32  2  0
 31 33  1  0
 33 34  1  0
 34 35  1  0
 35 36  2  0
 35 46  1  0
 36 37  1  0
 37 38  2  0
 38 39  1  0
 39 40  1  0
 39 46  2  0
 40 41  1  0
 41 42  1  0
 41 45  1  0
 42 43  2  0
 43 44  1  0
 44 45  2  0
M  END
