
     RDKit          3D

 34 37  0  0  0  0  0  0  0  0999 V2000
   -7.3050   -2.0360   -1.2900 C   0  0  0  0  0  0  0  0  0  0  0  0
   -6.0190   -1.6780   -0.5850 C   0  0  0  0  0  0  0  0  0  0  0  0
   -5.8280   -0.3370   -0.0960 C   0  0  0  0  0  0  0  0  0  0  0  0
   -6.7940    0.5600   -0.2100 C   0  0  0  0  0  0  0  0  0  0  0  0
   -6.6500    1.9530    0.2770 C   0  0  0  0  0  0  0  0  0  0  0  0
   -6.8420    3.1220   -1.0670 Cl  0  0  0  0  0  0  0  0  0  0  0  0
   -4.6040    0.0240    0.5190 N   0  0  0  0  0  0  0  0  0  0  0  0
   -3.4090    0.1510   -0.3020 C   0  0  0  0  0  0  0  0  0  0  0  0
   -3.4630   -0.0360   -1.5240 O   0  0  0  0  0  0  0  0  0  0  0  0
   -2.2150    0.4870    0.3600 N   0  0  0  0  0  0  0  0  0  0  0  0
   -0.9750    0.6620   -0.3140 C   0  0  0  0  0  0  0  0  0  0  0  0
   -0.8270    0.7940   -1.6650 C   0  0  0  0  0  0  0  0  0  0  0  0
    0.4200    1.0020   -2.2260 C   0  0  0  0  0  0  0  0  0  0  0  0
    1.5410    1.0880   -1.5130 N   0  0  0  0  0  0  0  0  0  0  0  0
    1.4460    0.9660   -0.1990 C   0  0  0  0  0  0  0  0  0  0  0  0
    2.6320    1.0400    0.5360 C   0  0  0  0  0  0  0  0  0  0  0  0
    3.9000    1.2780   -0.1480 C   0  0  0  0  0  0  0  0  0  0  0  0
    4.9620    0.5700    0.2040 C   0  0  0  0  0  0  0  0  0  0  0  0
    5.0600   -0.4780    1.2360 C   0  0  0  0  0  0  0  0  0  0  0  0
    6.4400   -0.9060    1.1510 N   0  0  0  0  0  0  0  0  0  0  0  0
    7.2590   -1.7840    1.7280 N   0  0  0  0  0  0  0  0  0  0  0  0
    8.4560   -1.6580    1.1720 N   0  0  0  0  0  0  0  0  0  0  0  0
    8.4080   -0.6920    0.2310 C   0  0  0  0  0  0  0  0  0  0  0  0
    9.5450   -0.2510   -0.6090 C   0  0  0  0  0  0  0  0  0  0  0  0
    9.3640   -0.7600   -1.8990 F   0  0  0  0  0  0  0  0  0  0  0  0
    7.1160   -0.2160    0.2230 C   0  0  0  0  0  0  0  0  0  0  0  0
    6.2440    0.6810   -0.3590 O   0  0  0  0  0  0  0  0  0  0  0  0
    2.5330    0.8980    1.8630 N   0  0  0  0  0  0  0  0  0  0  0  0
    1.3950    0.6960    2.5090 C   0  0  0  0  0  0  0  0  0  0  0  0
    0.2110    0.6220    1.7750 C   0  0  0  0  0  0  0  0  0  0  0  0
    0.2190    0.7550    0.4240 C   0  0  0  0  0  0  0  0  0  0  0  0
   -5.1110   -2.6010   -0.4750 C   0  0  0  0  0  0  0  0  0  0  0  0
   -3.9250   -2.4210    0.1280 F   0  0  0  0  0  0  0  0  0  0  0  0
   -5.4410   -4.2130   -1.1720 Cl  0  0  0  0  0  0  0  0  0  0  0  0
  1  2  1  0
  2  3  1  0
  2 32  2  3
  3  4  2  3
  3  7  1  0
  4  5  1  0
  5  6  1  0
  7  8  1  0
  8  9  2  0
  8 10  1  0
 10 11  1  0
 11 12  2  0
 11 31  1  0
 12 13  1  0
 13 14  2  0
 14 15  1  0
 15 16  2  0
 15 31  1  0
 16 17  1  0
 16 28  1  0
 17 18  2  3
 18 19  1  0
 18 27  1  0
 19 20  1  0
 20 21  1  0
 20 26  1  0
 21 22  2  0
 22 23  1  0
 23 24  1  0
 23 26  2  0
 24 25  1  0
 26 27  1  0
 28 29  2  0
 29 30  1  0
 30 31  2  0
 32 33  1  0
 32 34  1  0
M  END
