
     RDKit          3D

 10  9  0  0  0  0  0  0  0  0999 V2000
    3.4570    0.1460   -0.2520 C   0  0  0  0  0  0  0  0  0  0  0  0
    2.4390   -0.4230    0.4940 O   0  0  0  0  0  0  0  0  0  0  0  0
    1.6160    0.5760    1.0220 C   0  0  0  0  0  0  0  0  0  0  0  0
    0.5840    0.0320    1.7760 O   0  0  0  0  0  0  0  0  0  0  0  0
   -0.2400   -0.8060    1.0750 C   0  0  0  0  0  0  0  0  0  0  0  0
   -0.9720   -0.2010   -0.0820 C   0  0  1  0  0  0  0  0  0  0  0  0
   -1.8040   -1.3200   -0.6950 C   0  0  0  0  0  0  0  0  0  0  0  0
   -2.5380   -0.8890   -1.7870 O   0  0  0  0  0  0  0  0  0  0  0  0
   -1.8780    0.9330    0.3080 C   0  0  0  0  0  0  0  0  0  0  0  0
   -1.2800    2.0020    0.9040 O   0  0  0  0  0  0  0  0  0  0  0  0
  1  2  1  0
  2  3  1  0
  3  4  1  0
  4  5  1  0
  6  5  1  1
  6  7  1  0
  6  9  1  0
  7  8  1  0
  9 10  1  0
M  END
