
     RDKit          3D

 10  9  0  0  0  0  0  0  0  0999 V2000
   -2.5240    1.5720   -0.2640 C   0  0  0  0  0  0  0  0  0  0  0  0
   -1.7670    0.3010   -0.1170 C   0  0  0  0  0  0  0  0  0  0  0  0
   -2.4160   -0.8210   -0.3270 C   0  0  0  0  0  0  0  0  0  0  0  0
   -1.7300   -2.0280   -0.1960 O   0  0  0  0  0  0  0  0  0  0  0  0
   -0.3530    0.3410    0.2480 C   0  0  0  0  0  0  0  0  0  0  0  0
    0.2080    1.4510    0.4340 O   0  0  0  0  0  0  0  0  0  0  0  0
    0.4040   -0.7900    0.4000 O   0  0  0  0  0  0  0  0  0  0  0  0
    1.7690   -0.8210    0.7500 C   0  0  0  0  0  0  0  0  0  0  0  0
    2.6310   -0.0920   -0.2660 C   0  0  0  0  0  0  0  0  0  0  0  0
    3.9680   -0.1420    0.1070 O   0  0  0  0  0  0  0  0  0  0  0  0
  1  2  1  0
  2  3  2  3
  2  5  1  0
  3  4  1  0
  5  6  2  0
  5  7  1  0
  7  8  1  0
  8  9  1  0
  9 10  1  0
M  END
