
     RDKit          3D

  7  7  0  0  0  0  0  0  0  0999 V2000
   -2.2420   -0.7890   -0.6310 O   0  0  0  0  0  0  0  0  0  0  0  0
   -1.5900    0.0710    0.0090 C   0  0  0  0  0  0  0  0  0  0  0  0
   -0.1460    0.0650   -0.0480 C   0  0  0  0  0  0  0  0  0  0  0  0
    0.9400    1.1560    0.7540 P   0  0  0  0  0  0  0  0  0  0  0  0
    2.5090    0.2670    0.0100 O   0  0  0  0  0  0  0  0  0  0  0  0
    1.8880   -0.8670   -0.0090 O   0  0  0  0  0  0  0  0  0  0  0  0
    0.7410   -0.7200   -0.6870 O   0  0  0  0  0  0  0  0  0  0  0  0
  1  2  2  0
  2  3  1  0
  3  4  2  0
  3  7  1  0
  4  5  1  0
  5  6  1  0
  6  7  1  0
M  END
