
     RDKit          3D

  6  5  0  0  0  0  0  0  0  0999 V2000
   -1.3130    0.6890   -0.9550 O   0  0  0  0  0  0  0  0  0  0  0  0
   -0.6030   -0.0230    0.2200 P   0  0  0  0  0  0  0  0  0  0  0  0
   -1.6670   -1.3110   -0.1030 O   0  0  0  0  0  0  0  0  0  0  0  0
   -1.0560    1.1720    1.2470 O   0  0  0  0  0  0  0  0  0  0  0  0
    0.9980   -0.0870   -0.4200 C   0  0  0  0  0  0  0  0  0  0  0  0
    2.3230   -0.7420    0.5890 S   0  0  0  0  0  0  0  0  0  0  0  0
  1  2  1  0
  2  3  1  0
  2  4  1  0
  2  5  1  0
  5  6  1  0
M  END
