
     RDKit          3D

 28 29  0  0  0  0  0  0  0  0999 V2000
   -0.6610   -4.2630    1.9820 C   0  0  0  0  0  0  0  0  0  0  0  0
   -1.4670   -3.0660    1.7220 C   0  0  0  0  0  0  0  0  0  0  0  0
   -1.3480   -2.4090    0.5780 C   0  0  0  0  0  0  0  0  0  0  0  0
   -2.1630   -1.2310    0.3640 C   0  0  0  0  0  0  0  0  0  0  0  0
   -2.1210   -0.4850   -0.7440 C   0  0  0  0  0  0  0  0  0  0  0  0
   -3.0330    0.6630   -0.7680 C   0  0  0  0  0  0  0  0  0  0  0  0
   -3.1450    1.4940   -1.7740 C   0  0  0  0  0  0  0  0  0  0  0  0
   -2.4560    1.4520   -2.9620 O   0  0  0  0  0  0  0  0  0  0  0  0
   -2.8530    2.5040   -3.7730 C   0  0  0  0  0  0  0  0  0  0  0  0
   -3.7420    3.1890   -3.1580 N   0  0  0  0  0  0  0  0  0  0  0  0
   -3.9970    2.6360   -1.8900 N   0  0  0  0  0  0  0  0  0  0  0  0
   -4.9130    3.0870   -0.8870 C   0  0  0  0  0  0  0  0  0  0  0  0
   -4.5130    4.8120   -0.3200 P   0  0  0  0  0  0  0  0  0  0  0  0
   -4.2050    5.0610    1.1810 O   0  0  0  0  0  0  0  0  0  0  0  0
   -1.2670   -0.7810   -1.7920 O   0  0  0  0  0  0  0  0  0  0  0  0
    0.0010   -0.2270   -2.0140 C   0  0  0  0  0  0  0  0  0  0  0  0
    0.9980   -0.4820   -0.9070 C   0  0  0  0  0  0  0  0  0  0  0  0
    2.3090    0.1940   -1.2400 C   0  0  0  0  0  0  0  0  0  0  0  0
    2.3780    0.8390   -2.3080 O   0  0  0  0  0  0  0  0  0  0  0  0
    3.4210    0.0640   -0.3120 C   0  0  0  0  0  0  0  0  0  0  0  0
    3.3150   -0.8580    1.2100 P   0  0  0  0  0  0  0  0  0  0  0  0
    5.1850   -0.4750    1.7310 C   0  0  1  0  0  0  0  0  0  0  0  0
    5.1450    0.2790    3.0440 C   0  0  0  0  0  0  0  0  0  0  0  0
    6.0490   -2.0080    1.8720 Cl  0  0  0  0  0  0  0  0  0  0  0  0
    5.5610    0.3200    0.6030 C   0  0  0  0  0  0  0  0  0  0  0  0
    4.7520    0.5760   -0.3510 C   0  0  0  0  0  0  0  0  0  0  0  0
   -2.3730   -2.6360    2.7320 N   0  0  0  0  0  0  0  0  0  0  0  0
   -2.1530   -1.6400    3.4490 O   0  0  0  0  0  0  0  0  0  0  0  0
  1  2  1  0
  2  3  2  3
  2 27  1  0
  3  4  1  0
  4  5  2  3
  5  6  1  0
  5 15  1  0
  6  7  2  3
  7  8  1  0
  7 11  1  0
  8  9  1  0
  9 10  2  0
 10 11  1  0
 11 12  1  0
 12 13  1  0
 13 14  2  0
 15 16  1  0
 16 17  1  0
 17 18  1  0
 18 19  2  0
 18 20  1  0
 20 21  2  0
 20 26  1  0
 21 22  1  0
 22 23  1  1
 22 24  1  0
 22 25  1  0
 25 26  2  0
 27 28  2  0
M  END
