
     RDKit          3D

 28 29  0  0  0  0  0  0  0  0999 V2000
    8.1340    1.2250    0.4250 C   0  0  0  0  0  0  0  0  0  0  0  0
    7.0730    0.4060   -0.3970 C   0  0  0  0  0  0  0  0  0  0  0  0
    6.2080    1.3670   -0.8010 O   0  0  0  0  0  0  0  0  0  0  0  0
    4.6410    1.1410   -0.2450 P   0  0  0  0  0  0  0  0  0  0  0  0
    3.9380    2.6120    0.3450 O   0  0  0  0  0  0  0  0  0  0  0  0
    4.0640   -0.4100    0.4120 C   0  0  2  0  0  0  0  0  0  0  0  0
    4.1100   -0.5580    1.7990 O   0  0  0  0  0  0  0  0  0  0  0  0
    4.8180   -1.8090   -0.3510 Cl  0  0  0  0  0  0  0  0  0  0  0  0
    2.5420   -0.5010    0.1670 C   0  0  0  0  0  0  0  0  0  0  0  0
    1.8530    0.5160   -0.5740 C   0  0  0  0  0  0  0  0  0  0  0  0
    0.5280    0.1110   -0.5270 C   0  0  0  0  0  0  0  0  0  0  0  0
   -0.6020    0.8990   -1.1130 C   0  0  0  0  0  0  0  0  0  0  0  0
    0.4440   -1.0590    0.1560 C   0  0  0  0  0  0  0  0  0  0  0  0
   -0.9270   -2.0850    0.5280 P   0  0  0  0  0  0  0  0  0  0  0  0
   -0.7930   -2.7490    2.3530 C   0  0  0  0  0  0  0  0  0  0  0  0
   -2.5910   -1.4810    0.4020 C   0  0  0  0  0  0  0  0  0  0  0  0
   -3.2250   -3.5010   -0.2230 Cl  0  0  0  0  0  0  0  0  0  0  0  0
   -3.7050   -1.1980    0.3160 C   0  0  0  0  0  0  0  0  0  0  0  0
   -3.8680    0.3900    0.3690 C   0  0  0  0  0  0  0  0  0  0  0  0
   -5.1410    0.8270    0.1990 C   0  0  0  0  0  0  0  0  0  0  0  0
   -5.3630    2.3730    0.2860 N   0  0  0  0  0  0  0  0  0  0  0  0
   -6.6560    2.3700    0.8540 C   0  0  0  0  0  0  0  0  0  0  0  0
   -7.3730    1.9040   -0.6010 C   0  0  0  0  0  0  0  0  0  0  0  0
   -7.7930    3.1190   -0.8360 O   0  0  0  0  0  0  0  0  0  0  0  0
   -6.7850    0.3050   -0.2300 P   0  0  0  0  0  0  0  0  0  0  0  0
   -4.9430   -1.7240    0.1940 O   0  0  0  0  0  0  0  0  0  0  0  0
   -5.4410   -2.7350   -0.5820 N   0  0  0  0  0  0  0  0  0  0  0  0
    1.7060   -1.3540    0.5570 O   0  0  0  0  0  0  0  0  0  0  0  0
  1  2  1  0
  2  3  1  0
  3  4  1  0
  4  5  1  0
  4  6  1  0
  6  7  1  1
  6  8  1  0
  6  9  1  0
  9 10  2  0
  9 28  1  0
 10 11  1  0
 11 12  1  0
 11 13  2  0
 13 14  1  0
 13 28  1  0
 14 15  1  0
 14 16  1  0
 16 17  1  0
 16 18  2  3
 18 19  1  0
 18 26  1  0
 19 20  2  3
 20 21  1  0
 20 25  1  0
 21 22  2  0
 22 23  2  0
 23 24  1  0
 23 25  1  0
 26 27  1  0
M  END
