
     RDKit          3D

 28 29  0  0  0  0  0  0  0  0999 V2000
    4.0380    0.9490   -2.8410 C   0  0  0  0  0  0  0  0  0  0  0  0
    4.7230    0.0210   -1.8930 C   0  0  0  0  0  0  0  0  0  0  0  0
    5.9040   -0.2810   -2.1330 O   0  0  0  0  0  0  0  0  0  0  0  0
    4.0210   -0.5150   -0.7190 C   0  0  0  0  0  0  0  0  0  0  0  0
    2.8030   -0.1450   -0.5510 N   0  0  0  0  0  0  0  0  0  0  0  0
    2.0290   -0.6410    0.6050 C   0  0  0  0  0  0  0  0  0  0  0  0
    1.4830    0.1260    1.3630 N   0  0  0  0  0  0  0  0  0  0  0  0
    0.8620    0.9170    2.2290 C   0  0  0  0  0  0  0  0  0  0  0  0
   -0.1170    1.8460    2.0490 C   0  0  0  0  0  0  0  0  0  0  0  0
   -0.6990    2.1800    0.8670 N   0  0  0  0  0  0  0  0  0  0  0  0
   -1.5930    2.3690    0.0510 C   0  0  0  0  0  0  0  0  0  0  0  0
   -1.2100    2.8500   -1.3530 C   0  0  0  0  0  0  0  0  0  0  0  0
   -2.9110    2.1980    0.3590 N   0  0  0  0  0  0  0  0  0  0  0  0
   -3.9710    1.6850    0.6220 C   0  0  0  0  0  0  0  0  0  0  0  0
   -5.1380    2.3800    0.8620 O   0  0  0  0  0  0  0  0  0  0  0  0
   -4.0220    0.2840    0.6890 O   0  0  0  0  0  0  0  0  0  0  0  0
   -2.8540   -0.5360    0.7220 C   0  0  0  0  0  0  0  0  0  0  0  0
   -2.3180   -0.9890   -0.4220 C   0  0  0  0  0  0  0  0  0  0  0  0
   -1.1390   -1.7970   -0.4770 C   0  0  0  0  0  0  0  0  0  0  0  0
   -0.9090   -2.0790   -1.9590 C   0  0  0  0  0  0  0  0  0  0  0  0
   -0.4830   -2.1490    0.7270 C   0  0  0  0  0  0  0  0  0  0  0  0
   -1.0880   -1.6610    1.8700 C   0  0  0  0  0  0  0  0  0  0  0  0
   -0.7190   -1.8270    3.6790 Cl  0  0  0  0  0  0  0  0  0  0  0  0
   -2.2590   -0.8630    1.8800 C   0  0  0  0  0  0  0  0  0  0  0  0
    0.8600   -2.8600    0.7680 C   0  0  0  0  0  0  0  0  0  0  0  0
    1.2280   -4.1360    0.8970 C   0  0  0  0  0  0  0  0  0  0  0  0
    1.5000   -5.3610    0.7780 O   0  0  0  0  0  0  0  0  0  0  0  0
    2.0600   -2.0640    0.6410 O   0  0  0  0  0  0  0  0  0  0  0  0
  1  2  1  0
  2  3  2  0
  2  4  1  0
  4  5  2  3
  5  6  1  0
  6  7  2  0
  6 28  1  0
  7  8  1  0
  8  9  2  0
  9 10  1  0
 10 11  2  0
 11 12  1  0
 11 13  1  0
 13 14  2  0
 14 15  1  0
 14 16  1  0
 16 17  1  0
 17 18  2  0
 17 24  1  0
 18 19  1  0
 19 20  1  0
 19 21  2  0
 21 22  1  0
 21 25  1  0
 22 23  1  0
 22 24  2  0
 25 26  2  0
 25 28  1  0
 26 27  2  0
M  END
