
     RDKit          3D

 34 36  0  0  0  0  0  0  0  0999 V2000
   -1.6690   -5.2970   -3.8350 C   0  0  0  0  0  0  0  0  0  0  0  0
   -1.0190   -4.2840   -2.9650 C   0  0  0  0  0  0  0  0  0  0  0  0
    0.1910   -4.5550   -2.3690 C   0  0  0  0  0  0  0  0  0  0  0  0
    0.8150   -3.6360   -1.5580 C   0  0  0  0  0  0  0  0  0  0  0  0
    0.2160   -2.3810   -1.3170 C   0  0  0  0  0  0  0  0  0  0  0  0
    0.9120   -1.3940   -0.5940 N   0  0  0  0  0  0  0  0  0  0  0  0
    2.0230   -1.6010    0.2670 C   0  0  0  0  0  0  0  0  0  0  0  0
    2.4520   -2.7560    0.4430 O   0  0  0  0  0  0  0  0  0  0  0  0
    2.7070   -0.5210    0.9670 C   0  0  0  0  0  0  0  0  0  0  0  0
    3.8150   -0.7150    1.7790 C   0  0  0  0  0  0  0  0  0  0  0  0
    4.2620    0.4760    2.2900 C   0  0  0  0  0  0  0  0  0  0  0  0
    5.4350    0.6490    3.1840 C   0  0  0  0  0  0  0  0  0  0  0  0
    6.3820   -0.4500    2.9280 N   0  0  0  0  0  0  0  0  0  0  0  0
    3.4320    1.4070    1.7970 N   0  0  0  0  0  0  0  0  0  0  0  0
    3.5360    2.8080    2.0850 C   0  0  0  0  0  0  0  0  0  0  0  0
    4.4140    3.4980    1.0940 C   0  0  0  0  0  0  0  0  0  0  0  0
    4.5020    4.8700    1.4130 O   0  0  0  0  0  0  0  0  0  0  0  0
    2.4920    0.8380    1.0020 C   0  0  0  0  0  0  0  0  0  0  0  0
    1.4670    1.4640    0.3160 O   0  0  0  0  0  0  0  0  0  0  0  0
   -0.9790   -2.0820   -1.8860 C   0  0  0  0  0  0  0  0  0  0  0  0
   -1.8270   -0.9580   -1.6320 C   0  0  2  0  0  0  0  0  0  0  0  0
   -2.6530   -0.7090   -2.9190 C   0  0  0  0  0  0  0  0  0  0  0  0
   -1.5550    0.2350   -1.0230 N   0  0  0  0  0  0  0  0  0  0  0  0
   -2.8410    1.0540   -0.9220 C   0  0  2  0  0  0  0  0  0  0  0  0
   -2.5030    2.4090   -1.5380 C   0  0  0  0  0  0  0  0  0  0  0  0
   -3.2770    1.1240    0.4850 C   0  0  0  0  0  0  0  0  0  0  0  0
   -4.2360    0.2620    1.0090 C   0  0  0  0  0  0  0  0  0  0  0  0
   -5.0070   -0.6620    0.1610 C   0  0  0  0  0  0  0  0  0  0  0  0
   -4.5870    0.2470    2.3630 C   0  0  0  0  0  0  0  0  0  0  0  0
   -3.9820    1.1050    3.2390 C   0  0  0  0  0  0  0  0  0  0  0  0
   -3.0510    1.9500    2.7620 C   0  0  0  0  0  0  0  0  0  0  0  0
   -2.6900    1.9680    1.3890 C   0  0  0  0  0  0  0  0  0  0  0  0
   -1.6060    2.9000    1.0830 C   0  0  0  0  0  0  0  0  0  0  0  0
   -1.5950   -3.0640   -2.7270 C   0  0  0  0  0  0  0  0  0  0  0  0
  1  2  1  0
  2  3  2  0
  2 34  1  0
  3  4  1  0
  4  5  2  0
  5  6  1  0
  5 20  1  0
  6  7  1  0
  7  8  2  0
  7  9  1  0
  9 10  1  0
  9 18  2  0
 10 11  2  0
 11 12  1  0
 11 14  1  0
 12 13  1  0
 14 15  1  0
 14 18  1  0
 15 16  1  0
 16 17  1  0
 18 19  1  0
 20 21  1  0
 20 34  2  0
 21 22  1  6
 21 23  1  0
 23 24  1  0
 24 25  1  1
 24 26  1  0
 26 27  2  0
 26 32  1  0
 27 28  1  0
 27 29  1  0
 29 30  2  0
 30 31  1  0
 31 32  2  0
 32 33  1  0
M  CHG  2  13   1  23   1
M  END
