
     RDKit          3D

 34 36  0  0  0  0  0  0  0  0999 V2000
    3.7240    0.8080    2.1820 C   0  0  0  0  0  0  0  0  0  0  0  0
    4.1520   -0.4690    1.4780 C   0  0  0  0  0  0  0  0  0  0  0  0
    4.4750   -1.4450    2.2520 N   0  0  0  0  0  0  0  0  0  0  0  0
    4.1620   -0.4890    0.0360 C   0  0  0  0  0  0  0  0  0  0  0  0
    4.5060   -1.5380   -0.6580 C   0  0  0  0  0  0  0  0  0  0  0  0
    4.4870   -1.4730   -2.1710 C   0  0  0  0  0  0  0  0  0  0  0  0
    4.8950   -2.7290   -0.1260 O   0  0  0  0  0  0  0  0  0  0  0  0
    3.7630    0.7800   -0.6910 C   0  0  2  0  0  0  0  0  0  0  0  0
    4.6910    1.7900   -0.3470 O   0  0  0  0  0  0  0  0  0  0  0  0
    2.3680    1.1660   -0.3860 C   0  0  0  0  0  0  0  0  0  0  0  0
    1.9430    2.4700   -0.3160 C   0  0  0  0  0  0  0  0  0  0  0  0
    0.6310    2.8180   -0.0610 C   0  0  0  0  0  0  0  0  0  0  0  0
   -0.3270    1.8510    0.1360 C   0  0  0  0  0  0  0  0  0  0  0  0
   -1.6320    2.0790    0.3930 O   0  0  0  0  0  0  0  0  0  0  0  0
   -2.4290    3.1710    0.5280 C   0  0  0  0  0  0  0  0  0  0  0  0
   -2.5310    3.9830   -0.7250 C   0  0  0  0  0  0  0  0  0  0  0  0
   -3.4140    5.1470   -0.4070 C   0  0  0  0  0  0  0  0  0  0  0  0
   -2.8260    6.2900    0.0870 C   0  0  0  0  0  0  0  0  0  0  0  0
   -3.6880    7.3460    0.3700 C   0  0  0  0  0  0  0  0  0  0  0  0
   -5.0000    7.2590    0.1750 N   0  0  0  0  0  0  0  0  0  0  0  0
   -5.5600    6.1260   -0.3110 C   0  0  0  0  0  0  0  0  0  0  0  0
   -4.7650    5.0250   -0.6190 C   0  0  0  0  0  0  0  0  0  0  0  0
    0.0770    0.5050    0.0690 C   0  0  0  0  0  0  0  0  0  0  0  0
   -0.9620   -0.5710    0.2770 C   0  0  0  0  0  0  0  0  0  0  0  0
   -0.3540   -1.8770    0.1570 N   0  0  0  0  0  0  0  0  0  0  0  0
   -1.4100   -2.8690    0.1230 C   0  0  2  0  0  0  0  0  0  0  0  0
   -1.6080   -3.5240    1.4730 C   0  0  0  0  0  0  0  0  0  0  0  0
   -2.9000   -4.2410    1.3530 C   0  0  0  0  0  0  0  0  0  0  0  0
   -3.0080   -5.1020    0.3590 C   0  0  0  0  0  0  0  0  0  0  0  0
   -1.8140   -5.2410   -0.5160 C   0  0  0  0  0  0  0  0  0  0  0  0
   -1.1670   -3.9360   -0.8910 C   0  0  1  0  0  0  0  0  0  0  0  0
   -1.7180   -3.5690   -2.2770 C   0  0  0  0  0  0  0  0  0  0  0  0
    0.2720   -4.1660   -0.9910 N   0  0  0  0  0  0  0  0  0  0  0  0
    1.3860    0.2020   -0.1840 C   0  0  0  0  0  0  0  0  0  0  0  0
  1  2  1  0
  2  3  2  0
  2  4  1  0
  4  5  2  3
  4  8  1  0
  5  6  1  0
  5  7  1  0
  8  9  1  1
  8 10  1  0
 10 11  2  0
 10 34  1  0
 11 12  1  0
 12 13  2  0
 13 14  1  0
 13 23  1  0
 14 15  1  0
 15 16  1  0
 16 17  1  0
 17 18  2  0
 17 22  1  0
 18 19  1  0
 19 20  2  0
 20 21  1  0
 21 22  2  0
 23 24  1  0
 23 34  2  0
 24 25  1  0
 26 25  1  1
 26 27  1  0
 26 31  1  0
 27 28  1  0
 28 29  2  0
 29 30  1  0
 30 31  1  0
 31 32  1  6
 31 33  1  0
M  CHG  2   3   1  25   1
M  END
