
     RDKit          3D

 35 37  0  0  0  0  0  0  0  0999 V2000
    8.3850   -1.8060   -0.1700 C   0  0  0  0  0  0  0  0  0  0  0  0
    6.9310   -1.4530   -0.3280 C   0  0  0  0  0  0  0  0  0  0  0  0
    5.8960   -2.0390    0.3760 C   0  0  0  0  0  0  0  0  0  0  0  0
    4.7570   -1.4090   -0.0920 C   0  0  0  0  0  0  0  0  0  0  0  0
    5.1530   -0.4870   -1.0390 C   0  0  0  0  0  0  0  0  0  0  0  0
    4.3210    0.4430   -1.8370 C   0  0  2  0  0  0  0  0  0  0  0  0
    5.2050    1.3920   -2.6250 C   0  0  0  0  0  0  0  0  0  0  0  0
    5.8720    2.3030   -1.8110 O   0  0  0  0  0  0  0  0  0  0  0  0
    3.3380    1.0970   -1.1110 O   0  0  0  0  0  0  0  0  0  0  0  0
    2.0050    0.9300   -1.4130 C   0  0  0  0  0  0  0  0  0  0  0  0
    1.7250    0.1630   -2.3700 O   0  0  0  0  0  0  0  0  0  0  0  0
    0.8880    1.5910   -0.6890 C   0  0  0  0  0  0  0  0  0  0  0  0
   -0.7080    1.1390   -1.4170 S   0  0  0  0  0  0  0  0  0  0  0  0
   -2.1010    1.9210   -0.6080 C   0  0  0  0  0  0  0  0  0  0  0  0
   -2.3450    1.5030    0.7390 N   0  0  0  0  0  0  0  0  0  0  0  0
   -3.1250    0.3840    0.9510 C   0  0  0  0  0  0  0  0  0  0  0  0
   -3.5990   -0.3650   -0.2090 C   0  0  0  0  0  0  0  0  0  0  0  0
   -4.4160   -1.2850   -0.0470 O   0  0  0  0  0  0  0  0  0  0  0  0
   -3.2160   -0.1540   -1.5130 O   0  0  0  0  0  0  0  0  0  0  0  0
   -3.6640   -0.8730   -2.6200 C   0  0  2  0  0  0  0  0  0  0  0  0
   -2.5480   -1.5620   -3.3730 C   0  0  0  0  0  0  0  0  0  0  0  0
   -4.3960    0.0680   -3.5600 C   0  0  0  0  0  0  0  0  0  0  0  0
   -3.3740    0.0730    2.2530 C   0  0  0  0  0  0  0  0  0  0  0  0
   -4.0430   -1.1510    2.6710 C   0  0  0  0  0  0  0  0  0  0  0  0
   -4.7660   -1.3770    3.7930 C   0  0  0  0  0  0  0  0  0  0  0  0
   -5.3570   -2.5510    4.0270 C   0  0  0  0  0  0  0  0  0  0  0  0
   -5.2090   -3.5470    3.0780 C   0  0  0  0  0  0  0  0  0  0  0  0
   -4.1880   -2.7100    1.8500 S   0  0  0  0  0  0  0  0  0  0  0  0
   -2.8400    0.8910    3.2720 C   0  0  0  0  0  0  0  0  0  0  0  0
   -3.0590    0.6210    4.4760 O   0  0  0  0  0  0  0  0  0  0  0  0
   -2.0870    1.9710    3.0260 N   0  0  0  0  0  0  0  0  0  0  0  0
   -1.5580    2.7850    4.1160 C   0  0  0  0  0  0  0  0  0  0  0  0
   -1.8560    2.2510    1.7440 C   0  0  0  0  0  0  0  0  0  0  0  0
   -1.1360    3.2790    1.5090 O   0  0  0  0  0  0  0  0  0  0  0  0
    6.4590   -0.5570   -1.1380 O   0  0  0  0  0  0  0  0  0  0  0  0
  1  2  1  0
  2  3  2  0
  2 35  1  0
  3  4  1  0
  4  5  2  0
  5  6  1  0
  5 35  1  0
  6  7  1  1
  6  9  1  0
  7  8  1  0
  9 10  1  0
 10 11  2  0
 10 12  1  0
 12 13  1  0
 13 14  1  0
 14 15  1  0
 15 16  1  0
 15 33  1  0
 16 17  1  0
 16 23  2  0
 17 18  2  0
 17 19  1  0
 19 20  1  0
 20 21  1  6
 20 22  1  0
 23 24  1  0
 23 29  1  0
 24 25  2  0
 24 28  1  0
 25 26  1  0
 26 27  2  0
 27 28  1  0
 29 30  2  0
 29 31  1  0
 31 32  1  0
 31 33  1  0
 33 34  2  0
M  END
