
     RDKit          3D

 35 38  0  0  0  0  0  0  0  0999 V2000
   -3.9210    5.9480   -1.3210 C   0  0  0  0  0  0  0  0  0  0  0  0
   -3.7300    5.8200    0.1840 C   0  0  0  0  0  0  0  0  0  0  0  0
   -3.5280    4.4510    0.5340 O   0  0  0  0  0  0  0  0  0  0  0  0
   -2.4700    3.7530    0.0130 C   0  0  0  0  0  0  0  0  0  0  0  0
   -1.6920    4.3260   -0.7650 O   0  0  0  0  0  0  0  0  0  0  0  0
   -2.2110    2.3430    0.3360 C   0  0  0  0  0  0  0  0  0  0  0  0
   -3.0540    1.6810    1.1990 C   0  0  0  0  0  0  0  0  0  0  0  0
   -2.7500    0.3330    1.4670 C   0  0  0  0  0  0  0  0  0  0  0  0
   -3.8660   -0.4640    2.6040 S   0  0  0  0  0  0  0  0  0  0  0  0
   -5.2510   -1.1790    1.7440 C   0  0  0  0  0  0  0  0  0  0  0  0
   -4.9060   -2.4150    0.9330 C   0  0  0  0  0  0  0  0  0  0  0  0
   -3.6940   -2.9070    0.9460 C   0  0  0  0  0  0  0  0  0  0  0  0
   -3.7340   -4.3520   -0.1430 S   0  0  0  0  0  0  0  0  0  0  0  0
   -5.5720   -4.5460   -0.0640 C   0  0  0  0  0  0  0  0  0  0  0  0
   -5.9040   -3.0840    0.1050 C   0  0  0  0  0  0  0  0  0  0  0  0
   -1.6850   -0.2480    0.8950 N   0  0  0  0  0  0  0  0  0  0  0  0
   -0.8520    0.3630    0.0590 C   0  0  0  0  0  0  0  0  0  0  0  0
    0.3010   -0.2810   -0.5530 C   0  0  0  0  0  0  0  0  0  0  0  0
    1.0360    0.3690   -1.3290 O   0  0  0  0  0  0  0  0  0  0  0  0
    0.6610   -1.6340   -0.3250 N   0  0  0  0  0  0  0  0  0  0  0  0
    1.8200   -2.2280   -0.9590 C   0  0  0  0  0  0  0  0  0  0  0  0
    3.0680   -1.5420   -0.6070 C   0  0  0  0  0  0  0  0  0  0  0  0
    2.9950   -0.5570    0.1730 O   0  0  0  0  0  0  0  0  0  0  0  0
    4.3210   -1.8970   -1.0690 O   0  0  0  0  0  0  0  0  0  0  0  0
    5.4720   -1.1900   -0.6890 C   0  0  0  0  0  0  0  0  0  0  0  0
    5.9320   -0.1050   -1.4070 C   0  0  0  0  0  0  0  0  0  0  0  0
    7.0630    0.6090   -1.0540 C   0  0  0  0  0  0  0  0  0  0  0  0
    7.5130    1.7080   -1.8000 O   0  0  0  0  0  0  0  0  0  0  0  0
    7.7840    0.2370    0.0680 C   0  0  0  0  0  0  0  0  0  0  0  0
    7.3280   -0.8460    0.7900 C   0  0  0  0  0  0  0  0  0  0  0  0
    6.1960   -1.5540    0.4290 C   0  0  0  0  0  0  0  0  0  0  0  0
    6.0390   -2.5740    1.3800 O   0  0  0  0  0  0  0  0  0  0  0  0
    7.3270   -2.7260    1.9970 C   0  0  0  0  0  0  0  0  0  0  0  0
    7.8680   -1.4080    1.9390 O   0  0  0  0  0  0  0  0  0  0  0  0
   -1.1260    1.6880   -0.2230 C   0  0  0  0  0  0  0  0  0  0  0  0
  1  2  1  0
  2  3  1  0
  3  4  1  0
  4  5  2  0
  4  6  1  0
  6  7  2  0
  6 35  1  0
  7  8  1  0
  8  9  1  0
  8 16  2  0
  9 10  1  0
 10 11  1  0
 11 12  2  0
 11 15  1  0
 12 13  1  0
 13 14  1  0
 14 15  1  0
 16 17  1  0
 17 18  1  0
 17 35  2  0
 18 19  2  0
 18 20  1  0
 20 21  1  0
 21 22  1  0
 22 23  2  0
 22 24  1  0
 24 25  1  0
 25 26  2  0
 25 31  1  0
 26 27  1  0
 27 28  1  0
 27 29  2  0
 29 30  1  0
 30 31  2  0
 30 34  1  0
 31 32  1  0
 32 33  1  0
 33 34  1  0
M  END
