
     RDKit          3D

 35 37  0  0  0  0  0  0  0  0999 V2000
   -2.6770    4.7070   -1.2820 C   0  0  0  0  0  0  0  0  0  0  0  0
   -4.1490    4.5570   -1.1140 C   0  0  0  0  0  0  0  0  0  0  0  0
   -4.5670    3.3510   -0.5210 O   0  0  0  0  0  0  0  0  0  0  0  0
   -4.2090    2.9140    0.7440 C   0  0  0  0  0  0  0  0  0  0  0  0
   -3.4310    3.6860    1.4040 O   0  0  0  0  0  0  0  0  0  0  0  0
   -4.6610    1.6540    1.3410 C   0  0  0  0  0  0  0  0  0  0  0  0
   -3.6370    0.5060    1.1030 C   0  0  0  0  0  0  0  0  0  0  0  0
   -2.6070    0.8050    0.4230 C   0  0  0  0  0  0  0  0  0  0  0  0
   -1.4490    0.2470   -0.0810 N   0  0  0  0  0  0  0  0  0  0  0  0
   -0.9140   -1.0490   -0.0380 C   0  0  0  0  0  0  0  0  0  0  0  0
   -1.5570   -1.9310    0.5360 O   0  0  0  0  0  0  0  0  0  0  0  0
    0.3950   -1.3680   -0.6640 C   0  0  0  0  0  0  0  0  0  0  0  0
    0.9540   -2.6130   -0.6460 C   0  0  0  0  0  0  0  0  0  0  0  0
    2.1740   -2.5260   -1.3290 C   0  0  0  0  0  0  0  0  0  0  0  0
    2.2660   -1.2110   -1.7180 C   0  0  0  0  0  0  0  0  0  0  0  0
    3.3150   -0.4850   -2.4730 C   0  0  0  0  0  0  0  0  0  0  0  0
    4.0850    0.2220   -1.5640 O   0  0  0  0  0  0  0  0  0  0  0  0
    4.7180   -0.5560   -0.6210 C   0  0  2  0  0  0  0  0  0  0  0  0
    4.3770   -0.1570    0.8000 C   0  0  0  0  0  0  0  0  0  0  0  0
    5.5820    0.4430    1.4750 C   0  0  0  0  0  0  0  0  0  0  0  0
    6.1870    1.4320    0.7020 O   0  0  0  0  0  0  0  0  0  0  0  0
    6.7480    0.9130   -0.4610 C   0  0  2  0  0  0  0  0  0  0  0  0
    8.2490    0.7300   -0.1970 C   0  0  0  0  0  0  0  0  0  0  0  0
    6.6310    1.9500   -1.5400 C   0  0  0  0  0  0  0  0  0  0  0  0
    6.2080   -0.4220   -0.8450 C   0  0  0  0  0  0  0  0  0  0  0  0
    1.1750   -0.5710   -1.2930 O   0  0  0  0  0  0  0  0  0  0  0  0
   -4.0730   -1.0140    1.8220 S   0  0  2  0  0  0  0  0  0  0  0  0
   -5.2470   -0.6530    2.7990 O   0  0  0  0  0  0  0  0  0  0  0  0
   -3.0770   -1.5910    2.7600 O   0  0  0  0  0  0  0  0  0  0  0  0
   -4.6390   -2.1830    0.7360 N   0  0  0  0  0  0  0  0  0  0  0  0
   -5.8150   -1.8630    0.0250 C   0  0  0  0  0  0  0  0  0  0  0  0
   -7.0950   -2.0560    0.7640 C   0  0  0  0  0  0  0  0  0  0  0  0
   -6.9570   -3.0730    2.2270 S   0  0  0  0  0  0  0  0  0  0  0  0
   -5.3610   -3.8670    2.3820 C   0  0  0  0  0  0  0  0  0  0  0  0
   -4.5050   -3.5220    1.1890 C   0  0  0  0  0  0  0  0  0  0  0  0
  1  2  1  0
  2  3  1  0
  3  4  1  0
  4  5  2  0
  4  6  1  0
  6  7  1  0
  7  8  2  3
  7 27  1  0
  8  9  1  0
  9 10  1  0
 10 11  2  0
 10 12  1  0
 12 13  2  0
 12 26  1  0
 13 14  1  0
 14 15  2  0
 15 16  1  0
 15 26  1  0
 16 17  1  0
 18 17  1  6
 18 19  1  0
 18 25  1  0
 19 20  1  0
 20 21  1  0
 21 22  1  0
 22 23  1  1
 22 24  1  0
 22 25  1  0
 27 28  2  0
 27 29  2  0
 27 30  1  6
 30 31  1  0
 30 35  1  0
 31 32  1  0
 32 33  1  0
 33 34  1  0
 34 35  1  0
M  END
