
     RDKit          3D

 13 13  0  0  0  0  0  0  0  0999 V2000
   -0.9540    1.9900   -0.1000 N   0  0  0  0  0  0  0  0  0  0  0  0
   -1.8350    0.8840   -0.0310 C   0  0  0  0  0  0  0  0  0  0  0  0
   -3.1540    1.1700   -0.0890 C   0  0  0  0  0  0  0  0  0  0  0  0
   -4.0620    0.1450   -0.0280 O   0  0  0  0  0  0  0  0  0  0  0  0
   -3.7320   -1.2030    0.0920 C   0  0  0  0  0  0  0  0  0  0  0  0
   -2.2670   -1.4500    0.1500 C   0  0  0  0  0  0  0  0  0  0  0  0
   -1.3780   -0.4850    0.0940 C   0  0  0  0  0  0  0  0  0  0  0  0
   -0.0480   -0.7800    0.1520 O   0  0  0  0  0  0  0  0  0  0  0  0
    1.0310    0.0760   -0.0450 C   0  0  0  0  0  0  0  0  0  0  0  0
    2.3460   -0.6760    0.1150 C   0  0  1  0  0  0  0  0  0  0  0  0
    2.3630   -1.6950   -0.8400 O   0  0  0  0  0  0  0  0  0  0  0  0
    3.5190    0.2500   -0.1980 C   0  0  0  0  0  0  0  0  0  0  0  0
    3.5290    1.2820    0.7420 O   0  0  0  0  0  0  0  0  0  0  0  0
  1  2  1  0
  2  3  2  0
  2  7  1  0
  3  4  1  0
  4  5  1  0
  5  6  1  0
  6  7  2  0
  7  8  1  0
  8  9  1  0
  9 10  1  0
 10 11  1  6
 10 12  1  0
 12 13  1  0
M  END
