
     RDKit          3D

 13 12  0  0  0  0  0  0  0  0999 V2000
    0.4700   -1.5770   -0.4130 C   0  0  0  0  0  0  0  0  0  0  0  0
   -0.1290   -0.2650    0.0370 C   0  0  2  0  0  0  0  0  0  0  0  0
   -0.1490   -0.2890    1.5400 C   0  0  0  0  0  0  0  0  0  0  0  0
   -1.3200   -0.0700   -0.5620 O   0  0  0  0  0  0  0  0  0  0  0  0
   -2.3430   -0.9220   -0.4030 C   0  0  0  0  0  0  0  0  0  0  0  0
   -3.5360   -0.3730   -1.2050 C   0  0  0  0  0  0  0  0  0  0  0  0
   -3.8910    0.8870   -0.7410 O   0  0  0  0  0  0  0  0  0  0  0  0
    0.8060    0.8430   -0.4750 C   0  0  1  0  0  0  0  0  0  0  0  0
    0.2170    2.0750   -0.1050 O   0  0  0  0  0  0  0  0  0  0  0  0
    2.1750    0.7280    0.0050 C   0  0  0  0  0  0  0  0  0  0  0  0
    2.9810   -0.3800   -0.3380 N   0  0  0  0  0  0  0  0  0  0  0  0
    2.6940    1.6640    0.7750 C   0  0  0  0  0  0  0  0  0  0  0  0
    4.0010    1.5690    1.2420 O   0  0  0  0  0  0  0  0  0  0  0  0
  2  1  1  6
  2  3  1  0
  2  4  1  0
  2  8  1  0
  4  5  1  0
  5  6  1  0
  6  7  1  0
  8  9  1  1
  8 10  1  0
 10 11  1  0
 10 12  2  3
 12 13  1  0
M  END
