
     RDKit          3D

 13 12  0  0  0  0  0  0  0  0999 V2000
   -2.6130    0.2440    2.4700 N   0  0  0  0  0  0  0  0  0  0  0  0
   -2.2650    0.7880    1.5110 C   0  0  0  0  0  0  0  0  0  0  0  0
   -1.8210    1.4510    0.2900 C   0  0  0  0  0  0  0  0  0  0  0  0
   -0.7910    0.5110   -0.4410 C   0  0  2  0  0  0  0  0  0  0  0  0
   -0.4240    1.2250   -1.6010 O   0  0  0  0  0  0  0  0  0  0  0  0
   -1.5440   -0.7100   -0.7440 C   0  0  0  0  0  0  0  0  0  0  0  0
   -0.8500   -1.8280   -1.4540 C   0  0  0  0  0  0  0  0  0  0  0  0
   -1.8500   -2.8360   -1.6380 O   0  0  0  0  0  0  0  0  0  0  0  0
    0.3630    0.4780    0.4690 C   0  0  2  0  0  0  0  0  0  0  0  0
    0.6340    1.8520    0.8310 O   0  0  0  0  0  0  0  0  0  0  0  0
    1.6680   -0.0050   -0.0510 C   0  0  0  0  0  0  0  0  0  0  0  0
    2.6520    0.0830    1.1330 C   0  0  0  0  0  0  0  0  0  0  0  0
    3.9140   -0.3580    0.7480 O   0  0  0  0  0  0  0  0  0  0  0  0
  1  2  3  0
  2  3  1  0
  3  4  1  0
  4  5  1  6
  4  6  1  0
  4  9  1  0
  6  7  1  0
  7  8  1  0
  9 10  1  6
  9 11  1  0
 11 12  1  0
 12 13  1  0
M  END
