
     RDKit          3D

 31 35  0  0  0  0  0  0  0  0999 V2000
    6.2980   -0.7760    0.1670 N   0  0  0  0  0  0  0  0  0  0  0  0
    6.0830    0.5420   -0.3390 C   0  0  0  0  0  0  0  0  0  0  0  0
    7.0400    1.2210   -0.9960 N   0  0  0  0  0  0  0  0  0  0  0  0
    6.8360    2.4720   -1.4780 C   0  0  0  0  0  0  0  0  0  0  0  0
    5.6270    3.1040   -1.3130 C   0  0  0  0  0  0  0  0  0  0  0  0
    4.6280    2.4230   -0.6400 C   0  0  0  0  0  0  0  0  0  0  0  0
    3.3990    3.0120   -0.4480 C   0  0  0  0  0  0  0  0  0  0  0  0
    2.4160    2.3110    0.2270 C   0  0  0  0  0  0  0  0  0  0  0  0
    2.6590    1.0410    0.7040 C   0  0  0  0  0  0  0  0  0  0  0  0
    1.5800    0.3430    1.4120 C   0  0  0  0  0  0  0  0  0  0  0  0
    0.7620   -0.4820    0.5850 N   0  0  0  0  0  0  0  0  0  0  0  0
    1.0170   -1.8900    0.3040 C   0  0  0  0  0  0  0  0  0  0  0  0
    0.2080   -2.0910   -0.9600 C   0  0  0  0  0  0  0  0  0  0  0  0
   -1.0680   -1.2920   -0.5880 C   0  0  2  0  0  0  0  0  0  0  0  0
   -1.8080   -1.1720   -1.7810 N   0  0  0  0  0  0  0  0  0  0  0  0
   -3.2710   -1.9680   -1.9320 S   0  0  1  0  0  0  0  0  0  0  0  0
   -3.8840   -1.5880   -3.2740 O   0  0  0  0  0  0  0  0  0  0  0  0
   -3.1850   -3.4610   -1.9450 O   0  0  0  0  0  0  0  0  0  0  0  0
   -4.3950   -1.3910   -0.7230 C   0  0  0  0  0  0  0  0  0  0  0  0
   -4.3050   -0.4680    0.2630 C   0  0  0  0  0  0  0  0  0  0  0  0
   -5.3490   -0.2320    1.0510 C   0  0  0  0  0  0  0  0  0  0  0  0
   -5.3920    0.6850    2.0950 N   0  0  0  0  0  0  0  0  0  0  0  0
   -6.4860    0.8420    2.8180 C   0  0  0  0  0  0  0  0  0  0  0  0
   -7.6700    0.1570    2.6490 C   0  0  0  0  0  0  0  0  0  0  0  0
   -7.6620   -0.7700    1.6100 C   0  0  0  0  0  0  0  0  0  0  0  0
   -6.5160   -0.9150    0.8740 C   0  0  0  0  0  0  0  0  0  0  0  0
   -6.1090   -1.9780   -0.5180 S   0  0  0  0  0  0  0  0  0  0  0  0
   -0.4160   -0.0660   -0.0880 C   0  0  0  0  0  0  0  0  0  0  0  0
   -0.8530    1.0930   -0.2490 O   0  0  0  0  0  0  0  0  0  0  0  0
    3.8950    0.4250    0.5210 C   0  0  0  0  0  0  0  0  0  0  0  0
    4.8590    1.1420   -0.1550 C   0  0  0  0  0  0  0  0  0  0  0  0
  1  2  1  0
  2  3  2  0
  2 31  1  0
  3  4  1  0
  4  5  2  0
  5  6  1  0
  6  7  2  0
  6 31  1  0
  7  8  1  0
  8  9  2  0
  9 10  1  0
  9 30  1  0
 10 11  1  0
 11 12  1  0
 11 28  1  0
 12 13  1  0
 13 14  1  0
 14 15  1  6
 14 28  1  0
 16 15  1  1
 16 17  2  0
 16 18  2  0
 16 19  1  0
 19 20  2  0
 19 27  1  0
 20 21  1  0
 21 22  2  0
 21 26  1  0
 22 23  1  0
 23 24  2  0
 24 25  1  0
 25 26  2  0
 26 27  1  0
 28 29  2  0
 30 31  2  0
M  END
