
     RDKit          3D

 30 33  0  0  0  0  0  0  0  0999 V2000
   -2.6310    2.2830   -4.0500 C   0  0  0  0  0  0  0  0  0  0  0  0
   -1.8120    2.0340   -2.8130 C   0  0  1  0  0  0  0  0  0  0  0  0
   -1.2630    3.2100   -2.3150 O   0  0  0  0  0  0  0  0  0  0  0  0
   -2.5880    1.3000   -1.7720 C   0  0  0  0  0  0  0  0  0  0  0  0
   -3.8240    0.8780   -1.8170 O   0  0  0  0  0  0  0  0  0  0  0  0
   -4.1390    0.2670   -0.6780 C   0  0  0  0  0  0  0  0  0  0  0  0
   -3.0590    0.2820    0.1680 C   0  0  0  0  0  0  0  0  0  0  0  0
   -2.0630    0.9530   -0.5510 C   0  0  0  0  0  0  0  0  0  0  0  0
   -0.7420    1.1930   -0.0220 C   0  0  0  0  0  0  0  0  0  0  0  0
   -0.5040    2.2320    0.6170 O   0  0  0  0  0  0  0  0  0  0  0  0
    0.3010    0.2170   -0.2400 C   0  0  0  0  0  0  0  0  0  0  0  0
    1.5100    0.4470    0.2490 C   0  0  0  0  0  0  0  0  0  0  0  0
    2.6370   -0.4340    0.1090 C   0  0  0  0  0  0  0  0  0  0  0  0
    2.5520   -1.6250   -0.5670 C   0  0  0  0  0  0  0  0  0  0  0  0
    3.6590   -2.4650   -0.6920 C   0  0  0  0  0  0  0  0  0  0  0  0
    4.8170   -2.0930   -0.1400 N   0  0  0  0  0  0  0  0  0  0  0  0
    4.9600   -0.9240    0.5410 C   0  0  0  0  0  0  0  0  0  0  0  0
    6.2700   -0.6250    1.1000 C   0  0  0  0  0  0  0  0  0  0  0  0
    6.5140    0.5320    1.8060 C   0  0  0  0  0  0  0  0  0  0  0  0
    7.7760    0.7780    2.3210 C   0  0  0  0  0  0  0  0  0  0  0  0
    8.7720   -0.0920    2.1460 N   0  0  0  0  0  0  0  0  0  0  0  0
    8.5620   -1.2350    1.4590 C   0  0  0  0  0  0  0  0  0  0  0  0
    7.3280   -1.5050    0.9390 C   0  0  0  0  0  0  0  0  0  0  0  0
    3.8570   -0.1070    0.6550 C   0  0  0  0  0  0  0  0  0  0  0  0
   -3.1330   -0.3350    1.5140 C   0  0  0  0  0  0  0  0  0  0  0  0
   -4.5720   -0.2350    1.9740 C   0  0  0  0  0  0  0  0  0  0  0  0
   -5.3740   -1.0570    0.9790 C   0  0  2  0  0  0  0  0  0  0  0  0
   -6.7910   -1.2780    1.4650 C   0  0  0  0  0  0  0  0  0  0  0  0
   -4.5810   -2.6440    0.8370 Cl  0  0  0  0  0  0  0  0  0  0  0  0
   -5.4340   -0.3490   -0.3300 C   0  0  0  0  0  0  0  0  0  0  0  0
  2  1  1  6
  2  3  1  0
  2  4  1  0
  4  5  1  0
  4  8  2  0
  5  6  1  0
  6  7  2  0
  6 30  1  0
  7  8  1  0
  7 25  1  0
  8  9  1  0
  9 10  2  0
  9 11  1  0
 11 12  2  3
 12 13  1  0
 13 14  2  0
 13 24  1  0
 14 15  1  0
 15 16  2  0
 16 17  1  0
 17 18  1  0
 17 24  2  0
 18 19  2  0
 18 23  1  0
 19 20  1  0
 20 21  2  0
 21 22  1  0
 22 23  2  0
 25 26  1  0
 26 27  1  0
 27 28  1  1
 27 29  1  0
 27 30  1  0
M  END
