
     RDKit          3D

 31 34  0  0  0  0  0  0  0  0999 V2000
    5.9290   -0.6710    0.1630 C   0  0  0  0  0  0  0  0  0  0  0  0
    5.1060    0.5810    0.1420 C   0  0  2  0  0  0  0  0  0  0  0  0
    4.3530    0.7020    1.4380 C   0  0  0  0  0  0  0  0  0  0  0  0
    3.1600   -0.2030    1.4650 C   0  0  0  0  0  0  0  0  0  0  0  0
    2.2450    0.1600    0.3700 C   0  0  0  0  0  0  0  0  0  0  0  0
    0.8600    0.0970    0.5280 C   0  0  0  0  0  0  0  0  0  0  0  0
    0.0040    0.4180   -0.5020 C   0  0  0  0  0  0  0  0  0  0  0  0
   -1.3950    0.3350   -0.3660 N   0  0  0  0  0  0  0  0  0  0  0  0
   -2.3470    1.3550   -0.3180 C   0  0  0  0  0  0  0  0  0  0  0  0
   -3.5910    1.0050   -0.2390 O   0  0  0  0  0  0  0  0  0  0  0  0
   -2.1360    2.7970   -0.3500 C   0  0  0  0  0  0  0  0  0  0  0  0
   -0.9120    3.3730   -0.2000 C   0  0  0  0  0  0  0  0  0  0  0  0
   -0.7470    4.7500   -0.3070 C   0  0  0  0  0  0  0  0  0  0  0  0
   -1.7950    5.6010   -0.5670 C   0  0  0  0  0  0  0  0  0  0  0  0
   -1.6340    6.9720   -0.6750 O   0  0  0  0  0  0  0  0  0  0  0  0
   -3.0380    4.9960   -0.7170 C   0  0  0  0  0  0  0  0  0  0  0  0
   -4.4350    6.0150   -1.0610 Cl  0  0  0  0  0  0  0  0  0  0  0  0
   -3.2140    3.6510   -0.6150 C   0  0  0  0  0  0  0  0  0  0  0  0
   -1.9030   -1.0210   -0.2340 C   0  0  0  0  0  0  0  0  0  0  0  0
   -2.0320   -1.4920    1.0640 C   0  0  0  0  0  0  0  0  0  0  0  0
   -2.5210   -2.7780    1.1930 C   0  0  0  0  0  0  0  0  0  0  0  0
   -2.8700   -3.5760    0.1230 C   0  0  0  0  0  0  0  0  0  0  0  0
   -3.3940   -4.9590    0.3860 C   0  0  1  0  0  0  0  0  0  0  0  0
   -2.1910   -5.7430    0.9040 C   0  0  0  0  0  0  0  0  0  0  0  0
   -4.3330   -4.8500    1.4070 O   0  0  0  0  0  0  0  0  0  0  0  0
   -2.7230   -3.0610   -1.1460 C   0  0  0  0  0  0  0  0  0  0  0  0
   -2.2340   -1.7700   -1.3120 C   0  0  0  0  0  0  0  0  0  0  0  0
    0.5440    0.8170   -1.7330 C   0  0  0  0  0  0  0  0  0  0  0  0
    1.9140    0.8800   -1.8850 C   0  0  0  0  0  0  0  0  0  0  0  0
    2.7710    0.5530   -0.8390 C   0  0  0  0  0  0  0  0  0  0  0  0
    4.1810    0.6180   -0.9730 N   0  0  0  0  0  0  0  0  0  0  0  0
  2  1  1  1
  2  3  1  0
  2 31  1  0
  3  4  1  0
  4  5  1  0
  5  6  2  0
  5 30  1  0
  6  7  1  0
  7  8  1  0
  7 28  2  0
  8  9  1  0
  8 19  1  0
  9 10  2  0
  9 11  1  0
 11 12  2  0
 11 18  1  0
 12 13  1  0
 13 14  2  0
 14 15  1  0
 14 16  1  0
 16 17  1  0
 16 18  2  0
 19 20  2  0
 19 27  1  0
 20 21  1  0
 21 22  2  0
 22 23  1  0
 22 26  1  0
 23 24  1  1
 23 25  1  0
 26 27  2  0
 28 29  1  0
 29 30  2  0
 30 31  1  0
M  END
