
     RDKit          3D

 29 31  0  0  0  0  0  0  0  0999 V2000
    6.8360   -1.3580    1.4310 C   0  0  0  0  0  0  0  0  0  0  0  0
    6.2470   -0.2460    1.0690 C   0  0  0  0  0  0  0  0  0  0  0  0
    5.1380   -0.2890    0.1300 C   0  0  0  0  0  0  0  0  0  0  0  0
    4.7010   -1.6030   -0.3950 C   0  0  0  0  0  0  0  0  0  0  0  0
    3.5930   -1.5280   -1.3150 N   0  0  0  0  0  0  0  0  0  0  0  0
    3.8810   -1.3770   -2.7250 C   0  0  0  0  0  0  0  0  0  0  0  0
    2.2330   -1.5990   -0.9090 C   0  0  0  0  0  0  0  0  0  0  0  0
    1.3080   -1.5310   -1.7320 O   0  0  0  0  0  0  0  0  0  0  0  0
    1.9380   -1.7580    0.5330 C   0  0  0  0  0  0  0  0  0  0  0  0
    0.5050   -1.8030    0.7440 N   0  0  0  0  0  0  0  0  0  0  0  0
   -0.2810   -0.6540    0.3480 C   0  0  0  0  0  0  0  0  0  0  0  0
    0.3380    0.3080   -0.1510 O   0  0  0  0  0  0  0  0  0  0  0  0
   -1.6880   -0.6280    0.5230 N   0  0  0  0  0  0  0  0  0  0  0  0
   -2.5330    0.4260    0.1790 C   0  0  0  0  0  0  0  0  0  0  0  0
   -2.1480    1.6410   -0.3100 C   0  0  0  0  0  0  0  0  0  0  0  0
   -3.0750    2.6630   -0.6070 C   0  0  0  0  0  0  0  0  0  0  0  0
   -4.4160    2.4450   -0.4020 C   0  0  0  0  0  0  0  0  0  0  0  0
   -5.5390    3.1910   -0.5720 N   0  0  0  0  0  0  0  0  0  0  0  0
   -6.5570    2.3820   -0.1730 C   0  0  0  0  0  0  0  0  0  0  0  0
   -7.7690    2.7130   -0.1790 O   0  0  0  0  0  0  0  0  0  0  0  0
   -6.0960    1.2020    0.2220 N   0  0  0  0  0  0  0  0  0  0  0  0
   -4.7830    1.2300    0.0850 C   0  0  0  0  0  0  0  0  0  0  0  0
   -3.9110    0.2350    0.3760 C   0  0  0  0  0  0  0  0  0  0  0  0
   -4.4170   -1.0770    0.8950 C   0  0  0  0  0  0  0  0  0  0  0  0
   -5.8600   -1.2150    0.4920 C   0  0  0  0  0  0  0  0  0  0  0  0
   -6.7030   -0.0100    0.7370 C   0  0  0  0  0  0  0  0  0  0  0  0
    4.5300    0.8420   -0.2460 C   0  0  0  0  0  0  0  0  0  0  0  0
    4.9540    2.1520    0.2690 C   0  0  0  0  0  0  0  0  0  0  0  0
    3.5100    0.7730   -1.1140 F   0  0  0  0  0  0  0  0  0  0  0  0
  1  2  2  0
  2  3  1  0
  3  4  1  0
  3 27  2  3
  4  5  1  0
  5  6  1  0
  5  7  1  0
  7  8  2  0
  7  9  1  0
  9 10  1  0
 10 11  1  0
 11 12  2  0
 11 13  1  0
 13 14  1  0
 14 15  2  0
 14 23  1  0
 15 16  1  0
 16 17  2  0
 17 18  1  0
 17 22  1  0
 18 19  1  0
 19 20  2  0
 19 21  1  0
 21 22  1  0
 21 26  1  0
 22 23  2  0
 23 24  1  0
 24 25  1  0
 25 26  1  0
 27 28  1  0
 27 29  1  0
M  END
