
     RDKit          3D

 31 34  0  0  0  0  0  0  0  0999 V2000
   -2.1350    5.0500   -0.7130 C   0  0  0  0  0  0  0  0  0  0  0  0
   -1.3450    3.8880   -0.7200 O   0  0  0  0  0  0  0  0  0  0  0  0
   -1.9060    2.6490   -0.3650 C   0  0  0  0  0  0  0  0  0  0  0  0
   -3.1180    2.6200   -0.0550 O   0  0  0  0  0  0  0  0  0  0  0  0
   -1.0500    1.4780   -0.3740 C   0  0  0  0  0  0  0  0  0  0  0  0
    0.3150    1.6820   -0.6550 C   0  0  0  0  0  0  0  0  0  0  0  0
    1.1820    0.6250   -0.5900 C   0  0  0  0  0  0  0  0  0  0  0  0
    2.6300    0.8820   -0.8990 C   0  0  1  0  0  0  0  0  0  0  0  0
    3.2670    1.3730    0.4190 C   0  0  0  0  0  0  0  0  0  0  0  0
    4.7790    1.2470    0.2950 C   0  0  0  0  0  0  0  0  0  0  0  0
    5.0960   -0.1970    0.4580 C   0  0  2  0  0  0  0  0  0  0  0  0
    4.6800   -0.7410    2.1210 Cl  0  0  0  0  0  0  0  0  0  0  0  0
    6.5100   -0.5940    0.2130 C   0  0  0  0  0  0  0  0  0  0  0  0
    6.6410   -2.0400    0.7140 C   0  0  0  0  0  0  0  0  0  0  0  0
    5.3890   -2.7330    0.4800 N   0  0  0  0  0  0  0  0  0  0  0  0
    4.4350   -2.2640   -0.4960 C   0  0  0  0  0  0  0  0  0  0  0  0
    4.2580   -0.9550   -0.5340 C   0  0  0  0  0  0  0  0  0  0  0  0
    3.3370   -0.2980   -1.4580 C   0  0  0  0  0  0  0  0  0  0  0  0
    0.7010   -0.5950   -0.2560 C   0  0  0  0  0  0  0  0  0  0  0  0
   -0.6240   -0.8390    0.0250 C   0  0  0  0  0  0  0  0  0  0  0  0
   -1.5270    0.2360   -0.0390 C   0  0  0  0  0  0  0  0  0  0  0  0
   -2.9020   -0.0320    0.1080 N   0  0  0  0  0  0  0  0  0  0  0  0
   -3.4210   -1.1060    0.8620 C   0  0  0  0  0  0  0  0  0  0  0  0
   -2.7230   -1.9090    1.5050 O   0  0  0  0  0  0  0  0  0  0  0  0
   -4.8610   -1.3020    0.9060 C   0  0  0  0  0  0  0  0  0  0  0  0
   -5.4880   -1.4700    2.1430 C   0  0  0  0  0  0  0  0  0  0  0  0
   -6.8630   -1.5830    2.2500 C   0  0  0  0  0  0  0  0  0  0  0  0
   -7.6180   -1.5260    1.0910 C   0  0  0  0  0  0  0  0  0  0  0  0
   -7.0550   -1.3660   -0.1360 C   0  0  0  0  0  0  0  0  0  0  0  0
   -5.6670   -1.2560   -0.1980 C   0  0  0  0  0  0  0  0  0  0  0  0
   -5.0340   -1.1370   -1.5470 C   0  0  0  0  0  0  0  0  0  0  0  0
  1  2  1  0
  2  3  1  0
  3  4  2  0
  3  5  1  0
  5  6  2  0
  5 21  1  0
  6  7  1  0
  8  7  1  1
  7 19  2  0
  8  9  1  0
  8 18  1  0
  9 10  1  0
 10 11  1  0
 11 12  1  1
 11 13  1  0
 11 17  1  0
 13 14  1  0
 14 15  1  0
 15 16  1  0
 16 17  2  0
 17 18  1  0
 19 20  1  0
 20 21  2  0
 21 22  1  0
 22 23  1  0
 23 24  2  0
 23 25  1  0
 25 26  2  0
 25 30  1  0
 26 27  1  0
 27 28  2  0
 28 29  1  0
 29 30  2  0
 30 31  1  0
M  END
