
     RDKit          3D

 31 34  0  0  0  0  0  0  0  0999 V2000
    7.2410   -0.4120   -0.6970 C   0  0  0  0  0  0  0  0  0  0  0  0
    6.0330    0.1280   -0.3650 O   0  0  0  0  0  0  0  0  0  0  0  0
    4.7990   -0.3780   -0.1020 C   0  0  0  0  0  0  0  0  0  0  0  0
    4.5600   -1.7260   -0.1300 C   0  0  0  0  0  0  0  0  0  0  0  0
    3.2960   -2.1690    0.1490 C   0  0  0  0  0  0  0  0  0  0  0  0
    2.9860   -3.5990    0.1160 C   0  0  0  0  0  0  0  0  0  0  0  0
    2.2660   -1.2730    0.4580 C   0  0  0  0  0  0  0  0  0  0  0  0
    0.9340   -1.8210    0.8170 C   0  0  0  0  0  0  0  0  0  0  0  0
    2.4690    0.1040    0.4940 C   0  0  0  0  0  0  0  0  0  0  0  0
    3.7560    0.4970    0.2060 C   0  0  0  0  0  0  0  0  0  0  0  0
    4.0420    1.8480    0.2220 O   0  0  0  0  0  0  0  0  0  0  0  0
    3.0510    2.7260   -0.2620 C   0  0  0  0  0  0  0  0  0  0  0  0
    1.7710    2.4720    0.4550 C   0  0  0  0  0  0  0  0  0  0  0  0
    1.4150    1.0590    0.8090 C   0  0  2  0  0  0  0  0  0  0  0  0
    1.2160    0.9980    2.3270 C   0  0  0  0  0  0  0  0  0  0  0  0
    0.1580    0.7770    0.1240 N   0  0  0  0  0  0  0  0  0  0  0  0
   -0.9360    1.6540    0.4090 C   0  0  0  0  0  0  0  0  0  0  0  0
   -0.8260    2.6370    1.2260 O   0  0  0  0  0  0  0  0  0  0  0  0
   -2.2530    1.5240   -0.1970 C   0  0  0  0  0  0  0  0  0  0  0  0
   -2.7970    2.6070   -0.8430 C   0  0  0  0  0  0  0  0  0  0  0  0
   -3.9950    2.5340   -1.5190 C   0  0  0  0  0  0  0  0  0  0  0  0
   -4.5650    3.7180   -2.2270 C   0  0  0  0  0  0  0  0  0  0  0  0
   -4.6620    1.3250   -1.5410 C   0  0  0  0  0  0  0  0  0  0  0  0
   -6.1890    1.1170   -2.3680 Cl  0  0  0  0  0  0  0  0  0  0  0  0
   -4.1170    0.2410   -0.8920 C   0  0  0  0  0  0  0  0  0  0  0  0
   -4.5400   -1.0700   -0.7060 C   0  0  0  0  0  0  0  0  0  0  0  0
   -5.7930   -1.6420   -1.2620 C   0  0  0  0  0  0  0  0  0  0  0  0
   -3.6320   -1.7670    0.0580 C   0  0  0  0  0  0  0  0  0  0  0  0
   -3.7220   -3.1850    0.5020 C   0  0  0  0  0  0  0  0  0  0  0  0
   -2.6480   -0.8990    0.3470 N   0  0  0  0  0  0  0  0  0  0  0  0
   -2.9020    0.3240   -0.2090 C   0  0  0  0  0  0  0  0  0  0  0  0
  1  2  1  0
  2  3  1  0
  3  4  2  0
  3 10  1  0
  4  5  1  0
  5  6  1  0
  5  7  2  0
  7  8  1  0
  7  9  1  0
  9 10  2  0
  9 14  1  0
 10 11  1  0
 11 12  1  0
 12 13  1  0
 13 14  1  0
 14 15  1  1
 14 16  1  0
 16 17  1  0
 17 18  2  0
 17 19  1  0
 19 20  2  0
 19 31  1  0
 20 21  1  0
 21 22  1  0
 21 23  2  0
 23 24  1  0
 23 25  1  0
 25 26  1  0
 25 31  2  0
 26 27  1  0
 26 28  2  0
 28 29  1  0
 28 30  1  0
 30 31  1  0
M  END
