
     RDKit          3D

 30 32  0  0  0  0  0  0  0  0999 V2000
   10.2560    1.0660    0.9450 C   0  0  0  0  0  0  0  0  0  0  0  0
    9.1970    0.1880    0.5520 O   0  0  0  0  0  0  0  0  0  0  0  0
    7.9020    0.6670    0.5510 C   0  0  0  0  0  0  0  0  0  0  0  0
    7.7050    1.8570    0.8940 O   0  0  0  0  0  0  0  0  0  0  0  0
    6.7590   -0.1410    0.1700 C   0  0  0  0  0  0  0  0  0  0  0  0
    5.0700    0.3490    0.1260 S   0  0  0  0  0  0  0  0  0  0  0  0
    4.4520   -1.3130   -0.4570 C   0  0  0  0  0  0  0  0  0  0  0  0
    3.0440   -1.5240   -0.6850 N   0  0  0  0  0  0  0  0  0  0  0  0
    2.0960   -0.5020   -0.4800 C   0  0  0  0  0  0  0  0  0  0  0  0
    2.5190    0.6140   -0.0870 O   0  0  0  0  0  0  0  0  0  0  0  0
    0.6530   -0.7360   -0.7180 C   0  0  0  0  0  0  0  0  0  0  0  0
    0.1690   -1.9930   -1.1600 C   0  0  0  0  0  0  0  0  0  0  0  0
   -1.5530   -1.7240   -1.2760 S   0  0  0  0  0  0  0  0  0  0  0  0
   -1.4560    0.0440   -0.7220 C   0  0  0  0  0  0  0  0  0  0  0  0
   -2.7310    0.8550   -0.6200 C   0  0  0  0  0  0  0  0  0  0  0  0
   -3.2030    0.7400    0.7280 N   0  0  0  0  0  0  0  0  0  0  0  0
   -4.6340    0.8930    0.7890 C   0  0  0  0  0  0  0  0  0  0  0  0
   -5.4470   -0.1980    0.5810 C   0  0  0  0  0  0  0  0  0  0  0  0
   -4.8860   -1.5460    0.2920 C   0  0  0  0  0  0  0  0  0  0  0  0
   -6.8340   -0.0380    0.6420 C   0  0  0  0  0  0  0  0  0  0  0  0
   -7.6950   -1.2360    0.4130 C   0  0  0  0  0  0  0  0  0  0  0  0
   -7.3730    1.1930    0.9070 C   0  0  0  0  0  0  0  0  0  0  0  0
   -6.5540    2.2620    1.1110 C   0  0  0  0  0  0  0  0  0  0  0  0
   -7.3010    3.8250    1.4490 Cl  0  0  0  0  0  0  0  0  0  0  0  0
   -5.1880    2.1230    1.0550 C   0  0  0  0  0  0  0  0  0  0  0  0
   -4.2990    3.2960    1.2780 C   0  0  0  0  0  0  0  0  0  0  0  0
   -0.2840    0.1550   -0.5530 N   0  0  0  0  0  0  0  0  0  0  0  0
    5.5290   -1.9310   -0.5240 N   0  0  0  0  0  0  0  0  0  0  0  0
    6.6880   -1.4430   -0.2400 C   0  0  0  0  0  0  0  0  0  0  0  0
    7.9660   -2.2620   -0.3450 C   0  0  0  0  0  0  0  0  0  0  0  0
  1  2  1  0
  2  3  1  0
  3  4  2  0
  3  5  1  0
  5  6  1  0
  5 29  2  0
  6  7  1  0
  7  8  1  0
  7 28  2  0
  8  9  1  0
  9 10  2  0
  9 11  1  0
 11 12  2  0
 11 27  1  0
 12 13  1  0
 13 14  1  0
 14 15  1  0
 14 27  2  0
 15 16  1  0
 16 17  1  0
 17 18  2  0
 17 25  1  0
 18 19  1  0
 18 20  1  0
 20 21  1  0
 20 22  2  0
 22 23  1  0
 23 24  1  0
 23 25  2  0
 25 26  1  0
 28 29  1  0
 29 30  1  0
M  CHG  1  16   1
M  END
