
     RDKit          3D

 30 32  0  0  0  0  0  0  0  0999 V2000
    8.1360    1.0100    2.7680 C   0  0  0  0  0  0  0  0  0  0  0  0
    7.1530    1.8630    2.1280 C   0  0  0  0  0  0  0  0  0  0  0  0
    6.1130    1.4520    1.4520 C   0  0  0  0  0  0  0  0  0  0  0  0
    5.7130    0.1070    1.1920 C   0  0  0  0  0  0  0  0  0  0  0  0
    6.7600   -1.1640    1.8910 Cl  0  0  0  0  0  0  0  0  0  0  0  0
    4.6910   -0.2990    0.5080 C   0  0  0  0  0  0  0  0  0  0  0  0
    4.4770   -1.8050    0.3880 C   0  0  0  0  0  0  0  0  0  0  0  0
    3.1120   -2.0630    0.8290 N   0  0  0  0  0  0  0  0  0  0  0  0
    2.0570   -1.3370    0.1690 C   0  0  0  0  0  0  0  0  0  0  0  0
    0.8700   -1.8970    0.0810 C   0  0  0  0  0  0  0  0  0  0  0  0
   -0.2540   -1.2870   -0.5450 C   0  0  0  0  0  0  0  0  0  0  0  0
   -1.4060   -1.9800   -0.5570 C   0  0  0  0  0  0  0  0  0  0  0  0
   -2.6690   -1.6340   -1.0980 N   0  0  0  0  0  0  0  0  0  0  0  0
   -3.6640   -2.5850   -0.9410 C   0  0  0  0  0  0  0  0  0  0  0  0
   -5.3610   -2.3600   -1.5470 S   0  0  0  0  0  0  0  0  0  0  0  0
   -5.5290   -0.7460   -2.3460 C   0  0  0  0  0  0  0  0  0  0  0  0
   -5.3750    0.3680   -1.3940 C   0  0  0  0  0  0  0  0  0  0  0  0
   -5.1460    0.1360   -0.1170 C   0  0  0  0  0  0  0  0  0  0  0  0
   -5.0030    1.3300    0.7810 C   0  0  0  0  0  0  0  0  0  0  0  0
   -6.1110    2.3350    0.4960 C   0  0  0  0  0  0  0  0  0  0  0  0
   -6.2040    2.6800   -0.9520 C   0  0  0  0  0  0  0  0  0  0  0  0
   -5.4750    1.7600   -1.8770 C   0  0  0  0  0  0  0  0  0  0  0  0
   -3.3620   -3.6660   -0.3350 N   0  0  0  0  0  0  0  0  0  0  0  0
   -1.7040   -3.5750    0.1150 S   0  0  2  0  0  0  0  0  0  0  0  0
   -1.5140   -3.5770    1.6040 O   0  0  0  0  0  0  0  0  0  0  0  0
   -0.8710   -4.6230   -0.5570 O   0  0  0  0  0  0  0  0  0  0  0  0
    2.3920   -0.0310   -0.3430 C   0  0  0  0  0  0  0  0  0  0  0  0
    1.5590    0.7030   -0.9470 O   0  0  0  0  0  0  0  0  0  0  0  0
    3.7320    0.4800   -0.1680 N   0  0  0  0  0  0  0  0  0  0  0  0
    4.0650    1.7440   -0.7510 C   0  0  0  0  0  0  0  0  0  0  0  0
  1  2  1  0
  2  3  2  3
  3  4  1  0
  4  5  1  0
  4  6  2  3
  6  7  1  0
  6 29  1  0
  7  8  1  0
  8  9  1  0
  9 10  2  3
  9 27  1  0
 10 11  1  0
 11 12  2  3
 12 13  1  0
 12 24  1  0
 13 14  1  0
 14 15  1  0
 14 23  2  0
 15 16  1  0
 16 17  1  0
 17 18  2  0
 17 22  1  0
 18 19  1  0
 19 20  1  0
 20 21  1  0
 21 22  1  0
 24 23  1  1
 24 25  2  0
 24 26  2  0
 27 28  2  0
 27 29  1  0
 29 30  1  0
M  END
