
     RDKit          3D

 30 33  0  0  0  0  0  0  0  0999 V2000
   -7.1800   -2.7990   -0.2770 C   0  0  0  0  0  0  0  0  0  0  0  0
   -6.1430   -1.7530   -0.0110 C   0  0  0  0  0  0  0  0  0  0  0  0
   -6.2680   -0.4360    0.3670 C   0  0  0  0  0  0  0  0  0  0  0  0
   -5.1320    0.2800    0.5340 C   0  0  0  0  0  0  0  0  0  0  0  0
   -5.2180    1.7120    0.9430 C   0  0  0  0  0  0  0  0  0  0  0  0
   -4.0140    2.4360    1.0770 N   0  0  0  0  0  0  0  0  0  0  0  0
   -6.3300    2.2730    1.1650 O   0  0  0  0  0  0  0  0  0  0  0  0
   -3.9460   -0.3270    0.3230 C   0  0  0  0  0  0  0  0  0  0  0  0
   -2.5440    0.1920    0.4300 C   0  0  0  0  0  0  0  0  0  0  0  0
   -1.6660   -0.9050    0.0810 N   0  0  0  0  0  0  0  0  0  0  0  0
   -0.3270   -0.4740   -0.2780 C   0  0  0  0  0  0  0  0  0  0  0  0
   -0.2780    0.0710   -1.7040 C   0  0  0  0  0  0  0  0  0  0  0  0
   -1.4030    0.0990   -2.4650 C   0  0  0  0  0  0  0  0  0  0  0  0
   -1.3250    0.5830   -3.7240 C   0  0  0  0  0  0  0  0  0  0  0  0
   -2.5660    0.7580   -4.9520 Cl  0  0  0  0  0  0  0  0  0  0  0  0
    0.3890    1.0470   -3.9320 S   0  0  0  0  0  0  0  0  0  0  0  0
    0.8690    0.5250   -2.2310 C   0  0  0  0  0  0  0  0  0  0  0  0
    2.2540    0.6790   -1.8040 C   0  0  0  0  0  0  0  0  0  0  0  0
    3.0820    1.1770   -2.6590 O   0  0  0  0  0  0  0  0  0  0  0  0
    2.8230    0.3570   -0.5700 N   0  0  0  0  0  0  0  0  0  0  0  0
    4.1680    0.5130   -0.1480 C   0  0  0  0  0  0  0  0  0  0  0  0
    5.0350    1.3580   -0.7870 C   0  0  0  0  0  0  0  0  0  0  0  0
    6.3580    1.4630   -0.3510 C   0  0  0  0  0  0  0  0  0  0  0  0
    6.7920    0.7260    0.7120 C   0  0  0  0  0  0  0  0  0  0  0  0
    5.8960   -0.1300    1.3530 C   0  0  0  0  0  0  0  0  0  0  0  0
    4.6000   -0.2480    0.9430 C   0  0  0  0  0  0  0  0  0  0  0  0
    6.6170   -0.7570    2.4060 N   0  0  0  0  0  0  0  0  0  0  0  0
    8.0500   -0.5190    2.1960 C   0  0  0  0  0  0  0  0  0  0  0  0
    8.0290    0.6200    1.3630 O   0  0  0  0  0  0  0  0  0  0  0  0
   -4.3690   -1.9460   -0.1240 S   0  0  0  0  0  0  0  0  0  0  0  0
  1  2  1  0
  2  3  2  0
  2 30  1  0
  3  4  1  0
  4  5  1  0
  4  8  2  0
  5  6  1  0
  5  7  2  0
  8  9  1  0
  8 30  1  0
  9 10  1  0
 10 11  1  0
 11 12  1  0
 12 13  1  0
 12 17  2  0
 13 14  2  0
 14 15  1  0
 14 16  1  0
 16 17  1  0
 17 18  1  0
 18 19  2  0
 18 20  1  0
 20 21  1  0
 21 22  2  0
 21 26  1  0
 22 23  1  0
 23 24  2  0
 24 25  1  0
 24 29  1  0
 25 26  2  0
 25 27  1  0
 27 28  1  0
 28 29  1  0
M  CHG  1  10   1
M  END
