
     RDKit          3D

 30 33  0  0  0  0  0  0  0  0999 V2000
    7.5850   -0.7730    0.6010 C   0  0  0  0  0  0  0  0  0  0  0  0
    6.5730   -1.6980    0.0450 C   0  0  0  0  0  0  0  0  0  0  0  0
    5.4450   -1.2760   -0.5430 C   0  0  0  0  0  0  0  0  0  0  0  0
    5.0460    0.1370   -0.7240 C   0  0  0  0  0  0  0  0  0  0  0  0
    3.7100    0.4360   -0.2600 N   0  0  0  0  0  0  0  0  0  0  0  0
    3.3950    1.5670    0.4350 C   0  0  0  0  0  0  0  0  0  0  0  0
    2.0900    1.5450    0.7110 N   0  0  0  0  0  0  0  0  0  0  0  0
    1.5140    0.4070    0.2090 C   0  0  0  0  0  0  0  0  0  0  0  0
    0.1160    0.0350    0.3040 C   0  0  0  0  0  0  0  0  0  0  0  0
   -0.2970   -1.0300   -0.1860 O   0  0  0  0  0  0  0  0  0  0  0  0
   -0.8550    0.8620    0.9560 N   0  0  0  0  0  0  0  0  0  0  0  0
   -0.5440    2.1110    1.5770 C   0  0  0  0  0  0  0  0  0  0  0  0
   -1.7370    2.4480    2.4310 C   0  0  0  0  0  0  0  0  0  0  0  0
   -2.5660    1.1540    2.4610 C   0  0  0  0  0  0  0  0  0  0  0  0
   -2.2560    0.6300    1.0990 C   0  0  1  0  0  0  0  0  0  0  0  0
   -3.0870    1.2330    0.0360 C   0  0  0  0  0  0  0  0  0  0  0  0
   -2.6790    1.8850   -0.9290 O   0  0  0  0  0  0  0  0  0  0  0  0
   -4.4720    1.0350    0.1530 O   0  0  0  0  0  0  0  0  0  0  0  0
   -5.3910    1.5490   -0.7840 C   0  0  2  0  0  0  0  0  0  0  0  0
   -6.4230    2.4360   -0.1130 C   0  0  0  0  0  0  0  0  0  0  0  0
   -6.1470    0.3410   -1.3510 C   0  0  2  0  0  0  0  0  0  0  0  0
   -6.8600   -0.3710   -0.2150 C   0  0  0  0  0  0  0  0  0  0  0  0
   -5.1840   -0.6380   -2.0050 C   0  0  0  0  0  0  0  0  0  0  0  0
    2.5670   -0.2450   -0.3840 C   0  0  0  0  0  0  0  0  0  0  0  0
    2.4210   -1.5320   -1.0660 C   0  0  0  0  0  0  0  0  0  0  0  0
    3.3260   -2.4890   -1.3240 C   0  0  0  0  0  0  0  0  0  0  0  0
    2.7870   -3.9190   -2.1720 Cl  0  0  0  0  0  0  0  0  0  0  0  0
    4.7000   -2.4370   -0.9660 N   0  0  0  0  0  0  0  0  0  0  0  0
    5.6000   -3.5770   -0.9720 C   0  0  0  0  0  0  0  0  0  0  0  0
    6.6470   -3.1800    0.0510 C   0  0  0  0  0  0  0  0  0  0  0  0
  1  2  1  0
  2  3  2  0
  2 30  1  0
  3  4  1  0
  3 28  1  0
  4  5  1  0
  5  6  1  0
  5 24  1  0
  6  7  2  0
  7  8  1  0
  8  9  1  0
  8 24  2  0
  9 10  2  0
  9 11  1  0
 11 12  1  0
 11 15  1  0
 12 13  1  0
 13 14  1  0
 14 15  1  0
 15 16  1  6
 16 17  2  0
 16 18  1  0
 18 19  1  0
 19 20  1  1
 19 21  1  0
 21 22  1  1
 21 23  1  0
 24 25  1  0
 25 26  2  0
 26 27  1  0
 26 28  1  0
 28 29  1  0
 29 30  1  0
M  END
