
     RDKit          3D

 30 32  0  0  0  0  0  0  0  0999 V2000
    3.5300    2.2620   -1.9360 C   0  0  0  0  0  0  0  0  0  0  0  0
    4.5390    1.3530   -1.3300 C   0  0  0  0  0  0  0  0  0  0  0  0
    4.4300    1.0760    0.0390 C   0  0  0  0  0  0  0  0  0  0  0  0
    5.3360    0.2470    0.6200 C   0  0  0  0  0  0  0  0  0  0  0  0
    5.3180   -0.1400    2.0550 C   0  0  0  0  0  0  0  0  0  0  0  0
    4.5280   -1.7090    2.2630 S   0  0  0  0  0  0  0  0  0  0  0  0
    2.7600   -1.7300    2.0320 C   0  0  0  0  0  0  0  0  0  0  0  0
    2.1630   -2.8540    1.9060 O   0  0  0  0  0  0  0  0  0  0  0  0
    1.9640   -0.5780    1.9740 N   0  0  0  0  0  0  0  0  0  0  0  0
    0.5660   -0.4670    1.7800 C   0  0  0  0  0  0  0  0  0  0  0  0
   -0.2930   -1.5170    1.5840 C   0  0  0  0  0  0  0  0  0  0  0  0
   -1.6620   -1.3360    1.3970 C   0  0  0  0  0  0  0  0  0  0  0  0
   -2.5010   -2.5390    1.1940 C   0  0  0  0  0  0  0  0  0  0  0  0
   -2.2390   -0.0900    1.3960 C   0  0  0  0  0  0  0  0  0  0  0  0
   -3.6860    0.0370    1.1920 C   0  0  0  0  0  0  0  0  0  0  0  0
   -4.1240   -0.1380   -0.2410 C   0  0  1  0  0  0  0  0  0  0  0  0
   -5.6390    0.0240   -0.2650 C   0  0  0  0  0  0  0  0  0  0  0  0
   -6.1770   -0.5320   -1.5780 C   0  0  0  0  0  0  0  0  0  0  0  0
   -5.4930    0.5010   -2.8640 S   0  0  1  0  0  0  0  0  0  0  0  0
   -5.5510   -0.2370   -4.1700 O   0  0  0  0  0  0  0  0  0  0  0  0
   -6.3020    1.7460   -2.9210 O   0  0  0  0  0  0  0  0  0  0  0  0
   -3.7960    0.7980   -2.4420 C   0  0  0  0  0  0  0  0  0  0  0  0
   -3.5940    0.9710   -1.0390 N   0  0  0  0  0  0  0  0  0  0  0  0
   -1.3780    0.9670    1.5930 C   0  0  0  0  0  0  0  0  0  0  0  0
   -0.0300    0.8060    1.7790 C   0  0  0  0  0  0  0  0  0  0  0  0
    1.0380    2.1790    2.0270 Cl  0  0  0  0  0  0  0  0  0  0  0  0
    6.3090   -0.2720   -0.1630 N   0  0  0  0  0  0  0  0  0  0  0  0
    6.4070   -0.0010   -1.4710 C   0  0  0  0  0  0  0  0  0  0  0  0
    7.4910   -0.5920   -2.2960 C   0  0  0  0  0  0  0  0  0  0  0  0
    5.5190    0.8150   -2.0650 N   0  0  0  0  0  0  0  0  0  0  0  0
  1  2  1  0
  2  3  2  0
  2 30  1  0
  3  4  1  0
  4  5  1  0
  4 27  2  0
  5  6  1  0
  6  7  1  0
  7  8  2  0
  7  9  1  0
  9 10  1  0
 10 11  2  0
 10 25  1  0
 11 12  1  0
 12 13  1  0
 12 14  2  0
 14 15  1  0
 14 24  1  0
 16 15  1  1
 16 17  1  0
 16 23  1  0
 17 18  1  0
 19 18  1  1
 19 20  2  0
 19 21  2  0
 19 22  1  0
 22 23  1  0
 24 25  2  0
 25 26  1  0
 27 28  1  0
 28 29  1  0
 28 30  2  0
M  CHG  1  23   1
M  END
