
     RDKit          3D

 30 33  0  0  0  0  0  0  0  0999 V2000
    5.0320    2.1820    1.7030 C   0  0  0  0  0  0  0  0  0  0  0  0
    4.9050    0.9320    0.9060 C   0  0  0  0  0  0  0  0  0  0  0  0
    5.9940    0.1040    0.7680 C   0  0  0  0  0  0  0  0  0  0  0  0
    5.8920   -1.0550    0.0340 C   0  0  0  0  0  0  0  0  0  0  0  0
    7.2530   -2.1380   -0.1680 Cl  0  0  0  0  0  0  0  0  0  0  0  0
    4.6770   -1.3640   -0.5570 C   0  0  0  0  0  0  0  0  0  0  0  0
    4.5840   -2.5870   -1.3260 C   0  0  0  0  0  0  0  0  0  0  0  0
    4.2490   -3.6400   -0.7570 O   0  0  0  0  0  0  0  0  0  0  0  0
    4.8640   -2.5850   -2.6700 O   0  0  0  0  0  0  0  0  0  0  0  0
    3.5570   -0.5440   -0.4340 C   0  0  0  0  0  0  0  0  0  0  0  0
    2.4050   -0.9400   -1.0560 O   0  0  0  0  0  0  0  0  0  0  0  0
    1.2110   -0.2770   -1.0520 C   0  0  0  0  0  0  0  0  0  0  0  0
    0.2530   -0.5970   -0.1170 C   0  0  0  0  0  0  0  0  0  0  0  0
   -0.9770    0.0750   -0.1020 C   0  0  0  0  0  0  0  0  0  0  0  0
   -2.0540   -0.2000    0.8530 C   0  0  0  0  0  0  0  0  0  0  0  0
   -3.0900   -1.0950    0.3930 N   0  0  0  0  0  0  0  0  0  0  0  0
   -2.8390   -2.4220   -0.0550 C   0  0  0  0  0  0  0  0  0  0  0  0
   -1.7080   -3.4760    0.4060 S   0  0  0  0  0  0  0  0  0  0  0  0
   -4.1060   -2.7260   -1.3200 S   0  0  0  0  0  0  0  0  0  0  0  0
   -4.8910   -1.0560   -1.1620 C   0  0  0  0  0  0  0  0  0  0  0  0
   -4.5140   -0.8460    0.3120 C   0  0  2  0  0  0  0  0  0  0  0  0
   -4.9760    0.4380    0.7900 C   0  0  0  0  0  0  0  0  0  0  0  0
   -5.7560    1.2810    0.0470 N   0  0  0  0  0  0  0  0  0  0  0  0
   -6.0600    2.3820    0.7110 C   0  0  0  0  0  0  0  0  0  0  0  0
   -5.4610    2.2700    1.9430 C   0  0  0  0  0  0  0  0  0  0  0  0
   -4.8190    1.0860    1.9500 N   0  0  0  0  0  0  0  0  0  0  0  0
   -1.1570    1.0490   -1.0570 C   0  0  0  0  0  0  0  0  0  0  0  0
   -0.1790    1.3710   -2.0060 C   0  0  0  0  0  0  0  0  0  0  0  0
    0.9880    0.6790   -1.9630 N   0  0  0  0  0  0  0  0  0  0  0  0
    3.6980    0.6030    0.3060 C   0  0  0  0  0  0  0  0  0  0  0  0
  1  2  1  0
  2  3  2  0
  2 30  1  0
  3  4  1  0
  4  5  1  0
  4  6  2  0
  6  7  1  0
  6 10  1  0
  7  8  2  0
  7  9  1  0
 10 11  1  0
 10 30  2  0
 11 12  1  0
 12 13  2  0
 12 29  1  0
 13 14  1  0
 14 15  1  0
 14 27  2  0
 15 16  1  0
 16 17  1  0
 16 21  1  0
 17 18  2  0
 17 19  1  0
 19 20  1  0
 20 21  1  0
 21 22  1  6
 22 23  2  0
 22 26  1  0
 23 24  1  0
 24 25  2  0
 25 26  1  0
 27 28  1  0
 28 29  2  0
M  CHG  1  29   1
M  END
