
     RDKit          3D

 30 33  0  0  0  0  0  0  0  0999 V2000
   -4.0850    2.4110   -0.0980 O   0  0  0  0  0  0  0  0  0  0  0  0
   -2.9970    1.9080    0.2750 C   0  0  0  0  0  0  0  0  0  0  0  0
   -2.4810    2.1390    1.6310 C   0  0  0  0  0  0  0  0  0  0  0  0
   -3.2040    2.9770    2.4510 C   0  0  0  0  0  0  0  0  0  0  0  0
   -2.7570    3.2830    3.7130 C   0  0  0  0  0  0  0  0  0  0  0  0
   -1.5480    2.7100    4.1140 C   0  0  0  0  0  0  0  0  0  0  0  0
   -0.8710    1.9060    3.3080 N   0  0  0  0  0  0  0  0  0  0  0  0
   -1.2790    1.5760    2.0530 C   0  0  0  0  0  0  0  0  0  0  0  0
   -0.5250    0.6530    1.2350 C   0  0  0  0  0  0  0  0  0  0  0  0
   -1.0100   -0.5100    0.8430 C   0  0  0  0  0  0  0  0  0  0  0  0
   -2.3090   -0.9340    1.2130 N   0  0  0  0  0  0  0  0  0  0  0  0
   -2.8260   -2.1830    0.7770 C   0  0  0  0  0  0  0  0  0  0  0  0
   -4.1120   -2.5920    1.1470 C   0  0  0  0  0  0  0  0  0  0  0  0
   -4.5560   -3.8020    0.6990 C   0  0  0  0  0  0  0  0  0  0  0  0
   -3.7740   -4.6060   -0.0950 C   0  0  0  0  0  0  0  0  0  0  0  0
   -2.5250   -4.2090   -0.4550 C   0  0  0  0  0  0  0  0  0  0  0  0
   -2.0390   -2.9830   -0.0170 C   0  0  0  0  0  0  0  0  0  0  0  0
   -0.7030   -2.5450   -0.3960 C   0  0  0  0  0  0  0  0  0  0  0  0
   -0.1730   -1.3830   -0.0140 C   0  0  0  0  0  0  0  0  0  0  0  0
    1.1410   -1.0160   -0.4150 N   0  0  0  0  0  0  0  0  0  0  0  0
    1.4050    0.0880   -1.2540 C   0  0  0  0  0  0  0  0  0  0  0  0
    0.4600    0.8020   -1.6950 O   0  0  0  0  0  0  0  0  0  0  0  0
    2.7690    0.4640   -1.6560 C   0  0  0  0  0  0  0  0  0  0  0  0
    2.9960    1.6270   -2.3790 C   0  0  0  0  0  0  0  0  0  0  0  0
    4.2540    2.0190   -2.7790 C   0  0  0  0  0  0  0  0  0  0  0  0
    5.3630    1.2590   -2.4730 C   0  0  0  0  0  0  0  0  0  0  0  0
    6.7310    1.6820   -2.9050 C   0  0  0  0  0  0  0  0  0  0  0  0
    7.0210    0.9810   -4.4920 Cl  0  0  0  0  0  0  0  0  0  0  0  0
    5.1540    0.1020   -1.7560 C   0  0  0  0  0  0  0  0  0  0  0  0
    3.8780   -0.2960   -1.3500 C   0  0  0  0  0  0  0  0  0  0  0  0
  1  2  2  0
  2  3  1  0
  3  4  2  0
  3  8  1  0
  4  5  1  0
  5  6  2  0
  6  7  1  0
  7  8  2  0
  8  9  1  0
  9 10  2  3
 10 11  1  0
 10 19  1  0
 11 12  1  0
 12 13  2  0
 12 17  1  0
 13 14  1  0
 14 15  2  0
 15 16  1  0
 16 17  2  0
 17 18  1  0
 18 19  2  0
 19 20  1  0
 20 21  1  0
 21 22  2  0
 21 23  1  0
 23 24  2  0
 23 30  1  0
 24 25  1  0
 25 26  2  0
 26 27  1  0
 26 29  1  0
 27 28  1  0
 29 30  2  0
M  END
