
     RDKit          3D

 30 33  0  0  0  0  0  0  0  0999 V2000
    9.0990   -0.1230    0.9250 C   0  0  0  0  0  0  0  0  0  0  0  0
    8.5320    0.5040   -0.3220 C   0  0  0  0  0  0  0  0  0  0  0  0
    7.2280   -0.0810   -0.6590 C   0  0  0  0  0  0  0  0  0  0  0  0
    7.1670   -0.9950   -1.5290 O   0  0  0  0  0  0  0  0  0  0  0  0
    6.0040    0.3630   -0.0200 C   0  0  0  0  0  0  0  0  0  0  0  0
    4.7650   -0.1150   -0.2950 N   0  0  0  0  0  0  0  0  0  0  0  0
    3.8640    0.4940    0.4740 C   0  0  0  0  0  0  0  0  0  0  0  0
    2.4130    0.2440    0.4650 C   0  0  0  0  0  0  0  0  0  0  0  0
    1.7210    0.9060    1.2510 O   0  0  0  0  0  0  0  0  0  0  0  0
    1.8640   -0.7020   -0.3980 N   0  0  0  0  0  0  0  0  0  0  0  0
    0.4960   -1.0100   -0.4810 C   0  0  0  0  0  0  0  0  0  0  0  0
    0.1130   -2.0500   -1.3550 C   0  0  0  0  0  0  0  0  0  0  0  0
   -1.1980   -2.4250   -1.5120 C   0  0  0  0  0  0  0  0  0  0  0  0
   -2.1950   -1.7890   -0.8100 C   0  0  0  0  0  0  0  0  0  0  0  0
   -3.5270   -2.1450   -0.9450 C   0  0  0  0  0  0  0  0  0  0  0  0
   -4.4730   -1.4570   -0.2030 C   0  0  0  0  0  0  0  0  0  0  0  0
   -5.9000   -1.8760   -0.3630 C   0  0  0  0  0  0  0  0  0  0  0  0
   -4.1770   -0.4420    0.6600 C   0  0  0  0  0  0  0  0  0  0  0  0
   -5.1970    0.2970    1.4400 C   0  0  0  0  0  0  0  0  0  0  0  0
   -5.8980    1.2960    0.6420 N   0  0  0  0  0  0  0  0  0  0  0  0
   -5.4900    2.5850    0.4670 C   0  0  0  0  0  0  0  0  0  0  0  0
   -6.3710    3.2780   -0.3230 C   0  0  0  0  0  0  0  0  0  0  0  0
   -7.3550    2.4030   -0.6500 C   0  0  0  0  0  0  0  0  0  0  0  0
   -7.0440    1.1870   -0.0450 C   0  0  0  0  0  0  0  0  0  0  0  0
   -2.8230   -0.0970    0.7840 C   0  0  0  0  0  0  0  0  0  0  0  0
   -1.8620   -0.7770    0.0470 C   0  0  0  0  0  0  0  0  0  0  0  0
   -0.5320   -0.4210    0.1840 C   0  0  0  0  0  0  0  0  0  0  0  0
    4.5390    1.3850    1.2640 C   0  0  0  0  0  0  0  0  0  0  0  0
    5.8990    1.3120    0.9610 C   0  0  0  0  0  0  0  0  0  0  0  0
    7.1440    2.2720    1.7400 Cl  0  0  0  0  0  0  0  0  0  0  0  0
  1  2  1  0
  2  3  1  0
  3  4  2  0
  3  5  1  0
  5  6  1  0
  5 29  2  0
  6  7  1  0
  7  8  1  0
  7 28  2  0
  8  9  2  0
  8 10  1  0
 10 11  1  0
 11 12  2  0
 11 27  1  0
 12 13  1  0
 13 14  2  0
 14 15  1  0
 14 26  1  0
 15 16  2  0
 16 17  1  0
 16 18  1  0
 18 19  1  0
 18 25  2  0
 19 20  1  0
 20 21  1  0
 20 24  1  0
 21 22  2  0
 22 23  1  0
 23 24  2  0
 25 26  1  0
 26 27  2  0
 28 29  1  0
 29 30  1  0
M  END
