
     RDKit          3D

 31 33  0  0  0  0  0  0  0  0999 V2000
    4.7960   -3.5330    0.6860 C   0  0  0  0  0  0  0  0  0  0  0  0
    3.9190   -2.4350    0.7600 O   0  0  0  0  0  0  0  0  0  0  0  0
    4.3740   -1.1460    0.6660 C   0  0  0  0  0  0  0  0  0  0  0  0
    5.7460   -0.9180    0.4910 C   0  0  0  0  0  0  0  0  0  0  0  0
    6.1880    0.3820    0.3990 C   0  0  0  0  0  0  0  0  0  0  0  0
    5.2840    1.4000    0.4810 C   0  0  0  0  0  0  0  0  0  0  0  0
    3.9940    1.1380    0.6470 N   0  0  0  0  0  0  0  0  0  0  0  0
    3.4670   -0.1140    0.7480 C   0  0  0  0  0  0  0  0  0  0  0  0
    2.0700   -0.3070    0.9240 N   0  0  0  0  0  0  0  0  0  0  0  0
    1.2710    0.9040    1.0610 C   0  0  0  0  0  0  0  0  0  0  0  0
    0.0160    0.6610    1.8520 C   0  0  0  0  0  0  0  0  0  0  0  0
   -0.6670   -0.5920    1.4410 C   0  0  0  0  0  0  0  0  0  0  0  0
   -2.0850   -0.6070    1.5260 N   0  0  0  0  0  0  0  0  0  0  0  0
   -2.8490    0.1830    0.5820 C   0  0  0  0  0  0  0  0  0  0  0  0
   -2.2740    1.1450   -0.0110 N   0  0  0  0  0  0  0  0  0  0  0  0
   -2.9260    2.0110   -0.9770 C   0  0  0  0  0  0  0  0  0  0  0  0
   -2.2700    2.9720   -1.5390 C   0  0  0  0  0  0  0  0  0  0  0  0
   -2.7620    3.9210   -2.5160 C   0  0  0  0  0  0  0  0  0  0  0  0
   -2.6280    5.1940   -1.9650 F   0  0  0  0  0  0  0  0  0  0  0  0
   -4.3180    1.6900   -1.2230 C   0  0  0  0  0  0  0  0  0  0  0  0
   -5.0270    2.3330   -2.0230 O   0  0  0  0  0  0  0  0  0  0  0  0
   -4.9150    0.5590   -0.4980 C   0  0  0  0  0  0  0  0  0  0  0  0
   -6.3480    0.2520   -0.7760 C   0  0  0  0  0  0  0  0  0  0  0  0
   -6.5360   -0.0710   -2.1310 O   0  0  0  0  0  0  0  0  0  0  0  0
   -4.2150   -0.1250    0.3340 N   0  0  0  0  0  0  0  0  0  0  0  0
    0.0230   -1.6390    1.0260 C   0  0  0  0  0  0  0  0  0  0  0  0
   -0.6920   -2.8960    0.6140 C   0  0  1  0  0  0  0  0  0  0  0  0
   -0.3310   -3.9570    1.4290 F   0  0  0  0  0  0  0  0  0  0  0  0
   -2.0520   -2.7550    0.6870 F   0  0  0  0  0  0  0  0  0  0  0  0
   -0.3110   -3.2330   -0.6890 F   0  0  0  0  0  0  0  0  0  0  0  0
    1.5060   -1.6210    0.9590 C   0  0  0  0  0  0  0  0  0  0  0  0
  1  2  1  0
  2  3  1  0
  3  4  2  0
  3  8  1  0
  4  5  1  0
  5  6  2  0
  6  7  1  0
  7  8  2  0
  8  9  1  0
  9 10  1  0
  9 31  1  0
 10 11  1  0
 11 12  1  0
 12 13  1  0
 12 26  2  0
 13 14  1  0
 14 15  2  0
 14 25  1  0
 15 16  1  0
 16 17  2  3
 16 20  1  0
 17 18  1  0
 18 19  1  0
 20 21  2  0
 20 22  1  0
 22 23  1  0
 22 25  2  0
 23 24  1  0
 26 27  1  0
 26 31  1  0
 27 28  1  1
 27 29  1  0
 27 30  1  0
M  END
