
     RDKit          3D

 29 32  0  0  0  0  0  0  0  0999 V2000
   -2.4250    0.1990    1.5030 C   0  0  0  0  0  0  0  0  0  0  0  0
   -2.4070    0.0540    0.0110 C   0  0  2  0  0  0  0  0  0  0  0  0
   -2.7480    1.3630   -0.6300 C   0  0  0  0  0  0  0  0  0  0  0  0
   -3.3750   -0.9470   -0.3740 N   0  0  0  0  0  0  0  0  0  0  0  0
   -4.7500   -0.8250   -0.0840 C   0  0  0  0  0  0  0  0  0  0  0  0
   -5.6010   -1.8620   -0.5130 C   0  0  0  0  0  0  0  0  0  0  0  0
   -6.9380   -1.7670   -0.2440 C   0  0  0  0  0  0  0  0  0  0  0  0
   -7.5350   -0.7230    0.4240 C   0  0  0  0  0  0  0  0  0  0  0  0
   -6.7080    0.2930    0.8460 C   0  0  0  0  0  0  0  0  0  0  0  0
   -7.3370    1.6850    1.7090 Cl  0  0  0  0  0  0  0  0  0  0  0  0
   -5.3300    0.2270    0.5850 C   0  0  0  0  0  0  0  0  0  0  0  0
   -1.0350   -0.3990   -0.3820 C   0  0  0  0  0  0  0  0  0  0  0  0
   -0.9200   -1.5260   -0.9600 O   0  0  0  0  0  0  0  0  0  0  0  0
    0.1810    0.3500   -0.1540 C   0  0  0  0  0  0  0  0  0  0  0  0
    0.2150    1.5830    0.4570 C   0  0  0  0  0  0  0  0  0  0  0  0
    1.3970    2.2850    0.6660 C   0  0  0  0  0  0  0  0  0  0  0  0
    2.6010    1.7600    0.2590 C   0  0  0  0  0  0  0  0  0  0  0  0
    2.6040    0.5300   -0.3550 C   0  0  0  0  0  0  0  0  0  0  0  0
    3.8460   -0.0350   -0.7870 N   0  0  0  0  0  0  0  0  0  0  0  0
    4.0510   -0.5460   -2.0130 C   0  0  0  0  0  0  0  0  0  0  0  0
    3.2330   -0.6210   -2.9670 O   0  0  0  0  0  0  0  0  0  0  0  0
    5.3400   -0.9920   -2.0710 N   0  0  0  0  0  0  0  0  0  0  0  0
    5.9500   -0.7660   -0.8910 C   0  0  0  0  0  0  0  0  0  0  0  0
    7.2250   -1.0220   -0.4350 C   0  0  0  0  0  0  0  0  0  0  0  0
    7.5910   -0.6790    0.8500 C   0  0  0  0  0  0  0  0  0  0  0  0
    6.6370   -0.0770    1.6450 C   0  0  0  0  0  0  0  0  0  0  0  0
    5.3510    0.1850    1.1980 C   0  0  0  0  0  0  0  0  0  0  0  0
    4.9910   -0.1610   -0.0920 C   0  0  0  0  0  0  0  0  0  0  0  0
    1.4220   -0.1440   -0.5500 C   0  0  0  0  0  0  0  0  0  0  0  0
  2  1  1  1
  2  3  1  0
  2  4  1  0
  2 12  1  0
  4  5  1  0
  5  6  2  0
  5 11  1  0
  6  7  1  0
  7  8  2  0
  8  9  1  0
  9 10  1  0
  9 11  2  0
 12 13  2  0
 12 14  1  0
 14 15  2  0
 14 29  1  0
 15 16  1  0
 16 17  2  0
 17 18  1  0
 18 19  1  0
 18 29  2  0
 19 20  1  0
 19 28  1  0
 20 21  2  0
 20 22  1  0
 22 23  1  0
 23 24  2  0
 23 28  1  0
 24 25  1  0
 25 26  2  0
 26 27  1  0
 27 28  2  0
M  END
