
     RDKit          3D

 34 36  0  0  0  0  0  0  0  0999 V2000
    5.9080   -4.1410   -0.7960 C   0  0  0  0  0  0  0  0  0  0  0  0
    4.7390   -3.3530   -0.9210 O   0  0  0  0  0  0  0  0  0  0  0  0
    4.2490   -2.5680    0.1170 C   0  0  0  0  0  0  0  0  0  0  0  0
    4.9110   -2.5940    1.1970 O   0  0  0  0  0  0  0  0  0  0  0  0
    3.0290   -1.7600   -0.0470 C   0  0  1  0  0  0  0  0  0  0  0  0
    3.1190   -0.7340   -1.1320 C   0  0  0  0  0  0  0  0  0  0  0  0
    4.2230    0.1990   -0.8340 C   0  0  0  0  0  0  0  0  0  0  0  0
    5.4860   -0.0790   -1.3050 C   0  0  0  0  0  0  0  0  0  0  0  0
    6.5050    0.8020   -1.0170 C   0  0  0  0  0  0  0  0  0  0  0  0
    6.2660    1.9370   -0.2750 C   0  0  0  0  0  0  0  0  0  0  0  0
    4.9920    2.2490    0.2190 C   0  0  0  0  0  0  0  0  0  0  0  0
    4.8210    3.4710    0.9980 C   0  0  0  0  0  0  0  0  0  0  0  0
    5.9570    4.3220    1.2450 N   0  0  0  0  0  0  0  0  0  0  0  0
    3.7080    3.8210    1.4730 N   0  0  0  0  0  0  0  0  0  0  0  0
    3.9940    1.3580   -0.0800 C   0  0  0  0  0  0  0  0  0  0  0  0
    1.8510   -2.6880   -0.2170 C   0  0  2  0  0  0  0  0  0  0  0  0
    1.9900   -3.5810   -1.4150 C   0  0  0  0  0  0  0  0  0  0  0  0
    0.5880   -1.9790   -0.2550 N   0  0  0  0  0  0  0  0  0  0  0  0
   -0.3930   -2.1710    0.7300 C   0  0  0  0  0  0  0  0  0  0  0  0
   -0.1060   -3.0000    1.6540 O   0  0  0  0  0  0  0  0  0  0  0  0
   -1.6850   -1.4940    0.7560 C   0  0  0  0  0  0  0  0  0  0  0  0
   -2.5650   -1.7390    1.7780 C   0  0  0  0  0  0  0  0  0  0  0  0
   -3.7850   -1.0970    1.7960 C   0  0  0  0  0  0  0  0  0  0  0  0
   -4.1820   -0.2030    0.8240 C   0  0  0  0  0  0  0  0  0  0  0  0
   -5.4860    0.4680    0.8630 C   0  0  0  0  0  0  0  0  0  0  0  0
   -6.0060    0.7400    2.1140 C   0  0  0  0  0  0  0  0  0  0  0  0
   -7.2300    1.3700    2.1530 C   0  0  0  0  0  0  0  0  0  0  0  0
   -7.9170    1.7190    1.0050 C   0  0  0  0  0  0  0  0  0  0  0  0
   -7.3830    1.4400   -0.2440 C   0  0  0  0  0  0  0  0  0  0  0  0
   -8.1380    1.8250   -1.4490 C   0  0  0  0  0  0  0  0  0  0  0  0
   -7.7760    3.1480   -1.8870 N   0  0  0  0  0  0  0  0  0  0  0  0
   -6.1570    0.8100   -0.2840 C   0  0  0  0  0  0  0  0  0  0  0  0
   -3.2750    0.0240   -0.1940 C   0  0  0  0  0  0  0  0  0  0  0  0
   -2.0460   -0.6110   -0.2270 C   0  0  0  0  0  0  0  0  0  0  0  0
  1  2  1  0
  2  3  1  0
  3  4  2  0
  3  5  1  0
  5  6  1  6
  5 16  1  0
  6  7  1  0
  7  8  2  0
  7 15  1  0
  8  9  1  0
  9 10  2  0
 10 11  1  0
 11 12  1  0
 11 15  2  0
 12 13  1  0
 12 14  2  0
 16 17  1  6
 16 18  1  0
 18 19  1  0
 19 20  2  0
 19 21  1  0
 21 22  2  0
 21 34  1  0
 22 23  1  0
 23 24  2  0
 24 25  1  0
 24 33  1  0
 25 26  2  0
 25 32  1  0
 26 27  1  0
 27 28  2  0
 28 29  1  0
 29 30  1  0
 29 32  2  0
 30 31  1  0
 33 34  2  0
M  CHG  2  14   1  31   1
M  END
