
     RDKit          3D

 35 36  0  0  0  0  0  0  0  0999 V2000
    9.1500   -0.0570    1.2080 C   0  0  0  0  0  0  0  0  0  0  0  0
    8.4720    0.1240    0.1020 C   0  0  0  0  0  0  0  0  0  0  0  0
    9.0260    1.3910   -1.0590 S   0  0  0  0  0  0  0  0  0  0  0  0
   10.4990    2.2030   -0.3870 C   0  0  0  0  0  0  0  0  0  0  0  0
    7.2650   -0.6460   -0.2640 C   0  0  0  0  0  0  0  0  0  0  0  0
    6.8310   -1.5390    0.5350 N   0  0  0  0  0  0  0  0  0  0  0  0
    6.5890   -0.4240   -1.4880 N   0  0  0  0  0  0  0  0  0  0  0  0
    5.2110   -0.8190   -1.6480 C   0  0  0  0  0  0  0  0  0  0  0  0
    4.2730    0.0050   -0.8100 C   0  0  0  0  0  0  0  0  0  0  0  0
    2.8840   -0.5320   -1.0240 C   0  0  0  0  0  0  0  0  0  0  0  0
    2.0550   -0.1560   -2.0570 C   0  0  0  0  0  0  0  0  0  0  0  0
    0.8880   -0.9100   -1.8380 C   0  0  0  0  0  0  0  0  0  0  0  0
    1.0800   -1.6670   -0.7240 C   0  0  0  0  0  0  0  0  0  0  0  0
    0.1020   -2.6310   -0.0980 C   0  0  0  0  0  0  0  0  0  0  0  0
   -0.4360   -1.8730    1.0480 N   0  0  0  0  0  0  0  0  0  0  0  0
   -1.2100   -0.6990    0.8220 C   0  0  0  0  0  0  0  0  0  0  0  0
   -1.4420   -0.3930   -0.3410 O   0  0  0  0  0  0  0  0  0  0  0  0
   -1.7050    0.1090    1.8660 N   0  0  0  0  0  0  0  0  0  0  0  0
   -2.5430    1.2670    1.7620 C   0  0  2  0  0  0  0  0  0  0  0  0
   -2.3910    2.0830    0.5620 C   0  0  0  0  0  0  0  0  0  0  0  0
   -2.9850    2.0140   -0.5610 C   0  0  0  0  0  0  0  0  0  0  0  0
   -4.0020    1.1060   -1.0350 C   0  0  0  0  0  0  0  0  0  0  0  0
   -4.4540    1.3560   -2.2380 O   0  0  0  0  0  0  0  0  0  0  0  0
   -4.5400    0.0090   -0.3660 N   0  0  0  0  0  0  0  0  0  0  0  0
   -5.5860   -0.8010   -1.0210 C   0  0  1  0  0  0  0  0  0  0  0  0
   -5.0160   -2.2250   -0.9780 C   0  0  0  0  0  0  0  0  0  0  0  0
   -6.8280   -0.7570   -0.1880 C   0  0  0  0  0  0  0  0  0  0  0  0
   -7.3590   -1.9580    1.0300 S   0  0  0  0  0  0  0  0  0  0  0  0
   -8.9070   -1.0310    1.5240 C   0  0  0  0  0  0  0  0  0  0  0  0
   -8.8160    0.0330    0.7230 C   0  0  0  0  0  0  0  0  0  0  0  0
   -7.8210    0.2250   -0.1400 C   0  0  0  0  0  0  0  0  0  0  0  0
   -7.6740    1.4170   -1.0950 C   0  0  0  0  0  0  0  0  0  0  0  0
   -2.2490    2.1240    3.0190 C   0  0  0  0  0  0  0  0  0  0  0  0
   -0.9290    2.4930    3.0930 O   0  0  0  0  0  0  0  0  0  0  0  0
    2.2990   -1.4140   -0.2590 O   0  0  0  0  0  0  0  0  0  0  0  0
  1  2  2  0
  2  3  1  0
  2  5  1  0
  3  4  1  0
  5  6  2  0
  5  7  1  0
  7  8  1  0
  8  9  1  0
  9 10  1  0
 10 11  2  0
 10 35  1  0
 11 12  1  0
 12 13  2  0
 13 14  1  0
 13 35  1  0
 14 15  1  0
 15 16  1  0
 16 17  2  0
 16 18  1  0
 18 19  1  0
 19 20  1  0
 19 33  1  1
 20 21  2  3
 21 22  1  0
 22 23  2  0
 22 24  1  0
 24 25  1  0
 25 26  1  1
 25 27  1  0
 27 28  1  0
 27 31  2  0
 28 29  1  0
 29 30  2  0
 30 31  1  0
 31 32  1  0
 33 34  1  0
M  CHG  1   6   1
M  END
