
     RDKit          3D

 35 38  0  0  0  0  0  0  0  0999 V2000
    6.8530   -2.7100   -0.0300 C   0  0  0  0  0  0  0  0  0  0  0  0
    5.5540   -2.2800   -0.6640 C   0  0  0  0  0  0  0  0  0  0  0  0
    5.5390   -0.8430   -0.5910 O   0  0  0  0  0  0  0  0  0  0  0  0
    6.5270   -0.1430   -1.2550 C   0  0  0  0  0  0  0  0  0  0  0  0
    7.4290   -0.7350   -1.9300 O   0  0  0  0  0  0  0  0  0  0  0  0
    6.5510    1.3180   -1.1830 C   0  0  0  0  0  0  0  0  0  0  0  0
    7.6330    2.0060   -1.7480 C   0  0  0  0  0  0  0  0  0  0  0  0
    7.8200    3.3610   -1.6700 C   0  0  0  0  0  0  0  0  0  0  0  0
    6.8640    4.0900   -0.9830 C   0  0  0  0  0  0  0  0  0  0  0  0
    5.8090    3.4530   -0.4270 C   0  0  0  0  0  0  0  0  0  0  0  0
    5.6140    2.0540   -0.5080 C   0  0  0  0  0  0  0  0  0  0  0  0
    4.3920    1.5100    0.0390 C   0  0  0  0  0  0  0  0  0  0  0  0
    4.1240    1.6950    1.3050 O   0  0  0  0  0  0  0  0  0  0  0  0
    3.3860    0.7780   -0.6440 N   0  0  0  0  0  0  0  0  0  0  0  0
    2.2260    0.3170    0.0630 C   0  0  0  0  0  0  0  0  0  0  0  0
    2.3170   -0.3510    1.2580 C   0  0  0  0  0  0  0  0  0  0  0  0
    1.1710   -0.6850    1.9750 C   0  0  0  0  0  0  0  0  0  0  0  0
   -0.0930   -0.3760    1.5440 C   0  0  0  0  0  0  0  0  0  0  0  0
   -1.3100   -0.7620    2.3180 C   0  0  0  0  0  0  0  0  0  0  0  0
   -0.8870   -1.4700    3.5290 N   0  0  0  0  0  0  0  0  0  0  0  0
   -0.2050    0.3000    0.3390 C   0  0  0  0  0  0  0  0  0  0  0  0
   -1.4670    0.8720   -0.1050 C   0  0  0  0  0  0  0  0  0  0  0  0
   -2.6250    0.1270   -0.2920 N   0  0  0  0  0  0  0  0  0  0  0  0
   -2.7170   -0.9910   -1.1170 C   0  0  0  0  0  0  0  0  0  0  0  0
   -3.9930   -1.1300   -1.9350 C   0  0  0  0  0  0  0  0  0  0  0  0
   -5.1540   -0.6810   -1.1500 C   0  0  0  0  0  0  0  0  0  0  0  0
   -6.3620   -1.3460   -1.0630 C   0  0  0  0  0  0  0  0  0  0  0  0
   -7.3800   -0.7660   -0.3400 C   0  0  0  0  0  0  0  0  0  0  0  0
   -8.6600   -1.4080   -0.2110 N   0  0  0  0  0  0  0  0  0  0  0  0
   -9.7930   -0.6890    0.3750 C   0  0  0  0  0  0  0  0  0  0  0  0
   -7.2160    0.4450    0.2900 C   0  0  0  0  0  0  0  0  0  0  0  0
   -6.0100    1.1080    0.2090 C   0  0  0  0  0  0  0  0  0  0  0  0
   -4.9990    0.5510   -0.4980 C   0  0  0  0  0  0  0  0  0  0  0  0
   -3.6720    1.1550   -0.6440 C   0  0  0  0  0  0  0  0  0  0  0  0
    0.9580    0.6260   -0.3710 C   0  0  0  0  0  0  0  0  0  0  0  0
  1  2  1  0
  2  3  1  0
  3  4  1  0
  4  5  2  0
  4  6  1  0
  6  7  2  0
  6 11  1  0
  7  8  1  0
  8  9  2  0
  9 10  1  0
 10 11  2  0
 11 12  1  0
 12 13  2  0
 12 14  1  0
 14 15  1  0
 15 16  2  0
 15 35  1  0
 16 17  1  0
 17 18  2  0
 18 19  1  0
 18 21  1  0
 19 20  1  0
 21 22  1  0
 21 35  2  0
 22 23  1  0
 23 24  1  0
 23 34  1  0
 24 25  1  0
 25 26  1  0
 26 27  2  0
 26 33  1  0
 27 28  1  0
 28 29  1  0
 28 31  2  0
 29 30  1  0
 31 32  1  0
 32 33  2  0
 33 34  1  0
M  CHG  1  20   1
M  END
