
     RDKit          3D

 35 37  0  0  0  0  0  0  0  0999 V2000
   10.0600   -0.9410   -0.3910 C   0  0  0  0  0  0  0  0  0  0  0  0
    9.2490    0.1550    0.0900 N   0  0  0  0  0  0  0  0  0  0  0  0
    8.5820    0.8560   -0.9880 C   0  0  0  0  0  0  0  0  0  0  0  0
    7.1910    1.2430   -0.6330 C   0  0  0  0  0  0  0  0  0  0  0  0
    6.8690    2.4410   -0.0320 C   0  0  0  0  0  0  0  0  0  0  0  0
    5.5540    2.7550    0.2790 C   0  0  0  0  0  0  0  0  0  0  0  0
    4.5010    1.8720   -0.0020 C   0  0  0  0  0  0  0  0  0  0  0  0
    3.1900    2.2650    0.3560 N   0  0  0  0  0  0  0  0  0  0  0  0
    2.0170    1.5400    0.1480 C   0  0  0  0  0  0  0  0  0  0  0  0
    0.8080    1.9520    0.7230 C   0  0  0  0  0  0  0  0  0  0  0  0
   -0.3740    1.2710    0.5340 C   0  0  0  0  0  0  0  0  0  0  0  0
   -0.4090    0.1290   -0.2490 C   0  0  0  0  0  0  0  0  0  0  0  0
   -1.6320   -0.5850   -0.4510 N   0  0  0  0  0  0  0  0  0  0  0  0
   -2.8630   -0.1550    0.1400 C   0  0  0  0  0  0  0  0  0  0  0  0
   -4.0470   -0.9880   -0.1500 C   0  0  0  0  0  0  0  0  0  0  0  0
   -4.0110   -2.1190   -0.9350 C   0  0  0  0  0  0  0  0  0  0  0  0
   -5.1460   -2.8950   -1.2050 C   0  0  0  0  0  0  0  0  0  0  0  0
   -5.0240   -4.3180   -2.2100 S   0  0  1  0  0  0  0  0  0  0  0  0
   -3.5980   -4.8290   -2.1540 O   0  0  0  0  0  0  0  0  0  0  0  0
   -5.9620   -5.3980   -1.7940 O   0  0  0  0  0  0  0  0  0  0  0  0
   -5.2910   -3.8410   -3.8110 O   0  0  0  0  0  0  0  0  0  0  0  0
   -6.3470   -2.5050   -0.6590 C   0  0  0  0  0  0  0  0  0  0  0  0
   -6.3990   -1.3710    0.1320 C   0  0  0  0  0  0  0  0  0  0  0  0
   -7.7030   -0.9540    0.7210 C   0  0  0  0  0  0  0  0  0  0  0  0
   -5.2860   -0.6140    0.3940 C   0  0  0  0  0  0  0  0  0  0  0  0
   -5.3550    0.5390    1.2100 N   0  0  0  0  0  0  0  0  0  0  0  0
   -5.2380    0.5620    2.6310 C   0  0  0  0  0  0  0  0  0  0  0  0
   -5.3640    2.0100    3.1090 C   0  0  0  0  0  0  0  0  0  0  0  0
   -4.0650    3.0160    2.3840 S   0  0  0  0  0  0  0  0  0  0  0  0
   -3.9970    4.3140    3.2130 O   0  0  0  0  0  0  0  0  0  0  0  0
    0.7610   -0.2900   -0.8200 C   0  0  0  0  0  0  0  0  0  0  0  0
    0.7550   -1.5180   -1.6710 C   0  0  0  0  0  0  0  0  0  0  0  0
    1.9460    0.4110   -0.6180 C   0  0  0  0  0  0  0  0  0  0  0  0
    4.8640    0.7340   -0.5800 N   0  0  0  0  0  0  0  0  0  0  0  0
    6.1250    0.3910   -0.8980 C   0  0  0  0  0  0  0  0  0  0  0  0
  1  2  1  0
  2  3  1  0
  3  4  1  0
  4  5  2  0
  4 35  1  0
  5  6  1  0
  6  7  2  0
  7  8  1  0
  7 34  1  0
  8  9  1  0
  9 10  2  0
  9 33  1  0
 10 11  1  0
 11 12  2  0
 12 13  1  0
 12 31  1  0
 13 14  1  0
 14 15  1  0
 15 16  2  0
 15 25  1  0
 16 17  1  0
 17 18  1  0
 17 22  2  0
 18 19  2  0
 18 20  2  0
 18 21  1  6
 22 23  1  0
 23 24  1  0
 23 25  2  0
 25 26  1  0
 26 27  1  0
 27 28  1  0
 28 29  1  0
 29 30  2  0
 31 32  1  0
 31 33  2  0
 34 35  2  0
M  CHG  1   2   1
M  END
