
     RDKit          3D

 35 38  0  0  0  0  0  0  0  0999 V2000
    3.1930    0.7640   -0.5470 C   0  0  0  0  0  0  0  0  0  0  0  0
    3.0650   -0.5390   -0.4250 C   0  0  0  0  0  0  0  0  0  0  0  0
    1.8290   -1.1910   -0.1840 C   0  0  0  0  0  0  0  0  0  0  0  0
    0.6910   -0.5490   -0.0760 C   0  0  0  0  0  0  0  0  0  0  0  0
   -0.6010   -1.0800    0.1620 C   0  0  0  0  0  0  0  0  0  0  0  0
   -1.6450   -0.2170    0.2350 C   0  0  0  0  0  0  0  0  0  0  0  0
   -1.5880    1.1770    0.0960 N   0  0  0  0  0  0  0  0  0  0  0  0
   -2.9270    1.6570    0.2540 C   0  0  0  0  0  0  0  0  0  0  0  0
   -3.7730    0.6870    0.4720 C   0  0  0  0  0  0  0  0  0  0  0  0
   -5.2180    1.0020    0.6610 C   0  0  0  0  0  0  0  0  0  0  0  0
   -6.1040    0.2120    0.2870 O   0  0  0  0  0  0  0  0  0  0  0  0
   -5.5860    2.2710    1.3040 C   0  0  0  0  0  0  0  0  0  0  0  0
   -4.3990    3.2200    1.3710 C   0  0  1  0  0  0  0  0  0  0  0  0
   -4.9790    4.6290    1.3240 C   0  0  0  0  0  0  0  0  0  0  0  0
   -3.6060    3.0650    2.6360 C   0  0  0  0  0  0  0  0  0  0  0  0
   -3.4890    3.0560    0.1990 C   0  0  0  0  0  0  0  0  0  0  0  0
   -3.0420   -0.5860    0.4730 C   0  0  1  0  0  0  0  0  0  0  0  0
   -3.4900   -1.3470   -0.7290 C   0  0  0  0  0  0  0  0  0  0  0  0
   -3.4450   -0.6860   -1.9870 N   0  0  0  0  0  0  0  0  0  0  0  0
   -3.9180   -2.5800   -0.6820 C   0  0  0  0  0  0  0  0  0  0  0  0
   -4.3440   -3.2680   -1.9100 C   0  0  0  0  0  0  0  0  0  0  0  0
    2.1120   -2.5310   -0.1040 C   0  0  0  0  0  0  0  0  0  0  0  0
    1.3000   -3.6300    0.1140 C   0  0  0  0  0  0  0  0  0  0  0  0
    1.8760   -4.8940    0.1420 C   0  0  0  0  0  0  0  0  0  0  0  0
    3.2180   -5.0780   -0.0400 C   0  0  0  0  0  0  0  0  0  0  0  0
    3.9860   -3.9340   -0.2560 C   0  0  0  0  0  0  0  0  0  0  0  0
    3.4660   -2.6730   -0.2910 C   0  0  0  0  0  0  0  0  0  0  0  0
    4.0460   -1.4420   -0.4890 N   0  0  0  0  0  0  0  0  0  0  0  0
    5.4460   -1.2880   -0.6950 C   0  0  0  0  0  0  0  0  0  0  0  0
    6.1550   -2.3680   -0.6170 O   0  0  0  0  0  0  0  0  0  0  0  0
    6.1950   -0.0560   -0.9890 C   0  0  0  0  0  0  0  0  0  0  0  0
    6.6250    0.6570    0.2830 C   0  0  0  0  0  0  0  0  0  0  0  0
    7.3740    1.8950   -0.0420 C   0  0  0  0  0  0  0  0  0  0  0  0
    7.8690    2.7150    0.9950 N   0  0  0  0  0  0  0  0  0  0  0  0
    7.5460    2.1800   -1.2530 O   0  0  0  0  0  0  0  0  0  0  0  0
  1  2  2  0
  2  3  1  0
  2 28  1  0
  3  4  2  3
  3 22  1  0
  4  5  1  0
  5  6  2  3
  6  7  1  0
  6 17  1  0
  7  8  1  0
  8  9  2  0
  8 16  1  0
  9 10  1  0
  9 17  1  0
 10 11  2  0
 10 12  1  0
 12 13  1  0
 13 14  1  1
 13 15  1  0
 13 16  1  0
 17 18  1  6
 18 19  1  0
 18 20  2  3
 20 21  1  0
 22 23  2  0
 22 27  1  0
 23 24  1  0
 24 25  2  0
 25 26  1  0
 26 27  2  0
 27 28  1  0
 28 29  1  0
 29 30  2  0
 29 31  1  0
 31 32  1  0
 32 33  1  0
 33 34  1  0
 33 35  2  0
M  END
