
     RDKit          3D

 35 36  0  0  0  0  0  0  0  0999 V2000
   11.1730   -1.7340    0.3270 N   0  0  0  0  0  0  0  0  0  0  0  0
   10.4280   -1.3610   -0.8470 C   0  0  0  0  0  0  0  0  0  0  0  0
    8.9640   -1.2540   -0.5670 C   0  0  0  0  0  0  0  0  0  0  0  0
    8.1110   -0.5730   -1.4030 C   0  0  0  0  0  0  0  0  0  0  0  0
    6.7390   -0.4970   -1.1070 C   0  0  0  0  0  0  0  0  0  0  0  0
    6.1800   -1.0760   -0.0020 C   0  0  0  0  0  0  0  0  0  0  0  0
    4.8170   -1.0100    0.3500 N   0  0  0  0  0  0  0  0  0  0  0  0
    3.8390   -0.1210   -0.1240 C   0  0  0  0  0  0  0  0  0  0  0  0
    4.1600    0.7510   -0.9610 O   0  0  0  0  0  0  0  0  0  0  0  0
    2.4350   -0.1830    0.3340 C   0  0  0  0  0  0  0  0  0  0  0  0
    1.5670    0.6790   -0.1350 C   0  0  0  0  0  0  0  0  0  0  0  0
    0.1620    0.7220    0.2340 C   0  0  0  0  0  0  0  0  0  0  0  0
   -0.4270   -0.1630    1.1100 C   0  0  0  0  0  0  0  0  0  0  0  0
   -1.7660   -0.0760    1.4250 C   0  0  0  0  0  0  0  0  0  0  0  0
   -2.6050    0.8940    0.8890 C   0  0  0  0  0  0  0  0  0  0  0  0
   -4.0420    0.9320    1.2630 C   0  0  0  0  0  0  0  0  0  0  0  0
   -4.9370    0.5150    0.2840 N   0  0  0  0  0  0  0  0  0  0  0  0
   -6.2710    0.4120    0.7050 C   0  0  0  0  0  0  0  0  0  0  0  0
   -7.0480    1.6570    0.9690 C   0  0  0  0  0  0  0  0  0  0  0  0
   -7.3480    2.5060   -0.1240 N   0  0  0  0  0  0  0  0  0  0  0  0
   -6.4450    3.1620   -0.9770 C   0  0  0  0  0  0  0  0  0  0  0  0
   -5.2230    3.0200   -0.7990 O   0  0  0  0  0  0  0  0  0  0  0  0
   -6.9060    3.9980   -2.0550 N   0  0  0  0  0  0  0  0  0  0  0  0
   -5.7680    4.7890   -3.0800 S   0  0  0  0  0  0  0  0  0  0  0  0
   -5.1490    6.0170   -2.4170 O   0  0  0  0  0  0  0  0  0  0  0  0
   -4.4750   -0.2080   -0.7920 C   0  0  0  0  0  0  0  0  0  0  0  0
   -4.0550   -1.5930   -0.5050 C   0  0  0  0  0  0  0  0  0  0  0  0
   -3.5780   -2.3120   -1.4630 O   0  0  0  0  0  0  0  0  0  0  0  0
   -4.1220   -2.2400    0.7480 N   0  0  0  0  0  0  0  0  0  0  0  0
   -3.6640   -3.6270    0.8880 C   0  0  0  0  0  0  0  0  0  0  0  0
   -4.6330   -4.6930   -0.2180 S   0  0  0  0  0  0  0  0  0  0  0  0
   -2.0210    1.7760    0.0180 C   0  0  0  0  0  0  0  0  0  0  0  0
   -0.6760    1.6910   -0.2990 C   0  0  0  0  0  0  0  0  0  0  0  0
    7.0680   -1.7680    0.8410 C   0  0  0  0  0  0  0  0  0  0  0  0
    8.4070   -1.8400    0.5480 C   0  0  0  0  0  0  0  0  0  0  0  0
  1  2  1  0
  2  3  1  0
  3  4  2  0
  3 35  1  0
  4  5  1  0
  5  6  2  0
  6  7  1  0
  6 34  1  0
  7  8  1  0
  8  9  2  0
  8 10  1  0
 10 11  2  3
 11 12  1  0
 12 13  2  0
 12 33  1  0
 13 14  1  0
 14 15  2  0
 15 16  1  0
 15 32  1  0
 16 17  1  0
 17 18  1  0
 17 26  1  0
 18 19  1  0
 19 20  1  0
 20 21  1  0
 21 22  2  0
 21 23  1  0
 23 24  1  0
 24 25  2  0
 26 27  1  0
 27 28  2  0
 27 29  1  0
 29 30  1  0
 30 31  1  0
 32 33  2  0
 34 35  2  0
M  CHG  1   1   1
M  END
