
     RDKit          3D

 35 38  0  0  0  0  0  0  0  0999 V2000
   -5.2770    4.4680    0.6810 C   0  0  0  0  0  0  0  0  0  0  0  0
   -4.5780    3.2330    0.3970 N   0  0  0  0  0  0  0  0  0  0  0  0
   -5.1700    1.9940    0.6970 C   0  0  0  0  0  0  0  0  0  0  0  0
   -6.4440    1.9610    1.2780 C   0  0  0  0  0  0  0  0  0  0  0  0
   -7.0580    0.7670    1.5860 C   0  0  0  0  0  0  0  0  0  0  0  0
   -6.3830   -0.4000    1.3070 C   0  0  0  0  0  0  0  0  0  0  0  0
   -5.1280   -0.3760    0.7350 C   0  0  0  0  0  0  0  0  0  0  0  0
   -4.4990    0.8150    0.4190 C   0  0  0  0  0  0  0  0  0  0  0  0
   -4.4910   -1.6860    0.4760 C   0  0  1  0  0  0  0  0  0  0  0  0
   -3.1170   -1.5410    0.0290 N   0  0  0  0  0  0  0  0  0  0  0  0
   -2.7290   -2.0210   -1.2370 C   0  0  0  0  0  0  0  0  0  0  0  0
   -3.6420   -2.5750   -1.9430 O   0  0  0  0  0  0  0  0  0  0  0  0
   -1.3870   -1.9350   -1.7930 C   0  0  0  0  0  0  0  0  0  0  0  0
   -1.1450   -2.3540   -3.0840 C   0  0  0  0  0  0  0  0  0  0  0  0
    0.0980   -2.2960   -3.6540 C   0  0  0  0  0  0  0  0  0  0  0  0
    1.1730   -1.8000   -2.9190 C   0  0  0  0  0  0  0  0  0  0  0  0
    2.4320   -1.7380   -3.4870 O   0  0  0  0  0  0  0  0  0  0  0  0
    2.5950   -2.1880   -4.8150 C   0  0  0  0  0  0  0  0  0  0  0  0
    0.9920   -1.3690   -1.6310 C   0  0  0  0  0  0  0  0  0  0  0  0
    2.0320   -0.8390   -0.7810 C   0  0  0  0  0  0  0  0  0  0  0  0
    1.6720   -0.4860    0.3980 O   0  0  0  0  0  0  0  0  0  0  0  0
    3.3880   -0.6550   -1.0640 N   0  0  0  0  0  0  0  0  0  0  0  0
    4.3880   -0.1330   -0.1980 C   0  0  0  0  0  0  0  0  0  0  0  0
    5.6250    0.1670   -0.7890 C   0  0  0  0  0  0  0  0  0  0  0  0
    6.6910    0.6650   -0.0810 C   0  0  0  0  0  0  0  0  0  0  0  0
    6.5650    0.8890    1.2760 C   0  0  0  0  0  0  0  0  0  0  0  0
    7.7150    1.4260    2.0400 C   0  0  0  0  0  0  0  0  0  0  0  0
    7.7290    2.8660    2.0860 N   0  0  0  0  0  0  0  0  0  0  0  0
    8.6940    3.3840    1.1130 C   0  0  0  0  0  0  0  0  0  0  0  0
    5.3680    0.5990    1.8490 C   0  0  0  0  0  0  0  0  0  0  0  0
    4.2790    0.0890    1.1240 C   0  0  0  0  0  0  0  0  0  0  0  0
   -0.3110   -1.4510   -1.0950 C   0  0  0  0  0  0  0  0  0  0  0  0
   -4.5760   -2.4950    1.7520 C   0  0  0  0  0  0  0  0  0  0  0  0
   -6.0020   -2.7240    2.1340 C   0  0  0  0  0  0  0  0  0  0  0  0
   -6.9770   -1.7270    1.6070 C   0  0  0  0  0  0  0  0  0  0  0  0
  1  2  1  0
  2  3  1  0
  3  4  2  0
  3  8  1  0
  4  5  1  0
  5  6  2  0
  6  7  1  0
  6 35  1  0
  7  8  2  0
  7  9  1  0
  9 10  1  1
  9 33  1  0
 10 11  1  0
 11 12  2  0
 11 13  1  0
 13 14  2  0
 13 32  1  0
 14 15  1  0
 15 16  2  0
 16 17  1  0
 16 19  1  0
 17 18  1  0
 19 20  1  0
 19 32  2  0
 20 21  2  0
 20 22  1  0
 22 23  1  0
 23 24  2  0
 23 31  1  0
 24 25  1  0
 25 26  2  0
 26 27  1  0
 26 30  1  0
 27 28  1  0
 28 29  1  0
 30 31  2  0
 33 34  1  0
 34 35  1  0
M  CHG  1  28   1
M  END
