
     RDKit          3D

 35 37  0  0  0  0  0  0  0  0999 V2000
   10.0710    0.9340    0.6760 C   0  0  0  0  0  0  0  0  0  0  0  0
    8.6970    0.3950    0.3290 C   0  0  1  0  0  0  0  0  0  0  0  0
    8.8360   -1.0760    0.0030 C   0  0  0  0  0  0  0  0  0  0  0  0
    7.7820    0.5170    1.4430 N   0  0  0  0  0  0  0  0  0  0  0  0
    6.9180    1.6740    1.2940 C   0  0  0  0  0  0  0  0  0  0  0  0
    5.4630    1.3110    1.4640 C   0  0  0  0  0  0  0  0  0  0  0  0
    5.0400    0.3320    0.4890 N   0  0  0  0  0  0  0  0  0  0  0  0
    3.6780   -0.1630    0.4720 C   0  0  0  0  0  0  0  0  0  0  0  0
    2.9440    0.3240    1.3510 O   0  0  0  0  0  0  0  0  0  0  0  0
    3.2510   -1.1590   -0.5210 C   0  0  0  0  0  0  0  0  0  0  0  0
    1.7810   -1.4150   -0.4170 C   0  0  0  0  0  0  0  0  0  0  0  0
    1.0070   -0.1750   -0.7350 C   0  0  0  0  0  0  0  0  0  0  0  0
   -0.4730   -0.5130   -0.6150 C   0  0  0  0  0  0  0  0  0  0  0  0
   -1.1590   -0.2390    0.4770 N   0  0  0  0  0  0  0  0  0  0  0  0
   -2.2640   -0.4530    0.7200 C   0  0  0  0  0  0  0  0  0  0  0  0
   -3.3280   -0.2930    1.8100 C   0  0  0  0  0  0  0  0  0  0  0  0
   -4.5960   -0.8060    1.3920 N   0  0  0  0  0  0  0  0  0  0  0  0
   -5.3270   -0.3280    0.2810 C   0  0  0  0  0  0  0  0  0  0  0  0
   -4.8450    0.6080   -0.3890 O   0  0  0  0  0  0  0  0  0  0  0  0
   -6.6600   -0.9060   -0.1200 C   0  0  1  0  0  0  0  0  0  0  0  0
   -7.6840   -0.6290    0.9400 C   0  0  0  0  0  0  0  0  0  0  0  0
   -8.6460    0.2590    0.2640 C   0  0  0  0  0  0  0  0  0  0  0  0
   -9.8390    0.8400    0.8950 C   0  0  0  0  0  0  0  0  0  0  0  0
  -10.7380    1.6380    0.3470 C   0  0  0  0  0  0  0  0  0  0  0  0
  -11.7380    1.9590    1.3500 C   0  0  0  0  0  0  0  0  0  0  0  0
  -11.2140    1.5080    2.4800 C   0  0  0  0  0  0  0  0  0  0  0  0
  -10.2610    0.6310    2.2970 C   0  0  0  0  0  0  0  0  0  0  0  0
   -8.2890    0.4460   -0.9480 N   0  0  0  0  0  0  0  0  0  0  0  0
   -7.1420   -0.2240   -1.2440 O   0  0  0  0  0  0  0  0  0  0  0  0
   -2.7930   -1.2970   -0.8780 S   0  0  0  0  0  0  0  0  0  0  0  0
   -1.1620   -1.1380   -1.6030 C   0  0  0  0  0  0  0  0  0  0  0  0
   -0.8200   -1.6030   -2.9700 C   0  0  0  0  0  0  0  0  0  0  0  0
   -0.7730   -0.4570   -3.8790 C   0  0  0  0  0  0  0  0  0  0  0  0
   -0.4690   -0.6500   -5.2460 N   0  0  0  0  0  0  0  0  0  0  0  0
   -1.0000    0.6940   -3.4540 O   0  0  0  0  0  0  0  0  0  0  0  0
  2  1  1  1
  2  3  1  0
  2  4  1  0
  4  5  1  0
  5  6  1  0
  6  7  1  0
  7  8  1  0
  8  9  2  0
  8 10  1  0
 10 11  1  0
 11 12  1  0
 12 13  1  0
 13 14  1  0
 13 31  2  0
 14 15  2  0
 15 16  1  0
 15 30  1  0
 16 17  1  0
 17 18  1  0
 18 19  2  0
 20 18  1  1
 20 21  1  0
 20 29  1  0
 21 22  1  0
 22 23  1  0
 22 28  2  0
 23 24  2  0
 23 27  1  0
 24 25  1  0
 25 26  2  0
 26 27  2  0
 28 29  1  0
 30 31  1  0
 31 32  1  0
 32 33  1  0
 33 34  1  0
 33 35  2  0
M  CHG  1   4   1
M  END
