
     RDKit          3D

 36 39  0  0  0  0  0  0  0  0999 V2000
   -5.6880    3.2430   -1.5350 C   0  0  0  0  0  0  0  0  0  0  0  0
   -4.8350    2.0470   -1.8800 C   0  0  0  0  0  0  0  0  0  0  0  0
   -3.5130    2.5270   -2.2250 N   0  0  0  0  0  0  0  0  0  0  0  0
   -3.5320    3.2720   -3.4480 C   0  0  0  0  0  0  0  0  0  0  0  0
   -2.8190    3.1250   -1.1370 C   0  0  0  0  0  0  0  0  0  0  0  0
   -2.4260    2.2070   -0.0480 C   0  0  2  0  0  0  0  0  0  0  0  0
   -1.6820    2.8780    1.0810 C   0  0  0  0  0  0  0  0  0  0  0  0
   -1.4920    1.8820    2.1120 N   0  0  0  0  0  0  0  0  0  0  0  0
   -1.9570    2.0990    3.4370 C   0  0  0  0  0  0  0  0  0  0  0  0
   -1.7500    1.0730    4.4860 C   0  0  0  0  0  0  0  0  0  0  0  0
   -2.5620    3.1810    3.7480 O   0  0  0  0  0  0  0  0  0  0  0  0
   -0.8210    0.6460    1.7920 C   0  0  0  0  0  0  0  0  0  0  0  0
   -1.4450    0.0120    0.5360 C   0  0  0  0  0  0  0  0  0  0  0  0
   -1.5100    1.0530   -0.5070 C   0  0  0  0  0  0  0  0  0  0  0  0
   -0.9570    1.1440   -1.6600 C   0  0  0  0  0  0  0  0  0  0  0  0
   -0.0730    0.2850   -2.3850 C   0  0  0  0  0  0  0  0  0  0  0  0
    0.2920    0.7110   -3.5910 O   0  0  0  0  0  0  0  0  0  0  0  0
    0.5030   -0.9520   -2.0760 N   0  0  0  0  0  0  0  0  0  0  0  0
    1.3660   -1.7250   -2.9410 C   0  0  0  0  0  0  0  0  0  0  0  0
    1.2360   -1.6800   -4.3290 C   0  0  0  0  0  0  0  0  0  0  0  0
    1.9210   -2.5830   -5.1420 C   0  0  0  0  0  0  0  0  0  0  0  0
    2.7330   -3.5320   -4.5860 C   0  0  0  0  0  0  0  0  0  0  0  0
    2.8540   -3.5640   -3.2150 C   0  0  0  0  0  0  0  0  0  0  0  0
    2.1770   -2.6600   -2.3710 C   0  0  0  0  0  0  0  0  0  0  0  0
    2.5580   -2.6910   -0.9760 C   0  0  0  0  0  0  0  0  0  0  0  0
    2.4880   -1.6870   -0.1330 C   0  0  0  0  0  0  0  0  0  0  0  0
    2.8450   -1.7020    1.2690 C   0  0  0  0  0  0  0  0  0  0  0  0
    3.2940   -2.7590    1.9240 C   0  0  0  0  0  0  0  0  0  0  0  0
    3.6280   -2.6150    3.3830 C   0  0  0  0  0  0  0  0  0  0  0  0
    4.2500   -1.3860    3.7310 N   0  0  0  0  0  0  0  0  0  0  0  0
    4.0800   -0.3240    2.7890 C   0  0  0  0  0  0  0  0  0  0  0  0
    2.7350   -0.4430    2.1030 C   0  0  0  0  0  0  0  0  0  0  0  0
    3.4240   -4.0270    1.3350 N   0  0  0  0  0  0  0  0  0  0  0  0
    3.2750   -4.1940   -0.3620 S   0  0  1  0  0  0  0  0  0  0  0  0
    2.3180   -5.2890   -0.6620 O   0  0  0  0  0  0  0  0  0  0  0  0
    4.6410   -4.4260   -0.9820 O   0  0  0  0  0  0  0  0  0  0  0  0
  1  2  1  0
  2  3  1  0
  3  4  1  0
  3  5  1  0
  6  5  1  6
  6  7  1  0
  6 14  1  0
  7  8  1  0
  8  9  1  0
  8 12  1  0
  9 10  1  0
  9 11  2  0
 12 13  1  0
 13 14  1  0
 14 15  2  3
 15 16  1  0
 16 17  2  0
 16 18  1  0
 18 19  1  0
 19 20  2  0
 19 24  1  0
 20 21  1  0
 21 22  2  0
 22 23  1  0
 23 24  2  0
 24 25  1  0
 25 26  2  0
 25 34  1  0
 26 27  1  0
 27 28  2  0
 27 32  1  0
 28 29  1  0
 28 33  1  0
 29 30  1  0
 30 31  1  0
 31 32  1  0
 34 33  1  1
 34 35  2  0
 34 36  2  0
M  CHG  1  30   1
M  END
