
     RDKit          3D

 35 38  0  0  0  0  0  0  0  0999 V2000
   -1.0610    4.1920    0.1870 C   0  0  0  0  0  0  0  0  0  0  0  0
   -1.8360    2.9160    0.5250 C   0  0  0  0  0  0  0  0  0  0  0  0
   -0.9600    1.7430    0.3130 N   0  0  0  0  0  0  0  0  0  0  0  0
   -0.0900    1.1930    1.2920 C   0  0  0  0  0  0  0  0  0  0  0  0
    0.0270    1.6130    2.4700 O   0  0  0  0  0  0  0  0  0  0  0  0
    0.6330    0.0800    0.7060 C   0  0  2  0  0  0  0  0  0  0  0  0
    2.0640    0.4040    0.7160 N   0  0  0  0  0  0  0  0  0  0  0  0
    3.0650   -0.6420    0.8580 C   0  0  0  0  0  0  0  0  0  0  0  0
    2.5930   -1.7860    0.9530 O   0  0  0  0  0  0  0  0  0  0  0  0
    4.4450   -0.2960    0.8770 N   0  0  0  0  0  0  0  0  0  0  0  0
    5.4580   -1.2530    0.9690 C   0  0  0  0  0  0  0  0  0  0  0  0
    5.2650   -2.6100    0.8090 C   0  0  0  0  0  0  0  0  0  0  0  0
    6.2700   -3.5570    0.8500 C   0  0  0  0  0  0  0  0  0  0  0  0
    7.5410   -3.1170    1.0660 C   0  0  0  0  0  0  0  0  0  0  0  0
    7.7770   -1.7590    1.2310 C   0  0  0  0  0  0  0  0  0  0  0  0
    9.1030   -1.3600    1.4530 C   0  0  0  0  0  0  0  0  0  0  0  0
    9.3760   -0.0560    1.6240 N   0  0  0  0  0  0  0  0  0  0  0  0
    8.4170    0.8810    1.5910 C   0  0  0  0  0  0  0  0  0  0  0  0
    7.0950    0.5080    1.3730 C   0  0  0  0  0  0  0  0  0  0  0  0
    6.7730   -0.8160    1.1900 C   0  0  0  0  0  0  0  0  0  0  0  0
    0.1130    0.0300   -0.6780 C   0  0  0  0  0  0  0  0  0  0  0  0
    0.5760   -0.9610   -1.6730 C   0  0  0  0  0  0  0  0  0  0  0  0
   -0.8140    1.0040   -0.8830 C   0  0  0  0  0  0  0  0  0  0  0  0
   -1.4610    1.2120   -2.2040 C   0  0  0  0  0  0  0  0  0  0  0  0
   -2.7490    0.5480   -2.4690 C   0  0  0  0  0  0  0  0  0  0  0  0
   -3.9320    0.8380   -1.7630 N   0  0  0  0  0  0  0  0  0  0  0  0
   -4.1570    0.3270   -0.4660 C   0  0  1  0  0  0  0  0  0  0  0  0
   -5.0350    1.2420    0.3790 C   0  0  0  0  0  0  0  0  0  0  0  0
   -6.4700    0.9950   -0.0170 C   0  0  0  0  0  0  0  0  0  0  0  0
   -6.4890   -0.7340   -0.3020 S   0  0  1  0  0  0  0  0  0  0  0  0
   -7.1230   -1.5090    0.8070 O   0  0  0  0  0  0  0  0  0  0  0  0
   -7.1020   -1.0380   -1.6310 O   0  0  0  0  0  0  0  0  0  0  0  0
   -4.7150   -1.0430   -0.3290 C   0  0  2  0  0  0  0  0  0  0  0  0
   -4.3530   -1.6400    1.0240 C   0  0  0  0  0  0  0  0  0  0  0  0
   -4.4840   -2.0020   -1.4430 C   0  0  0  0  0  0  0  0  0  0  0  0
  1  2  1  0
  2  3  1  0
  3  4  1  0
  3 23  1  0
  4  5  2  0
  4  6  1  0
  6  7  1  6
  6 21  1  0
  7  8  1  0
  8  9  2  0
  8 10  1  0
 10 11  1  0
 11 12  2  0
 11 20  1  0
 12 13  1  0
 13 14  2  0
 14 15  1  0
 15 16  2  0
 15 20  1  0
 16 17  1  0
 17 18  2  0
 18 19  1  0
 19 20  2  0
 21 22  1  0
 21 23  2  0
 23 24  1  0
 24 25  1  0
 25 26  1  0
 27 26  1  6
 27 28  1  0
 27 33  1  0
 28 29  1  0
 30 29  1  1
 30 31  2  0
 30 32  2  0
 30 33  1  0
 33 34  1  1
 33 35  1  0
M  CHG  1  26   1
M  END
