
     RDKit          3D

 36 39  0  0  0  0  0  0  0  0999 V2000
    6.2990    0.6190   -1.6680 C   0  0  0  0  0  0  0  0  0  0  0  0
    5.1400    1.4990   -1.3440 C   0  0  0  0  0  0  0  0  0  0  0  0
    5.4260    2.7800   -0.9030 C   0  0  0  0  0  0  0  0  0  0  0  0
    4.4000    3.6190   -0.5970 C   0  0  0  0  0  0  0  0  0  0  0  0
    3.1070    3.1830   -0.7310 C   0  0  0  0  0  0  0  0  0  0  0  0
    2.8210    1.8950   -1.1750 C   0  0  0  0  0  0  0  0  0  0  0  0
    3.8470    1.0500   -1.4820 C   0  0  0  0  0  0  0  0  0  0  0  0
    3.5970   -0.3060   -1.9840 C   0  0  0  0  0  0  0  0  0  0  0  0
    1.8820   -0.8050   -2.0570 S   0  0  0  0  0  0  0  0  0  0  0  0
    1.1580   -1.1020   -0.4440 C   0  0  0  0  0  0  0  0  0  0  0  0
    0.5520   -0.1610    0.2870 N   0  0  0  0  0  0  0  0  0  0  0  0
    0.0290   -0.4760    1.4980 C   0  0  0  0  0  0  0  0  0  0  0  0
    0.1240   -1.7770    1.9790 C   0  0  0  0  0  0  0  0  0  0  0  0
   -0.4070   -2.0870    3.2040 C   0  0  0  0  0  0  0  0  0  0  0  0
   -0.3100   -3.4650    3.7210 C   0  0  0  0  0  0  0  0  0  0  0  0
   -1.0170   -1.0590    3.8990 C   0  0  0  0  0  0  0  0  0  0  0  0
   -1.0960    0.2170    3.3990 C   0  0  0  0  0  0  0  0  0  0  0  0
   -1.6600    1.1600    4.0470 O   0  0  0  0  0  0  0  0  0  0  0  0
   -0.5710    0.5020    2.2000 N   0  0  0  0  0  0  0  0  0  0  0  0
   -0.6340    1.8440    1.6380 C   0  0  0  0  0  0  0  0  0  0  0  0
   -1.8820    2.0380    0.8180 C   0  0  0  0  0  0  0  0  0  0  0  0
   -2.0310    3.1410    0.2900 O   0  0  0  0  0  0  0  0  0  0  0  0
   -2.8380    1.0220    0.6520 N   0  0  0  0  0  0  0  0  0  0  0  0
   -4.0400    1.0910   -0.0940 C   0  0  0  0  0  0  0  0  0  0  0  0
   -4.8890   -0.0090   -0.0360 C   0  0  0  0  0  0  0  0  0  0  0  0
   -6.0710   -0.0460   -0.7230 C   0  0  0  0  0  0  0  0  0  0  0  0
   -6.4290    1.0360   -1.4920 C   0  0  0  0  0  0  0  0  0  0  0  0
   -5.6360    2.1550   -1.5930 C   0  0  0  0  0  0  0  0  0  0  0  0
   -6.0020    3.2710   -2.3830 N   0  0  0  0  0  0  0  0  0  0  0  0
   -4.4380    2.1450   -0.8730 C   0  0  0  0  0  0  0  0  0  0  0  0
    0.7510   -2.7460    1.2200 C   0  0  0  0  0  0  0  0  0  0  0  0
    0.8340   -3.9030    1.6500 O   0  0  0  0  0  0  0  0  0  0  0  0
    1.2520   -2.3810    0.0260 N   0  0  0  0  0  0  0  0  0  0  0  0
    1.9160   -3.3800   -0.8050 C   0  0  0  0  0  0  0  0  0  0  0  0
    0.8650   -4.0350   -1.7090 C   0  0  0  0  0  0  0  0  0  0  0  0
    1.4310   -4.9930   -2.5230 O   0  0  0  0  0  0  0  0  0  0  0  0
  1  2  1  0
  2  3  2  0
  2  7  1  0
  3  4  1  0
  4  5  2  0
  5  6  1  0
  6  7  2  0
  7  8  1  0
  8  9  1  0
  9 10  1  0
 10 11  2  0
 10 33  1  0
 11 12  1  0
 12 13  2  0
 12 19  1  0
 13 14  1  0
 13 31  1  0
 14 15  1  0
 14 16  2  0
 16 17  1  0
 17 18  2  0
 17 19  1  0
 19 20  1  0
 20 21  1  0
 21 22  2  0
 21 23  1  0
 23 24  1  0
 24 25  2  0
 24 30  1  0
 25 26  1  0
 26 27  2  0
 27 28  1  0
 28 29  1  0
 28 30  2  0
 31 32  2  0
 31 33  1  0
 33 34  1  0
 34 35  1  0
 35 36  1  0
M  CHG  1  29   1
M  END
