
     RDKit          3D

 14 14  0  0  0  0  0  0  0  0999 V2000
    3.2850   -2.1880   -1.3250 C   0  0  0  0  0  0  0  0  0  0  0  0
    3.3900   -1.4020   -0.1470 C   0  0  0  0  0  0  0  0  0  0  0  0
    1.8730   -1.5030    0.3770 C   0  0  0  0  0  0  0  0  0  0  0  0
    0.5310   -1.6080    0.8390 C   0  0  0  0  0  0  0  0  0  0  0  0
   -0.8100   -1.7170    1.2840 C   0  0  0  0  0  0  0  0  0  0  0  0
   -1.5200   -1.0310    0.0110 C   0  0  0  0  0  0  0  0  0  0  0  0
   -0.9000    0.2390   -0.0890 O   0  0  0  0  0  0  0  0  0  0  0  0
   -1.8000    1.0210   -0.8540 C   0  0  2  0  0  0  0  0  0  0  0  0
   -1.4770    2.3400   -1.3330 C   0  0  0  0  0  0  0  0  0  0  0  0
   -1.5520    3.2300   -0.0710 C   0  0  0  0  0  0  0  0  0  0  0  0
   -2.2520    2.5370    0.8650 O   0  0  0  0  0  0  0  0  0  0  0  0
   -2.8090    1.4240    0.3450 C   0  0  0  0  0  0  0  0  0  0  0  0
    4.0520   -0.6510    0.6150 C   0  0  0  0  0  0  0  0  0  0  0  0
    3.1910   -0.0570    2.1880 S   0  0  0  0  0  0  0  0  0  0  0  0
  1  2  1  0
  2  3  1  0
  2 13  2  3
  3  4  3  0
  4  5  1  0
  5  6  1  0
  6  7  1  0
  8  7  1  1
  8  9  1  0
  8 12  1  0
  9 10  1  0
 10 11  1  0
 11 12  1  0
 13 14  1  0
M  END
