
     RDKit          3D

 14 14  0  0  0  0  0  0  0  0999 V2000
    4.8860   -0.3540    0.6310 C   0  0  0  0  0  0  0  0  0  0  0  0
    3.8270   -0.6930   -0.3300 C   0  0  0  0  0  0  0  0  0  0  0  0
    2.7140    0.0810   -0.4350 C   0  0  0  0  0  0  0  0  0  0  0  0
    2.6040    1.2620    0.4400 C   0  0  0  0  0  0  0  0  0  0  0  0
    1.6800   -0.2730   -1.4210 C   0  0  0  0  0  0  0  0  0  0  0  0
    0.4140   -0.5540   -0.9790 O   0  0  0  0  0  0  0  0  0  0  0  0
   -0.5430    0.2000   -0.3670 C   0  0  0  0  0  0  0  0  0  0  0  0
   -0.2630    1.4030   -0.1480 O   0  0  0  0  0  0  0  0  0  0  0  0
   -1.8720   -0.3670    0.0330 C   0  0  1  0  0  0  0  0  0  0  0  0
   -1.7460   -1.4950    1.0010 C   0  0  0  0  0  0  0  0  0  0  0  0
   -2.7340    0.7340    0.5810 C   0  0  0  0  0  0  0  0  0  0  0  0
   -4.1780    0.3180    0.3520 C   0  0  0  0  0  0  0  0  0  0  0  0
   -4.2750    0.2520   -1.1790 C   0  0  0  0  0  0  0  0  0  0  0  0
   -2.8290   -0.8500   -1.4590 S   0  0  0  0  0  0  0  0  0  0  0  0
  1  2  1  0
  2  3  2  3
  3  4  1  0
  3  5  1  0
  5  6  1  0
  6  7  1  0
  7  8  2  0
  7  9  1  0
  9 10  1  1
  9 11  1  0
  9 14  1  0
 11 12  1  0
 12 13  1  0
 13 14  1  0
M  END
