
     RDKit          3D

 14 14  0  0  0  0  0  0  0  0999 V2000
   -3.0730   -1.4400    0.4690 C   0  0  0  0  0  0  0  0  0  0  0  0
   -1.9050   -1.2810   -0.1030 C   0  0  0  0  0  0  0  0  0  0  0  0
   -1.0590   -2.8060   -0.6250 S   0  0  0  0  0  0  0  0  0  0  0  0
    0.7240   -2.3660   -0.4540 C   0  0  0  0  0  0  0  0  0  0  0  0
    1.0060   -1.5580    0.7500 C   0  0  0  0  0  0  0  0  0  0  0  0
    1.0610   -0.0680    0.5990 C   0  0  1  0  0  0  0  0  0  0  0  0
    2.4100    0.3750    0.0780 C   0  0  0  0  0  0  0  0  0  0  0  0
    2.5330    1.8510   -0.0870 C   0  0  0  0  0  0  0  0  0  0  0  0
   -0.0430    0.4890   -0.2190 C   0  0  0  0  0  0  0  0  0  0  0  0
    0.3020    1.4010   -1.0230 O   0  0  0  0  0  0  0  0  0  0  0  0
   -1.4570    0.1310   -0.2270 C   0  0  0  0  0  0  0  0  0  0  0  0
   -2.3890    1.0390   -0.3960 C   0  0  0  0  0  0  0  0  0  0  0  0
   -2.2780    2.4570   -0.5350 C   0  0  0  0  0  0  0  0  0  0  0  0
   -1.2210    3.0840   -0.4960 O   0  0  0  0  0  0  0  0  0  0  0  0
  1  2  2  0
  2  3  1  0
  2 11  1  0
  3  4  1  0
  4  5  1  0
  5  6  1  0
  6  7  1  6
  6  9  1  0
  7  8  1  0
  9 10  2  0
  9 11  1  0
 11 12  2  3
 12 13  1  0
 13 14  2  0
M  END
