
     RDKit          3D

 22 23  0  0  0  0  0  0  0  0999 V2000
   -4.5500    1.6360   -0.5020 O   0  0  0  0  0  0  0  0  0  0  0  0
   -3.5910    1.8150    0.4730 C   0  0  0  0  0  0  0  0  0  0  0  0
   -2.2840    1.2380    0.0530 C   0  0  2  0  0  0  0  0  0  0  0  0
   -1.8810    1.8770   -1.1230 O   0  0  0  0  0  0  0  0  0  0  0  0
   -2.2680   -0.2620   -0.0980 C   0  0  1  0  0  0  0  0  0  0  0  0
   -2.8410   -0.9310    1.1270 C   0  0  0  0  0  0  0  0  0  0  0  0
   -2.9000   -2.3040    0.8920 O   0  0  0  0  0  0  0  0  0  0  0  0
   -3.1350   -0.7280   -1.2780 C   0  0  0  0  0  0  0  0  0  0  0  0
   -2.9930   -2.1390   -1.2670 O   0  0  0  0  0  0  0  0  0  0  0  0
   -0.9980   -0.7180   -0.4020 O   0  0  0  0  0  0  0  0  0  0  0  0
   -0.0240   -0.4780    0.5150 C   0  0  1  0  0  0  0  0  0  0  0  0
    0.5490   -1.6770    0.9380 O   0  0  0  0  0  0  0  0  0  0  0  0
    1.7150   -1.3610    1.6740 C   0  0  0  0  0  0  0  0  0  0  0  0
    2.7430   -0.9470    0.6490 C   0  0  2  0  0  0  0  0  0  0  0  0
    3.5950   -1.9580    0.2830 O   0  0  0  0  0  0  0  0  0  0  0  0
    3.4550    0.3300    1.0460 C   0  0  0  0  0  0  0  0  0  0  0  0
    4.1500    0.6440   -0.2780 C   0  0  2  0  0  0  0  0  0  0  0  0
    4.7090    1.8910   -0.3070 O   0  0  0  0  0  0  0  0  0  0  0  0
    2.9950    0.4740   -1.2490 C   0  0  2  0  0  0  0  0  0  0  0  0
    2.4510    1.7280   -1.5350 O   0  0  0  0  0  0  0  0  0  0  0  0
    2.0080   -0.4450   -0.6030 C   0  0  2  0  0  0  0  0  0  0  0  0
    0.9490    0.3260   -0.1250 O   0  0  0  0  0  0  0  0  0  0  0  0
  1  2  1  0
  2  3  1  0
  3  4  1  6
  3  5  1  0
  5  6  1  1
  5  8  1  0
  5 10  1  0
  6  7  1  0
  8  9  1  0
 11 10  1  6
 11 12  1  0
 11 22  1  0
 12 13  1  0
 13 14  1  0
 14 15  1  6
 14 16  1  0
 14 21  1  0
 16 17  1  0
 17 18  1  1
 17 19  1  0
 19 20  1  1
 19 21  1  0
 21 22  1  1
M  END
