
     RDKit          3D

 14 14  0  0  0  0  0  0  0  0999 V2000
    1.3650    3.3290    0.4290 C   0  0  0  0  0  0  0  0  0  0  0  0
    0.2860    2.4180   -0.0190 C   0  0  0  0  0  0  0  0  0  0  0  0
    0.4580    1.1040    0.0270 C   0  0  0  0  0  0  0  0  0  0  0  0
    1.6740    0.3990    0.5030 C   0  0  0  0  0  0  0  0  0  0  0  0
    1.2450   -1.0390    0.6130 C   0  0  2  0  0  0  0  0  0  0  0  0
    0.6650   -1.3260    1.8410 O   0  0  0  0  0  0  0  0  0  0  0  0
    2.3750   -2.0060    0.3700 C   0  0  0  0  0  0  0  0  0  0  0  0
    3.0800   -1.8020   -1.2830 S   0  0  0  0  0  0  0  0  0  0  0  0
    0.1840   -1.1570   -0.4220 C   0  0  0  0  0  0  0  0  0  0  0  0
   -0.0650   -2.1400   -1.1920 O   0  0  0  0  0  0  0  0  0  0  0  0
   -0.5480    0.1050   -0.3920 C   0  0  0  0  0  0  0  0  0  0  0  0
   -1.8190    0.3330   -0.6740 C   0  0  0  0  0  0  0  0  0  0  0  0
   -2.8000   -0.6840   -1.0900 C   0  0  0  0  0  0  0  0  0  0  0  0
   -3.9710   -0.7610   -0.1250 C   0  0  0  0  0  0  0  0  0  0  0  0
  1  2  1  0
  2  3  2  3
  3  4  1  0
  3 11  1  0
  4  5  1  0
  5  6  1  1
  5  7  1  0
  5  9  1  0
  7  8  1  0
  9 10  2  0
  9 11  1  0
 11 12  2  3
 12 13  1  0
 13 14  1  0
M  END
