
     RDKit          3D

 10  9  0  0  0  0  0  0  0  0999 V2000
    2.5910    1.0780   -0.3490 C   0  0  0  0  0  0  0  0  0  0  0  0
    2.6020   -0.2380    0.4260 C   0  0  0  0  0  0  0  0  0  0  0  0
    2.1050   -1.1740   -0.4880 O   0  0  0  0  0  0  0  0  0  0  0  0
    0.3790   -1.0340   -0.5790 P   0  0  0  0  0  0  0  0  0  0  0  0
   -0.2730   -2.6360   -0.7110 O   0  0  0  0  0  0  0  0  0  0  0  0
   -0.3430   -0.0820    0.5880 O   0  0  0  0  0  0  0  0  0  0  0  0
   -1.5230    0.5810    0.2970 C   0  0  2  0  0  0  0  0  0  0  0  0
   -2.3290    0.6480    1.3660 O   0  0  0  0  0  0  0  0  0  0  0  0
   -2.2580   -0.0650   -0.8670 C   0  0  0  0  0  0  0  0  0  0  0  0
   -3.6520    0.0720   -0.6860 O   0  0  0  0  0  0  0  0  0  0  0  0
  1  2  1  0
  2  3  1  0
  3  4  1  0
  4  5  1  0
  4  6  1  0
  6  7  1  0
  7  8  1  1
  7  9  1  0
  9 10  1  0
M  END
