
     RDKit          3D

  9  8  0  0  0  0  0  0  0  0999 V2000
   -2.1530    1.5240    0.0240 O   0  0  0  0  0  0  0  0  0  0  0  0
   -1.7380    0.3990    0.7260 C   0  0  0  0  0  0  0  0  0  0  0  0
   -0.5050   -0.2210    0.1370 C   0  0  1  0  0  0  0  0  0  0  0  0
   -0.6960   -0.6670   -1.2880 C   0  0  0  0  0  0  0  0  0  0  0  0
   -1.6800   -1.6020   -1.4490 O   0  0  0  0  0  0  0  0  0  0  0  0
    0.6950    0.6940    0.2310 C   0  0  0  0  0  0  0  0  0  0  0  0
    2.1700   -0.1400   -0.5140 P   0  0  0  0  0  0  0  0  0  0  0  0
    3.6110    0.4730    0.1900 O   0  0  0  0  0  0  0  0  0  0  0  0
    2.1120   -1.8510   -0.3690 O   0  0  0  0  0  0  0  0  0  0  0  0
  1  2  1  0
  3  2  1  6
  3  4  1  0
  3  6  1  0
  4  5  1  0
  6  7  1  0
  7  8  1  0
  7  9  1  0
M  END
