
     RDKit          3D

  9  8  0  0  0  0  0  0  0  0999 V2000
    3.4120   -0.4230    0.4090 O   0  0  0  0  0  0  0  0  0  0  0  0
    2.6860    0.4310   -0.1270 C   0  0  0  0  0  0  0  0  0  0  0  0
    3.2440    1.6390   -0.5050 O   0  0  0  0  0  0  0  0  0  0  0  0
    1.3560    0.1560   -0.3310 O   0  0  0  0  0  0  0  0  0  0  0  0
    0.7630   -1.0880    0.0540 C   0  0  0  0  0  0  0  0  0  0  0  0
   -0.7190   -1.0750   -0.3080 C   0  0  0  0  0  0  0  0  0  0  0  0
   -1.2620    0.0100    0.4160 O   0  0  0  0  0  0  0  0  0  0  0  0
   -2.9680    0.1660    0.1110 P   0  0  0  0  0  0  0  0  0  0  0  0
   -3.1820    1.5360   -0.9270 O   0  0  0  0  0  0  0  0  0  0  0  0
  1  2  2  0
  2  3  1  0
  2  4  1  0
  4  5  1  0
  5  6  1  0
  6  7  1  0
  7  8  1  0
  8  9  1  0
M  END
