
     RDKit          3D

 24 25  0  0  0  0  0  0  0  0999 V2000
   -6.7720    2.4540   -1.9030 O   0  0  0  0  0  0  0  0  0  0  0  0
   -6.3140    1.7520   -0.9670 C   0  0  0  0  0  0  0  0  0  0  0  0
   -7.1000    0.7890   -0.2780 N   0  0  0  0  0  0  0  0  0  0  0  0
   -6.3440    0.2650    0.5950 N   0  0  0  0  0  0  0  0  0  0  0  0
   -5.0360    0.8210    0.5570 C   0  0  0  0  0  0  0  0  0  0  0  0
   -3.9110    0.4980    1.3740 N   0  0  0  0  0  0  0  0  0  0  0  0
   -2.5790    0.7410    0.9780 C   0  0  0  0  0  0  0  0  0  0  0  0
   -1.8670   -0.2750    0.4570 C   0  0  0  0  0  0  0  0  0  0  0  0
   -2.4050   -1.4620    0.3230 O   0  0  0  0  0  0  0  0  0  0  0  0
   -1.7620   -2.4600   -0.1680 O   0  0  0  0  0  0  0  0  0  0  0  0
   -0.5280   -2.4030   -0.5800 C   0  0  0  0  0  0  0  0  0  0  0  0
    0.0710   -3.4030   -1.0570 O   0  0  0  0  0  0  0  0  0  0  0  0
    0.1240   -1.1700   -0.4740 C   0  0  0  0  0  0  0  0  0  0  0  0
    1.3830   -1.0860   -0.8880 C   0  0  0  0  0  0  0  0  0  0  0  0
    2.1150    0.1860   -0.7990 C   0  0  0  0  0  0  0  0  0  0  0  0
    3.4850   -0.0610   -1.3430 C   0  0  0  0  0  0  0  0  0  0  0  0
    3.6270   -0.4850   -2.6350 O   0  0  0  0  0  0  0  0  0  0  0  0
    4.5170    0.1220   -0.6080 N   0  0  0  0  0  0  0  0  0  0  0  0
    4.4880    0.5640    0.7570 C   0  0  0  0  0  0  0  0  0  0  0  0
    5.7890    0.9120    1.1270 O   0  0  0  0  0  0  0  0  0  0  0  0
    6.5820   -0.1320    1.0090 O   0  0  0  0  0  0  0  0  0  0  0  0
   -0.5710   -0.1060    0.0530 C   0  0  0  0  0  0  0  0  0  0  0  0
   -0.0470    1.0240    0.1760 O   0  0  0  0  0  0  0  0  0  0  0  0
   -5.0230    1.7100   -0.3780 N   0  0  0  0  0  0  0  0  0  0  0  0
  1  2  2  0
  2  3  1  0
  2 24  1  0
  3  4  2  0
  4  5  1  0
  5  6  1  0
  5 24  2  0
  6  7  1  0
  7  8  2  3
  8  9  1  0
  8 22  1  0
  9 10  1  0
 10 11  1  0
 11 12  2  0
 11 13  1  0
 13 14  2  3
 13 22  1  0
 14 15  1  0
 15 16  1  0
 16 17  1  0
 16 18  2  3
 18 19  1  0
 19 20  1  0
 20 21  1  0
 22 23  2  0
M  END
