
     RDKit          3D

 24 25  0  0  0  0  0  0  0  0999 V2000
   -1.7850   -0.3460    3.9640 O   0  0  0  0  0  0  0  0  0  0  0  0
   -1.5180    0.0110    2.7090 C   0  0  0  0  0  0  0  0  0  0  0  0
   -0.2370    0.5260    2.4370 N   0  0  0  0  0  0  0  0  0  0  0  0
    0.8290    0.1970    1.6000 C   0  0  0  0  0  0  0  0  0  0  0  0
    2.0460    0.6030    1.9360 O   0  0  0  0  0  0  0  0  0  0  0  0
    0.9210   -0.5440    0.3460 C   0  0  0  0  0  0  0  0  0  0  0  0
    1.8450    0.0250   -0.7520 C   0  0  0  0  0  0  0  0  0  0  0  0
    1.4020    1.2960   -1.1190 O   0  0  0  0  0  0  0  0  0  0  0  0
    2.2270    1.8200   -2.1090 C   0  0  0  0  0  0  0  0  0  0  0  0
    3.9830    1.9650   -1.5250 P   0  0  0  0  0  0  0  0  0  0  0  0
    3.9490    2.3040    0.1770 O   0  0  0  0  0  0  0  0  0  0  0  0
    4.8400    0.4870   -1.7980 O   0  0  0  0  0  0  0  0  0  0  0  0
    0.3380   -1.6490    0.0020 C   0  0  0  0  0  0  0  0  0  0  0  0
   -0.6030   -2.5240    0.7440 C   0  0  0  0  0  0  0  0  0  0  0  0
   -1.9350   -2.3670    0.1810 N   0  0  0  0  0  0  0  0  0  0  0  0
   -2.2340   -1.6790   -1.0270 C   0  0  0  0  0  0  0  0  0  0  0  0
   -2.8860   -2.3240   -1.9360 O   0  0  0  0  0  0  0  0  0  0  0  0
   -1.8750   -0.3360   -1.3160 N   0  0  0  0  0  0  0  0  0  0  0  0
   -2.1340    0.7980   -0.4400 C   0  0  1  0  0  0  0  0  0  0  0  0
   -2.8600    1.7700   -1.1210 O   0  0  0  0  0  0  0  0  0  0  0  0
   -4.1120    1.3430   -0.9720 O   0  0  0  0  0  0  0  0  0  0  0  0
   -4.2210    0.7910    0.2730 N   0  0  0  0  0  0  0  0  0  0  0  0
   -3.0180    0.4240    0.6740 C   0  0  0  0  0  0  0  0  0  0  0  0
   -2.6200   -0.2100    1.8810 N   0  0  0  0  0  0  0  0  0  0  0  0
  1  2  2  0
  2  3  1  0
  2 24  1  0
  3  4  1  0
  4  5  2  0
  4  6  1  0
  6  7  1  0
  6 13  2  0
  7  8  1  0
  8  9  1  0
  9 10  1  0
 10 11  1  0
 10 12  1  0
 13 14  1  0
 14 15  1  0
 15 16  1  0
 16 17  2  0
 16 18  1  0
 19 18  1  6
 19 20  1  0
 19 23  1  0
 20 21  1  0
 21 22  1  0
 22 23  2  0
 23 24  1  0
M  END
