
     RDKit          3D

 10  9  0  0  0  0  0  0  0  0999 V2000
   -3.2400    1.2260   -0.0790 C   0  0  0  0  0  0  0  0  0  0  0  0
   -1.9070    0.7000   -0.0270 O   0  0  0  0  0  0  0  0  0  0  0  0
   -1.7190   -0.6610   -0.0950 C   0  0  0  0  0  0  0  0  0  0  0  0
   -2.7380   -1.3910   -0.2010 O   0  0  0  0  0  0  0  0  0  0  0  0
   -0.3470   -1.2410   -0.0450 C   0  0  0  0  0  0  0  0  0  0  0  0
    0.6580   -0.1160    0.0830 C   0  0  0  0  0  0  0  0  0  0  0  0
    2.3540   -0.8520    0.1440 P   0  0  0  0  0  0  0  0  0  0  0  0
    2.7230   -1.1810    1.8180 O   0  0  0  0  0  0  0  0  0  0  0  0
    3.5430    0.1430   -0.5940 O   0  0  0  0  0  0  0  0  0  0  0  0
    3.2350    1.4100   -0.4590 O   0  0  0  0  0  0  0  0  0  0  0  0
  1  2  1  0
  2  3  1  0
  3  4  2  0
  3  5  1  0
  5  6  1  0
  6  7  1  0
  7  8  1  0
  7  9  1  0
  9 10  1  0
M  END
