
     RDKit          3D

 24 25  0  0  0  0  0  0  0  0999 V2000
   -3.0390    2.9500   -2.0180 N   0  0  0  0  0  0  0  0  0  0  0  0
   -2.0400    2.8310   -1.0130 C   0  0  0  0  0  0  0  0  0  0  0  0
   -1.6470    3.8690   -0.3940 O   0  0  0  0  0  0  0  0  0  0  0  0
   -1.4850    1.5520   -0.7030 N   0  0  0  0  0  0  0  0  0  0  0  0
   -0.4780    1.4590    0.3160 C   0  0  0  0  0  0  0  0  0  0  0  0
   -0.1220    2.5070    0.8980 O   0  0  0  0  0  0  0  0  0  0  0  0
    0.0670    0.1330    0.6070 C   0  0  2  0  0  0  0  0  0  0  0  0
    1.5720    0.0400    0.4540 C   0  0  2  0  0  0  0  0  0  0  0  0
    2.3060    1.2180    0.9970 C   0  0  0  0  0  0  0  0  0  0  0  0
    3.6910    1.0240    0.9130 O   0  0  0  0  0  0  0  0  0  0  0  0
    4.4340    0.0470    1.5110 C   0  0  0  0  0  0  0  0  0  0  0  0
    5.8540   -0.0680    1.3580 N   0  0  0  0  0  0  0  0  0  0  0  0
    3.8540   -0.7970    2.2320 O   0  0  0  0  0  0  0  0  0  0  0  0
    1.9410   -0.1160   -0.9000 O   0  0  0  0  0  0  0  0  0  0  0  0
    1.2680   -1.0240   -1.6870 C   0  0  0  0  0  0  0  0  0  0  0  0
    0.0590   -1.4150   -1.3430 C   0  0  0  0  0  0  0  0  0  0  0  0
   -0.5560   -0.9120   -0.1740 N   0  0  0  0  0  0  0  0  0  0  0  0
   -1.8100   -1.4540    0.2290 C   0  0  0  0  0  0  0  0  0  0  0  0
   -2.5390   -0.7560    1.0250 N   0  0  0  0  0  0  0  0  0  0  0  0
   -3.8060   -1.2620    1.4570 C   0  0  0  0  0  0  0  0  0  0  0  0
   -4.5870   -0.6760    2.2190 O   0  0  0  0  0  0  0  0  0  0  0  0
   -4.1810   -2.5270    0.9680 O   0  0  0  0  0  0  0  0  0  0  0  0
   -3.1280   -3.3540    0.7240 O   0  0  0  0  0  0  0  0  0  0  0  0
   -2.3250   -2.7680   -0.2190 C   0  0  0  0  0  0  0  0  0  0  0  0
  1  2  1  0
  2  3  2  0
  2  4  1  0
  4  5  1  0
  5  6  2  0
  7  5  1  6
  7  8  1  0
  7 17  1  0
  8  9  1  6
  8 14  1  0
  9 10  1  0
 10 11  1  0
 11 12  1  0
 11 13  2  0
 14 15  1  0
 15 16  2  0
 16 17  1  0
 17 18  1  0
 18 19  2  0
 18 24  1  0
 19 20  1  0
 20 21  2  0
 20 22  1  0
 22 23  1  0
 23 24  1  0
M  END
