
     RDKit          3D

 19 21  0  0  0  0  0  0  0  0999 V2000
    6.0140   -0.3700   -0.7020 C   0  0  0  0  0  0  0  0  0  0  0  0
    4.5750   -0.2540   -0.2780 C   0  0  0  0  0  0  0  0  0  0  0  0
    4.2580    0.7660    0.5010 C   0  0  0  0  0  0  0  0  0  0  0  0
    2.9840    1.1410    1.0640 N   0  0  0  0  0  0  0  0  0  0  0  0
    1.6790    0.7010    0.7030 C   0  0  0  0  0  0  0  0  0  0  0  0
    0.6830    1.4740    1.1920 N   0  0  0  0  0  0  0  0  0  0  0  0
   -0.6280    1.1950    0.9410 C   0  0  0  0  0  0  0  0  0  0  0  0
   -0.9630    0.1120    0.1790 C   0  0  0  0  0  0  0  0  0  0  0  0
   -2.3370   -0.2310   -0.1170 C   0  0  0  0  0  0  0  0  0  0  0  0
   -2.6150   -1.2500   -0.8330 O   0  0  0  0  0  0  0  0  0  0  0  0
   -3.4130    0.5360    0.3640 N   0  0  0  0  0  0  0  0  0  0  0  0
   -4.7700    0.1520    0.0390 C   0  0  1  0  0  0  0  0  0  0  0  0
   -5.8660    0.4750    1.0610 C   0  0  0  0  0  0  0  0  0  0  0  0
   -5.7180    1.3020   -0.1630 C   0  0  0  0  0  0  0  0  0  0  0  0
    0.0740   -0.6890   -0.3260 C   0  0  0  0  0  0  0  0  0  0  0  0
   -0.2420   -1.8220   -1.1220 N   0  0  0  0  0  0  0  0  0  0  0  0
    1.3980   -0.4060   -0.0720 C   0  0  0  0  0  0  0  0  0  0  0  0
    2.3190   -1.3560   -0.6870 C   0  0  0  0  0  0  0  0  0  0  0  0
    3.6590   -1.2760   -0.7650 C   0  0  0  0  0  0  0  0  0  0  0  0
  1  2  1  0
  2  3  2  0
  2 19  1  0
  3  4  1  0
  4  5  1  0
  5  6  2  0
  5 17  1  0
  6  7  1  0
  7  8  2  0
  8  9  1  0
  8 15  1  0
  9 10  2  0
  9 11  1  0
 12 11  1  1
 12 13  1  0
 12 14  1  0
 13 14  1  0
 15 16  1  0
 15 17  2  0
 17 18  1  0
 18 19  2  0
M  END
