
     RDKit          3D

 19 21  0  0  0  0  0  0  0  0999 V2000
   -4.0170   -0.8060    0.9090 C   0  0  0  0  0  0  0  0  0  0  0  0
   -3.0970   -1.2340   -0.1330 N   0  0  0  0  0  0  0  0  0  0  0  0
   -1.8720   -0.5940   -0.3740 C   0  0  0  0  0  0  0  0  0  0  0  0
   -0.6930   -1.1020    0.0010 C   0  0  0  0  0  0  0  0  0  0  0  0
   -0.5300   -2.3870    0.7110 C   0  0  0  0  0  0  0  0  0  0  0  0
   -1.7630   -3.0590    0.9760 N   0  0  0  0  0  0  0  0  0  0  0  0
    0.5520   -0.3610   -0.3050 C   0  0  0  0  0  0  0  0  0  0  0  0
    1.5700   -0.1460    0.5590 N   0  0  0  0  0  0  0  0  0  0  0  0
    2.5600    0.5640   -0.0060 C   0  0  0  0  0  0  0  0  0  0  0  0
    3.8170    1.0360    0.5660 C   0  0  0  0  0  0  0  0  0  0  0  0
    4.7830    1.8120   -0.0160 C   0  0  0  0  0  0  0  0  0  0  0  0
    5.7940    2.0160    0.8920 C   0  0  0  0  0  0  0  0  0  0  0  0
    5.3820    1.3280    2.0290 C   0  0  0  0  0  0  0  0  0  0  0  0
    4.2180    0.7670    1.7960 O   0  0  0  0  0  0  0  0  0  0  0  0
    2.1170    0.7950   -1.2980 C   0  0  0  0  0  0  0  0  0  0  0  0
    0.9000    0.2250   -1.4560 N   0  0  0  0  0  0  0  0  0  0  0  0
   -1.8890    0.7220   -1.0280 C   0  0  2  0  0  0  0  0  0  0  0  0
   -3.1930    1.4440   -1.1840 C   0  0  0  0  0  0  0  0  0  0  0  0
   -2.3910    1.0020   -2.3830 C   0  0  0  0  0  0  0  0  0  0  0  0
  1  2  1  0
  2  3  1  0
  3  4  2  3
 17  3  1  6
  4  5  1  0
  4  7  1  0
  5  6  1  0
  7  8  2  0
  7 16  1  0
  8  9  1  0
  9 10  1  0
  9 15  2  0
 10 11  2  0
 10 14  1  0
 11 12  1  0
 12 13  2  0
 13 14  1  0
 15 16  1  0
 17 18  1  0
 17 19  1  0
 18 19  1  0
M  END
