
     RDKit          3D

 19 21  0  0  0  0  0  0  0  0999 V2000
   -0.3460    1.4280    0.9780 O   0  0  0  0  0  0  0  0  0  0  0  0
   -0.5670    0.4420    0.2420 C   0  0  0  0  0  0  0  0  0  0  0  0
   -1.9540    0.2570   -0.1050 N   0  0  0  0  0  0  0  0  0  0  0  0
   -2.9650    1.1710    0.3860 C   0  0  0  0  0  0  0  0  0  0  0  0
   -4.2720    0.7160   -0.1410 C   0  0  0  0  0  0  0  0  0  0  0  0
   -5.3130    0.3520    0.5810 C   0  0  0  0  0  0  0  0  0  0  0  0
   -6.4480   -0.0430   -0.2940 C   0  0  0  0  0  0  0  0  0  0  0  0
   -5.8920    0.1530   -1.6210 N   0  0  0  0  0  0  0  0  0  0  0  0
   -4.6720    0.5780   -1.5310 C   0  0  0  0  0  0  0  0  0  0  0  0
    0.4390   -0.4100   -0.2070 N   0  0  0  0  0  0  0  0  0  0  0  0
    1.8130   -0.3130    0.0940 C   0  0  0  0  0  0  0  0  0  0  0  0
    2.2900    0.4640    1.1190 C   0  0  0  0  0  0  0  0  0  0  0  0
    3.6570    0.5570    1.3780 C   0  0  0  0  0  0  0  0  0  0  0  0
    4.5300   -0.1480    0.5860 C   0  0  0  0  0  0  0  0  0  0  0  0
    5.8800   -0.2710    0.5740 N   0  0  0  0  0  0  0  0  0  0  0  0
    6.3020   -1.0850   -0.4030 C   0  0  0  0  0  0  0  0  0  0  0  0
    5.1740   -1.5160   -1.0620 C   0  0  0  0  0  0  0  0  0  0  0  0
    4.0750   -0.9400   -0.4550 C   0  0  0  0  0  0  0  0  0  0  0  0
    2.7320   -1.0080   -0.6820 C   0  0  0  0  0  0  0  0  0  0  0  0
  1  2  2  0
  2  3  1  0
  2 10  1  0
  3  4  1  0
  4  5  1  0
  5  6  2  0
  5  9  1  0
  6  7  1  0
  7  8  1  0
  8  9  2  0
 10 11  1  0
 11 12  2  0
 11 19  1  0
 12 13  1  0
 13 14  2  0
 14 15  1  0
 14 18  1  0
 15 16  1  0
 16 17  2  0
 17 18  1  0
 18 19  2  0
M  END
