
     RDKit          3D

 19 21  0  0  0  0  0  0  0  0999 V2000
   -2.6160    1.8840    3.5510 O   0  0  0  0  0  0  0  0  0  0  0  0
   -2.5430    1.3150    2.4150 C   0  0  0  0  0  0  0  0  0  0  0  0
   -1.3640    0.9650    1.9240 N   0  0  0  0  0  0  0  0  0  0  0  0
   -1.1670    0.3550    0.7260 C   0  0  0  0  0  0  0  0  0  0  0  0
    0.1130    0.0100    0.2620 N   0  0  0  0  0  0  0  0  0  0  0  0
    1.2500    0.3330    1.1230 C   0  0  0  0  0  0  0  0  0  0  0  0
    2.5440   -0.0700    0.5460 C   0  0  0  0  0  0  0  0  0  0  0  0
    3.4540    0.8470    0.3200 C   0  0  0  0  0  0  0  0  0  0  0  0
    4.7740    0.5770   -0.2470 C   0  0  0  0  0  0  0  0  0  0  0  0
    4.9910   -0.7890   -0.5380 N   0  0  0  0  0  0  0  0  0  0  0  0
    4.0190   -1.7800   -0.2980 C   0  0  0  0  0  0  0  0  0  0  0  0
    2.8270   -1.4540    0.2260 C   0  0  0  0  0  0  0  0  0  0  0  0
   -2.3170    0.0970   -0.0070 C   0  0  0  0  0  0  0  0  0  0  0  0
   -2.2610   -0.5100   -1.2230 C   0  0  0  0  0  0  0  0  0  0  0  0
   -3.3780   -0.7930   -2.0000 C   0  0  0  0  0  0  0  0  0  0  0  0
   -4.6040   -0.4310   -1.4930 C   0  0  0  0  0  0  0  0  0  0  0  0
   -4.6970    0.1850   -0.2650 C   0  0  0  0  0  0  0  0  0  0  0  0
   -3.5640    0.4520    0.4830 C   0  0  0  0  0  0  0  0  0  0  0  0
   -3.6450    1.0560    1.6890 N   0  0  0  0  0  0  0  0  0  0  0  0
  1  2  2  0
  2  3  1  0
  2 19  1  0
  3  4  2  0
  4  5  1  0
  4 13  1  0
  5  6  1  0
  6  7  1  0
  7  8  2  0
  7 12  1  0
  8  9  1  0
  9 10  1  0
 10 11  1  0
 11 12  2  0
 13 14  2  0
 13 18  1  0
 14 15  1  0
 15 16  2  0
 16 17  1  0
 17 18  2  0
 18 19  1  0
M  END
