
     RDKit          3D

 19 21  0  0  0  0  0  0  0  0999 V2000
   -0.6560   -3.1900    0.7510 C   0  0  0  0  0  0  0  0  0  0  0  0
   -1.3110   -1.9030    0.4070 C   0  0  0  0  0  0  0  0  0  0  0  0
   -2.6340   -1.6540    0.4560 N   0  0  0  0  0  0  0  0  0  0  0  0
   -2.8630   -0.3710    0.0720 C   0  0  0  0  0  0  0  0  0  0  0  0
   -3.9680    0.4120   -0.0690 C   0  0  0  0  0  0  0  0  0  0  0  0
   -3.9120    1.7080   -0.4850 C   0  0  0  0  0  0  0  0  0  0  0  0
   -2.6790    2.2510   -0.7760 C   0  0  0  0  0  0  0  0  0  0  0  0
   -2.5680    3.6150   -1.2190 N   0  0  0  0  0  0  0  0  0  0  0  0
   -1.5370    1.4980   -0.6480 C   0  0  0  0  0  0  0  0  0  0  0  0
   -1.6120    0.1810   -0.2240 C   0  0  0  0  0  0  0  0  0  0  0  0
   -0.6560   -0.7770   -0.0130 C   0  0  0  0  0  0  0  0  0  0  0  0
    0.7230   -0.6250   -0.1950 N   0  0  0  0  0  0  0  0  0  0  0  0
    1.6310   -0.1930    0.7860 C   0  0  0  0  0  0  0  0  0  0  0  0
    1.2120    0.0900    1.9290 O   0  0  0  0  0  0  0  0  0  0  0  0
    3.0430   -0.0820    0.4520 C   0  0  0  0  0  0  0  0  0  0  0  0
    4.0710    0.3280    1.3010 C   0  0  0  0  0  0  0  0  0  0  0  0
    5.2620    0.3010    0.6200 C   0  0  0  0  0  0  0  0  0  0  0  0
    4.9550   -0.1290   -0.6510 C   0  0  0  0  0  0  0  0  0  0  0  0
    3.6350   -0.3520   -0.7340 N   0  0  0  0  0  0  0  0  0  0  0  0
  1  2  1  0
  2  3  1  0
  2 11  2  0
  3  4  1  0
  4  5  2  0
  4 10  1  0
  5  6  1  0
  6  7  2  0
  7  8  1  0
  7  9  1  0
  9 10  2  0
 10 11  1  0
 11 12  1  0
 12 13  1  0
 13 14  2  0
 13 15  1  0
 15 16  2  0
 15 19  1  0
 16 17  1  0
 17 18  2  0
 18 19  1  0
M  END
