
     RDKit          3D

 31 34  0  0  0  0  0  0  0  0999 V2000
    9.0550   -1.0190    1.1880 C   0  0  0  0  0  0  0  0  0  0  0  0
    9.0730    0.0130    0.2310 O   0  0  0  0  0  0  0  0  0  0  0  0
    7.8770    0.4800   -0.3280 C   0  0  0  0  0  0  0  0  0  0  0  0
    6.6460   -0.0320    0.0190 C   0  0  0  0  0  0  0  0  0  0  0  0
    5.5260    0.4910   -0.5840 C   0  0  0  0  0  0  0  0  0  0  0  0
    4.2800    0.0030   -0.2610 C   0  0  0  0  0  0  0  0  0  0  0  0
    3.1240    0.5210   -0.8640 C   0  0  0  0  0  0  0  0  0  0  0  0
    1.8880   -0.0220   -0.4790 N   0  0  0  0  0  0  0  0  0  0  0  0
    0.6160    0.2610   -1.0260 C   0  0  0  0  0  0  0  0  0  0  0  0
    0.5150    1.0720   -1.9650 O   0  0  0  0  0  0  0  0  0  0  0  0
   -0.5840   -0.3420   -0.5570 N   0  0  0  0  0  0  0  0  0  0  0  0
   -1.8800   -0.0370   -1.1340 C   0  0  0  0  0  0  0  0  0  0  0  0
   -2.9860   -0.8090   -0.4550 C   0  0  0  0  0  0  0  0  0  0  0  0
   -4.2740   -0.5330   -0.9970 N   0  0  0  0  0  0  0  0  0  0  0  0
   -4.7880    0.7760   -0.7670 C   0  0  0  0  0  0  0  0  0  0  0  0
   -4.9890    1.0720    0.7030 C   0  0  0  0  0  0  0  0  0  0  0  0
   -5.9240    0.0120    1.2070 C   0  0  0  0  0  0  0  0  0  0  0  0
   -6.6530    0.2810    2.3220 C   0  0  0  0  0  0  0  0  0  0  0  0
   -6.5180    1.5280    2.9710 O   0  0  0  0  0  0  0  0  0  0  0  0
   -7.4960   -0.6540    2.7890 N   0  0  0  0  0  0  0  0  0  0  0  0
   -7.6220   -1.8520    2.1600 C   0  0  0  0  0  0  0  0  0  0  0  0
   -6.8830   -2.1210    1.0320 C   0  0  0  0  0  0  0  0  0  0  0  0
   -7.0040   -3.3100    0.4030 F   0  0  0  0  0  0  0  0  0  0  0  0
   -6.0020   -1.1680    0.5290 C   0  0  0  0  0  0  0  0  0  0  0  0
   -5.2460   -1.5200   -0.6810 C   0  0  0  0  0  0  0  0  0  0  0  0
    3.3130    1.5120   -1.7640 C   0  0  0  0  0  0  0  0  0  0  0  0
    4.5830    2.0190   -2.1020 C   0  0  0  0  0  0  0  0  0  0  0  0
    5.7060    1.4990   -1.5020 C   0  0  0  0  0  0  0  0  0  0  0  0
    6.8790    1.9760   -1.8220 O   0  0  0  0  0  0  0  0  0  0  0  0
    7.9600    1.5050   -1.2710 C   0  0  0  0  0  0  0  0  0  0  0  0
    9.1130    1.9590   -1.5720 O   0  0  0  0  0  0  0  0  0  0  0  0
  1  2  1  0
  2  3  1  0
  3  4  2  0
  3 30  1  0
  4  5  1  0
  5  6  2  0
  5 28  1  0
  6  7  1  0
  7  8  1  0
  7 26  2  0
  8  9  1  0
  9 10  2  0
  9 11  1  0
 11 12  1  0
 12 13  1  0
 13 14  1  0
 14 15  1  0
 14 25  1  0
 15 16  1  0
 16 17  1  0
 17 18  2  0
 17 24  1  0
 18 19  1  0
 18 20  1  0
 20 21  2  0
 21 22  1  0
 22 23  1  0
 22 24  2  0
 24 25  1  0
 26 27  1  0
 27 28  2  0
 28 29  1  0
 29 30  1  0
 30 31  2  0
M  END
