
     RDKit          3D

 31 34  0  0  0  0  0  0  0  0999 V2000
    6.2810    1.5040    0.5850 C   0  0  0  0  0  0  0  0  0  0  0  0
    5.7170    0.6420   -0.4320 N   0  0  0  0  0  0  0  0  0  0  0  0
    6.0120    0.8870   -1.8140 C   0  0  0  0  0  0  0  0  0  0  0  0
    4.8950   -0.4230   -0.0060 C   0  0  0  0  0  0  0  0  0  0  0  0
    5.5270   -1.6610    0.1520 C   0  0  0  0  0  0  0  0  0  0  0  0
    4.7800   -2.7420    0.5720 C   0  0  0  0  0  0  0  0  0  0  0  0
    5.4520   -3.9200    0.7080 F   0  0  0  0  0  0  0  0  0  0  0  0
    3.4430   -2.6150    0.8330 C   0  0  0  0  0  0  0  0  0  0  0  0
    2.7660   -1.3880    0.6870 C   0  0  0  0  0  0  0  0  0  0  0  0
    1.4050   -1.3090    0.9770 N   0  0  0  0  0  0  0  0  0  0  0  0
    0.5240   -0.5280    0.5140 C   0  0  0  0  0  0  0  0  0  0  0  0
    0.8220    0.4660   -0.4510 N   0  0  0  0  0  0  0  0  0  0  0  0
   -0.8860   -0.6490    0.9850 C   0  0  0  0  0  0  0  0  0  0  0  0
   -1.1690   -1.5360    1.8310 O   0  0  0  0  0  0  0  0  0  0  0  0
   -1.8680    0.2120    0.4920 N   0  0  0  0  0  0  0  0  0  0  0  0
   -3.2400    0.2400    0.8250 C   0  0  0  0  0  0  0  0  0  0  0  0
   -3.8030   -0.5360    1.8470 C   0  0  0  0  0  0  0  0  0  0  0  0
   -5.1420   -0.4540    2.1880 C   0  0  0  0  0  0  0  0  0  0  0  0
   -5.9790    0.4120    1.5190 C   0  0  0  0  0  0  0  0  0  0  0  0
   -5.4440    1.1830    0.5100 C   0  0  0  0  0  0  0  0  0  0  0  0
   -4.0820    1.0990    0.1630 C   0  0  0  0  0  0  0  0  0  0  0  0
   -3.5970    1.8930   -0.8560 O   0  0  0  0  0  0  0  0  0  0  0  0
   -3.1200    1.3150   -2.0130 C   0  0  0  0  0  0  0  0  0  0  0  0
   -2.5550    1.9650   -3.0980 C   0  0  0  0  0  0  0  0  0  0  0  0
   -2.2400    0.9700   -4.0010 C   0  0  0  0  0  0  0  0  0  0  0  0
   -2.5830   -0.2140   -3.5140 O   0  0  0  0  0  0  0  0  0  0  0  0
   -3.1090   -0.0210   -2.3280 C   0  0  0  0  0  0  0  0  0  0  0  0
   -7.2370    0.2690    2.0790 O   0  0  0  0  0  0  0  0  0  0  0  0
   -7.2550   -0.7700    3.0350 C   0  0  0  0  0  0  0  0  0  0  0  0
   -5.9020   -1.1220    3.1550 O   0  0  0  0  0  0  0  0  0  0  0  0
    3.5510   -0.3310    0.2640 C   0  0  0  0  0  0  0  0  0  0  0  0
  1  2  1  0
  2  3  1  0
  2  4  1  0
  4  5  2  0
  4 31  1  0
  5  6  1  0
  6  7  1  0
  6  8  2  0
  8  9  1  0
  9 10  1  0
  9 31  2  0
 10 11  2  3
 11 12  1  0
 11 13  1  0
 13 14  2  0
 13 15  1  0
 15 16  1  0
 16 17  2  0
 16 21  1  0
 17 18  1  0
 18 19  2  0
 18 30  1  0
 19 20  1  0
 19 28  1  0
 20 21  2  0
 21 22  1  0
 22 23  1  0
 23 24  1  0
 23 27  2  0
 24 25  2  0
 25 26  1  0
 26 27  1  0
 28 29  1  0
 29 30  1  0
M  END
