
     RDKit          3D

 30 33  0  0  0  0  0  0  0  0999 V2000
    2.2590    2.6360    5.6320 C   0  0  0  0  0  0  0  0  0  0  0  0
    1.5770    1.5570    5.0960 O   0  0  0  0  0  0  0  0  0  0  0  0
    1.6750    1.0490    3.8080 C   0  0  0  0  0  0  0  0  0  0  0  0
    0.8030   -0.0800    3.6200 C   0  0  0  0  0  0  0  0  0  0  0  0
    0.9000   -0.5730    2.3370 C   0  0  0  0  0  0  0  0  0  0  0  0
    1.6650   -0.1660    1.2830 C   0  0  0  0  0  0  0  0  0  0  0  0
    1.5270   -0.8630    0.1590 O   0  0  0  0  0  0  0  0  0  0  0  0
    2.1090   -1.4750   -0.8790 C   0  0  0  0  0  0  0  0  0  0  0  0
    3.3550   -1.3250   -0.9330 O   0  0  0  0  0  0  0  0  0  0  0  0
    1.3780   -2.2920   -1.8180 C   0  0  0  0  0  0  0  0  0  0  0  0
    1.6900   -3.2220   -2.7980 C   0  0  0  0  0  0  0  0  0  0  0  0
    3.0840   -3.6320   -2.8870 N   0  0  0  0  0  0  0  0  0  0  0  0
    0.7500   -3.7200   -3.5000 N   0  0  0  0  0  0  0  0  0  0  0  0
   -0.2590   -3.1210   -2.9940 C   0  0  0  0  0  0  0  0  0  0  0  0
   -1.7010   -3.5450   -3.0970 C   0  0  0  0  0  0  0  0  0  0  0  0
   -2.9470   -3.8890   -3.1860 N   0  0  0  0  0  0  0  0  0  0  0  0
   -0.0940   -2.2110   -2.0020 C   0  0  0  0  0  0  0  0  0  0  0  0
   -0.9310   -1.1240   -1.6290 C   0  0  0  0  0  0  0  0  0  0  0  0
   -1.6910   -0.3880   -2.6850 C   0  0  0  0  0  0  0  0  0  0  0  0
   -2.3080    0.6620   -2.0970 C   0  0  0  0  0  0  0  0  0  0  0  0
   -2.0000    0.6630   -0.7870 N   0  0  0  0  0  0  0  0  0  0  0  0
   -1.2110   -0.3900   -0.5550 C   0  0  0  0  0  0  0  0  0  0  0  0
   -2.3160    1.6750    0.1230 C   0  0  0  0  0  0  0  0  0  0  0  0
   -3.0850    2.7750    0.1860 C   0  0  0  0  0  0  0  0  0  0  0  0
   -3.9680    3.2790   -0.9240 C   0  0  0  0  0  0  0  0  0  0  0  0
   -3.7290    2.7770   -2.1720 O   0  0  0  0  0  0  0  0  0  0  0  0
   -3.2390    1.6060   -2.7500 C   0  0  0  0  0  0  0  0  0  0  0  0
   -3.5990    1.2970   -3.9130 O   0  0  0  0  0  0  0  0  0  0  0  0
    2.5130    0.9470    1.4950 C   0  0  0  0  0  0  0  0  0  0  0  0
    2.4140    1.4660    2.8290 C   0  0  0  0  0  0  0  0  0  0  0  0
  1  2  1  0
  2  3  1  0
  3  4  2  0
  3 30  1  0
  4  5  1  0
  5  6  2  0
  6  7  1  0
  6 29  1  0
  7  8  1  0
  8  9  2  0
  8 10  1  0
 10 11  2  0
 10 17  1  0
 11 12  1  0
 11 13  1  0
 13 14  1  0
 14 15  1  0
 14 17  2  0
 15 16  3  0
 17 18  1  0
 18 19  1  0
 18 22  2  0
 19 20  2  0
 20 21  1  0
 20 27  1  0
 21 22  1  0
 21 23  1  0
 23 24  2  0
 24 25  1  0
 25 26  1  0
 26 27  1  0
 27 28  2  0
 29 30  2  0
M  END
