
     RDKit          3D

 31 34  0  0  0  0  0  0  0  0999 V2000
   -4.0650   -1.6790    2.3560 C   0  0  0  0  0  0  0  0  0  0  0  0
   -5.1380   -0.9820    2.0330 C   0  0  0  0  0  0  0  0  0  0  0  0
   -5.7380   -0.3100    3.0620 F   0  0  0  0  0  0  0  0  0  0  0  0
   -5.6580   -0.9130    0.6830 C   0  0  0  0  0  0  0  0  0  0  0  0
   -6.7670   -0.1700    0.4960 C   0  0  0  0  0  0  0  0  0  0  0  0
   -7.4850    0.5660    1.5300 C   0  0  0  0  0  0  0  0  0  0  0  0
   -5.0920   -1.5590   -0.4380 N   0  0  0  0  0  0  0  0  0  0  0  0
   -3.7220   -1.7800   -0.6070 C   0  0  0  0  0  0  0  0  0  0  0  0
   -2.8670   -0.8080   -0.7670 C   0  0  0  0  0  0  0  0  0  0  0  0
   -3.2820    0.6010   -0.7850 C   0  0  0  0  0  0  0  0  0  0  0  0
   -2.4410    1.3270    0.1030 O   0  0  0  0  0  0  0  0  0  0  0  0
   -1.0680    1.1020   -0.0160 C   0  0  0  0  0  0  0  0  0  0  0  0
   -0.2150    1.9830    0.3310 O   0  0  0  0  0  0  0  0  0  0  0  0
   -0.5420   -0.1400   -0.5360 C   0  0  0  0  0  0  0  0  0  0  0  0
   -1.4420   -1.1350   -0.9280 C   0  0  0  0  0  0  0  0  0  0  0  0
   -0.7420   -2.1440   -1.3560 O   0  0  0  0  0  0  0  0  0  0  0  0
    0.5410   -1.8900   -1.2750 C   0  0  0  0  0  0  0  0  0  0  0  0
    1.6360   -2.5970   -1.5860 N   0  0  0  0  0  0  0  0  0  0  0  0
    2.8940   -2.1520   -1.4260 C   0  0  0  0  0  0  0  0  0  0  0  0
    3.0940   -0.8680   -0.9010 C   0  0  0  0  0  0  0  0  0  0  0  0
    4.4630   -0.3870   -0.7290 C   0  0  0  0  0  0  0  0  0  0  0  0
    5.3770   -1.1320   -1.1580 O   0  0  0  0  0  0  0  0  0  0  0  0
    4.7970    0.8230   -0.1290 N   0  0  0  0  0  0  0  0  0  0  0  0
    6.1310    1.3000    0.0420 C   0  0  0  0  0  0  0  0  0  0  0  0
    7.2500    0.7360   -0.3090 C   0  0  0  0  0  0  0  0  0  0  0  0
    8.3790    1.5610    0.0520 N   0  0  0  0  0  0  0  0  0  0  0  0
    7.8660    2.8890    0.2720 C   0  0  0  0  0  0  0  0  0  0  0  0
    6.4800    2.5920    0.6960 C   0  0  0  0  0  0  0  0  0  0  0  0
    5.6980    3.2180    1.4310 O   0  0  0  0  0  0  0  0  0  0  0  0
    2.0030   -0.1030   -0.5670 C   0  0  0  0  0  0  0  0  0  0  0  0
    0.7350   -0.6130   -0.7540 C   0  0  0  0  0  0  0  0  0  0  0  0
  1  2  2  0
  2  3  1  0
  2  4  1  0
  4  5  2  3
  4  7  1  0
  5  6  1  0
  7  8  1  0
  8  9  2  3
  9 10  1  0
  9 15  1  0
 10 11  1  0
 11 12  1  0
 12 13  2  0
 12 14  1  0
 14 15  2  0
 14 31  1  0
 15 16  1  0
 16 17  1  0
 17 18  2  0
 17 31  1  0
 18 19  1  0
 19 20  2  0
 20 21  1  0
 20 30  1  0
 21 22  2  0
 21 23  1  0
 23 24  1  0
 24 25  2  0
 24 28  1  0
 25 26  1  0
 26 27  1  0
 27 28  1  0
 28 29  2  0
 30 31  2  0
M  END
