
     RDKit          3D

 29 30  0  0  0  0  0  0  0  0999 V2000
   -4.4410    1.6380    2.9250 C   0  0  0  0  0  0  0  0  0  0  0  0
   -4.3390    2.4400    1.8240 O   0  0  0  0  0  0  0  0  0  0  0  0
   -3.4030    2.0510    0.8800 C   0  0  0  0  0  0  0  0  0  0  0  0
   -3.6680    0.6930    0.3140 C   0  0  2  0  0  0  0  0  0  0  0  0
   -2.6790    0.2690   -0.7240 C   0  0  0  0  0  0  0  0  0  0  0  0
   -1.2800    0.1820   -0.2260 C   0  0  0  0  0  0  0  0  0  0  0  0
   -1.0790    0.3760    0.9830 O   0  0  0  0  0  0  0  0  0  0  0  0
   -0.2140   -0.1140   -1.1010 N   0  0  0  0  0  0  0  0  0  0  0  0
    1.1420   -0.2100   -0.7060 C   0  0  0  0  0  0  0  0  0  0  0  0
    1.6670    0.1680    0.4960 C   0  0  0  0  0  0  0  0  0  0  0  0
    3.0220    0.0280    0.8210 C   0  0  0  0  0  0  0  0  0  0  0  0
    3.8770   -0.5110   -0.0970 C   0  0  0  0  0  0  0  0  0  0  0  0
    5.2100   -0.6430    0.2390 O   0  0  0  0  0  0  0  0  0  0  0  0
    5.7390   -0.2560    1.4670 C   0  0  0  0  0  0  0  0  0  0  0  0
    7.2030   -0.5370    1.4950 C   0  0  0  0  0  0  0  0  0  0  0  0
    7.9020   -0.2700    2.5090 O   0  0  0  0  0  0  0  0  0  0  0  0
    7.8020   -1.1040    0.3820 O   0  0  0  0  0  0  0  0  0  0  0  0
    9.1720   -1.3870    0.3550 C   0  0  0  0  0  0  0  0  0  0  0  0
    9.9990   -0.1600    0.5390 C   0  0  0  0  0  0  0  0  0  0  0  0
    9.7030    0.7760   -0.5300 N   0  0  0  0  0  0  0  0  0  0  0  0
    3.4040   -0.9060   -1.3160 C   0  0  0  0  0  0  0  0  0  0  0  0
    2.0740   -0.7590   -1.6090 C   0  0  0  0  0  0  0  0  0  0  0  0
   -4.9830    0.6430   -0.3490 N   0  0  0  0  0  0  0  0  0  0  0  0
   -5.3440   -0.7350   -0.4830 C   0  0  1  0  0  0  0  0  0  0  0  0
   -6.5380   -0.9940    0.3790 C   0  0  0  0  0  0  0  0  0  0  0  0
   -7.7630   -1.1120   -0.0800 C   0  0  0  0  0  0  0  0  0  0  0  0
   -8.1170   -1.0030   -1.5210 C   0  0  0  0  0  0  0  0  0  0  0  0
   -7.0050   -0.2400   -2.2040 C   0  0  0  0  0  0  0  0  0  0  0  0
   -5.7170   -1.0080   -1.9250 C   0  0  0  0  0  0  0  0  0  0  0  0
  1  2  1  0
  2  3  1  0
  4  3  1  6
  4  5  1  0
  4 23  1  0
  5  6  1  0
  6  7  2  0
  6  8  1  0
  8  9  1  0
  9 10  2  0
  9 22  1  0
 10 11  1  0
 11 12  2  0
 12 13  1  0
 12 21  1  0
 13 14  1  0
 14 15  1  0
 15 16  2  0
 15 17  1  0
 17 18  1  0
 18 19  1  0
 19 20  1  0
 21 22  2  0
 24 23  1  6
 24 25  1  0
 24 29  1  0
 25 26  2  0
 26 27  1  0
 27 28  1  0
 28 29  1  0
M  CHG  2  20   1  23   1
M  END
