
     RDKit          3D

 31 34  0  0  0  0  0  0  0  0999 V2000
    5.2220    2.0630    3.0600 N   0  0  0  0  0  0  0  0  0  0  0  0
    5.7840    1.3050    1.9750 C   0  0  0  0  0  0  0  0  0  0  0  0
    6.9830    1.5030    1.7280 O   0  0  0  0  0  0  0  0  0  0  0  0
    5.0260    0.3880    1.2290 N   0  0  0  0  0  0  0  0  0  0  0  0
    5.5030   -0.3850    0.1610 C   0  0  0  0  0  0  0  0  0  0  0  0
    6.7780   -0.3930   -0.3500 C   0  0  0  0  0  0  0  0  0  0  0  0
    7.1810   -1.1900   -1.4160 C   0  0  0  0  0  0  0  0  0  0  0  0
    6.2330   -2.0120   -1.9780 C   0  0  0  0  0  0  0  0  0  0  0  0
    4.9330   -2.0610   -1.5230 C   0  0  0  0  0  0  0  0  0  0  0  0
    4.5890   -1.2500   -0.4640 C   0  0  0  0  0  0  0  0  0  0  0  0
    3.2660   -1.3290   -0.0320 O   0  0  0  0  0  0  0  0  0  0  0  0
    2.2580   -0.5410   -0.5270 C   0  0  0  0  0  0  0  0  0  0  0  0
    2.5160    0.2990   -1.4120 O   0  0  0  0  0  0  0  0  0  0  0  0
    0.8410   -0.6480   -0.0430 C   0  0  0  0  0  0  0  0  0  0  0  0
    0.0040    0.2580   -0.6980 O   0  0  0  0  0  0  0  0  0  0  0  0
   -1.3350    0.2750   -0.3550 C   0  0  0  0  0  0  0  0  0  0  0  0
   -2.2490   -0.5280   -1.0150 C   0  0  0  0  0  0  0  0  0  0  0  0
   -3.5900   -0.5310   -0.6940 C   0  0  0  0  0  0  0  0  0  0  0  0
   -3.9570    0.3250    0.3340 C   0  0  0  0  0  0  0  0  0  0  0  0
   -3.0710    1.1050    0.9750 N   0  0  0  0  0  0  0  0  0  0  0  0
   -1.7470    1.1140    0.6640 C   0  0  0  0  0  0  0  0  0  0  0  0
   -0.9580    1.8600    1.2920 O   0  0  0  0  0  0  0  0  0  0  0  0
   -3.5710    1.9680    2.0410 C   0  0  0  0  0  0  0  0  0  0  0  0
   -4.8480    2.6030    1.5360 C   0  0  0  0  0  0  0  0  0  0  0  0
   -5.9160    1.5200    1.5150 C   0  0  0  0  0  0  0  0  0  0  0  0
   -5.3630    0.3670    0.7200 C   0  0  0  0  0  0  0  0  0  0  0  0
   -6.1100   -0.6070    0.3610 N   0  0  0  0  0  0  0  0  0  0  0  0
   -7.4260   -0.6950    0.6500 F   0  0  0  0  0  0  0  0  0  0  0  0
   -4.2670   -1.4840   -1.5710 C   0  0  0  0  0  0  0  0  0  0  0  0
   -3.3830   -1.5120   -2.7990 C   0  0  0  0  0  0  0  0  0  0  0  0
   -2.0050   -1.4950   -2.1400 C   0  0  0  0  0  0  0  0  0  0  0  0
  1  2  1  0
  2  3  2  0
  2  4  1  0
  4  5  1  0
  5  6  2  0
  5 10  1  0
  6  7  1  0
  7  8  2  0
  8  9  1  0
  9 10  2  0
 10 11  1  0
 11 12  1  0
 12 13  2  0
 12 14  1  0
 14 15  1  0
 15 16  1  0
 16 17  2  0
 16 21  1  0
 17 18  1  0
 17 31  1  0
 18 19  2  0
 18 29  1  0
 19 20  1  0
 19 26  1  0
 20 21  1  0
 20 23  1  0
 21 22  2  0
 23 24  1  0
 24 25  1  0
 25 26  1  0
 26 27  2  3
 27 28  1  0
 29 30  1  0
 30 31  1  0
M  END
