
     RDKit          3D

 29 30  0  0  0  0  0  0  0  0999 V2000
    6.3430    2.3700   -0.3720 O   0  0  0  0  0  0  0  0  0  0  0  0
    6.8970    1.2230   -0.5250 C   0  0  0  0  0  0  0  0  0  0  0  0
    7.6520    1.0650   -1.6970 O   0  0  0  0  0  0  0  0  0  0  0  0
    6.7350    0.1460    0.4820 C   0  0  0  0  0  0  0  0  0  0  0  0
    5.2660   -0.0570    0.8130 C   0  0  0  0  0  0  0  0  0  0  0  0
    4.4920   -0.4280   -0.4540 C   0  0  2  0  0  0  0  0  0  0  0  0
    3.1000   -0.6100   -0.0430 N   0  0  0  0  0  0  0  0  0  0  0  0
    2.1710    0.3830   -0.3980 C   0  0  0  0  0  0  0  0  0  0  0  0
    2.5330    1.3970   -1.0380 O   0  0  0  0  0  0  0  0  0  0  0  0
    0.7780    0.2480   -0.0310 C   0  0  0  0  0  0  0  0  0  0  0  0
   -0.0180    1.3540    0.2410 C   0  0  0  0  0  0  0  0  0  0  0  0
   -1.3360    1.1910    0.5470 C   0  0  0  0  0  0  0  0  0  0  0  0
   -1.8710   -0.0620    0.5850 C   0  0  0  0  0  0  0  0  0  0  0  0
   -3.5910   -0.3050    0.9560 S   0  0  2  0  0  0  0  0  0  0  0  0
   -4.0370    0.8180    1.8460 O   0  0  0  0  0  0  0  0  0  0  0  0
   -3.6670   -1.6140    1.7030 O   0  0  0  0  0  0  0  0  0  0  0  0
   -4.4190   -0.3220   -0.5350 N   0  0  0  0  0  0  0  0  0  0  0  0
   -4.1850    1.0040   -1.1580 C   0  0  0  0  0  0  0  0  0  0  0  0
   -5.1410    1.9110   -0.4580 C   0  0  0  0  0  0  0  0  0  0  0  0
   -6.1990    0.9840    0.0960 C   0  0  0  0  0  0  0  0  0  0  0  0
   -5.8470   -0.3710   -0.4720 C   0  0  2  0  0  0  0  0  0  0  0  0
   -6.4750   -1.4870    0.2130 C   0  0  0  0  0  0  0  0  0  0  0  0
   -7.7380   -1.5070    0.3220 O   0  0  0  0  0  0  0  0  0  0  0  0
   -5.8140   -2.5590    0.7750 O   0  0  0  0  0  0  0  0  0  0  0  0
   -1.1310   -1.2040    0.3260 C   0  0  0  0  0  0  0  0  0  0  0  0
    0.2070   -1.0310    0.0160 C   0  0  0  0  0  0  0  0  0  0  0  0
    4.9860   -1.6560   -1.0820 C   0  0  0  0  0  0  0  0  0  0  0  0
    4.2360   -2.6730   -1.1320 O   0  0  0  0  0  0  0  0  0  0  0  0
    6.2590   -1.7930   -1.6500 O   0  0  0  0  0  0  0  0  0  0  0  0
  1  2  2  0
  2  3  1  0
  2  4  1  0
  4  5  1  0
  6  5  1  1
  6  7  1  0
  6 27  1  0
  7  8  1  0
  8  9  2  0
  8 10  1  0
 10 11  2  0
 10 26  1  0
 11 12  1  0
 12 13  2  0
 13 14  1  0
 13 25  1  0
 14 15  2  0
 14 16  2  0
 14 17  1  6
 17 18  1  0
 17 21  1  0
 18 19  1  0
 19 20  1  0
 20 21  1  0
 21 22  1  1
 22 23  2  0
 22 24  1  0
 25 26  2  0
 27 28  2  0
 27 29  1  0
M  END
