
     RDKit          3D

 31 34  0  0  0  0  0  0  0  0999 V2000
    4.9330    2.6430   -1.4250 C   0  0  0  0  0  0  0  0  0  0  0  0
    4.3400    1.4540   -0.9820 O   0  0  0  0  0  0  0  0  0  0  0  0
    4.9580    0.7010   -0.0130 C   0  0  0  0  0  0  0  0  0  0  0  0
    6.1500    1.0920    0.5270 C   0  0  0  0  0  0  0  0  0  0  0  0
    6.7920    0.3640    1.4940 C   0  0  0  0  0  0  0  0  0  0  0  0
    7.9940    0.7320    2.0600 O   0  0  0  0  0  0  0  0  0  0  0  0
    6.2080   -0.8120    1.9400 C   0  0  0  0  0  0  0  0  0  0  0  0
    4.9940   -1.1980    1.3790 C   0  0  0  0  0  0  0  0  0  0  0  0
    4.3520   -0.4670    0.4100 C   0  0  0  0  0  0  0  0  0  0  0  0
    3.0760   -0.8890   -0.1670 C   0  0  0  0  0  0  0  0  0  0  0  0
    2.2730   -1.9300    0.0960 N   0  0  0  0  0  0  0  0  0  0  0  0
    1.1950   -1.9140   -0.6860 C   0  0  0  0  0  0  0  0  0  0  0  0
    0.0150   -2.7970   -0.8100 C   0  0  0  0  0  0  0  0  0  0  0  0
   -1.0680   -2.3650    0.1340 C   0  0  0  0  0  0  0  0  0  0  0  0
   -0.9820   -2.6230    1.3450 O   0  0  0  0  0  0  0  0  0  0  0  0
   -2.2060   -1.6490   -0.3390 N   0  0  0  0  0  0  0  0  0  0  0  0
   -3.2930   -1.1950    0.4360 C   0  0  0  0  0  0  0  0  0  0  0  0
   -3.6310   -1.8760    1.6070 C   0  0  0  0  0  0  0  0  0  0  0  0
   -4.7460   -1.5360    2.3570 C   0  0  0  0  0  0  0  0  0  0  0  0
   -5.0200   -2.2290    3.4700 F   0  0  0  0  0  0  0  0  0  0  0  0
   -5.5530   -0.5150    1.9670 C   0  0  0  0  0  0  0  0  0  0  0  0
   -5.2520    0.1810    0.8200 C   0  0  0  0  0  0  0  0  0  0  0  0
   -6.0730    1.1950    0.5030 N   0  0  0  0  0  0  0  0  0  0  0  0
   -5.7700    1.8940   -0.6010 C   0  0  0  0  0  0  0  0  0  0  0  0
   -6.6990    3.0310   -0.9280 C   0  0  0  0  0  0  0  0  0  0  0  0
   -4.7040    1.6020   -1.3530 N   0  0  0  0  0  0  0  0  0  0  0  0
   -3.8510    0.5720   -1.0490 C   0  0  0  0  0  0  0  0  0  0  0  0
   -2.8660    0.3630   -1.8080 O   0  0  0  0  0  0  0  0  0  0  0  0
   -4.1270   -0.1640    0.0660 C   0  0  0  0  0  0  0  0  0  0  0  0
    1.3540   -0.7710   -1.4910 C   0  0  0  0  0  0  0  0  0  0  0  0
    2.4720   -0.2090   -1.1450 O   0  0  0  0  0  0  0  0  0  0  0  0
  1  2  1  0
  2  3  1  0
  3  4  2  0
  3  9  1  0
  4  5  1  0
  5  6  1  0
  5  7  2  0
  7  8  1  0
  8  9  2  0
  9 10  1  0
 10 11  2  0
 10 31  1  0
 11 12  1  0
 12 13  1  0
 12 30  2  0
 13 14  1  0
 14 15  2  0
 14 16  1  0
 16 17  1  0
 17 18  2  0
 17 29  1  0
 18 19  1  0
 19 20  1  0
 19 21  2  0
 21 22  1  0
 22 23  1  0
 22 29  2  0
 23 24  2  0
 24 25  1  0
 24 26  1  0
 26 27  1  0
 27 28  2  0
 27 29  1  0
 30 31  1  0
M  END
