
     RDKit          3D

 34 38  0  0  0  0  0  0  0  0999 V2000
   -5.3400   -3.9830   -0.2220 C   0  0  0  0  0  0  0  0  0  0  0  0
   -5.0810   -2.5230   -0.4830 C   0  0  0  0  0  0  0  0  0  0  0  0
   -6.0650   -1.7160   -1.0180 C   0  0  0  0  0  0  0  0  0  0  0  0
   -5.8720   -0.3630   -1.2740 C   0  0  0  0  0  0  0  0  0  0  0  0
   -4.6300    0.1450   -0.9580 C   0  0  0  0  0  0  0  0  0  0  0  0
   -3.6330   -0.6460   -0.4210 C   0  0  0  0  0  0  0  0  0  0  0  0
   -3.8420   -1.9850   -0.1790 C   0  0  0  0  0  0  0  0  0  0  0  0
   -2.2630   -0.2470   -0.0490 C   0  0  0  0  0  0  0  0  0  0  0  0
   -1.6620   -0.9070    1.0850 C   0  0  0  0  0  0  0  0  0  0  0  0
   -2.2740   -1.7390    1.7660 O   0  0  0  0  0  0  0  0  0  0  0  0
   -0.3090   -0.6010    1.4480 N   0  0  0  0  0  0  0  0  0  0  0  0
    0.2800   -1.2850    2.6050 C   0  0  0  0  0  0  0  0  0  0  0  0
    1.6100   -1.9120    2.2140 C   0  0  0  0  0  0  0  0  0  0  0  0
    2.4570   -0.9200    1.5810 N   0  0  0  0  0  0  0  0  0  0  0  0
    3.7920   -1.2340    1.2200 C   0  0  0  0  0  0  0  0  0  0  0  0
    4.2310   -2.3860    1.4550 O   0  0  0  0  0  0  0  0  0  0  0  0
    4.6530   -0.2060    0.5730 C   0  0  0  0  0  0  0  0  0  0  0  0
    6.0310   -0.8290    0.3080 C   0  0  0  0  0  0  0  0  0  0  0  0
    6.8550    0.2150   -0.3300 C   0  0  0  0  0  0  0  0  0  0  0  0
    7.4170    0.1600   -1.5190 C   0  0  0  0  0  0  0  0  0  0  0  0
    8.1440    1.4040   -1.7660 C   0  0  0  0  0  0  0  0  0  0  0  0
    7.9310    2.2030   -0.5520 C   0  0  0  0  0  0  0  0  0  0  0  0
    7.1840    1.4970    0.2620 C   0  0  0  0  0  0  0  0  0  0  0  0
    6.7740    1.9400    1.5220 O   0  0  0  0  0  0  0  0  0  0  0  0
    1.8960    0.3900    1.3350 C   0  0  0  0  0  0  0  0  0  0  0  0
    0.5010    0.3360    0.7440 C   0  0  0  0  0  0  0  0  0  0  0  0
   -1.6060    0.7250   -0.6440 N   0  0  0  0  0  0  0  0  0  0  0  0
   -1.9880    1.5860   -1.7040 N   0  0  0  0  0  0  0  0  0  0  0  0
   -3.3360    2.0890   -1.8880 C   0  0  0  0  0  0  0  0  0  0  0  0
   -3.5260    3.0790   -2.6120 O   0  0  0  0  0  0  0  0  0  0  0  0
   -4.5410    1.5450   -1.2980 N   0  0  0  0  0  0  0  0  0  0  0  0
   -5.6930    2.3650   -1.0940 C   0  0  2  0  0  0  0  0  0  0  0  0
   -5.7000    2.8270    0.4380 C   0  0  0  0  0  0  0  0  0  0  0  0
   -6.8310    2.1450   -0.2100 C   0  0  0  0  0  0  0  0  0  0  0  0
  1  2  1  0
  2  3  2  0
  2  7  1  0
  3  4  1  0
  4  5  2  0
  5  6  1  0
  5 31  1  0
  6  7  2  0
  6  8  1  0
  8  9  1  0
  8 27  2  0
  9 10  2  0
  9 11  1  0
 11 12  1  0
 11 26  1  0
 12 13  1  0
 13 14  1  0
 14 15  1  0
 14 25  1  0
 15 16  2  0
 15 17  1  0
 17 18  1  0
 18 19  1  0
 19 20  2  0
 19 23  1  0
 20 21  1  0
 21 22  1  0
 22 23  2  0
 23 24  1  0
 25 26  1  0
 27 28  1  0
 28 29  1  0
 29 30  2  0
 29 31  1  0
 32 31  1  1
 32 33  1  0
 32 34  1  0
 33 34  1  0
M  END
