
     RDKit          3D

 34 38  0  0  0  0  0  0  0  0999 V2000
    1.4860   -3.6640    0.4400 C   0  0  0  0  0  0  0  0  0  0  0  0
    2.1780   -2.3480    0.3530 C   0  0  0  0  0  0  0  0  0  0  0  0
    2.5530   -1.8620   -0.8700 C   0  0  0  0  0  0  0  0  0  0  0  0
    3.1900   -0.6510   -0.9540 C   0  0  0  0  0  0  0  0  0  0  0  0
    3.4890    0.1340    0.1340 C   0  0  0  0  0  0  0  0  0  0  0  0
    4.1670    1.3760    0.0880 N   0  0  0  0  0  0  0  0  0  0  0  0
    5.4810    1.5420    0.3580 N   0  0  0  0  0  0  0  0  0  0  0  0
    5.8380    2.8050    0.2360 C   0  0  0  0  0  0  0  0  0  0  0  0
    4.7180    3.5110   -0.1300 C   0  0  0  0  0  0  0  0  0  0  0  0
    4.4940    4.7990   -0.3870 N   0  0  0  0  0  0  0  0  0  0  0  0
    3.2790    5.2390   -0.7310 C   0  0  0  0  0  0  0  0  0  0  0  0
    3.0830    6.4830   -0.9750 O   0  0  0  0  0  0  0  0  0  0  0  0
    2.2750    4.3220   -0.8110 C   0  0  0  0  0  0  0  0  0  0  0  0
    1.1100    4.6910   -1.1330 O   0  0  0  0  0  0  0  0  0  0  0  0
    2.4380    3.0110   -0.5640 N   0  0  0  0  0  0  0  0  0  0  0  0
    1.3620    2.1050   -0.6630 C   0  0  0  0  0  0  0  0  0  0  0  0
    0.6980    1.7330    0.4810 C   0  0  0  0  0  0  0  0  0  0  0  0
   -0.3940    0.8560    0.4370 C   0  0  0  0  0  0  0  0  0  0  0  0
   -0.8140    0.3570   -0.7540 C   0  0  0  0  0  0  0  0  0  0  0  0
   -1.9580   -0.5710   -0.8720 C   0  0  0  0  0  0  0  0  0  0  0  0
   -2.2890   -1.0300   -2.0040 O   0  0  0  0  0  0  0  0  0  0  0  0
   -2.7340   -0.9950    0.2320 N   0  0  0  0  0  0  0  0  0  0  0  0
   -3.8510   -1.9120    0.0570 C   0  0  1  0  0  0  0  0  0  0  0  0
   -3.3760   -3.1890   -0.5160 C   0  0  0  0  0  0  0  0  0  0  0  0
   -2.1980   -3.3420   -0.7610 O   0  0  0  0  0  0  0  0  0  0  0  0
   -4.5820   -2.1650    1.3340 C   0  0  0  0  0  0  0  0  0  0  0  0
   -5.9310   -1.4510    1.1850 C   0  0  0  0  0  0  0  0  0  0  0  0
   -6.2070   -1.4520   -0.3070 C   0  0  0  0  0  0  0  0  0  0  0  0
   -4.8360   -1.2620   -0.8970 C   0  0  0  0  0  0  0  0  0  0  0  0
   -0.1600    0.7190   -1.9080 C   0  0  0  0  0  0  0  0  0  0  0  0
    0.9120    1.5820   -1.8530 C   0  0  0  0  0  0  0  0  0  0  0  0
    3.6630    2.5760   -0.2180 C   0  0  0  0  0  0  0  0  0  0  0  0
    3.0990   -0.3750    1.3770 C   0  0  0  0  0  0  0  0  0  0  0  0
    2.4550   -1.5970    1.4760 C   0  0  0  0  0  0  0  0  0  0  0  0
  1  2  1  0
  2  3  2  0
  2 34  1  0
  3  4  1  0
  4  5  2  0
  5  6  1  0
  5 33  1  0
  6  7  1  0
  6 32  1  0
  7  8  2  0
  8  9  1  0
  9 10  1  0
  9 32  2  0
 10 11  1  0
 11 12  2  0
 11 13  1  0
 13 14  2  0
 13 15  1  0
 15 16  1  0
 15 32  1  0
 16 17  2  0
 16 31  1  0
 17 18  1  0
 18 19  2  0
 19 20  1  0
 19 30  1  0
 20 21  2  0
 20 22  1  0
 23 22  1  1
 23 24  1  0
 23 26  1  0
 23 29  1  0
 24 25  2  0
 26 27  1  0
 27 28  1  0
 28 29  1  0
 30 31  2  0
 33 34  2  0
M  END
