
     RDKit          3D

 34 38  0  0  0  0  0  0  0  0999 V2000
   -1.1770   -1.5440    1.0390 O   0  0  0  0  0  0  0  0  0  0  0  0
   -1.2990   -0.7490    0.1000 C   0  0  0  0  0  0  0  0  0  0  0  0
   -0.1470   -0.4660   -0.8420 C   0  0  0  0  0  0  0  0  0  0  0  0
    0.9260   -1.2860   -0.4330 O   0  0  0  0  0  0  0  0  0  0  0  0
    1.4670   -1.1300    0.8260 C   0  0  0  0  0  0  0  0  0  0  0  0
    1.0430   -0.2670    1.6430 O   0  0  0  0  0  0  0  0  0  0  0  0
    2.6110   -2.0260    1.2390 C   0  0  0  0  0  0  0  0  0  0  0  0
    3.8750   -1.5490    0.6870 N   0  0  0  0  0  0  0  0  0  0  0  0
    4.6670   -0.7070    1.2820 N   0  0  0  0  0  0  0  0  0  0  0  0
    5.7280   -0.5100    0.4750 C   0  0  0  0  0  0  0  0  0  0  0  0
    5.6160   -1.2280   -0.6460 N   0  0  0  0  0  0  0  0  0  0  0  0
    4.4250   -1.8870   -0.4910 C   0  0  0  0  0  0  0  0  0  0  0  0
    3.9460   -2.6740   -1.3270 O   0  0  0  0  0  0  0  0  0  0  0  0
    6.5720   -1.1820   -1.6950 C   0  0  0  0  0  0  0  0  0  0  0  0
    7.8560   -0.5360   -1.3880 C   0  0  0  0  0  0  0  0  0  0  0  0
    7.8900    0.3150   -0.2020 C   0  0  0  0  0  0  0  0  0  0  0  0
    8.9920    1.1490    0.0380 C   0  0  0  0  0  0  0  0  0  0  0  0
    9.0510    1.9160    1.1750 C   0  0  0  0  0  0  0  0  0  0  0  0
    8.0500    1.9080    2.1230 C   0  0  0  0  0  0  0  0  0  0  0  0
    6.9830    1.0970    1.8820 C   0  0  0  0  0  0  0  0  0  0  0  0
    6.8940    0.3040    0.7310 C   0  0  0  0  0  0  0  0  0  0  0  0
   -2.5130   -0.0670   -0.1430 N   0  0  0  0  0  0  0  0  0  0  0  0
   -3.6980   -0.1760    0.6120 C   0  0  0  0  0  0  0  0  0  0  0  0
   -3.6790   -0.6180    1.9030 C   0  0  0  0  0  0  0  0  0  0  0  0
   -4.8400   -0.6290    2.6610 C   0  0  0  0  0  0  0  0  0  0  0  0
   -6.0170   -0.1950    2.1190 C   0  0  0  0  0  0  0  0  0  0  0  0
   -6.0940    0.2580    0.8280 C   0  0  0  0  0  0  0  0  0  0  0  0
   -4.9070    0.2540    0.0910 C   0  0  0  0  0  0  0  0  0  0  0  0
   -4.6350    0.5830   -1.2700 N   0  0  0  0  0  0  0  0  0  0  0  0
   -5.1030    1.5840   -2.1860 C   0  0  0  0  0  0  0  0  0  0  0  0
   -6.5670    1.8730   -1.8140 C   0  0  0  0  0  0  0  0  0  0  0  0
   -7.3140    0.5930   -1.9370 C   0  0  0  0  0  0  0  0  0  0  0  0
   -8.0210    0.1130   -0.7230 C   0  0  0  0  0  0  0  0  0  0  0  0
   -7.5130    0.6440    0.5860 C   0  0  0  0  0  0  0  0  0  0  0  0
  1  2  2  0
  2  3  1  0
  2 22  1  0
  3  4  1  0
  4  5  1  0
  5  6  2  0
  5  7  1  0
  7  8  1  0
  8  9  1  0
  8 12  1  0
  9 10  2  0
 10 11  1  0
 10 21  1  0
 11 12  1  0
 11 14  1  0
 12 13  2  0
 14 15  1  0
 15 16  1  0
 16 17  2  0
 16 21  1  0
 17 18  1  0
 18 19  2  0
 19 20  1  0
 20 21  2  0
 22 23  1  0
 23 24  2  0
 23 28  1  0
 24 25  1  0
 25 26  2  0
 26 27  1  0
 27 28  2  0
 27 34  1  0
 28 29  1  0
 29 30  1  0
 30 31  1  0
 31 32  1  0
 32 33  1  0
 33 34  1  0
M  END
