
     RDKit          3D

 34 38  0  0  0  0  0  0  0  0999 V2000
   -7.4790   -0.7530    1.1080 C   0  0  0  0  0  0  0  0  0  0  0  0
   -6.2800   -0.6200    0.2570 C   0  0  0  0  0  0  0  0  0  0  0  0
   -5.0080   -0.4200    0.7980 C   0  0  0  0  0  0  0  0  0  0  0  0
   -3.9240   -0.2950    0.0040 N   0  0  0  0  0  0  0  0  0  0  0  0
   -2.6890   -0.1040    0.5830 C   0  0  0  0  0  0  0  0  0  0  0  0
   -2.5970   -0.0460    1.8190 O   0  0  0  0  0  0  0  0  0  0  0  0
   -1.5710    0.0210   -0.1910 C   0  0  0  0  0  0  0  0  0  0  0  0
   -0.2240    0.2400    0.2930 C   0  0  0  0  0  0  0  0  0  0  0  0
    0.7130    0.1060   -0.5750 O   0  0  0  0  0  0  0  0  0  0  0  0
    0.1990    0.5790    1.5750 N   0  0  0  0  0  0  0  0  0  0  0  0
    1.5100    0.7820    2.0540 C   0  0  0  0  0  0  0  0  0  0  0  0
    2.6790    0.6450    1.3550 C   0  0  0  0  0  0  0  0  0  0  0  0
    3.9310    0.8940    1.9030 C   0  0  0  0  0  0  0  0  0  0  0  0
    5.1250    0.7070    1.0560 C   0  0  0  0  0  0  0  0  0  0  0  0
    6.2360    1.4790    1.2380 C   0  0  0  0  0  0  0  0  0  0  0  0
    7.3800    1.3560    0.4820 C   0  0  0  0  0  0  0  0  0  0  0  0
    7.4000    0.3860   -0.5260 C   0  0  0  0  0  0  0  0  0  0  0  0
    6.3050   -0.4140   -0.7440 C   0  0  0  0  0  0  0  0  0  0  0  0
    5.1660   -0.2430    0.0590 C   0  0  0  0  0  0  0  0  0  0  0  0
    6.6060   -1.3450   -1.8520 C   0  0  0  0  0  0  0  0  0  0  0  0
    8.1310   -1.2890   -1.9210 C   0  0  0  0  0  0  0  0  0  0  0  0
    8.4350    0.0500   -1.4480 N   0  0  0  0  0  0  0  0  0  0  0  0
    4.0240    1.3000    3.2110 C   0  0  0  0  0  0  0  0  0  0  0  0
    2.8500    1.4380    3.9150 C   0  0  0  0  0  0  0  0  0  0  0  0
    1.6770    1.1890    3.3530 N   0  0  0  0  0  0  0  0  0  0  0  0
   -1.7880   -0.0600   -1.5700 C   0  0  0  0  0  0  0  0  0  0  0  0
   -3.0020   -0.2470   -2.1130 N   0  0  0  0  0  0  0  0  0  0  0  0
   -4.0760   -0.3650   -1.3090 C   0  0  0  0  0  0  0  0  0  0  0  0
   -5.3260   -0.5630   -1.8810 C   0  0  0  0  0  0  0  0  0  0  0  0
   -6.4490   -0.6940   -1.0980 C   0  0  0  0  0  0  0  0  0  0  0  0
   -7.7390   -0.9140   -1.7140 C   0  0  0  0  0  0  0  0  0  0  0  0
   -8.6630    0.2050   -1.7190 C   0  0  0  0  0  0  0  0  0  0  0  0
   -8.3440    1.2980   -1.2210 O   0  0  0  0  0  0  0  0  0  0  0  0
   -9.9160    0.0930   -2.2740 O   0  0  0  0  0  0  0  0  0  0  0  0
  1  2  1  0
  2  3  2  0
  2 30  1  0
  3  4  1  0
  4  5  1  0
  4 28  1  0
  5  6  2  0
  5  7  1  0
  7  8  1  0
  7 26  2  0
  8  9  2  0
  8 10  1  0
 10 11  1  0
 11 12  2  0
 11 25  1  0
 12 13  1  0
 13 14  1  0
 13 23  2  0
 14 15  2  0
 14 19  1  0
 15 16  1  0
 16 17  2  0
 17 18  1  0
 17 22  1  0
 18 19  2  0
 18 20  1  0
 20 21  1  0
 21 22  1  0
 23 24  1  0
 24 25  2  0
 26 27  1  0
 27 28  2  0
 28 29  1  0
 29 30  2  0
 30 31  1  0
 31 32  1  0
 32 33  2  0
 32 34  1  0
M  END
