
     RDKit          3D

 35 38  0  0  0  0  0  0  0  0999 V2000
   -9.5270   -0.3390    2.3120 C   0  0  0  0  0  0  0  0  0  0  0  0
   -9.5000   -0.2860    0.8440 C   0  0  0  0  0  0  0  0  0  0  0  0
  -10.5880   -0.3060    0.0150 C   0  0  0  0  0  0  0  0  0  0  0  0
  -10.1820   -0.2420   -1.2750 N   0  0  0  0  0  0  0  0  0  0  0  0
   -8.8330   -0.1820   -1.2460 C   0  0  0  0  0  0  0  0  0  0  0  0
   -7.8820   -0.1040   -2.2350 C   0  0  0  0  0  0  0  0  0  0  0  0
   -6.5170   -0.0530   -1.9320 C   0  0  0  0  0  0  0  0  0  0  0  0
   -6.0500   -0.0770   -0.6520 C   0  0  0  0  0  0  0  0  0  0  0  0
   -4.6840   -0.0360   -0.2630 N   0  0  0  0  0  0  0  0  0  0  0  0
   -3.5620   -0.0560   -1.1120 C   0  0  0  0  0  0  0  0  0  0  0  0
   -3.7070   -0.1150   -2.3440 O   0  0  0  0  0  0  0  0  0  0  0  0
   -2.1900   -0.0070   -0.5490 C   0  0  0  0  0  0  0  0  0  0  0  0
   -2.0550    0.0540    0.6860 O   0  0  0  0  0  0  0  0  0  0  0  0
   -1.0550   -0.0290   -1.3960 N   0  0  0  0  0  0  0  0  0  0  0  0
    0.2960    0.0140   -0.9840 C   0  0  0  0  0  0  0  0  0  0  0  0
    0.7730    0.1640    0.2700 C   0  0  0  0  0  0  0  0  0  0  0  0
    2.1360    0.1830    0.5550 C   0  0  0  0  0  0  0  0  0  0  0  0
    3.0670    0.0520   -0.4150 C   0  0  0  0  0  0  0  0  0  0  0  0
    4.4540    0.0580   -0.2240 N   0  0  0  0  0  0  0  0  0  0  0  0
    5.1780    0.2070    0.9740 C   0  0  0  0  0  0  0  0  0  0  0  0
    4.5350    0.3590    2.0410 O   0  0  0  0  0  0  0  0  0  0  0  0
    6.6530    0.1950    1.0480 C   0  0  0  0  0  0  0  0  0  0  0  0
    7.2680    0.5530    2.2410 C   0  0  0  0  0  0  0  0  0  0  0  0
    8.6390    0.5630    2.3880 C   0  0  0  0  0  0  0  0  0  0  0  0
    9.4310    0.2010    1.3020 C   0  0  0  0  0  0  0  0  0  0  0  0
    8.8450   -0.1580    0.1100 C   0  0  0  0  0  0  0  0  0  0  0  0
    9.6840   -0.5430   -1.0460 C   0  0  0  0  0  0  0  0  0  0  0  0
   10.1080    0.8590   -2.0700 S   0  0  0  0  0  0  0  0  0  0  0  0
   11.4600    0.5610   -2.7310 O   0  0  0  0  0  0  0  0  0  0  0  0
    7.4480   -0.1610   -0.0150 C   0  0  0  0  0  0  0  0  0  0  0  0
    2.5890   -0.1050   -1.7220 C   0  0  0  0  0  0  0  0  0  0  0  0
    3.7140   -0.2820   -3.0670 Cl  0  0  0  0  0  0  0  0  0  0  0  0
    1.2450   -0.1240   -2.0050 C   0  0  0  0  0  0  0  0  0  0  0  0
   -7.0240   -0.1560    0.3500 C   0  0  0  0  0  0  0  0  0  0  0  0
   -8.3700   -0.2070    0.0600 C   0  0  0  0  0  0  0  0  0  0  0  0
  1  2  1  0
  2  3  2  0
  2 35  1  0
  3  4  1  0
  4  5  1  0
  5  6  2  0
  5 35  1  0
  6  7  1  0
  7  8  2  0
  8  9  1  0
  8 34  1  0
  9 10  1  0
 10 11  2  0
 10 12  1  0
 12 13  2  0
 12 14  1  0
 14 15  1  0
 15 16  2  0
 15 33  1  0
 16 17  1  0
 17 18  2  0
 18 19  1  0
 18 31  1  0
 19 20  1  0
 20 21  2  0
 20 22  1  0
 22 23  2  0
 22 30  1  0
 23 24  1  0
 24 25  2  0
 25 26  1  0
 26 27  1  0
 26 30  2  0
 27 28  1  0
 28 29  2  0
 31 32  1  0
 31 33  2  0
 34 35  2  0
M  END
