
     RDKit          3D

 34 38  0  0  0  0  0  0  0  0999 V2000
   -9.1190    0.0320    0.1260 C   0  0  0  0  0  0  0  0  0  0  0  0
   -8.4800    1.1450   -0.1430 C   0  0  0  0  0  0  0  0  0  0  0  0
   -9.1000    2.3780   -0.3500 O   0  0  0  0  0  0  0  0  0  0  0  0
   -8.1170    3.3270   -0.5850 N   0  0  0  0  0  0  0  0  0  0  0  0
   -6.8430    2.6530   -0.5240 C   0  0  0  0  0  0  0  0  0  0  0  0
   -7.0540    1.3900   -0.2720 C   0  0  0  0  0  0  0  0  0  0  0  0
   -5.9850    0.3640   -0.0930 C   0  0  0  0  0  0  0  0  0  0  0  0
   -4.6700    0.3920    0.0200 N   0  0  0  0  0  0  0  0  0  0  0  0
   -4.1680   -0.8550    0.1740 C   0  0  0  0  0  0  0  0  0  0  0  0
   -2.8200   -1.3360    0.6360 C   0  0  0  0  0  0  0  0  0  0  0  0
   -1.8090   -1.4140   -0.2800 N   0  0  0  0  0  0  0  0  0  0  0  0
   -1.5720   -0.5180   -1.3020 C   0  0  0  0  0  0  0  0  0  0  0  0
   -1.0930    0.8570   -0.8210 C   0  0  0  0  0  0  0  0  0  0  0  0
    0.0710    0.6470    0.0140 N   0  0  0  0  0  0  0  0  0  0  0  0
    1.0390    1.7390    0.0040 C   0  0  0  0  0  0  0  0  0  0  0  0
    0.6230    2.8760   -0.3100 O   0  0  0  0  0  0  0  0  0  0  0  0
    2.3950    1.4230    0.3390 C   0  0  0  0  0  0  0  0  0  0  0  0
    3.4490    2.1700    0.3350 C   0  0  0  0  0  0  0  0  0  0  0  0
    4.7190    1.4250    0.7390 C   0  0  0  0  0  0  0  0  0  0  0  0
    4.6910    0.4190    1.6340 C   0  0  0  0  0  0  0  0  0  0  0  0
    5.7130   -0.5410    1.6740 C   0  0  0  0  0  0  0  0  0  0  0  0
    6.7460   -0.4450    0.7770 C   0  0  0  0  0  0  0  0  0  0  0  0
    6.7940    0.5870   -0.1500 C   0  0  0  0  0  0  0  0  0  0  0  0
    5.7810    1.5460   -0.1830 C   0  0  0  0  0  0  0  0  0  0  0  0
    7.8950    0.7370   -1.1280 C   0  0  0  0  0  0  0  0  0  0  0  0
    8.8860   -0.3770   -1.1450 C   0  0  0  0  0  0  0  0  0  0  0  0
    8.4290   -1.6320   -0.5230 C   0  0  0  0  0  0  0  0  0  0  0  0
    8.7770   -2.7650   -1.0040 O   0  0  0  0  0  0  0  0  0  0  0  0
    7.6050   -1.6000    0.6060 N   0  0  0  0  0  0  0  0  0  0  0  0
    0.2180   -0.5200    0.8260 C   0  0  0  0  0  0  0  0  0  0  0  0
   -0.5100   -1.7600    0.3210 C   0  0  0  0  0  0  0  0  0  0  0  0
   -5.3040   -1.6540    0.1390 C   0  0  0  0  0  0  0  0  0  0  0  0
   -5.2120   -3.1510    0.2420 C   0  0  0  0  0  0  0  0  0  0  0  0
   -6.3440   -0.9270   -0.0150 O   0  0  0  0  0  0  0  0  0  0  0  0
  1  2  2  0
  2  3  1  0
  2  6  1  0
  3  4  1  0
  4  5  1  0
  5  6  2  0
  6  7  1  0
  7  8  2  0
  7 34  1  0
  8  9  1  0
  9 10  1  0
  9 32  2  0
 10 11  1  0
 11 12  1  0
 11 31  1  0
 12 13  1  0
 13 14  1  0
 14 15  1  0
 14 30  1  0
 15 16  2  0
 15 17  1  0
 17 18  2  3
 18 19  1  0
 19 20  2  0
 19 24  1  0
 20 21  1  0
 21 22  2  0
 22 23  1  0
 22 29  1  0
 23 24  2  0
 23 25  1  0
 25 26  1  0
 26 27  1  0
 27 28  2  0
 27 29  1  0
 30 31  1  0
 32 33  1  0
 32 34  1  0
M  END
