
     RDKit          3D

 35 38  0  0  0  0  0  0  0  0999 V2000
   -2.1400    5.7880    0.4300 C   0  0  0  0  0  0  0  0  0  0  0  0
   -2.8610    4.6210   -0.1640 C   0  0  0  0  0  0  0  0  0  0  0  0
   -3.8130    4.7850   -1.1380 C   0  0  0  0  0  0  0  0  0  0  0  0
   -4.4380    3.6620   -1.6430 C   0  0  0  0  0  0  0  0  0  0  0  0
   -4.1240    2.4060   -1.1920 C   0  0  0  0  0  0  0  0  0  0  0  0
   -3.1660    2.2090   -0.2080 C   0  0  0  0  0  0  0  0  0  0  0  0
   -2.8530    0.8880    0.3040 C   0  0  0  0  0  0  0  0  0  0  0  0
   -1.4570    0.4140    0.3510 C   0  0  0  0  0  0  0  0  0  0  0  0
   -1.2020   -0.7290    0.8300 O   0  0  0  0  0  0  0  0  0  0  0  0
   -0.3800    1.1810   -0.1220 N   0  0  0  0  0  0  0  0  0  0  0  0
    0.9950    0.8450   -0.1260 C   0  0  0  0  0  0  0  0  0  0  0  0
    1.9190    1.7570   -0.6630 C   0  0  0  0  0  0  0  0  0  0  0  0
    3.2630    1.5010   -0.7050 C   0  0  0  0  0  0  0  0  0  0  0  0
    3.8020    0.3190   -0.2180 C   0  0  0  0  0  0  0  0  0  0  0  0
    5.2250    0.1230   -0.2990 C   0  0  0  0  0  0  0  0  0  0  0  0
    5.9260    1.0600   -0.8220 O   0  0  0  0  0  0  0  0  0  0  0  0
    5.9510   -0.9900    0.1310 N   0  0  0  0  0  0  0  0  0  0  0  0
    7.4240   -1.0130   -0.0390 C   0  0  0  0  0  0  0  0  0  0  0  0
    8.2700   -1.9680    0.3020 C   0  0  0  0  0  0  0  0  0  0  0  0
    9.5860   -1.8140    0.0670 C   0  0  0  0  0  0  0  0  0  0  0  0
    9.9900   -0.6500   -0.5260 C   0  0  0  0  0  0  0  0  0  0  0  0
    8.3860    0.2210   -0.7340 S   0  0  0  0  0  0  0  0  0  0  0  0
    2.9120   -0.5790    0.3100 C   0  0  0  0  0  0  0  0  0  0  0  0
    3.3690   -1.7810    0.8160 O   0  0  0  0  0  0  0  0  0  0  0  0
    1.5330   -0.3070    0.3490 C   0  0  0  0  0  0  0  0  0  0  0  0
   -3.7820    0.0620    0.7360 C   0  0  0  0  0  0  0  0  0  0  0  0
   -5.4480    0.5870    0.6850 Cl  0  0  0  0  0  0  0  0  0  0  0  0
   -3.4760   -1.2200    1.2320 N   0  0  0  0  0  0  0  0  0  0  0  0
   -3.9830   -2.3200    0.8110 C   0  0  0  0  0  0  0  0  0  0  0  0
   -4.9750   -2.4700   -0.2590 C   0  0  0  0  0  0  0  0  0  0  0  0
   -5.3420   -3.8080   -0.2970 O   0  0  0  0  0  0  0  0  0  0  0  0
   -4.7970   -4.4490    0.8040 C   0  0  1  0  0  0  0  0  0  0  0  0
   -4.2840   -5.8220    0.4810 C   0  0  0  0  0  0  0  0  0  0  0  0
   -3.7110   -3.6160    1.2770 N   0  0  0  0  0  0  0  0  0  0  0  0
   -2.5540    3.3620    0.2820 C   0  0  0  0  0  0  0  0  0  0  0  0
  1  2  1  0
  2  3  2  0
  2 35  1  0
  3  4  1  0
  4  5  2  0
  5  6  1  0
  6  7  1  0
  6 35  2  0
  7  8  1  0
  7 26  2  3
  8  9  2  0
  8 10  1  0
 10 11  1  0
 11 12  2  0
 11 25  1  0
 12 13  1  0
 13 14  2  0
 14 15  1  0
 14 23  1  0
 15 16  2  0
 15 17  1  0
 17 18  1  0
 18 19  2  0
 18 22  1  0
 19 20  1  0
 20 21  2  0
 21 22  1  0
 23 24  1  0
 23 25  2  0
 26 27  1  0
 26 28  1  0
 28 29  2  3
 29 30  1  0
 29 34  1  0
 30 31  1  0
 31 32  1  0
 32 33  1  6
 32 34  1  0
M  END
