
     RDKit          3D

 21 23  0  0  0  0  0  0  0  0999 V2000
   -4.1850    1.9770    0.1410 C   0  0  0  0  0  0  0  0  0  0  0  0
   -3.6720    0.7780   -0.6430 C   0  0  1  0  0  0  0  0  0  0  0  0
   -2.1980    0.6240   -0.5160 C   0  0  0  0  0  0  0  0  0  0  0  0
   -1.7340   -0.7520   -0.1700 C   0  0  1  0  0  0  0  0  0  0  0  0
   -2.5920   -1.8480   -0.7220 C   0  0  0  0  0  0  0  0  0  0  0  0
   -4.0270   -1.4900   -0.8870 C   0  0  0  0  0  0  0  0  0  0  0  0
   -4.4020   -0.3240   -0.2360 O   0  0  0  0  0  0  0  0  0  0  0  0
   -0.3040   -0.8840   -0.7370 C   0  0  0  0  0  0  0  0  0  0  0  0
    0.4200    0.0490    0.1960 C   0  0  2  0  0  0  0  0  0  0  0  0
    1.8550   -0.2240    0.3820 C   0  0  2  0  0  0  0  0  0  0  0  0
    1.9850   -1.5240    0.9240 O   0  0  0  0  0  0  0  0  0  0  0  0
    2.4060    0.7240    1.4250 C   0  0  0  0  0  0  0  0  0  0  0  0
    2.8760    2.0370    0.8270 C   0  0  0  0  0  0  0  0  0  0  0  0
    4.0330    1.7850   -0.0820 C   0  0  0  0  0  0  0  0  0  0  0  0
    4.0860    0.3260   -0.4320 C   0  0  0  0  0  0  0  0  0  0  0  0
    2.7020   -0.1950   -0.8460 C   0  0  1  0  0  0  0  0  0  0  0  0
    2.9930   -1.6010   -1.3880 C   0  0  0  0  0  0  0  0  0  0  0  0
    2.1990    0.6490   -1.9630 C   0  0  0  0  0  0  0  0  0  0  0  0
   -0.2720   -0.0920    1.5450 C   0  0  0  0  0  0  0  0  0  0  0  0
   -1.4390   -0.9610    1.2720 C   0  0  1  0  0  0  0  0  0  0  0  0
   -2.6080   -0.7580    2.1820 C   0  0  0  0  0  0  0  0  0  0  0  0
  2  1  1  1
  2  3  1  0
  2  7  1  0
  4  3  1  1
  4  5  1  0
  4  8  1  0
  4 20  1  0
  5  6  1  0
  6  7  1  0
  9  8  1  6
  9 10  1  0
  9 19  1  0
 10 11  1  1
 10 12  1  0
 10 16  1  0
 12 13  1  0
 13 14  1  0
 14 15  1  0
 15 16  1  0
 16 17  1  6
 16 18  1  0
 19 20  1  0
 20 21  1  1
M  END
