
     RDKit          3D

 21 24  0  0  0  0  0  0  0  0999 V2000
   -4.3340   -0.8350    2.1210 C   0  0  0  0  0  0  0  0  0  0  0  0
   -3.0970   -0.3930    1.4200 C   0  0  0  0  0  0  0  0  0  0  0  0
   -2.1550   -1.1840    0.9220 C   0  0  0  0  0  0  0  0  0  0  0  0
   -1.1170   -0.3290    0.3200 C   0  0  1  0  0  0  0  0  0  0  0  0
   -0.2470   -1.0000   -0.6580 C   0  0  2  0  0  0  0  0  0  0  0  0
   -0.8890   -1.5940   -1.8520 C   0  0  0  0  0  0  0  0  0  0  0  0
    0.1400   -2.1750   -2.6330 O   0  0  0  0  0  0  0  0  0  0  0  0
    0.4820   -2.1110    0.0790 C   0  0  0  0  0  0  0  0  0  0  0  0
    1.4640   -1.3950    0.7880 O   0  0  0  0  0  0  0  0  0  0  0  0
    1.9640   -0.4430   -0.0870 C   0  0  0  0  0  0  0  0  0  0  0  0
    3.1940    0.0790   -0.0180 C   0  0  0  0  0  0  0  0  0  0  0  0
    4.2500   -0.2390    0.9770 C   0  0  0  0  0  0  0  0  0  0  0  0
    4.8060    1.1360    1.2800 C   0  0  0  0  0  0  0  0  0  0  0  0
    4.8770    1.7450   -0.1090 C   0  0  0  0  0  0  0  0  0  0  0  0
    3.7940    1.0980   -0.9170 C   0  0  0  0  0  0  0  0  0  0  0  0
    0.9030   -0.1300   -1.0770 C   0  0  0  0  0  0  0  0  0  0  0  0
   -1.8480    0.8810   -0.0810 C   0  0  1  0  0  0  0  0  0  0  0  0
   -2.8920    0.7200   -1.1300 C   0  0  0  0  0  0  0  0  0  0  0  0
   -3.9790    1.6510   -0.6420 C   0  0  0  0  0  0  0  0  0  0  0  0
   -3.8770    1.8290    0.6660 C   0  0  0  0  0  0  0  0  0  0  0  0
   -2.7390    1.0530    1.1700 C   0  0  1  0  0  0  0  0  0  0  0  0
  1  2  1  0
  2  3  2  0
  2 21  1  0
  4  3  1  6
  4  5  1  0
  4 17  1  0
  5  6  1  6
  5  8  1  0
  5 16  1  0
  6  7  1  0
  8  9  1  0
  9 10  1  0
 10 11  2  3
 10 16  1  0
 11 12  1  0
 11 15  1  0
 12 13  1  0
 13 14  1  0
 14 15  1  0
 17 18  1  6
 17 21  1  0
 18 19  1  0
 19 20  2  0
 21 20  1  6
M  END
