
     RDKit          3D

 21 24  0  0  0  0  0  0  0  0999 V2000
    0.3430    1.7060    0.8230 C   0  0  0  0  0  0  0  0  0  0  0  0
    0.0870    0.2320    0.4840 C   0  0  1  0  0  0  0  0  0  0  0  0
    0.8130   -0.2740   -0.6520 C   0  0  1  0  0  0  0  0  0  0  0  0
    0.2350   -1.5470   -0.9850 O   0  0  0  0  0  0  0  0  0  0  0  0
    0.7280    0.5430   -1.9140 C   0  0  0  0  0  0  0  0  0  0  0  0
    1.9970    1.3240   -2.1760 C   0  0  0  0  0  0  0  0  0  0  0  0
    2.6860    1.6080   -0.9610 O   0  0  0  0  0  0  0  0  0  0  0  0
    3.2670    0.4370   -0.5980 C   0  0  1  0  0  0  0  0  0  0  0  0
    3.9290    0.3400    0.7300 C   0  0  0  0  0  0  0  0  0  0  0  0
    3.8890   -1.1410    1.1000 C   0  0  0  0  0  0  0  0  0  0  0  0
    2.7330   -1.7380    0.2840 C   0  0  0  0  0  0  0  0  0  0  0  0
    2.2630   -0.6560   -0.6130 C   0  0  1  0  0  0  0  0  0  0  0  0
    0.4920   -0.3970    1.8460 C   0  0  0  0  0  0  0  0  0  0  0  0
   -0.4470    0.3340    2.7900 C   0  0  0  0  0  0  0  0  0  0  0  0
   -1.7120    0.3730    2.0520 C   0  0  0  0  0  0  0  0  0  0  0  0
   -1.3670   -0.0080    0.6170 C   0  0  1  0  0  0  0  0  0  0  0  0
   -2.3760    0.3440   -0.3610 C   0  0  1  0  0  0  0  0  0  0  0  0
   -2.4930   -0.4720   -1.6110 C   0  0  0  0  0  0  0  0  0  0  0  0
   -3.9840   -0.4150   -1.9940 C   0  0  0  0  0  0  0  0  0  0  0  0
   -4.6140   -0.5540   -0.6050 C   0  0  0  0  0  0  0  0  0  0  0  0
   -3.7810    0.4570    0.1420 C   0  0  0  0  0  0  0  0  0  0  0  0
  2  1  1  1
  2  3  1  0
  2 13  1  0
  2 16  1  0
  3  4  1  6
  3  5  1  0
  3 12  1  0
  5  6  1  0
  6  7  1  0
  7  8  1  0
  8  9  1  1
  8 12  1  0
  9 10  1  0
 10 11  1  0
 12 11  1  1
 13 14  1  0
 14 15  1  0
 16 15  1  1
 16 17  1  0
 17 18  1  6
 17 21  1  0
 18 19  1  0
 19 20  1  0
 20 21  1  0
M  END
