
     RDKit          3D

 21 23  0  0  0  0  0  0  0  0999 V2000
   -4.6730   -1.6910   -1.2050 C   0  0  0  0  0  0  0  0  0  0  0  0
   -3.9150   -0.6020   -0.5260 C   0  0  2  0  0  0  0  0  0  0  0  0
   -2.4010   -0.7970   -0.6250 C   0  0  0  0  0  0  0  0  0  0  0  0
   -1.8290    0.5110   -0.1750 C   0  0  2  0  0  0  0  0  0  0  0  0
   -0.4030    0.7270   -0.5390 C   0  0  2  0  0  0  0  0  0  0  0  0
   -0.2100    0.6930   -2.0270 C   0  0  0  0  0  0  0  0  0  0  0  0
    0.9260   -0.2370   -2.3690 C   0  0  0  0  0  0  0  0  0  0  0  0
    2.0530    0.2170   -1.7150 O   0  0  0  0  0  0  0  0  0  0  0  0
    1.9550    0.1370   -0.3270 C   0  0  2  0  0  0  0  0  0  0  0  0
    2.3680    1.4740    0.2280 C   0  0  0  0  0  0  0  0  0  0  0  0
    3.6760    1.4680    0.9340 C   0  0  0  0  0  0  0  0  0  0  0  0
    4.7660    0.7330    0.2240 C   0  0  0  0  0  0  0  0  0  0  0  0
    4.2840   -0.5090   -0.4800 C   0  0  1  0  0  0  0  0  0  0  0  0
    5.3080   -1.5980   -0.4470 C   0  0  0  0  0  0  0  0  0  0  0  0
    2.9510   -0.9510    0.0950 C   0  0  1  0  0  0  0  0  0  0  0  0
    3.0430   -1.0710    1.4600 O   0  0  0  0  0  0  0  0  0  0  0  0
    0.5480   -0.2410    0.0960 C   0  0  0  0  0  0  0  0  0  0  0  0
   -2.0970    0.7230    1.2850 C   0  0  0  0  0  0  0  0  0  0  0  0
   -3.4750    0.4180    1.7300 C   0  0  1  0  0  0  0  0  0  0  0  0
   -4.3320    1.6770    1.7210 C   0  0  0  0  0  0  0  0  0  0  0  0
   -4.2070   -0.6290    0.9560 C   0  0  0  0  0  0  0  0  0  0  0  0
  2  1  1  6
  2  3  1  0
  2 21  1  0
  4  3  1  1
  4  5  1  0
  4 18  1  0
  5  6  1  6
  5 17  1  0
  6  7  1  0
  7  8  1  0
  8  9  1  0
  9 10  1  1
  9 15  1  0
  9 17  1  0
 10 11  1  0
 11 12  1  0
 12 13  1  0
 13 14  1  1
 13 15  1  0
 15 16  1  1
 18 19  1  0
 19 20  1  6
 19 21  1  0
M  END
