
     RDKit          3D

 10  9  0  0  0  0  0  0  0  0999 V2000
   -2.7110   -1.0110    0.6280 C   0  0  0  0  0  0  0  0  0  0  0  0
   -2.7470   -0.5410   -0.7330 N   0  0  0  0  0  0  0  0  0  0  0  0
   -1.7900    0.5020   -1.0240 C   0  0  1  0  0  0  0  0  0  0  0  0
   -2.0760    1.7450   -0.1900 C   0  0  0  0  0  0  0  0  0  0  0  0
   -0.4340   -0.0280   -0.7570 C   0  0  0  0  0  0  0  0  0  0  0  0
   -0.2640   -1.2050   -0.3440 O   0  0  0  0  0  0  0  0  0  0  0  0
    0.7210    0.7250   -0.9410 O   0  0  0  0  0  0  0  0  0  0  0  0
    2.0300    0.2580   -0.6930 C   0  0  0  0  0  0  0  0  0  0  0  0
    2.2600   -0.1480    0.7440 C   0  0  0  0  0  0  0  0  0  0  0  0
    3.6350   -0.6010    0.8460 N   0  0  0  0  0  0  0  0  0  0  0  0
  1  2  1  0
  2  3  1  0
  3  4  1  1
  3  5  1  0
  5  6  2  0
  5  7  1  0
  7  8  1  0
  8  9  1  0
  9 10  1  0
M  CHG  1  10   1
M  END
