
     RDKit          3D

 10  9  0  0  0  0  0  0  0  0999 V2000
    4.6200   -0.1690   -0.3110 C   0  0  0  0  0  0  0  0  0  0  0  0
    3.2500   -0.0150   -0.6510 O   0  0  0  0  0  0  0  0  0  0  0  0
    2.2470   -0.3240    0.2990 C   0  0  0  0  0  0  0  0  0  0  0  0
    2.6960   -0.7360    1.3960 O   0  0  0  0  0  0  0  0  0  0  0  0
    0.8190   -0.1450   -0.0420 C   0  0  0  0  0  0  0  0  0  0  0  0
   -0.0670   -0.4790    1.0490 N   0  0  0  0  0  0  0  0  0  0  0  0
   -1.4190   -0.0310    0.8260 C   0  0  1  0  0  0  0  0  0  0  0  0
   -1.4880    1.4890    0.7160 C   0  0  0  0  0  0  0  0  0  0  0  0
   -2.0360   -0.6090   -0.4140 C   0  0  0  0  0  0  0  0  0  0  0  0
   -3.3990   -0.1150   -0.6030 N   0  0  0  0  0  0  0  0  0  0  0  0
  1  2  1  0
  2  3  1  0
  3  4  2  0
  3  5  1  0
  5  6  1  0
  6  7  1  0
  7  8  1  6
  7  9  1  0
  9 10  1  0
M  CHG  1  10   1
M  END
