
     RDKit          3D

 10  9  0  0  0  0  0  0  0  0999 V2000
   -3.9700    0.6030    0.3090 C   0  0  0  0  0  0  0  0  0  0  0  0
   -2.6670    0.6980   -0.4300 C   0  0  0  0  0  0  0  0  0  0  0  0
   -1.6540    0.0140    0.3680 N   0  0  0  0  0  0  0  0  0  0  0  0
   -1.1770   -1.1340   -0.3710 C   0  0  0  0  0  0  0  0  0  0  0  0
    0.2470   -1.4100    0.0410 C   0  0  0  0  0  0  0  0  0  0  0  0
    1.0100   -0.2400   -0.2750 O   0  0  0  0  0  0  0  0  0  0  0  0
    2.3790   -0.2700    0.0260 C   0  0  0  0  0  0  0  0  0  0  0  0
    2.9160   -1.2840    0.5510 O   0  0  0  0  0  0  0  0  0  0  0  0
    3.2290    0.8360   -0.2460 N   0  0  0  0  0  0  0  0  0  0  0  0
    4.6410    0.7700    0.0780 C   0  0  0  0  0  0  0  0  0  0  0  0
  1  2  1  0
  2  3  1  0
  3  4  1  0
  4  5  1  0
  5  6  1  0
  6  7  1  0
  7  8  2  0
  7  9  1  0
  9 10  1  0
M  CHG  1   3   1
M  END
