
     RDKit          3D

 23 26  0  0  0  0  0  0  0  0999 V2000
    2.0170    4.0670   -1.1960 C   0  0  0  0  0  0  0  0  0  0  0  0
    1.6720    2.7330   -1.5220 O   0  0  0  0  0  0  0  0  0  0  0  0
    1.1160    1.8720   -0.5930 C   0  0  0  0  0  0  0  0  0  0  0  0
    0.9310    2.3150    0.5400 O   0  0  0  0  0  0  0  0  0  0  0  0
    0.7800    0.5040   -0.9780 C   0  0  1  0  0  0  0  0  0  0  0  0
    2.0960   -0.1940   -1.2380 C   0  0  2  0  0  0  0  0  0  0  0  0
    2.0870   -1.1790   -2.3460 C   0  0  0  0  0  0  0  0  0  0  0  0
    2.6320   -0.6710    0.0560 C   0  0  0  0  0  0  0  0  0  0  0  0
    3.8500   -1.1420    0.3060 C   0  0  0  0  0  0  0  0  0  0  0  0
    3.9500   -1.5030    1.7430 C   0  0  0  0  0  0  0  0  0  0  0  0
    2.6120   -1.1600    2.2380 C   0  0  0  0  0  0  0  0  0  0  0  0
    1.8320   -0.6750    1.2720 C   0  0  0  0  0  0  0  0  0  0  0  0
    0.4060   -0.2080    1.3350 C   0  0  0  0  0  0  0  0  0  0  0  0
   -0.1410   -0.2090   -0.0410 C   0  0  2  0  0  0  0  0  0  0  0  0
   -0.1870   -1.7070   -0.4400 C   0  0  0  0  0  0  0  0  0  0  0  0
   -1.2450   -2.4500    0.3180 C   0  0  0  0  0  0  0  0  0  0  0  0
   -2.6070   -1.8600    0.2900 C   0  0  0  0  0  0  0  0  0  0  0  0
   -2.6230   -0.3720    0.5080 C   0  0  2  0  0  0  0  0  0  0  0  0
   -2.7470    0.0040    1.9330 C   0  0  0  0  0  0  0  0  0  0  0  0
   -3.8140    0.2680   -0.2280 C   0  0  0  0  0  0  0  0  0  0  0  0
   -3.3320    1.6610   -0.5540 C   0  0  0  0  0  0  0  0  0  0  0  0
   -1.8430    1.6930   -0.1480 C   0  0  0  0  0  0  0  0  0  0  0  0
   -1.5160    0.2560   -0.2580 C   0  0  1  0  0  0  0  0  0  0  0  0
  1  2  1  0
  2  3  1  0
  3  4  2  0
  5  3  1  1
  5  6  1  0
  5 14  1  0
  6  7  1  6
  6  8  1  0
  8  9  2  0
  8 12  1  0
  9 10  1  0
 10 11  1  0
 11 12  2  0
 12 13  1  0
 14 13  1  1
 14 15  1  0
 14 23  1  0
 15 16  1  0
 16 17  1  0
 17 18  1  0
 18 19  1  1
 18 20  1  0
 18 23  1  0
 20 21  1  0
 21 22  1  0
 23 22  1  1
M  END
