
     RDKit          3D

  9  9  0  0  0  0  0  0  0  0999 V2000
   -2.2080    2.0310   -0.8160 N   0  0  0  0  0  0  0  0  0  0  0  0
   -1.0190    1.5480   -0.2180 C   0  0  0  0  0  0  0  0  0  0  0  0
   -0.6930    0.2660   -0.2930 C   0  0  0  0  0  0  0  0  0  0  0  0
   -1.4690   -0.7650   -0.9630 C   0  0  0  0  0  0  0  0  0  0  0  0
   -0.8010   -1.8940   -0.8060 C   0  0  0  0  0  0  0  0  0  0  0  0
    0.4180   -1.7070   -0.0510 C   0  0  0  0  0  0  0  0  0  0  0  0
    0.4730   -0.4180    0.2500 C   0  0  0  0  0  0  0  0  0  0  0  0
    1.5200    0.2950    1.0130 C   0  0  0  0  0  0  0  0  0  0  0  0
    2.5450   -0.6160    1.4260 N   0  0  0  0  0  0  0  0  0  0  0  0
  1  2  1  0
  2  3  2  3
  3  4  1  0
  3  7  1  0
  4  5  2  0
  5  6  1  0
  6  7  2  0
  7  8  1  0
  8  9  1  0
M  END
