
     RDKit          3D

  9  9  0  0  0  0  0  0  0  0999 V2000
   -2.1740    1.3390   -0.6330 C   0  0  0  0  0  0  0  0  0  0  0  0
   -1.6960    0.1780   -0.2980 C   0  0  0  0  0  0  0  0  0  0  0  0
   -2.5460   -0.9560   -0.1650 N   0  0  0  0  0  0  0  0  0  0  0  0
   -0.2500   -0.0080   -0.0410 C   0  0  0  0  0  0  0  0  0  0  0  0
    0.1500   -1.2490    0.3020 C   0  0  0  0  0  0  0  0  0  0  0  0
    1.5700   -1.4350    0.5550 C   0  0  0  0  0  0  0  0  0  0  0  0
    2.4440   -0.4700    0.4650 C   0  0  0  0  0  0  0  0  0  0  0  0
    2.0780    0.8850    0.1010 C   0  0  0  0  0  0  0  0  0  0  0  0
    0.6760    1.0410   -0.1430 N   0  0  0  0  0  0  0  0  0  0  0  0
  1  2  2  0
  2  3  1  0
  2  4  1  0
  4  5  2  0
  4  9  1  0
  5  6  1  0
  6  7  2  0
  7  8  1  0
  8  9  1  0
M  END
