
     RDKit          3D

  9  9  0  0  0  0  0  0  0  0999 V2000
   -3.3000    0.0560    0.4500 N   0  0  0  0  0  0  0  0  0  0  0  0
   -2.2760    0.0580   -0.5760 C   0  0  0  0  0  0  0  0  0  0  0  0
   -1.1130   -0.7510   -0.2340 C   0  0  0  0  0  0  0  0  0  0  0  0
    0.1340   -0.3500   -0.1140 C   0  0  0  0  0  0  0  0  0  0  0  0
    1.2050   -1.2950    0.2400 C   0  0  0  0  0  0  0  0  0  0  0  0
    2.4500   -0.8750    0.3560 C   0  0  0  0  0  0  0  0  0  0  0  0
    2.8590    0.4970    0.1550 C   0  0  0  0  0  0  0  0  0  0  0  0
    1.9110    1.3630   -0.1630 C   0  0  0  0  0  0  0  0  0  0  0  0
    0.5410    0.9970   -0.3100 N   0  0  0  0  0  0  0  0  0  0  0  0
  1  2  1  0
  2  3  1  0
  3  4  2  3
  4  5  1  0
  4  9  1  0
  5  6  2  0
  6  7  1  0
  7  8  2  0
  8  9  1  0
M  END
