
     RDKit          3D

  9  9  0  0  0  0  0  0  0  0999 V2000
   -2.8660   -0.0050    0.4750 C   0  0  0  0  0  0  0  0  0  0  0  0
   -2.0220   -0.5200   -0.5560 N   0  0  0  0  0  0  0  0  0  0  0  0
   -0.6410   -0.2470   -0.3350 C   0  0  0  0  0  0  0  0  0  0  0  0
    0.3280   -1.1540   -0.7140 C   0  0  0  0  0  0  0  0  0  0  0  0
    1.6760   -0.9290   -0.5180 C   0  0  0  0  0  0  0  0  0  0  0  0
    2.1090    0.2350    0.0760 C   0  0  0  0  0  0  0  0  0  0  0  0
    3.4730    0.5410    0.3120 N   0  0  0  0  0  0  0  0  0  0  0  0
    1.1540    1.1490    0.4590 C   0  0  0  0  0  0  0  0  0  0  0  0
   -0.1920    0.9150    0.2590 C   0  0  0  0  0  0  0  0  0  0  0  0
  1  2  1  0
  2  3  1  0
  3  4  2  0
  3  9  1  0
  4  5  1  0
  5  6  2  0
  6  7  1  0
  6  8  1  0
  8  9  2  0
M  CHG  1   2   1
M  END
