
     RDKit          3D

  9  9  0  0  0  0  0  0  0  0999 V2000
    3.2930   -0.4270   -0.0450 C   0  0  0  0  0  0  0  0  0  0  0  0
    2.3330    0.6300   -0.2050 N   0  0  0  0  0  0  0  0  0  0  0  0
    0.9350    0.3970   -0.1090 C   0  0  0  0  0  0  0  0  0  0  0  0
    0.4210   -0.8670    0.1420 C   0  0  0  0  0  0  0  0  0  0  0  0
   -0.9410   -1.0800    0.2340 C   0  0  0  0  0  0  0  0  0  0  0  0
   -1.8550   -0.0590    0.0820 C   0  0  0  0  0  0  0  0  0  0  0  0
   -3.2620   -0.2590    0.1730 N   0  0  0  0  0  0  0  0  0  0  0  0
   -1.3530    1.2000   -0.1670 C   0  0  0  0  0  0  0  0  0  0  0  0
    0.0070    1.4090   -0.2580 C   0  0  0  0  0  0  0  0  0  0  0  0
  1  2  1  0
  2  3  1  0
  3  4  2  0
  3  9  1  0
  4  5  1  0
  5  6  2  0
  6  7  1  0
  6  8  1  0
  8  9  2  0
M  CHG  1   7   1
M  END
