
     RDKit          3D

 11 11  0  0  0  0  0  0  0  0999 V2000
    3.0420    0.2360    0.2220 O   0  0  0  0  0  0  0  0  0  0  0  0
    1.7920    0.7700   -0.1540 C   0  0  0  0  0  0  0  0  0  0  0  0
    0.6780   -0.1250    0.3680 C   0  0  2  0  0  0  0  0  0  0  0  0
    0.8990   -1.3760   -0.2130 O   0  0  0  0  0  0  0  0  0  0  0  0
   -0.0180   -2.3190    0.1840 C   0  0  0  0  0  0  0  0  0  0  0  0
   -1.4010   -1.8390   -0.2060 C   0  0  0  0  0  0  0  0  0  0  0  0
   -1.5970   -0.6250    0.4070 O   0  0  0  0  0  0  0  0  0  0  0  0
   -0.6750    0.3470   -0.0520 C   0  0  2  0  0  0  0  0  0  0  0  0
   -0.7090    0.3770   -1.4460 O   0  0  0  0  0  0  0  0  0  0  0  0
   -1.1090    1.6390    0.5570 C   0  0  0  0  0  0  0  0  0  0  0  0
   -0.3490    2.7350    0.2370 O   0  0  0  0  0  0  0  0  0  0  0  0
  1  2  1  0
  3  2  1  6
  3  4  1  0
  3  8  1  0
  4  5  1  0
  5  6  1  0
  6  7  1  0
  7  8  1  0
  8  9  1  6
  8 10  1  0
 10 11  1  0
M  END
