
     RDKit          3D

 11 11  0  0  0  0  0  0  0  0999 V2000
   -2.5390    0.8160   -0.7880 C   0  0  0  0  0  0  0  0  0  0  0  0
   -1.9420    0.1530    0.4450 C   0  0  1  0  0  0  0  0  0  0  0  0
   -2.7160   -1.0030    0.6850 O   0  0  0  0  0  0  0  0  0  0  0  0
   -0.5590   -0.3160    0.1140 C   0  0  2  0  0  0  0  0  0  0  0  0
    0.0450   -1.2130    1.1450 C   0  0  0  0  0  0  0  0  0  0  0  0
    1.2310   -1.7350    0.5920 O   0  0  0  0  0  0  0  0  0  0  0  0
    1.4250   -1.2690   -0.6350 O   0  0  0  0  0  0  0  0  0  0  0  0
    1.5240    0.1370   -0.5640 C   0  0  2  0  0  0  0  0  0  0  0  0
    2.6710    0.4600    0.3650 C   0  0  0  0  0  0  0  0  0  0  0  0
    2.7900    1.8290    0.4530 O   0  0  0  0  0  0  0  0  0  0  0  0
    0.3250    0.7100   -0.1490 O   0  0  0  0  0  0  0  0  0  0  0  0
  2  1  1  6
  2  3  1  0
  2  4  1  0
  4  5  1  1
  4 11  1  0
  5  6  1  0
  6  7  1  0
  7  8  1  0
  8  9  1  1
  8 11  1  0
  9 10  1  0
M  END
