
     RDKit          3D

 11 11  0  0  0  0  0  0  0  0999 V2000
    2.1480   -1.6900   -0.6090 C   0  0  0  0  0  0  0  0  0  0  0  0
    1.6130   -0.4100   -0.6870 O   0  0  0  0  0  0  0  0  0  0  0  0
    0.8780   -0.1620    0.4540 C   0  0  1  0  0  0  0  0  0  0  0  0
    1.4100    0.9360    1.1450 O   0  0  0  0  0  0  0  0  0  0  0  0
    1.0270    2.0030    0.3530 C   0  0  0  0  0  0  0  0  0  0  0  0
   -0.4530    1.7460    0.1500 C   0  0  1  0  0  0  0  0  0  0  0  0
   -0.7970    2.3290   -1.0860 O   0  0  0  0  0  0  0  0  0  0  0  0
   -0.5530    0.2660    0.0990 C   0  0  2  0  0  0  0  0  0  0  0  0
   -1.3920   -0.3190    0.9860 O   0  0  0  0  0  0  0  0  0  0  0  0
   -2.3150   -1.1940    0.4790 C   0  0  0  0  0  0  0  0  0  0  0  0
   -1.7670   -2.2820   -0.1850 O   0  0  0  0  0  0  0  0  0  0  0  0
  1  2  1  0
  3  2  1  6
  3  4  1  0
  3  8  1  0
  4  5  1  0
  5  6  1  0
  6  7  1  6
  6  8  1  0
  8  9  1  1
  9 10  1  0
 10 11  1  0
M  END
