
     RDKit          3D

 12 13  0  0  0  0  0  0  0  0999 V2000
    4.3400    0.4620    0.1990 N   0  0  0  0  0  0  0  0  0  0  0  0
    3.0310   -0.0960    0.1200 C   0  0  0  0  0  0  0  0  0  0  0  0
    2.8120   -1.3480   -0.0630 N   0  0  0  0  0  0  0  0  0  0  0  0
    1.4080   -1.6220   -0.1000 C   0  0  0  0  0  0  0  0  0  0  0  0
    0.8410   -2.7340   -0.2620 O   0  0  0  0  0  0  0  0  0  0  0  0
    0.7480   -0.3400    0.0910 C   0  0  0  0  0  0  0  0  0  0  0  0
   -0.5410   -0.0840    0.1320 C   0  0  0  0  0  0  0  0  0  0  0  0
   -1.5910   -1.1290   -0.0190 C   0  0  0  0  0  0  0  0  0  0  0  0
   -2.8870   -0.3960    0.2570 C   0  0  0  0  0  0  0  0  0  0  0  0
   -2.5590    0.9860   -0.3210 C   0  0  0  0  0  0  0  0  0  0  0  0
   -1.2140    1.2410    0.3290 C   0  0  0  0  0  0  0  0  0  0  0  0
    1.7880    0.6190    0.2290 N   0  0  0  0  0  0  0  0  0  0  0  0
  1  2  1  0
  2  3  2  0
  2 12  1  0
  3  4  1  0
  4  5  2  0
  4  6  1  0
  6  7  2  3
  6 12  1  0
  7  8  1  0
  7 11  1  0
  8  9  1  0
  9 10  1  0
 10 11  1  0
M  END
