
     RDKit          3D

 10 11  0  0  0  0  0  0  0  0999 V2000
    3.0400   -0.4010    0.2770 N   0  0  0  0  0  0  0  0  0  0  0  0
    1.6410   -0.0650    0.1990 C   0  0  0  0  0  0  0  0  0  0  0  0
    1.2050    1.1600    0.5410 N   0  0  0  0  0  0  0  0  0  0  0  0
   -0.0990    1.4610    0.4640 C   0  0  0  0  0  0  0  0  0  0  0  0
   -1.0330    0.5480    0.0400 C   0  0  0  0  0  0  0  0  0  0  0  0
   -2.3990    0.5880   -0.1300 C   0  0  0  0  0  0  0  0  0  0  0  0
   -2.7410   -0.6340   -0.5750 N   0  0  0  0  0  0  0  0  0  0  0  0
   -1.6610   -1.4000   -0.6800 N   0  0  0  0  0  0  0  0  0  0  0  0
   -0.5600   -0.7100   -0.3070 C   0  0  0  0  0  0  0  0  0  0  0  0
    0.7500   -0.9820   -0.2200 N   0  0  0  0  0  0  0  0  0  0  0  0
  1  2  1  0
  2  3  2  0
  2 10  1  0
  3  4  1  0
  4  5  2  0
  5  6  1  0
  5  9  1  0
  6  7  2  0
  7  8  1  0
  8  9  1  0
  9 10  2  0
M  END
