
     RDKit          3D

 10 11  0  0  0  0  0  0  0  0999 V2000
    2.7940   -0.3940   -0.7900 N   0  0  0  0  0  0  0  0  0  0  0  0
    1.4700   -0.0990   -0.3210 C   0  0  0  0  0  0  0  0  0  0  0  0
    1.2330    0.9140    0.5840 C   0  0  0  0  0  0  0  0  0  0  0  0
   -0.0030    1.2150    1.0440 N   0  0  0  0  0  0  0  0  0  0  0  0
   -1.0690    0.5170    0.6220 C   0  0  0  0  0  0  0  0  0  0  0  0
   -2.4160    0.5850    0.9010 C   0  0  0  0  0  0  0  0  0  0  0  0
   -2.9860   -0.3850    0.1660 N   0  0  0  0  0  0  0  0  0  0  0  0
   -2.0670   -1.0270   -0.5340 N   0  0  0  0  0  0  0  0  0  0  0  0
   -0.8570   -0.4990   -0.2810 C   0  0  0  0  0  0  0  0  0  0  0  0
    0.3980   -0.7920   -0.7370 N   0  0  0  0  0  0  0  0  0  0  0  0
  1  2  1  0
  2  3  2  0
  2 10  1  0
  3  4  1  0
  4  5  2  0
  5  6  1  0
  5  9  1  0
  6  7  2  0
  7  8  1  0
  8  9  1  0
  9 10  2  0
M  END
