
     RDKit          3D

 12 13  0  0  0  0  0  0  0  0999 V2000
   -3.1640    0.2230    0.6930 N   0  0  0  0  0  0  0  0  0  0  0  0
   -1.8270   -0.0790    0.3110 C   0  0  0  0  0  0  0  0  0  0  0  0
   -1.5240   -1.3040   -0.2640 C   0  0  0  0  0  0  0  0  0  0  0  0
   -0.2210   -1.5870   -0.6310 C   0  0  0  0  0  0  0  0  0  0  0  0
    0.7890   -0.6700   -0.4350 C   0  0  0  0  0  0  0  0  0  0  0  0
    2.1070   -0.9220   -0.7920 C   0  0  0  0  0  0  0  0  0  0  0  0
    3.0520   -0.0020   -0.5830 N   0  0  0  0  0  0  0  0  0  0  0  0
    2.7880    1.1840   -0.0320 C   0  0  0  0  0  0  0  0  0  0  0  0
    3.7170    2.0150    0.1420 O   0  0  0  0  0  0  0  0  0  0  0  0
    1.5060    1.4300    0.3160 N   0  0  0  0  0  0  0  0  0  0  0  0
    0.5110    0.5540    0.1340 C   0  0  0  0  0  0  0  0  0  0  0  0
   -0.8000    0.8240    0.4980 C   0  0  0  0  0  0  0  0  0  0  0  0
  1  2  1  0
  2  3  2  0
  2 12  1  0
  3  4  1  0
  4  5  2  0
  5  6  1  0
  5 11  1  0
  6  7  2  0
  7  8  1  0
  8  9  2  0
  8 10  1  0
 10 11  1  0
 11 12  2  0
M  END
