
     RDKit          3D

 19 18  0  0  0  0  0  0  0  0999 V2000
   -1.9540    2.0290   -2.2020 C   0  0  0  0  0  0  0  0  0  0  0  0
   -1.3450    1.7630   -1.1040 O   0  0  0  0  0  0  0  0  0  0  0  0
   -1.3610    1.1080   -0.0130 C   0  0  0  0  0  0  0  0  0  0  0  0
   -1.4050   -0.3750    0.1500 C   0  0  2  0  0  0  0  0  0  0  0  0
   -2.6420   -0.9590   -0.3990 C   0  0  1  0  0  0  0  0  0  0  0  0
   -2.8120   -0.7790   -1.7410 O   0  0  0  0  0  0  0  0  0  0  0  0
   -2.8440   -2.3080   -0.1270 O   0  0  0  0  0  0  0  0  0  0  0  0
   -4.0300   -2.5450    0.5770 C   0  0  0  0  0  0  0  0  0  0  0  0
   -1.1070   -0.7860    1.5690 C   0  0  1  0  0  0  0  0  0  0  0  0
   -1.2310   -2.2840    1.5430 N   0  0  0  0  0  0  0  0  0  0  0  0
    0.2880   -0.5990    2.0390 C   0  0  2  0  0  0  0  0  0  0  0  0
    0.3010   -1.2430    3.3340 O   0  0  0  0  0  0  0  0  0  0  0  0
    0.7710    0.6380    2.2700 O   0  0  0  0  0  0  0  0  0  0  0  0
    2.0090    0.8070    1.6810 C   0  0  0  0  0  0  0  0  0  0  0  0
    2.0750    0.6600    0.2060 C   0  0  0  0  0  0  0  0  0  0  0  0
    3.4340    0.8720   -0.1520 O   0  0  0  0  0  0  0  0  0  0  0  0
    3.5900    0.7520   -1.5310 C   0  0  0  0  0  0  0  0  0  0  0  0
    5.0600    0.9920   -1.8220 C   0  0  0  0  0  0  0  0  0  0  0  0
    5.4370    2.2590   -1.3990 O   0  0  0  0  0  0  0  0  0  0  0  0
  1  2  1  0
  2  3  1  0
  4  3  1  1
  4  5  1  0
  4  9  1  0
  5  6  1  6
  5  7  1  0
  7  8  1  0
  9 10  1  6
  9 11  1  0
 11 12  1  1
 11 13  1  0
 13 14  1  0
 14 15  1  0
 15 16  1  0
 16 17  1  0
 17 18  1  0
 18 19  1  0
M  END
