
     RDKit          3D

 20 19  0  0  0  0  0  0  0  0999 V2000
   -0.5250   -3.3540    1.1030 C   0  0  0  0  0  0  0  0  0  0  0  0
   -0.3230   -1.9780    1.1130 O   0  0  0  0  0  0  0  0  0  0  0  0
   -0.4770   -1.3680   -0.1130 C   0  0  2  0  0  0  0  0  0  0  0  0
    0.8630   -0.9560   -0.6360 C   0  0  0  0  0  0  0  0  0  0  0  0
    1.5660   -0.0890    0.1910 O   0  0  0  0  0  0  0  0  0  0  0  0
    2.7920    0.2640   -0.3300 C   0  0  1  0  0  0  0  0  0  0  0  0
    2.8850    1.7460   -0.6240 C   0  0  0  0  0  0  0  0  0  0  0  0
    4.1390    2.0550   -1.1480 O   0  0  0  0  0  0  0  0  0  0  0  0
    3.8660   -0.1680    0.5770 C   0  0  0  0  0  0  0  0  0  0  0  0
    5.2370    0.0680    0.2840 N   0  0  0  0  0  0  0  0  0  0  0  0
    3.5810   -0.7610    1.6380 O   0  0  0  0  0  0  0  0  0  0  0  0
   -1.5950   -0.3870   -0.2220 C   0  0  1  0  0  0  0  0  0  0  0  0
   -1.5730    0.1550   -1.6390 C   0  0  0  0  0  0  0  0  0  0  0  0
   -2.8540   -1.2660   -0.1340 C   0  0  0  0  0  0  0  0  0  0  0  0
   -4.0280   -0.5860   -0.2280 O   0  0  0  0  0  0  0  0  0  0  0  0
   -1.6130    0.6780    0.8130 C   0  0  1  0  0  0  0  0  0  0  0  0
   -0.4150    1.4280    0.7330 O   0  0  0  0  0  0  0  0  0  0  0  0
   -2.6760    1.6970    0.7340 C   0  0  0  0  0  0  0  0  0  0  0  0
   -2.4530    2.5680    1.8390 O   0  0  0  0  0  0  0  0  0  0  0  0
   -3.3720    3.5120    1.8340 O   0  0  0  0  0  0  0  0  0  0  0  0
  1  2  1  0
  2  3  1  0
  3  4  1  1
  3 12  1  0
  4  5  1  0
  5  6  1  0
  6  7  1  1
  6  9  1  0
  7  8  1  0
  9 10  1  0
  9 11  2  0
 12 13  1  6
 12 14  1  0
 12 16  1  0
 14 15  1  0
 16 17  1  6
 16 18  1  0
 18 19  1  0
 19 20  1  0
M  END
