
     RDKit          3D

 20 20  0  0  0  0  0  0  0  0999 V2000
    0.0190    4.9530   -0.7680 N   0  0  0  0  0  0  0  0  0  0  0  0
    0.3460    3.6790   -0.1550 C   0  0  0  0  0  0  0  0  0  0  0  0
    1.3420    3.1100   -0.6430 O   0  0  0  0  0  0  0  0  0  0  0  0
   -0.4620    3.1450    0.9500 C   0  0  0  0  0  0  0  0  0  0  0  0
   -0.1020    1.9210    1.3390 O   0  0  0  0  0  0  0  0  0  0  0  0
   -0.2360    0.8320    0.5180 C   0  0  1  0  0  0  0  0  0  0  0  0
    0.8860    0.0900    0.4250 O   0  0  0  0  0  0  0  0  0  0  0  0
    1.4000   -0.2120   -0.7850 C   0  0  0  0  0  0  0  0  0  0  0  0
    2.6650   -1.0490   -0.7190 C   0  0  1  0  0  0  0  0  0  0  0  0
    3.0880   -1.2870   -2.0250 O   0  0  0  0  0  0  0  0  0  0  0  0
    3.7590   -0.3470    0.0460 C   0  0  0  0  0  0  0  0  0  0  0  0
    4.8950   -1.1540    0.0630 O   0  0  0  0  0  0  0  0  0  0  0  0
   -1.4290   -0.0090    1.0360 C   0  0  2  0  0  0  0  0  0  0  0  0
   -1.2650   -0.4660    2.3060 O   0  0  0  0  0  0  0  0  0  0  0  0
   -1.8890   -1.0770    0.1260 C   0  0  1  0  0  0  0  0  0  0  0  0
   -2.0380   -0.6280   -1.1850 O   0  0  0  0  0  0  0  0  0  0  0  0
   -1.1940   -2.3840    0.2390 C   0  0  0  0  0  0  0  0  0  0  0  0
   -2.3330   -3.3990    0.3950 C   0  0  0  0  0  0  0  0  0  0  0  0
   -3.4770   -2.6950    0.0020 O   0  0  0  0  0  0  0  0  0  0  0  0
   -3.3310   -1.4410    0.5650 C   0  0  0  0  0  0  0  0  0  0  0  0
  1  2  1  0
  2  3  2  0
  2  4  1  0
  4  5  1  0
  6  5  1  1
  6  7  1  0
  6 13  1  0
  7  8  1  0
  8  9  1  0
  9 10  1  6
  9 11  1  0
 11 12  1  0
 13 14  1  1
 13 15  1  0
 15 16  1  6
 15 17  1  0
 15 20  1  0
 17 18  1  0
 18 19  1  0
 19 20  1  0
M  END
