
     RDKit          3D

 20 21  0  0  0  0  0  0  0  0999 V2000
   -5.1520    2.7890    0.7860 O   0  0  0  0  0  0  0  0  0  0  0  0
   -4.2750    1.8800    0.6230 C   0  0  0  0  0  0  0  0  0  0  0  0
   -3.2910    1.7190    1.5670 C   0  0  0  0  0  0  0  0  0  0  0  0
   -2.3530    0.7280    1.3690 C   0  0  0  0  0  0  0  0  0  0  0  0
   -2.3560   -0.0870    0.2960 N   0  0  0  0  0  0  0  0  0  0  0  0
   -1.3350   -1.1230    0.1370 C   0  0  1  0  0  0  0  0  0  0  0  0
   -0.8400   -1.1880   -1.2880 C   0  0  0  0  0  0  0  0  0  0  0  0
    0.6480   -1.3240   -1.1430 C   0  0  2  0  0  0  0  0  0  0  0  0
    1.1020   -2.5740   -1.6000 O   0  0  0  0  0  0  0  0  0  0  0  0
    0.8920   -1.2030    0.3230 C   0  0  1  0  0  0  0  0  0  0  0  0
    1.9680   -0.1660    0.5660 C   0  0  0  0  0  0  0  0  0  0  0  0
    3.1470   -0.5950   -0.0420 O   0  0  0  0  0  0  0  0  0  0  0  0
    4.4110    0.4710    0.1580 P   0  0  2  0  0  0  0  0  0  0  0  0
    5.7340   -0.1940   -0.0690 O   0  0  0  0  0  0  0  0  0  0  0  0
    4.3720    1.0130    1.7810 O   0  0  0  0  0  0  0  0  0  0  0  0
    4.2770    1.8400   -0.8110 O   0  0  0  0  0  0  0  0  0  0  0  0
   -0.2700   -0.7680    0.9290 O   0  0  0  0  0  0  0  0  0  0  0  0
   -3.3330    0.1010   -0.6030 C   0  0  0  0  0  0  0  0  0  0  0  0
   -3.3610   -0.6460   -1.6160 O   0  0  0  0  0  0  0  0  0  0  0  0
   -4.2710    1.0630   -0.4430 N   0  0  0  0  0  0  0  0  0  0  0  0
  1  2  2  0
  2  3  1  0
  2 20  1  0
  3  4  2  0
  4  5  1  0
  6  5  1  6
  5 18  1  0
  6  7  1  0
  6 17  1  0
  7  8  1  0
  8  9  1  1
  8 10  1  0
 10 11  1  6
 10 17  1  0
 11 12  1  0
 12 13  1  0
 13 14  2  0
 13 15  1  1
 13 16  1  0
 18 19  2  0
 18 20  1  0
M  END
