
     RDKit          3D

 16 16  0  0  0  0  0  0  0  0999 V2000
    1.6460   -0.3910   -1.4820 N   0  0  0  0  0  0  0  0  0  0  0  0
    2.0350    0.0620   -0.3420 C   0  0  0  0  0  0  0  0  0  0  0  0
    3.2580    0.7190   -0.3190 O   0  0  0  0  0  0  0  0  0  0  0  0
    4.2990    0.2420   -1.0400 O   0  0  0  0  0  0  0  0  0  0  0  0
    5.3860    0.6480   -0.4060 O   0  0  0  0  0  0  0  0  0  0  0  0
    1.2270   -0.1080    0.8660 C   0  0  0  0  0  0  0  0  0  0  0  0
    1.7180    0.4660    2.3130 S   0  0  0  0  0  0  0  0  0  0  0  0
    0.0070   -0.7680    0.8190 O   0  0  0  0  0  0  0  0  0  0  0  0
   -1.1420   -0.0750    0.4820 C   0  0  0  0  0  0  0  0  0  0  0  0
   -1.1340    1.2700    0.1840 C   0  0  0  0  0  0  0  0  0  0  0  0
   -2.2770    1.8670   -0.1310 N   0  0  0  0  0  0  0  0  0  0  0  0
   -3.4110    1.1410   -0.1500 C   0  0  0  0  0  0  0  0  0  0  0  0
   -4.4730    1.7660   -0.4580 O   0  0  0  0  0  0  0  0  0  0  0  0
   -3.4120   -0.1390    0.1350 O   0  0  0  0  0  0  0  0  0  0  0  0
   -2.3320   -0.8090    0.4560 C   0  0  0  0  0  0  0  0  0  0  0  0
   -2.3670   -2.1820    0.7560 N   0  0  0  0  0  0  0  0  0  0  0  0
  1  2  2  0
  2  3  1  0
  2  6  1  0
  3  4  1  0
  4  5  1  0
  6  7  2  0
  6  8  1  0
  8  9  1  0
  9 10  1  0
  9 15  2  0
 10 11  2  0
 11 12  1  0
 12 13  2  0
 12 14  1  0
 14 15  1  0
 15 16  1  0
M  END
