
     RDKit          3D

 15 16  0  0  0  0  0  0  0  0999 V2000
   -1.8250   -1.3570    0.6140 C   0  0  0  0  0  0  0  0  0  0  0  0
   -1.4910   -0.1040   -0.4080 S   0  0  0  0  0  0  0  0  0  0  0  0
   -2.3800    0.0650   -1.8260 O   0  0  0  0  0  0  0  0  0  0  0  0
   -0.4670   -0.8330   -1.3070 N   0  0  0  0  0  0  0  0  0  0  0  0
    0.5860   -1.5200   -0.5790 C   0  0  0  0  0  0  0  0  0  0  0  0
    1.6030   -0.4980   -0.2270 C   0  0  0  0  0  0  0  0  0  0  0  0
    2.9290   -0.8560   -0.1900 O   0  0  0  0  0  0  0  0  0  0  0  0
    3.7850   -0.0980    0.5780 N   0  0  0  0  0  0  0  0  0  0  0  0
    1.1590    0.7180    0.0350 C   0  0  0  0  0  0  0  0  0  0  0  0
   -0.2760    1.0580   -0.0180 C   0  0  0  0  0  0  0  0  0  0  0  0
   -0.4590    2.3170    0.2420 N   0  0  0  0  0  0  0  0  0  0  0  0
   -1.7460    2.9340    0.2350 C   0  0  0  0  0  0  0  0  0  0  0  0
   -1.9130    4.1510    0.4890 O   0  0  0  0  0  0  0  0  0  0  0  0
   -2.7700    2.0580   -0.0750 O   0  0  0  0  0  0  0  0  0  0  0  0
   -2.5610    0.7840    0.1070 O   0  0  0  0  0  0  0  0  0  0  0  0
  1  2  1  0
  2  3  2  0
  2  4  1  0
  2 10  1  0
  2 15  1  0
  4  5  1  0
  5  6  1  0
  6  7  1  0
  6  9  2  0
  7  8  1  0
  9 10  1  0
 10 11  2  0
 11 12  1  0
 12 13  2  0
 12 14  1  0
 14 15  1  0
M  END
