
     RDKit          3D

 23 24  0  0  0  0  0  0  0  0999 V2000
   -6.0450   -1.6830   -1.9130 C   0  0  0  0  0  0  0  0  0  0  0  0
   -6.9150   -0.9060   -1.2900 C   0  0  0  0  0  0  0  0  0  0  0  0
   -6.5150    0.2380   -0.4710 C   0  0  0  0  0  0  0  0  0  0  0  0
   -5.1440    0.4760   -0.3630 O   0  0  0  0  0  0  0  0  0  0  0  0
   -4.2780   -0.4060    0.2560 C   0  0  0  0  0  0  0  0  0  0  0  0
   -4.7510   -1.4590    0.7470 O   0  0  0  0  0  0  0  0  0  0  0  0
   -2.8300   -0.1170    0.3370 C   0  0  0  0  0  0  0  0  0  0  0  0
   -2.2120    1.0050   -0.1680 C   0  0  0  0  0  0  0  0  0  0  0  0
   -0.8650    0.9360    0.0900 C   0  0  0  0  0  0  0  0  0  0  0  0
    0.1780    1.9140   -0.2680 C   0  0  0  0  0  0  0  0  0  0  0  0
   -0.1630    2.9490   -0.8820 O   0  0  0  0  0  0  0  0  0  0  0  0
    1.4840    1.6920    0.0660 O   0  0  0  0  0  0  0  0  0  0  0  0
    2.5360    2.6080   -0.2570 C   0  0  0  0  0  0  0  0  0  0  0  0
    3.8140    2.0010    0.2800 C   0  0  0  0  0  0  0  0  0  0  0  0
    3.9870    0.7360   -0.3690 O   0  0  0  0  0  0  0  0  0  0  0  0
    5.1530   -0.0060    0.0060 C   0  0  0  0  0  0  0  0  0  0  0  0
    5.1180   -1.2290    0.3660 C   0  0  0  0  0  0  0  0  0  0  0  0
    6.3700   -1.9070    0.7330 C   0  0  0  0  0  0  0  0  0  0  0  0
    7.5860   -0.7460   -0.0130 S   0  0  0  0  0  0  0  0  0  0  0  0
    6.4600    0.6820   -0.0270 C   0  0  0  0  0  0  0  0  0  0  0  0
   -0.6700   -0.2250    0.7490 N   0  0  0  0  0  0  0  0  0  0  0  0
   -1.8490   -0.8790    0.9080 C   0  0  0  0  0  0  0  0  0  0  0  0
   -2.0540   -2.1880    1.5820 C   0  0  0  0  0  0  0  0  0  0  0  0
  1  2  2  0
  2  3  1  0
  3  4  1  0
  4  5  1  0
  5  6  2  0
  5  7  1  0
  7  8  1  0
  7 22  2  0
  8  9  2  0
  9 10  1  0
  9 21  1  0
 10 11  2  0
 10 12  1  0
 12 13  1  0
 13 14  1  0
 14 15  1  0
 15 16  1  0
 16 17  2  0
 16 20  1  0
 17 18  1  0
 18 19  1  0
 19 20  1  0
 21 22  1  0
 22 23  1  0
M  END
