
     RDKit          3D

 20 20  0  0  0  0  0  0  0  0999 V2000
    1.9410   -0.3680    1.2350 O   0  0  0  0  0  0  0  0  0  0  0  0
    2.2480    0.1650    0.1700 C   0  0  0  0  0  0  0  0  0  0  0  0
    1.3620    0.9840   -0.5410 N   0  0  0  0  0  0  0  0  0  0  0  0
    0.0200    1.3480   -0.2610 C   0  0  0  0  0  0  0  0  0  0  0  0
   -0.9810    0.2960   -0.3530 C   0  0  1  0  0  0  0  0  0  0  0  0
   -0.9520   -0.2340   -1.6780 O   0  0  0  0  0  0  0  0  0  0  0  0
   -0.8160   -0.8550    0.5640 C   0  0  0  0  0  0  0  0  0  0  0  0
   -2.1060   -1.7120    0.6080 C   0  0  1  0  0  0  0  0  0  0  0  0
   -1.7480   -2.8740    1.2810 O   0  0  0  0  0  0  0  0  0  0  0  0
   -3.1950   -0.9540    1.3020 C   0  0  0  0  0  0  0  0  0  0  0  0
   -2.8600    0.5370    1.2790 C   0  0  0  0  0  0  0  0  0  0  0  0
   -2.4090    0.8170   -0.1450 C   0  0  2  0  0  0  0  0  0  0  0  0
   -3.2360    0.0860   -0.9920 O   0  0  0  0  0  0  0  0  0  0  0  0
   -2.5800    2.2340   -0.4000 C   0  0  0  0  0  0  0  0  0  0  0  0
   -1.9780    3.0880    0.2830 O   0  0  0  0  0  0  0  0  0  0  0  0
   -3.4160    2.6650   -1.4070 O   0  0  0  0  0  0  0  0  0  0  0  0
    3.5500   -0.0740   -0.3370 O   0  0  0  0  0  0  0  0  0  0  0  0
    4.4120   -0.9140    0.4240 C   0  0  0  0  0  0  0  0  0  0  0  0
    5.7240   -1.0110   -0.3170 C   0  0  0  0  0  0  0  0  0  0  0  0
    6.2540    0.2570   -0.4370 O   0  0  0  0  0  0  0  0  0  0  0  0
  1  2  2  0
  2  3  1  0
  2 17  1  0
  3  4  1  0
  4  5  1  0
  5  6  1  6
  5  7  1  0
  5 12  1  0
  7  8  1  0
  8  9  1  1
  8 10  1  0
 10 11  1  0
 11 12  1  0
 12 13  1  6
 12 14  1  0
 14 15  2  0
 14 16  1  0
 17 18  1  0
 18 19  1  0
 19 20  1  0
M  END
