
     RDKit          3D

 19 19  0  0  0  0  0  0  0  0999 V2000
    0.7850   -2.1770    0.7940 O   0  0  0  0  0  0  0  0  0  0  0  0
    1.1460   -1.2740   -0.0040 C   0  0  0  0  0  0  0  0  0  0  0  0
    0.3740   -0.1400   -0.0070 O   0  0  0  0  0  0  0  0  0  0  0  0
   -0.7380    0.1380    0.7540 C   0  0  1  0  0  0  0  0  0  0  0  0
   -0.5880    0.1730    2.2360 C   0  0  0  0  0  0  0  0  0  0  0  0
   -0.1710   -0.9690    2.8530 O   0  0  0  0  0  0  0  0  0  0  0  0
   -1.1640    1.5620    0.3500 C   0  0  0  0  0  0  0  0  0  0  0  0
   -2.2670    1.5110   -0.6860 C   0  0  1  0  0  0  0  0  0  0  0  0
   -2.0360    0.4960   -1.6140 O   0  0  0  0  0  0  0  0  0  0  0  0
   -3.5110    1.0940    0.1160 C   0  0  0  0  0  0  0  0  0  0  0  0
   -3.2070   -0.2460    0.5820 N   0  0  0  0  0  0  0  0  0  0  0  0
   -1.8920   -0.7550    0.4500 C   0  0  0  0  0  0  0  0  0  0  0  0
   -1.7400   -1.9670    0.0730 O   0  0  0  0  0  0  0  0  0  0  0  0
    2.3420   -1.4470   -0.8850 C   0  0  2  0  0  0  0  0  0  0  0  0
    2.9450   -2.6750   -0.6930 O   0  0  0  0  0  0  0  0  0  0  0  0
    3.2570   -0.3240   -0.5750 C   0  0  0  0  0  0  0  0  0  0  0  0
    3.7470   -0.1780    0.7190 O   0  0  0  0  0  0  0  0  0  0  0  0
    3.5860    0.5100   -1.5350 C   0  0  0  0  0  0  0  0  0  0  0  0
    3.1410    0.4250   -2.8260 O   0  0  0  0  0  0  0  0  0  0  0  0
  1  2  2  0
  2  3  1  0
  2 14  1  0
  3  4  1  0
  4  5  1  1
  4  7  1  0
  4 12  1  0
  5  6  1  0
  7  8  1  0
  8  9  1  6
  8 10  1  0
 10 11  1  0
 11 12  1  0
 12 13  2  0
 14 15  1  1
 14 16  1  0
 16 17  1  0
 16 18  2  3
 18 19  1  0
M  END
