
     RDKit          3D

 20 20  0  0  0  0  0  0  0  0999 V2000
   -1.0140   -3.7180   -2.7300 C   0  0  0  0  0  0  0  0  0  0  0  0
   -0.9680   -2.8270   -1.5200 C   0  0  0  0  0  0  0  0  0  0  0  0
   -1.2180   -3.2910   -0.3790 O   0  0  0  0  0  0  0  0  0  0  0  0
   -0.6460   -1.4540   -1.6160 N   0  0  0  0  0  0  0  0  0  0  0  0
   -0.5930   -0.5680   -0.4550 C   0  0  2  0  0  0  0  0  0  0  0  0
   -1.5860    0.5240   -0.5280 C   0  0  1  0  0  0  0  0  0  0  0  0
   -2.3080    0.7940    0.7070 N   0  0  0  0  0  0  0  0  0  0  0  0
   -1.0820    1.7260   -1.1680 C   0  0  0  0  0  0  0  0  0  0  0  0
    0.1620    1.8890   -1.4680 C   0  0  0  0  0  0  0  0  0  0  0  0
    0.5990    3.1430   -2.1200 C   0  0  0  0  0  0  0  0  0  0  0  0
   -0.2350    4.0430   -2.3800 O   0  0  0  0  0  0  0  0  0  0  0  0
    1.9260    3.3250   -2.4430 O   0  0  0  0  0  0  0  0  0  0  0  0
    1.0740    0.8920   -1.1760 O   0  0  0  0  0  0  0  0  0  0  0  0
    0.7870   -0.0940   -0.1820 C   0  0  1  0  0  0  0  0  0  0  0  0
    1.0530    0.5260    1.1420 C   0  0  2  0  0  0  0  0  0  0  0  0
    2.4320    0.9360    1.0900 O   0  0  0  0  0  0  0  0  0  0  0  0
    1.0230   -0.4130    2.3160 C   0  0  2  0  0  0  0  0  0  0  0  0
   -0.1720   -0.9810    2.6200 O   0  0  0  0  0  0  0  0  0  0  0  0
    1.4870    0.3930    3.5360 C   0  0  0  0  0  0  0  0  0  0  0  0
    1.6340   -0.4310    4.6320 O   0  0  0  0  0  0  0  0  0  0  0  0
  1  2  1  0
  2  3  2  0
  2  4  1  0
  5  4  1  6
  5  6  1  0
  5 14  1  0
  6  7  1  1
  6  8  1  0
  8  9  2  0
  9 10  1  0
  9 13  1  0
 10 11  2  0
 10 12  1  0
 14 13  1  6
 14 15  1  0
 15 16  1  6
 15 17  1  0
 17 18  1  1
 17 19  1  0
 19 20  1  0
M  CHG  1   7   1
M  END
