
     RDKit          3D

 19 22  0  0  0  0  0  0  0  0999 V2000
   -3.9780    1.9680   -0.0540 N   0  0  0  0  0  0  0  0  0  0  0  0
   -2.6810    1.3870   -0.3120 C   0  0  0  0  0  0  0  0  0  0  0  0
   -1.6980    2.0230   -0.8950 C   0  0  0  0  0  0  0  0  0  0  0  0
   -0.5750    1.1490   -0.9840 N   0  0  0  0  0  0  0  0  0  0  0  0
   -0.9200   -0.0890   -0.4130 C   0  0  0  0  0  0  0  0  0  0  0  0
   -0.3320   -1.2300   -0.2150 C   0  0  0  0  0  0  0  0  0  0  0  0
    1.0370   -1.5170   -0.6060 C   0  0  2  0  0  0  0  0  0  0  0  0
    1.9110   -1.9300    0.5650 C   0  0  0  0  0  0  0  0  0  0  0  0
    2.6960   -0.6960    0.8280 C   0  0  0  0  0  0  0  0  0  0  0  0
    3.4270   -0.3000    1.8970 N   0  0  0  0  0  0  0  0  0  0  0  0
    4.0680    0.8880    1.9150 C   0  0  0  0  0  0  0  0  0  0  0  0
    4.0230    1.7670    0.8580 C   0  0  0  0  0  0  0  0  0  0  0  0
    3.2870    1.3900   -0.2420 C   0  0  0  0  0  0  0  0  0  0  0  0
    2.6240    0.1540   -0.2520 C   0  0  0  0  0  0  0  0  0  0  0  0
    1.8070   -0.4950   -1.2200 N   0  0  0  0  0  0  0  0  0  0  0  0
   -1.0870   -2.3130    0.4450 C   0  0  0  0  0  0  0  0  0  0  0  0
   -2.3170   -2.2050    0.8480 C   0  0  0  0  0  0  0  0  0  0  0  0
   -3.0420   -0.9560    0.6610 C   0  0  0  0  0  0  0  0  0  0  0  0
   -2.2860    0.0730    0.0200 N   0  0  0  0  0  0  0  0  0  0  0  0
  1  2  1  0
  2  3  2  0
  2 19  1  0
  3  4  1  0
  4  5  1  0
  5  6  2  0
  5 19  1  0
  7  6  1  1
  6 16  1  0
  7  8  1  0
  7 15  1  0
  8  9  1  0
  9 10  2  0
  9 14  1  0
 10 11  1  0
 11 12  2  0
 12 13  1  0
 13 14  2  0
 14 15  1  0
 16 17  2  0
 17 18  1  0
 18 19  1  0
M  CHG  1   1   1
M  END
