
     RDKit          3D

 11 11  0  0  0  0  0  0  0  0999 V2000
   -2.8410   -0.7370    0.2990 C   0  0  0  0  0  0  0  0  0  0  0  0
   -1.9250    0.3160    0.3730 O   0  0  0  0  0  0  0  0  0  0  0  0
   -0.5530    0.1660    0.1240 C   0  0  0  0  0  0  0  0  0  0  0  0
   -0.0100   -1.0550   -0.2170 C   0  0  0  0  0  0  0  0  0  0  0  0
    1.3420   -1.1880   -0.4600 C   0  0  0  0  0  0  0  0  0  0  0  0
    1.8620   -2.4060   -0.7970 F   0  0  0  0  0  0  0  0  0  0  0  0
    2.1250   -0.0660   -0.3500 C   0  0  0  0  0  0  0  0  0  0  0  0
    3.4880   -0.2250   -0.6000 O   0  0  0  0  0  0  0  0  0  0  0  0
    1.5780    1.1540   -0.0090 C   0  0  0  0  0  0  0  0  0  0  0  0
    0.2200    1.3020    0.2380 C   0  0  0  0  0  0  0  0  0  0  0  0
   -0.3130    2.5470    0.5820 O   0  0  0  0  0  0  0  0  0  0  0  0
  1  2  1  0
  2  3  1  0
  3  4  2  0
  3 10  1  0
  4  5  1  0
  5  6  1  0
  5  7  2  0
  7  8  1  0
  7  9  1  0
  9 10  2  0
 10 11  1  0
M  END
