
     RDKit          3D

 19 23  0  0  0  0  0  0  0  0999 V2000
   -4.6000    1.0580    0.4300 C   0  0  0  0  0  0  0  0  0  0  0  0
   -3.8090    0.9970   -0.8570 C   0  0  0  0  0  0  0  0  0  0  0  0
   -2.3680    0.8480   -0.6620 C   0  0  0  0  0  0  0  0  0  0  0  0
   -1.4470    1.8860   -0.8180 C   0  0  0  0  0  0  0  0  0  0  0  0
   -0.1040    1.7410   -0.6370 N   0  0  0  0  0  0  0  0  0  0  0  0
    0.3700    0.5310   -0.2880 C   0  0  0  0  0  0  0  0  0  0  0  0
    1.5770   -0.0830   -0.0050 C   0  0  0  0  0  0  0  0  0  0  0  0
    1.2990   -1.4250    0.2960 C   0  0  0  0  0  0  0  0  0  0  0  0
    2.4650   -1.9880    0.5630 N   0  0  0  0  0  0  0  0  0  0  0  0
    3.4430   -1.0400    0.4370 C   0  0  0  0  0  0  0  0  0  0  0  0
    2.8900    0.1370    0.0850 N   0  0  0  0  0  0  0  0  0  0  0  0
    3.8940    1.1700   -0.0590 C   0  0  0  0  0  0  0  0  0  0  0  0
    5.1570    0.3300   -0.2470 C   0  0  0  0  0  0  0  0  0  0  0  0
    4.8410   -0.8300    0.5400 N   0  0  0  0  0  0  0  0  0  0  0  0
   -0.0520   -1.6360    0.2010 N   0  0  0  0  0  0  0  0  0  0  0  0
   -0.5380   -0.4670   -0.1410 C   0  0  0  0  0  0  0  0  0  0  0  0
   -1.8890   -0.4130   -0.3000 C   0  0  0  0  0  0  0  0  0  0  0  0
   -2.4200   -1.7680   -0.0240 C   0  0  0  0  0  0  0  0  0  0  0  0
   -1.1540   -2.5700    0.3120 C   0  0  0  0  0  0  0  0  0  0  0  0
  1  2  1  0
  2  3  1  0
  3  4  2  0
  3 17  1  0
  4  5  1  0
  5  6  2  0
  6  7  1  0
  6 16  1  0
  7  8  2  0
  7 11  1  0
  8  9  1  0
  8 15  1  0
  9 10  2  0
 10 11  1  0
 10 14  1  0
 11 12  1  0
 12 13  1  0
 13 14  1  0
 15 16  1  0
 15 19  1  0
 16 17  2  0
 17 18  1  0
 18 19  1  0
M  CHG  1   5   1
M  END
