
     RDKit          3D

 19 22  0  0  0  0  0  0  0  0999 V2000
   -5.9610    0.5310    0.2350 C   0  0  0  0  0  0  0  0  0  0  0  0
   -4.9840    1.2690   -0.3750 C   0  0  0  0  0  0  0  0  0  0  0  0
   -3.8400    0.5450   -0.2690 N   0  0  0  0  0  0  0  0  0  0  0  0
   -2.6180    0.8560   -0.7150 C   0  0  0  0  0  0  0  0  0  0  0  0
   -1.5770   -0.0540   -0.4880 C   0  0  0  0  0  0  0  0  0  0  0  0
   -0.3310    0.3080   -1.0090 N   0  0  0  0  0  0  0  0  0  0  0  0
    0.9430    0.1350   -0.4230 C   0  0  0  0  0  0  0  0  0  0  0  0
    1.1650   -0.3430    0.8490 C   0  0  0  0  0  0  0  0  0  0  0  0
    2.4230   -0.5210    1.3620 C   0  0  0  0  0  0  0  0  0  0  0  0
    3.5170   -0.2170    0.5960 C   0  0  0  0  0  0  0  0  0  0  0  0
    3.3190    0.2620   -0.6770 C   0  0  0  0  0  0  0  0  0  0  0  0
    2.0700    0.4200   -1.1380 N   0  0  0  0  0  0  0  0  0  0  0  0
    4.6070    0.5160   -1.2820 N   0  0  0  0  0  0  0  0  0  0  0  0
    5.5180    0.7150   -0.1840 C   0  0  0  0  0  0  0  0  0  0  0  0
    4.9910   -0.2890    0.8100 C   0  0  0  0  0  0  0  0  0  0  0  0
   -1.8060   -1.2430    0.1780 C   0  0  0  0  0  0  0  0  0  0  0  0
   -3.0850   -1.5150    0.6190 C   0  0  0  0  0  0  0  0  0  0  0  0
   -4.0920   -0.6010    0.3830 C   0  0  0  0  0  0  0  0  0  0  0  0
   -5.3990   -0.6010    0.6890 N   0  0  0  0  0  0  0  0  0  0  0  0
  1  2  2  0
  1 19  1  0
  2  3  1  0
  3  4  1  0
  3 18  1  0
  4  5  2  0
  5  6  1  0
  5 16  1  0
  6  7  1  0
  7  8  2  0
  7 12  1  0
  8  9  1  0
  9 10  2  0
 10 11  1  0
 10 15  1  0
 11 12  2  0
 11 13  1  0
 13 14  1  0
 14 15  1  0
 16 17  2  0
 17 18  1  0
 18 19  2  0
M  CHG  1  19   1
M  END
