
     RDKit          3D

 20 20  0  0  0  0  0  0  0  0999 V2000
   -4.2810    1.2660    2.7870 O   0  0  0  0  0  0  0  0  0  0  0  0
   -3.3480    0.5160    1.9890 C   0  0  0  0  0  0  0  0  0  0  0  0
   -2.9730    1.3770    0.8370 C   0  0  2  0  0  0  0  0  0  0  0  0
   -4.2250    1.6780    0.1900 O   0  0  0  0  0  0  0  0  0  0  0  0
   -2.1040    0.8490   -0.2140 C   0  0  0  0  0  0  0  0  0  0  0  0
   -0.7290    0.3850    0.0530 C   0  0  1  0  0  0  0  0  0  0  0  0
    0.1010    1.3540    0.5940 O   0  0  0  0  0  0  0  0  0  0  0  0
   -0.6920   -0.8210    0.9350 C   0  0  0  0  0  0  0  0  0  0  0  0
   -1.7630   -1.6250    0.5430 O   0  0  0  0  0  0  0  0  0  0  0  0
   -1.4830   -2.1540   -0.7150 C   0  0  0  0  0  0  0  0  0  0  0  0
   -0.2890   -1.5980   -1.3960 C   0  0  0  0  0  0  0  0  0  0  0  0
   -0.0980   -0.1380   -1.2770 C   0  0  1  0  0  0  0  0  0  0  0  0
   -0.8550    0.4750   -2.2790 O   0  0  0  0  0  0  0  0  0  0  0  0
    1.2990    0.3430   -1.4460 C   0  0  0  0  0  0  0  0  0  0  0  0
    2.2660   -0.1740   -0.5270 N   0  0  0  0  0  0  0  0  0  0  0  0
    3.5560    0.3220   -0.9420 C   0  0  0  0  0  0  0  0  0  0  0  0
    4.6700   -0.0750   -0.0780 C   0  0  0  0  0  0  0  0  0  0  0  0
    5.9930    0.3380   -0.3660 O   0  0  0  0  0  0  0  0  0  0  0  0
    4.5120   -0.7940    0.9490 N   0  0  0  0  0  0  0  0  0  0  0  0
    3.4240   -1.3440    1.4980 O   0  0  0  0  0  0  0  0  0  0  0  0
  1  2  1  0
  2  3  1  0
  3  4  1  6
  3  5  1  0
  5  6  1  0
  6  7  1  1
  6  8  1  0
  6 12  1  0
  8  9  1  0
  9 10  1  0
 10 11  1  0
 11 12  1  0
 12 13  1  6
 12 14  1  0
 14 15  1  0
 15 16  1  0
 16 17  1  0
 17 18  1  0
 17 19  2  3
 19 20  1  0
M  CHG  1  15   1
M  END
