
     RDKit          3D

 19 19  0  0  0  0  0  0  0  0999 V2000
    0.4490    2.7340   -0.9760 N   0  0  0  0  0  0  0  0  0  0  0  0
    1.3690    1.6700   -0.5830 C   0  0  0  0  0  0  0  0  0  0  0  0
    0.7780    0.8300    0.4840 C   0  0  1  0  0  0  0  0  0  0  0  0
    0.4480    1.7520    1.6800 C   0  0  0  0  0  0  0  0  0  0  0  0
   -0.4420    2.7340    1.3370 O   0  0  0  0  0  0  0  0  0  0  0  0
   -0.2290   -0.1630    0.2090 C   0  0  0  0  0  0  0  0  0  0  0  0
   -1.5400    0.0040   -0.3540 C   0  0  1  0  0  0  0  0  0  0  0  0
   -1.8210    0.5460   -1.6830 C   0  0  0  0  0  0  0  0  0  0  0  0
   -3.1920    0.2150   -1.9490 O   0  0  0  0  0  0  0  0  0  0  0  0
   -2.1360   -1.4340   -0.4520 C   0  0  0  0  0  0  0  0  0  0  0  0
   -2.1590   -2.1240    0.8660 C   0  0  0  0  0  0  0  0  0  0  0  0
   -2.5470   -1.2600    1.8930 O   0  0  0  0  0  0  0  0  0  0  0  0
   -3.2280   -0.2120    1.2400 C   0  0  0  0  0  0  0  0  0  0  0  0
   -2.3960    0.6410    0.5650 O   0  0  0  0  0  0  0  0  0  0  0  0
    1.9670    0.0400    1.0790 C   0  0  1  0  0  0  0  0  0  0  0  0
    1.5530   -0.8180    2.0920 O   0  0  0  0  0  0  0  0  0  0  0  0
    2.8800   -0.5530    0.0760 C   0  0  0  0  0  0  0  0  0  0  0  0
    2.3850   -1.6440   -0.6180 O   0  0  0  0  0  0  0  0  0  0  0  0
    3.2900   -2.0930   -1.4910 N   0  0  0  0  0  0  0  0  0  0  0  0
  1  2  1  0
  3  2  1  6
  3  4  1  0
  3  6  1  0
  3 15  1  0
  4  5  1  0
  7  6  1  1
  7  8  1  0
  7 10  1  0
  7 14  1  0
  8  9  1  0
 10 11  1  0
 11 12  1  0
 12 13  1  0
 13 14  1  0
 15 16  1  6
 15 17  1  0
 17 18  1  0
 18 19  1  0
M  CHG  1  19   1
M  END
