
     RDKit          3D

 13 14  0  0  0  0  0  0  0  0999 V2000
    4.1200   -1.3850    0.4630 N   0  0  0  0  0  0  0  0  0  0  0  0
    2.7170   -1.2320    0.2810 C   0  0  0  0  0  0  0  0  0  0  0  0
    2.1250   -0.0510    0.2880 C   0  0  0  0  0  0  0  0  0  0  0  0
    0.6920    0.1150    0.1030 C   0  0  0  0  0  0  0  0  0  0  0  0
   -0.1900   -0.9110   -0.0960 C   0  0  0  0  0  0  0  0  0  0  0  0
   -1.5570   -0.7120   -0.2690 C   0  0  0  0  0  0  0  0  0  0  0  0
   -2.6130   -1.5160   -0.4750 N   0  0  0  0  0  0  0  0  0  0  0  0
   -3.7550   -0.8290   -0.5810 C   0  0  0  0  0  0  0  0  0  0  0  0
   -3.4180    0.5000   -0.4350 C   0  0  0  0  0  0  0  0  0  0  0  0
   -2.0650    0.5680   -0.2430 C   0  0  0  0  0  0  0  0  0  0  0  0
   -1.1910    1.6230   -0.0440 C   0  0  0  0  0  0  0  0  0  0  0  0
    0.1620    1.4110    0.1270 C   0  0  0  0  0  0  0  0  0  0  0  0
    1.0300    2.5210    0.3300 N   0  0  0  0  0  0  0  0  0  0  0  0
  1  2  1  0
  2  3  2  3
  3  4  1  0
  4  5  2  0
  4 12  1  0
  5  6  1  0
  6  7  1  0
  6 10  2  0
  7  8  1  0
  8  9  2  0
  9 10  1  0
 10 11  1  0
 11 12  2  0
 12 13  1  0
M  END
