
     RDKit          3D

 11 12  0  0  0  0  0  0  0  0999 V2000
   -3.5110   -0.1810    0.2250 N   0  0  0  0  0  0  0  0  0  0  0  0
   -2.0750   -0.1270    0.2110 C   0  0  0  0  0  0  0  0  0  0  0  0
   -1.3050    0.7410    0.8910 N   0  0  0  0  0  0  0  0  0  0  0  0
    0.0090    0.5210    0.6580 C   0  0  0  0  0  0  0  0  0  0  0  0
    1.1510    1.0900    1.0770 N   0  0  0  0  0  0  0  0  0  0  0  0
    2.3180    0.6040    0.6320 C   0  0  0  0  0  0  0  0  0  0  0  0
    3.5350    1.1480    1.0280 O   0  0  0  0  0  0  0  0  0  0  0  0
    2.3690   -0.4600   -0.2420 C   0  0  0  0  0  0  0  0  0  0  0  0
    1.2130   -1.0130   -0.6480 N   0  0  0  0  0  0  0  0  0  0  0  0
    0.0220   -0.5560   -0.2250 C   0  0  0  0  0  0  0  0  0  0  0  0
   -1.2500   -0.9220   -0.4730 N   0  0  0  0  0  0  0  0  0  0  0  0
  1  2  1  0
  2  3  2  0
  2 11  1  0
  3  4  1  0
  4  5  2  0
  4 10  1  0
  5  6  1  0
  6  7  1  0
  6  8  2  0
  8  9  1  0
  9 10  2  0
 10 11  1  0
M  END
