
     RDKit          3D

 11 12  0  0  0  0  0  0  0  0999 V2000
    3.1970   -0.8830    0.0020 N   0  0  0  0  0  0  0  0  0  0  0  0
    1.8630   -0.3420   -0.0320 C   0  0  0  0  0  0  0  0  0  0  0  0
    1.6600    0.9660   -0.2650 N   0  0  0  0  0  0  0  0  0  0  0  0
    0.4450    1.5280   -0.3080 C   0  0  0  0  0  0  0  0  0  0  0  0
   -0.6800    0.7420   -0.1050 C   0  0  0  0  0  0  0  0  0  0  0  0
   -2.0050    1.0230   -0.0910 N   0  0  0  0  0  0  0  0  0  0  0  0
   -2.6050   -0.1450    0.1570 C   0  0  0  0  0  0  0  0  0  0  0  0
   -3.8660   -0.2860    0.2470 O   0  0  0  0  0  0  0  0  0  0  0  0
   -1.7030   -1.1280    0.2940 N   0  0  0  0  0  0  0  0  0  0  0  0
   -0.4630   -0.5990    0.1330 C   0  0  0  0  0  0  0  0  0  0  0  0
    0.7840   -1.1190    0.1670 N   0  0  0  0  0  0  0  0  0  0  0  0
  1  2  1  0
  2  3  2  0
  2 11  1  0
  3  4  1  0
  4  5  2  0
  5  6  1  0
  5 10  1  0
  6  7  1  0
  7  8  2  0
  7  9  1  0
  9 10  1  0
 10 11  2  0
M  END
