
     RDKit          3D

 20 20  0  0  0  0  0  0  0  0999 V2000
   -0.8980   -4.1990    0.3310 C   0  0  0  0  0  0  0  0  0  0  0  0
   -1.1100   -2.7430    0.5590 C   0  0  0  0  0  0  0  0  0  0  0  0
   -1.4040   -2.4000    1.7470 O   0  0  0  0  0  0  0  0  0  0  0  0
   -0.9900   -1.7860   -0.4880 N   0  0  0  0  0  0  0  0  0  0  0  0
   -1.2150   -0.4030   -0.1630 C   0  0  2  0  0  0  0  0  0  0  0  0
   -2.3600    0.1990   -0.9470 C   0  0  1  0  0  0  0  0  0  0  0  0
   -3.6360   -0.3950   -0.5480 N   0  0  0  0  0  0  0  0  0  0  0  0
   -2.4330    1.6330   -0.5820 C   0  0  0  0  0  0  0  0  0  0  0  0
   -1.4590    2.3380   -0.0410 C   0  0  0  0  0  0  0  0  0  0  0  0
   -1.6390    3.7690    0.2840 C   0  0  0  0  0  0  0  0  0  0  0  0
   -2.7090    4.3810    0.0670 O   0  0  0  0  0  0  0  0  0  0  0  0
   -0.5900    4.4680    0.8520 O   0  0  0  0  0  0  0  0  0  0  0  0
   -0.2580    1.6960    0.2160 O   0  0  0  0  0  0  0  0  0  0  0  0
   -0.0160    0.4700   -0.4480 C   0  0  1  0  0  0  0  0  0  0  0  0
    1.2830   -0.1580   -0.0400 C   0  0  2  0  0  0  0  0  0  0  0  0
    1.2750   -0.4070    1.3100 O   0  0  0  0  0  0  0  0  0  0  0  0
    2.3890    0.8200   -0.4010 C   0  0  2  0  0  0  0  0  0  0  0  0
    2.3620    1.0460   -1.7870 O   0  0  0  0  0  0  0  0  0  0  0  0
    3.7530    0.2580   -0.0850 C   0  0  0  0  0  0  0  0  0  0  0  0
    3.9420   -0.0310    1.3100 N   0  0  0  0  0  0  0  0  0  0  0  0
  1  2  1  0
  2  3  2  0
  2  4  1  0
  5  4  1  6
  5  6  1  0
  5 14  1  0
  6  7  1  1
  6  8  1  0
  8  9  2  0
  9 10  1  0
  9 13  1  0
 10 11  2  0
 10 12  1  0
 14 13  1  1
 14 15  1  0
 15 16  1  1
 15 17  1  0
 17 18  1  6
 17 19  1  0
 19 20  1  0
M  CHG  2   7   1  20   1
M  END
