
     RDKit          3D

 13 14  0  0  0  0  0  0  0  0999 V2000
    3.1120   -1.6260   -0.5780 C   0  0  0  0  0  0  0  0  0  0  0  0
    1.9060   -0.7750   -0.3140 C   0  0  0  0  0  0  0  0  0  0  0  0
    2.0110    0.5920   -0.2240 C   0  0  0  0  0  0  0  0  0  0  0  0
    0.9280    1.4170    0.0190 C   0  0  0  0  0  0  0  0  0  0  0  0
    1.1030    2.8120    0.1000 N   0  0  0  0  0  0  0  0  0  0  0  0
   -0.3190    0.8230    0.1770 C   0  0  0  0  0  0  0  0  0  0  0  0
   -1.4030    1.6330    0.4190 C   0  0  0  0  0  0  0  0  0  0  0  0
   -2.6040    1.0600    0.5710 N   0  0  0  0  0  0  0  0  0  0  0  0
   -2.8230   -0.2470    0.5040 C   0  0  0  0  0  0  0  0  0  0  0  0
   -4.1050   -0.8130    0.6700 N   0  0  0  0  0  0  0  0  0  0  0  0
   -1.7260   -1.0690    0.2590 C   0  0  0  0  0  0  0  0  0  0  0  0
   -0.4600   -0.5460    0.0930 C   0  0  0  0  0  0  0  0  0  0  0  0
    0.6510   -1.3270   -0.1510 C   0  0  0  0  0  0  0  0  0  0  0  0
  1  2  1  0
  2  3  2  0
  2 13  1  0
  3  4  1  0
  4  5  1  0
  4  6  2  0
  6  7  1  0
  6 12  1  0
  7  8  2  0
  8  9  1  0
  9 10  1  0
  9 11  2  0
 11 12  1  0
 12 13  2  0
M  END
