
     RDKit          3D

 13 14  0  0  0  0  0  0  0  0999 V2000
   -2.0740   -1.7380    0.8080 C   0  0  0  0  0  0  0  0  0  0  0  0
   -2.2140   -0.5410    0.2800 C   0  0  0  0  0  0  0  0  0  0  0  0
   -3.4900    0.1040   -0.1840 C   0  0  0  0  0  0  0  0  0  0  0  0
   -3.1350    1.5170   -0.0070 N   0  0  0  0  0  0  0  0  0  0  0  0
   -1.7240    1.6110   -0.1260 C   0  0  0  0  0  0  0  0  0  0  0  0
   -1.1420    0.4140    0.0370 C   0  0  0  0  0  0  0  0  0  0  0  0
    0.2890    0.1330   -0.0220 C   0  0  0  0  0  0  0  0  0  0  0  0
    1.1960    1.1470   -0.2600 C   0  0  0  0  0  0  0  0  0  0  0  0
    2.5530    0.8850   -0.3190 C   0  0  0  0  0  0  0  0  0  0  0  0
    3.0580   -0.3880   -0.1460 C   0  0  0  0  0  0  0  0  0  0  0  0
    4.4380   -0.6680   -0.2040 N   0  0  0  0  0  0  0  0  0  0  0  0
    2.1030   -1.3820    0.0920 C   0  0  0  0  0  0  0  0  0  0  0  0
    0.7880   -1.1010    0.1450 N   0  0  0  0  0  0  0  0  0  0  0  0
  1  2  2  0
  2  3  1  0
  2  6  1  0
  3  4  1  0
  4  5  1  0
  5  6  2  0
  6  7  1  0
  7  8  2  0
  7 13  1  0
  8  9  1  0
  9 10  2  0
 10 11  1  0
 10 12  1  0
 12 13  2  0
M  END
