
     RDKit          3D

 28 28  0  0  0  0  0  0  0  0999 V2000
    1.4870    1.6320    1.4920 O   0  0  0  0  0  0  0  0  0  0  0  0
    1.3170    1.0680    0.2190 C   0  0  2  0  0  0  0  0  0  0  0  0
   -0.1460    1.2640   -0.1300 C   0  0  2  0  0  0  0  0  0  0  0  0
   -0.4700    2.5500    0.1560 O   0  0  0  0  0  0  0  0  0  0  0  0
   -0.8540    3.3420   -1.3370 P   0  0  0  0  0  0  0  0  0  0  0  0
   -1.2040    2.1670   -2.5090 O   0  0  0  0  0  0  0  0  0  0  0  0
   -2.2260    4.3460   -1.0810 O   0  0  0  0  0  0  0  0  0  0  0  0
    0.4820    4.2870   -1.8610 O   0  0  0  0  0  0  0  0  0  0  0  0
   -0.9200    0.2360    0.6470 C   0  0  1  0  0  0  0  0  0  0  0  0
   -2.2670    0.4440    0.7520 O   0  0  0  0  0  0  0  0  0  0  0  0
   -2.8200    0.6550    2.1860 P   0  0  0  0  0  0  0  0  0  0  0  0
   -2.2750   -0.7560    2.7370 O   0  0  0  0  0  0  0  0  0  0  0  0
   -2.0360    2.0870    2.3920 O   0  0  0  0  0  0  0  0  0  0  0  0
   -4.3460    0.7680    1.4630 O   0  0  0  0  0  0  0  0  0  0  0  0
   -0.5130   -1.0490   -0.0430 C   0  0  2  0  0  0  0  0  0  0  0  0
   -1.4570   -2.0450    0.0660 O   0  0  0  0  0  0  0  0  0  0  0  0
   -2.0260   -2.7650   -1.2070 P   0  0  0  0  0  0  0  0  0  0  0  0
   -0.5420   -3.2110   -1.5300 O   0  0  0  0  0  0  0  0  0  0  0  0
   -2.5570   -3.0100   -2.6550 O   0  0  0  0  0  0  0  0  0  0  0  0
   -3.0400   -3.8200   -0.4140 O   0  0  0  0  0  0  0  0  0  0  0  0
    0.8340   -1.3880    0.5610 C   0  0  1  0  0  0  0  0  0  0  0  0
    1.3010   -2.6260    0.2590 O   0  0  0  0  0  0  0  0  0  0  0  0
    1.8280   -0.3180    0.1470 C   0  0  2  0  0  0  0  0  0  0  0  0
    2.8690   -0.3800    0.9830 O   0  0  0  0  0  0  0  0  0  0  0  0
    4.3240   -0.9060    0.3740 P   0  0  0  0  0  0  0  0  0  0  0  0
    4.5840   -2.2400   -0.4580 O   0  0  0  0  0  0  0  0  0  0  0  0
    4.2840    0.0600   -0.7930 O   0  0  0  0  0  0  0  0  0  0  0  0
    5.6680   -0.1080    1.0620 O   0  0  0  0  0  0  0  0  0  0  0  0
  2  1  1  1
  2  3  1  0
  2 23  1  0
  3  4  1  1
  3  9  1  0
  4  5  1  0
  5  6  1  0
  5  7  1  0
  5  8  1  0
  9 10  1  6
  9 15  1  0
 10 11  1  0
 11 12  1  0
 11 13  1  0
 11 14  1  0
 15 16  1  1
 15 21  1  0
 16 17  1  0
 17 18  1  0
 17 19  1  0
 17 20  1  0
 21 22  1  6
 21 23  1  0
 23 24  1  1
 24 25  1  0
 25 26  1  0
 25 27  1  0
 25 28  1  0
M  END
