
     RDKit          3D

 14 13  0  0  0  0  0  0  0  0999 V2000
   -5.2160    0.2060   -1.0310 C   0  0  0  0  0  0  0  0  0  0  0  0
   -3.9370    0.3530   -0.2860 C   0  0  2  0  0  0  0  0  0  0  0  0
   -4.0310   -0.3260    0.9270 O   0  0  0  0  0  0  0  0  0  0  0  0
   -3.5470    1.6750   -0.1220 O   0  0  0  0  0  0  0  0  0  0  0  0
   -2.8810   -0.2840   -1.0170 O   0  0  0  0  0  0  0  0  0  0  0  0
   -1.4580   -0.1060   -0.1710 P   0  0  0  0  0  0  0  0  0  0  0  0
   -1.4160   -1.1500    1.2490 O   0  0  0  0  0  0  0  0  0  0  0  0
    0.0330   -0.0650   -0.9240 O   0  0  0  0  0  0  0  0  0  0  0  0
    0.6340   -1.3420   -0.8110 C   0  0  0  0  0  0  0  0  0  0  0  0
    2.0020   -1.0090   -0.2490 C   0  0  0  0  0  0  0  0  0  0  0  0
    2.7050   -0.0630   -0.9550 O   0  0  0  0  0  0  0  0  0  0  0  0
    3.9120    0.0700   -0.2530 C   0  0  0  0  0  0  0  0  0  0  0  0
    4.5920    1.3910   -0.3820 C   0  0  0  0  0  0  0  0  0  0  0  0
    5.6340    1.3820    0.5560 O   0  0  0  0  0  0  0  0  0  0  0  0
  2  1  1  6
  2  3  1  0
  2  4  1  0
  2  5  1  0
  5  6  1  0
  6  7  1  0
  6  8  1  0
  8  9  1  0
  9 10  1  0
 10 11  1  0
 11 12  1  0
 12 13  1  0
 13 14  1  0
M  END
