
     RDKit          3D

 14 13  0  0  0  0  0  0  0  0999 V2000
    1.5650    0.2000   -0.6570 O   0  0  0  0  0  0  0  0  0  0  0  0
    1.6890    0.8410    0.4130 C   0  0  0  0  0  0  0  0  0  0  0  0
    2.9780    1.1050    0.8350 O   0  0  0  0  0  0  0  0  0  0  0  0
    4.0660    0.6690    0.0910 C   0  0  0  0  0  0  0  0  0  0  0  0
    4.1750   -0.8140   -0.0990 C   0  0  0  0  0  0  0  0  0  0  0  0
    5.3360   -1.0290   -0.8720 O   0  0  0  0  0  0  0  0  0  0  0  0
    0.5660    1.2500    1.1160 O   0  0  0  0  0  0  0  0  0  0  0  0
   -0.7680    0.9840    0.6930 C   0  0  0  0  0  0  0  0  0  0  0  0
   -1.0620   -0.4860    0.5890 C   0  0  0  0  0  0  0  0  0  0  0  0
   -2.3540   -0.6850    0.1780 O   0  0  0  0  0  0  0  0  0  0  0  0
   -3.3340   -0.1720    0.9920 C   0  0  0  0  0  0  0  0  0  0  0  0
   -4.9700   -0.6050    0.1890 P   0  0  0  0  0  0  0  0  0  0  0  0
   -4.8210   -2.0520   -0.7490 O   0  0  0  0  0  0  0  0  0  0  0  0
   -5.5400    0.7310   -0.7140 O   0  0  0  0  0  0  0  0  0  0  0  0
  1  2  2  0
  2  3  1  0
  2  7  1  0
  3  4  1  0
  4  5  1  0
  5  6  1  0
  7  8  1  0
  8  9  1  0
  9 10  1  0
 10 11  1  0
 11 12  1  0
 12 13  1  0
 12 14  1  0
M  END
