
     RDKit          3D

 14 13  0  0  0  0  0  0  0  0999 V2000
   -0.1820    1.1550    1.2620 C   0  0  0  0  0  0  0  0  0  0  0  0
   -0.8600    0.3630    0.1440 C   0  0  1  0  0  0  0  0  0  0  0  0
   -0.8240    1.1340   -1.0680 O   0  0  0  0  0  0  0  0  0  0  0  0
    0.0000   -0.8870   -0.0310 C   0  0  0  0  0  0  0  0  0  0  0  0
    1.1270   -0.4340   -0.7550 O   0  0  0  0  0  0  0  0  0  0  0  0
    2.2510   -0.4780   -0.0750 O   0  0  0  0  0  0  0  0  0  0  0  0
    3.3290   -0.3130   -0.9620 C   0  0  0  0  0  0  0  0  0  0  0  0
    4.4300    0.2150   -0.0390 C   0  0  0  0  0  0  0  0  0  0  0  0
    5.5660    0.5060   -0.8050 O   0  0  0  0  0  0  0  0  0  0  0  0
   -2.2890    0.2720    0.3990 C   0  0  0  0  0  0  0  0  0  0  0  0
   -2.8190   -0.3910    1.4660 O   0  0  0  0  0  0  0  0  0  0  0  0
   -4.5860   -0.1620    1.1970 P   0  0  0  0  0  0  0  0  0  0  0  0
   -4.7870    1.4010    0.4080 O   0  0  0  0  0  0  0  0  0  0  0  0
   -5.1490   -1.3440    0.0090 O   0  0  0  0  0  0  0  0  0  0  0  0
  2  1  1  1
  2  3  1  0
  2  4  1  0
  2 10  1  0
  4  5  1  0
  5  6  1  0
  6  7  1  0
  7  8  1  0
  8  9  1  0
 10 11  1  0
 11 12  1  0
 12 13  1  0
 12 14  1  0
M  END
