
     RDKit          3D

 22 22  0  0  0  0  0  0  0  0999 V2000
    2.3430   -1.9090    1.7480 C   0  0  0  0  0  0  0  0  0  0  0  0
    2.8660   -0.8660    1.0510 C   0  0  0  0  0  0  0  0  0  0  0  0
    4.1110   -0.3650    1.6940 C   0  0  0  0  0  0  0  0  0  0  0  0
    2.1880   -0.3190   -0.1060 C   0  0  0  0  0  0  0  0  0  0  0  0
    0.8440   -0.8450   -0.4600 C   0  0  0  0  0  0  0  0  0  0  0  0
   -0.3470   -0.4130    0.2590 C   0  0  1  0  0  0  0  0  0  0  0  0
   -0.1640   -0.7250    1.6670 O   0  0  0  0  0  0  0  0  0  0  0  0
   -0.7770    0.9890    0.2900 C   0  0  1  0  0  0  0  0  0  0  0  0
    0.2830    1.8680    0.9540 C   0  0  0  0  0  0  0  0  0  0  0  0
   -1.3560    1.6270   -0.9120 C   0  0  0  0  0  0  0  0  0  0  0  0
   -1.6940    3.1090   -0.6020 C   0  0  0  0  0  0  0  0  0  0  0  0
   -2.7070    3.1500    0.5190 C   0  0  0  0  0  0  0  0  0  0  0  0
   -1.5050   -1.3430   -0.0680 C   0  0  1  0  0  0  0  0  0  0  0  0
   -2.7810   -0.9750    0.6230 C   0  0  0  0  0  0  0  0  0  0  0  0
   -1.7580   -1.6250   -1.4950 C   0  0  0  0  0  0  0  0  0  0  0  0
   -2.7120   -2.8470   -1.4210 C   0  0  0  0  0  0  0  0  0  0  0  0
   -2.4750   -3.4330   -0.0810 C   0  0  0  0  0  0  0  0  0  0  0  0
   -3.1560   -4.2360    0.4680 O   0  0  0  0  0  0  0  0  0  0  0  0
   -1.1970   -2.7880    0.4160 C   0  0  0  0  0  0  0  0  0  0  0  0
    2.6720    0.6240   -0.8510 C   0  0  0  0  0  0  0  0  0  0  0  0
    1.9500    1.1770   -2.0550 C   0  0  0  0  0  0  0  0  0  0  0  0
    4.0080    1.2890   -0.6460 C   0  0  0  0  0  0  0  0  0  0  0  0
  1  2  2  0
  2  3  1  0
  2  4  1  0
  4  5  1  0
  4 20  2  3
  5  6  1  0
  6  7  1  1
  6  8  1  0
  6 13  1  0
  8  9  1  6
  8 10  1  0
 10 11  1  0
 11 12  1  0
 13 14  1  1
 13 15  1  0
 13 19  1  0
 15 16  1  0
 16 17  1  0
 17 18  2  0
 17 19  1  0
 20 21  1  0
 20 22  1  0
M  END
