
     RDKit          3D

 22 23  0  0  0  0  0  0  0  0999 V2000
   -2.4590   -3.2120   -0.7450 C   0  0  0  0  0  0  0  0  0  0  0  0
   -2.4500   -2.7360    0.6670 C   0  0  0  0  0  0  0  0  0  0  0  0
   -1.5100   -1.4670    0.7960 C   0  0  0  0  0  0  0  0  0  0  0  0
   -2.0290   -0.4150   -0.0750 C   0  0  1  0  0  0  0  0  0  0  0  0
   -3.3770   -0.1970    0.4210 O   0  0  0  0  0  0  0  0  0  0  0  0
   -1.4860    0.9150   -0.1920 C   0  0  0  0  0  0  0  0  0  0  0  0
   -2.3660    1.8400   -0.8380 C   0  0  0  0  0  0  0  0  0  0  0  0
   -3.6990    1.4150   -1.3430 C   0  0  0  0  0  0  0  0  0  0  0  0
   -2.0190    3.1450   -1.0150 C   0  0  0  0  0  0  0  0  0  0  0  0
   -0.8000    3.5790   -0.5630 C   0  0  0  0  0  0  0  0  0  0  0  0
   -0.4470    5.0070   -0.7660 C   0  0  0  0  0  0  0  0  0  0  0  0
    0.0440    2.6970    0.0540 C   0  0  0  0  0  0  0  0  0  0  0  0
   -0.2880    1.3460    0.2480 C   0  0  0  0  0  0  0  0  0  0  0  0
    0.7630    0.4860    0.8650 C   0  0  0  0  0  0  0  0  0  0  0  0
    1.4920   -0.1770   -0.2800 C   0  0  0  0  0  0  0  0  0  0  0  0
    2.5510   -1.1270    0.1210 C   0  0  0  0  0  0  0  0  0  0  0  0
    2.4330   -2.4190   -0.2020 C   0  0  0  0  0  0  0  0  0  0  0  0
    3.4050   -3.4660    0.1320 C   0  0  0  0  0  0  0  0  0  0  0  0
    4.5150   -2.9520    0.7830 O   0  0  0  0  0  0  0  0  0  0  0  0
    4.6420   -1.6350    1.1120 C   0  0  0  0  0  0  0  0  0  0  0  0
    3.7310   -0.6910    0.8240 C   0  0  0  0  0  0  0  0  0  0  0  0
    4.0210    0.7220    1.2180 C   0  0  0  0  0  0  0  0  0  0  0  0
  1  2  1  0
  2  3  1  0
  3  4  1  0
  4  5  1  1
  4  6  1  0
  6  7  2  0
  6 13  1  0
  7  8  1  0
  7  9  1  0
  9 10  2  0
 10 11  1  0
 10 12  1  0
 12 13  2  0
 13 14  1  0
 14 15  1  0
 15 16  1  0
 16 17  2  0
 16 21  1  0
 17 18  1  0
 18 19  1  0
 19 20  1  0
 20 21  2  0
 21 22  1  0
M  END
