
     RDKit          3D

 22 22  0  0  0  0  0  0  0  0999 V2000
   -1.9490    3.8550    1.3260 C   0  0  0  0  0  0  0  0  0  0  0  0
   -1.7340    2.9190    0.3740 C   0  0  0  0  0  0  0  0  0  0  0  0
   -2.2720    1.5930    0.5140 C   0  0  0  0  0  0  0  0  0  0  0  0
   -2.2410    0.5240   -0.1950 C   0  0  0  0  0  0  0  0  0  0  0  0
   -1.5780    0.3510   -1.4730 C   0  0  0  0  0  0  0  0  0  0  0  0
   -0.3910    1.1870   -1.7950 C   0  0  0  0  0  0  0  0  0  0  0  0
    0.6540    1.0970   -0.9250 O   0  0  0  0  0  0  0  0  0  0  0  0
    1.2120   -0.1510   -0.8250 C   0  0  0  0  0  0  0  0  0  0  0  0
    2.3520   -0.0790    0.1790 C   0  0  0  0  0  0  0  0  0  0  0  0
    3.3770    0.9060   -0.2920 C   0  0  0  0  0  0  0  0  0  0  0  0
    4.5310    1.0560    0.6320 C   0  0  0  0  0  0  0  0  0  0  0  0
    5.3330   -0.1730    0.8950 C   0  0  1  0  0  0  0  0  0  0  0  0
    6.4540    0.2450    1.8600 C   0  0  0  0  0  0  0  0  0  0  0  0
    4.6440   -1.1780    1.5720 O   0  0  0  0  0  0  0  0  0  0  0  0
   -1.9910   -0.5700   -2.3740 C   0  0  0  0  0  0  0  0  0  0  0  0
   -3.1310   -1.3970   -2.0430 C   0  0  0  0  0  0  0  0  0  0  0  0
   -3.6100   -2.3260   -2.8670 C   0  0  0  0  0  0  0  0  0  0  0  0
   -3.8020   -1.2150   -0.7510 C   0  0  0  0  0  0  0  0  0  0  0  0
   -5.0830   -1.4950   -0.5970 C   0  0  0  0  0  0  0  0  0  0  0  0
   -2.9500   -0.6970    0.3450 C   0  0  1  0  0  0  0  0  0  0  0  0
   -1.9580   -1.8040    0.6820 C   0  0  0  0  0  0  0  0  0  0  0  0
   -3.7160   -0.4120    1.5910 C   0  0  0  0  0  0  0  0  0  0  0  0
  1  2  2  0
  2  3  1  0
  3  4  2  3
  4  5  1  0
  4 20  1  0
  5  6  1  0
  5 15  2  0
  6  7  1  0
  7  8  1  0
  8  9  1  0
  9 10  1  0
 10 11  1  0
 11 12  1  0
 12 13  1  1
 12 14  1  0
 15 16  1  0
 16 17  2  0
 16 18  1  0
 18 19  2  0
 18 20  1  0
 20 21  1  1
 20 22  1  0
M  END
