
     RDKit          3D

 22 23  0  0  0  0  0  0  0  0999 V2000
   -0.5180   -2.7900    1.3930 C   0  0  0  0  0  0  0  0  0  0  0  0
    0.3850   -1.6600    1.2650 C   0  0  0  0  0  0  0  0  0  0  0  0
    1.0840   -1.4320    2.2810 O   0  0  0  0  0  0  0  0  0  0  0  0
    0.5880   -0.7590    0.1290 C   0  0  2  0  0  0  0  0  0  0  0  0
    0.6600   -1.7240   -1.1050 C   0  0  0  0  0  0  0  0  0  0  0  0
    1.9880   -0.2170    0.1680 C   0  0  0  0  0  0  0  0  0  0  0  0
    2.2640    1.1360   -0.2200 C   0  0  0  0  0  0  0  0  0  0  0  0
    3.6490    1.6280   -0.3160 C   0  0  0  0  0  0  0  0  0  0  0  0
    4.7520    1.0100   -0.1020 C   0  0  0  0  0  0  0  0  0  0  0  0
    6.0300    1.8380   -0.2970 C   0  0  0  0  0  0  0  0  0  0  0  0
    5.0230   -0.3760    0.2940 C   0  0  0  0  0  0  0  0  0  0  0  0
    1.2740    1.9690   -0.5020 C   0  0  0  0  0  0  0  0  0  0  0  0
   -0.0930    1.4770   -0.4290 C   0  0  0  0  0  0  0  0  0  0  0  0
   -1.1470    2.4570   -0.8530 C   0  0  0  0  0  0  0  0  0  0  0  0
   -0.4480    0.2570   -0.1300 C   0  0  0  0  0  0  0  0  0  0  0  0
   -1.8950   -0.0040    0.0550 C   0  0  1  0  0  0  0  0  0  0  0  0
   -2.7620    0.9250    0.7980 C   0  0  0  0  0  0  0  0  0  0  0  0
   -4.1920    0.9310    0.2170 C   0  0  0  0  0  0  0  0  0  0  0  0
   -4.6940   -0.4860    0.3130 C   0  0  1  0  0  0  0  0  0  0  0  0
   -5.9510   -0.5110   -0.3320 O   0  0  0  0  0  0  0  0  0  0  0  0
   -3.7650   -1.5140   -0.2540 C   0  0  0  0  0  0  0  0  0  0  0  0
   -2.5580   -0.8780   -0.9670 C   0  0  0  0  0  0  0  0  0  0  0  0
  1  2  1  0
  2  3  2  0
  2  4  1  0
  4  5  1  6
  4  6  1  0
  4 15  1  0
  6  7  1  0
  7  8  1  0
  7 12  2  0
  8  9  2  3
  9 10  1  0
  9 11  1  0
 12 13  1  0
 13 14  1  0
 13 15  2  0
 16 15  1  6
 16 17  1  0
 16 22  1  0
 17 18  1  0
 18 19  1  0
 19 20  1  6
 19 21  1  0
 21 22  1  0
M  END
