
     RDKit          3D

 22 22  0  0  0  0  0  0  0  0999 V2000
    3.3570    0.4700   -2.8110 C   0  0  0  0  0  0  0  0  0  0  0  0
    3.8940    0.1050   -1.7220 C   0  0  0  0  0  0  0  0  0  0  0  0
    3.2190   -0.7780   -0.7130 C   0  0  0  0  0  0  0  0  0  0  0  0
    3.9440   -0.9990    0.3390 C   0  0  0  0  0  0  0  0  0  0  0  0
    3.7580   -1.7520    1.5680 C   0  0  0  0  0  0  0  0  0  0  0  0
    1.9680   -1.4340   -1.0940 C   0  0  2  0  0  0  0  0  0  0  0  0
    0.8300   -0.5050   -1.1130 C   0  0  0  0  0  0  0  0  0  0  0  0
   -0.3210   -0.6520   -0.4700 C   0  0  0  0  0  0  0  0  0  0  0  0
   -0.5890   -1.7290    0.3390 O   0  0  0  0  0  0  0  0  0  0  0  0
   -1.3880    0.3410   -0.6080 C   0  0  0  0  0  0  0  0  0  0  0  0
   -2.5500    0.4620   -0.1160 C   0  0  0  0  0  0  0  0  0  0  0  0
   -3.4300   -0.2350    0.7880 C   0  0  0  0  0  0  0  0  0  0  0  0
   -3.1820   -1.4940    1.5060 C   0  0  0  0  0  0  0  0  0  0  0  0
   -4.6540    0.2990    1.0310 C   0  0  0  0  0  0  0  0  0  0  0  0
   -5.6180   -0.3240    1.9270 C   0  0  0  0  0  0  0  0  0  0  0  0
   -0.9850    1.3750   -1.5110 O   0  0  0  0  0  0  0  0  0  0  0  0
   -1.1190    2.7260   -1.3430 C   0  0  0  0  0  0  0  0  0  0  0  0
   -0.4120    3.3100   -0.1400 C   0  0  1  0  0  0  0  0  0  0  0  0
   -0.5800    4.8080    0.0000 C   0  0  0  0  0  0  0  0  0  0  0  0
   -1.1780    3.8920    1.0060 C   0  0  0  0  0  0  0  0  0  0  0  0
    1.7010   -2.6820   -0.3590 C   0  0  0  0  0  0  0  0  0  0  0  0
    2.8550   -3.6520   -0.7220 C   0  0  0  0  0  0  0  0  0  0  0  0
  1  2  2  0
  2  3  1  0
  3  4  2  3
  3  6  1  0
  4  5  1  0
  6  7  1  0
  6 21  1  1
  7  8  2  3
  8  9  1  0
  8 10  1  0
 10 11  2  3
 10 16  1  0
 11 12  1  0
 12 13  1  0
 12 14  2  3
 14 15  1  0
 16 17  1  0
 18 17  1  6
 18 19  1  0
 18 20  1  0
 19 20  1  0
 21 22  1  0
M  END
