
     RDKit          3D

 35 37  0  0  0  0  0  0  0  0999 V2000
   -0.3180    1.5590   -0.0080 C   0  0  0  0  0  0  0  0  0  0  0  0
    0.0600    0.0940   -0.1470 C   0  0  0  0  0  0  0  0  0  0  0  0
    1.2800   -0.3500    0.1640 C   0  0  0  0  0  0  0  0  0  0  0  0
    2.3990    0.5060    0.7180 C   0  0  0  0  0  0  0  0  0  0  0  0
    2.1130    1.3820    1.5650 O   0  0  0  0  0  0  0  0  0  0  0  0
    3.7340    0.3070    0.2780 N   0  0  0  0  0  0  0  0  0  0  0  0
    4.8230    1.0610    0.7460 C   0  0  0  0  0  0  0  0  0  0  0  0
    4.5160    1.9540    1.6130 O   0  0  0  0  0  0  0  0  0  0  0  0
    6.2120    0.9290    0.3540 C   0  0  1  0  0  0  0  0  0  0  0  0
    6.7650   -0.4790    0.4380 C   0  0  0  0  0  0  0  0  0  0  0  0
    7.9860   -0.3390   -0.4500 C   0  0  0  0  0  0  0  0  0  0  0  0
    7.9160    0.8490   -1.1200 O   0  0  0  0  0  0  0  0  0  0  0  0
    6.6090    1.3590   -1.0020 C   0  0  1  0  0  0  0  0  0  0  0  0
    5.8270    0.8240   -2.1480 C   0  0  2  0  0  0  0  0  0  0  0  0
    5.8530   -0.5600   -2.2430 F   0  0  0  0  0  0  0  0  0  0  0  0
    6.5110    1.2510   -3.3070 F   0  0  0  0  0  0  0  0  0  0  0  0
    4.5680    1.3580   -2.2770 F   0  0  0  0  0  0  0  0  0  0  0  0
    1.5890   -1.6930   -0.0110 C   0  0  0  0  0  0  0  0  0  0  0  0
   -0.0280   -2.3230   -0.6750 S   0  0  0  0  0  0  0  0  0  0  0  0
   -0.8670   -0.7750   -0.6310 C   0  0  0  0  0  0  0  0  0  0  0  0
   -2.2910   -0.6640   -1.0330 C   0  0  0  0  0  0  0  0  0  0  0  0
   -3.2240   -0.7000    0.0930 C   0  0  0  0  0  0  0  0  0  0  0  0
   -3.1570    0.4230    0.9610 O   0  0  0  0  0  0  0  0  0  0  0  0
   -3.6880    1.6560    0.5370 C   0  0  0  0  0  0  0  0  0  0  0  0
   -5.1950    1.4700    0.2520 C   0  0  0  0  0  0  0  0  0  0  0  0
   -6.1050    1.7830    1.1660 C   0  0  0  0  0  0  0  0  0  0  0  0
   -7.4320    1.6150    0.8930 C   0  0  0  0  0  0  0  0  0  0  0  0
   -7.4230    0.9650   -0.7820 S   0  0  0  0  0  0  0  0  0  0  0  0
   -5.6110    0.9770   -0.9680 C   0  0  0  0  0  0  0  0  0  0  0  0
   -4.0960   -1.6100    0.3980 C   0  0  0  0  0  0  0  0  0  0  0  0
   -4.9780   -1.4600    1.6230 C   0  0  0  0  0  0  0  0  0  0  0  0
   -6.3140   -1.4480    1.2550 O   0  0  0  0  0  0  0  0  0  0  0  0
   -4.3070   -2.8180   -0.3530 C   0  0  0  0  0  0  0  0  0  0  0  0
   -3.6130   -3.1970   -1.5120 N   0  0  0  0  0  0  0  0  0  0  0  0
   -5.2110   -3.6690    0.0370 O   0  0  0  0  0  0  0  0  0  0  0  0
  1  2  1  0
  2  3  1  0
  2 20  2  0
  3  4  1  0
  3 18  2  0
  4  5  2  0
  4  6  1  0
  6  7  1  0
  7  8  2  0
  9  7  1  6
  9 10  1  0
  9 13  1  0
 10 11  1  0
 11 12  1  0
 13 12  1  6
 13 14  1  0
 14 15  1  1
 14 16  1  0
 14 17  1  0
 18 19  1  0
 19 20  1  0
 20 21  1  0
 21 22  1  0
 22 23  1  0
 22 30  2  3
 23 24  1  0
 24 25  1  0
 25 26  1  0
 25 29  2  0
 26 27  2  0
 27 28  1  0
 28 29  1  0
 30 31  1  0
 30 33  1  0
 31 32  1  0
 33 34  1  0
 33 35  2  0
M  END
