
     RDKit          3D

 35 37  0  0  0  0  0  0  0  0999 V2000
   -1.7210    4.2230    2.1550 N   0  0  0  0  0  0  0  0  0  0  0  0
   -0.6840    3.4260    1.5320 C   0  0  0  0  0  0  0  0  0  0  0  0
    0.3230    4.0440    1.1160 O   0  0  0  0  0  0  0  0  0  0  0  0
   -0.8990    2.0410    1.4500 N   0  0  0  0  0  0  0  0  0  0  0  0
    0.0060    1.1510    0.8840 C   0  0  0  0  0  0  0  0  0  0  0  0
    1.2800    1.5190    0.5340 C   0  0  0  0  0  0  0  0  0  0  0  0
    2.1790    0.5750    0.0230 C   0  0  0  0  0  0  0  0  0  0  0  0
    3.5220    0.9330   -0.4200 C   0  0  0  0  0  0  0  0  0  0  0  0
    3.8160    0.7090   -1.6490 O   0  0  0  0  0  0  0  0  0  0  0  0
    4.5680    1.5160    0.4020 C   0  0  2  0  0  0  0  0  0  0  0  0
    4.9200    0.6550    1.4580 F   0  0  0  0  0  0  0  0  0  0  0  0
    4.2970    2.8620    0.9950 C   0  0  0  0  0  0  0  0  0  0  0  0
    3.9830    4.0920   -0.2430 S   0  0  2  0  0  0  0  0  0  0  0  0
    3.1680    5.2140    0.3160 O   0  0  0  0  0  0  0  0  0  0  0  0
    3.2150    3.5270   -1.4100 O   0  0  0  0  0  0  0  0  0  0  0  0
    1.7710   -0.7230   -0.1190 C   0  0  0  0  0  0  0  0  0  0  0  0
    0.4480   -1.0860    0.2540 C   0  0  0  0  0  0  0  0  0  0  0  0
   -0.4320   -0.1650    0.7430 C   0  0  0  0  0  0  0  0  0  0  0  0
   -1.7230   -0.5120    1.0860 O   0  0  0  0  0  0  0  0  0  0  0  0
   -2.8630   -0.2580    0.3210 C   0  0  0  0  0  0  0  0  0  0  0  0
   -2.7240   -0.7600   -1.0740 C   0  0  2  0  0  0  0  0  0  0  0  0
   -1.6540   -0.1270   -1.7440 O   0  0  0  0  0  0  0  0  0  0  0  0
   -3.9820   -0.6790   -1.9070 C   0  0  0  0  0  0  0  0  0  0  0  0
   -4.5410    0.6780   -2.1040 C   0  0  1  0  0  0  0  0  0  0  0  0
   -4.9070    1.3340   -0.9740 F   0  0  0  0  0  0  0  0  0  0  0  0
   -3.7050    1.4690   -2.9110 F   0  0  0  0  0  0  0  0  0  0  0  0
    0.2700   -2.5440    0.1830 C   0  0  1  0  0  0  0  0  0  0  0  0
   -0.8710   -3.0870    0.9700 C   0  0  0  0  0  0  0  0  0  0  0  0
   -1.8560   -3.8730    0.5420 C   0  0  0  0  0  0  0  0  0  0  0  0
   -2.8290   -4.3090    1.3730 C   0  0  0  0  0  0  0  0  0  0  0  0
   -2.3380   -3.5520    2.9370 S   0  0  0  0  0  0  0  0  0  0  0  0
   -0.9240   -2.7530    2.3380 C   0  0  0  0  0  0  0  0  0  0  0  0
    0.4200   -2.9970   -1.2030 C   0  0  0  0  0  0  0  0  0  0  0  0
    1.8220   -2.6580   -1.6780 C   0  0  0  0  0  0  0  0  0  0  0  0
    2.6140   -1.8310   -0.6750 C   0  0  0  0  0  0  0  0  0  0  0  0
  1  2  1  0
  2  3  2  0
  2  4  1  0
  4  5  1  0
  5  6  2  0
  5 18  1  0
  6  7  1  0
  7  8  1  0
  7 16  2  0
  8  9  2  0
  8 10  1  0
 10 11  1  1
 10 12  1  0
 13 12  1  1
 13 14  2  0
 13 15  2  0
 16 17  1  0
 16 35  1  0
 17 18  2  0
 17 27  1  0
 18 19  1  0
 19 20  1  0
 20 21  1  0
 21 22  1  6
 21 23  1  0
 23 24  1  0
 24 25  1  1
 24 26  1  0
 27 28  1  6
 27 33  1  0
 28 29  1  0
 28 32  2  0
 29 30  2  0
 30 31  1  0
 31 32  1  0
 33 34  1  0
 34 35  1  0
M  END
