
     RDKit          3D

 35 40  0  0  0  0  0  0  0  0999 V2000
    0.2510    2.6270   -0.9860 C   0  0  0  0  0  0  0  0  0  0  0  0
    0.0130    1.3380   -0.1890 C   0  0  2  0  0  0  0  0  0  0  0  0
    0.5660    0.1990   -0.8530 N   0  0  0  0  0  0  0  0  0  0  0  0
    1.6180   -0.5710   -0.2960 C   0  0  0  0  0  0  0  0  0  0  0  0
    2.0530   -0.2040    0.8250 O   0  0  0  0  0  0  0  0  0  0  0  0
    2.1550   -1.6970   -0.9680 N   0  0  0  0  0  0  0  0  0  0  0  0
    3.2280   -2.4850   -0.4080 C   0  0  0  0  0  0  0  0  0  0  0  0
    4.5460   -1.7990   -0.5430 C   0  0  0  0  0  0  0  0  0  0  0  0
    5.2520   -1.8610   -1.7460 C   0  0  0  0  0  0  0  0  0  0  0  0
    6.4600   -1.2410   -1.8820 C   0  0  0  0  0  0  0  0  0  0  0  0
    7.0390   -0.5240   -0.8370 C   0  0  0  0  0  0  0  0  0  0  0  0
    6.3560   -0.4540    0.3530 C   0  0  0  0  0  0  0  0  0  0  0  0
    5.1150   -1.0930    0.4860 C   0  0  0  0  0  0  0  0  0  0  0  0
    7.0980    0.3290    1.3320 C   0  0  0  0  0  0  0  0  0  0  0  0
    6.6570    0.6910    2.4500 O   0  0  0  0  0  0  0  0  0  0  0  0
    8.4140    0.5800    0.7340 C   0  0  1  0  0  0  0  0  0  0  0  0
    9.4800   -0.3570    1.2620 C   0  0  0  0  0  0  0  0  0  0  0  0
    9.7190   -1.2930    0.2780 O   0  0  0  0  0  0  0  0  0  0  0  0
    9.5260   -0.6500   -0.9220 C   0  0  0  0  0  0  0  0  0  0  0  0
    8.2950    0.2200   -0.7190 C   0  0  1  0  0  0  0  0  0  0  0  0
   -1.4440    1.2060    0.0970 C   0  0  0  0  0  0  0  0  0  0  0  0
   -1.9500    1.5600    1.3350 C   0  0  0  0  0  0  0  0  0  0  0  0
   -3.2980    1.4400    1.6050 C   0  0  0  0  0  0  0  0  0  0  0  0
   -4.1980    0.9690    0.6720 C   0  0  0  0  0  0  0  0  0  0  0  0
   -5.5600    0.7460    0.6560 C   0  0  0  0  0  0  0  0  0  0  0  0
   -5.8280    0.2610   -0.6030 C   0  0  0  0  0  0  0  0  0  0  0  0
   -4.7140    0.1960   -1.2930 O   0  0  0  0  0  0  0  0  0  0  0  0
   -3.7020    0.6130   -0.5660 C   0  0  0  0  0  0  0  0  0  0  0  0
   -2.3460    0.7350   -0.8340 C   0  0  0  0  0  0  0  0  0  0  0  0
   -7.1960   -0.0960   -0.9980 C   0  0  0  0  0  0  0  0  0  0  0  0
   -8.1380   -0.2160    0.1540 C   0  0  1  0  0  0  0  0  0  0  0  0
   -9.5520   -0.0270   -0.4140 C   0  0  0  0  0  0  0  0  0  0  0  0
   -8.1350   -1.6030    0.7800 C   0  0  0  0  0  0  0  0  0  0  0  0
   -7.9670    0.8250    1.2150 C   0  0  0  0  0  0  0  0  0  0  0  0
   -6.5610    0.9570    1.7120 C   0  0  0  0  0  0  0  0  0  0  0  0
  2  1  1  6
  2  3  1  0
  2 21  1  0
  3  4  1  0
  4  5  2  0
  4  6  1  0
  6  7  1  0
  7  8  1  0
  8  9  2  0
  8 13  1  0
  9 10  1  0
 10 11  2  0
 11 12  1  0
 11 20  1  0
 12 13  2  0
 12 14  1  0
 14 15  2  0
 14 16  1  0
 16 17  1  1
 16 20  1  0
 17 18  1  0
 18 19  1  0
 20 19  1  1
 21 22  2  0
 21 29  1  0
 22 23  1  0
 23 24  2  0
 24 25  1  0
 24 28  1  0
 25 26  2  0
 25 35  1  0
 26 27  1  0
 26 30  1  0
 27 28  1  0
 28 29  2  0
 30 31  1  0
 31 32  1  6
 31 33  1  0
 31 34  1  0
 34 35  1  0
M  END
