
     RDKit          3D

 35 36  0  0  0  0  0  0  0  0999 V2000
   -7.3290    0.5750    1.3610 C   0  0  0  0  0  0  0  0  0  0  0  0
   -6.7640    1.6310    2.2370 C   0  0  0  0  0  0  0  0  0  0  0  0
   -5.6180    2.2320    1.9800 C   0  0  0  0  0  0  0  0  0  0  0  0
   -4.8650    1.8810    0.8300 N   0  0  0  0  0  0  0  0  0  0  0  0
   -3.4220    1.8620    0.8110 C   0  0  1  0  0  0  0  0  0  0  0  0
   -2.7270    0.5590    1.8600 S   0  0  0  0  0  0  0  0  0  0  0  0
   -1.2550    0.2710    0.7970 C   0  0  0  0  0  0  0  0  0  0  0  0
   -0.0360   -0.2240    1.3980 C   0  0  0  0  0  0  0  0  0  0  0  0
   -0.0900   -0.6970    2.5610 O   0  0  0  0  0  0  0  0  0  0  0  0
    1.2310   -0.2150    0.7900 N   0  0  0  0  0  0  0  0  0  0  0  0
    2.3970   -0.7690    1.4290 C   0  0  0  0  0  0  0  0  0  0  0  0
    2.1860   -1.2560    2.5650 O   0  0  0  0  0  0  0  0  0  0  0  0
    3.6570   -0.7190    0.7330 C   0  0  0  0  0  0  0  0  0  0  0  0
    4.8190   -1.1660    1.1400 C   0  0  0  0  0  0  0  0  0  0  0  0
    4.9770   -1.8050    2.4240 C   0  0  0  0  0  0  0  0  0  0  0  0
    6.1520   -2.2150    2.7470 O   0  0  0  0  0  0  0  0  0  0  0  0
    6.0180   -1.0300    0.2910 C   0  0  0  0  0  0  0  0  0  0  0  0
    6.0200   -0.4470   -0.9450 C   0  0  0  0  0  0  0  0  0  0  0  0
    7.3370   -0.5140   -1.4200 C   0  0  0  0  0  0  0  0  0  0  0  0
    8.0400   -1.1380   -0.4310 C   0  0  0  0  0  0  0  0  0  0  0  0
    9.5030   -1.4390   -0.4810 C   0  0  0  0  0  0  0  0  0  0  0  0
    7.2300   -1.4200    0.5460 O   0  0  0  0  0  0  0  0  0  0  0  0
   -1.5930    0.7390   -0.3600 C   0  0  0  0  0  0  0  0  0  0  0  0
   -0.5050    0.6880   -1.8150 S   0  0  0  0  0  0  0  0  0  0  0  0
    0.0430   -0.9440   -2.2420 C   0  0  0  0  0  0  0  0  0  0  0  0
   -1.1850   -1.7490   -2.7100 C   0  0  1  0  0  0  0  0  0  0  0  0
   -0.6600   -3.1380   -3.0690 C   0  0  0  0  0  0  0  0  0  0  0  0
   -2.0220   -1.8720   -1.6040 O   0  0  0  0  0  0  0  0  0  0  0  0
   -2.8450    1.4730   -0.4970 C   0  0  2  0  0  0  0  0  0  0  0  0
   -2.6070    2.6940   -1.3830 C   0  0  0  0  0  0  0  0  0  0  0  0
   -3.7820    0.6130   -1.1150 O   0  0  0  0  0  0  0  0  0  0  0  0
   -5.1220    3.2750    2.9020 C   0  0  1  0  0  0  0  0  0  0  0  0
   -6.0190    3.4650    3.9470 F   0  0  0  0  0  0  0  0  0  0  0  0
   -3.9380    2.8490    3.5150 F   0  0  0  0  0  0  0  0  0  0  0  0
   -4.9640    4.4970    2.2880 F   0  0  0  0  0  0  0  0  0  0  0  0
  1  2  1  0
  2  3  2  3
  3  4  1  0
  3 32  1  0
  5  4  1  6
  5  6  1  0
  5 29  1  0
  6  7  1  0
  7  8  1  0
  7 23  2  0
  8  9  2  0
  8 10  1  0
 10 11  1  0
 11 12  2  0
 11 13  1  0
 13 14  2  3
 14 15  1  0
 14 17  1  0
 15 16  2  0
 17 18  2  0
 17 22  1  0
 18 19  1  0
 19 20  2  0
 20 21  1  0
 20 22  1  0
 23 24  1  0
 23 29  1  0
 24 25  1  0
 25 26  1  0
 26 27  1  1
 26 28  1  0
 29 30  1  6
 29 31  1  0
 32 33  1  1
 32 34  1  0
 32 35  1  0
M  END
