
     RDKit          3D

 30 33  0  0  0  0  0  0  0  0999 V2000
   -5.5620    2.6920   -1.8700 C   0  0  0  0  0  0  0  0  0  0  0  0
   -5.3480    1.2190   -1.7140 C   0  0  0  0  0  0  0  0  0  0  0  0
   -4.0610    0.7520   -1.6490 C   0  0  0  0  0  0  0  0  0  0  0  0
   -3.8090   -0.5880   -1.5040 C   0  0  0  0  0  0  0  0  0  0  0  0
   -2.4180   -1.0570   -1.4410 C   0  0  2  0  0  0  0  0  0  0  0  0
   -2.1290   -2.2490   -2.3340 C   0  0  0  0  0  0  0  0  0  0  0  0
   -2.1160   -3.5620   -1.5820 C   0  0  0  0  0  0  0  0  0  0  0  0
   -1.1270   -3.6170   -0.4560 C   0  0  0  0  0  0  0  0  0  0  0  0
   -0.8920   -2.1910   -0.0390 N   0  0  0  0  0  0  0  0  0  0  0  0
    0.3710   -1.7700    0.2690 C   0  0  0  0  0  0  0  0  0  0  0  0
    1.2950   -2.6810    0.2490 O   0  0  0  0  0  0  0  0  0  0  0  0
    0.8290   -0.4510    0.6130 C   0  0  0  0  0  0  0  0  0  0  0  0
    0.2200    0.7790    0.6620 C   0  0  0  0  0  0  0  0  0  0  0  0
    1.1410    1.7360    1.0720 C   0  0  0  0  0  0  0  0  0  0  0  0
    2.3030    1.0530    1.2640 C   0  0  0  0  0  0  0  0  0  0  0  0
    3.5960    1.6430    1.7090 C   0  0  0  0  0  0  0  0  0  0  0  0
    4.6460    0.8640    1.8650 C   0  0  0  0  0  0  0  0  0  0  0  0
    5.9010    1.4740    2.3020 C   0  0  0  0  0  0  0  0  0  0  0  0
    7.0590    0.7580    2.5100 C   0  0  0  0  0  0  0  0  0  0  0  0
    7.9830    1.7220    2.9100 C   0  0  0  0  0  0  0  0  0  0  0  0
    7.3430    2.9530    2.9220 C   0  0  0  0  0  0  0  0  0  0  0  0
    7.9990    4.1730    3.2870 C   0  0  0  0  0  0  0  0  0  0  0  0
    8.5350    5.1690    3.5970 N   0  0  0  0  0  0  0  0  0  0  0  0
    6.1050    2.7470    2.5520 O   0  0  0  0  0  0  0  0  0  0  0  0
    2.0910   -0.1750    0.9970 O   0  0  0  0  0  0  0  0  0  0  0  0
   -2.1070   -1.4410    0.0080 C   0  0  0  0  0  0  0  0  0  0  0  0
   -4.8470   -1.4380   -1.4280 N   0  0  0  0  0  0  0  0  0  0  0  0
   -6.0960   -0.9770   -1.4920 C   0  0  0  0  0  0  0  0  0  0  0  0
   -7.4840   -2.0620   -1.3980 Cl  0  0  0  0  0  0  0  0  0  0  0  0
   -6.3590    0.3480   -1.6350 N   0  0  0  0  0  0  0  0  0  0  0  0
  1  2  1  0
  2  3  2  0
  2 30  1  0
  3  4  1  0
  5  4  1  1
  4 27  2  0
  5  6  1  0
  5 26  1  0
  6  7  1  0
  7  8  1  0
  8  9  1  0
  9 10  1  0
  9 26  1  0
 10 11  2  0
 10 12  1  0
 12 13  2  0
 12 25  1  0
 13 14  1  0
 14 15  2  0
 15 16  1  0
 15 25  1  0
 16 17  2  3
 17 18  1  0
 18 19  2  0
 18 24  1  0
 19 20  1  0
 20 21  2  0
 21 22  1  0
 21 24  1  0
 22 23  3  0
 27 28  1  0
 28 29  1  0
 28 30  2  0
M  END
