
     RDKit          3D

 31 32  0  0  0  0  0  0  0  0999 V2000
    8.6990   -1.3560   -2.0520 O   0  0  0  0  0  0  0  0  0  0  0  0
    9.0630   -0.0410   -2.6880 S   0  0  0  0  0  0  0  0  0  0  0  0
    9.9190    1.0440   -1.5960 C   0  0  0  0  0  0  0  0  0  0  0  0
    9.2960    1.6190   -0.6050 C   0  0  0  0  0  0  0  0  0  0  0  0
    7.8540    1.3390   -0.4220 C   0  0  0  0  0  0  0  0  0  0  0  0
    7.2210    1.9090    0.5660 C   0  0  0  0  0  0  0  0  0  0  0  0
    5.8170    1.6850    0.8080 C   0  0  0  0  0  0  0  0  0  0  0  0
    5.2780    2.2860    1.8010 O   0  0  0  0  0  0  0  0  0  0  0  0
    5.0490    0.8350   -0.0110 N   0  0  0  0  0  0  0  0  0  0  0  0
    3.6360    0.6380    0.2860 C   0  0  0  0  0  0  0  0  0  0  0  0
    3.4470    0.0130    1.6250 C   0  0  0  0  0  0  0  0  0  0  0  0
    2.0250   -0.1810    1.9130 N   0  0  0  0  0  0  0  0  0  0  0  0
    1.2220   -1.0050    1.0880 C   0  0  0  0  0  0  0  0  0  0  0  0
    1.6530   -1.6180    0.0810 O   0  0  0  0  0  0  0  0  0  0  0  0
   -0.1780   -1.1930    1.3630 N   0  0  0  0  0  0  0  0  0  0  0  0
   -1.0250   -2.0300    0.5370 C   0  0  1  0  0  0  0  0  0  0  0  0
   -1.5220   -3.1890    1.4050 C   0  0  0  0  0  0  0  0  0  0  0  0
   -2.3750   -2.4320    2.8120 S   0  0  0  0  0  0  0  0  0  0  0  0
   -3.3520   -1.0380    2.1890 C   0  0  0  0  0  0  0  0  0  0  0  0
   -3.4180   -1.1300    0.7470 N   0  0  0  0  0  0  0  0  0  0  0  0
   -4.7180   -1.0210    0.1180 C   0  0  0  0  0  0  0  0  0  0  0  0
   -5.0650    0.3330   -0.2120 N   0  0  0  0  0  0  0  0  0  0  0  0
   -6.3020    0.5950   -0.8310 C   0  0  0  0  0  0  0  0  0  0  0  0
   -6.6610    1.8820   -1.1580 C   0  0  0  0  0  0  0  0  0  0  0  0
   -7.8560    2.2250   -1.7670 C   0  0  0  0  0  0  0  0  0  0  0  0
   -8.7330    1.1870   -2.0570 C   0  0  0  0  0  0  0  0  0  0  0  0
   -9.9540    1.4390   -2.6670 O   0  0  0  0  0  0  0  0  0  0  0  0
   -8.4210   -0.1140   -1.7510 C   0  0  0  0  0  0  0  0  0  0  0  0
   -7.2240   -0.4110   -1.1460 C   0  0  0  0  0  0  0  0  0  0  0  0
   -2.2200   -1.3180    0.0220 C   0  0  0  0  0  0  0  0  0  0  0  0
   -2.1810   -0.8350   -1.1580 O   0  0  0  0  0  0  0  0  0  0  0  0
  1  2  2  0
  2  3  1  0
  3  4  2  3
  4  5  1  0
  5  6  2  3
  6  7  1  0
  7  8  2  0
  7  9  1  0
  9 10  1  0
 10 11  1  0
 11 12  1  0
 12 13  1  0
 13 14  2  0
 13 15  1  0
 16 15  1  1
 16 17  1  0
 16 30  1  0
 17 18  1  0
 18 19  1  0
 19 20  1  0
 20 21  1  0
 20 30  1  0
 21 22  1  0
 22 23  1  0
 23 24  2  0
 23 29  1  0
 24 25  1  0
 25 26  2  0
 26 27  1  0
 26 28  1  0
 28 29  2  0
 30 31  2  0
M  END
