
     RDKit          3D

 29 32  0  0  0  0  0  0  0  0999 V2000
   -3.4030    2.7410    1.4550 C   0  0  0  0  0  0  0  0  0  0  0  0
   -3.7340    1.8900    0.2360 C   0  0  2  0  0  0  0  0  0  0  0  0
   -3.8870    2.8340   -0.9740 C   0  0  0  0  0  0  0  0  0  0  0  0
   -4.9910    1.1390    0.4660 C   0  0  0  0  0  0  0  0  0  0  0  0
   -4.7030   -0.2040    1.0800 C   0  0  0  0  0  0  0  0  0  0  0  0
   -3.8840   -1.0610    0.1230 C   0  0  1  0  0  0  0  0  0  0  0  0
   -3.5960   -2.3420    0.9140 C   0  0  0  0  0  0  0  0  0  0  0  0
   -4.6480   -1.3690   -1.1330 C   0  0  0  0  0  0  0  0  0  0  0  0
   -2.6180   -0.3310   -0.1450 C   0  0  0  0  0  0  0  0  0  0  0  0
   -1.4760   -1.0340   -0.4600 C   0  0  0  0  0  0  0  0  0  0  0  0
   -0.2470   -0.3660   -0.7330 C   0  0  0  0  0  0  0  0  0  0  0  0
    0.8480   -1.1980   -1.1110 C   0  0  0  0  0  0  0  0  0  0  0  0
    0.5320   -2.1910   -1.9080 O   0  0  0  0  0  0  0  0  0  0  0  0
    2.2370   -1.1400   -0.7640 C   0  0  0  0  0  0  0  0  0  0  0  0
    3.0020   -2.3050   -0.9500 C   0  0  0  0  0  0  0  0  0  0  0  0
    4.3270   -2.3140   -0.6330 C   0  0  0  0  0  0  0  0  0  0  0  0
    4.9740   -1.2110   -0.1250 C   0  0  0  0  0  0  0  0  0  0  0  0
    6.3100   -1.2020    0.1920 C   0  0  0  0  0  0  0  0  0  0  0  0
    6.9260   -0.0800    0.6900 C   0  0  0  0  0  0  0  0  0  0  0  0
    8.3470   -0.1280    1.0040 C   0  0  0  0  0  0  0  0  0  0  0  0
    8.9250    0.8790    1.4610 O   0  0  0  0  0  0  0  0  0  0  0  0
    9.0780   -1.2960    0.7990 O   0  0  0  0  0  0  0  0  0  0  0  0
    6.1870    1.0610    0.8770 C   0  0  0  0  0  0  0  0  0  0  0  0
    4.8570    1.0650    0.5650 C   0  0  0  0  0  0  0  0  0  0  0  0
    4.2310   -0.0780    0.0580 C   0  0  0  0  0  0  0  0  0  0  0  0
    2.8740   -0.0630   -0.2640 C   0  0  0  0  0  0  0  0  0  0  0  0
   -0.2240    0.9920   -0.6790 C   0  0  0  0  0  0  0  0  0  0  0  0
   -1.3730    1.7170   -0.3610 C   0  0  0  0  0  0  0  0  0  0  0  0
   -2.5790    1.0320   -0.0930 C   0  0  0  0  0  0  0  0  0  0  0  0
  2  1  1  1
  2  3  1  0
  2  4  1  0
  2 29  1  0
  4  5  1  0
  5  6  1  0
  6  7  1  1
  6  8  1  0
  6  9  1  0
  9 10  2  0
  9 29  1  0
 10 11  1  0
 11 12  1  0
 11 27  2  0
 12 13  2  0
 12 14  1  0
 14 15  2  0
 14 26  1  0
 15 16  1  0
 16 17  2  0
 17 18  1  0
 17 25  1  0
 18 19  2  0
 19 20  1  0
 19 23  1  0
 20 21  2  0
 20 22  1  0
 23 24  2  0
 24 25  1  0
 25 26  2  0
 27 28  1  0
 28 29  2  0
M  END
