
     RDKit          3D

 31 34  0  0  0  0  0  0  0  0999 V2000
  -10.1910    1.0600    0.6460 N   0  0  0  0  0  0  0  0  0  0  0  0
   -9.1680    1.5070    0.4930 C   0  0  0  0  0  0  0  0  0  0  0  0
   -7.8010    2.1060    0.3150 C   0  0  0  0  0  0  0  0  0  0  0  0
   -6.8370    1.0600    0.7840 C   0  0  1  0  0  0  0  0  0  0  0  0
   -6.7950   -0.2770    0.1250 C   0  0  0  0  0  0  0  0  0  0  0  0
   -5.6470    0.6520   -0.0350 C   0  0  2  0  0  0  0  0  0  0  0  0
   -4.4220    0.4380    0.8120 C   0  0  0  0  0  0  0  0  0  0  0  0
   -3.1230    0.6600    0.4070 C   0  0  0  0  0  0  0  0  0  0  0  0
   -2.2940    0.3490    1.4620 C   0  0  0  0  0  0  0  0  0  0  0  0
   -0.8100    0.4270    1.4930 C   0  0  0  0  0  0  0  0  0  0  0  0
   -0.1740   -0.8500    1.1800 C   0  0  0  0  0  0  0  0  0  0  0  0
   -0.9120   -1.8110    0.8880 O   0  0  0  0  0  0  0  0  0  0  0  0
    1.2360   -1.0250    1.2040 N   0  0  0  0  0  0  0  0  0  0  0  0
    1.9690    0.2390    1.5540 C   0  0  0  0  0  0  0  0  0  0  0  0
    3.3730    0.1540    0.9670 C   0  0  0  0  0  0  0  0  0  0  0  0
    3.1530    0.0180   -0.4090 O   0  0  0  0  0  0  0  0  0  0  0  0
    3.9920    0.3680   -1.4600 C   0  0  0  0  0  0  0  0  0  0  0  0
    3.5100    1.2600   -2.4340 C   0  0  0  0  0  0  0  0  0  0  0  0
    4.2610    1.6780   -3.5100 C   0  0  0  0  0  0  0  0  0  0  0  0
    5.5480    1.2210   -3.6740 C   0  0  0  0  0  0  0  0  0  0  0  0
    6.4860    1.7640   -5.0420 Cl  0  0  0  0  0  0  0  0  0  0  0  0
    6.0140    0.3550   -2.7300 C   0  0  0  0  0  0  0  0  0  0  0  0
    5.2750   -0.0970   -1.6150 C   0  0  0  0  0  0  0  0  0  0  0  0
    5.9230   -1.0710   -0.7150 C   0  0  0  0  0  0  0  0  0  0  0  0
    5.5720   -2.2990   -0.3850 C   0  0  0  0  0  0  0  0  0  0  0  0
    4.4770   -3.1370   -0.7500 C   0  0  0  0  0  0  0  0  0  0  0  0
    3.3590   -3.4270   -0.2330 N   0  0  0  0  0  0  0  0  0  0  0  0
    2.7090   -3.0330    0.9570 C   0  0  0  0  0  0  0  0  0  0  0  0
    2.0180   -2.0530    0.9890 N   0  0  0  0  0  0  0  0  0  0  0  0
   -3.1480   -0.0550    2.4770 C   0  0  0  0  0  0  0  0  0  0  0  0
   -4.3790    0.0130    2.0530 O   0  0  0  0  0  0  0  0  0  0  0  0
  1  2  3  0
  2  3  1  0
  4  3  1  6
  4  5  1  0
  4  6  1  0
  5  6  1  0
  6  7  1  1
  7  8  2  0
  7 31  1  0
  8  9  1  0
  9 10  1  0
  9 30  2  0
 10 11  1  0
 11 12  2  0
 11 13  1  0
 13 14  1  0
 13 29  1  0
 14 15  1  0
 15 16  1  0
 16 17  1  0
 17 18  2  0
 17 23  1  0
 18 19  1  0
 19 20  2  0
 20 21  1  0
 20 22  1  0
 22 23  2  0
 23 24  1  0
 24 25  2  0
 25 26  1  0
 26 27  2  0
 27 28  1  0
 28 29  2  0
 30 31  1  0
M  END
