
     RDKit          3D

 31 34  0  0  0  0  0  0  0  0999 V2000
   -1.5130    1.6950   -2.3940 C   0  0  0  0  0  0  0  0  0  0  0  0
   -0.4310    1.7460   -1.3720 C   0  0  0  0  0  0  0  0  0  0  0  0
   -0.2780    0.5000   -0.5440 C   0  0  1  0  0  0  0  0  0  0  0  0
   -1.4870    0.1550    0.2180 C   0  0  0  0  0  0  0  0  0  0  0  0
   -1.9590    1.0290    1.3040 C   0  0  0  0  0  0  0  0  0  0  0  0
   -3.1920    1.6050    1.4620 C   0  0  0  0  0  0  0  0  0  0  0  0
   -3.1970    2.3460    2.6240 C   0  0  0  0  0  0  0  0  0  0  0  0
   -4.2980    3.1500    3.2220 C   0  0  0  0  0  0  0  0  0  0  0  0
   -4.2240    4.8200    2.6090 Cl  0  0  0  0  0  0  0  0  0  0  0  0
   -1.9590    2.1880    3.1270 N   0  0  0  0  0  0  0  0  0  0  0  0
   -1.2630    1.4210    2.3430 O   0  0  0  0  0  0  0  0  0  0  0  0
   -2.2030   -0.9010   -0.0860 C   0  0  0  0  0  0  0  0  0  0  0  0
   -3.4200   -1.2640    0.6760 C   0  0  0  0  0  0  0  0  0  0  0  0
   -4.1100   -2.3200    0.3000 C   0  0  0  0  0  0  0  0  0  0  0  0
   -3.7470   -3.1360   -0.8070 N   0  0  0  0  0  0  0  0  0  0  0  0
   -4.5030   -4.2990   -1.2280 C   0  0  0  0  0  0  0  0  0  0  0  0
   -2.5640   -2.7660   -1.5290 C   0  0  0  0  0  0  0  0  0  0  0  0
   -1.8180   -1.7410   -1.2330 C   0  0  0  0  0  0  0  0  0  0  0  0
   -0.5900   -1.4380   -2.0240 C   0  0  0  0  0  0  0  0  0  0  0  0
    0.2990   -0.6090   -1.2330 N   0  0  0  0  0  0  0  0  0  0  0  0
    1.6710   -0.9370   -1.1910 C   0  0  0  0  0  0  0  0  0  0  0  0
    2.0790   -1.9310   -1.8350 O   0  0  0  0  0  0  0  0  0  0  0  0
    2.6650   -0.1560   -0.4120 C   0  0  0  0  0  0  0  0  0  0  0  0
    4.0600   -0.7380   -0.5660 C   0  0  0  0  0  0  0  0  0  0  0  0
    5.0280    0.0290    0.1970 N   0  0  0  0  0  0  0  0  0  0  0  0
    5.6890    1.0840   -0.3180 C   0  0  0  0  0  0  0  0  0  0  0  0
    6.6060    1.8280    0.3800 C   0  0  0  0  0  0  0  0  0  0  0  0
    6.8680    1.4770    1.6820 C   0  0  0  0  0  0  0  0  0  0  0  0
    6.1920    0.3990    2.2090 C   0  0  0  0  0  0  0  0  0  0  0  0
    5.2790   -0.3160    1.4650 C   0  0  0  0  0  0  0  0  0  0  0  0
    4.6760   -1.2910    1.9600 O   0  0  0  0  0  0  0  0  0  0  0  0
  1  2  1  0
  3  2  1  6
  3  4  1  0
  3 20  1  0
  4  5  1  0
  4 12  2  0
  5  6  2  0
  5 11  1  0
  6  7  1  0
  7  8  1  0
  7 10  2  0
  8  9  1  0
 10 11  1  0
 12 13  1  0
 12 18  1  0
 13 14  2  0
 14 15  1  0
 15 16  1  0
 15 17  1  0
 17 18  2  0
 18 19  1  0
 19 20  1  0
 20 21  1  0
 21 22  2  0
 21 23  1  0
 23 24  1  0
 24 25  1  0
 25 26  1  0
 25 30  1  0
 26 27  2  0
 27 28  1  0
 28 29  2  0
 29 30  1  0
 30 31  2  0
M  END
