
     RDKit          3D

  9  8  0  0  0  0  0  0  0  0999 V2000
    2.8390    0.9850    0.2930 C   0  0  0  0  0  0  0  0  0  0  0  0
    2.5860   -0.3250    0.6050 O   0  0  0  0  0  0  0  0  0  0  0  0
    1.8160   -1.0240   -0.2900 C   0  0  0  0  0  0  0  0  0  0  0  0
    0.4300   -0.4640   -0.4850 C   0  0  0  0  0  0  0  0  0  0  0  0
   -0.3160   -0.4330    0.6480 O   0  0  0  0  0  0  0  0  0  0  0  0
   -1.5370    0.0600    0.5730 N   0  0  0  0  0  0  0  0  0  0  0  0
   -2.5590   -0.2880   -0.3320 C   0  0  0  0  0  0  0  0  0  0  0  0
   -3.8480    0.3130   -0.3290 N   0  0  0  0  0  0  0  0  0  0  0  0
   -2.3300   -1.1700   -1.1890 O   0  0  0  0  0  0  0  0  0  0  0  0
  1  2  1  0
  2  3  1  0
  3  4  1  0
  4  5  1  0
  5  6  1  0
  6  7  1  0
  7  8  1  0
  7  9  2  0
M  END
