
     RDKit          3D

 22 24  0  0  0  0  0  0  0  0999 V2000
   -3.2600    1.7340   -0.2530 C   0  0  0  0  0  0  0  0  0  0  0  0
   -4.0610    0.4870   -0.3150 C   0  0  0  0  0  0  0  0  0  0  0  0
   -5.3970    0.4670   -0.1300 C   0  0  0  0  0  0  0  0  0  0  0  0
   -5.8780   -0.8960   -0.2540 C   0  0  0  0  0  0  0  0  0  0  0  0
   -4.8520   -1.6800   -0.5080 C   0  0  0  0  0  0  0  0  0  0  0  0
   -3.6080   -0.8650   -0.5690 C   0  0  0  0  0  0  0  0  0  0  0  0
   -2.4320   -1.2920   -0.7950 N   0  0  0  0  0  0  0  0  0  0  0  0
   -1.3190   -0.4210   -0.8300 C   0  0  0  0  0  0  0  0  0  0  0  0
   -1.1030    0.3310   -1.8380 N   0  0  0  0  0  0  0  0  0  0  0  0
   -0.4160   -0.3640    0.2620 N   0  0  0  0  0  0  0  0  0  0  0  0
    0.9660   -0.3080    0.0520 C   0  0  0  0  0  0  0  0  0  0  0  0
    1.5920   -0.4280   -1.1530 C   0  0  0  0  0  0  0  0  0  0  0  0
    2.9630   -0.3580   -1.3150 C   0  0  0  0  0  0  0  0  0  0  0  0
    3.7290   -0.1520   -0.1600 C   0  0  0  0  0  0  0  0  0  0  0  0
    5.1040   -0.0720   -0.2490 C   0  0  0  0  0  0  0  0  0  0  0  0
    5.6130   -0.1910   -1.3940 O   0  0  0  0  0  0  0  0  0  0  0  0
    5.8070    0.1250    0.8650 N   0  0  0  0  0  0  0  0  0  0  0  0
    5.2490    0.2470    2.0570 N   0  0  0  0  0  0  0  0  0  0  0  0
    3.9220    0.1810    2.2220 C   0  0  0  0  0  0  0  0  0  0  0  0
    3.3740    0.2930    3.3320 O   0  0  0  0  0  0  0  0  0  0  0  0
    3.1410   -0.0240    1.0840 C   0  0  0  0  0  0  0  0  0  0  0  0
    1.7790   -0.1020    1.1810 C   0  0  0  0  0  0  0  0  0  0  0  0
  1  2  1  0
  2  3  2  0
  2  6  1  0
  3  4  1  0
  4  5  2  0
  5  6  1  0
  6  7  2  3
  7  8  1  0
  8  9  2  0
  8 10  1  0
 10 11  1  0
 11 12  2  0
 11 22  1  0
 12 13  1  0
 13 14  2  0
 14 15  1  0
 14 21  1  0
 15 16  2  0
 15 17  1  0
 17 18  1  0
 18 19  1  0
 19 20  2  0
 19 21  1  0
 21 22  2  0
M  END
