
     RDKit          3D

 22 24  0  0  0  0  0  0  0  0999 V2000
   -0.9230    1.0190   -1.9310 C   0  0  0  0  0  0  0  0  0  0  0  0
   -1.3860    0.4840   -0.8590 C   0  0  0  0  0  0  0  0  0  0  0  0
   -0.5730   -0.4460   -0.0460 C   0  0  0  0  0  0  0  0  0  0  0  0
    0.8210   -0.2360    0.0400 N   0  0  0  0  0  0  0  0  0  0  0  0
    1.4250    0.8460   -0.4920 N   0  0  0  0  0  0  0  0  0  0  0  0
    2.7370    0.8210   -0.2960 C   0  0  0  0  0  0  0  0  0  0  0  0
    3.7690    1.6680   -0.6340 C   0  0  0  0  0  0  0  0  0  0  0  0
    3.5250    2.7160   -1.2640 O   0  0  0  0  0  0  0  0  0  0  0  0
    5.0130    1.3350   -0.2720 N   0  0  0  0  0  0  0  0  0  0  0  0
    5.2600    0.1890    0.4140 C   0  0  0  0  0  0  0  0  0  0  0  0
    6.4330   -0.1000    0.7420 O   0  0  0  0  0  0  0  0  0  0  0  0
    4.2710   -0.6660    0.7630 N   0  0  0  0  0  0  0  0  0  0  0  0
    3.0260   -0.3350    0.4020 C   0  0  0  0  0  0  0  0  0  0  0  0
    1.7780   -0.9710    0.5900 C   0  0  0  0  0  0  0  0  0  0  0  0
    1.6640   -2.2540    1.2880 C   0  0  0  0  0  0  0  0  0  0  0  0
   -1.2590   -1.4190    0.5220 C   0  0  0  0  0  0  0  0  0  0  0  0
   -2.7050   -1.5680    0.3600 C   0  0  0  0  0  0  0  0  0  0  0  0
   -3.2830   -2.5930    0.9380 N   0  0  0  0  0  0  0  0  0  0  0  0
   -3.4710   -0.5970   -0.4250 C   0  0  0  0  0  0  0  0  0  0  0  0
   -2.7780    0.7410   -0.3910 C   0  0  2  0  0  0  0  0  0  0  0  0
   -3.4700    1.7030   -1.3210 C   0  0  0  0  0  0  0  0  0  0  0  0
   -2.8080    1.2810    1.0000 C   0  0  0  0  0  0  0  0  0  0  0  0
  1  2  2  0
  2  3  1  0
  2 20  1  0
  3  4  1  0
  3 16  2  0
  4  5  1  0
  4 14  1  0
  5  6  2  0
  6  7  1  0
  6 13  1  0
  7  8  2  0
  7  9  1  0
  9 10  1  0
 10 11  2  0
 10 12  1  0
 12 13  1  0
 13 14  2  0
 14 15  1  0
 16 17  1  0
 17 18  2  0
 17 19  1  0
 19 20  1  0
 20 21  1  6
 20 22  1  0
M  END
