
     RDKit          3D

 22 24  0  0  0  0  0  0  0  0999 V2000
    5.4510   -2.3040    0.2470 C   0  0  0  0  0  0  0  0  0  0  0  0
    5.5460   -0.8030    0.2370 C   0  0  1  0  0  0  0  0  0  0  0  0
    5.8680   -0.2460   -1.1320 C   0  0  0  0  0  0  0  0  0  0  0  0
    4.1960   -0.2490    0.6190 C   0  0  0  0  0  0  0  0  0  0  0  0
    3.0340   -0.4660   -0.0260 N   0  0  0  0  0  0  0  0  0  0  0  0
    2.0570    0.1960    0.6170 C   0  0  0  0  0  0  0  0  0  0  0  0
    0.6840    0.3170    0.3840 C   0  0  0  0  0  0  0  0  0  0  0  0
   -0.1000    1.0770    1.2200 C   0  0  0  0  0  0  0  0  0  0  0  0
   -1.4880    1.2590    1.0980 N   0  0  0  0  0  0  0  0  0  0  0  0
   -2.3190    0.4750    0.2650 C   0  0  0  0  0  0  0  0  0  0  0  0
   -1.8630   -0.4490   -0.4200 O   0  0  0  0  0  0  0  0  0  0  0  0
   -3.7260    0.7130    0.1720 N   0  0  0  0  0  0  0  0  0  0  0  0
   -4.6270   -0.0220   -0.6360 C   0  0  0  0  0  0  0  0  0  0  0  0
   -4.3970   -1.0380   -1.4440 C   0  0  0  0  0  0  0  0  0  0  0  0
   -5.7120   -1.4150   -2.0360 C   0  0  0  0  0  0  0  0  0  0  0  0
   -6.6640   -0.5010   -1.4640 N   0  0  0  0  0  0  0  0  0  0  0  0
   -6.0750    0.3120   -0.6560 C   0  0  0  0  0  0  0  0  0  0  0  0
   -6.7340    1.3360    0.0700 N   0  0  0  0  0  0  0  0  0  0  0  0
    0.5320    1.7170    2.3010 C   0  0  0  0  0  0  0  0  0  0  0  0
    1.8790    1.6170    2.5550 C   0  0  0  0  0  0  0  0  0  0  0  0
    2.6450    0.8370    1.6860 C   0  0  0  0  0  0  0  0  0  0  0  0
    3.9160    0.5310    1.6290 O   0  0  0  0  0  0  0  0  0  0  0  0
  2  1  1  6
  2  3  1  0
  2  4  1  0
  4  5  2  0
  4 22  1  0
  5  6  1  0
  6  7  2  0
  6 21  1  0
  7  8  1  0
  8  9  1  0
  8 19  2  0
  9 10  1  0
 10 11  2  0
 10 12  1  0
 12 13  1  0
 13 14  2  0
 13 17  1  0
 14 15  1  0
 15 16  1  0
 16 17  2  0
 17 18  1  0
 19 20  1  0
 20 21  2  0
 21 22  1  0
M  END
