
     RDKit          3D

 22 24  0  0  0  0  0  0  0  0999 V2000
   -1.1020   -1.9300    0.6760 N   0  0  0  0  0  0  0  0  0  0  0  0
   -1.5290   -0.5670    0.5880 C   0  0  0  0  0  0  0  0  0  0  0  0
   -2.8380   -0.3600    0.2120 C   0  0  0  0  0  0  0  0  0  0  0  0
   -3.2770    0.9420    0.1180 C   0  0  0  0  0  0  0  0  0  0  0  0
   -2.3880    1.9790    0.4040 C   0  0  0  0  0  0  0  0  0  0  0  0
   -1.0790    1.7550    0.7790 C   0  0  0  0  0  0  0  0  0  0  0  0
   -0.1650    2.8570    1.0730 C   0  0  0  0  0  0  0  0  0  0  0  0
    1.0160    2.6030    1.4100 O   0  0  0  0  0  0  0  0  0  0  0  0
   -0.6400    0.4490    0.8730 C   0  0  0  0  0  0  0  0  0  0  0  0
    0.6930    0.1200    1.2520 N   0  0  0  0  0  0  0  0  0  0  0  0
    1.7490   -0.0270    0.2890 C   0  0  0  0  0  0  0  0  0  0  0  0
    1.4650    0.1430   -0.8960 O   0  0  0  0  0  0  0  0  0  0  0  0
    3.0650   -0.3530    0.6680 N   0  0  0  0  0  0  0  0  0  0  0  0
    4.1500   -0.5130   -0.2130 C   0  0  0  0  0  0  0  0  0  0  0  0
    4.1600   -0.3940   -1.5560 C   0  0  0  0  0  0  0  0  0  0  0  0
    5.3660   -0.5990   -2.2380 C   0  0  0  0  0  0  0  0  0  0  0  0
    6.5040   -0.9090   -1.5920 N   0  0  0  0  0  0  0  0  0  0  0  0
    6.4860   -1.0280   -0.2370 C   0  0  0  0  0  0  0  0  0  0  0  0
    5.3420   -0.8300    0.3820 N   0  0  0  0  0  0  0  0  0  0  0  0
   -4.7020    0.9140   -0.2950 C   0  0  0  0  0  0  0  0  0  0  0  0
   -4.7830   -0.3890   -1.0600 C   0  0  0  0  0  0  0  0  0  0  0  0
   -3.9700   -1.2900   -0.1440 C   0  0  0  0  0  0  0  0  0  0  0  0
  1  2  1  0
  2  3  2  0
  2  9  1  0
  3  4  1  0
  3 22  1  0
  4  5  2  0
  4 20  1  0
  5  6  1  0
  6  7  1  0
  6  9  2  0
  7  8  2  0
  9 10  1  0
 10 11  1  0
 11 12  2  0
 11 13  1  0
 13 14  1  0
 14 15  2  0
 14 19  1  0
 15 16  1  0
 16 17  2  0
 17 18  1  0
 18 19  2  0
 20 21  1  0
 21 22  1  0
M  END
