
     RDKit          3D

 22 24  0  0  0  0  0  0  0  0999 V2000
    6.5840   -0.5480   -0.8530 C   0  0  0  0  0  0  0  0  0  0  0  0
    5.3230   -0.2570   -0.4960 C   0  0  0  0  0  0  0  0  0  0  0  0
    4.2900   -0.9310   -1.1310 C   0  0  0  0  0  0  0  0  0  0  0  0
    2.9880   -0.6420   -0.7740 C   0  0  0  0  0  0  0  0  0  0  0  0
    2.6780    0.2790    0.1780 C   0  0  0  0  0  0  0  0  0  0  0  0
    1.3800    0.6200    0.5880 N   0  0  0  0  0  0  0  0  0  0  0  0
    0.1780    0.0660    0.0830 C   0  0  0  0  0  0  0  0  0  0  0  0
    0.2180   -0.8040   -0.8040 O   0  0  0  0  0  0  0  0  0  0  0  0
   -1.0830    0.5000    0.5860 N   0  0  0  0  0  0  0  0  0  0  0  0
   -2.3550    0.0300    0.1770 C   0  0  0  0  0  0  0  0  0  0  0  0
   -2.5700   -1.0830   -0.5980 C   0  0  0  0  0  0  0  0  0  0  0  0
   -3.8720   -1.4170   -0.9390 C   0  0  0  0  0  0  0  0  0  0  0  0
   -4.9370   -0.6550   -0.5130 C   0  0  0  0  0  0  0  0  0  0  0  0
   -6.2810   -0.7450   -0.6900 N   0  0  0  0  0  0  0  0  0  0  0  0
   -6.9050    0.2590   -0.0620 C   0  0  0  0  0  0  0  0  0  0  0  0
   -8.1310    0.5090    0.0020 O   0  0  0  0  0  0  0  0  0  0  0  0
   -5.9610    1.0030    0.5270 N   0  0  0  0  0  0  0  0  0  0  0  0
   -4.7550    0.4700    0.2690 C   0  0  0  0  0  0  0  0  0  0  0  0
   -3.4680    0.7860    0.5960 C   0  0  0  0  0  0  0  0  0  0  0  0
    3.7360    0.9010    0.7590 N   0  0  0  0  0  0  0  0  0  0  0  0
    5.0140    0.6690    0.4610 C   0  0  0  0  0  0  0  0  0  0  0  0
    5.9830    1.3230    1.0790 C   0  0  0  0  0  0  0  0  0  0  0  0
  1  2  2  0
  2  3  1  0
  2 21  1  0
  3  4  2  0
  4  5  1  0
  5  6  1  0
  5 20  2  0
  6  7  1  0
  7  8  2  0
  7  9  1  0
  9 10  1  0
 10 11  2  0
 10 19  1  0
 11 12  1  0
 12 13  2  0
 13 14  1  0
 13 18  1  0
 14 15  1  0
 15 16  2  0
 15 17  1  0
 17 18  1  0
 18 19  2  0
 20 21  1  0
 21 22  2  0
M  END
