
     RDKit          3D

  9  8  0  0  0  0  0  0  0  0999 V2000
   -2.3560   -0.0610    1.3940 N   0  0  0  0  0  0  0  0  0  0  0  0
   -1.9330   -0.2570    0.0620 C   0  0  0  0  0  0  0  0  0  0  0  0
   -0.5390    0.0480   -0.3700 C   0  0  0  0  0  0  0  0  0  0  0  0
    0.2910   -0.7430    0.3800 O   0  0  0  0  0  0  0  0  0  0  0  0
    1.6370   -0.6190    0.1290 C   0  0  0  0  0  0  0  0  0  0  0  0
    2.0710    0.8050    0.3930 C   0  0  0  0  0  0  0  0  0  0  0  0
    3.4550    0.8820    0.1240 O   0  0  0  0  0  0  0  0  0  0  0  0
   -2.7390   -0.7080   -0.8320 N   0  0  0  0  0  0  0  0  0  0  0  0
   -2.3550   -0.9090   -2.1310 O   0  0  0  0  0  0  0  0  0  0  0  0
  1  2  1  0
  2  3  1  0
  2  8  2  3
  3  4  1  0
  4  5  1  0
  5  6  1  0
  6  7  1  0
  8  9  1  0
M  END
