
     RDKit          3D

  9  8  0  0  0  0  0  0  0  0999 V2000
   -2.6070    0.7440    1.0580 N   0  0  0  0  0  0  0  0  0  0  0  0
   -2.0800    0.3010   -0.0200 C   0  0  0  0  0  0  0  0  0  0  0  0
   -1.5120   -1.0930    0.0490 C   0  0  0  0  0  0  0  0  0  0  0  0
   -0.2310   -0.9690    0.6330 O   0  0  0  0  0  0  0  0  0  0  0  0
    0.6780   -0.1570   -0.0700 C   0  0  0  0  0  0  0  0  0  0  0  0
    0.3200    0.4010   -1.1470 O   0  0  0  0  0  0  0  0  0  0  0  0
    2.0280    0.0640    0.4070 C   0  0  0  0  0  0  0  0  0  0  0  0
    2.8990    0.8910   -0.3430 N   0  0  0  0  0  0  0  0  0  0  0  0
    2.3700   -0.4950    1.4760 O   0  0  0  0  0  0  0  0  0  0  0  0
  1  2  2  0
  2  3  1  0
  3  4  1  0
  4  5  1  0
  5  6  2  0
  5  7  1  0
  7  8  1  0
  7  9  2  0
M  END
