
     RDKit          3D

 29 30  0  0  0  0  0  0  0  0999 V2000
    8.7030   -0.8890    1.9960 C   0  0  0  0  0  0  0  0  0  0  0  0
    7.9690   -0.6450    0.7160 C   0  0  0  0  0  0  0  0  0  0  0  0
    6.6610   -0.2130    0.6970 C   0  0  0  0  0  0  0  0  0  0  0  0
    5.9300    0.0310   -0.4390 C   0  0  0  0  0  0  0  0  0  0  0  0
    4.5480    0.4970   -0.4470 C   0  0  0  0  0  0  0  0  0  0  0  0
    3.9830    0.7660   -1.5380 O   0  0  0  0  0  0  0  0  0  0  0  0
    3.8250    0.6550    0.7390 N   0  0  0  0  0  0  0  0  0  0  0  0
    2.4800    1.1110    0.7530 N   0  0  0  0  0  0  0  0  0  0  0  0
    1.4160    0.3870    0.1850 C   0  0  0  0  0  0  0  0  0  0  0  0
    1.7060   -0.7340   -0.3660 O   0  0  0  0  0  0  0  0  0  0  0  0
    0.0970    0.8710    0.2180 N   0  0  0  0  0  0  0  0  0  0  0  0
   -0.9730    0.0990   -0.3770 C   0  0  0  0  0  0  0  0  0  0  0  0
   -2.2790    0.7940   -0.2190 C   0  0  0  0  0  0  0  0  0  0  0  0
   -3.1880    0.2700    0.5280 N   0  0  0  0  0  0  0  0  0  0  0  0
   -2.9920   -0.9210    1.1930 O   0  0  0  0  0  0  0  0  0  0  0  0
   -2.5630    1.9940   -0.8480 O   0  0  0  0  0  0  0  0  0  0  0  0
   -3.8930    2.4680   -0.7910 C   0  0  0  0  0  0  0  0  0  0  0  0
   -4.9010    1.8590   -0.7110 N   0  0  0  0  0  0  0  0  0  0  0  0
   -5.6000    0.7190   -0.6310 C   0  0  0  0  0  0  0  0  0  0  0  0
   -5.6180   -0.2860   -1.6220 C   0  0  0  0  0  0  0  0  0  0  0  0
   -6.3480   -1.4220   -1.5060 C   0  0  0  0  0  0  0  0  0  0  0  0
   -7.1190   -1.6530   -0.3990 C   0  0  0  0  0  0  0  0  0  0  0  0
   -7.8930   -2.8430   -0.2570 N   0  0  0  0  0  0  0  0  0  0  0  0
   -7.1490   -0.7090    0.6130 C   0  0  0  0  0  0  0  0  0  0  0  0
   -6.4140    0.4240    0.4860 C   0  0  0  0  0  0  0  0  0  0  0  0
   -6.4160    1.4650    1.5720 C   0  0  0  0  0  0  0  0  0  0  0  0
    6.5980   -0.1890   -1.6570 C   0  0  0  0  0  0  0  0  0  0  0  0
    7.9030   -0.6190   -1.6490 C   0  0  0  0  0  0  0  0  0  0  0  0
    8.5650   -0.8390   -0.4860 N   0  0  0  0  0  0  0  0  0  0  0  0
  1  2  1  0
  2  3  2  0
  2 29  1  0
  3  4  1  0
  4  5  1  0
  4 27  2  0
  5  6  2  0
  5  7  1  0
  7  8  1  0
  8  9  1  0
  9 10  2  0
  9 11  1  0
 11 12  1  0
 12 13  1  0
 13 14  2  3
 13 16  1  0
 14 15  1  0
 16 17  1  0
 17 18  2  3
 18 19  1  0
 19 20  2  0
 19 25  1  0
 20 21  1  0
 21 22  2  0
 22 23  1  0
 22 24  1  0
 24 25  2  0
 25 26  1  0
 27 28  1  0
 28 29  2  0
M  CHG  2  15  -1  29   1
M  END
