
     RDKit          3D

 29 32  0  0  0  0  0  0  0  0999 V2000
    8.2230    1.2210    1.1760 N   0  0  0  0  0  0  0  0  0  0  0  0
    6.8750    1.6210    1.3500 C   0  0  0  0  0  0  0  0  0  0  0  0
    6.6610    2.7100    1.9420 O   0  0  0  0  0  0  0  0  0  0  0  0
    5.7820    0.7890    0.8540 C   0  0  0  0  0  0  0  0  0  0  0  0
    4.4680    1.1300    0.9960 C   0  0  0  0  0  0  0  0  0  0  0  0
    3.4130    0.3290    0.5190 C   0  0  0  0  0  0  0  0  0  0  0  0
    2.0840    0.7670    0.7220 N   0  0  0  0  0  0  0  0  0  0  0  0
    0.9050    0.1930    0.2080 C   0  0  0  0  0  0  0  0  0  0  0  0
    0.9980   -0.8060   -0.5080 O   0  0  0  0  0  0  0  0  0  0  0  0
   -0.3800    0.7260    0.4870 N   0  0  0  0  0  0  0  0  0  0  0  0
   -1.5910    0.1900   -0.0030 C   0  0  0  0  0  0  0  0  0  0  0  0
   -1.7570   -0.9010   -0.8090 C   0  0  0  0  0  0  0  0  0  0  0  0
   -3.0970   -1.0460   -1.0260 N   0  0  0  0  0  0  0  0  0  0  0  0
   -3.7560   -0.0760   -0.3770 C   0  0  0  0  0  0  0  0  0  0  0  0
   -5.2120    0.0780   -0.3870 C   0  0  0  0  0  0  0  0  0  0  0  0
   -5.8420    1.1000    0.3040 C   0  0  0  0  0  0  0  0  0  0  0  0
   -7.2210    1.2390    0.2890 C   0  0  0  0  0  0  0  0  0  0  0  0
   -8.0180    0.3500   -0.4250 C   0  0  0  0  0  0  0  0  0  0  0  0
   -9.4230    0.4770   -0.4500 N   0  0  0  0  0  0  0  0  0  0  0  0
  -10.1580   -0.1520    0.4760 O   0  0  0  0  0  0  0  0  0  0  0  0
   -7.3790   -0.6770   -1.1190 C   0  0  0  0  0  0  0  0  0  0  0  0
   -6.0080   -0.7970   -1.0910 C   0  0  0  0  0  0  0  0  0  0  0  0
   -2.8360    0.6600    0.2340 N   0  0  0  0  0  0  0  0  0  0  0  0
    3.7720   -0.8200   -0.1010 C   0  0  0  0  0  0  0  0  0  0  0  0
    5.1010   -1.1890   -0.2590 C   0  0  0  0  0  0  0  0  0  0  0  0
    5.6910   -2.2690   -0.8320 N   0  0  0  0  0  0  0  0  0  0  0  0
    7.0180   -2.1090   -0.6980 C   0  0  0  0  0  0  0  0  0  0  0  0
    7.2260   -0.9850   -0.0720 O   0  0  0  0  0  0  0  0  0  0  0  0
    6.0970   -0.3940    0.2140 C   0  0  0  0  0  0  0  0  0  0  0  0
  1  2  1  0
  2  3  2  0
  2  4  1  0
  4  5  2  0
  4 29  1  0
  5  6  1  0
  6  7  1  0
  6 24  2  0
  7  8  1  0
  8  9  2  0
  8 10  1  0
 10 11  1  0
 11 12  2  0
 11 23  1  0
 12 13  1  0
 13 14  1  0
 14 15  1  0
 14 23  2  0
 15 16  2  0
 15 22  1  0
 16 17  1  0
 17 18  2  0
 18 19  1  0
 18 21  1  0
 19 20  1  0
 21 22  2  0
 24 25  1  0
 25 26  1  0
 25 29  2  0
 26 27  2  0
 27 28  1  0
 28 29  1  0
M  CHG  2  20  -1  26   1
M  END
