
     RDKit          3D

 29 33  0  0  0  0  0  0  0  0999 V2000
   -5.5760   -3.6080    1.2490 C   0  0  0  0  0  0  0  0  0  0  0  0
   -5.3500   -2.9410   -0.0370 C   0  0  0  0  0  0  0  0  0  0  0  0
   -4.5220   -1.7850   -0.1440 C   0  0  0  0  0  0  0  0  0  0  0  0
   -3.2810   -1.9010   -0.6530 N   0  0  0  0  0  0  0  0  0  0  0  0
   -2.4500   -0.8440   -0.7780 C   0  0  0  0  0  0  0  0  0  0  0  0
   -1.1020   -1.0650   -1.3500 C   0  0  0  0  0  0  0  0  0  0  0  0
   -0.2770    0.0700   -1.3760 N   0  0  0  0  0  0  0  0  0  0  0  0
   -0.6690    1.2100   -2.0920 C   0  0  0  0  0  0  0  0  0  0  0  0
    0.3940    1.5390   -3.1310 C   0  0  0  0  0  0  0  0  0  0  0  0
    1.6500    1.8070   -2.3660 C   0  0  0  0  0  0  0  0  0  0  0  0
    2.6690    2.6530   -2.5520 N   0  0  0  0  0  0  0  0  0  0  0  0
    3.5640    2.4920   -1.5550 C   0  0  0  0  0  0  0  0  0  0  0  0
    4.7490    3.0780   -1.2610 N   0  0  0  0  0  0  0  0  0  0  0  0
    5.4370    2.7010   -0.1700 C   0  0  0  0  0  0  0  0  0  0  0  0
    4.9890    1.7220    0.6890 C   0  0  0  0  0  0  0  0  0  0  0  0
    5.6960    1.3350    1.8090 O   0  0  0  0  0  0  0  0  0  0  0  0
    5.2310    0.3270    2.6910 C   0  0  0  0  0  0  0  0  0  0  0  0
    5.0480   -0.9930    2.0140 C   0  0  1  0  0  0  0  0  0  0  0  0
    6.2410   -1.6530    1.3640 C   0  0  0  0  0  0  0  0  0  0  0  0
    5.6110   -2.2020    2.6290 C   0  0  0  0  0  0  0  0  0  0  0  0
    3.8110    1.1490    0.3840 N   0  0  0  0  0  0  0  0  0  0  0  0
    3.0870    1.5090   -0.7170 C   0  0  0  0  0  0  0  0  0  0  0  0
    1.8830    1.0870   -1.2380 C   0  0  0  0  0  0  0  0  0  0  0  0
    0.9620    0.0420   -0.7160 C   0  0  0  0  0  0  0  0  0  0  0  0
   -2.8180    0.3900   -0.4000 N   0  0  0  0  0  0  0  0  0  0  0  0
   -4.0460    0.5530    0.1130 C   0  0  0  0  0  0  0  0  0  0  0  0
   -4.5790    1.8670    0.5720 C   0  0  0  0  0  0  0  0  0  0  0  0
   -4.9230   -0.5320    0.2520 C   0  0  0  0  0  0  0  0  0  0  0  0
   -6.2720   -0.4290    0.8010 C   0  0  0  0  0  0  0  0  0  0  0  0
  1  2  1  0
  2  3  1  0
  3  4  2  0
  3 28  1  0
  4  5  1  0
  5  6  1  0
  5 25  2  0
  6  7  1  0
  7  8  1  0
  7 24  1  0
  8  9  1  0
  9 10  1  0
 10 11  1  0
 10 23  2  0
 11 12  1  0
 12 13  2  0
 12 22  1  0
 13 14  1  0
 14 15  2  0
 15 16  1  0
 15 21  1  0
 16 17  1  0
 18 17  1  1
 18 19  1  0
 18 20  1  0
 19 20  1  0
 21 22  2  0
 22 23  1  0
 23 24  1  0
 25 26  1  0
 26 27  1  0
 26 28  2  0
 28 29  1  0
M  END
