
     RDKit          3D

 28 32  0  0  0  0  0  0  0  0999 V2000
   -6.4550    1.4710    1.4070 C   0  0  0  0  0  0  0  0  0  0  0  0
   -6.0230    0.2780    0.7260 N   0  0  0  0  0  0  0  0  0  0  0  0
   -6.8330   -0.8310    0.6390 N   0  0  0  0  0  0  0  0  0  0  0  0
   -6.4810   -1.9260    0.0340 C   0  0  0  0  0  0  0  0  0  0  0  0
   -5.1880   -1.9820   -0.5720 N   0  0  0  0  0  0  0  0  0  0  0  0
   -4.2830   -0.8870   -0.5330 C   0  0  0  0  0  0  0  0  0  0  0  0
   -3.0380   -0.9340   -1.1140 C   0  0  0  0  0  0  0  0  0  0  0  0
   -2.1990    0.1770   -1.0390 C   0  0  0  0  0  0  0  0  0  0  0  0
   -2.6030    1.3180   -0.3920 C   0  0  0  0  0  0  0  0  0  0  0  0
   -1.7740    2.4670   -0.2920 N   0  0  0  0  0  0  0  0  0  0  0  0
   -0.4340    2.4850   -0.7940 C   0  0  0  0  0  0  0  0  0  0  0  0
    0.3670    1.4870   -0.0600 C   0  0  0  0  0  0  0  0  0  0  0  0
   -0.0220    0.7410    1.0310 C   0  0  0  0  0  0  0  0  0  0  0  0
    1.0720   -0.0450    1.3540 C   0  0  0  0  0  0  0  0  0  0  0  0
    2.0540    0.2660    0.4490 C   0  0  0  0  0  0  0  0  0  0  0  0
    3.4240   -0.2830    0.3420 C   0  0  0  0  0  0  0  0  0  0  0  0
    3.8570   -1.2400    1.2300 C   0  0  0  0  0  0  0  0  0  0  0  0
    5.1350   -1.7330    1.1070 C   0  0  0  0  0  0  0  0  0  0  0  0
    5.9810   -1.2850    0.1160 C   0  0  0  0  0  0  0  0  0  0  0  0
    7.2590   -1.7730   -0.0130 C   0  0  0  0  0  0  0  0  0  0  0  0
    8.0820   -1.2930   -1.0290 C   0  0  0  0  0  0  0  0  0  0  0  0
    7.5990   -0.3290   -1.8990 C   0  0  0  0  0  0  0  0  0  0  0  0
    6.3420    0.1120   -1.7270 N   0  0  0  0  0  0  0  0  0  0  0  0
    5.5120   -0.3270   -0.7540 C   0  0  0  0  0  0  0  0  0  0  0  0
    4.2650    0.1340   -0.6110 N   0  0  0  0  0  0  0  0  0  0  0  0
    1.5920    1.1750   -0.3660 O   0  0  0  0  0  0  0  0  0  0  0  0
   -3.8640    1.3120    0.1740 C   0  0  0  0  0  0  0  0  0  0  0  0
   -4.7350    0.2570    0.1360 C   0  0  0  0  0  0  0  0  0  0  0  0
  1  2  1  0
  2  3  1  0
  2 28  1  0
  3  4  2  0
  4  5  1  0
  5  6  1  0
  6  7  2  0
  6 28  1  0
  7  8  1  0
  8  9  2  0
  9 10  1  0
  9 27  1  0
 10 11  1  0
 11 12  1  0
 12 13  2  0
 12 26  1  0
 13 14  1  0
 14 15  2  0
 15 16  1  0
 15 26  1  0
 16 17  2  0
 16 25  1  0
 17 18  1  0
 18 19  2  0
 19 20  1  0
 19 24  1  0
 20 21  2  0
 21 22  1  0
 22 23  2  0
 23 24  1  0
 24 25  2  0
 27 28  2  0
M  END
