
     RDKit          3D

 29 31  0  0  0  0  0  0  0  0999 V2000
   -3.1400    0.6860    1.1280 O   0  0  0  0  0  0  0  0  0  0  0  0
   -3.0370   -0.2150    0.1940 C   0  0  0  0  0  0  0  0  0  0  0  0
   -1.7770   -0.6290    0.1660 N   0  0  0  0  0  0  0  0  0  0  0  0
   -0.5330   -1.0960    0.0750 C   0  0  0  0  0  0  0  0  0  0  0  0
    0.2350   -0.4660    0.9490 O   0  0  0  0  0  0  0  0  0  0  0  0
    0.0670   -2.0460   -0.6880 N   0  0  0  0  0  0  0  0  0  0  0  0
    1.4470   -2.3350   -0.5100 C   0  0  0  0  0  0  0  0  0  0  0  0
    1.7530   -3.6730   -0.4930 C   0  0  0  0  0  0  0  0  0  0  0  0
    3.0650   -4.0870   -0.2910 C   0  0  0  0  0  0  0  0  0  0  0  0
    4.0360   -3.1300   -0.1140 C   0  0  0  0  0  0  0  0  0  0  0  0
    3.7200   -1.8050   -0.1350 C   0  0  0  0  0  0  0  0  0  0  0  0
    4.7280   -0.8270    0.0480 N   0  0  0  0  0  0  0  0  0  0  0  0
    4.3930    0.5700    0.0240 C   0  0  0  0  0  0  0  0  0  0  0  0
    5.6210    1.3950    0.2450 C   0  0  0  0  0  0  0  0  0  0  0  0
    6.1400    2.2940   -0.5700 C   0  0  0  0  0  0  0  0  0  0  0  0
    7.3030    2.8530    0.0040 N   0  0  0  0  0  0  0  0  0  0  0  0
    7.4270    2.2100    1.2260 N   0  0  0  0  0  0  0  0  0  0  0  0
    6.4950    1.3670    1.4160 C   0  0  0  0  0  0  0  0  0  0  0  0
    2.4020   -1.3700   -0.3370 C   0  0  0  0  0  0  0  0  0  0  0  0
   -4.1530   -0.5210   -0.5130 N   0  0  0  0  0  0  0  0  0  0  0  0
   -5.3400    0.1650   -0.2080 C   0  0  0  0  0  0  0  0  0  0  0  0
   -5.7870    0.5120    1.0310 C   0  0  0  0  0  0  0  0  0  0  0  0
   -6.9450    1.2870    1.1210 C   0  0  0  0  0  0  0  0  0  0  0  0
   -7.6080    1.6830    0.0010 C   0  0  0  0  0  0  0  0  0  0  0  0
   -8.7930    2.4780    0.1160 N   0  0  0  0  0  0  0  0  0  0  0  0
   -9.4160    2.8500   -0.8920 O   0  0  0  0  0  0  0  0  0  0  0  0
   -9.2610    2.8400    1.3410 O   0  0  0  0  0  0  0  0  0  0  0  0
   -7.1640    1.3360   -1.2560 C   0  0  0  0  0  0  0  0  0  0  0  0
   -6.0400    0.5830   -1.3470 C   0  0  0  0  0  0  0  0  0  0  0  0
  1  2  2  0
  2  3  1  0
  2 20  1  0
  3  4  1  0
  4  5  2  0
  4  6  1  0
  6  7  1  0
  7  8  2  0
  7 19  1  0
  8  9  1  0
  9 10  2  0
 10 11  1  0
 11 12  1  0
 11 19  2  0
 12 13  1  0
 13 14  1  0
 14 15  2  0
 14 18  1  0
 15 16  1  0
 16 17  1  0
 17 18  2  0
 20 21  1  0
 21 22  2  0
 21 29  1  0
 22 23  1  0
 23 24  2  0
 24 25  1  0
 24 28  1  0
 25 26  2  0
 25 27  1  0
 28 29  2  0
M  CHG  3  16   1  25   1  27  -1
M  END
