
     RDKit          3D

 29 33  0  0  0  0  0  0  0  0999 V2000
   -3.2050   -3.0770    0.0870 C   0  0  0  0  0  0  0  0  0  0  0  0
   -3.0610   -1.5970    0.1060 C   0  0  0  0  0  0  0  0  0  0  0  0
   -1.9410   -0.9450   -0.1070 N   0  0  0  0  0  0  0  0  0  0  0  0
   -1.8360    0.3770   -0.0860 C   0  0  0  0  0  0  0  0  0  0  0  0
   -0.6580    1.1380   -0.3080 N   0  0  0  0  0  0  0  0  0  0  0  0
   -0.6810    2.5920   -0.4120 C   0  0  0  0  0  0  0  0  0  0  0  0
    0.1990    3.1590   -1.4590 C   0  0  0  0  0  0  0  0  0  0  0  0
    1.1860    2.2470   -2.0830 C   0  0  0  0  0  0  0  0  0  0  0  0
    1.5290    1.0440   -1.3060 C   0  0  0  0  0  0  0  0  0  0  0  0
    2.7490    0.4310   -1.4290 C   0  0  0  0  0  0  0  0  0  0  0  0
    3.0430   -0.7180   -0.6780 C   0  0  0  0  0  0  0  0  0  0  0  0
    4.2710   -1.3470   -0.7920 O   0  0  0  0  0  0  0  0  0  0  0  0
    5.3780   -0.5970   -1.0400 N   0  0  0  0  0  0  0  0  0  0  0  0
    6.5220   -0.6290   -0.1980 C   0  0  0  0  0  0  0  0  0  0  0  0
    6.5340   -1.4180    0.8870 N   0  0  0  0  0  0  0  0  0  0  0  0
    7.5900   -1.4870    1.7190 C   0  0  0  0  0  0  0  0  0  0  0  0
    8.6780   -0.7150    1.4260 C   0  0  0  0  0  0  0  0  0  0  0  0
    8.6820    0.0980    0.3200 C   0  0  0  0  0  0  0  0  0  0  0  0
    7.5900    0.1100   -0.4600 N   0  0  0  0  0  0  0  0  0  0  0  0
    2.1080   -1.2380    0.1870 C   0  0  0  0  0  0  0  0  0  0  0  0
    0.8820   -0.6280    0.3150 C   0  0  0  0  0  0  0  0  0  0  0  0
    0.6130    0.5020   -0.4340 C   0  0  0  0  0  0  0  0  0  0  0  0
   -2.9700    1.0770    0.1750 N   0  0  0  0  0  0  0  0  0  0  0  0
   -4.1420    0.5140    0.4020 C   0  0  0  0  0  0  0  0  0  0  0  0
   -4.2200   -0.8670    0.3730 C   0  0  0  0  0  0  0  0  0  0  0  0
   -5.5060   -1.5180    0.6290 C   0  0  0  0  0  0  0  0  0  0  0  0
   -6.7230   -0.7830    0.1620 C   0  0  0  0  0  0  0  0  0  0  0  0
   -6.3970    0.6000   -0.3360 C   0  0  0  0  0  0  0  0  0  0  0  0
   -5.4240    1.2150    0.6850 C   0  0  0  0  0  0  0  0  0  0  0  0
  1  2  1  0
  2  3  2  0
  2 25  1  0
  3  4  1  0
  4  5  1  0
  4 23  2  0
  5  6  1  0
  5 22  1  0
  6  7  1  0
  7  8  1  0
  8  9  1  0
  9 10  2  0
  9 22  1  0
 10 11  1  0
 11 12  1  0
 11 20  2  0
 12 13  1  0
 13 14  1  0
 14 15  2  0
 14 19  1  0
 15 16  1  0
 16 17  2  0
 17 18  1  0
 18 19  2  0
 20 21  1  0
 21 22  2  0
 23 24  1  0
 24 25  2  0
 24 29  1  0
 25 26  1  0
 26 27  1  0
 27 28  1  0
 28 29  1  0
M  END
