
     RDKit          3D

 29 33  0  0  0  0  0  0  0  0999 V2000
   -0.6270   -4.2790   -0.3540 C   0  0  0  0  0  0  0  0  0  0  0  0
   -1.5390   -3.0800   -0.4110 C   0  0  0  0  0  0  0  0  0  0  0  0
   -2.8020   -3.2670   -0.4340 N   0  0  0  0  0  0  0  0  0  0  0  0
   -3.8310   -2.2900   -0.4870 C   0  0  0  0  0  0  0  0  0  0  0  0
   -3.2710   -0.9630   -0.5350 N   0  0  0  0  0  0  0  0  0  0  0  0
   -4.1100    0.1960   -0.6190 C   0  0  0  0  0  0  0  0  0  0  0  0
   -4.4260    0.8990   -1.6860 C   0  0  0  0  0  0  0  0  0  0  0  0
   -5.3140    1.9940   -1.2590 C   0  0  0  0  0  0  0  0  0  0  0  0
   -5.4560    1.8100    0.2000 C   0  0  0  0  0  0  0  0  0  0  0  0
   -4.7500    0.7590    0.5660 C   0  0  0  0  0  0  0  0  0  0  0  0
   -1.8710   -0.7840   -0.5060 C   0  0  0  0  0  0  0  0  0  0  0  0
   -1.3570    0.6110   -0.5410 C   0  0  0  0  0  0  0  0  0  0  0  0
    0.1550    0.5640   -0.4900 C   0  0  0  0  0  0  0  0  0  0  0  0
    0.7710    1.8590   -0.5120 N   0  0  0  0  0  0  0  0  0  0  0  0
    0.5390    2.6310    0.6800 C   0  0  0  0  0  0  0  0  0  0  0  0
    1.6770    2.7110    1.6310 C   0  0  0  0  0  0  0  0  0  0  0  0
    2.6430    1.5770    1.5320 C   0  0  0  0  0  0  0  0  0  0  0  0
    2.8820    1.0810    0.2700 C   0  0  0  0  0  0  0  0  0  0  0  0
    3.7640    0.0390    0.1130 C   0  0  0  0  0  0  0  0  0  0  0  0
    3.9840   -0.4310   -1.1360 N   0  0  0  0  0  0  0  0  0  0  0  0
    4.8480   -1.4460   -1.2670 C   0  0  0  0  0  0  0  0  0  0  0  0
    5.5060   -2.0130   -0.1780 C   0  0  0  0  0  0  0  0  0  0  0  0
    5.2610   -1.5120    1.0800 C   0  0  0  0  0  0  0  0  0  0  0  0
    4.3800   -0.4730    1.2390 C   0  0  0  0  0  0  0  0  0  0  0  0
    4.1250    0.0350    2.4630 N   0  0  0  0  0  0  0  0  0  0  0  0
    3.2690    1.0520    2.6530 C   0  0  0  0  0  0  0  0  0  0  0  0
    3.0070    1.5500    3.7790 O   0  0  0  0  0  0  0  0  0  0  0  0
    2.1530    1.7230   -0.8540 C   0  0  0  0  0  0  0  0  0  0  0  0
   -1.0150   -1.7630   -0.4480 N   0  0  0  0  0  0  0  0  0  0  0  0
  1  2  1  0
  2  3  2  0
  2 29  1  0
  3  4  1  0
  4  5  1  0
  5  6  1  0
  5 11  1  0
  6  7  2  0
  6 10  1  0
  7  8  1  0
  8  9  1  0
  9 10  2  0
 11 12  1  0
 11 29  2  0
 12 13  1  0
 13 14  1  0
 14 15  1  0
 14 28  1  0
 15 16  1  0
 16 17  1  0
 17 18  2  0
 17 26  1  0
 18 19  1  0
 18 28  1  0
 19 20  2  0
 19 24  1  0
 20 21  1  0
 21 22  2  0
 22 23  1  0
 23 24  2  0
 24 25  1  0
 25 26  1  0
 26 27  2  0
M  END
