
     RDKit          3D

 13 13  0  0  0  0  0  0  0  0999 V2000
    2.7370    1.3690    0.4040 O   0  0  0  0  0  0  0  0  0  0  0  0
    2.6570    0.1130    0.9870 C   0  0  0  0  0  0  0  0  0  0  0  0
    2.0100   -0.8800    0.0620 C   0  0  1  0  0  0  0  0  0  0  0  0
    1.9540   -2.1210    0.6920 O   0  0  0  0  0  0  0  0  0  0  0  0
    0.6090   -0.4730   -0.3340 C   0  0  2  0  0  0  0  0  0  0  0  0
    0.5610    0.7420   -0.9650 O   0  0  0  0  0  0  0  0  0  0  0  0
   -0.7450    1.1930   -0.7650 C   0  0  1  0  0  0  0  0  0  0  0  0
   -1.5180    1.1200   -1.9150 O   0  0  0  0  0  0  0  0  0  0  0  0
   -1.2900    0.3990    0.3770 C   0  0  1  0  0  0  0  0  0  0  0  0
   -1.6970    1.2180    1.4150 O   0  0  0  0  0  0  0  0  0  0  0  0
   -2.4580   -0.4850   -0.0530 C   0  0  0  0  0  0  0  0  0  0  0  0
   -2.0810   -1.3240   -1.1000 O   0  0  0  0  0  0  0  0  0  0  0  0
   -0.2550   -0.4400    0.7330 O   0  0  0  0  0  0  0  0  0  0  0  0
  1  2  1  0
  2  3  1  0
  3  4  1  1
  3  5  1  0
  5  6  1  1
  5 13  1  0
  6  7  1  0
  7  8  1  6
  7  9  1  0
  9 10  1  1
  9 11  1  0
  9 13  1  0
 11 12  1  0
M  END
