
     RDKit          3D

 12 12  0  0  0  0  0  0  0  0999 V2000
    3.8050    0.3190   -0.0310 C   0  0  0  0  0  0  0  0  0  0  0  0
    2.5250    0.8720   -0.0700 O   0  0  0  0  0  0  0  0  0  0  0  0
    1.6820   -0.0610   -0.6220 C   0  0  0  0  0  0  0  0  0  0  0  0
    0.2520    0.4120   -0.7240 C   0  0  1  0  0  0  0  0  0  0  0  0
   -0.4900   -0.6000   -1.2870 O   0  0  0  0  0  0  0  0  0  0  0  0
   -1.1860   -1.1630   -0.2170 C   0  0  1  0  0  0  0  0  0  0  0  0
   -0.3360   -1.8560    0.6260 O   0  0  0  0  0  0  0  0  0  0  0  0
   -1.5650    0.1330    0.5150 C   0  0  2  0  0  0  0  0  0  0  0  0
   -2.0450   -0.0840    1.7670 O   0  0  0  0  0  0  0  0  0  0  0  0
   -2.4540    0.9080   -0.3970 C   0  0  0  0  0  0  0  0  0  0  0  0
   -3.6520    0.2400   -0.5590 O   0  0  0  0  0  0  0  0  0  0  0  0
   -0.2980    0.7460    0.4920 O   0  0  0  0  0  0  0  0  0  0  0  0
  1  2  1  0
  2  3  1  0
  4  3  1  1
  4  5  1  0
  4 12  1  0
  5  6  1  0
  6  7  1  1
  6  8  1  0
  8  9  1  1
  8 10  1  0
  8 12  1  0
 10 11  1  0
M  END
