
     RDKit          3D

 12 12  0  0  0  0  0  0  0  0999 V2000
    2.7390    0.9080    0.4120 O   0  0  0  0  0  0  0  0  0  0  0  0
    2.6450   -0.3930   -0.0770 C   0  0  0  0  0  0  0  0  0  0  0  0
    1.2970   -1.0010    0.1780 C   0  0  1  0  0  0  0  0  0  0  0  0
    1.0840   -1.0250    1.5510 O   0  0  0  0  0  0  0  0  0  0  0  0
    0.2170   -0.1710   -0.5260 C   0  0  2  0  0  0  0  0  0  0  0  0
    0.2930    1.0990   -0.0140 O   0  0  0  0  0  0  0  0  0  0  0  0
   -0.7160    1.9410   -0.3650 C   0  0  0  0  0  0  0  0  0  0  0  0
   -1.7690    1.3520   -1.0390 O   0  0  0  0  0  0  0  0  0  0  0  0
   -2.2120    0.2260   -0.3530 C   0  0  1  0  0  0  0  0  0  0  0  0
   -3.3640   -0.2780   -0.9070 O   0  0  0  0  0  0  0  0  0  0  0  0
   -1.1290   -0.8030   -0.2800 C   0  0  2  0  0  0  0  0  0  0  0  0
   -1.2030   -1.4350    0.9520 O   0  0  0  0  0  0  0  0  0  0  0  0
  1  2  1  0
  2  3  1  0
  3  4  1  1
  3  5  1  0
  5  6  1  1
  5 11  1  0
  6  7  1  0
  7  8  1  0
  8  9  1  0
  9 10  1  6
  9 11  1  0
 11 12  1  1
M  END
