
     RDKit          3D

 12 12  0  0  0  0  0  0  0  0999 V2000
   -2.9210   -0.3280    1.9430 O   0  0  0  0  0  0  0  0  0  0  0  0
   -3.1890    0.0460    0.6180 C   0  0  0  0  0  0  0  0  0  0  0  0
   -2.0280    0.5210    0.0190 O   0  0  0  0  0  0  0  0  0  0  0  0
   -1.0160   -0.4070   -0.0130 C   0  0  2  0  0  0  0  0  0  0  0  0
    0.2240    0.0520    0.7290 C   0  0  0  0  0  0  0  0  0  0  0  0
    1.2980   -0.3440   -0.2540 C   0  0  2  0  0  0  0  0  0  0  0  0
    1.5660   -1.6980   -0.2220 O   0  0  0  0  0  0  0  0  0  0  0  0
    2.5220    0.5200   -0.1730 C   0  0  0  0  0  0  0  0  0  0  0  0
    3.2280    0.3060    0.9850 O   0  0  0  0  0  0  0  0  0  0  0  0
    0.5570   -0.0160   -1.5430 C   0  0  1  0  0  0  0  0  0  0  0  0
    1.2050   -0.4520   -2.6590 O   0  0  0  0  0  0  0  0  0  0  0  0
   -0.6470   -0.7040   -1.2990 O   0  0  0  0  0  0  0  0  0  0  0  0
  1  2  1  0
  2  3  1  0
  4  3  1  6
  4  5  1  0
  4 12  1  0
  5  6  1  0
  6  7  1  6
  6  8  1  0
  6 10  1  0
  8  9  1  0
 10 11  1  6
 10 12  1  0
M  END
