
     RDKit          3D

 13 14  0  0  0  0  0  0  0  0999 V2000
    4.7560   -0.5750    1.4910 O   0  0  0  0  0  0  0  0  0  0  0  0
    3.6130   -0.2680    0.9890 C   0  0  0  0  0  0  0  0  0  0  0  0
    3.3870    0.7420    0.0510 N   0  0  0  0  0  0  0  0  0  0  0  0
    1.9840    0.7780   -0.2640 C   0  0  0  0  0  0  0  0  0  0  0  0
    1.4920    1.5780   -1.0710 O   0  0  0  0  0  0  0  0  0  0  0  0
    1.3270   -0.2330    0.5010 C   0  0  0  0  0  0  0  0  0  0  0  0
    0.0830   -0.6390    0.6100 C   0  0  0  0  0  0  0  0  0  0  0  0
   -1.1410   -0.2010   -0.0230 C   0  0  0  0  0  0  0  0  0  0  0  0
   -2.3150   -0.8110    0.2810 C   0  0  0  0  0  0  0  0  0  0  0  0
   -3.3760   -0.1810   -0.4900 C   0  0  0  0  0  0  0  0  0  0  0  0
   -2.7450    0.8540   -1.2800 C   0  0  0  0  0  0  0  0  0  0  0  0
   -1.4300    0.8270   -0.9920 C   0  0  0  0  0  0  0  0  0  0  0  0
    2.3830   -0.8720    1.2780 N   0  0  0  0  0  0  0  0  0  0  0  0
  1  2  2  0
  2  3  1  0
  2 13  1  0
  3  4  1  0
  4  5  2  0
  4  6  1  0
  6  7  2  3
  6 13  1  0
  7  8  1  0
  8  9  2  0
  8 12  1  0
  9 10  1  0
 10 11  1  0
 11 12  2  0
M  END
