
     RDKit          3D

 13 14  0  0  0  0  0  0  0  0999 V2000
    3.6180    0.2090   -1.2830 C   0  0  0  0  0  0  0  0  0  0  0  0
    3.0380   -0.9390   -0.5010 C   0  0  0  0  0  0  0  0  0  0  0  0
    1.8120   -0.4860    0.1640 N   0  0  0  0  0  0  0  0  0  0  0  0
    1.7320    0.0510    1.3780 C   0  0  0  0  0  0  0  0  0  0  0  0
    0.3820    0.3600    1.6700 C   0  0  0  0  0  0  0  0  0  0  0  0
   -0.0370    0.9250    2.8450 O   0  0  0  0  0  0  0  0  0  0  0  0
   -0.3150   -0.0290    0.5570 C   0  0  0  0  0  0  0  0  0  0  0  0
   -1.7380    0.0450    0.2840 C   0  0  0  0  0  0  0  0  0  0  0  0
   -2.7580    0.4780    0.9700 C   0  0  0  0  0  0  0  0  0  0  0  0
   -4.0120    0.2920    0.1520 C   0  0  0  0  0  0  0  0  0  0  0  0
   -3.5990   -0.7720   -0.6710 O   0  0  0  0  0  0  0  0  0  0  0  0
   -2.3130   -0.4320   -1.0200 C   0  0  0  0  0  0  0  0  0  0  0  0
    0.5990   -0.5290   -0.3140 N   0  0  0  0  0  0  0  0  0  0  0  0
  1  2  1  0
  2  3  1  0
  3  4  1  0
  3 13  1  0
  4  5  2  0
  5  6  1  0
  5  7  1  0
  7  8  1  0
  7 13  2  0
  8  9  2  0
  8 12  1  0
  9 10  1  0
 10 11  1  0
 11 12  1  0
M  END
