
     RDKit          3D

 13 14  0  0  0  0  0  0  0  0999 V2000
    1.3360    2.5260   -0.2830 O   0  0  0  0  0  0  0  0  0  0  0  0
    1.8700    1.3750   -0.1390 C   0  0  0  0  0  0  0  0  0  0  0  0
    3.2290    1.1910   -0.1120 C   0  0  0  0  0  0  0  0  0  0  0  0
    3.4540   -0.1520    0.0550 C   0  0  0  0  0  0  0  0  0  0  0  0
    2.2410   -0.7240    0.1220 N   0  0  0  0  0  0  0  0  0  0  0  0
    1.2970    0.1920    0.0060 N   0  0  0  0  0  0  0  0  0  0  0  0
   -0.1110   -0.0640    0.0330 C   0  0  0  0  0  0  0  0  0  0  0  0
   -0.9720    0.8850    0.5300 C   0  0  0  0  0  0  0  0  0  0  0  0
   -2.3290    0.6360    0.5560 C   0  0  0  0  0  0  0  0  0  0  0  0
   -2.8560   -0.5340    0.0990 C   0  0  0  0  0  0  0  0  0  0  0  0
   -4.2400   -0.6870    0.1690 O   0  0  0  0  0  0  0  0  0  0  0  0
   -2.0110   -1.4870   -0.3980 C   0  0  0  0  0  0  0  0  0  0  0  0
   -0.6450   -1.2440   -0.4270 C   0  0  0  0  0  0  0  0  0  0  0  0
  1  2  2  0
  2  3  1  0
  2  6  1  0
  3  4  2  0
  4  5  1  0
  5  6  1  0
  6  7  1  0
  7  8  2  0
  7 13  1  0
  8  9  1  0
  9 10  2  0
 10 11  1  0
 10 12  1  0
 12 13  2  0
M  END
