
     RDKit          3D

 13 14  0  0  0  0  0  0  0  0999 V2000
    4.5590    0.2050   -0.0250 O   0  0  0  0  0  0  0  0  0  0  0  0
    3.2920    0.1440   -0.0140 C   0  0  0  0  0  0  0  0  0  0  0  0
    2.6490   -0.7570    0.7460 N   0  0  0  0  0  0  0  0  0  0  0  0
    1.3160   -0.8600    0.7910 C   0  0  0  0  0  0  0  0  0  0  0  0
    0.5840    0.0340   -0.0080 C   0  0  0  0  0  0  0  0  0  0  0  0
   -0.8750   -0.0340    0.0020 C   0  0  0  0  0  0  0  0  0  0  0  0
   -1.7110    0.7070   -0.6670 C   0  0  0  0  0  0  0  0  0  0  0  0
   -3.1330    0.3040   -0.3660 C   0  0  0  0  0  0  0  0  0  0  0  0
   -2.9740   -0.7890    0.5880 C   0  0  0  0  0  0  0  0  0  0  0  0
   -1.6850   -0.9720    0.7890 C   0  0  0  0  0  0  0  0  0  0  0  0
    1.2670    0.9430   -0.7730 C   0  0  0  0  0  0  0  0  0  0  0  0
    0.7020    1.7740   -1.5130 O   0  0  0  0  0  0  0  0  0  0  0  0
    2.6290    1.0100   -0.7860 N   0  0  0  0  0  0  0  0  0  0  0  0
  1  2  2  0
  2  3  1  0
  2 13  1  0
  3  4  1  0
  4  5  2  0
  5  6  1  0
  5 11  1  0
  6  7  2  0
  6 10  1  0
  7  8  1  0
  8  9  1  0
  9 10  2  0
 11 12  2  0
 11 13  1  0
M  END
