
     RDKit          3D

 13 14  0  0  0  0  0  0  0  0999 V2000
   -1.0480    2.0780   -1.2610 C   0  0  0  0  0  0  0  0  0  0  0  0
   -1.5100    0.8470   -0.5690 C   0  0  0  0  0  0  0  0  0  0  0  0
   -2.7490    0.4490   -0.3910 O   0  0  0  0  0  0  0  0  0  0  0  0
   -2.7850   -0.6870    0.2640 C   0  0  0  0  0  0  0  0  0  0  0  0
   -3.9690   -1.3330    0.5880 O   0  0  0  0  0  0  0  0  0  0  0  0
   -1.4780   -1.0450    0.5250 C   0  0  0  0  0  0  0  0  0  0  0  0
   -0.6440   -0.0690   -0.0040 C   0  0  0  0  0  0  0  0  0  0  0  0
    0.8120   -0.0200    0.0290 C   0  0  0  0  0  0  0  0  0  0  0  0
    1.5330   -1.0220    0.6380 C   0  0  0  0  0  0  0  0  0  0  0  0
    2.9100   -1.0200    0.6940 C   0  0  0  0  0  0  0  0  0  0  0  0
    3.5410    0.0660    0.0930 C   0  0  0  0  0  0  0  0  0  0  0  0
    2.8130    1.0120   -0.4840 N   0  0  0  0  0  0  0  0  0  0  0  0
    1.4760    1.0000   -0.5330 N   0  0  0  0  0  0  0  0  0  0  0  0
  1  2  1  0
  2  3  1  0
  2  7  2  0
  3  4  1  0
  4  5  1  0
  4  6  2  0
  6  7  1  0
  7  8  1  0
  8  9  2  0
  8 13  1  0
  9 10  1  0
 10 11  2  0
 11 12  1  0
 12 13  2  0
M  END
