
     RDKit          3D

 19 20  0  0  0  0  0  0  0  0999 V2000
   -1.4030   -2.6050   -1.1070 C   0  0  0  0  0  0  0  0  0  0  0  0
   -0.6150   -1.5610   -0.3130 C   0  0  1  0  0  0  0  0  0  0  0  0
    0.4190   -1.0000   -1.1290 N   0  0  0  0  0  0  0  0  0  0  0  0
    1.3140    0.0000   -0.6450 C   0  0  0  0  0  0  0  0  0  0  0  0
    1.9620   -0.2080    0.4790 C   0  0  0  0  0  0  0  0  0  0  0  0
    2.9030    0.7850    1.0370 C   0  0  1  0  0  0  0  0  0  0  0  0
    4.2000    0.1370    1.2580 N   0  0  0  0  0  0  0  0  0  0  0  0
    3.0520    1.9510    0.2920 O   0  0  0  0  0  0  0  0  0  0  0  0
    2.3560    2.1420   -0.8880 C   0  0  0  0  0  0  0  0  0  0  0  0
    1.5300    1.2480   -1.3600 C   0  0  0  0  0  0  0  0  0  0  0  0
   -1.5570   -0.5570    0.1220 N   0  0  0  0  0  0  0  0  0  0  0  0
   -1.9930   -0.5980    1.3590 N   0  0  0  0  0  0  0  0  0  0  0  0
   -2.8670    0.3080    1.8150 C   0  0  0  0  0  0  0  0  0  0  0  0
   -3.2630    0.2420    2.9990 O   0  0  0  0  0  0  0  0  0  0  0  0
   -3.3520    1.3120    1.0410 N   0  0  0  0  0  0  0  0  0  0  0  0
   -2.9070    1.3580   -0.2280 C   0  0  0  0  0  0  0  0  0  0  0  0
   -3.3170    2.2630   -0.9990 O   0  0  0  0  0  0  0  0  0  0  0  0
   -2.0070    0.4180   -0.6860 C   0  0  0  0  0  0  0  0  0  0  0  0
   -1.5740    0.4340   -1.8640 O   0  0  0  0  0  0  0  0  0  0  0  0
  2  1  1  6
  2  3  1  0
  2 11  1  0
  3  4  1  0
  4  5  2  0
  4 10  1  0
  5  6  1  0
  6  7  1  6
  6  8  1  0
  8  9  1  0
  9 10  2  0
 11 12  1  0
 11 18  1  0
 12 13  1  0
 13 14  2  0
 13 15  1  0
 15 16  1  0
 16 17  2  0
 16 18  1  0
 18 19  2  0
M  END
