
     RDKit          3D

 19 20  0  0  0  0  0  0  0  0999 V2000
    3.4440    2.2530    0.4310 C   0  0  0  0  0  0  0  0  0  0  0  0
    2.9010    1.0120    0.4470 C   0  0  0  0  0  0  0  0  0  0  0  0
    3.8330   -0.1360    0.6400 C   0  0  0  0  0  0  0  0  0  0  0  0
    1.4660    0.9050    0.2710 C   0  0  0  0  0  0  0  0  0  0  0  0
    0.6290   -0.1060    0.2350 C   0  0  0  0  0  0  0  0  0  0  0  0
    0.9700   -1.5270    0.3830 C   0  0  0  0  0  0  0  0  0  0  0  0
    0.6290   -2.3050   -0.7420 O   0  0  0  0  0  0  0  0  0  0  0  0
   -0.7190    0.4130    0.0430 C   0  0  2  0  0  0  0  0  0  0  0  0
   -1.4840    0.2660    1.2150 O   0  0  0  0  0  0  0  0  0  0  0  0
   -1.4460    0.0590   -1.2010 C   0  0  2  0  0  0  0  0  0  0  0  0
   -2.6060    0.9630   -1.3780 N   0  0  0  0  0  0  0  0  0  0  0  0
   -3.6160    0.9120   -0.3820 C   0  0  0  0  0  0  0  0  0  0  0  0
   -4.3190    1.9350   -0.0980 O   0  0  0  0  0  0  0  0  0  0  0  0
   -3.8620   -0.3100    0.3290 N   0  0  0  0  0  0  0  0  0  0  0  0
   -3.0340   -1.4230   -0.0430 C   0  0  0  0  0  0  0  0  0  0  0  0
   -3.1950   -2.5360    0.5450 O   0  0  0  0  0  0  0  0  0  0  0  0
   -2.0620   -1.2390   -1.0580 N   0  0  0  0  0  0  0  0  0  0  0  0
   -0.5160    1.8810   -0.0290 N   0  0  0  0  0  0  0  0  0  0  0  0
    0.6840    2.1140    0.0990 N   0  0  0  0  0  0  0  0  0  0  0  0
  1  2  2  0
  2  3  1  0
  2  4  1  0
  4  5  2  0
  4 19  1  0
  5  6  1  0
  5  8  1  0
  6  7  1  0
  8  9  1  1
  8 10  1  0
  8 18  1  0
 10 11  1  1
 10 17  1  0
 11 12  1  0
 12 13  2  0
 12 14  1  0
 14 15  1  0
 15 16  2  0
 15 17  1  0
 18 19  2  0
M  END
