
     RDKit          3D

 19 20  0  0  0  0  0  0  0  0999 V2000
    5.1510    1.6320   -0.0530 N   0  0  0  0  0  0  0  0  0  0  0  0
    4.8560    0.2390   -0.1980 C   0  0  2  0  0  0  0  0  0  0  0  0
    3.4210    0.0810   -0.6530 C   0  0  0  0  0  0  0  0  0  0  0  0
    2.7400   -0.4250    0.5990 C   0  0  1  0  0  0  0  0  0  0  0  0
    1.5700   -1.1910    0.3070 N   0  0  0  0  0  0  0  0  0  0  0  0
    0.3060   -0.8700    0.8410 C   0  0  0  0  0  0  0  0  0  0  0  0
    0.1350    0.1290    1.6190 O   0  0  0  0  0  0  0  0  0  0  0  0
   -0.8250   -1.6780    0.5090 N   0  0  0  0  0  0  0  0  0  0  0  0
   -2.1000   -1.4360    0.9870 N   0  0  0  0  0  0  0  0  0  0  0  0
   -3.0030   -0.5240    0.3630 C   0  0  0  0  0  0  0  0  0  0  0  0
   -3.1480    0.6400    0.9500 C   0  0  0  0  0  0  0  0  0  0  0  0
   -4.0460    1.6670    0.4140 C   0  0  0  0  0  0  0  0  0  0  0  0
   -4.1750    1.5190   -1.0780 C   0  0  0  0  0  0  0  0  0  0  0  0
   -4.5570    0.1400   -1.3920 N   0  0  0  0  0  0  0  0  0  0  0  0
   -3.7050   -0.8800   -0.8750 C   0  0  0  0  0  0  0  0  0  0  0  0
   -3.5420   -1.9840   -1.3920 O   0  0  0  0  0  0  0  0  0  0  0  0
    3.8210   -1.2420    1.2190 C   0  0  0  0  0  0  0  0  0  0  0  0
    3.7730   -2.3560    1.7910 O   0  0  0  0  0  0  0  0  0  0  0  0
    4.9700   -0.4810    1.0300 O   0  0  0  0  0  0  0  0  0  0  0  0
  2  1  1  1
  2  3  1  0
  2 19  1  0
  3  4  1  0
  4  5  1  6
  4 17  1  0
  5  6  1  0
  6  7  2  0
  6  8  1  0
  8  9  1  0
  9 10  1  0
 10 11  2  0
 10 15  1  0
 11 12  1  0
 12 13  1  0
 13 14  1  0
 14 15  1  0
 15 16  2  0
 17 18  2  0
 17 19  1  0
M  END
