
     RDKit          3D

 20 21  0  0  0  0  0  0  0  0999 V2000
    5.8730    0.3500    2.2260 C   0  0  0  0  0  0  0  0  0  0  0  0
    4.4420    0.3160    1.7670 C   0  0  0  0  0  0  0  0  0  0  0  0
    4.3130   -0.6650    0.6530 C   0  0  0  0  0  0  0  0  0  0  0  0
    5.3260   -1.3000    0.2550 O   0  0  0  0  0  0  0  0  0  0  0  0
    3.0660   -0.8930    0.0370 N   0  0  0  0  0  0  0  0  0  0  0  0
    2.8160   -1.8130   -1.0460 C   0  0  0  0  0  0  0  0  0  0  0  0
    1.3950   -1.4920   -1.5330 C   0  0  0  0  0  0  0  0  0  0  0  0
    1.1820   -0.1140   -0.9970 C   0  0  1  0  0  0  0  0  0  0  0  0
   -0.1700    0.3210   -0.9090 N   0  0  0  0  0  0  0  0  0  0  0  0
   -0.9460    0.4380   -2.0940 C   0  0  0  0  0  0  0  0  0  0  0  0
   -0.2900    0.0860   -3.5540 S   0  0  0  0  0  0  0  0  0  0  0  0
   -2.2990    0.8640   -2.0590 N   0  0  0  0  0  0  0  0  0  0  0  0
   -2.8760    1.1800   -0.7750 C   0  0  0  0  0  0  0  0  0  0  0  0
   -2.5200    2.1740    0.0140 C   0  0  0  0  0  0  0  0  0  0  0  0
   -3.3030    2.1840    1.2000 N   0  0  0  0  0  0  0  0  0  0  0  0
   -3.9970    0.9130    1.2700 C   0  0  0  0  0  0  0  0  0  0  0  0
   -3.9550    0.4480   -0.1320 C   0  0  0  0  0  0  0  0  0  0  0  0
   -4.7190   -0.4490   -0.7380 C   0  0  0  0  0  0  0  0  0  0  0  0
   -5.7330   -1.0730    0.0440 N   0  0  0  0  0  0  0  0  0  0  0  0
    1.8290   -0.2390    0.3900 C   0  0  0  0  0  0  0  0  0  0  0  0
  1  2  1  0
  2  3  1  0
  3  4  2  0
  3  5  1  0
  5  6  1  0
  5 20  1  0
  6  7  1  0
  7  8  1  0
  8  9  1  1
  8 20  1  0
  9 10  1  0
 10 11  2  0
 10 12  1  0
 12 13  1  0
 13 14  2  0
 13 17  1  0
 14 15  1  0
 15 16  1  0
 16 17  1  0
 17 18  2  3
 18 19  1  0
M  CHG  1  19   1
M  END
