
     RDKit          3D

 20 21  0  0  0  0  0  0  0  0999 V2000
   -5.3060   -1.8660    1.0480 O   0  0  0  0  0  0  0  0  0  0  0  0
   -4.8680   -0.5740    0.8160 N   0  0  0  0  0  0  0  0  0  0  0  0
   -3.7090   -0.3920    0.2990 C   0  0  0  0  0  0  0  0  0  0  0  0
   -2.9210   -1.5290   -0.0140 N   0  0  0  0  0  0  0  0  0  0  0  0
   -1.7550   -1.3210   -0.8520 C   0  0  0  0  0  0  0  0  0  0  0  0
   -1.0750   -0.0570   -0.3150 C   0  0  1  0  0  0  0  0  0  0  0  0
    0.2040    0.0900   -0.7850 O   0  0  0  0  0  0  0  0  0  0  0  0
    1.1680    0.1410    0.2330 C   0  0  2  0  0  0  0  0  0  0  0  0
    1.8250    1.3520    0.1170 O   0  0  0  0  0  0  0  0  0  0  0  0
    3.0790    1.3550    0.6990 C   0  0  0  0  0  0  0  0  0  0  0  0
    4.0870    0.5340   -0.1120 C   0  0  1  0  0  0  0  0  0  0  0  0
    4.8900   -0.2400    0.7330 O   0  0  0  0  0  0  0  0  0  0  0  0
    3.2320   -0.4670   -0.9010 C   0  0  2  0  0  0  0  0  0  0  0  0
    2.5980    0.2700   -1.9260 O   0  0  0  0  0  0  0  0  0  0  0  0
    2.1880   -0.9650    0.0780 C   0  0  1  0  0  0  0  0  0  0  0  0
    2.7710   -1.2530    1.3110 O   0  0  0  0  0  0  0  0  0  0  0  0
   -1.9870    1.0960   -0.7090 C   0  0  2  0  0  0  0  0  0  0  0  0
   -1.3900    2.3310   -0.5020 O   0  0  0  0  0  0  0  0  0  0  0  0
   -3.2670    1.0030    0.0620 C   0  0  1  0  0  0  0  0  0  0  0  0
   -4.2980    1.6430   -0.6370 O   0  0  0  0  0  0  0  0  0  0  0  0
  1  2  1  0
  2  3  2  3
  3  4  1  0
  3 19  1  0
  4  5  1  0
  5  6  1  0
  6  7  1  6
  6 17  1  0
  8  7  1  6
  8  9  1  0
  8 15  1  0
  9 10  1  0
 10 11  1  0
 11 12  1  1
 11 13  1  0
 13 14  1  6
 13 15  1  0
 15 16  1  1
 17 18  1  1
 17 19  1  0
 19 20  1  6
M  END
