
     RDKit          3D

  6  6  0  0  0  0  0  0  0  0999 V2000
    1.2850   -0.3820   -0.0140 C   0  0  0  0  0  0  0  0  0  0  0  0
    0.9920    1.0510   -0.2060 C   0  0  0  0  0  0  0  0  0  0  0  0
   -0.2260    1.5070    0.1210 O   0  0  0  0  0  0  0  0  0  0  0  0
   -1.2480    0.6540    0.2820 C   0  0  0  0  0  0  0  0  0  0  0  0
   -1.0920   -0.7270   -0.2180 C   0  0  0  0  0  0  0  0  0  0  0  0
    0.2050   -1.2810   -0.1700 N   0  0  0  0  0  0  0  0  0  0  0  0
  1  2  1  0
  1  6  1  0
  2  3  1  0
  3  4  1  0
  4  5  1  0
  5  6  1  0
M  END
