
     RDKit          3D

 21 22  0  0  0  0  0  0  0  0999 V2000
    3.8940   -0.0670   -0.5710 C   0  0  0  0  0  0  0  0  0  0  0  0
    2.4820   -0.2500   -0.0000 C   0  0  1  0  0  0  0  0  0  0  0  0
    2.4180   -1.4870    0.6270 O   0  0  0  0  0  0  0  0  0  0  0  0
    1.9670   -2.6800    0.1410 C   0  0  0  0  0  0  0  0  0  0  0  0
    2.6920   -3.7190   -0.0540 O   0  0  0  0  0  0  0  0  0  0  0  0
    0.5900   -2.8170   -0.1860 N   0  0  0  0  0  0  0  0  0  0  0  0
   -0.4910   -2.2600    0.6290 C   0  0  0  0  0  0  0  0  0  0  0  0
   -1.4120   -1.5130   -0.2520 C   0  0  2  0  0  0  0  0  0  0  0  0
   -0.7380   -1.1220   -1.4330 O   0  0  0  0  0  0  0  0  0  0  0  0
   -2.1480   -0.3830    0.3380 C   0  0  2  0  0  0  0  0  0  0  0  0
   -2.7180    0.4540   -0.8170 C   0  0  0  0  0  0  0  0  0  0  0  0
   -2.6500    1.8890   -0.3250 C   0  0  1  0  0  0  0  0  0  0  0  0
   -3.6040    2.1390    0.6550 O   0  0  0  0  0  0  0  0  0  0  0  0
   -1.2860    1.8650    0.3820 C   0  0  1  0  0  0  0  0  0  0  0  0
   -1.4220    0.5750    1.1710 C   0  0  0  0  0  0  0  0  0  0  0  0
   -0.3000    1.8350   -0.5960 O   0  0  0  0  0  0  0  0  0  0  0  0
    0.9400    2.4670   -0.5570 C   0  0  0  0  0  0  0  0  0  0  0  0
    1.2920    3.3300   -1.4460 O   0  0  0  0  0  0  0  0  0  0  0  0
    1.9060    2.2000    0.4750 N   0  0  0  0  0  0  0  0  0  0  0  0
    2.2620    0.8970    0.9100 C   0  0  0  0  0  0  0  0  0  0  0  0
    2.3960    0.7150    2.1440 O   0  0  0  0  0  0  0  0  0  0  0  0
  2  1  1  1
  2  3  1  0
  2 20  1  0
  3  4  1  0
  4  5  2  0
  4  6  1  0
  6  7  1  0
  7  8  1  0
  8  9  1  6
  8 10  1  0
 10 11  1  6
 10 15  1  0
 11 12  1  0
 12 13  1  1
 12 14  1  0
 14 15  1  0
 14 16  1  6
 16 17  1  0
 17 18  2  0
 17 19  1  0
 19 20  1  0
 20 21  2  0
M  END
