
     RDKit          3D

 20 21  0  0  0  0  0  0  0  0999 V2000
    4.6420    1.5440   -1.3670 C   0  0  0  0  0  0  0  0  0  0  0  0
    3.8000    0.7870   -0.5550 O   0  0  0  0  0  0  0  0  0  0  0  0
    2.6280    1.5010   -0.3880 C   0  0  0  0  0  0  0  0  0  0  0  0
    1.6310    0.7630    0.4870 C   0  0  1  0  0  0  0  0  0  0  0  0
    0.4240    1.6150    0.7420 C   0  0  0  0  0  0  0  0  0  0  0  0
   -0.6930    1.2670   -0.0190 O   0  0  0  0  0  0  0  0  0  0  0  0
   -1.3520    0.0090    0.0500 C   0  0  0  0  0  0  0  0  0  0  0  0
   -0.7950   -1.1420    0.3670 C   0  0  0  0  0  0  0  0  0  0  0  0
   -1.7960   -2.2190    0.3340 C   0  0  1  0  0  0  0  0  0  0  0  0
   -1.9270   -2.8640    1.5650 O   0  0  0  0  0  0  0  0  0  0  0  0
   -2.9810   -1.5730   -0.0450 O   0  0  0  0  0  0  0  0  0  0  0  0
   -2.7550   -0.1960   -0.2250 C   0  0  0  0  0  0  0  0  0  0  0  0
   -3.6420    0.7070   -0.5700 C   0  0  0  0  0  0  0  0  0  0  0  0
   -3.4750    2.1330   -0.7700 C   0  0  0  0  0  0  0  0  0  0  0  0
   -3.8180    2.4710   -2.0910 O   0  0  0  0  0  0  0  0  0  0  0  0
    0.6580   -1.3210    0.7050 C   0  0  1  0  0  0  0  0  0  0  0  0
    1.1250   -2.6980    0.5710 C   0  0  0  0  0  0  0  0  0  0  0  0
    0.5630   -3.7210    1.3680 N   0  0  0  0  0  0  0  0  0  0  0  0
    2.0410   -2.9390   -0.2720 O   0  0  0  0  0  0  0  0  0  0  0  0
    1.3490   -0.4390   -0.1330 O   0  0  0  0  0  0  0  0  0  0  0  0
  1  2  1  0
  2  3  1  0
  4  3  1  6
  4  5  1  0
  4 20  1  0
  5  6  1  0
  6  7  1  0
  7  8  2  0
  7 12  1  0
  8  9  1  0
  8 16  1  0
  9 10  1  1
  9 11  1  0
 11 12  1  0
 12 13  2  3
 13 14  1  0
 14 15  1  0
 16 17  1  6
 16 20  1  0
 17 18  1  0
 17 19  2  0
M  END
