
     RDKit          3D

 21 22  0  0  0  0  0  0  0  0999 V2000
    4.0630    1.6660   -0.1250 C   0  0  0  0  0  0  0  0  0  0  0  0
    2.9000    0.8140   -0.5570 C   0  0  1  0  0  0  0  0  0  0  0  0
    2.0610    1.5360   -1.4020 O   0  0  0  0  0  0  0  0  0  0  0  0
    3.3460   -0.4400   -1.2720 C   0  0  0  0  0  0  0  0  0  0  0  0
    4.0370   -0.1260   -2.4430 O   0  0  0  0  0  0  0  0  0  0  0  0
    2.1590    0.3910    0.6960 C   0  0  0  0  0  0  0  0  0  0  0  0
    1.0670   -0.4180    0.3150 O   0  0  0  0  0  0  0  0  0  0  0  0
    0.2530   -0.9120    1.3440 C   0  0  0  0  0  0  0  0  0  0  0  0
    0.5160   -0.6260    2.5360 O   0  0  0  0  0  0  0  0  0  0  0  0
   -0.8970   -1.7600    0.9780 C   0  0  1  0  0  0  0  0  0  0  0  0
   -1.5790   -2.1460    2.1720 N   0  0  0  0  0  0  0  0  0  0  0  0
   -2.9100   -1.6450    2.2010 C   0  0  0  0  0  0  0  0  0  0  0  0
   -3.7720   -1.8030    3.1050 O   0  0  0  0  0  0  0  0  0  0  0  0
   -3.1160   -0.8980    0.9780 C   0  0  0  0  0  0  0  0  0  0  0  0
   -4.1710   -0.2390    0.5210 C   0  0  0  0  0  0  0  0  0  0  0  0
   -5.3400   -0.2120    1.3040 O   0  0  0  0  0  0  0  0  0  0  0  0
   -4.0980    0.3860   -0.6780 O   0  0  0  0  0  0  0  0  0  0  0  0
   -2.9830    0.4050   -1.5070 C   0  0  1  0  0  0  0  0  0  0  0  0
   -2.5890    1.7710   -1.8540 N   0  0  0  0  0  0  0  0  0  0  0  0
   -1.8530   -0.3330   -0.9580 C   0  0  0  0  0  0  0  0  0  0  0  0
   -1.8860   -0.9510    0.1980 C   0  0  0  0  0  0  0  0  0  0  0  0
  2  1  1  1
  2  3  1  0
  2  4  1  0
  2  6  1  0
  4  5  1  0
  6  7  1  0
  7  8  1  0
  8  9  2  0
 10  8  1  1
 10 11  1  0
 10 21  1  0
 11 12  1  0
 12 13  2  0
 12 14  1  0
 14 15  2  0
 14 21  1  0
 15 16  1  0
 15 17  1  0
 17 18  1  0
 18 19  1  1
 18 20  1  0
 20 21  2  0
M  END
