
     RDKit          3D

 21 22  0  0  0  0  0  0  0  0999 V2000
   -3.0510    2.7210    0.7250 C   0  0  0  0  0  0  0  0  0  0  0  0
   -2.4800    1.4890    1.1420 O   0  0  0  0  0  0  0  0  0  0  0  0
   -1.9460    0.7060    0.1010 C   0  0  0  0  0  0  0  0  0  0  0  0
   -1.9760    1.1500   -1.0690 O   0  0  0  0  0  0  0  0  0  0  0  0
   -1.3610   -0.6450    0.3000 C   0  0  1  0  0  0  0  0  0  0  0  0
    0.0830   -0.8190    0.3050 C   0  0  1  0  0  0  0  0  0  0  0  0
    0.7360   -1.3360   -0.9550 C   0  0  0  0  0  0  0  0  0  0  0  0
    2.2200   -1.5910   -0.6960 C   0  0  0  0  0  0  0  0  0  0  0  0
    2.8990   -0.4350   -0.0330 C   0  0  1  0  0  0  0  0  0  0  0  0
    4.1640   -0.1500   -0.4510 O   0  0  0  0  0  0  0  0  0  0  0  0
    1.9380    0.7380   -0.1970 C   0  0  2  0  0  0  0  0  0  0  0  0
    2.5580    2.0460   -0.0630 C   0  0  0  0  0  0  0  0  0  0  0  0
    2.2860    2.9880   -0.8590 O   0  0  0  0  0  0  0  0  0  0  0  0
    3.4640    2.4540    0.9690 O   0  0  0  0  0  0  0  0  0  0  0  0
    0.8060    0.4720    0.7640 C   0  0  0  0  0  0  0  0  0  0  0  0
   -2.1350   -1.4430    1.3060 N   0  0  0  0  0  0  0  0  0  0  0  0
   -3.2120   -2.0840    0.7880 C   0  0  0  0  0  0  0  0  0  0  0  0
   -4.2010   -2.6550    1.4400 O   0  0  0  0  0  0  0  0  0  0  0  0
   -3.1030   -2.0410   -0.6080 N   0  0  0  0  0  0  0  0  0  0  0  0
   -1.9440   -1.3430   -0.9570 C   0  0  0  0  0  0  0  0  0  0  0  0
   -1.4440   -1.2510   -2.1080 O   0  0  0  0  0  0  0  0  0  0  0  0
  1  2  1  0
  2  3  1  0
  3  4  2  0
  5  3  1  6
  5  6  1  0
  5 16  1  0
  5 20  1  0
  6  7  1  6
  6 15  1  0
  7  8  1  0
  8  9  1  0
  9 10  1  6
  9 11  1  0
 11 12  1  1
 11 15  1  0
 12 13  2  0
 12 14  1  0
 16 17  1  0
 17 18  2  0
 17 19  1  0
 19 20  1  0
 20 21  2  0
M  END
