
     RDKit          3D

 20 21  0  0  0  0  0  0  0  0999 V2000
    2.6580    1.7240   -1.2450 N   0  0  0  0  0  0  0  0  0  0  0  0
    2.8030    1.6950    0.1670 C   0  0  0  0  0  0  0  0  0  0  0  0
    3.3250    2.7060    0.6990 O   0  0  0  0  0  0  0  0  0  0  0  0
    2.3860    0.5730    1.0130 C   0  0  1  0  0  0  0  0  0  0  0  0
    0.9390    0.2800    0.9160 C   0  0  0  0  0  0  0  0  0  0  0  0
    0.3910   -0.5880    0.0820 C   0  0  0  0  0  0  0  0  0  0  0  0
   -1.0500   -0.8610    0.0050 C   0  0  1  0  0  0  0  0  0  0  0  0
   -1.2140   -2.2430    0.3600 O   0  0  0  0  0  0  0  0  0  0  0  0
   -1.7980   -3.1390   -0.5220 C   0  0  0  0  0  0  0  0  0  0  0  0
   -2.1770   -2.6960   -1.6380 O   0  0  0  0  0  0  0  0  0  0  0  0
   -1.8800   -0.0300    0.9510 C   0  0  1  0  0  0  0  0  0  0  0  0
   -1.8520    1.3990    0.4620 C   0  0  0  0  0  0  0  0  0  0  0  0
   -3.2290    1.5610   -0.1710 C   0  0  0  0  0  0  0  0  0  0  0  0
   -4.0270    0.6130    0.7210 C   0  0  0  0  0  0  0  0  0  0  0  0
   -3.2050   -0.4790    0.7770 O   0  0  0  0  0  0  0  0  0  0  0  0
    1.2940   -1.3150   -0.8030 C   0  0  0  0  0  0  0  0  0  0  0  0
    0.8630   -2.1650   -1.6350 O   0  0  0  0  0  0  0  0  0  0  0  0
    2.7000   -1.0350   -0.7010 N   0  0  0  0  0  0  0  0  0  0  0  0
    3.1850   -0.6700    0.6160 C   0  0  1  0  0  0  0  0  0  0  0  0
    4.5350   -0.4450    0.6520 O   0  0  0  0  0  0  0  0  0  0  0  0
  1  2  1  0
  2  3  2  0
  4  2  1  6
  4  5  1  0
  4 19  1  0
  5  6  2  0
  6  7  1  0
  6 16  1  0
  7  8  1  1
  7 11  1  0
  8  9  1  0
  9 10  2  0
 11 12  1  6
 11 15  1  0
 12 13  1  0
 13 14  1  0
 14 15  1  0
 16 17  2  0
 16 18  1  0
 18 19  1  0
 19 20  1  6
M  END
