
     RDKit          3D

 38 40  0  0  0  0  0  0  0  0999 V2000
    1.7270    4.6930   -2.2130 O   0  0  0  0  0  0  0  0  0  0  0  0
    1.3750    3.5580   -1.7990 C   0  0  0  0  0  0  0  0  0  0  0  0
    1.4960    2.4720   -2.6280 O   0  0  0  0  0  0  0  0  0  0  0  0
    0.8360    3.3990   -0.4270 C   0  0  0  0  0  0  0  0  0  0  0  0
    0.5360    2.0150   -0.1810 N   0  0  0  0  0  0  0  0  0  0  0  0
   -0.7480    1.4600   -0.4680 C   0  0  0  0  0  0  0  0  0  0  0  0
   -1.6200    2.2260   -0.9370 O   0  0  0  0  0  0  0  0  0  0  0  0
   -1.0580    0.1070   -0.2360 N   0  0  0  0  0  0  0  0  0  0  0  0
   -0.0280   -0.7060    0.3160 C   0  0  0  0  0  0  0  0  0  0  0  0
   -0.4810   -1.8700    0.6490 N   0  0  0  0  0  0  0  0  0  0  0  0
   -1.9030   -1.9340    0.3520 C   0  0  0  0  0  0  0  0  0  0  0  0
   -2.5740   -2.8630    0.8250 O   0  0  0  0  0  0  0  0  0  0  0  0
   -2.1810   -0.8250   -0.4700 C   0  0  1  0  0  0  0  0  0  0  0  0
   -3.4380   -0.1570   -0.7050 C   0  0  2  0  0  0  0  0  0  0  0  0
   -4.6980   -0.7360   -0.8260 N   0  0  0  0  0  0  0  0  0  0  0  0
   -5.3640   -1.3910    0.2200 C   0  0  0  0  0  0  0  0  0  0  0  0
   -6.7840   -1.7540   -0.3160 C   0  0  0  0  0  0  0  0  0  0  0  0
   -7.4810   -2.4100    0.7060 O   0  0  0  0  0  0  0  0  0  0  0  0
   -9.0620   -2.8580    0.2290 P   0  0  0  0  0  0  0  0  0  0  0  0
   -9.7950   -3.6980    1.5880 O   0  0  0  0  0  0  0  0  0  0  0  0
  -10.0720   -1.5050   -0.1650 O   0  0  0  0  0  0  0  0  0  0  0  0
   -3.2730    0.4380   -2.1570 C   0  0  0  0  0  0  0  0  0  0  0  0
   -4.2390    1.0540   -2.5920 O   0  0  0  0  0  0  0  0  0  0  0  0
   -2.1310    0.2550   -2.8630 O   0  0  0  0  0  0  0  0  0  0  0  0
    1.3150   -0.1490    0.6190 C   0  0  0  0  0  0  0  0  0  0  0  0
    2.4160   -0.6400    1.1080 O   0  0  0  0  0  0  0  0  0  0  0  0
    3.3440    0.2760    1.1850 C   0  0  0  0  0  0  0  0  0  0  0  0
    4.7230    0.1250    1.6830 C   0  0  0  0  0  0  0  0  0  0  0  0
    5.0670   -1.0080    2.0790 O   0  0  0  0  0  0  0  0  0  0  0  0
    5.6260    1.1500    1.7300 O   0  0  0  0  0  0  0  0  0  0  0  0
    6.9350    1.1620    2.1620 C   0  0  0  0  0  0  0  0  0  0  0  0
    7.9050    0.3000    1.4240 C   0  0  0  0  0  0  0  0  0  0  0  0
    7.5370   -1.0130    1.4920 O   0  0  0  0  0  0  0  0  0  0  0  0
    8.5940   -2.0970    0.6760 P   0  0  0  0  0  0  0  0  0  0  0  0
   10.0990   -1.3890    0.2430 O   0  0  0  0  0  0  0  0  0  0  0  0
    7.8490   -2.9810   -0.5910 O   0  0  0  0  0  0  0  0  0  0  0  0
    2.8360    1.4260    0.7270 N   0  0  0  0  0  0  0  0  0  0  0  0
    1.5440    1.1800    0.3610 C   0  0  0  0  0  0  0  0  0  0  0  0
  1  2  2  0
  2  3  1  0
  2  4  1  0
  4  5  1  0
  5  6  1  0
  5 38  1  0
  6  7  2  0
  6  8  1  0
  8  9  1  0
 13  8  1  1
  9 10  2  0
  9 25  1  0
 10 11  1  0
 11 12  2  0
 11 13  1  0
 13 14  1  0
 14 15  1  6
 14 22  1  0
 15 16  1  0
 16 17  1  0
 17 18  1  0
 18 19  1  0
 19 20  1  0
 19 21  1  0
 22 23  2  0
 22 24  1  0
 25 26  1  0
 25 38  2  0
 26 27  1  0
 27 28  1  0
 27 37  2  0
 28 29  2  0
 28 30  1  0
 30 31  1  0
 31 32  1  0
 32 33  1  0
 33 34  1  0
 34 35  1  0
 34 36  1  0
 37 38  1  0
M  END
