
     RDKit          3D

 37 37  0  0  0  0  0  0  0  0999 V2000
   -3.6950   -2.9250   -2.4170 N   0  0  0  0  0  0  0  0  0  0  0  0
   -3.0070   -1.8830   -2.1890 C   0  0  0  0  0  0  0  0  0  0  0  0
   -2.6980   -1.5190   -0.8430 N   0  0  0  0  0  0  0  0  0  0  0  0
   -2.5090   -2.5150    0.1950 C   0  0  2  0  0  0  0  0  0  0  0  0
   -3.6280   -2.6270    1.1320 C   0  0  0  0  0  0  0  0  0  0  0  0
   -3.5290   -3.2940    2.1820 O   0  0  0  0  0  0  0  0  0  0  0  0
   -4.8180   -1.9840    0.8530 O   0  0  0  0  0  0  0  0  0  0  0  0
   -1.1870   -2.2740    0.8720 C   0  0  0  0  0  0  0  0  0  0  0  0
   -0.9190   -0.8760    1.0260 N   0  0  0  0  0  0  0  0  0  0  0  0
    0.3200   -0.2720    1.2860 C   0  0  0  0  0  0  0  0  0  0  0  0
    0.2860    1.0160    1.3960 O   0  0  0  0  0  0  0  0  0  0  0  0
    1.6370   -0.8800    1.4510 C   0  0  2  0  0  0  0  0  0  0  0  0
    1.7140   -2.0130    2.4370 C   0  0  0  0  0  0  0  0  0  0  0  0
    3.0180   -2.5400    2.4150 O   0  0  0  0  0  0  0  0  0  0  0  0
    2.5710    0.1710    1.7770 N   0  0  0  0  0  0  0  0  0  0  0  0
    3.5820    0.5980    0.9140 C   0  0  0  0  0  0  0  0  0  0  0  0
    3.7170    0.0570   -0.2050 O   0  0  0  0  0  0  0  0  0  0  0  0
    4.5250    1.6950    1.2740 C   0  0  0  0  0  0  0  0  0  0  0  0
    5.4010    1.9770    0.2220 O   0  0  0  0  0  0  0  0  0  0  0  0
    5.0520    2.3940   -1.0250 C   0  0  0  0  0  0  0  0  0  0  0  0
    3.8190    2.5420   -1.2900 O   0  0  0  0  0  0  0  0  0  0  0  0
    6.0490    2.6920   -2.1060 C   0  0  0  0  0  0  0  0  0  0  0  0
    7.4540    2.3970   -1.6410 C   0  0  0  0  0  0  0  0  0  0  0  0
    7.6830    0.6080   -1.2020 P   0  0  0  0  0  0  0  0  0  0  0  0
    9.3420    0.1740   -1.4970 O   0  0  0  0  0  0  0  0  0  0  0  0
    7.3990    0.3290    0.4850 O   0  0  0  0  0  0  0  0  0  0  0  0
   -2.0940    0.0040    0.9030 C   0  0  0  0  0  0  0  0  0  0  0  0
   -2.5610   -0.1170   -0.5390 C   0  0  2  0  0  0  0  0  0  0  0  0
   -3.7670    0.7060   -0.7710 C   0  0  0  0  0  0  0  0  0  0  0  0
   -3.7480    1.9590   -0.4690 O   0  0  0  0  0  0  0  0  0  0  0  0
   -4.9840    0.2530   -1.3060 N   0  0  0  0  0  0  0  0  0  0  0  0
   -6.1140    1.1320   -1.4890 C   0  0  0  0  0  0  0  0  0  0  0  0
   -6.0170    2.3250   -1.1660 O   0  0  0  0  0  0  0  0  0  0  0  0
   -7.3190    0.7030   -2.0140 O   0  0  0  0  0  0  0  0  0  0  0  0
   -8.7130    1.7540   -2.2400 P   0  0  0  0  0  0  0  0  0  0  0  0
  -10.1780    0.8230   -2.3520 O   0  0  0  0  0  0  0  0  0  0  0  0
   -8.8080    2.9990   -1.0680 O   0  0  0  0  0  0  0  0  0  0  0  0
  1  2  2  0
  2  3  1  0
  3  4  1  0
  3 28  1  0
  4  5  1  1
  4  8  1  0
  5  6  2  0
  5  7  1  0
  8  9  1  0
  9 10  1  0
  9 27  1  0
 10 11  2  0
 10 12  1  0
 12 13  1  1
 12 15  1  0
 13 14  1  0
 15 16  1  0
 16 17  2  0
 16 18  1  0
 18 19  1  0
 19 20  1  0
 20 21  2  0
 20 22  1  0
 22 23  1  0
 23 24  1  0
 24 25  1  0
 24 26  1  0
 27 28  1  0
 28 29  1  1
 29 30  2  0
 29 31  1  0
 31 32  1  0
 32 33  2  0
 32 34  1  0
 34 35  1  0
 35 36  1  0
 35 37  1  0
M  END
