
     RDKit          3D

 37 37  0  0  0  0  0  0  0  0999 V2000
    3.4250    6.9850    2.1710 C   0  0  0  0  0  0  0  0  0  0  0  0
    2.7750    6.1210    1.2400 O   0  0  0  0  0  0  0  0  0  0  0  0
    2.3670    4.8440    1.5630 C   0  0  0  0  0  0  0  0  0  0  0  0
    2.5660    4.4050    2.7150 O   0  0  0  0  0  0  0  0  0  0  0  0
    1.7060    4.0110    0.5640 C   0  0  0  0  0  0  0  0  0  0  0  0
    1.3560    2.7510    1.0400 O   0  0  0  0  0  0  0  0  0  0  0  0
    0.7430    2.0820   -0.0180 C   0  0  0  0  0  0  0  0  0  0  0  0
    0.3130    0.6720    0.4030 C   0  0  1  0  0  0  0  0  0  0  0  0
    1.4470   -0.1090    0.8250 N   0  0  0  0  0  0  0  0  0  0  0  0
    2.5970   -0.3760    0.0090 C   0  0  0  0  0  0  0  0  0  0  0  0
    2.5940    0.1130   -1.1190 O   0  0  0  0  0  0  0  0  0  0  0  0
    3.6710   -1.1530    0.4680 N   0  0  0  0  0  0  0  0  0  0  0  0
    4.8430   -1.5140   -0.2420 C   0  0  0  0  0  0  0  0  0  0  0  0
    4.6960   -2.3910   -1.4270 C   0  0  2  0  0  0  0  0  0  0  0  0
    3.6810   -1.7590   -2.8140 P   0  0  0  0  0  0  0  0  0  0  0  0
    4.3420   -0.8500   -3.8790 O   0  0  0  0  0  0  0  0  0  0  0  0
    4.0110   -4.0620   -0.8900 P   0  0  0  0  0  0  0  0  0  0  0  0
    3.4020   -4.8410   -2.3100 O   0  0  0  0  0  0  0  0  0  0  0  0
    2.7410   -3.7920    0.2610 O   0  0  0  0  0  0  0  0  0  0  0  0
   -0.5990    0.9090    1.5890 C   0  0  0  0  0  0  0  0  0  0  0  0
   -1.6340   -0.0020    1.6670 O   0  0  0  0  0  0  0  0  0  0  0  0
   -2.6280    0.2170    0.7420 C   0  0  0  0  0  0  0  0  0  0  0  0
   -2.4610   -0.8200   -0.3490 C   0  0  2  0  0  0  0  0  0  0  0  0
   -3.0200   -0.3630   -1.5990 N   0  0  0  0  0  0  0  0  0  0  0  0
   -4.3960   -0.0330   -1.6990 C   0  0  0  0  0  0  0  0  0  0  0  0
   -5.0970   -0.1540   -0.6670 O   0  0  0  0  0  0  0  0  0  0  0  0
   -5.0020    0.4440   -2.9900 C   0  0  0  0  0  0  0  0  0  0  0  0
   -6.4090    0.6940   -2.7610 N   0  0  0  0  0  0  0  0  0  0  0  0
   -3.1220   -2.0770    0.0860 C   0  0  0  0  0  0  0  0  0  0  0  0
   -4.0280   -2.5610   -0.6370 O   0  0  0  0  0  0  0  0  0  0  0  0
   -2.7490   -2.7090    1.2690 O   0  0  0  0  0  0  0  0  0  0  0  0
   -3.4310   -3.8850    1.5890 C   0  0  0  0  0  0  0  0  0  0  0  0
   -4.3440   -4.3390    0.8250 O   0  0  0  0  0  0  0  0  0  0  0  0
   -3.1670   -4.6420    2.7560 N   0  0  0  0  0  0  0  0  0  0  0  0
   -3.8620   -5.7830    3.0220 O   0  0  0  0  0  0  0  0  0  0  0  0
   -1.1030   -1.0910   -0.4440 O   0  0  0  0  0  0  0  0  0  0  0  0
   -0.3580    0.0400   -0.7490 C   0  0  0  0  0  0  0  0  0  0  0  0
  1  2  1  0
  2  3  1  0
  3  4  2  0
  3  5  1  0
  5  6  1  0
  6  7  1  0
  8  7  1  6
  8  9  1  0
  8 20  1  0
  8 37  1  0
  9 10  1  0
 10 11  2  0
 10 12  1  0
 12 13  1  0
 14 13  1  1
 14 15  1  0
 14 17  1  0
 15 16  2  0
 17 18  1  0
 17 19  1  0
 20 21  1  0
 21 22  1  0
 22 23  1  0
 23 24  1  6
 23 29  1  0
 23 36  1  0
 24 25  1  0
 25 26  2  0
 25 27  1  0
 27 28  1  0
 29 30  2  0
 29 31  1  0
 31 32  1  0
 32 33  2  0
 32 34  1  0
 34 35  1  0
 36 37  1  0
M  END
