
     RDKit          3D

 25 25  0  0  0  0  0  0  0  0999 V2000
   -3.8330   -1.1460   -0.0400 C   0  0  0  0  0  0  0  0  0  0  0  0
   -3.5820    0.2460    0.4660 C   0  0  2  0  0  0  0  0  0  0  0  0
   -4.1340    1.2550   -0.4770 C   0  0  0  0  0  0  0  0  0  0  0  0
   -5.5270    1.0060   -0.5630 O   0  0  0  0  0  0  0  0  0  0  0  0
   -2.1370    0.4630    0.8590 C   0  0  1  0  0  0  0  0  0  0  0  0
   -1.9320    2.2300    1.4630 P   0  0  0  0  0  0  0  0  0  0  0  0
   -1.4590    3.2840    0.2070 O   0  0  0  0  0  0  0  0  0  0  0  0
   -1.9370   -0.3110    1.9890 O   0  0  0  0  0  0  0  0  0  0  0  0
   -0.3220   -0.6760    2.3540 P   0  0  0  0  0  0  0  0  0  0  0  0
   -0.1590   -2.7620    3.0090 P   0  0  0  0  0  0  0  0  0  0  0  0
    0.7630   -0.3150    1.0230 O   0  0  0  0  0  0  0  0  0  0  0  0
    0.1840    0.0050   -0.1880 C   0  0  0  0  0  0  0  0  0  0  0  0
    1.1680    0.1770   -1.5010 P   0  0  0  0  0  0  0  0  0  0  0  0
    3.2780   -0.0320   -1.5970 P   0  0  0  0  0  0  0  0  0  0  0  0
    3.9100   -1.6240   -1.7190 O   0  0  0  0  0  0  0  0  0  0  0  0
    3.9470   -2.5410   -0.6620 C   0  0  0  0  0  0  0  0  0  0  0  0
    3.4810   -2.1400    0.4310 O   0  0  0  0  0  0  0  0  0  0  0  0
    4.1940    1.2400   -2.4490 C   0  0  0  0  0  0  0  0  0  0  0  0
    3.6880    1.8120   -3.5980 O   0  0  0  0  0  0  0  0  0  0  0  0
    5.6570    1.7550   -1.8800 P   0  0  0  0  0  0  0  0  0  0  0  0
    6.3670    1.0130   -0.3430 C   0  0  0  0  0  0  0  0  0  0  0  0
    7.5340    1.3040    0.0090 O   0  0  0  0  0  0  0  0  0  0  0  0
    5.6180    0.1350    0.4260 O   0  0  0  0  0  0  0  0  0  0  0  0
   -1.2580    0.1760   -0.2560 C   0  0  0  0  0  0  0  0  0  0  0  0
   -1.7670    0.0590   -1.4020 O   0  0  0  0  0  0  0  0  0  0  0  0
  2  1  1  6
  2  3  1  0
  2  5  1  0
  3  4  1  0
  5  6  1  1
  5  8  1  0
  5 24  1  0
  6  7  1  0
  8  9  1  0
  9 10  1  0
  9 11  1  0
 11 12  1  0
 12 13  2  3
 12 24  1  0
 13 14  1  0
 14 15  1  0
 14 18  1  0
 15 16  1  0
 16 17  2  0
 18 19  1  0
 18 20  2  3
 20 21  1  0
 21 22  2  0
 21 23  1  0
 24 25  2  0
M  END
