
     RDKit          3D

 25 24  0  0  0  0  0  0  0  0999 V2000
    5.1750   -2.9380    1.8000 C   0  0  0  0  0  0  0  0  0  0  0  0
    4.2690   -1.7770    2.1370 C   0  0  0  0  0  0  0  0  0  0  0  0
    3.3950   -1.1120    0.6440 P   0  0  0  0  0  0  0  0  0  0  0  0
    1.7570   -1.1420    0.5730 C   0  0  0  0  0  0  0  0  0  0  0  0
    0.7880   -0.5130   -0.8490 P   0  0  0  0  0  0  0  0  0  0  0  0
    0.3400    1.1290   -0.6750 O   0  0  0  0  0  0  0  0  0  0  0  0
   -0.3010    1.3920    0.5080 C   0  0  2  0  0  0  0  0  0  0  0  0
    0.5310    1.0730    1.5800 O   0  0  0  0  0  0  0  0  0  0  0  0
   -1.5680    0.6330    0.6810 C   0  0  0  0  0  0  0  0  0  0  0  0
   -2.2640    0.8520    1.8550 O   0  0  0  0  0  0  0  0  0  0  0  0
   -2.1560   -0.4210   -0.4260 P   0  0  0  0  0  0  0  0  0  0  0  0
   -3.7480   -1.3220   -0.1190 C   0  0  1  0  0  0  0  0  0  0  0  0
   -3.8700   -1.6940    1.2110 O   0  0  0  0  0  0  0  0  0  0  0  0
   -4.7870   -0.4480   -0.4580 O   0  0  0  0  0  0  0  0  0  0  0  0
   -3.8440   -2.5730   -0.9770 C   0  0  0  0  0  0  0  0  0  0  0  0
   -5.1260   -3.3080   -0.7370 C   0  0  0  0  0  0  0  0  0  0  0  0
   -0.7100    3.1920    0.6430 P   0  0  0  0  0  0  0  0  0  0  0  0
   -2.2910    3.5560    0.0730 O   0  0  0  0  0  0  0  0  0  0  0  0
    0.4980    4.1830   -0.0940 O   0  0  0  0  0  0  0  0  0  0  0  0
    0.2540    5.4300    0.1940 O   0  0  0  0  0  0  0  0  0  0  0  0
   -0.0190    5.6830    1.8900 P   0  0  0  0  0  0  0  0  0  0  0  0
    1.8730   -0.7900   -2.7370 P   0  0  0  0  0  0  0  0  0  0  0  0
    3.5460   -1.1430   -2.4450 O   0  0  0  0  0  0  0  0  0  0  0  0
    1.7840    0.6880   -3.6790 O   0  0  0  0  0  0  0  0  0  0  0  0
    3.0250    1.2820   -3.8110 C   0  0  0  0  0  0  0  0  0  0  0  0
  1  2  1  0
  2  3  1  0
  3  4  2  3
  4  5  1  0
  5  6  1  0
  5 22  1  0
  6  7  1  0
  7  8  1  1
  7  9  1  0
  7 17  1  0
  9 10  1  0
  9 11  2  3
 11 12  1  0
 12 13  1  1
 12 14  1  0
 12 15  1  0
 15 16  1  0
 17 18  1  0
 17 19  1  0
 19 20  1  0
 20 21  1  0
 22 23  1  0
 22 24  1  0
 24 25  1  0
M  END
