
     RDKit          3D

 25 26  0  0  0  0  0  0  0  0999 V2000
    5.5650   -1.8270   -0.2100 C   0  0  0  0  0  0  0  0  0  0  0  0
    3.7890   -2.3080   -0.1830 P   0  0  0  0  0  0  0  0  0  0  0  0
    2.6610   -0.8430   -0.4350 C   0  0  2  0  0  0  0  0  0  0  0  0
    2.1960   -0.4680    0.8210 O   0  0  0  0  0  0  0  0  0  0  0  0
    1.6080    0.7810    0.8480 C   0  0  2  0  0  0  0  0  0  0  0  0
    2.8260    2.1240    0.4120 P   0  0  0  0  0  0  0  0  0  0  0  0
    2.7600    2.3820   -1.3040 O   0  0  0  0  0  0  0  0  0  0  0  0
    2.3280    3.5850    1.2080 O   0  0  0  0  0  0  0  0  0  0  0  0
    2.0430    4.5340    0.3490 O   0  0  0  0  0  0  0  0  0  0  0  0
    1.0180    1.0610    2.1770 C   0  0  0  0  0  0  0  0  0  0  0  0
   -0.7620    0.5140    2.1690 P   0  0  0  0  0  0  0  0  0  0  0  0
   -1.2780    1.2850    0.5330 C   0  0  2  0  0  0  0  0  0  0  0  0
   -1.3030    2.6630    0.6610 O   0  0  0  0  0  0  0  0  0  0  0  0
   -2.5120    0.7160   -0.0070 C   0  0  0  0  0  0  0  0  0  0  0  0
   -3.3950    1.5450   -0.2820 O   0  0  0  0  0  0  0  0  0  0  0  0
   -2.8590   -1.0210   -0.2990 P   0  0  0  0  0  0  0  0  0  0  0  0
   -2.6130   -2.0330    1.0770 O   0  0  0  0  0  0  0  0  0  0  0  0
   -4.6090   -1.2280   -0.8730 C   0  0  1  0  0  0  0  0  0  0  0  0
   -4.7470   -0.8300   -2.1860 O   0  0  0  0  0  0  0  0  0  0  0  0
   -4.9090   -2.5860   -0.8060 O   0  0  0  0  0  0  0  0  0  0  0  0
   -5.7550   -0.2200    0.1900 P   0  0  0  0  0  0  0  0  0  0  0  0
    0.2480    0.8590   -0.4380 P   0  0  0  0  0  0  0  0  0  0  0  0
    0.1360   -0.9030   -1.0870 C   0  0  0  0  0  0  0  0  0  0  0  0
    1.5720   -1.2880   -1.3410 C   0  0  0  0  0  0  0  0  0  0  0  0
    1.8800   -1.9770   -2.2960 O   0  0  0  0  0  0  0  0  0  0  0  0
  1  2  1  0
  3  2  1  1
  3  4  1  0
  3 24  1  0
  4  5  1  0
  5  6  1  6
  5 10  1  0
  5 22  1  0
  6  7  1  0
  6  8  1  0
  8  9  1  0
 10 11  1  0
 11 12  1  0
 12 13  1  1
 12 14  1  0
 12 22  1  0
 14 15  2  0
 14 16  1  0
 16 17  1  0
 16 18  1  0
 18 19  1  6
 18 20  1  0
 18 21  1  0
 22 23  1  0
 23 24  1  0
 24 25  2  0
M  END
