
     RDKit          3D

 15 15  0  0  0  0  0  0  0  0999 V2000
   -3.4230    0.1570    0.6470 O   0  0  0  0  0  0  0  0  0  0  0  0
   -2.9250   -0.7820   -0.2160 C   0  0  0  0  0  0  0  0  0  0  0  0
   -1.7490   -1.5680    0.1970 C   0  0  0  0  0  0  0  0  0  0  0  0
   -0.6840   -0.7980    0.6620 O   0  0  0  0  0  0  0  0  0  0  0  0
   -0.5890    0.3950   -0.0280 C   0  0  0  0  0  0  0  0  0  0  0  0
    0.7720    1.0360   -0.0760 C   0  0  1  0  0  0  0  0  0  0  0  0
    1.8180   -0.0240   -0.5070 C   0  0  0  0  0  0  0  0  0  0  0  0
    1.1050   -1.2370   -0.5360 O   0  0  0  0  0  0  0  0  0  0  0  0
    1.8440   -2.4790    0.2970 P   0  0  0  0  0  0  0  0  0  0  0  0
    3.5280   -2.5900    0.3110 O   0  0  0  0  0  0  0  0  0  0  0  0
    1.0690   -3.9680    0.1050 O   0  0  0  0  0  0  0  0  0  0  0  0
    0.8000    2.1100   -0.8900 O   0  0  0  0  0  0  0  0  0  0  0  0
    0.4100    3.1490   -0.0470 C   0  0  0  0  0  0  0  0  0  0  0  0
    1.2570    2.8220    1.1910 C   0  0  0  0  0  0  0  0  0  0  0  0
    1.2390    1.4400    1.1910 O   0  0  0  0  0  0  0  0  0  0  0  0
  1  2  1  0
  2  3  1  0
  3  4  1  0
  4  5  1  0
  6  5  1  1
  6  7  1  0
  6 12  1  0
  6 15  1  0
  7  8  1  0
  8  9  1  0
  9 10  1  0
  9 11  1  0
 12 13  1  0
 13 14  1  0
 14 15  1  0
M  END
