
     RDKit          3D

 38 41  0  0  0  0  0  0  0  0999 V2000
   -5.9100   -1.3400    1.8130 C   0  0  0  0  0  0  0  0  0  0  0  0
   -6.3230   -1.7350    0.5060 N   0  0  0  0  0  0  0  0  0  0  0  0
   -7.2690   -2.8100    0.1560 C   0  0  0  0  0  0  0  0  0  0  0  0
   -8.0220   -2.0760   -0.9660 C   0  0  0  0  0  0  0  0  0  0  0  0
   -6.9260   -1.3950   -1.6110 N   0  0  0  0  0  0  0  0  0  0  0  0
   -5.9470   -1.2020   -0.7530 C   0  0  0  0  0  0  0  0  0  0  0  0
   -4.6900   -0.5350   -1.0890 C   0  0  0  0  0  0  0  0  0  0  0  0
   -4.5550    0.1140   -2.3240 C   0  0  0  0  0  0  0  0  0  0  0  0
   -3.3770    0.7400   -2.6580 C   0  0  0  0  0  0  0  0  0  0  0  0
   -2.2840    0.7700   -1.8240 C   0  0  0  0  0  0  0  0  0  0  0  0
   -2.4020    0.1330   -0.5990 C   0  0  0  0  0  0  0  0  0  0  0  0
   -1.3620    0.1140    0.2990 O   0  0  0  0  0  0  0  0  0  0  0  0
   -0.1390    0.6850    0.0370 C   0  0  0  0  0  0  0  0  0  0  0  0
    0.9220    0.0360   -0.4060 N   0  0  0  0  0  0  0  0  0  0  0  0
    2.1490    0.5930   -0.6710 C   0  0  0  0  0  0  0  0  0  0  0  0
    3.1620   -0.2100   -1.1310 O   0  0  0  0  0  0  0  0  0  0  0  0
    4.0190   -0.8940   -0.2990 C   0  0  0  0  0  0  0  0  0  0  0  0
    4.0280   -2.3100   -0.4560 C   0  0  0  0  0  0  0  0  0  0  0  0
    4.8230   -3.1270    0.3000 C   0  0  0  0  0  0  0  0  0  0  0  0
    4.8290   -4.5730    0.1310 C   0  0  0  0  0  0  0  0  0  0  0  0
    5.6610   -5.3490    0.9800 N   0  0  0  0  0  0  0  0  0  0  0  0
    4.1090   -5.1450   -0.7460 N   0  0  0  0  0  0  0  0  0  0  0  0
    5.6690   -2.5920    1.2700 C   0  0  0  0  0  0  0  0  0  0  0  0
    5.6740   -1.2360    1.4360 C   0  0  0  0  0  0  0  0  0  0  0  0
    4.8530   -0.4050    0.6530 C   0  0  0  0  0  0  0  0  0  0  0  0
    4.9150    0.9620    0.8790 O   0  0  0  0  0  0  0  0  0  0  0  0
    2.2420    1.9400   -0.4490 C   0  0  0  0  0  0  0  0  0  0  0  0
    3.4100    2.5910   -0.7700 F   0  0  0  0  0  0  0  0  0  0  0  0
    1.1720    2.7110    0.0200 C   0  0  0  0  0  0  0  0  0  0  0  0
    1.3280    4.1100    0.2390 N   0  0  0  0  0  0  0  0  0  0  0  0
    1.0450    5.0050   -0.8770 C   0  0  0  0  0  0  0  0  0  0  0  0
    1.7140    4.6740    1.5010 C   0  0  0  0  0  0  0  0  0  0  0  0
    3.0300    5.3210    1.4160 C   0  0  0  0  0  0  0  0  0  0  0  0
    3.5230    5.8570    2.4710 O   0  0  0  0  0  0  0  0  0  0  0  0
    3.7940    5.4020    0.2660 O   0  0  0  0  0  0  0  0  0  0  0  0
   -0.0150    2.0610    0.2580 C   0  0  0  0  0  0  0  0  0  0  0  0
   -1.0530    2.7910    0.7110 F   0  0  0  0  0  0  0  0  0  0  0  0
   -3.5960   -0.4980   -0.2710 C   0  0  0  0  0  0  0  0  0  0  0  0
  1  2  1  0
  2  3  1  0
  2  6  1  0
  3  4  1  0
  4  5  1  0
  5  6  2  0
  6  7  1  0
  7  8  2  0
  7 38  1  0
  8  9  1  0
  9 10  2  0
 10 11  1  0
 11 12  1  0
 11 38  2  0
 12 13  1  0
 13 14  2  0
 13 36  1  0
 14 15  1  0
 15 16  1  0
 15 27  2  0
 16 17  1  0
 17 18  2  0
 17 25  1  0
 18 19  1  0
 19 20  1  0
 19 23  2  0
 20 21  1  0
 20 22  2  0
 23 24  1  0
 24 25  2  0
 25 26  1  0
 27 28  1  0
 27 29  1  0
 29 30  1  0
 29 36  2  0
 30 31  1  0
 30 32  1  0
 32 33  1  0
 33 34  2  0
 33 35  1  0
 36 37  1  0
M  CHG  1  22   1
M  END
