
     RDKit          3D

 41 44  0  0  0  0  0  0  0  0999 V2000
   -0.1070   -5.7510   -2.3120 C   0  0  0  0  0  0  0  0  0  0  0  0
   -0.8450   -4.5310   -2.1090 O   0  0  0  0  0  0  0  0  0  0  0  0
   -0.1740   -3.4720   -1.5090 C   0  0  0  0  0  0  0  0  0  0  0  0
    1.1070   -3.5270   -1.0910 C   0  0  0  0  0  0  0  0  0  0  0  0
    1.8200   -2.4850   -0.5190 C   0  0  0  0  0  0  0  0  0  0  0  0
    1.2100   -1.2670   -0.3410 C   0  0  0  0  0  0  0  0  0  0  0  0
    1.7920   -0.0680    0.0760 N   0  0  0  0  0  0  0  0  0  0  0  0
    3.0550    0.0320    0.7880 C   0  0  0  0  0  0  0  0  0  0  0  0
    3.6430   -1.0190    1.0790 O   0  0  0  0  0  0  0  0  0  0  0  0
    3.5610    1.3580    1.1080 C   0  0  0  0  0  0  0  0  0  0  0  0
    4.7560    1.5010    1.9060 C   0  0  0  0  0  0  0  0  0  0  0  0
    4.6580    2.1670    3.1460 C   0  0  0  0  0  0  0  0  0  0  0  0
    5.7680    2.4410    3.8650 C   0  0  0  0  0  0  0  0  0  0  0  0
    7.0490    2.0790    3.4180 C   0  0  0  0  0  0  0  0  0  0  0  0
    7.1450    1.4290    2.2140 C   0  0  0  0  0  0  0  0  0  0  0  0
    5.9910    1.1270    1.4370 C   0  0  0  0  0  0  0  0  0  0  0  0
    6.1850    0.1410   -0.0040 S   0  0  0  0  0  0  0  0  0  0  0  0
    6.4180    1.1230   -1.4990 C   0  0  0  0  0  0  0  0  0  0  0  0
    7.0510    0.2200   -2.5190 C   0  0  0  0  0  0  0  0  0  0  0  0
    7.5560   -0.4960   -3.3470 N   0  0  0  0  0  0  0  0  0  0  0  0
   -0.1440   -1.1900   -0.7630 C   0  0  0  0  0  0  0  0  0  0  0  0
   -0.7830    0.0700   -0.6080 N   0  0  0  0  0  0  0  0  0  0  0  0
   -1.4550    0.4420    0.5450 C   0  0  0  0  0  0  0  0  0  0  0  0
   -1.5670   -0.2870    1.5980 O   0  0  0  0  0  0  0  0  0  0  0  0
   -2.0800    1.7750    0.5480 C   0  0  0  0  0  0  0  0  0  0  0  0
   -2.0950    2.7940   -0.3350 C   0  0  0  0  0  0  0  0  0  0  0  0
   -2.7470    3.9300   -0.0710 C   0  0  0  0  0  0  0  0  0  0  0  0
   -3.4120    4.0720    1.1270 C   0  0  0  0  0  0  0  0  0  0  0  0
   -3.0400    2.4230    1.8660 S   0  0  0  0  0  0  0  0  0  0  0  0
   -4.0600    5.3360    1.3030 C   0  0  0  0  0  0  0  0  0  0  0  0
   -3.3770    6.2010    0.2440 C   0  0  2  0  0  0  0  0  0  0  0  0
   -4.2780    7.3070   -0.2010 C   0  0  0  0  0  0  0  0  0  0  0  0
   -3.0020    5.2350   -0.8440 C   0  0  0  0  0  0  0  0  0  0  0  0
   -0.8230   -2.2360   -1.3190 C   0  0  0  0  0  0  0  0  0  0  0  0
   -2.2520   -2.2050   -1.6900 C   0  0  0  0  0  0  0  0  0  0  0  0
   -3.1910   -2.6270   -0.6180 C   0  0  0  0  0  0  0  0  0  0  0  0
   -3.0310   -3.9010   -0.0220 N   0  0  0  0  0  0  0  0  0  0  0  0
   -3.7530   -4.9860   -0.6430 C   0  0  0  0  0  0  0  0  0  0  0  0
   -4.3700   -5.8310    0.4380 C   0  0  0  0  0  0  0  0  0  0  0  0
   -5.1000   -6.9640    0.0500 N   0  0  0  0  0  0  0  0  0  0  0  0
   -4.2110   -5.4910    1.6270 O   0  0  0  0  0  0  0  0  0  0  0  0
  1  2  1  0
  2  3  1  0
  3  4  2  0
  3 34  1  0
  4  5  1  0
  5  6  2  0
  6  7  1  0
  6 21  1  0
  7  8  1  0
  8  9  2  0
  8 10  1  0
 10 11  1  0
 11 12  2  0
 11 16  1  0
 12 13  1  0
 13 14  2  0
 14 15  1  0
 15 16  2  0
 16 17  1  0
 17 18  1  0
 18 19  1  0
 19 20  3  0
 21 22  1  0
 21 34  2  0
 22 23  1  0
 23 24  2  0
 23 25  1  0
 25 26  2  0
 25 29  1  0
 26 27  1  0
 27 28  2  0
 27 33  1  0
 28 29  1  0
 28 30  1  0
 30 31  1  0
 31 32  1  6
 31 33  1  0
 34 35  1  0
 35 36  1  0
 36 37  1  0
 37 38  1  0
 38 39  1  0
 39 40  1  0
 39 41  2  0
M  CHG  1  37   1
M  END
