
     RDKit          3D

 41 44  0  0  0  0  0  0  0  0999 V2000
   -1.1090   -6.1100   -0.0320 C   0  0  0  0  0  0  0  0  0  0  0  0
   -1.8440   -4.7840   -0.0910 C   0  0  0  0  0  0  0  0  0  0  0  0
   -1.0520   -3.7360    0.6720 C   0  0  0  0  0  0  0  0  0  0  0  0
   -1.8050   -2.4160    0.6010 C   0  0  0  0  0  0  0  0  0  0  0  0
   -1.9310   -2.0540   -0.7680 N   0  0  0  0  0  0  0  0  0  0  0  0
   -2.7530   -0.5950   -1.0570 S   0  0  1  0  0  0  0  0  0  0  0  0
   -2.8590   -0.2850   -2.5290 O   0  0  0  0  0  0  0  0  0  0  0  0
   -4.1540   -0.6840   -0.5430 O   0  0  0  0  0  0  0  0  0  0  0  0
   -1.8430    0.7150   -0.2850 C   0  0  0  0  0  0  0  0  0  0  0  0
   -0.8940    1.3300   -0.9580 C   0  0  0  0  0  0  0  0  0  0  0  0
   -0.6240    0.9210   -2.2840 N   0  0  0  0  0  0  0  0  0  0  0  0
    0.3520   -0.0880   -2.5870 C   0  0  0  0  0  0  0  0  0  0  0  0
    1.0620   -0.6920   -1.6210 N   0  0  0  0  0  0  0  0  0  0  0  0
    1.9870   -1.6580   -1.8880 C   0  0  0  0  0  0  0  0  0  0  0  0
    2.7610   -2.2990   -0.7950 C   0  0  0  0  0  0  0  0  0  0  0  0
    2.2230   -2.0490   -3.1850 C   0  0  0  0  0  0  0  0  0  0  0  0
    3.2070   -3.0920   -3.5350 C   0  0  0  0  0  0  0  0  0  0  0  0
    2.6910   -4.4830   -3.2420 C   0  0  0  0  0  0  0  0  0  0  0  0
    1.4320   -4.8120   -3.9980 C   0  0  0  0  0  0  0  0  0  0  0  0
    1.4800   -1.4140   -4.1750 C   0  0  0  0  0  0  0  0  0  0  0  0
    1.6850   -1.7600   -5.3640 O   0  0  0  0  0  0  0  0  0  0  0  0
    0.5810   -0.4680   -3.8530 N   0  0  0  0  0  0  0  0  0  0  0  0
   -0.1820    2.4360   -0.3540 C   0  0  0  0  0  0  0  0  0  0  0  0
    1.1990    2.6110   -0.4500 C   0  0  0  0  0  0  0  0  0  0  0  0
    1.8550    3.6760    0.1230 C   0  0  0  0  0  0  0  0  0  0  0  0
    1.1600    4.6320    0.8270 C   0  0  0  0  0  0  0  0  0  0  0  0
    2.0610    5.9520    1.5240 S   0  0  1  0  0  0  0  0  0  0  0  0
    2.1110    7.3750    0.5000 C   0  0  0  0  0  0  0  0  0  0  0  0
    1.5820    6.2480    2.9750 N   0  0  0  0  0  0  0  0  0  0  0  0
    3.4990    5.5020    1.7850 O   0  0  0  0  0  0  0  0  0  0  0  0
   -0.1890    4.4950    0.9420 C   0  0  0  0  0  0  0  0  0  0  0  0
   -0.8440    3.4260    0.3670 C   0  0  0  0  0  0  0  0  0  0  0  0
   -2.1550    1.0270    1.0990 C   0  0  0  0  0  0  0  0  0  0  0  0
   -3.4580    1.1970    1.5010 C   0  0  0  0  0  0  0  0  0  0  0  0
   -3.6760    1.4620    2.8480 C   0  0  0  0  0  0  0  0  0  0  0  0
   -2.6640    1.5620    3.7800 C   0  0  0  0  0  0  0  0  0  0  0  0
   -1.3650    1.3880    3.3510 C   0  0  0  0  0  0  0  0  0  0  0  0
   -1.1030    1.1210    2.0150 C   0  0  0  0  0  0  0  0  0  0  0  0
   -0.5200    1.5110    4.3430 C   0  0  0  0  0  0  0  0  0  0  0  0
   -1.2950    1.7960    5.5720 C   0  0  0  0  0  0  0  0  0  0  0  0
   -2.6840    1.8090    5.0970 C   0  0  0  0  0  0  0  0  0  0  0  0
  1  2  1  0
  2  3  1  0
  3  4  1  0
  4  5  1  0
  6  5  1  6
  6  7  2  0
  6  8  2  0
  6  9  1  0
  9 10  2  3
  9 33  1  0
 10 11  1  0
 10 23  1  0
 11 12  1  0
 12 13  2  0
 12 22  1  0
 13 14  1  0
 14 15  1  0
 14 16  2  0
 16 17  1  0
 16 20  1  0
 17 18  1  0
 18 19  1  0
 20 21  2  0
 20 22  1  0
 23 24  2  0
 23 32  1  0
 24 25  1  0
 25 26  2  0
 26 27  1  0
 26 31  1  0
 27 28  1  6
 27 29  2  0
 27 30  2  0
 31 32  2  0
 33 34  1  0
 33 38  2  0
 34 35  2  0
 35 36  1  0
 36 37  1  0
 36 41  2  0
 37 38  1  0
 37 39  2  0
 39 40  1  0
 40 41  1  0
M  CHG  1  29   1
M  END
