
     RDKit          3D

 41 44  0  0  0  0  0  0  0  0999 V2000
   -2.5320    0.8160   -4.8050 C   0  0  0  0  0  0  0  0  0  0  0  0
   -1.5590   -0.2920   -4.6220 C   0  0  0  0  0  0  0  0  0  0  0  0
   -0.8940   -0.8540   -5.7130 C   0  0  0  0  0  0  0  0  0  0  0  0
    0.0070   -1.8840   -5.5440 C   0  0  0  0  0  0  0  0  0  0  0  0
    0.2810   -2.3950   -4.2740 C   0  0  0  0  0  0  0  0  0  0  0  0
   -0.3860   -1.8310   -3.1820 C   0  0  0  0  0  0  0  0  0  0  0  0
   -0.1920   -2.3190   -1.8710 N   0  0  0  0  0  0  0  0  0  0  0  0
    0.8240   -3.3010   -1.6030 C   0  0  0  0  0  0  0  0  0  0  0  0
    2.1790   -2.6390   -1.6890 C   0  0  0  0  0  0  0  0  0  0  0  0
    2.1790   -1.5970   -0.6490 N   0  0  0  0  0  0  0  0  0  0  0  0
    3.3880   -0.8120   -0.7520 C   0  0  0  0  0  0  0  0  0  0  0  0
    4.5020   -1.4260   -0.0450 C   0  0  0  0  0  0  0  0  0  0  0  0
    4.3430   -2.6390    0.6240 C   0  0  0  0  0  0  0  0  0  0  0  0
    5.4550   -3.2060    1.2540 C   0  0  0  0  0  0  0  0  0  0  0  0
    6.6890   -2.5990    1.2280 C   0  0  0  0  0  0  0  0  0  0  0  0
    6.8140   -1.4020    0.5610 C   0  0  0  0  0  0  0  0  0  0  0  0
    5.7220   -0.7990   -0.0840 C   0  0  0  0  0  0  0  0  0  0  0  0
    5.9250    0.4880   -0.7180 C   0  0  0  0  0  0  0  0  0  0  0  0
    5.6070    1.6690    0.1900 C   0  0  0  0  0  0  0  0  0  0  0  0
    6.4980    1.5830    1.3460 N   0  0  0  0  0  0  0  0  0  0  0  0
    6.2120    2.8770    2.4220 S   0  0  2  0  0  0  0  0  0  0  0  0
    4.5550    2.8300    3.0450 C   0  0  0  0  0  0  0  0  0  0  0  0
    6.5350    4.2070    1.8010 O   0  0  0  0  0  0  0  0  0  0  0  0
    7.1710    2.7040    3.5970 O   0  0  0  0  0  0  0  0  0  0  0  0
   -1.2870   -0.7990   -3.3710 C   0  0  0  0  0  0  0  0  0  0  0  0
   -1.9610   -0.2570   -2.2080 C   0  0  0  0  0  0  0  0  0  0  0  0
   -3.0880   -0.8560   -1.6590 C   0  0  0  0  0  0  0  0  0  0  0  0
   -3.7090   -0.3160   -0.5560 C   0  0  0  0  0  0  0  0  0  0  0  0
   -3.2500    0.8480    0.0650 C   0  0  0  0  0  0  0  0  0  0  0  0
   -3.9010    1.3800    1.2070 N   0  0  0  0  0  0  0  0  0  0  0  0
   -4.9340    0.5960    1.8260 C   0  0  0  0  0  0  0  0  0  0  0  0
   -5.6180    1.3180    2.9670 C   0  0  2  0  0  0  0  0  0  0  0  0
   -4.6780    1.7140    4.0720 C   0  0  0  0  0  0  0  0  0  0  0  0
   -6.7090    0.3900    3.4900 C   0  0  0  0  0  0  0  0  0  0  0  0
   -7.8240    1.2790    3.9500 C   0  0  0  0  0  0  0  0  0  0  0  0
   -8.1770    2.1170    2.8020 N   0  0  0  0  0  0  0  0  0  0  0  0
   -6.5780    2.6840    2.3710 S   0  0  2  0  0  0  0  0  0  0  0  0
   -6.5210    2.8360    0.8860 O   0  0  0  0  0  0  0  0  0  0  0  0
   -6.2520    3.9680    3.0780 O   0  0  0  0  0  0  0  0  0  0  0  0
   -2.1320    1.4340   -0.4870 C   0  0  0  0  0  0  0  0  0  0  0  0
   -1.4970    0.8930   -1.6030 C   0  0  0  0  0  0  0  0  0  0  0  0
  1  2  1  0
  2  3  2  0
  2 25  1  0
  3  4  1  0
  4  5  2  0
  5  6  1  0
  6  7  1  0
  6 25  2  0
  7  8  1  0
  8  9  1  0
  9 10  1  0
 10 11  1  0
 11 12  1  0
 12 13  2  0
 12 17  1  0
 13 14  1  0
 14 15  2  0
 15 16  1  0
 16 17  2  0
 17 18  1  0
 18 19  1  0
 19 20  1  0
 20 21  1  0
 21 22  1  1
 21 23  2  0
 21 24  2  0
 25 26  1  0
 26 27  2  0
 26 41  1  0
 27 28  1  0
 28 29  2  0
 29 30  1  0
 29 40  1  0
 30 31  1  0
 31 32  1  0
 32 33  1  1
 32 34  1  0
 32 37  1  0
 34 35  1  0
 35 36  1  0
 37 36  1  6
 37 38  2  0
 37 39  2  0
 40 41  2  0
M  CHG  1  10   1
M  END
