
     RDKit          3D

 41 44  0  0  0  0  0  0  0  0999 V2000
   10.9870   -0.1530   -1.3300 C   0  0  0  0  0  0  0  0  0  0  0  0
   10.4450    0.2410    0.0070 C   0  0  0  0  0  0  0  0  0  0  0  0
    9.1310   -0.3920    0.2930 C   0  0  0  0  0  0  0  0  0  0  0  0
    7.8450    0.0470   -0.8300 S   0  0  1  0  0  0  0  0  0  0  0  0
    7.5500    1.5280   -0.6880 O   0  0  0  0  0  0  0  0  0  0  0  0
    8.1700   -0.1970   -2.2580 O   0  0  0  0  0  0  0  0  0  0  0  0
    6.3650   -0.7710   -0.3750 N   0  0  0  0  0  0  0  0  0  0  0  0
    6.0730   -0.2750    0.9710 C   0  0  0  0  0  0  0  0  0  0  0  0
    4.8460   -0.8960    1.4870 C   0  0  0  0  0  0  0  0  0  0  0  0
    3.5560   -0.6810    0.8460 C   0  0  0  0  0  0  0  0  0  0  0  0
    3.3840   -1.1000   -0.5430 N   0  0  0  0  0  0  0  0  0  0  0  0
    1.6360   -0.6730   -0.8800 S   0  0  2  0  0  0  0  0  0  0  0  0
    1.0500   -1.5130    0.2160 O   0  0  0  0  0  0  0  0  0  0  0  0
    1.4710   -1.2000   -2.2440 O   0  0  0  0  0  0  0  0  0  0  0  0
    1.5950    1.0230   -0.6950 C   0  0  0  0  0  0  0  0  0  0  0  0
    2.6970    1.9110   -0.8110 C   0  0  0  0  0  0  0  0  0  0  0  0
    2.3110    3.1660   -0.6700 N   0  0  0  0  0  0  0  0  0  0  0  0
    0.9780    3.2100   -0.4590 C   0  0  0  0  0  0  0  0  0  0  0  0
    0.1140    4.2500   -0.2230 C   0  0  0  0  0  0  0  0  0  0  0  0
   -1.2100    3.9930    0.0050 C   0  0  0  0  0  0  0  0  0  0  0  0
   -1.6830    2.7010   -0.0030 C   0  0  0  0  0  0  0  0  0  0  0  0
   -0.7940    1.6790   -0.2470 C   0  0  0  0  0  0  0  0  0  0  0  0
   -1.3590    0.2810   -0.3880 C   0  0  0  0  0  0  0  0  0  0  0  0
   -2.7260    0.3900    0.0410 N   0  0  0  0  0  0  0  0  0  0  0  0
   -2.6990    0.3080    1.5240 C   0  0  0  0  0  0  0  0  0  0  0  0
   -2.2920   -1.1110    1.9030 C   0  0  0  0  0  0  0  0  0  0  0  0
   -2.5400   -2.1230    0.9630 N   0  0  0  0  0  0  0  0  0  0  0  0
   -3.2480   -1.8830   -0.2260 C   0  0  0  0  0  0  0  0  0  0  0  0
   -3.7430   -0.4830   -0.4660 C   0  0  2  0  0  0  0  0  0  0  0  0
   -4.0480   -0.1050   -1.8350 C   0  0  0  0  0  0  0  0  0  0  0  0
   -5.0500   -0.7630   -2.6710 C   0  0  2  0  0  0  0  0  0  0  0  0
   -6.4800   -0.7230   -2.1570 C   0  0  0  0  0  0  0  0  0  0  0  0
   -4.7400   -2.1240   -3.2240 C   0  0  0  0  0  0  0  0  0  0  0  0
   -4.9170   -0.1640    0.4410 C   0  0  0  0  0  0  0  0  0  0  0  0
   -5.4420    1.1290    0.4930 C   0  0  0  0  0  0  0  0  0  0  0  0
   -6.4500    1.4640    1.3640 C   0  0  0  0  0  0  0  0  0  0  0  0
   -6.9700    0.5180    2.2120 C   0  0  0  0  0  0  0  0  0  0  0  0
   -8.0450    0.8360    3.2010 C   0  0  0  0  0  0  0  0  0  0  0  0
   -6.4820   -0.7650    2.1880 C   0  0  0  0  0  0  0  0  0  0  0  0
   -5.4520   -1.0890    1.2940 C   0  0  0  0  0  0  0  0  0  0  0  0
    0.5390    1.8750   -0.4780 C   0  0  0  0  0  0  0  0  0  0  0  0
  1  2  1  0
  2  3  1  0
  4  3  1  1
  4  5  2  0
  4  6  2  0
  4  7  1  0
  7  8  1  0
  8  9  1  0
  9 10  1  0
 10 11  1  0
 12 11  1  1
 12 13  2  0
 12 14  2  0
 12 15  1  0
 15 16  2  0
 15 41  1  0
 16 17  1  0
 17 18  1  0
 18 19  2  0
 18 41  1  0
 19 20  1  0
 20 21  2  0
 21 22  1  0
 22 23  1  0
 22 41  2  0
 23 24  1  0
 24 25  1  0
 24 29  1  0
 25 26  1  0
 26 27  1  0
 27 28  1  0
 28 29  1  0
 29 30  1  6
 29 34  1  0
 30 31  1  0
 31 32  1  1
 31 33  1  0
 34 35  2  0
 34 40  1  0
 35 36  1  0
 36 37  2  0
 37 38  1  0
 37 39  1  0
 39 40  2  0
M  CHG  1  27   1
M  END
