
     RDKit          3D

 41 44  0  0  0  0  0  0  0  0999 V2000
    8.8390    1.7690    2.5890 C   0  0  0  0  0  0  0  0  0  0  0  0
    8.4530    0.4760    3.1360 C   0  0  0  0  0  0  0  0  0  0  0  0
    7.3280   -0.2270    2.8460 C   0  0  0  0  0  0  0  0  0  0  0  0
    7.1070   -1.4360    3.4470 C   0  0  0  0  0  0  0  0  0  0  0  0
    8.2500   -2.2080    4.6540 S   0  0  0  0  0  0  0  0  0  0  0  0
    7.6260   -2.1680    6.0230 O   0  0  0  0  0  0  0  0  0  0  0  0
    5.9830   -2.1190    3.1470 C   0  0  0  0  0  0  0  0  0  0  0  0
    5.1010   -1.0730    1.9390 S   0  0  0  0  0  0  0  0  0  0  0  0
    6.4160    0.2330    1.9780 C   0  0  0  0  0  0  0  0  0  0  0  0
    6.2460    1.2870    1.2160 C   0  0  0  0  0  0  0  0  0  0  0  0
    5.0410    1.4200    0.3640 C   0  0  0  0  0  0  0  0  0  0  0  0
    4.2490    2.5320    0.5230 C   0  0  0  0  0  0  0  0  0  0  0  0
    3.1130    2.7460   -0.2210 C   0  0  0  0  0  0  0  0  0  0  0  0
    2.7380    1.8190   -1.1680 C   0  0  0  0  0  0  0  0  0  0  0  0
    1.4970    2.0360   -1.9970 C   0  0  0  0  0  0  0  0  0  0  0  0
    0.3480    1.3970   -1.2350 C   0  0  0  0  0  0  0  0  0  0  0  0
   -0.9530    1.5550   -1.9540 C   0  0  0  0  0  0  0  0  0  0  0  0
   -1.9900    0.9680   -1.2730 O   0  0  0  0  0  0  0  0  0  0  0  0
   -2.2610   -0.3250   -0.9480 C   0  0  0  0  0  0  0  0  0  0  0  0
   -1.4970   -1.4190   -1.2850 C   0  0  0  0  0  0  0  0  0  0  0  0
   -1.8310   -2.7150   -0.9260 C   0  0  0  0  0  0  0  0  0  0  0  0
   -1.0200   -3.8220   -1.2840 N   0  0  0  0  0  0  0  0  0  0  0  0
   -1.4220   -5.1780   -1.0110 C   0  0  0  0  0  0  0  0  0  0  0  0
   -2.6560   -5.5520   -1.7350 C   0  0  0  0  0  0  0  0  0  0  0  0
   -3.2430   -6.8350   -1.6120 N   0  0  0  0  0  0  0  0  0  0  0  0
   -3.2120   -4.7130   -2.4860 O   0  0  0  0  0  0  0  0  0  0  0  0
   -2.9930   -2.8740   -0.1950 C   0  0  0  0  0  0  0  0  0  0  0  0
   -3.7690   -1.7880    0.1490 C   0  0  0  0  0  0  0  0  0  0  0  0
   -3.4430   -0.5090   -0.2030 C   0  0  0  0  0  0  0  0  0  0  0  0
   -4.2490    0.6340    0.1570 N   0  0  0  0  0  0  0  0  0  0  0  0
   -5.3560    1.0070   -0.6810 C   0  0  0  0  0  0  0  0  0  0  0  0
   -5.5830    0.2980   -1.7210 O   0  0  0  0  0  0  0  0  0  0  0  0
   -6.2100    2.0880   -0.4530 N   0  0  0  0  0  0  0  0  0  0  0  0
   -7.3090    2.5940   -1.1850 C   0  0  0  0  0  0  0  0  0  0  0  0
   -6.9670    3.1970   -2.4960 C   0  0  0  0  0  0  0  0  0  0  0  0
   -6.3930    2.3820   -3.4920 N   0  0  0  0  0  0  0  0  0  0  0  0
   -3.9080    1.3460    1.3320 C   0  0  2  0  0  0  0  0  0  0  0  0
   -2.5340    1.3110    1.9010 C   0  0  0  0  0  0  0  0  0  0  0  0
   -3.5980    0.4250    2.5260 C   0  0  0  0  0  0  0  0  0  0  0  0
    3.5210    0.7020   -1.3370 C   0  0  0  0  0  0  0  0  0  0  0  0
    4.6750    0.4920   -0.5760 C   0  0  0  0  0  0  0  0  0  0  0  0
  1  2  1  0
  2  3  2  3
  3  4  1  0
  3  9  1  0
  4  5  1  0
  4  7  2  0
  5  6  2  0
  7  8  1  0
  8  9  1  0
  9 10  2  3
 10 11  1  0
 11 12  2  0
 11 41  1  0
 12 13  1  0
 13 14  2  0
 14 15  1  0
 14 40  1  0
 15 16  1  0
 16 17  1  0
 17 18  1  0
 18 19  1  0
 19 20  2  0
 19 29  1  0
 20 21  1  0
 21 22  1  0
 21 27  2  0
 22 23  1  0
 23 24  1  0
 24 25  1  0
 24 26  2  0
 27 28  1  0
 28 29  2  0
 29 30  1  0
 30 31  1  0
 37 30  1  6
 31 32  2  0
 31 33  1  0
 33 34  1  0
 34 35  1  0
 35 36  1  0
 37 38  1  0
 37 39  1  0
 38 39  1  0
 40 41  2  0
M  CHG  1  36   1
M  END
