
     RDKit          3D

 41 44  0  0  0  0  0  0  0  0999 V2000
   -9.0130    0.9560   -4.5800 C   0  0  0  0  0  0  0  0  0  0  0  0
   -8.9480    0.4540   -3.1890 C   0  0  0  0  0  0  0  0  0  0  0  0
   -7.8910   -0.1330   -2.5200 C   0  0  0  0  0  0  0  0  0  0  0  0
   -8.0750   -0.5090   -1.2540 C   0  0  0  0  0  0  0  0  0  0  0  0
   -6.9960   -1.1840   -0.4590 C   0  0  0  0  0  0  0  0  0  0  0  0
   -7.2110   -1.6350    0.6820 O   0  0  0  0  0  0  0  0  0  0  0  0
   -5.6230   -1.3450   -0.9960 C   0  0  0  0  0  0  0  0  0  0  0  0
   -4.7560   -2.0160   -0.0790 N   0  0  0  0  0  0  0  0  0  0  0  0
   -3.3930   -2.0000   -0.5590 C   0  0  0  0  0  0  0  0  0  0  0  0
   -2.8480   -0.6630   -0.2060 C   0  0  0  0  0  0  0  0  0  0  0  0
   -3.1660    0.3590    0.3910 N   0  0  0  0  0  0  0  0  0  0  0  0
   -2.4240    1.4210    0.5330 C   0  0  0  0  0  0  0  0  0  0  0  0
   -1.1770    1.4080   -0.0280 C   0  0  0  0  0  0  0  0  0  0  0  0
   -0.1110    2.3990   -0.0600 C   0  0  0  0  0  0  0  0  0  0  0  0
    0.7970    2.0720    1.0950 N   0  0  0  0  0  0  0  0  0  0  0  0
    0.4380    2.7210    2.3110 C   0  0  0  0  0  0  0  0  0  0  0  0
    1.8440    1.1920    0.8320 C   0  0  0  0  0  0  0  0  0  0  0  0
    1.9080    0.7540   -0.4030 O   0  0  0  0  0  0  0  0  0  0  0  0
    2.8440    0.7180    1.7360 C   0  0  0  0  0  0  0  0  0  0  0  0
    2.9830    1.0400    3.0520 C   0  0  0  0  0  0  0  0  0  0  0  0
    4.0170    0.4940    3.8250 C   0  0  0  0  0  0  0  0  0  0  0  0
    4.9100   -0.3840    3.2460 C   0  0  0  0  0  0  0  0  0  0  0  0
    4.8100   -0.7370    1.9300 C   0  0  0  0  0  0  0  0  0  0  0  0
    5.7620   -1.6650    1.3170 C   0  0  0  0  0  0  0  0  0  0  0  0
    6.9050   -0.9060    0.6870 C   0  0  0  0  0  0  0  0  0  0  0  0
    6.9000    0.3360    0.7710 O   0  0  0  0  0  0  0  0  0  0  0  0
    7.9420   -1.5770    0.0260 N   0  0  0  0  0  0  0  0  0  0  0  0
    9.0650   -0.9880   -0.6020 C   0  0  0  0  0  0  0  0  0  0  0  0
    9.8980   -1.7770   -1.4110 C   0  0  0  0  0  0  0  0  0  0  0  0
   11.0060   -1.2560   -2.0350 C   0  0  0  0  0  0  0  0  0  0  0  0
   11.3660    0.0680   -1.9050 C   0  0  0  0  0  0  0  0  0  0  0  0
   12.5170    0.5610   -2.5690 N   0  0  0  0  0  0  0  0  0  0  0  0
   10.5610    0.8520   -1.1170 C   0  0  0  0  0  0  0  0  0  0  0  0
    9.4260    0.3170   -0.4780 C   0  0  0  0  0  0  0  0  0  0  0  0
    3.7950   -0.1920    1.1980 C   0  0  0  0  0  0  0  0  0  0  0  0
   -1.1610   -0.2200   -0.7590 S   0  0  0  0  0  0  0  0  0  0  0  0
   -9.2930   -0.3000   -0.6710 C   0  0  0  0  0  0  0  0  0  0  0  0
   -9.7860   -0.5740    0.6860 C   0  0  0  0  0  0  0  0  0  0  0  0
   -9.3220    0.4940    1.6480 C   0  0  0  0  0  0  0  0  0  0  0  0
   -9.8420    0.1280    2.9110 O   0  0  0  0  0  0  0  0  0  0  0  0
  -10.2360    0.4690   -1.9820 S   0  0  0  0  0  0  0  0  0  0  0  0
  1  2  1  0
  2  3  2  0
  2 41  1  0
  3  4  1  0
  4  5  1  0
  4 37  2  0
  5  6  2  0
  5  7  1  0
  7  8  1  0
  8  9  1  0
  9 10  1  0
 10 11  2  0
 10 36  1  0
 11 12  1  0
 12 13  2  0
 13 14  1  0
 13 36  1  0
 14 15  1  0
 15 16  1  0
 15 17  1  0
 17 18  2  0
 17 19  1  0
 19 20  2  0
 19 35  1  0
 20 21  1  0
 21 22  2  0
 22 23  1  0
 23 24  1  0
 23 35  2  0
 24 25  1  0
 25 26  2  0
 25 27  1  0
 27 28  1  0
 28 29  2  0
 28 34  1  0
 29 30  1  0
 30 31  2  0
 31 32  1  0
 31 33  1  0
 33 34  2  0
 37 38  1  0
 37 41  1  0
 38 39  1  0
 39 40  1  0
M  CHG  1   8   1
M  END
