
     RDKit          3D

 41 44  0  0  0  0  0  0  0  0999 V2000
    4.7180    3.8290    1.7120 C   0  0  0  0  0  0  0  0  0  0  0  0
    4.4760    2.3780    2.0010 C   0  0  0  0  0  0  0  0  0  0  0  0
    4.3820    1.5540    0.8380 N   0  0  0  0  0  0  0  0  0  0  0  0
    3.1520    1.4030    0.3130 N   0  0  0  0  0  0  0  0  0  0  0  0
    2.9090    0.6740   -0.7540 C   0  0  0  0  0  0  0  0  0  0  0  0
    1.6060    0.5080   -1.3890 C   0  0  0  0  0  0  0  0  0  0  0  0
    0.2950    1.2870   -0.4370 S   0  0  0  0  0  0  0  0  0  0  0  0
   -0.0780    0.2720    0.9800 C   0  0  0  0  0  0  0  0  0  0  0  0
    0.4090    0.5120    2.2400 C   0  0  0  0  0  0  0  0  0  0  0  0
    0.1400   -0.3870    3.2760 C   0  0  0  0  0  0  0  0  0  0  0  0
    0.5160   -0.3510    4.5880 C   0  0  0  0  0  0  0  0  0  0  0  0
    0.0130   -1.4490    5.2040 C   0  0  0  0  0  0  0  0  0  0  0  0
   -0.6740   -2.1670    4.2810 N   0  0  0  0  0  0  0  0  0  0  0  0
   -0.6130   -1.5340    3.0780 C   0  0  0  0  0  0  0  0  0  0  0  0
   -1.1030   -1.7810    1.8220 C   0  0  0  0  0  0  0  0  0  0  0  0
   -1.7930   -3.0180    1.5560 C   0  0  0  0  0  0  0  0  0  0  0  0
   -2.1300   -3.9240    2.6250 N   0  0  0  0  0  0  0  0  0  0  0  0
   -2.1540   -3.4120    0.4060 O   0  0  0  0  0  0  0  0  0  0  0  0
   -0.8330   -0.8760    0.7990 C   0  0  0  0  0  0  0  0  0  0  0  0
   -1.4320   -1.1330   -0.4390 N   0  0  0  0  0  0  0  0  0  0  0  0
   -2.7710   -0.8590   -0.7810 C   0  0  0  0  0  0  0  0  0  0  0  0
   -3.2600    0.5410   -0.9490 C   0  0  1  0  0  0  0  0  0  0  0  0
   -3.1240    1.3610    0.2920 C   0  0  0  0  0  0  0  0  0  0  0  0
   -2.6220    1.2310   -2.1200 C   0  0  0  0  0  0  0  0  0  0  0  0
   -4.7560    0.4040   -1.2710 C   0  0  0  0  0  0  0  0  0  0  0  0
   -5.4490    1.7040   -1.4880 C   0  0  0  0  0  0  0  0  0  0  0  0
   -7.1730    1.2970   -1.8410 S   0  0  2  0  0  0  0  0  0  0  0  0
   -7.1500    0.3320   -2.9900 O   0  0  0  0  0  0  0  0  0  0  0  0
   -7.9740    2.5050   -2.1350 O   0  0  0  0  0  0  0  0  0  0  0  0
   -7.7840    0.4280   -0.4120 C   0  0  0  0  0  0  0  0  0  0  0  0
   -9.2320    0.0320   -0.5940 C   0  0  0  0  0  0  0  0  0  0  0  0
    3.9840    0.0250   -1.3770 C   0  0  0  0  0  0  0  0  0  0  0  0
    3.8110   -0.7460   -2.4930 C   0  0  0  0  0  0  0  0  0  0  0  0
    4.9000   -1.3750   -3.0890 C   0  0  0  0  0  0  0  0  0  0  0  0
    6.1690   -1.2570   -2.6000 C   0  0  0  0  0  0  0  0  0  0  0  0
    7.3610   -1.9030   -3.1910 C   0  0  0  0  0  0  0  0  0  0  0  0
    6.3590   -0.4710   -1.4590 C   0  0  0  0  0  0  0  0  0  0  0  0
    7.7110   -0.2950   -0.8690 C   0  0  0  0  0  0  0  0  0  0  0  0
    5.2660    0.1550   -0.8690 C   0  0  0  0  0  0  0  0  0  0  0  0
    5.4060    0.9380    0.2500 C   0  0  0  0  0  0  0  0  0  0  0  0
    6.5390    1.0930    0.7550 O   0  0  0  0  0  0  0  0  0  0  0  0
  1  2  1  0
  2  3  1  0
  3  4  1  0
  3 40  1  0
  4  5  2  0
  5  6  1  0
  5 32  1  0
  6  7  1  0
  7  8  1  0
  8  9  2  0
  8 19  1  0
  9 10  1  0
 10 11  1  0
 10 14  2  0
 11 12  2  0
 12 13  1  0
 13 14  1  0
 14 15  1  0
 15 16  1  0
 15 19  2  0
 16 17  1  0
 16 18  2  0
 19 20  1  0
 20 21  1  0
 21 22  1  0
 22 23  1  1
 22 24  1  0
 22 25  1  0
 25 26  1  0
 27 26  1  1
 27 28  2  0
 27 29  2  0
 27 30  1  0
 30 31  1  0
 32 33  2  0
 32 39  1  0
 33 34  1  0
 34 35  2  0
 35 36  1  0
 35 37  1  0
 37 38  1  0
 37 39  2  0
 39 40  1  0
 40 41  2  0
M  CHG  1   4   1
M  END
