
     RDKit          3D

 32 35  0  0  0  0  0  0  0  0999 V2000
   -4.0410    1.0060    3.3040 C   0  0  0  0  0  0  0  0  0  0  0  0
   -2.9270    0.7980    2.4730 O   0  0  0  0  0  0  0  0  0  0  0  0
   -3.1280    0.4990    1.1040 C   0  0  0  0  0  0  0  0  0  0  0  0
   -4.3790    0.4210    0.6390 N   0  0  0  0  0  0  0  0  0  0  0  0
   -4.5820    0.1390   -0.6520 C   0  0  0  0  0  0  0  0  0  0  0  0
   -5.8400    0.0470   -1.1930 O   0  0  0  0  0  0  0  0  0  0  0  0
   -6.9890    0.2350   -0.4240 C   0  0  0  0  0  0  0  0  0  0  0  0
   -7.0530   -0.8080    0.6630 C   0  0  0  0  0  0  0  0  0  0  0  0
   -7.0810   -2.0530   -0.0130 O   0  0  0  0  0  0  0  0  0  0  0  0
   -3.5110   -0.0750   -1.5170 C   0  0  0  0  0  0  0  0  0  0  0  0
   -2.2190    0.0050   -1.0380 C   0  0  0  0  0  0  0  0  0  0  0  0
   -2.0190    0.2940    0.2820 C   0  0  0  0  0  0  0  0  0  0  0  0
   -0.7380    0.4020    0.8890 N   0  0  0  0  0  0  0  0  0  0  0  0
    0.5100    0.2380    0.2690 C   0  0  0  0  0  0  0  0  0  0  0  0
    1.6250    0.3880    1.0470 N   0  0  0  0  0  0  0  0  0  0  0  0
    2.8480    0.2620    0.5950 N   0  0  0  0  0  0  0  0  0  0  0  0
    3.0510   -0.0290   -0.6990 C   0  0  0  0  0  0  0  0  0  0  0  0
    1.9700   -0.1960   -1.5520 C   0  0  0  0  0  0  0  0  0  0  0  0
    2.1440   -0.4970   -2.8890 C   0  0  0  0  0  0  0  0  0  0  0  0
    3.4100   -0.6350   -3.3920 C   0  0  0  0  0  0  0  0  0  0  0  0
    3.6690   -1.0140   -5.0770 Cl  0  0  0  0  0  0  0  0  0  0  0  0
    4.4890   -0.4640   -2.5230 C   0  0  0  0  0  0  0  0  0  0  0  0
    5.9820   -0.6330   -3.1460 S   0  0  0  0  0  0  0  0  0  0  0  0
    4.2950   -0.1720   -1.2250 N   0  0  0  0  0  0  0  0  0  0  0  0
    5.4340   -0.0070   -0.3770 C   0  0  0  0  0  0  0  0  0  0  0  0
    5.7810   -1.0760    0.4320 C   0  0  0  0  0  0  0  0  0  0  0  0
    6.8610   -0.9740    1.2630 C   0  0  0  0  0  0  0  0  0  0  0  0
    7.6210    0.1760    1.3160 C   0  0  0  0  0  0  0  0  0  0  0  0
    8.6960    0.3200    2.1210 F   0  0  0  0  0  0  0  0  0  0  0  0
    7.2600    1.2150    0.5090 C   0  0  0  0  0  0  0  0  0  0  0  0
    6.1770    1.1510   -0.3420 C   0  0  0  0  0  0  0  0  0  0  0  0
    0.7600   -0.0500   -1.0080 N   0  0  0  0  0  0  0  0  0  0  0  0
  1  2  1  0
  2  3  1  0
  3  4  2  0
  3 12  1  0
  4  5  1  0
  5  6  1  0
  5 10  2  0
  6  7  1  0
  7  8  1  0
  8  9  1  0
 10 11  1  0
 11 12  2  0
 12 13  1  0
 13 14  1  0
 14 15  2  0
 14 32  1  0
 15 16  1  0
 16 17  2  0
 17 18  1  0
 17 24  1  0
 18 19  1  0
 18 32  2  0
 19 20  2  0
 20 21  1  0
 20 22  1  0
 22 23  2  0
 22 24  1  0
 24 25  1  0
 25 26  2  0
 25 31  1  0
 26 27  1  0
 27 28  2  0
 28 29  1  0
 28 30  1  0
 30 31  2  0
M  END
