
     RDKit          3D

 32 35  0  0  0  0  0  0  0  0999 V2000
   -4.6660    0.8260    0.6320 C   0  0  0  0  0  0  0  0  0  0  0  0
   -4.5600    0.4220   -0.9640 S   0  0  0  0  0  0  0  0  0  0  0  0
   -5.1540   -0.7390   -1.0040 O   0  0  0  0  0  0  0  0  0  0  0  0
   -5.3580    1.2340   -2.1700 C   0  0  0  0  0  0  0  0  0  0  0  0
   -4.7130    0.9950   -3.5210 C   0  0  0  0  0  0  0  0  0  0  0  0
   -3.2370    0.8790   -3.4990 C   0  0  0  0  0  0  0  0  0  0  0  0
   -2.8100   -0.4740   -2.8940 C   0  0  0  0  0  0  0  0  0  0  0  0
   -3.0940   -0.4630   -1.4840 N   0  0  0  0  0  0  0  0  0  0  0  0
   -2.3420   -1.0690   -0.4980 C   0  0  0  0  0  0  0  0  0  0  0  0
   -2.8910   -2.0630    0.2910 C   0  0  0  0  0  0  0  0  0  0  0  0
   -2.1180   -2.6450    1.2570 C   0  0  0  0  0  0  0  0  0  0  0  0
   -2.6560   -3.6200    2.0300 F   0  0  0  0  0  0  0  0  0  0  0  0
   -0.7790   -2.2770    1.4900 C   0  0  0  0  0  0  0  0  0  0  0  0
   -0.0440   -2.9220    2.5040 N   0  0  0  0  0  0  0  0  0  0  0  0
    1.2980   -2.6090    2.7970 C   0  0  0  0  0  0  0  0  0  0  0  0
    2.1670   -1.7370    2.2840 N   0  0  0  0  0  0  0  0  0  0  0  0
    3.3560   -1.7990    2.8980 C   0  0  0  0  0  0  0  0  0  0  0  0
    4.5530   -0.9980    2.6130 C   0  0  0  0  0  0  0  0  0  0  0  0
    5.6150   -1.1540    3.2670 O   0  0  0  0  0  0  0  0  0  0  0  0
    4.5670   -0.0400    1.6160 O   0  0  0  0  0  0  0  0  0  0  0  0
    5.7530    0.7200    1.3680 C   0  0  0  0  0  0  0  0  0  0  0  0
    5.5270    1.6760    0.2630 C   0  0  0  0  0  0  0  0  0  0  0  0
    5.8010    1.2840   -1.0250 C   0  0  0  0  0  0  0  0  0  0  0  0
    5.6140    2.1240   -2.1100 C   0  0  0  0  0  0  0  0  0  0  0  0
    5.1350    3.3930   -1.8710 C   0  0  0  0  0  0  0  0  0  0  0  0
    4.8670    3.7630   -0.5670 C   0  0  0  0  0  0  0  0  0  0  0  0
    5.0590    2.9250    0.4660 N   0  0  0  0  0  0  0  0  0  0  0  0
    3.2290   -2.7520    3.8380 N   0  0  0  0  0  0  0  0  0  0  0  0
    2.0060   -3.2400    3.7840 N   0  0  0  0  0  0  0  0  0  0  0  0
   -0.2970   -1.2870    0.6750 C   0  0  0  0  0  0  0  0  0  0  0  0
   -1.0470   -0.6680   -0.3200 C   0  0  0  0  0  0  0  0  0  0  0  0
   -0.2940    0.6020   -1.2990 Cl  0  0  0  0  0  0  0  0  0  0  0  0
  1  2  1  0
  2  3  2  0
  2  4  1  0
  2  8  1  0
  4  5  1  0
  5  6  1  0
  6  7  1  0
  7  8  1  0
  8  9  1  0
  9 10  2  0
  9 31  1  0
 10 11  1  0
 11 12  1  0
 11 13  2  0
 13 14  1  0
 13 30  1  0
 14 15  1  0
 15 16  2  0
 15 29  1  0
 16 17  1  0
 17 18  1  0
 17 28  2  0
 18 19  2  0
 18 20  1  0
 20 21  1  0
 21 22  1  0
 22 23  2  0
 22 27  1  0
 23 24  1  0
 24 25  2  0
 25 26  1  0
 26 27  2  0
 28 29  1  0
 30 31  2  0
 31 32  1  0
M  END
