
     RDKit          3D

 32 35  0  0  0  0  0  0  0  0999 V2000
    7.4230   -0.8290    0.0520 C   0  0  0  0  0  0  0  0  0  0  0  0
    6.0150   -1.3070   -0.0010 C   0  0  0  0  0  0  0  0  0  0  0  0
    5.1340   -0.8830    1.2050 C   0  0  0  0  0  0  0  0  0  0  0  0
    5.1220    0.4090    1.3480 O   0  0  0  0  0  0  0  0  0  0  0  0
    4.2470    1.3260    1.6980 C   0  0  0  0  0  0  0  0  0  0  0  0
    3.1820    1.4430    0.6260 C   0  0  0  0  0  0  0  0  0  0  0  0
    2.2410    0.5140    0.3640 C   0  0  0  0  0  0  0  0  0  0  0  0
    1.2410    0.7480   -0.6150 C   0  0  0  0  0  0  0  0  0  0  0  0
    0.3080   -0.2590   -0.9750 N   0  0  0  0  0  0  0  0  0  0  0  0
    0.8710   -1.4440   -1.4030 N   0  0  0  0  0  0  0  0  0  0  0  0
   -0.0800   -2.2780   -1.7880 C   0  0  0  0  0  0  0  0  0  0  0  0
   -1.2420   -1.6260   -1.6000 C   0  0  0  0  0  0  0  0  0  0  0  0
   -2.8580   -2.1960   -1.9360 Cl  0  0  0  0  0  0  0  0  0  0  0  0
   -1.0000   -0.3110   -1.0690 C   0  0  0  0  0  0  0  0  0  0  0  0
   -2.1010    0.5590   -0.8340 N   0  0  0  0  0  0  0  0  0  0  0  0
   -2.9670    0.1070    0.0490 C   0  0  0  0  0  0  0  0  0  0  0  0
   -2.7540   -1.1370    0.7010 N   0  0  0  0  0  0  0  0  0  0  0  0
   -3.8150   -2.2140    1.5470 S   0  0  1  0  0  0  0  0  0  0  0  0
   -3.5620   -3.5980    1.0430 O   0  0  0  0  0  0  0  0  0  0  0  0
   -3.3760   -2.2350    3.0100 O   0  0  0  0  0  0  0  0  0  0  0  0
   -5.4470   -1.7780    1.5320 N   0  0  0  0  0  0  0  0  0  0  0  0
   -5.9160   -1.1020    0.3930 C   0  0  0  0  0  0  0  0  0  0  0  0
   -5.4990    0.3180    0.3110 C   0  0  0  0  0  0  0  0  0  0  0  0
   -6.5630    1.1970    0.3600 C   0  0  0  0  0  0  0  0  0  0  0  0
   -6.2730    2.5510    0.2680 C   0  0  0  0  0  0  0  0  0  0  0  0
   -5.0120    3.0210    0.1420 N   0  0  0  0  0  0  0  0  0  0  0  0
   -3.9540    2.1800    0.0920 C   0  0  0  0  0  0  0  0  0  0  0  0
   -4.2310    0.8580    0.1770 C   0  0  0  0  0  0  0  0  0  0  0  0
    1.2680    1.9380   -1.2800 C   0  0  0  0  0  0  0  0  0  0  0  0
    2.2390    2.9030   -1.0090 C   0  0  0  0  0  0  0  0  0  0  0  0
    3.1950    2.6430   -0.0490 C   0  0  0  0  0  0  0  0  0  0  0  0
    4.1800    3.5720    0.2200 F   0  0  0  0  0  0  0  0  0  0  0  0
  1  2  1  0
  2  3  1  0
  3  4  1  0
  4  5  1  0
  5  6  1  0
  6  7  2  0
  6 31  1  0
  7  8  1  0
  8  9  1  0
  8 29  2  0
  9 10  1  0
  9 14  1  0
 10 11  2  0
 11 12  1  0
 12 13  1  0
 12 14  2  0
 14 15  1  0
 15 16  2  3
 16 17  1  0
 16 28  1  0
 18 17  1  6
 18 19  2  0
 18 20  2  0
 18 21  1  0
 21 22  1  0
 22 23  1  0
 23 24  2  0
 23 28  1  0
 24 25  1  0
 25 26  2  0
 26 27  1  0
 27 28  2  0
 29 30  1  0
 30 31  2  0
 31 32  1  0
M  END
