
     RDKit          3D

 32 35  0  0  0  0  0  0  0  0999 V2000
   -1.2660   -5.8340    0.3490 C   0  0  0  0  0  0  0  0  0  0  0  0
   -1.5030   -4.4730    0.1950 O   0  0  0  0  0  0  0  0  0  0  0  0
   -0.2910   -3.7960    0.1970 C   0  0  0  0  0  0  0  0  0  0  0  0
   -0.4680   -2.3480    0.0370 C   0  0  0  0  0  0  0  0  0  0  0  0
    0.6040   -1.5480    0.0180 N   0  0  0  0  0  0  0  0  0  0  0  0
    0.5710   -0.2230   -0.1200 C   0  0  0  0  0  0  0  0  0  0  0  0
    1.7030    0.6240   -0.1550 N   0  0  0  0  0  0  0  0  0  0  0  0
    3.0410    0.2420   -0.0260 C   0  0  0  0  0  0  0  0  0  0  0  0
    3.4550   -1.0110    0.3520 C   0  0  0  0  0  0  0  0  0  0  0  0
    4.8150   -1.3430    0.4520 C   0  0  0  0  0  0  0  0  0  0  0  0
    5.1270   -2.5930    0.8280 F   0  0  0  0  0  0  0  0  0  0  0  0
    5.7330   -0.3780    0.1610 C   0  0  0  0  0  0  0  0  0  0  0  0
    5.3560    0.9010   -0.2240 C   0  0  0  0  0  0  0  0  0  0  0  0
    6.3460    1.8610   -0.5130 O   0  0  0  0  0  0  0  0  0  0  0  0
    7.6880    1.5040   -0.4060 C   0  0  0  0  0  0  0  0  0  0  0  0
    4.0240    1.2050   -0.3160 C   0  0  0  0  0  0  0  0  0  0  0  0
   -0.7340    0.3370   -0.2550 C   0  0  0  0  0  0  0  0  0  0  0  0
   -1.8510   -0.4480   -0.2390 C   0  0  0  0  0  0  0  0  0  0  0  0
   -1.6790   -1.7940   -0.0900 N   0  0  0  0  0  0  0  0  0  0  0  0
   -3.1960    0.1050   -0.3480 C   0  0  0  0  0  0  0  0  0  0  0  0
   -4.2760   -0.6780   -0.3670 N   0  0  0  0  0  0  0  0  0  0  0  0
   -5.4800   -0.1190   -0.5040 N   0  0  0  0  0  0  0  0  0  0  0  0
   -5.6620    1.1910   -0.6240 C   0  0  0  0  0  0  0  0  0  0  0  0
   -6.8460    1.6840   -0.7540 N   0  0  0  0  0  0  0  0  0  0  0  0
   -7.1050    3.3970   -0.9120 S   0  0  0  0  0  0  0  0  0  0  0  0
   -7.0360    4.1150    0.4310 O   0  0  0  0  0  0  0  0  0  0  0  0
   -4.5740    2.0650   -0.6110 C   0  0  0  0  0  0  0  0  0  0  0  0
   -3.3260    1.4790   -0.4680 C   0  0  0  0  0  0  0  0  0  0  0  0
   -2.1570    2.3290   -0.4130 C   0  0  0  0  0  0  0  0  0  0  0  0
   -2.2610    3.6640   -0.3330 C   0  0  0  0  0  0  0  0  0  0  0  0
   -0.7880    4.6130   -0.2720 Cl  0  0  0  0  0  0  0  0  0  0  0  0
   -0.8080    1.7770   -0.4340 C   0  0  0  0  0  0  0  0  0  0  0  0
  1  2  1  0
  2  3  1  0
  3  4  1  0
  4  5  2  0
  4 19  1  0
  5  6  1  0
  6  7  1  0
  6 17  2  0
  7  8  1  0
  8  9  2  0
  8 16  1  0
  9 10  1  0
 10 11  1  0
 10 12  2  0
 12 13  1  0
 13 14  1  0
 13 16  2  0
 14 15  1  0
 17 18  1  0
 17 32  1  0
 18 19  2  0
 18 20  1  0
 20 21  2  0
 20 28  1  0
 21 22  1  0
 22 23  1  0
 23 24  2  3
 23 27  1  0
 24 25  1  0
 25 26  2  0
 27 28  2  0
 28 29  1  0
 29 30  2  3
 29 32  1  0
 30 31  1  0
M  END
