
     RDKit          3D

 33 35  0  0  0  0  0  0  0  0999 V2000
    8.4300   -1.6280    0.2840 C   0  0  0  0  0  0  0  0  0  0  0  0
    8.2320   -0.4380   -0.6140 C   0  0  0  0  0  0  0  0  0  0  0  0
    6.8730   -0.1520   -0.7420 O   0  0  0  0  0  0  0  0  0  0  0  0
    6.0520    0.1890    0.2850 C   0  0  0  0  0  0  0  0  0  0  0  0
    6.4750    0.3080    1.5880 C   0  0  0  0  0  0  0  0  0  0  0  0
    5.6180    0.6550    2.6110 C   0  0  0  0  0  0  0  0  0  0  0  0
    4.2940    0.8960    2.3550 C   0  0  0  0  0  0  0  0  0  0  0  0
    3.8500    0.7820    1.0450 C   0  0  0  0  0  0  0  0  0  0  0  0
    4.6970    0.4340    0.0060 C   0  0  0  0  0  0  0  0  0  0  0  0
    4.3780    0.2850   -1.3380 O   0  0  0  0  0  0  0  0  0  0  0  0
    3.2130   -0.3020   -1.8810 C   0  0  0  0  0  0  0  0  0  0  0  0
    2.2810   -0.6400   -0.7420 C   0  0  0  0  0  0  0  0  0  0  0  0
    1.7030    0.5410   -0.1570 N   0  0  0  0  0  0  0  0  0  0  0  0
    0.2670    0.3890    0.0350 C   0  0  2  0  0  0  0  0  0  0  0  0
   -0.0470   -0.6970    1.0200 C   0  0  0  0  0  0  0  0  0  0  0  0
   -0.2640   -0.0610   -1.3120 C   0  0  0  0  0  0  0  0  0  0  0  0
   -0.2510    1.7400    0.4310 C   0  0  1  0  0  0  0  0  0  0  0  0
    0.0500    2.6510   -0.6010 O   0  0  0  0  0  0  0  0  0  0  0  0
   -1.6100    1.8520    0.9460 C   0  0  0  0  0  0  0  0  0  0  0  0
   -2.7720    1.4640    0.1700 C   0  0  0  0  0  0  0  0  0  0  0  0
   -3.4130    2.2640   -0.7450 C   0  0  0  0  0  0  0  0  0  0  0  0
   -4.5210    1.8390   -1.4190 C   0  0  0  0  0  0  0  0  0  0  0  0
   -5.0700    0.5600   -1.2170 C   0  0  0  0  0  0  0  0  0  0  0  0
   -6.2330    0.1800   -1.9120 N   0  0  0  0  0  0  0  0  0  0  0  0
   -6.7950    1.0940   -2.8860 C   0  0  0  0  0  0  0  0  0  0  0  0
   -4.4490   -0.2540   -0.3130 C   0  0  0  0  0  0  0  0  0  0  0  0
   -4.9390   -1.6260   -0.0650 C   0  0  2  0  0  0  0  0  0  0  0  0
   -6.3310   -1.6380    0.5250 C   0  0  0  0  0  0  0  0  0  0  0  0
   -4.0310   -2.3060    0.9740 C   0  0  0  0  0  0  0  0  0  0  0  0
   -4.9190   -2.5010   -1.2560 C   0  0  0  0  0  0  0  0  0  0  0  0
   -5.8420   -3.1540   -1.6950 O   0  0  0  0  0  0  0  0  0  0  0  0
   -3.3060    0.2140    0.3700 C   0  0  0  0  0  0  0  0  0  0  0  0
    2.3980    1.0930    0.9230 C   0  0  0  0  0  0  0  0  0  0  0  0
  1  2  1  0
  2  3  1  0
  3  4  1  0
  4  5  2  0
  4  9  1  0
  5  6  1  0
  6  7  2  0
  7  8  1  0
  8  9  2  0
  8 33  1  0
  9 10  1  0
 10 11  1  0
 11 12  1  0
 12 13  1  0
 13 14  1  0
 13 33  1  0
 14 15  1  1
 14 16  1  0
 14 17  1  0
 17 18  1  6
 17 19  1  0
 19 20  1  0
 20 21  2  0
 20 32  1  0
 21 22  1  0
 22 23  2  0
 23 24  1  0
 23 26  1  0
 24 25  1  0
 26 27  1  0
 26 32  2  0
 27 28  1  1
 27 29  1  0
 27 30  1  0
 30 31  2  0
M  END
