
     RDKit          3D

 33 35  0  0  0  0  0  0  0  0999 V2000
    3.0000    4.6400    0.8540 C   0  0  0  0  0  0  0  0  0  0  0  0
    3.3120    3.8930   -0.4120 C   0  0  0  0  0  0  0  0  0  0  0  0
    3.6230    2.5260   -0.1200 N   0  0  0  0  0  0  0  0  0  0  0  0
    3.9450    1.6640   -1.2030 C   0  0  0  0  0  0  0  0  0  0  0  0
    3.9550    2.0910   -2.3750 O   0  0  0  0  0  0  0  0  0  0  0  0
    4.2660    0.2490   -0.8910 C   0  0  1  0  0  0  0  0  0  0  0  0
    5.4690    0.2640    0.0250 C   0  0  0  0  0  0  0  0  0  0  0  0
    3.0490   -0.3100   -0.1550 C   0  0  0  0  0  0  0  0  0  0  0  0
    1.8670   -0.2350   -0.9680 N   0  0  0  0  0  0  0  0  0  0  0  0
    0.6330   -0.7440   -0.3660 C   0  0  0  0  0  0  0  0  0  0  0  0
   -0.3730    0.0940   -0.4410 C   0  0  0  0  0  0  0  0  0  0  0  0
   -1.7140   -0.0810    0.0430 C   0  0  0  0  0  0  0  0  0  0  0  0
   -2.0830   -1.1350    0.6300 O   0  0  0  0  0  0  0  0  0  0  0  0
   -2.7320    0.9390   -0.1120 C   0  0  0  0  0  0  0  0  0  0  0  0
   -4.0310    0.7320    0.3740 C   0  0  0  0  0  0  0  0  0  0  0  0
   -5.0180    1.6770    0.2440 C   0  0  0  0  0  0  0  0  0  0  0  0
   -4.7700    2.8730   -0.3710 C   0  0  0  0  0  0  0  0  0  0  0  0
   -3.5270    3.1220   -0.8580 C   0  0  0  0  0  0  0  0  0  0  0  0
   -3.2240    4.3940   -1.5240 C   0  0  0  0  0  0  0  0  0  0  0  0
   -4.2880    5.4140   -1.6640 C   0  0  0  0  0  0  0  0  0  0  0  0
   -2.0860    4.6270   -1.9720 O   0  0  0  0  0  0  0  0  0  0  0  0
   -2.5390    2.1550   -0.7190 C   0  0  0  0  0  0  0  0  0  0  0  0
    0.7610   -1.9680    0.1490 O   0  0  0  0  0  0  0  0  0  0  0  0
    0.0740   -2.9080    0.7830 C   0  0  0  0  0  0  0  0  0  0  0  0
    0.0580   -2.8920    2.1800 C   0  0  0  0  0  0  0  0  0  0  0  0
    0.7920   -1.8420    2.9460 C   0  0  0  0  0  0  0  0  0  0  0  0
   -0.6520   -3.8690    2.8260 C   0  0  0  0  0  0  0  0  0  0  0  0
   -1.3390   -4.8500    2.1320 C   0  0  0  0  0  0  0  0  0  0  0  0
   -1.3010   -4.8350    0.7480 C   0  0  0  0  0  0  0  0  0  0  0  0
   -0.6060   -3.8820    0.0490 C   0  0  0  0  0  0  0  0  0  0  0  0
   -0.7560   -4.1320   -1.4170 C   0  0  0  0  0  0  0  0  0  0  0  0
   -1.2250   -5.5610   -1.4920 C   0  0  0  0  0  0  0  0  0  0  0  0
   -1.9610   -5.7870   -0.1940 C   0  0  0  0  0  0  0  0  0  0  0  0
  1  2  1  0
  2  3  1  0
  3  4  1  0
  4  5  2  0
  4  6  1  0
  6  7  1  1
  6  8  1  0
  8  9  1  0
  9 10  1  0
 10 11  2  3
 10 23  1  0
 11 12  1  0
 12 13  2  0
 12 14  1  0
 14 15  2  0
 14 22  1  0
 15 16  1  0
 16 17  2  0
 17 18  1  0
 18 19  1  0
 18 22  2  0
 19 20  1  0
 19 21  2  0
 23 24  1  0
 24 25  2  0
 24 30  1  0
 25 26  1  0
 25 27  1  0
 27 28  2  0
 28 29  1  0
 29 30  2  0
 29 33  1  0
 30 31  1  0
 31 32  1  0
 32 33  1  0
M  END
