
     RDKit          3D

 33 35  0  0  0  0  0  0  0  0999 V2000
    3.9060    3.7630   -0.7910 C   0  0  0  0  0  0  0  0  0  0  0  0
    4.7480    2.7340   -1.4290 C   0  0  1  0  0  0  0  0  0  0  0  0
    6.1840    2.9340   -0.8520 C   0  0  0  0  0  0  0  0  0  0  0  0
    4.3900    1.3540   -1.3960 C   0  0  0  0  0  0  0  0  0  0  0  0
    3.4510    0.6820   -0.8490 C   0  0  0  0  0  0  0  0  0  0  0  0
    3.3820   -0.7770   -1.0230 N   0  0  0  0  0  0  0  0  0  0  0  0
    2.7740   -1.5280    0.0390 C   0  0  2  0  0  0  0  0  0  0  0  0
    3.1710   -2.9800    0.0200 C   0  0  1  0  0  0  0  0  0  0  0  0
    2.5390   -3.7080    1.1470 C   0  0  0  0  0  0  0  0  0  0  0  0
    2.9260   -3.6260   -1.3270 C   0  0  0  0  0  0  0  0  0  0  0  0
    1.3170   -1.2780    0.0600 C   0  0  0  0  0  0  0  0  0  0  0  0
    0.3060   -2.2590    0.0190 N   0  0  0  0  0  0  0  0  0  0  0  0
   -1.0180   -1.9500    0.4430 C   0  0  2  0  0  0  0  0  0  0  0  0
   -1.6310   -0.8330   -0.3490 C   0  0  0  0  0  0  0  0  0  0  0  0
   -1.6050   -0.9130   -1.6000 O   0  0  0  0  0  0  0  0  0  0  0  0
   -2.2340    0.3000    0.2420 N   0  0  0  0  0  0  0  0  0  0  0  0
   -3.1920    1.1470   -0.4600 C   0  0  0  0  0  0  0  0  0  0  0  0
   -4.5610    0.5690   -0.1860 C   0  0  0  0  0  0  0  0  0  0  0  0
   -5.6630    1.3530   -0.8570 C   0  0  2  0  0  0  0  0  0  0  0  0
   -5.5370    1.4070   -2.3440 C   0  0  0  0  0  0  0  0  0  0  0  0
   -5.7410    2.7390   -0.2410 C   0  0  0  0  0  0  0  0  0  0  0  0
   -6.8660    0.7130   -0.5310 O   0  0  0  0  0  0  0  0  0  0  0  0
   -1.8900    0.6340    1.5930 C   0  0  0  0  0  0  0  0  0  0  0  0
   -1.5460   -0.5120    2.4370 C   0  0  0  0  0  0  0  0  0  0  0  0
   -1.6230   -0.4180    3.8210 C   0  0  0  0  0  0  0  0  0  0  0  0
   -1.3170   -1.4540    4.6510 C   0  0  0  0  0  0  0  0  0  0  0  0
   -0.9150   -2.6430    4.0850 C   0  0  0  0  0  0  0  0  0  0  0  0
   -0.8300   -2.7620    2.7340 C   0  0  0  0  0  0  0  0  0  0  0  0
   -1.1400   -1.7140    1.9000 C   0  0  0  0  0  0  0  0  0  0  0  0
    0.9570   -0.0490    0.1010 N   0  0  0  0  0  0  0  0  0  0  0  0
    2.1350    1.2790    0.1290 S   0  0  2  0  0  0  0  0  0  0  0  0
    1.3710    2.4020   -0.5150 O   0  0  0  0  0  0  0  0  0  0  0  0
    2.5150    1.5490    1.5430 O   0  0  0  0  0  0  0  0  0  0  0  0
  2  1  1  1
  2  3  1  0
  2  4  1  0
  4  5  2  3
  5  6  1  0
  5 31  1  0
  7  6  1  6
  7  8  1  0
  7 11  1  0
  8  9  1  1
  8 10  1  0
 11 12  1  0
 11 30  2  0
 13 12  1  6
 13 14  1  0
 13 29  1  0
 14 15  2  0
 14 16  1  0
 16 17  1  0
 16 23  1  0
 17 18  1  0
 18 19  1  0
 19 20  1  6
 19 21  1  0
 19 22  1  0
 23 24  1  0
 24 25  2  0
 24 29  1  0
 25 26  1  0
 26 27  2  0
 27 28  1  0
 28 29  2  0
 31 30  1  1
 31 32  2  0
 31 33  2  0
M  END
