
     RDKit          3D

 33 35  0  0  0  0  0  0  0  0999 V2000
    4.6340   -0.7610    2.1530 C   0  0  0  0  0  0  0  0  0  0  0  0
    5.1430    0.2920    1.1720 C   0  0  0  0  0  0  0  0  0  0  0  0
    3.9850    0.9150    0.4140 C   0  0  2  0  0  0  0  0  0  0  0  0
    4.6270    1.9490   -0.5280 C   0  0  0  0  0  0  0  0  0  0  0  0
    3.0580    1.6390    1.3270 C   0  0  0  0  0  0  0  0  0  0  0  0
    3.3240   -0.1330   -0.4220 C   0  0  0  0  0  0  0  0  0  0  0  0
    3.8420   -1.2710   -0.3430 O   0  0  0  0  0  0  0  0  0  0  0  0
    2.1940    0.1300   -1.2500 C   0  0  0  0  0  0  0  0  0  0  0  0
    1.7180    1.3360   -1.1660 O   0  0  0  0  0  0  0  0  0  0  0  0
    1.4960   -0.6980   -2.1540 N   0  0  0  0  0  0  0  0  0  0  0  0
    1.9430   -2.0360   -2.4350 C   0  0  0  0  0  0  0  0  0  0  0  0
    2.0710   -2.2780   -3.9430 C   0  0  0  0  0  0  0  0  0  0  0  0
    0.8100   -1.8320   -4.6570 C   0  0  0  0  0  0  0  0  0  0  0  0
   -0.2320   -1.3630   -3.6930 C   0  0  0  0  0  0  0  0  0  0  0  0
    0.2860   -0.2340   -2.8290 C   0  0  1  0  0  0  0  0  0  0  0  0
   -0.7900    0.1730   -1.8650 C   0  0  0  0  0  0  0  0  0  0  0  0
   -1.5040    1.1550   -2.2010 O   0  0  0  0  0  0  0  0  0  0  0  0
   -1.0550   -0.4300   -0.6850 O   0  0  0  0  0  0  0  0  0  0  0  0
   -2.0440   -0.1160    0.2630 C   0  0  2  0  0  0  0  0  0  0  0  0
   -1.5540    0.1450    1.6010 C   0  0  0  0  0  0  0  0  0  0  0  0
   -0.6260    1.3000    1.8240 C   0  0  0  0  0  0  0  0  0  0  0  0
   -1.2230    2.6320    1.5220 C   0  0  0  0  0  0  0  0  0  0  0  0
   -2.0130    3.2790    2.4840 C   0  0  0  0  0  0  0  0  0  0  0  0
   -2.5440    4.5210    2.2270 C   0  0  0  0  0  0  0  0  0  0  0  0
   -2.3270    5.1730    1.0320 C   0  0  0  0  0  0  0  0  0  0  0  0
   -1.5540    4.5560    0.0730 C   0  0  0  0  0  0  0  0  0  0  0  0
   -1.0110    3.2780    0.3430 C   0  0  0  0  0  0  0  0  0  0  0  0
   -3.0440   -1.2740    0.1550 C   0  0  1  0  0  0  0  0  0  0  0  0
   -2.3760   -2.5860    0.4640 C   0  0  0  0  0  0  0  0  0  0  0  0
   -2.7340   -3.1590    1.7930 C   0  0  0  0  0  0  0  0  0  0  0  0
   -4.2520   -3.3400    1.7740 C   0  0  0  0  0  0  0  0  0  0  0  0
   -4.8000   -1.9300    1.8710 C   0  0  0  0  0  0  0  0  0  0  0  0
   -4.3530   -1.0320    0.7780 C   0  0  0  0  0  0  0  0  0  0  0  0
  1  2  1  0
  2  3  1  0
  3  4  1  6
  3  5  1  0
  3  6  1  0
  6  7  2  0
  6  8  1  0
  8  9  2  0
  8 10  1  0
 10 11  1  0
 10 15  1  0
 11 12  1  0
 12 13  1  0
 13 14  1  0
 14 15  1  0
 15 16  1  1
 16 17  2  0
 16 18  1  0
 18 19  1  0
 19 20  1  1
 19 28  1  0
 20 21  1  0
 21 22  1  0
 22 23  2  0
 22 27  1  0
 23 24  1  0
 24 25  2  0
 25 26  1  0
 26 27  2  0
 28 29  1  1
 28 33  1  0
 29 30  1  0
 30 31  1  0
 31 32  1  0
 32 33  1  0
M  END
