
     RDKit          3D

 29 31  0  0  0  0  0  0  0  0999 V2000
   -5.7000   -0.7840    2.0500 C   0  0  0  0  0  0  0  0  0  0  0  0
   -5.1270   -1.8810    1.2860 C   0  0  0  0  0  0  0  0  0  0  0  0
   -3.8530   -1.8940    0.8000 C   0  0  0  0  0  0  0  0  0  0  0  0
   -2.9630   -0.8110    1.0050 C   0  0  0  0  0  0  0  0  0  0  0  0
   -3.5080    0.1720    1.6990 O   0  0  0  0  0  0  0  0  0  0  0  0
   -1.6120   -0.6080    0.6010 C   0  0  0  0  0  0  0  0  0  0  0  0
   -0.9090   -1.4590   -0.0790 C   0  0  0  0  0  0  0  0  0  0  0  0
   -1.4040   -2.7930   -0.5510 C   0  0  0  0  0  0  0  0  0  0  0  0
    0.4610   -1.1050   -0.4020 N   0  0  0  0  0  0  0  0  0  0  0  0
    1.0520    0.1080   -0.0160 C   0  0  0  0  0  0  0  0  0  0  0  0
    2.4200    0.4470   -0.3410 C   0  0  0  0  0  0  0  0  0  0  0  0
    2.8400    1.5820    0.0690 O   0  0  0  0  0  0  0  0  0  0  0  0
    3.3340   -0.3580   -1.0690 N   0  0  0  0  0  0  0  0  0  0  0  0
    3.1200   -1.5530   -1.6100 N   0  0  0  0  0  0  0  0  0  0  0  0
    4.2200   -2.0070   -2.2350 C   0  0  0  0  0  0  0  0  0  0  0  0
    4.2870   -3.3120   -2.9340 C   0  0  0  0  0  0  0  0  0  0  0  0
    5.1530   -1.0720   -2.0840 N   0  0  0  0  0  0  0  0  0  0  0  0
    4.6150   -0.0460   -1.3620 C   0  0  0  0  0  0  0  0  0  0  0  0
    5.4390    1.4410   -0.8400 S   0  0  0  0  0  0  0  0  0  0  0  0
    6.3170    1.2260    0.7230 C   0  0  0  0  0  0  0  0  0  0  0  0
    5.3870    0.9730    1.8700 C   0  0  0  0  0  0  0  0  0  0  0  0
    0.3370    0.9200    0.6420 N   0  0  0  0  0  0  0  0  0  0  0  0
   -0.9990    0.7360    1.0290 C   0  0  1  0  0  0  0  0  0  0  0  0
   -1.8750    1.8400    0.5060 C   0  0  0  0  0  0  0  0  0  0  0  0
   -1.8580    2.2730   -0.7740 N   0  0  0  0  0  0  0  0  0  0  0  0
   -2.7450    3.2630   -0.9320 C   0  0  0  0  0  0  0  0  0  0  0  0
   -3.3260    3.4390    0.3030 C   0  0  0  0  0  0  0  0  0  0  0  0
   -4.3850    4.4370    0.6360 C   0  0  0  0  0  0  0  0  0  0  0  0
   -2.7700    2.5710    1.1080 O   0  0  0  0  0  0  0  0  0  0  0  0
  1  2  1  0
  2  3  2  3
  3  4  1  0
  4  5  2  0
  4  6  1  0
  6  7  2  0
  6 23  1  0
  7  8  1  0
  7  9  1  0
  9 10  1  0
 10 11  1  0
 10 22  2  0
 11 12  2  0
 11 13  1  0
 13 14  1  0
 13 18  1  0
 14 15  2  0
 15 16  1  0
 15 17  1  0
 17 18  2  0
 18 19  1  0
 19 20  1  0
 20 21  1  0
 22 23  1  0
 23 24  1  6
 24 25  2  0
 24 29  1  0
 25 26  1  0
 26 27  2  0
 27 28  1  0
 27 29  1  0
M  END
