
     RDKit          3D

 31 34  0  0  0  0  0  0  0  0999 V2000
   10.0180    0.4290   -0.2110 C   0  0  0  0  0  0  0  0  0  0  0  0
    8.5590    0.4870   -0.0660 C   0  0  0  0  0  0  0  0  0  0  0  0
    7.7770    0.9960    0.9360 C   0  0  0  0  0  0  0  0  0  0  0  0
    6.4520    0.9190    0.8270 C   0  0  0  0  0  0  0  0  0  0  0  0
    5.8910    0.3380   -0.2740 C   0  0  0  0  0  0  0  0  0  0  0  0
    4.5320    0.0850   -0.7000 C   0  0  0  0  0  0  0  0  0  0  0  0
    3.5220    0.4620    0.0950 N   0  0  0  0  0  0  0  0  0  0  0  0
    2.2690    0.2040   -0.2990 C   0  0  0  0  0  0  0  0  0  0  0  0
    1.2190    0.5940    0.5360 C   0  0  0  0  0  0  0  0  0  0  0  0
   -0.0560    0.3310    0.1470 C   0  0  0  0  0  0  0  0  0  0  0  0
   -0.3280   -0.3040   -1.0360 C   0  0  0  0  0  0  0  0  0  0  0  0
    0.7480   -0.6920   -1.8720 C   0  0  0  0  0  0  0  0  0  0  0  0
    2.0410   -0.4340   -1.4930 C   0  0  0  0  0  0  0  0  0  0  0  0
    3.0660   -0.7910   -2.2540 O   0  0  0  0  0  0  0  0  0  0  0  0
    4.2990   -0.5500   -1.8900 C   0  0  0  0  0  0  0  0  0  0  0  0
    5.3010   -0.8830   -2.6040 O   0  0  0  0  0  0  0  0  0  0  0  0
   -1.6920   -0.6210   -1.4720 C   0  0  0  0  0  0  0  0  0  0  0  0
   -2.7290   -0.2300   -0.5320 N   0  0  0  0  0  0  0  0  0  0  0  0
   -3.8610   -1.1820   -0.6520 C   0  0  0  0  0  0  0  0  0  0  0  0
   -5.0120   -0.5780    0.0890 C   0  0  0  0  0  0  0  0  0  0  0  0
   -4.9200    0.6310    0.5630 C   0  0  0  0  0  0  0  0  0  0  0  0
   -5.8600    1.4510    1.3160 C   0  0  0  0  0  0  0  0  0  0  0  0
   -6.1480    2.6550    0.5200 N   0  0  0  0  0  0  0  0  0  0  0  0
   -6.1960   -1.3880    0.2560 C   0  0  0  0  0  0  0  0  0  0  0  0
   -7.3140   -0.9190    0.9430 O   0  0  0  0  0  0  0  0  0  0  0  0
   -6.2820   -2.6120   -0.2330 C   0  0  0  0  0  0  0  0  0  0  0  0
   -5.2460   -3.1400   -0.9110 F   0  0  0  0  0  0  0  0  0  0  0  0
   -7.7680   -3.5380    0.0250 Cl  0  0  0  0  0  0  0  0  0  0  0  0
   -2.1890   -0.4270    0.8380 C   0  0  0  0  0  0  0  0  0  0  0  0
   -1.2170    0.7130    1.0210 C   0  0  0  0  0  0  0  0  0  0  0  0
    7.3980   -0.1300   -1.2200 S   0  0  0  0  0  0  0  0  0  0  0  0
  1  2  1  0
  2  3  2  0
  2 31  1  0
  3  4  1  0
  4  5  2  0
  5  6  1  0
  5 31  1  0
  6  7  2  0
  6 15  1  0
  7  8  1  0
  8  9  2  0
  8 13  1  0
  9 10  1  0
 10 11  2  0
 10 30  1  0
 11 12  1  0
 11 17  1  0
 12 13  2  0
 13 14  1  0
 14 15  1  0
 15 16  2  0
 17 18  1  0
 18 19  1  0
 18 29  1  0
 19 20  1  0
 20 21  2  3
 20 24  1  0
 21 22  1  0
 22 23  1  0
 24 25  1  0
 24 26  2  3
 26 27  1  0
 26 28  1  0
 29 30  1  0
M  END
