
     RDKit          3D

 31 34  0  0  0  0  0  0  0  0999 V2000
    7.5520    0.2500    0.7910 C   0  0  0  0  0  0  0  0  0  0  0  0
    7.3300    1.7540    0.8570 C   0  0  0  0  0  0  0  0  0  0  0  0
    6.3270    2.0930   -0.2430 C   0  0  0  0  0  0  0  0  0  0  0  0
    5.0270    1.3490    0.0130 C   0  0  0  0  0  0  0  0  0  0  0  0
    4.1530    1.6690   -1.0170 O   0  0  0  0  0  0  0  0  0  0  0  0
    2.9560    1.0800   -0.8290 N   0  0  0  0  0  0  0  0  0  0  0  0
    2.8410   -0.3180   -0.8800 C   0  0  0  0  0  0  0  0  0  0  0  0
    3.8410   -1.0270   -1.1020 O   0  0  0  0  0  0  0  0  0  0  0  0
    1.5510   -0.9550   -0.6690 C   0  0  0  0  0  0  0  0  0  0  0  0
    1.4750   -2.3470   -0.6030 C   0  0  0  0  0  0  0  0  0  0  0  0
    0.2280   -2.9560   -0.4080 C   0  0  0  0  0  0  0  0  0  0  0  0
   -0.9020   -2.1910   -0.2850 C   0  0  0  0  0  0  0  0  0  0  0  0
   -2.1200   -2.7550   -0.1010 C   0  0  0  0  0  0  0  0  0  0  0  0
   -3.3350   -2.0070    0.0280 C   0  0  0  0  0  0  0  0  0  0  0  0
   -4.5660   -2.7160    0.2530 C   0  0  2  0  0  0  0  0  0  0  0  0
   -5.4530   -2.9810   -0.7750 F   0  0  0  0  0  0  0  0  0  0  0  0
   -5.1490   -2.9310    1.9210 Cl  0  0  0  0  0  0  0  0  0  0  0  0
   -3.1690   -0.6480   -0.0520 C   0  0  0  0  0  0  0  0  0  0  0  0
   -4.2770    0.2020    0.0480 C   0  0  0  0  0  0  0  0  0  0  0  0
   -5.5190   -0.3170    0.2200 C   0  0  0  0  0  0  0  0  0  0  0  0
   -6.6140    0.5620    0.3080 C   0  0  0  0  0  0  0  0  0  0  0  0
   -8.2420   -0.1530    0.5360 S   0  0  0  0  0  0  0  0  0  0  0  0
   -6.4410    1.9130    0.2250 C   0  0  0  0  0  0  0  0  0  0  0  0
   -5.1780    2.4140    0.0510 C   0  0  0  0  0  0  0  0  0  0  0  0
   -4.0860    1.5830   -0.0400 C   0  0  0  0  0  0  0  0  0  0  0  0
   -2.8630    2.0920   -0.2180 N   0  0  0  0  0  0  0  0  0  0  0  0
   -1.7950    1.3080   -0.3180 C   0  0  0  0  0  0  0  0  0  0  0  0
   -0.6340    1.7850   -0.4890 O   0  0  0  0  0  0  0  0  0  0  0  0
   -1.9020   -0.0620   -0.2410 C   0  0  0  0  0  0  0  0  0  0  0  0
   -0.7860   -0.8400   -0.3540 C   0  0  0  0  0  0  0  0  0  0  0  0
    0.4100   -0.2270   -0.5420 N   0  0  0  0  0  0  0  0  0  0  0  0
  1  2  1  0
  2  3  1  0
  3  4  1  0
  4  5  1  0
  5  6  1  0
  6  7  1  0
  7  8  2  0
  7  9  1  0
  9 10  2  0
  9 31  1  0
 10 11  1  0
 11 12  2  0
 12 13  1  0
 12 30  1  0
 13 14  2  0
 14 15  1  0
 14 18  1  0
 15 16  1  6
 15 17  1  0
 18 19  1  0
 18 29  2  0
 19 20  2  0
 19 25  1  0
 20 21  1  0
 21 22  1  0
 21 23  2  0
 23 24  1  0
 24 25  2  0
 25 26  1  0
 26 27  1  0
 27 28  2  0
 27 29  1  0
 29 30  1  0
 30 31  2  0
M  END
