
     RDKit          3D

 30 33  0  0  0  0  0  0  0  0999 V2000
    4.4160    2.7390    2.2550 C   0  0  0  0  0  0  0  0  0  0  0  0
    4.0570    3.7140    1.1720 C   0  0  0  0  0  0  0  0  0  0  0  0
    2.6250    3.5030    0.7270 C   0  0  0  0  0  0  0  0  0  0  0  0
    2.5260    2.1090    0.2120 C   0  0  0  0  0  0  0  0  0  0  0  0
    1.4740    1.4210   -0.2920 C   0  0  0  0  0  0  0  0  0  0  0  0
    1.6530    0.1530   -0.6940 C   0  0  0  0  0  0  0  0  0  0  0  0
    2.8930   -0.4030   -0.5820 C   0  0  0  0  0  0  0  0  0  0  0  0
    3.8540    0.9180    0.1220 S   0  0  0  0  0  0  0  0  0  0  0  0
    3.2360   -1.6880   -0.9470 C   0  0  0  0  0  0  0  0  0  0  0  0
    4.4090   -2.3260   -0.8800 N   0  0  0  0  0  0  0  0  0  0  0  0
    4.1870   -3.5650   -1.3690 C   0  0  0  0  0  0  0  0  0  0  0  0
    5.2020   -4.6120   -1.4850 C   0  0  0  0  0  0  0  0  0  0  0  0
    6.3950   -4.4120   -1.1190 O   0  0  0  0  0  0  0  0  0  0  0  0
    2.8740   -3.7000   -1.7410 C   0  0  0  0  0  0  0  0  0  0  0  0
    2.2560   -2.5130   -1.4790 C   0  0  0  0  0  0  0  0  0  0  0  0
    1.0210   -1.9390   -1.5840 C   0  0  0  0  0  0  0  0  0  0  0  0
    0.1140   -2.6960   -2.0740 O   0  0  0  0  0  0  0  0  0  0  0  0
    0.6920   -0.6930   -1.2280 N   0  0  0  0  0  0  0  0  0  0  0  0
   -0.6790   -0.2770   -1.4190 C   0  0  0  0  0  0  0  0  0  0  0  0
   -1.4200   -0.6080   -0.1460 C   0  0  0  0  0  0  0  0  0  0  0  0
   -2.8570   -0.1710   -0.3550 C   0  0  0  0  0  0  0  0  0  0  0  0
   -3.2290    0.3220   -1.4180 O   0  0  0  0  0  0  0  0  0  0  0  0
   -3.7410   -0.3570    0.7230 N   0  0  0  0  0  0  0  0  0  0  0  0
   -5.1130   -0.0170    0.7080 C   0  0  0  0  0  0  0  0  0  0  0  0
   -5.7590    0.0560    1.9520 C   0  0  0  0  0  0  0  0  0  0  0  0
   -7.0840    0.3630    1.9900 C   0  0  0  0  0  0  0  0  0  0  0  0
   -7.8330    0.6090    0.8500 C   0  0  0  0  0  0  0  0  0  0  0  0
   -9.5470    1.0020    0.9590 Cl  0  0  0  0  0  0  0  0  0  0  0  0
   -7.2040    0.5370   -0.3580 C   0  0  0  0  0  0  0  0  0  0  0  0
   -5.8430    0.2240   -0.4330 C   0  0  0  0  0  0  0  0  0  0  0  0
  1  2  1  0
  2  3  1  0
  3  4  1  0
  4  5  2  0
  4  8  1  0
  5  6  1  0
  6  7  2  0
  6 18  1  0
  7  8  1  0
  7  9  1  0
  9 10  1  0
  9 15  2  0
 10 11  1  0
 11 12  1  0
 11 14  2  0
 12 13  2  0
 14 15  1  0
 15 16  1  0
 16 17  2  0
 16 18  1  0
 18 19  1  0
 19 20  1  0
 20 21  1  0
 21 22  2  0
 21 23  1  0
 23 24  1  0
 24 25  2  0
 24 30  1  0
 25 26  1  0
 26 27  2  0
 27 28  1  0
 27 29  1  0
 29 30  2  0
M  END
