
     RDKit          3D

 17 19  0  0  0  0  0  0  0  0999 V2000
    4.9040   -0.4080   -0.7670 O   0  0  0  0  0  0  0  0  0  0  0  0
    3.7030   -1.0970   -0.6940 C   0  0  0  0  0  0  0  0  0  0  0  0
    2.6630   -0.2300   -0.0450 C   0  0  2  0  0  0  0  0  0  0  0  0
    3.0160    0.0410    1.3760 C   0  0  0  0  0  0  0  0  0  0  0  0
    1.7860   -0.1100    2.0680 O   0  0  0  0  0  0  0  0  0  0  0  0
    0.8140   -0.2820    1.1150 C   0  0  1  0  0  0  0  0  0  0  0  0
    0.1900    1.0160    0.7120 C   0  0  0  0  0  0  0  0  0  0  0  0
    0.9070    2.1690    0.8110 N   0  0  0  0  0  0  0  0  0  0  0  0
    0.0170    3.1430    0.3310 N   0  0  0  0  0  0  0  0  0  0  0  0
   -1.0750    2.5690    0.0120 N   0  0  0  0  0  0  0  0  0  0  0  0
   -1.0230    1.1660    0.2410 C   0  0  0  0  0  0  0  0  0  0  0  0
   -2.1780    0.3800    0.0520 C   0  0  1  0  0  0  0  0  0  0  0  0
   -2.5060    0.1570   -1.4420 C   0  0  0  0  0  0  0  0  0  0  0  0
   -3.8090   -0.5890   -1.2630 C   0  0  0  0  0  0  0  0  0  0  0  0
   -3.8000   -1.2430   -0.0080 N   0  0  0  0  0  0  0  0  0  0  0  0
   -2.6250   -0.7680    0.7610 C   0  0  0  0  0  0  0  0  0  0  0  0
    1.4240   -0.9360    0.0290 O   0  0  0  0  0  0  0  0  0  0  0  0
  1  2  1  0
  3  2  1  1
  3  4  1  0
  3 17  1  0
  4  5  1  0
  5  6  1  0
  6  7  1  6
  6 17  1  0
  7  8  2  0
  7 11  1  0
  8  9  1  0
  9 10  1  0
 10 11  2  0
 12 11  1  6
 12 13  1  0
 12 16  1  0
 13 14  1  0
 14 15  1  0
 15 16  1  0
M  END
