
     RDKit          3D

 18 20  0  0  0  0  0  0  0  0999 V2000
   -1.1890   -2.8670    0.5120 O   0  0  0  0  0  0  0  0  0  0  0  0
   -1.0550   -1.6170    0.5180 C   0  0  0  0  0  0  0  0  0  0  0  0
   -2.2350   -0.7650    0.6250 C   0  0  2  0  0  0  0  0  0  0  0  0
   -3.1600   -0.9110   -0.5920 C   0  0  0  0  0  0  0  0  0  0  0  0
   -4.1260    0.2290   -0.2400 C   0  0  2  0  0  0  0  0  0  0  0  0
   -4.8400    0.6600   -1.3290 O   0  0  0  0  0  0  0  0  0  0  0  0
   -3.1160    1.2550    0.2440 C   0  0  0  0  0  0  0  0  0  0  0  0
   -1.9910    0.5800    0.6300 O   0  0  0  0  0  0  0  0  0  0  0  0
    0.2240   -1.0680    0.4230 N   0  0  0  0  0  0  0  0  0  0  0  0
    0.7620    0.2740    0.3950 C   0  0  0  0  0  0  0  0  0  0  0  0
    1.8740   -0.2890   -0.5020 C   0  0  1  0  0  0  0  0  0  0  0  0
    3.1480    0.4050   -0.2180 C   0  0  0  0  0  0  0  0  0  0  0  0
    3.8810    1.0210   -1.1770 N   0  0  0  0  0  0  0  0  0  0  0  0
    4.9410    1.5320   -0.5980 N   0  0  0  0  0  0  0  0  0  0  0  0
    4.9310    1.2750    0.7090 C   0  0  0  0  0  0  0  0  0  0  0  0
    5.7660    1.5980    1.5840 O   0  0  0  0  0  0  0  0  0  0  0  0
    3.7920    0.5630    0.9320 N   0  0  0  0  0  0  0  0  0  0  0  0
    1.6190   -1.5360    0.3100 C   0  0  0  0  0  0  0  0  0  0  0  0
  1  2  2  0
  3  2  1  6
  2  9  1  0
  3  4  1  0
  3  8  1  0
  4  5  1  0
  5  6  1  6
  5  7  1  0
  7  8  1  0
  9 10  1  0
  9 18  1  0
 10 11  1  0
 11 12  1  1
 11 18  1  0
 12 13  2  0
 12 17  1  0
 13 14  1  0
 14 15  1  0
 15 16  2  0
 15 17  1  0
M  END
