
     RDKit          3D

 18 20  0  0  0  0  0  0  0  0999 V2000
    5.0310    1.6200    0.4920 O   0  0  0  0  0  0  0  0  0  0  0  0
    3.9410    0.9910    0.3770 C   0  0  0  0  0  0  0  0  0  0  0  0
    2.7470    1.7230    0.2610 N   0  0  0  0  0  0  0  0  0  0  0  0
    1.4860    1.0390    0.1600 C   0  0  0  0  0  0  0  0  0  0  0  0
    1.5730   -0.4330    0.1290 C   0  0  0  0  0  0  0  0  0  0  0  0
    2.7440   -1.1180    0.2400 C   0  0  0  0  0  0  0  0  0  0  0  0
    2.8320   -2.4710    0.2250 N   0  0  0  0  0  0  0  0  0  0  0  0
    1.6920   -3.1620    0.0920 C   0  0  0  0  0  0  0  0  0  0  0  0
    0.5250   -2.5420   -0.0200 N   0  0  0  0  0  0  0  0  0  0  0  0
    0.3830   -1.1640   -0.0110 C   0  0  0  0  0  0  0  0  0  0  0  0
   -0.7970   -0.6050   -0.1260 O   0  0  0  0  0  0  0  0  0  0  0  0
   -1.6050    0.4360   -0.1970 C   0  0  1  0  0  0  0  0  0  0  0  0
   -2.4830    0.3700   -1.4790 C   0  0  0  0  0  0  0  0  0  0  0  0
   -3.7310    0.7730   -1.0460 O   0  0  0  0  0  0  0  0  0  0  0  0
   -3.8860   -0.0670    0.0800 C   0  0  0  0  0  0  0  0  0  0  0  0
   -2.7000    0.3780    0.9020 C   0  0  2  0  0  0  0  0  0  0  0  0
   -2.8820    1.6190    1.4580 O   0  0  0  0  0  0  0  0  0  0  0  0
    3.9900   -0.4160    0.3710 N   0  0  0  0  0  0  0  0  0  0  0  0
  1  2  2  0
  2  3  1  0
  2 18  1  0
  3  4  1  0
  4  5  1  0
  5  6  2  0
  5 10  1  0
  6  7  1  0
  6 18  1  0
  7  8  2  0
  8  9  1  0
  9 10  2  0
 10 11  1  0
 12 11  1  1
 12 13  1  0
 12 16  1  0
 13 14  1  0
 14 15  1  0
 15 16  1  0
 16 17  1  6
M  END
