
     RDKit          3D

 18 20  0  0  0  0  0  0  0  0999 V2000
    2.6420    1.8420   -1.7690 O   0  0  0  0  0  0  0  0  0  0  0  0
    2.3120    0.8450   -1.0580 C   0  0  0  0  0  0  0  0  0  0  0  0
    1.0040    0.5370   -0.9240 N   0  0  0  0  0  0  0  0  0  0  0  0
    0.6540   -0.5140   -0.1750 C   0  0  0  0  0  0  0  0  0  0  0  0
   -0.5560   -0.8590   -0.0060 N   0  0  0  0  0  0  0  0  0  0  0  0
   -1.7400   -0.2450   -0.5410 C   0  0  1  0  0  0  0  0  0  0  0  0
   -2.7180   -1.3640   -0.8310 C   0  0  0  0  0  0  0  0  0  0  0  0
   -4.1450   -0.9410   -0.7850 C   0  0  0  0  0  0  0  0  0  0  0  0
   -4.4680   -0.2570    0.3920 O   0  0  0  0  0  0  0  0  0  0  0  0
   -3.7430    0.9070    0.4600 C   0  0  0  0  0  0  0  0  0  0  0  0
   -2.2660    0.7090    0.5020 C   0  0  2  0  0  0  0  0  0  0  0  0
   -1.6660    1.9490    0.2960 O   0  0  0  0  0  0  0  0  0  0  0  0
    1.6060   -1.2630    0.4430 N   0  0  0  0  0  0  0  0  0  0  0  0
    2.9010   -0.9440    0.2990 C   0  0  0  0  0  0  0  0  0  0  0  0
    3.2470    0.1050   -0.4480 N   0  0  0  0  0  0  0  0  0  0  0  0
    4.7050    0.1880   -0.4100 C   0  0  0  0  0  0  0  0  0  0  0  0
    5.0210   -0.5420    0.8770 C   0  0  0  0  0  0  0  0  0  0  0  0
    4.0290   -1.5660    0.8370 O   0  0  0  0  0  0  0  0  0  0  0  0
  1  2  2  0
  2  3  1  0
  2 15  1  0
  3  4  1  0
  4  5  2  3
  4 13  1  0
  6  5  1  1
  6  7  1  0
  6 11  1  0
  7  8  1  0
  8  9  1  0
  9 10  1  0
 10 11  1  0
 11 12  1  6
 13 14  2  0
 14 15  1  0
 14 18  1  0
 15 16  1  0
 16 17  1  0
 17 18  1  0
M  END
