
     RDKit          3D

 18 20  0  0  0  0  0  0  0  0999 V2000
    4.3190   -1.3670    0.0540 O   0  0  0  0  0  0  0  0  0  0  0  0
    3.0870   -1.5460    0.2430 C   0  0  0  0  0  0  0  0  0  0  0  0
    2.3700   -2.7570    0.4200 N   0  0  0  0  0  0  0  0  0  0  0  0
    1.0080   -2.4600    0.6000 C   0  0  0  0  0  0  0  0  0  0  0  0
    0.0890   -3.2890    0.7820 O   0  0  0  0  0  0  0  0  0  0  0  0
    0.8990   -0.9760    0.5270 C   0  0  0  0  0  0  0  0  0  0  0  0
    2.0800   -0.4540    0.3240 C   0  0  0  0  0  0  0  0  0  0  0  0
    1.9920    0.9640    0.2520 N   0  0  0  0  0  0  0  0  0  0  0  0
    0.6580    1.3150    0.4250 N   0  0  0  0  0  0  0  0  0  0  0  0
    0.1110    2.6530    0.4240 C   0  0  0  0  0  0  0  0  0  0  0  0
   -1.1120    2.7840    0.5940 O   0  0  0  0  0  0  0  0  0  0  0  0
    0.8800    3.7740    0.2460 O   0  0  0  0  0  0  0  0  0  0  0  0
   -0.0680    0.0890    0.6030 C   0  0  1  0  0  0  0  0  0  0  0  0
   -1.2380   -0.0350   -0.2680 C   0  0  0  0  0  0  0  0  0  0  0  0
   -2.4750   -0.0920    0.1580 C   0  0  0  0  0  0  0  0  0  0  0  0
   -3.3690   -0.2130   -0.9930 C   0  0  0  0  0  0  0  0  0  0  0  0
   -2.4670   -0.2170   -2.1030 N   0  0  0  0  0  0  0  0  0  0  0  0
   -1.2580   -0.1170   -1.7140 C   0  0  0  0  0  0  0  0  0  0  0  0
  1  2  2  0
  2  3  1  0
  2  7  1  0
  3  4  1  0
  4  5  2  0
  4  6  1  0
  6  7  2  0
  6 13  1  0
  7  8  1  0
  8  9  1  0
  9 10  1  0
  9 13  1  0
 10 11  2  0
 10 12  1  0
 13 14  1  6
 14 15  2  0
 14 18  1  0
 15 16  1  0
 16 17  1  0
 17 18  2  0
M  END
