
     RDKit          3D

 18 20  0  0  0  0  0  0  0  0999 V2000
   -3.9400   -0.6420   -1.6030 O   0  0  0  0  0  0  0  0  0  0  0  0
   -2.6740   -1.1100   -1.2720 C   0  0  0  0  0  0  0  0  0  0  0  0
   -2.2370   -0.5590    0.0910 C   0  0  1  0  0  0  0  0  0  0  0  0
   -0.9910   -1.0050    0.4430 O   0  0  0  0  0  0  0  0  0  0  0  0
   -0.2940    0.0800    0.9620 C   0  0  1  0  0  0  0  0  0  0  0  0
    1.0960   -0.1320    1.0980 N   0  0  0  0  0  0  0  0  0  0  0  0
    1.7260   -0.3040    2.2960 C   0  0  0  0  0  0  0  0  0  0  0  0
    3.0310   -0.4820    2.1180 N   0  0  0  0  0  0  0  0  0  0  0  0
    3.2510   -0.4270    0.8030 C   0  0  0  0  0  0  0  0  0  0  0  0
    4.4260   -0.5510    0.0780 C   0  0  0  0  0  0  0  0  0  0  0  0
    4.3610   -0.4520   -1.2700 N   0  0  0  0  0  0  0  0  0  0  0  0
    3.1810   -0.2400   -1.8610 C   0  0  0  0  0  0  0  0  0  0  0  0
    2.0190   -0.1170   -1.1580 N   0  0  0  0  0  0  0  0  0  0  0  0
    2.0570   -0.2110    0.1720 C   0  0  0  0  0  0  0  0  0  0  0  0
   -0.6400    1.1470   -0.0870 C   0  0  2  0  0  0  0  0  0  0  0  0
   -0.2790    2.4040    0.3160 O   0  0  0  0  0  0  0  0  0  0  0  0
   -2.1640    0.9440   -0.0740 C   0  0  2  0  0  0  0  0  0  0  0  0
   -2.6140    1.5750    1.0920 O   0  0  0  0  0  0  0  0  0  0  0  0
  1  2  1  0
  3  2  1  6
  3  4  1  0
  3 17  1  0
  4  5  1  0
  5  6  1  6
  5 15  1  0
  6  7  1  0
  6 14  1  0
  7  8  2  0
  8  9  1  0
  9 10  2  0
  9 14  1  0
 10 11  1  0
 11 12  2  0
 12 13  1  0
 13 14  2  0
 15 16  1  1
 15 17  1  0
 17 18  1  1
M  END
