
     RDKit          3D

 26 28  0  0  0  0  0  0  0  0999 V2000
   -4.1960    2.6830   -0.9560 C   0  0  0  0  0  0  0  0  0  0  0  0
   -4.9460    1.9210   -0.2280 C   0  0  0  0  0  0  0  0  0  0  0  0
   -4.7100    0.5790    0.2260 C   0  0  0  0  0  0  0  0  0  0  0  0
   -5.7430    0.1470    0.9770 C   0  0  0  0  0  0  0  0  0  0  0  0
   -6.0610   -1.0770    1.6830 C   0  0  0  0  0  0  0  0  0  0  0  0
   -5.3480   -2.1850    1.6230 C   0  0  0  0  0  0  0  0  0  0  0  0
   -4.1190   -2.4190    0.8580 C   0  0  0  0  0  0  0  0  0  0  0  0
   -3.4040   -1.5880    0.1730 C   0  0  0  0  0  0  0  0  0  0  0  0
   -3.4960   -0.1390   -0.1230 C   0  0  2  0  0  0  0  0  0  0  0  0
   -2.3410    0.5580    0.6180 C   0  0  0  0  0  0  0  0  0  0  0  0
   -1.0420   -0.1130    0.2810 C   0  0  0  0  0  0  0  0  0  0  0  0
   -0.8110   -0.3110   -1.0840 N   0  0  0  0  0  0  0  0  0  0  0  0
    0.1320   -1.2790   -1.4800 C   0  0  0  0  0  0  0  0  0  0  0  0
    1.4690   -0.8850   -0.8990 C   0  0  0  0  0  0  0  0  0  0  0  0
    2.3120   -0.0350   -1.5340 C   0  0  0  0  0  0  0  0  0  0  0  0
    3.5340    0.2740   -0.9200 C   0  0  0  0  0  0  0  0  0  0  0  0
    3.9110   -0.2450    0.2920 C   0  0  0  0  0  0  0  0  0  0  0  0
    5.1290    0.0230    0.9420 N   0  0  0  0  0  0  0  0  0  0  0  0
    6.2190    0.7080    0.3780 C   0  0  0  0  0  0  0  0  0  0  0  0
    6.2250    1.1550   -0.7790 O   0  0  0  0  0  0  0  0  0  0  0  0
    7.4660    0.9270    1.2000 C   0  0  0  0  0  0  0  0  0  0  0  0
    8.4800    1.6770    0.3790 C   0  0  0  0  0  0  0  0  0  0  0  0
    3.0280   -1.1230    0.9380 C   0  0  0  0  0  0  0  0  0  0  0  0
    1.8430   -1.4080    0.3160 C   0  0  0  0  0  0  0  0  0  0  0  0
   -1.7980    0.1040   -1.9950 C   0  0  0  0  0  0  0  0  0  0  0  0
   -3.2150   -0.0450   -1.6140 C   0  0  0  0  0  0  0  0  0  0  0  0
  1  2  2  0
  2  3  1  0
  3  4  2  0
  3  9  1  0
  4  5  1  0
  5  6  2  0
  6  7  1  0
  7  8  2  0
  8  9  1  0
  9 10  1  1
  9 26  1  0
 10 11  1  0
 11 12  1  0
 12 13  1  0
 12 25  1  0
 13 14  1  0
 14 15  2  0
 14 24  1  0
 15 16  1  0
 16 17  2  0
 17 18  1  0
 17 23  1  0
 18 19  1  0
 19 20  2  0
 19 21  1  0
 21 22  1  0
 23 24  2  0
 25 26  1  0
M  END
