
     RDKit          3D

 26 28  0  0  0  0  0  0  0  0999 V2000
    7.6330   -0.8250   -0.6290 C   0  0  0  0  0  0  0  0  0  0  0  0
    7.2390   -0.2310   -1.7430 C   0  0  0  0  0  0  0  0  0  0  0  0
    5.9550   -0.0850   -2.4120 C   0  0  0  0  0  0  0  0  0  0  0  0
    4.6810   -0.2130   -2.1020 C   0  0  0  0  0  0  0  0  0  0  0  0
    3.9010   -0.5790   -0.8830 C   0  0  0  0  0  0  0  0  0  0  0  0
    2.6470   -0.2650   -0.9600 C   0  0  0  0  0  0  0  0  0  0  0  0
    1.6460   -0.4740    0.0170 C   0  0  0  0  0  0  0  0  0  0  0  0
    0.3980   -0.0970   -0.2100 C   0  0  0  0  0  0  0  0  0  0  0  0
   -0.6690   -0.2880    0.7540 C   0  0  0  0  0  0  0  0  0  0  0  0
   -1.9100    0.0960    0.5310 C   0  0  0  0  0  0  0  0  0  0  0  0
   -2.9750   -0.1060    1.5130 C   0  0  0  0  0  0  0  0  0  0  0  0
   -4.0280   -0.9210    0.9810 N   0  0  0  0  0  0  0  0  0  0  0  0
   -3.6720   -2.2870    0.7490 C   0  0  0  0  0  0  0  0  0  0  0  0
   -5.0310   -2.9810    0.6900 C   0  0  0  0  0  0  0  0  0  0  0  0
   -5.7870   -2.2840    1.7870 C   0  0  0  0  0  0  0  0  0  0  0  0
   -5.2530   -0.8690    1.7140 C   0  0  0  0  0  0  0  0  0  0  0  0
   -2.1600    0.7160   -0.7080 O   0  0  0  0  0  0  0  0  0  0  0  0
   -2.0300    2.1020   -0.7370 C   0  0  0  0  0  0  0  0  0  0  0  0
   -2.2580    2.7570   -1.9180 C   0  0  0  0  0  0  0  0  0  0  0  0
   -2.1390    4.1520   -1.9920 C   0  0  0  0  0  0  0  0  0  0  0  0
   -1.7900    4.8740   -0.8680 C   0  0  0  0  0  0  0  0  0  0  0  0
   -1.5610    4.2220    0.3160 C   0  0  0  0  0  0  0  0  0  0  0  0
   -1.6850    2.8350    0.3690 C   0  0  0  0  0  0  0  0  0  0  0  0
    4.3820   -1.2090    0.2920 N   0  0  0  0  0  0  0  0  0  0  0  0
    5.6660   -1.7230    0.7380 C   0  0  0  0  0  0  0  0  0  0  0  0
    6.9310   -1.5890    0.3990 C   0  0  0  0  0  0  0  0  0  0  0  0
  1  2  2  0
  1 26  1  0
  2  3  1  0
  3  4  2  0
  4  5  1  0
  5  6  2  3
  5 24  1  0
  6  7  1  0
  7  8  2  3
  8  9  1  0
  9 10  2  3
 10 11  1  0
 10 17  1  0
 11 12  1  0
 12 13  1  0
 12 16  1  0
 13 14  1  0
 14 15  1  0
 15 16  1  0
 17 18  1  0
 18 19  2  0
 18 23  1  0
 19 20  1  0
 20 21  2  0
 21 22  1  0
 22 23  2  0
 24 25  1  0
 25 26  2  0
M  END
