
     RDKit          3D

 23 24  0  0  0  0  0  0  0  0999 V2000
    5.6710    0.1170    1.9540 O   0  0  0  0  0  0  0  0  0  0  0  0
    6.5760   -0.4510    1.2810 C   0  0  0  0  0  0  0  0  0  0  0  0
    7.8210   -0.5440    1.8770 O   0  0  0  0  0  0  0  0  0  0  0  0
    6.2720   -0.9700   -0.0650 C   0  0  0  0  0  0  0  0  0  0  0  0
    6.0580    0.1460   -1.0410 C   0  0  0  0  0  0  0  0  0  0  0  0
    4.9450    1.0770   -0.7210 C   0  0  0  0  0  0  0  0  0  0  0  0
    3.6140    0.3830   -0.6630 C   0  0  0  0  0  0  0  0  0  0  0  0
    3.5160   -0.8400   -0.8960 O   0  0  0  0  0  0  0  0  0  0  0  0
    2.4360    1.1050   -0.3410 N   0  0  0  0  0  0  0  0  0  0  0  0
    1.1300    0.6000   -0.2460 C   0  0  0  0  0  0  0  0  0  0  0  0
    0.7330   -0.6990   -0.2840 C   0  0  0  0  0  0  0  0  0  0  0  0
   -0.6060   -1.0480   -0.1910 C   0  0  0  0  0  0  0  0  0  0  0  0
   -1.6250   -0.0970   -0.0530 C   0  0  0  0  0  0  0  0  0  0  0  0
   -3.0040   -0.4870    0.0410 C   0  0  0  0  0  0  0  0  0  0  0  0
   -3.9930    0.3450    0.1690 C   0  0  0  0  0  0  0  0  0  0  0  0
   -5.4080   -0.0650    0.2650 C   0  0  0  0  0  0  0  0  0  0  0  0
   -6.3600    0.9200    0.3980 C   0  0  0  0  0  0  0  0  0  0  0  0
   -7.7050    0.6150    0.4940 C   0  0  0  0  0  0  0  0  0  0  0  0
   -8.0660   -0.7170    0.4520 C   0  0  0  0  0  0  0  0  0  0  0  0
   -7.1010   -1.6950    0.3190 C   0  0  0  0  0  0  0  0  0  0  0  0
   -5.7430   -1.3720    0.2230 C   0  0  0  0  0  0  0  0  0  0  0  0
   -1.2260    1.2070   -0.0150 C   0  0  0  0  0  0  0  0  0  0  0  0
    0.1080    1.5460   -0.1080 C   0  0  0  0  0  0  0  0  0  0  0  0
  1  2  2  0
  2  3  1  0
  2  4  1  0
  4  5  1  0
  5  6  1  0
  6  7  1  0
  7  8  2  0
  7  9  1  0
  9 10  1  0
 10 11  2  0
 10 23  1  0
 11 12  1  0
 12 13  2  0
 13 14  1  0
 13 22  1  0
 14 15  2  3
 15 16  1  0
 16 17  2  0
 16 21  1  0
 17 18  1  0
 18 19  2  0
 19 20  1  0
 20 21  2  0
 22 23  2  0
M  END
