
     RDKit          3D

 26 28  0  0  0  0  0  0  0  0999 V2000
    5.8580    2.6760   -1.3580 C   0  0  0  0  0  0  0  0  0  0  0  0
    4.6360    2.0180   -0.8010 C   0  0  0  0  0  0  0  0  0  0  0  0
    4.5850    0.7210   -0.5950 C   0  0  0  0  0  0  0  0  0  0  0  0
    3.3460    0.1210   -0.0390 C   0  0  0  0  0  0  0  0  0  0  0  0
    3.4450   -1.2090    0.1120 C   0  0  0  0  0  0  0  0  0  0  0  0
    2.4920   -2.1810    0.6110 C   0  0  0  0  0  0  0  0  0  0  0  0
    2.9780   -3.4320    0.8490 C   0  0  0  0  0  0  0  0  0  0  0  0
    2.1490   -4.4500    1.3420 C   0  0  0  0  0  0  0  0  0  0  0  0
    0.8180   -4.1990    1.5950 C   0  0  0  0  0  0  0  0  0  0  0  0
    0.3210   -2.9130    1.3500 C   0  0  0  0  0  0  0  0  0  0  0  0
    1.1480   -1.9420    0.8700 C   0  0  0  0  0  0  0  0  0  0  0  0
    0.4360   -0.6310    0.6430 C   0  0  0  0  0  0  0  0  0  0  0  0
   -0.7920   -0.7090    0.2710 C   0  0  0  0  0  0  0  0  0  0  0  0
   -1.7680    0.2930   -0.0460 C   0  0  0  0  0  0  0  0  0  0  0  0
   -1.4610    1.4910   -0.0370 O   0  0  0  0  0  0  0  0  0  0  0  0
   -3.1470   -0.0460   -0.3890 C   0  0  0  0  0  0  0  0  0  0  0  0
   -3.5710   -1.3570   -0.3820 C   0  0  0  0  0  0  0  0  0  0  0  0
   -4.8830   -1.7370   -0.6870 C   0  0  0  0  0  0  0  0  0  0  0  0
   -5.7990   -0.7780   -1.0080 C   0  0  0  0  0  0  0  0  0  0  0  0
   -5.4090    0.5310   -1.0240 C   0  0  0  0  0  0  0  0  0  0  0  0
   -4.0910    0.9040   -0.7170 C   0  0  0  0  0  0  0  0  0  0  0  0
   -3.7840    2.2740   -0.7730 N   0  0  0  0  0  0  0  0  0  0  0  0
   -4.8650    3.2340   -1.1050 C   0  0  0  0  0  0  0  0  0  0  0  0
    1.0720    0.6070    0.8450 N   0  0  0  0  0  0  0  0  0  0  0  0
    0.4420    1.4950    1.8310 C   0  0  0  0  0  0  0  0  0  0  0  0
    2.2870    1.0950    0.2340 C   0  0  0  0  0  0  0  0  0  0  0  0
  1  2  1  0
  2  3  2  3
  3  4  1  0
  4  5  2  0
  4 26  1  0
  5  6  1  0
  6  7  2  0
  6 11  1  0
  7  8  1  0
  8  9  2  0
  9 10  1  0
 10 11  2  0
 11 12  1  0
 12 13  2  3
 12 24  1  0
 13 14  1  0
 14 15  2  0
 14 16  1  0
 16 17  2  0
 16 21  1  0
 17 18  1  0
 18 19  2  0
 19 20  1  0
 20 21  2  0
 21 22  1  0
 22 23  1  0
 24 25  1  0
 24 26  1  0
M  END
