
     RDKit          3D

 26 28  0  0  0  0  0  0  0  0999 V2000
    7.7790    1.4750   -0.9160 C   0  0  0  0  0  0  0  0  0  0  0  0
    6.5130    0.7060   -0.5420 C   0  0  0  0  0  0  0  0  0  0  0  0
    5.4180    1.3620   -0.3850 C   0  0  0  0  0  0  0  0  0  0  0  0
    4.1050    0.8490   -0.0360 C   0  0  0  0  0  0  0  0  0  0  0  0
    3.0140    1.7050    0.2070 C   0  0  0  0  0  0  0  0  0  0  0  0
    1.8920    0.9240    0.5130 C   0  0  0  0  0  0  0  0  0  0  0  0
    0.5780    1.4800    0.7540 C   0  0  0  0  0  0  0  0  0  0  0  0
    0.4510    2.6420    1.1940 O   0  0  0  0  0  0  0  0  0  0  0  0
   -0.6520    0.7430    0.4960 N   0  0  0  0  0  0  0  0  0  0  0  0
   -1.8770    1.3700    0.7590 C   0  0  0  0  0  0  0  0  0  0  0  0
   -3.1610    0.8020    0.5030 C   0  0  0  0  0  0  0  0  0  0  0  0
   -4.2820    1.6280    0.8730 C   0  0  0  0  0  0  0  0  0  0  0  0
   -3.9560    2.9520    1.4710 C   0  0  0  0  0  0  0  0  0  0  0  0
   -5.5550    1.2180    0.6850 C   0  0  0  0  0  0  0  0  0  0  0  0
   -5.8530    0.0120    0.1420 C   0  0  0  0  0  0  0  0  0  0  0  0
   -7.2870   -0.3400   -0.0200 C   0  0  0  0  0  0  0  0  0  0  0  0
   -4.8310   -0.8080   -0.2260 C   0  0  0  0  0  0  0  0  0  0  0  0
   -5.1480   -2.1290   -0.8160 C   0  0  0  0  0  0  0  0  0  0  0  0
   -3.4910   -0.3960   -0.0380 C   0  0  0  0  0  0  0  0  0  0  0  0
   -2.4700   -1.3580   -0.4890 C   0  0  0  0  0  0  0  0  0  0  0  0
    2.3470   -0.3600    0.4450 C   0  0  0  0  0  0  0  0  0  0  0  0
    1.5590   -1.5790    0.7460 C   0  0  0  0  0  0  0  0  0  0  0  0
    3.6660   -0.4010    0.1150 N   0  0  0  0  0  0  0  0  0  0  0  0
    4.4340   -1.6040   -0.0670 C   0  0  2  0  0  0  0  0  0  0  0  0
    4.7790   -1.9280   -1.5020 C   0  0  0  0  0  0  0  0  0  0  0  0
    3.8830   -2.8370   -0.6730 C   0  0  0  0  0  0  0  0  0  0  0  0
  1  2  1  0
  2  3  2  3
  3  4  1  0
  4  5  2  0
  4 23  1  0
  5  6  1  0
  6  7  1  0
  6 21  2  0
  7  8  2  0
  7  9  1  0
  9 10  1  0
 10 11  1  0
 11 12  2  0
 11 19  1  0
 12 13  1  0
 12 14  1  0
 14 15  2  0
 15 16  1  0
 15 17  1  0
 17 18  1  0
 17 19  2  0
 19 20  1  0
 21 22  1  0
 21 23  1  0
 24 23  1  6
 24 25  1  0
 24 26  1  0
 25 26  1  0
M  END
