
     RDKit          3D

 26 28  0  0  0  0  0  0  0  0999 V2000
   -4.1400   -2.6340    0.3490 C   0  0  0  0  0  0  0  0  0  0  0  0
   -4.1400   -1.1730    0.0980 C   0  0  0  0  0  0  0  0  0  0  0  0
   -5.1000   -0.3780    0.6650 C   0  0  0  0  0  0  0  0  0  0  0  0
   -5.0800    0.9690    0.4190 C   0  0  0  0  0  0  0  0  0  0  0  0
   -6.1180    1.8370    1.0310 C   0  0  0  0  0  0  0  0  0  0  0  0
   -4.0960    1.5080   -0.3950 C   0  0  0  0  0  0  0  0  0  0  0  0
   -4.1020    2.9640   -0.6420 C   0  0  0  0  0  0  0  0  0  0  0  0
   -3.1210    0.7370   -0.9780 C   0  0  0  0  0  0  0  0  0  0  0  0
   -2.1520    1.3240   -1.7950 N   0  0  0  0  0  0  0  0  0  0  0  0
   -1.0730    0.6220   -2.4420 C   0  0  0  0  0  0  0  0  0  0  0  0
   -0.1290   -0.0250   -1.5140 C   0  0  0  0  0  0  0  0  0  0  0  0
    0.8210   -0.8620   -2.0680 C   0  0  0  0  0  0  0  0  0  0  0  0
    1.7570   -1.5150   -1.2950 C   0  0  0  0  0  0  0  0  0  0  0  0
    1.7460   -1.3280    0.0830 C   0  0  0  0  0  0  0  0  0  0  0  0
    2.7820   -2.0630    0.8750 C   0  0  0  0  0  0  0  0  0  0  0  0
    3.9720   -1.2470    0.9570 N   0  0  0  0  0  0  0  0  0  0  0  0
    4.9370   -1.3450    0.0060 C   0  0  0  0  0  0  0  0  0  0  0  0
    6.0810   -0.6090    0.0170 C   0  0  0  0  0  0  0  0  0  0  0  0
    6.2910    0.2900    1.0370 C   0  0  0  0  0  0  0  0  0  0  0  0
    7.5050    1.1200    1.1140 C   0  0  0  0  0  0  0  0  0  0  0  0
    5.3210    0.3960    2.0040 C   0  0  0  0  0  0  0  0  0  0  0  0
    4.1620   -0.3740    1.9610 C   0  0  0  0  0  0  0  0  0  0  0  0
    3.3020   -0.2410    2.8680 O   0  0  0  0  0  0  0  0  0  0  0  0
    0.8090   -0.5010    0.6440 C   0  0  0  0  0  0  0  0  0  0  0  0
   -0.1100    0.1360   -0.1580 C   0  0  0  0  0  0  0  0  0  0  0  0
   -3.1540   -0.6150   -0.7210 C   0  0  0  0  0  0  0  0  0  0  0  0
  1  2  1  0
  2  3  2  0
  2 26  1  0
  3  4  1  0
  4  5  1  0
  4  6  2  0
  6  7  1  0
  6  8  1  0
  8  9  1  0
  8 26  2  0
  9 10  1  0
 10 11  1  0
 11 12  2  0
 11 25  1  0
 12 13  1  0
 13 14  2  0
 14 15  1  0
 14 24  1  0
 15 16  1  0
 16 17  1  0
 16 22  1  0
 17 18  2  0
 18 19  1  0
 19 20  1  0
 19 21  2  0
 21 22  1  0
 22 23  2  0
 24 25  2  0
M  END
