
     RDKit          3D

 30 32  0  0  0  0  0  0  0  0999 V2000
   -2.0490    1.1560   -4.1580 C   0  0  0  0  0  0  0  0  0  0  0  0
   -1.3370    0.4810   -3.1250 O   0  0  0  0  0  0  0  0  0  0  0  0
   -0.5880    1.1430   -2.1820 C   0  0  0  0  0  0  0  0  0  0  0  0
   -0.5190    2.3950   -2.2190 O   0  0  0  0  0  0  0  0  0  0  0  0
    0.1530    0.4380   -1.1060 C   0  0  2  0  0  0  0  0  0  0  0  0
   -0.7510   -0.3530   -0.2390 C   0  0  0  0  0  0  0  0  0  0  0  0
   -1.9290    0.0070    0.2900 N   0  0  0  0  0  0  0  0  0  0  0  0
   -2.4390   -1.0020    1.0230 C   0  0  0  0  0  0  0  0  0  0  0  0
   -3.7020   -0.9750    1.7460 C   0  0  0  0  0  0  0  0  0  0  0  0
   -4.1640   -2.0460    2.4770 C   0  0  0  0  0  0  0  0  0  0  0  0
   -5.3850   -1.9690    3.1540 C   0  0  0  0  0  0  0  0  0  0  0  0
   -6.1450   -0.8190    3.0980 C   0  0  0  0  0  0  0  0  0  0  0  0
   -7.3590   -0.7310    3.7660 O   0  0  0  0  0  0  0  0  0  0  0  0
   -5.6420    0.2300    2.3520 C   0  0  0  0  0  0  0  0  0  0  0  0
   -4.4690    0.1280    1.7140 N   0  0  0  0  0  0  0  0  0  0  0  0
   -1.5260   -1.9820    0.9160 N   0  0  0  0  0  0  0  0  0  0  0  0
   -0.5410   -1.5770    0.1680 O   0  0  0  0  0  0  0  0  0  0  0  0
    1.0280    1.3730   -0.3170 C   0  0  0  0  0  0  0  0  0  0  0  0
    2.3040    0.7580   -0.1470 N   0  0  0  0  0  0  0  0  0  0  0  0
    2.8100    0.7830    1.1940 C   0  0  0  0  0  0  0  0  0  0  0  0
    4.1660    0.0890    1.1820 C   0  0  1  0  0  0  0  0  0  0  0  0
    4.9760    0.8210    0.3020 O   0  0  0  0  0  0  0  0  0  0  0  0
    4.9440    0.0320    2.8440 P   0  0  0  0  0  0  0  0  0  0  0  0
    6.2620    1.1450    3.0000 O   0  0  0  0  0  0  0  0  0  0  0  0
    3.8310    0.1130    4.1360 O   0  0  0  0  0  0  0  0  0  0  0  0
    2.2340   -0.5710   -0.7140 C   0  0  0  0  0  0  0  0  0  0  0  0
    1.1810   -0.4540   -1.7780 C   0  0  1  0  0  0  0  0  0  0  0  0
    0.6030   -1.7740   -2.1890 C   0  0  0  0  0  0  0  0  0  0  0  0
    1.7340    0.2820   -2.9600 C   0  0  0  0  0  0  0  0  0  0  0  0
    2.6920   -0.4790   -3.6330 O   0  0  0  0  0  0  0  0  0  0  0  0
  1  2  1  0
  2  3  1  0
  3  4  2  0
  5  3  1  6
  5  6  1  0
  5 18  1  0
  5 27  1  0
  6  7  2  0
  6 17  1  0
  7  8  1  0
  8  9  1  0
  8 16  2  0
  9 10  2  0
  9 15  1  0
 10 11  1  0
 11 12  2  0
 12 13  1  0
 12 14  1  0
 14 15  2  0
 16 17  1  0
 18 19  1  0
 19 20  1  0
 19 26  1  0
 20 21  1  0
 21 22  1  6
 21 23  1  0
 23 24  1  0
 23 25  1  0
 26 27  1  0
 27 28  1  6
 27 29  1  0
 29 30  1  0
M  END
