
     RDKit          3D

 31 33  0  0  0  0  0  0  0  0999 V2000
   -5.3730   -2.2100   -2.7610 C   0  0  0  0  0  0  0  0  0  0  0  0
   -4.9750   -2.3080   -1.3040 C   0  0  1  0  0  0  0  0  0  0  0  0
   -3.5550   -1.9050   -1.2200 C   0  0  0  0  0  0  0  0  0  0  0  0
   -2.6420   -2.5890   -1.7270 O   0  0  0  0  0  0  0  0  0  0  0  0
   -3.4760   -0.6820   -0.5020 N   0  0  0  0  0  0  0  0  0  0  0  0
   -2.6100    0.3470    0.0150 C   0  0  0  0  0  0  0  0  0  0  0  0
   -1.1740    0.3710   -0.1280 C   0  0  0  0  0  0  0  0  0  0  0  0
   -0.4650    1.2930    0.3480 O   0  0  0  0  0  0  0  0  0  0  0  0
   -0.4130   -0.6080   -0.8010 N   0  0  0  0  0  0  0  0  0  0  0  0
    1.0350   -0.4990   -0.8880 C   0  0  0  0  0  0  0  0  0  0  0  0
    1.7530   -0.5080    0.4060 C   0  0  0  0  0  0  0  0  0  0  0  0
    3.1340   -0.3990    0.1070 O   0  0  0  0  0  0  0  0  0  0  0  0
    4.0720   -0.4000    1.5630 P   0  0  0  0  0  0  0  0  0  0  0  0
    3.7780   -1.8270    2.5100 O   0  0  0  0  0  0  0  0  0  0  0  0
    5.8670   -0.2880    1.0660 C   0  0  1  0  0  0  0  0  0  0  0  0
    6.0490   -0.6710   -0.3610 C   0  0  0  0  0  0  0  0  0  0  0  0
    6.9640    0.2020   -1.1510 C   0  0  0  0  0  0  0  0  0  0  0  0
    7.1820    1.5620   -0.5840 C   0  0  0  0  0  0  0  0  0  0  0  0
    6.2080    1.9190    0.3510 O   0  0  0  0  0  0  0  0  0  0  0  0
    6.4000    1.0530    1.4450 C   0  0  0  0  0  0  0  0  0  0  0  0
   -3.3220    1.2980    0.6610 C   0  0  0  0  0  0  0  0  0  0  0  0
   -2.7970    2.4840    1.3090 C   0  0  0  0  0  0  0  0  0  0  0  0
   -3.5530    3.4690    1.9820 N   0  0  0  0  0  0  0  0  0  0  0  0
   -1.5710    2.7290    1.3170 O   0  0  0  0  0  0  0  0  0  0  0  0
   -4.6980    0.9020    0.5780 N   0  0  0  0  0  0  0  0  0  0  0  0
   -5.8440    1.5580    1.0970 C   0  0  0  0  0  0  0  0  0  0  0  0
   -5.8670    2.6070    1.7250 O   0  0  0  0  0  0  0  0  0  0  0  0
   -7.1210    0.9870    0.8980 O   0  0  0  0  0  0  0  0  0  0  0  0
   -4.8040   -0.3430   -0.1520 C   0  0  0  0  0  0  0  0  0  0  0  0
   -5.6780   -1.2360   -0.5860 C   0  0  0  0  0  0  0  0  0  0  0  0
   -7.0680   -1.1600   -0.3830 O   0  0  0  0  0  0  0  0  0  0  0  0
  2  1  1  6
  2  3  1  0
  2 30  1  0
  3  4  2  0
  3  5  1  0
  5  6  1  0
  5 29  1  0
  6  7  1  0
  6 21  2  0
  7  8  2  0
  7  9  1  0
  9 10  1  0
 10 11  1  0
 11 12  1  0
 12 13  1  0
 13 14  1  0
 15 13  1  6
 15 16  1  0
 15 20  1  0
 16 17  1  0
 17 18  1  0
 18 19  1  0
 19 20  1  0
 21 22  1  0
 21 25  1  0
 22 23  1  0
 22 24  2  0
 25 26  1  0
 25 29  1  0
 26 27  2  0
 26 28  1  0
 29 30  2  0
 30 31  1  0
M  END
