
     RDKit          3D

 31 33  0  0  0  0  0  0  0  0999 V2000
   -3.6110    0.9500   -1.5790 O   0  0  0  0  0  0  0  0  0  0  0  0
   -2.3820    0.6320   -1.3000 C   0  0  0  0  0  0  0  0  0  0  0  0
   -1.4460    1.6840   -1.3920 N   0  0  0  0  0  0  0  0  0  0  0  0
   -1.8220    3.0410   -1.7720 C   0  0  0  0  0  0  0  0  0  0  0  0
   -2.8060    3.6660   -0.8250 C   0  0  0  0  0  0  0  0  0  0  0  0
   -3.1130    4.9640   -1.2580 O   0  0  0  0  0  0  0  0  0  0  0  0
   -2.1550   -0.7390   -0.9390 C   0  0  0  0  0  0  0  0  0  0  0  0
   -0.9970   -1.2480   -0.6340 C   0  0  0  0  0  0  0  0  0  0  0  0
    0.2290   -0.5590   -0.6010 N   0  0  0  0  0  0  0  0  0  0  0  0
    0.7860   -0.3030    0.5610 C   0  0  0  0  0  0  0  0  0  0  0  0
    0.1510   -0.7070    1.6770 N   0  0  0  0  0  0  0  0  0  0  0  0
    0.6430   -0.5180    2.9040 C   0  0  0  0  0  0  0  0  0  0  0  0
    1.8220    0.1020    3.0560 N   0  0  0  0  0  0  0  0  0  0  0  0
    2.4910    0.5240    1.9470 C   0  0  0  0  0  0  0  0  0  0  0  0
    2.0010    0.3370    0.6580 C   0  0  0  0  0  0  0  0  0  0  0  0
    2.7530    0.8210   -0.4940 C   0  0  0  0  0  0  0  0  0  0  0  0
    2.1190    1.3550   -1.4640 O   0  0  0  0  0  0  0  0  0  0  0  0
    4.1910    0.7500   -0.6510 C   0  0  0  0  0  0  0  0  0  0  0  0
    4.7500    1.2910   -1.7350 C   0  0  0  0  0  0  0  0  0  0  0  0
    6.2020    1.2820   -2.0030 C   0  0  0  0  0  0  0  0  0  0  0  0
    6.9680    0.5770   -1.0850 O   0  0  0  0  0  0  0  0  0  0  0  0
    6.4200    0.0110    0.0330 C   0  0  0  0  0  0  0  0  0  0  0  0
    5.1020    0.0830    0.2550 C   0  0  0  0  0  0  0  0  0  0  0  0
   -1.0230   -2.6330   -0.3130 O   0  0  0  0  0  0  0  0  0  0  0  0
   -2.0720   -3.2240    0.4110 C   0  0  0  0  0  0  0  0  0  0  0  0
   -3.4120   -2.6650    0.0230 C   0  0  1  0  0  0  0  0  0  0  0  0
   -4.1280   -2.2170    1.1210 O   0  0  0  0  0  0  0  0  0  0  0  0
   -5.6150   -3.0780    1.2450 P   0  0  0  0  0  0  0  0  0  0  0  0
   -5.8270   -3.8020    2.8030 O   0  0  0  0  0  0  0  0  0  0  0  0
   -5.8060   -4.2670    0.0090 O   0  0  0  0  0  0  0  0  0  0  0  0
   -3.2950   -1.6080   -0.9140 O   0  0  0  0  0  0  0  0  0  0  0  0
  1  2  2  0
  2  3  1  0
  2  7  1  0
  3  4  1  0
  4  5  1  0
  5  6  1  0
  7  8  2  0
  7 31  1  0
  8  9  1  0
  8 24  1  0
  9 10  2  3
 10 11  1  0
 10 15  1  0
 11 12  2  0
 12 13  1  0
 13 14  1  0
 14 15  2  0
 15 16  1  0
 16 17  2  0
 16 18  1  0
 18 19  2  0
 18 23  1  0
 19 20  1  0
 20 21  1  0
 21 22  1  0
 22 23  2  0
 24 25  1  0
 25 26  1  0
 26 27  1  1
 26 31  1  0
 27 28  1  0
 28 29  1  0
 28 30  1  0
M  END
