
     RDKit          3D

 30 32  0  0  0  0  0  0  0  0999 V2000
   -0.1030   -5.9550   -0.1950 O   0  0  0  0  0  0  0  0  0  0  0  0
   -1.1790   -5.3170   -0.1620 C   0  0  0  0  0  0  0  0  0  0  0  0
   -2.3670   -6.0200   -0.1660 O   0  0  0  0  0  0  0  0  0  0  0  0
   -1.1670   -3.9150   -0.1210 N   0  0  0  0  0  0  0  0  0  0  0  0
   -2.2270   -3.2170    0.0060 C   0  0  0  0  0  0  0  0  0  0  0  0
   -3.5180   -3.7260    0.1200 O   0  0  0  0  0  0  0  0  0  0  0  0
   -4.3700   -3.1560    1.0940 C   0  0  0  0  0  0  0  0  0  0  0  0
   -4.5170   -1.6670    0.9580 C   0  0  0  0  0  0  0  0  0  0  0  0
   -3.4440   -1.0970    0.1860 N   0  0  0  0  0  0  0  0  0  0  0  0
   -2.1850   -1.7320    0.0440 C   0  0  0  0  0  0  0  0  0  0  0  0
   -1.0450   -1.1010   -0.0560 C   0  0  0  0  0  0  0  0  0  0  0  0
   -0.8500    0.3340   -0.0330 C   0  0  0  0  0  0  0  0  0  0  0  0
   -1.8330    1.1290    0.1010 N   0  0  0  0  0  0  0  0  0  0  0  0
   -1.7690    2.4780    0.1360 O   0  0  0  0  0  0  0  0  0  0  0  0
   -1.5240    3.2800    1.2520 C   0  0  0  0  0  0  0  0  0  0  0  0
   -1.5450    4.7450    0.8120 C   0  0  1  0  0  0  0  0  0  0  0  0
   -2.7950    5.2710    0.2060 C   0  0  0  0  0  0  0  0  0  0  0  0
   -2.4030    5.7120    1.6020 C   0  0  0  0  0  0  0  0  0  0  0  0
    0.5530    0.8440   -0.1720 C   0  0  1  0  0  0  0  0  0  0  0  0
    1.4070    0.3100    0.9590 C   0  0  0  0  0  0  0  0  0  0  0  0
    2.7040    0.7380    0.8120 O   0  0  0  0  0  0  0  0  0  0  0  0
    3.5270   -0.2210    0.2250 C   0  0  0  0  0  0  0  0  0  0  0  0
    3.6090    0.1180   -1.2460 C   0  0  1  0  0  0  0  0  0  0  0  0
    4.6930   -0.6920   -1.9390 C   0  0  0  0  0  0  0  0  0  0  0  0
    6.3310   -0.3180   -1.1480 P   0  0  0  0  0  0  0  0  0  0  0  0
    6.7690   -1.5640   -0.0180 O   0  0  0  0  0  0  0  0  0  0  0  0
    6.2820    1.2100   -0.3430 O   0  0  0  0  0  0  0  0  0  0  0  0
    2.2890   -0.1640   -1.8510 C   0  0  0  0  0  0  0  0  0  0  0  0
    2.2440   -0.9330   -2.8300 O   0  0  0  0  0  0  0  0  0  0  0  0
    1.0350    0.3490   -1.4400 N   0  0  0  0  0  0  0  0  0  0  0  0
  1  2  2  0
  2  3  1  0
  2  4  1  0
  4  5  2  3
  5  6  1  0
  5 10  1  0
  6  7  1  0
  7  8  1  0
  8  9  1  0
  9 10  1  0
 10 11  2  3
 11 12  1  0
 12 13  2  3
 19 12  1  1
 13 14  1  0
 14 15  1  0
 16 15  1  1
 16 17  1  0
 16 18  1  0
 17 18  1  0
 19 20  1  0
 19 30  1  0
 20 21  1  0
 21 22  1  0
 22 23  1  0
 23 24  1  6
 23 28  1  0
 24 25  1  0
 25 26  1  0
 25 27  1  0
 28 29  2  0
 28 30  1  0
M  END
