
     RDKit          3D

 24 27  0  0  0  0  0  0  0  0999 V2000
    1.3630   -1.8210    0.3910 O   0  0  0  0  0  0  0  0  0  0  0  0
    0.6390   -0.8060    0.3990 C   0  0  0  0  0  0  0  0  0  0  0  0
    1.2290    0.4440    0.3110 O   0  0  0  0  0  0  0  0  0  0  0  0
    2.6120    0.4960    0.2170 C   0  0  0  0  0  0  0  0  0  0  0  0
    3.3470    0.5680    1.3980 C   0  0  0  0  0  0  0  0  0  0  0  0
    4.7240    0.6200    1.3400 C   0  0  0  0  0  0  0  0  0  0  0  0
    5.3900    0.6020    0.1090 C   0  0  0  0  0  0  0  0  0  0  0  0
    4.6690    0.5300   -1.0580 C   0  0  0  0  0  0  0  0  0  0  0  0
    3.2940    0.4790   -0.9830 C   0  0  0  0  0  0  0  0  0  0  0  0
    5.5100    0.5230   -2.1600 O   0  0  0  0  0  0  0  0  0  0  0  0
    6.8410    0.2850   -1.7340 C   0  0  0  0  0  0  0  0  0  0  0  0
    6.8180    0.6450   -0.2650 C   0  0  0  0  0  0  0  0  0  0  0  0
   -0.8060   -0.9850    0.5020 C   0  0  0  0  0  0  0  0  0  0  0  0
   -1.3540   -2.2410    0.5880 C   0  0  0  0  0  0  0  0  0  0  0  0
   -2.7240   -2.3540    0.6840 C   0  0  0  0  0  0  0  0  0  0  0  0
   -3.5050   -1.1950    0.6900 C   0  0  0  0  0  0  0  0  0  0  0  0
   -2.9300    0.0570    0.6030 C   0  0  0  0  0  0  0  0  0  0  0  0
   -1.5770    0.1530    0.5090 C   0  0  0  0  0  0  0  0  0  0  0  0
   -3.8180    1.2780    0.6140 C   0  0  1  0  0  0  0  0  0  0  0  0
   -3.1490    2.3120   -0.0290 O   0  0  0  0  0  0  0  0  0  0  0  0
   -5.0340    0.9000   -0.2090 C   0  0  1  0  0  0  0  0  0  0  0  0
   -4.6010    0.5880   -1.4840 O   0  0  0  0  0  0  0  0  0  0  0  0
   -5.7920   -0.2210    0.4300 C   0  0  0  0  0  0  0  0  0  0  0  0
   -4.9650   -1.4050    0.7960 C   0  0  0  0  0  0  0  0  0  0  0  0
  1  2  2  0
  2  3  1  0
  2 13  1  0
  3  4  1  0
  4  5  2  0
  4  9  1  0
  5  6  1  0
  6  7  2  0
  7  8  1  0
  7 12  1  0
  8  9  2  0
  8 10  1  0
 10 11  1  0
 11 12  1  0
 13 14  2  0
 13 18  1  0
 14 15  1  0
 15 16  2  0
 16 17  1  0
 16 24  1  0
 17 18  2  0
 17 19  1  0
 19 20  1  6
 19 21  1  0
 21 22  1  6
 21 23  1  0
 23 24  1  0
M  END
