
     RDKit          3D

 25 27  0  0  0  0  0  0  0  0999 V2000
    1.1400    3.9590   -0.4870 C   0  0  0  0  0  0  0  0  0  0  0  0
   -0.0580    3.4400    0.4000 C   0  0  0  0  0  0  0  0  0  0  0  0
   -0.0100    1.9720    0.3950 C   0  0  0  0  0  0  0  0  0  0  0  0
   -0.9870    1.1410    0.2430 C   0  0  0  0  0  0  0  0  0  0  0  0
   -2.3610    1.6450    0.0640 C   0  0  0  0  0  0  0  0  0  0  0  0
   -3.3100    0.7680   -0.1640 C   0  0  0  0  0  0  0  0  0  0  0  0
   -4.6190    1.5130   -0.3180 C   0  0  0  0  0  0  0  0  0  0  0  0
   -4.3820    2.6400    0.4050 O   0  0  0  0  0  0  0  0  0  0  0  0
   -3.0280    2.9670    0.1430 C   0  0  0  0  0  0  0  0  0  0  0  0
   -3.0570   -0.6680   -0.2270 C   0  0  0  0  0  0  0  0  0  0  0  0
   -4.0240   -1.4320   -0.4440 O   0  0  0  0  0  0  0  0  0  0  0  0
   -1.7030   -1.2070   -0.0410 C   0  0  0  0  0  0  0  0  0  0  0  0
   -1.5810   -2.6630    0.2750 C   0  0  0  0  0  0  0  0  0  0  0  0
   -2.5070   -3.5450   -0.0500 C   0  0  0  0  0  0  0  0  0  0  0  0
   -2.0860   -4.8790    0.4190 C   0  0  0  0  0  0  0  0  0  0  0  0
   -0.8310   -4.6620    1.1300 C   0  0  0  0  0  0  0  0  0  0  0  0
   -0.5660   -3.3600    1.0160 C   0  0  0  0  0  0  0  0  0  0  0  0
   -0.7420   -0.3350    0.1680 C   0  0  0  0  0  0  0  0  0  0  0  0
    0.6430   -0.7900   -0.0520 C   0  0  0  0  0  0  0  0  0  0  0  0
    0.7830   -1.9580   -0.5760 O   0  0  0  0  0  0  0  0  0  0  0  0
    1.7990   -0.1230    0.2360 O   0  0  0  0  0  0  0  0  0  0  0  0
    3.0450   -0.7150   -0.0410 C   0  0  0  0  0  0  0  0  0  0  0  0
    4.1950    0.1850    0.3520 C   0  0  0  0  0  0  0  0  0  0  0  0
    5.4860   -0.5250    0.0220 C   0  0  0  0  0  0  0  0  0  0  0  0
    6.5660    0.2770    0.3720 O   0  0  0  0  0  0  0  0  0  0  0  0
  1  2  1  0
  2  3  1  0
  3  4  2  3
  4  5  1  0
  4 18  1  0
  5  6  2  0
  5  9  1  0
  6  7  1  0
  6 10  1  0
  7  8  1  0
  8  9  1  0
 10 11  2  0
 10 12  1  0
 12 13  1  0
 12 18  2  0
 13 14  2  0
 13 17  1  0
 14 15  1  0
 15 16  1  0
 16 17  2  0
 18 19  1  0
 19 20  2  0
 19 21  1  0
 21 22  1  0
 22 23  1  0
 23 24  1  0
 24 25  1  0
M  END
