
     RDKit          3D

 25 27  0  0  0  0  0  0  0  0999 V2000
   -3.2120   -0.3320    2.8170 C   0  0  0  0  0  0  0  0  0  0  0  0
   -2.8070   -1.3860    1.7970 C   0  0  0  0  0  0  0  0  0  0  0  0
   -1.5940   -0.9390    1.1290 C   0  0  0  0  0  0  0  0  0  0  0  0
   -0.4100   -1.5550    1.4880 C   0  0  0  0  0  0  0  0  0  0  0  0
    0.8310   -1.2490    0.9550 C   0  0  0  0  0  0  0  0  0  0  0  0
    0.8580   -0.2590    0.0040 C   0  0  0  0  0  0  0  0  0  0  0  0
   -0.3320    0.3650   -0.3610 C   0  0  0  0  0  0  0  0  0  0  0  0
   -1.5630    0.0640    0.1660 C   0  0  0  0  0  0  0  0  0  0  0  0
   -2.7890    0.7570   -0.2490 C   0  0  1  0  0  0  0  0  0  0  0  0
   -2.4590    1.8940   -1.2040 C   0  0  0  0  0  0  0  0  0  0  0  0
   -3.6480    2.6360   -1.7110 C   0  0  0  0  0  0  0  0  0  0  0  0
   -4.7980    1.9110   -1.5140 O   0  0  0  0  0  0  0  0  0  0  0  0
   -4.5640    0.6190   -1.9890 C   0  0  0  0  0  0  0  0  0  0  0  0
   -3.8980   -0.1070   -0.7860 C   0  0  0  0  0  0  0  0  0  0  0  0
    2.0180    0.1340   -0.5960 O   0  0  0  0  0  0  0  0  0  0  0  0
    3.2840   -0.4530   -0.2820 C   0  0  0  0  0  0  0  0  0  0  0  0
    4.2770    0.0380   -0.9430 C   0  0  0  0  0  0  0  0  0  0  0  0
    5.6830   -0.1300   -1.0560 C   0  0  0  0  0  0  0  0  0  0  0  0
    6.5860   -1.0140   -0.3860 C   0  0  0  0  0  0  0  0  0  0  0  0
    7.8590   -0.9270   -0.7170 O   0  0  0  0  0  0  0  0  0  0  0  0
    6.3150    0.7090   -1.9810 C   0  0  0  0  0  0  0  0  0  0  0  0
    5.5480    1.5910   -2.6740 O   0  0  0  0  0  0  0  0  0  0  0  0
    3.2460   -1.4870    0.7120 C   0  0  0  0  0  0  0  0  0  0  0  0
    4.3450   -2.0470    1.0330 O   0  0  0  0  0  0  0  0  0  0  0  0
    2.0380   -1.9640    1.4030 C   0  0  0  0  0  0  0  0  0  0  0  0
  1  2  1  0
  2  3  1  0
  3  4  2  0
  3  8  1  0
  4  5  1  0
  5  6  2  0
  5 25  1  0
  6  7  1  0
  6 15  1  0
  7  8  2  0
  9  8  1  6
  9 10  1  0
  9 14  1  0
 10 11  1  0
 11 12  1  0
 12 13  1  0
 13 14  1  0
 15 16  1  0
 16 17  2  3
 16 23  1  0
 17 18  1  0
 18 19  1  0
 18 21  2  3
 19 20  2  0
 21 22  1  0
 23 24  2  0
 23 25  1  0
M  END
