
     RDKit          3D

 25 27  0  0  0  0  0  0  0  0999 V2000
   -4.9040   -1.7780   -1.3660 C   0  0  0  0  0  0  0  0  0  0  0  0
   -3.7070   -0.8760   -1.2150 C   0  0  0  0  0  0  0  0  0  0  0  0
   -3.6520   -0.3160    0.1760 C   0  0  0  0  0  0  0  0  0  0  0  0
   -2.4610    0.5910    0.3510 C   0  0  0  0  0  0  0  0  0  0  0  0
   -2.4310    1.8740   -0.1360 C   0  0  0  0  0  0  0  0  0  0  0  0
   -3.5980    2.4410   -0.8590 C   0  0  0  0  0  0  0  0  0  0  0  0
   -1.3070    2.6500    0.0540 C   0  0  0  0  0  0  0  0  0  0  0  0
   -0.1780    2.1950    0.7240 C   0  0  0  0  0  0  0  0  0  0  0  0
   -0.1940    0.9160    1.2070 C   0  0  0  0  0  0  0  0  0  0  0  0
   -1.3340    0.1310    1.0190 C   0  0  0  0  0  0  0  0  0  0  0  0
   -1.4070   -1.2400    1.5820 C   0  0  0  0  0  0  0  0  0  0  0  0
    1.1520    0.6520    1.7590 C   0  0  1  0  0  0  0  0  0  0  0  0
    1.0950   -0.0650    2.9520 O   0  0  0  0  0  0  0  0  0  0  0  0
    2.0690   -0.0210    0.7790 C   0  0  0  0  0  0  0  0  0  0  0  0
    1.6970   -0.9560   -0.1290 C   0  0  0  0  0  0  0  0  0  0  0  0
    2.6160   -1.5560   -1.0000 C   0  0  0  0  0  0  0  0  0  0  0  0
    2.2140   -2.5090   -1.9190 O   0  0  0  0  0  0  0  0  0  0  0  0
    3.9200   -1.1750   -0.9190 C   0  0  0  0  0  0  0  0  0  0  0  0
    4.3450   -0.2330   -0.0170 C   0  0  0  0  0  0  0  0  0  0  0  0
    5.6700    0.1210    0.0280 O   0  0  0  0  0  0  0  0  0  0  0  0
    6.6490   -0.4420   -0.8210 C   0  0  0  0  0  0  0  0  0  0  0  0
    3.4160    0.3340    0.8210 C   0  0  0  0  0  0  0  0  0  0  0  0
    1.7210    1.9280    1.9340 O   0  0  0  0  0  0  0  0  0  0  0  0
    1.0470    2.8410    1.1790 C   0  0  0  0  0  0  0  0  0  0  0  0
    1.3690    4.0440    0.8880 O   0  0  0  0  0  0  0  0  0  0  0  0
  1  2  1  0
  2  3  1  0
  3  4  1  0
  4  5  2  0
  4 10  1  0
  5  6  1  0
  5  7  1  0
  7  8  2  0
  8  9  1  0
  8 24  1  0
  9 10  2  0
  9 12  1  0
 10 11  1  0
 12 13  1  1
 12 14  1  0
 12 23  1  0
 14 15  2  0
 14 22  1  0
 15 16  1  0
 16 17  1  0
 16 18  2  0
 18 19  1  0
 19 20  1  0
 19 22  2  0
 20 21  1  0
 23 24  1  0
 24 25  2  0
M  END
