
     RDKit          3D

 41 45  0  0  0  0  0  0  0  0999 V2000
    9.8950    1.7540    0.0370 C   0  0  0  0  0  0  0  0  0  0  0  0
    8.8690    0.7840   -0.4120 C   0  0  0  0  0  0  0  0  0  0  0  0
    8.8270   -0.5060    0.0970 C   0  0  0  0  0  0  0  0  0  0  0  0
    7.8530   -1.4090   -0.3410 C   0  0  0  0  0  0  0  0  0  0  0  0
    6.9610   -0.9790   -1.2730 C   0  0  0  0  0  0  0  0  0  0  0  0
    5.9120   -1.8860   -1.7890 C   0  0  0  0  0  0  0  0  0  0  0  0
    4.6600   -1.7960   -0.9530 C   0  0  0  0  0  0  0  0  0  0  0  0
    4.6430   -2.2520    0.2060 O   0  0  0  0  0  0  0  0  0  0  0  0
    3.5250   -1.1820   -1.5220 N   0  0  0  0  0  0  0  0  0  0  0  0
    2.2580   -0.9380   -0.9710 C   0  0  0  0  0  0  0  0  0  0  0  0
    2.1290    0.0920    0.0800 C   0  0  1  0  0  0  0  0  0  0  0  0
    0.6180    0.1190    0.4560 C   0  0  0  0  0  0  0  0  0  0  0  0
   -0.2390    0.8250   -0.2520 C   0  0  0  0  0  0  0  0  0  0  0  0
   -1.6370    1.0290   -0.1360 C   0  0  0  0  0  0  0  0  0  0  0  0
   -2.4340    0.5740    0.7230 N   0  0  0  0  0  0  0  0  0  0  0  0
   -3.8560    0.8500    0.7430 C   0  0  0  0  0  0  0  0  0  0  0  0
   -4.3730    1.8090    1.5970 C   0  0  0  0  0  0  0  0  0  0  0  0
   -5.7390    2.0200    1.5920 C   0  0  0  0  0  0  0  0  0  0  0  0
   -6.5780    1.3030    0.7620 C   0  0  0  0  0  0  0  0  0  0  0  0
   -6.0650    0.3480   -0.0910 C   0  0  0  0  0  0  0  0  0  0  0  0
   -4.7050    0.1300   -0.0930 C   0  0  0  0  0  0  0  0  0  0  0  0
   -7.0390   -0.3780   -0.9470 C   0  0  0  0  0  0  0  0  0  0  0  0
   -7.8190    0.6730   -1.7250 C   0  0  1  0  0  0  0  0  0  0  0  0
   -8.5110    0.0610   -2.9330 C   0  0  2  0  0  0  0  0  0  0  0  0
   -9.4560   -0.9960   -2.4460 C   0  0  0  0  0  0  0  0  0  0  0  0
   -7.2800   -0.6350   -4.0520 S   0  0  0  0  0  0  0  0  0  0  0  0
   -7.3310   -2.1350   -4.1360 O   0  0  0  0  0  0  0  0  0  0  0  0
   -8.8000    1.3620   -0.9210 N   0  0  0  0  0  0  0  0  0  0  0  0
   -8.3140    1.5160    0.7300 S   0  0  1  0  0  0  0  0  0  0  0  0
   -8.9490    0.3440    1.4620 O   0  0  0  0  0  0  0  0  0  0  0  0
   -8.7380    2.8100    1.3450 O   0  0  0  0  0  0  0  0  0  0  0  0
    0.5460   -0.7100    1.5760 N   0  0  0  0  0  0  0  0  0  0  0  0
    1.8590   -0.8920    2.1430 C   0  0  0  0  0  0  0  0  0  0  0  0
    2.2190   -1.4070    3.3590 C   0  0  0  0  0  0  0  0  0  0  0  0
    3.5160   -1.2120    3.8230 C   0  0  0  0  0  0  0  0  0  0  0  0
    4.4210   -0.5060    3.0540 C   0  0  0  0  0  0  0  0  0  0  0  0
    5.7470   -0.3090    3.5420 N   0  0  0  0  0  0  0  0  0  0  0  0
    4.0530   -0.0040    1.8430 C   0  0  0  0  0  0  0  0  0  0  0  0
    2.7410   -0.1980    1.3570 C   0  0  0  0  0  0  0  0  0  0  0  0
    7.0120    0.3250   -1.7810 C   0  0  0  0  0  0  0  0  0  0  0  0
    7.9640    1.2170   -1.3560 C   0  0  0  0  0  0  0  0  0  0  0  0
  1  2  1  0
  2  3  2  0
  2 41  1  0
  3  4  1  0
  4  5  2  0
  5  6  1  0
  5 40  1  0
  6  7  1  0
  7  8  2  0
  7  9  1  0
  9 10  1  0
 11 10  1  6
 11 12  1  0
 11 39  1  0
 12 13  2  3
 12 32  1  0
 13 14  1  0
 14 15  2  3
 15 16  1  0
 16 17  2  0
 16 21  1  0
 17 18  1  0
 18 19  2  0
 19 20  1  0
 19 29  1  0
 20 21  2  0
 20 22  1  0
 23 22  1  1
 23 24  1  0
 23 28  1  0
 24 25  1  1
 24 26  1  0
 26 27  2  0
 29 28  1  6
 29 30  2  0
 29 31  2  0
 32 33  1  0
 33 34  2  0
 33 39  1  0
 34 35  1  0
 35 36  2  0
 36 37  1  0
 36 38  1  0
 38 39  2  0
 40 41  2  0
M  CHG  1  15   1
M  END
