
     RDKit          3D

 40 45  0  0  0  0  0  0  0  0999 V2000
   -8.6840    1.6760    0.1290 N   0  0  0  0  0  0  0  0  0  0  0  0
   -7.2920    1.3190    0.0410 C   0  0  0  0  0  0  0  0  0  0  0  0
   -7.0830   -0.1510    0.0970 C   0  0  0  0  0  0  0  0  0  0  0  0
   -8.1290   -1.0160    0.2180 C   0  0  0  0  0  0  0  0  0  0  0  0
   -7.8790   -2.3680    0.2650 C   0  0  0  0  0  0  0  0  0  0  0  0
   -6.5790   -2.8350    0.1900 C   0  0  0  0  0  0  0  0  0  0  0  0
   -5.5670   -1.9610    0.0710 N   0  0  0  0  0  0  0  0  0  0  0  0
   -5.8030   -0.6470    0.0250 C   0  0  0  0  0  0  0  0  0  0  0  0
   -4.7040    0.2050   -0.1000 O   0  0  0  0  0  0  0  0  0  0  0  0
   -3.9830    0.6140    1.0000 C   0  0  0  0  0  0  0  0  0  0  0  0
   -4.3310    0.1890    2.2540 C   0  0  0  0  0  0  0  0  0  0  0  0
   -3.6230    0.5850    3.3660 C   0  0  0  0  0  0  0  0  0  0  0  0
   -2.5490    1.4230    3.2130 C   0  0  0  0  0  0  0  0  0  0  0  0
   -2.1890    1.8550    1.9760 C   0  0  0  0  0  0  0  0  0  0  0  0
   -2.9070    1.4520    0.8450 C   0  0  0  0  0  0  0  0  0  0  0  0
   -2.4560    1.9490   -0.3580 O   0  0  0  0  0  0  0  0  0  0  0  0
   -2.0180    1.1820   -1.4100 C   0  0  0  0  0  0  0  0  0  0  0  0
   -2.8050    0.7930   -2.4720 C   0  0  0  0  0  0  0  0  0  0  0  0
   -2.3060    0.0170   -3.5050 C   0  0  0  0  0  0  0  0  0  0  0  0
   -0.9990   -0.3950   -3.5070 C   0  0  0  0  0  0  0  0  0  0  0  0
   -0.1770   -0.0280   -2.4620 C   0  0  0  0  0  0  0  0  0  0  0  0
    1.2310   -0.4670   -2.4540 C   0  0  0  0  0  0  0  0  0  0  0  0
    1.8700   -1.2090   -3.3510 N   0  0  0  0  0  0  0  0  0  0  0  0
    3.1360   -1.3680   -2.9520 N   0  0  0  0  0  0  0  0  0  0  0  0
    3.3000   -0.7210   -1.7940 C   0  0  0  0  0  0  0  0  0  0  0  0
    4.5050   -0.6080   -0.9750 C   0  0  0  0  0  0  0  0  0  0  0  0
    4.4190    0.0940    0.1380 C   0  0  0  0  0  0  0  0  0  0  0  0
    5.4110    0.3980    1.1600 C   0  0  0  0  0  0  0  0  0  0  0  0
    4.9710    1.4030    2.0100 C   0  0  0  0  0  0  0  0  0  0  0  0
    5.7540    1.8520    3.0560 C   0  0  0  0  0  0  0  0  0  0  0  0
    7.0030    1.3220    3.3020 C   0  0  0  0  0  0  0  0  0  0  0  0
    7.4380    0.3230    2.4560 C   0  0  0  0  0  0  0  0  0  0  0  0
    6.6580   -0.1260    1.4110 C   0  0  0  0  0  0  0  0  0  0  0  0
    7.3700   -1.1940    0.6730 C   0  0  0  0  0  0  0  0  0  0  0  0
    7.4680   -0.8810   -0.8060 C   0  0  1  0  0  0  0  0  0  0  0  0
    8.6140   -1.7190   -1.3490 C   0  0  0  0  0  0  0  0  0  0  0  0
    8.7550   -1.4720   -2.7160 O   0  0  0  0  0  0  0  0  0  0  0  0
    5.9620   -1.4450   -1.5920 S   0  0  0  0  0  0  0  0  0  0  0  0
    2.1230   -0.1660   -1.4880 N   0  0  0  0  0  0  0  0  0  0  0  0
   -0.6920    0.7430   -1.4470 C   0  0  0  0  0  0  0  0  0  0  0  0
  1  2  1  0
  2  3  1  0
  3  4  2  0
  3  8  1  0
  4  5  1  0
  5  6  2  0
  6  7  1  0
  7  8  2  0
  8  9  1  0
  9 10  1  0
 10 11  2  0
 10 15  1  0
 11 12  1  0
 12 13  2  0
 13 14  1  0
 14 15  2  0
 15 16  1  0
 16 17  1  0
 17 18  2  0
 17 40  1  0
 18 19  1  0
 19 20  2  0
 20 21  1  0
 21 22  1  0
 21 40  2  0
 22 23  2  0
 22 39  1  0
 23 24  1  0
 24 25  1  0
 25 26  1  0
 25 39  2  0
 26 27  2  0
 26 38  1  0
 27 28  1  0
 28 29  2  0
 28 33  1  0
 29 30  1  0
 30 31  2  0
 31 32  1  0
 32 33  2  0
 33 34  1  0
 34 35  1  0
 35 36  1  6
 35 38  1  0
 36 37  1  0
M  CHG  1   1   1
M  END
