
     RDKit          3D

 41 46  0  0  0  0  0  0  0  0999 V2000
    3.9160    0.6210   -0.2570 O   0  0  0  0  0  0  0  0  0  0  0  0
    4.1330   -0.1960   -1.1580 C   0  0  0  0  0  0  0  0  0  0  0  0
    4.7060   -1.5250   -0.9660 C   0  0  0  0  0  0  0  0  0  0  0  0
    5.0280   -1.8480    0.4190 C   0  0  0  0  0  0  0  0  0  0  0  0
    4.9330   -1.2390    1.5510 C   0  0  0  0  0  0  0  0  0  0  0  0
    5.3840   -1.9420    2.7550 C   0  0  0  0  0  0  0  0  0  0  0  0
    6.4910   -2.9110    2.4120 C   0  0  0  0  0  0  0  0  0  0  0  0
    5.7730   -3.4770    0.8060 S   0  0  0  0  0  0  0  0  0  0  0  0
    3.7790    0.2320   -2.4850 N   0  0  0  0  0  0  0  0  0  0  0  0
    3.2140    1.5130   -2.7620 C   0  0  0  0  0  0  0  0  0  0  0  0
    1.7700    1.5890   -2.3890 C   0  0  0  0  0  0  0  0  0  0  0  0
    1.0710    2.7670   -2.4960 C   0  0  0  0  0  0  0  0  0  0  0  0
   -0.2720    2.8250   -2.1480 C   0  0  0  0  0  0  0  0  0  0  0  0
   -0.9470    1.7160   -1.6860 C   0  0  0  0  0  0  0  0  0  0  0  0
   -2.2930    1.7600   -1.3320 O   0  0  0  0  0  0  0  0  0  0  0  0
   -3.0850    2.8690   -1.3530 C   0  0  0  0  0  0  0  0  0  0  0  0
   -4.1960    2.8910   -2.1990 C   0  0  0  0  0  0  0  0  0  0  0  0
   -4.9880    4.0200   -2.2090 C   0  0  0  0  0  0  0  0  0  0  0  0
   -4.7140    5.1150   -1.4140 C   0  0  0  0  0  0  0  0  0  0  0  0
   -3.5960    5.0530   -0.5830 C   0  0  0  0  0  0  0  0  0  0  0  0
   -2.7730    3.9480   -0.5370 C   0  0  0  0  0  0  0  0  0  0  0  0
   -1.6590    3.8860    0.2940 O   0  0  0  0  0  0  0  0  0  0  0  0
   -1.3260    4.9470    1.1190 C   0  0  0  0  0  0  0  0  0  0  0  0
   -1.8060    5.0690    2.4070 C   0  0  0  0  0  0  0  0  0  0  0  0
   -1.4730    6.1190    3.2190 C   0  0  0  0  0  0  0  0  0  0  0  0
   -0.6470    7.0600    2.7300 N   0  0  0  0  0  0  0  0  0  0  0  0
   -0.1610    6.9750    1.4820 C   0  0  0  0  0  0  0  0  0  0  0  0
   -0.4800    5.9320    0.6520 C   0  0  0  0  0  0  0  0  0  0  0  0
   -0.2350    0.5110   -1.5760 C   0  0  0  0  0  0  0  0  0  0  0  0
   -0.9570   -0.6450   -1.0940 C   0  0  0  0  0  0  0  0  0  0  0  0
   -0.2460   -1.8740   -0.9720 N   0  0  0  0  0  0  0  0  0  0  0  0
   -0.9450   -3.0210   -0.5140 C   0  0  0  0  0  0  0  0  0  0  0  0
   -0.7340   -4.2450   -0.2640 N   0  0  0  0  0  0  0  0  0  0  0  0
   -1.5650   -5.1000    0.1520 C   0  0  0  0  0  0  0  0  0  0  0  0
   -2.9020   -4.6480    0.3700 C   0  0  0  0  0  0  0  0  0  0  0  0
   -2.7660   -2.9650   -0.0780 S   0  0  0  0  0  0  0  0  0  0  0  0
   -3.8920   -5.5780    0.8440 C   0  0  0  0  0  0  0  0  0  0  0  0
   -3.3930   -6.3130    1.9630 N   0  0  0  0  0  0  0  0  0  0  0  0
   -2.0820   -6.8500    1.8130 C   0  0  0  0  0  0  0  0  0  0  0  0
   -1.4350   -6.5680    0.4830 C   0  0  0  0  0  0  0  0  0  0  0  0
    1.0850    0.4780   -1.9240 C   0  0  0  0  0  0  0  0  0  0  0  0
  1  2  2  0
  2  3  1  0
  2  9  1  0
  3  4  1  0
  4  5  2  0
  4  8  1  0
  5  6  1  0
  6  7  1  0
  7  8  1  0
  9 10  1  0
 10 11  1  0
 11 12  2  0
 11 41  1  0
 12 13  1  0
 13 14  2  0
 14 15  1  0
 14 29  1  0
 15 16  1  0
 16 17  2  0
 16 21  1  0
 17 18  1  0
 18 19  2  0
 19 20  1  0
 20 21  2  0
 21 22  1  0
 22 23  1  0
 23 24  2  0
 23 28  1  0
 24 25  1  0
 25 26  2  0
 26 27  1  0
 27 28  2  0
 29 30  1  0
 29 41  2  0
 30 31  1  0
 31 32  1  0
 32 33  2  0
 32 36  1  0
 33 34  1  0
 34 35  2  0
 34 40  1  0
 35 36  1  0
 35 37  1  0
 37 38  1  0
 38 39  1  0
 39 40  1  0
M  CHG  1  38   1
M  END
