
     RDKit          3D

 41 45  0  0  0  0  0  0  0  0999 V2000
    1.7990    2.9190   -3.4850 C   0  0  0  0  0  0  0  0  0  0  0  0
    1.8380    1.4800   -3.8820 C   0  0  0  0  0  0  0  0  0  0  0  0
    2.8170    0.7160   -3.2480 O   0  0  0  0  0  0  0  0  0  0  0  0
    2.9260    0.5040   -1.8810 C   0  0  0  0  0  0  0  0  0  0  0  0
    2.0660    1.0240   -0.9430 C   0  0  0  0  0  0  0  0  0  0  0  0
    2.2350    0.7710    0.4240 C   0  0  0  0  0  0  0  0  0  0  0  0
    3.2710   -0.0090    0.8750 C   0  0  0  0  0  0  0  0  0  0  0  0
    3.5050   -0.2780    2.3270 C   0  0  0  0  0  0  0  0  0  0  0  0
    2.9290   -1.3560    2.9180 C   0  0  0  0  0  0  0  0  0  0  0  0
    2.0600   -2.4500    2.4840 C   0  0  0  0  0  0  0  0  0  0  0  0
    1.7160   -3.3520    3.3300 O   0  0  0  0  0  0  0  0  0  0  0  0
    1.5520   -2.6160    1.2030 N   0  0  0  0  0  0  0  0  0  0  0  0
    0.7050   -3.7470    0.8860 C   0  0  0  0  0  0  0  0  0  0  0  0
    1.3140   -5.0940    0.9880 C   0  0  0  0  0  0  0  0  0  0  0  0
   -0.5380   -3.6270    0.5130 C   0  0  0  0  0  0  0  0  0  0  0  0
   -1.2420   -2.3780    0.3660 C   0  0  0  0  0  0  0  0  0  0  0  0
   -2.4890   -2.2270   -0.0070 C   0  0  0  0  0  0  0  0  0  0  0  0
   -3.2970   -3.3900   -0.3170 C   0  0  0  0  0  0  0  0  0  0  0  0
   -4.6370   -3.3930   -0.2180 C   0  0  0  0  0  0  0  0  0  0  0  0
   -5.2440   -2.1880    0.2120 N   0  0  0  0  0  0  0  0  0  0  0  0
   -4.4910   -1.0120    0.5290 C   0  0  0  0  0  0  0  0  0  0  0  0
   -4.9660   -0.1270    1.3190 N   0  0  0  0  0  0  0  0  0  0  0  0
   -3.1440   -0.8950   -0.1200 C   0  0  1  0  0  0  0  0  0  0  0  0
   -2.3640    0.1640    0.3800 N   0  0  0  0  0  0  0  0  0  0  0  0
   -2.0590    1.3980   -0.7530 S   0  0  1  0  0  0  0  0  0  0  0  0
   -1.1980    2.4540   -0.0700 O   0  0  0  0  0  0  0  0  0  0  0  0
   -1.2990    0.8620   -1.9620 O   0  0  0  0  0  0  0  0  0  0  0  0
   -3.4830    2.2260   -1.3530 C   0  0  2  0  0  0  0  0  0  0  0  0
   -4.4010    1.3850   -2.1880 C   0  0  0  0  0  0  0  0  0  0  0  0
   -5.0970    2.4590   -3.0260 C   0  0  0  0  0  0  0  0  0  0  0  0
   -4.1170    3.4850   -3.2590 N   0  0  0  0  0  0  0  0  0  0  0  0
   -3.0980    3.3920   -2.2590 C   0  0  0  0  0  0  0  0  0  0  0  0
    3.4910   -1.2460    4.5900 S   0  0  0  0  0  0  0  0  0  0  0  0
    4.4490    0.2140    4.4000 C   0  0  0  0  0  0  0  0  0  0  0  0
    5.2170    0.9330    5.3250 C   0  0  0  0  0  0  0  0  0  0  0  0
    5.8810    2.0630    4.9110 C   0  0  0  0  0  0  0  0  0  0  0  0
    5.7290    2.4000    3.5870 C   0  0  0  0  0  0  0  0  0  0  0  0
    4.9720    1.6860    2.6880 C   0  0  0  0  0  0  0  0  0  0  0  0
    4.2870    0.5200    3.1130 C   0  0  0  0  0  0  0  0  0  0  0  0
    4.1380   -0.5370   -0.0550 C   0  0  0  0  0  0  0  0  0  0  0  0
    3.9720   -0.2880   -1.4050 C   0  0  0  0  0  0  0  0  0  0  0  0
  1  2  1  0
  2  3  1  0
  3  4  1  0
  4  5  2  0
  4 41  1  0
  5  6  1  0
  6  7  2  0
  7  8  1  0
  7 40  1  0
  8  9  2  0
  8 39  1  0
  9 10  1  0
  9 33  1  0
 10 11  2  0
 10 12  1  0
 12 13  1  0
 13 14  1  0
 13 15  2  3
 15 16  1  0
 16 17  2  3
 17 18  1  0
 17 23  1  0
 18 19  2  0
 19 20  1  0
 20 21  1  0
 21 22  2  0
 21 23  1  0
 23 24  1  1
 25 24  1  1
 25 26  2  0
 25 27  2  0
 25 28  1  0
 28 29  1  6
 28 32  1  0
 29 30  1  0
 30 31  1  0
 31 32  1  0
 33 34  1  0
 34 35  2  0
 34 39  1  0
 35 36  1  0
 36 37  2  0
 37 38  1  0
 38 39  2  0
 40 41  2  0
M  CHG  1  22   1
M  END
