
     RDKit          3D

 41 45  0  0  0  0  0  0  0  0999 V2000
    1.0030   -0.7550   -6.5800 C   0  0  0  0  0  0  0  0  0  0  0  0
    1.4140   -0.4980   -5.1810 C   0  0  0  0  0  0  0  0  0  0  0  0
    2.7080   -0.7410   -4.7700 C   0  0  0  0  0  0  0  0  0  0  0  0
    3.0770   -0.4970   -3.4620 C   0  0  0  0  0  0  0  0  0  0  0  0
    2.1440   -0.0060   -2.5620 C   0  0  0  0  0  0  0  0  0  0  0  0
    0.8530    0.2330   -2.9890 C   0  0  0  0  0  0  0  0  0  0  0  0
    0.4630   -0.0090   -4.3090 C   0  0  0  0  0  0  0  0  0  0  0  0
   -0.0960    0.7240   -2.0730 N   0  0  0  0  0  0  0  0  0  0  0  0
   -1.4570    0.9780   -2.5110 C   0  0  0  0  0  0  0  0  0  0  0  0
   -2.2990   -0.2050   -2.3600 C   0  0  0  0  0  0  0  0  0  0  0  0
   -2.0500   -1.4130   -2.9920 O   0  0  0  0  0  0  0  0  0  0  0  0
   -3.4090   -0.1450   -1.5510 C   0  0  0  0  0  0  0  0  0  0  0  0
   -4.2380   -1.2820   -1.3920 C   0  0  0  0  0  0  0  0  0  0  0  0
   -5.2760   -1.5440   -0.7470 C   0  0  0  0  0  0  0  0  0  0  0  0
   -6.1050   -0.7730    0.1500 C   0  0  0  0  0  0  0  0  0  0  0  0
   -7.3160   -1.3310    0.6040 C   0  0  0  0  0  0  0  0  0  0  0  0
   -8.1300   -0.6700    1.4740 C   0  0  0  0  0  0  0  0  0  0  0  0
   -7.8420    0.5790    1.9750 C   0  0  0  0  0  0  0  0  0  0  0  0
   -8.7380    1.2880    2.9200 C   0  0  0  0  0  0  0  0  0  0  0  0
   -9.9240    0.4940    3.1770 N   0  0  0  0  0  0  0  0  0  0  0  0
   -6.6660    1.1350    1.5420 C   0  0  0  0  0  0  0  0  0  0  0  0
   -5.8180    0.4650    0.6460 C   0  0  0  0  0  0  0  0  0  0  0  0
    0.2910    0.9630   -0.7230 C   0  0  0  0  0  0  0  0  0  0  0  0
   -0.5410    1.0580    0.1890 O   0  0  0  0  0  0  0  0  0  0  0  0
    1.7310    1.1010   -0.4200 C   0  0  1  0  0  0  0  0  0  0  0  0
    2.0530    0.7510    1.0090 C   0  0  0  0  0  0  0  0  0  0  0  0
    3.4630    0.9580    1.2350 N   0  0  0  0  0  0  0  0  0  0  0  0
    4.0990    0.7220    2.4700 C   0  0  0  0  0  0  0  0  0  0  0  0
    3.3520    0.2700    3.5280 C   0  0  0  0  0  0  0  0  0  0  0  0
    3.9130    0.0200    4.7580 C   0  0  0  0  0  0  0  0  0  0  0  0
    5.2710    0.2420    4.8950 C   0  0  0  0  0  0  0  0  0  0  0  0
    5.9870    0.6840    3.8520 N   0  0  0  0  0  0  0  0  0  0  0  0
    5.4440    0.9290    2.6500 C   0  0  0  0  0  0  0  0  0  0  0  0
    6.4760    1.5260    1.2860 S   0  0  0  0  0  0  0  0  0  0  0  0
    7.1260    0.1140    0.3460 C   0  0  0  0  0  0  0  0  0  0  0  0
    8.0820   -0.6710    1.2130 C   0  0  0  0  0  0  0  0  0  0  0  0
    8.1400   -1.5480    1.9810 N   0  0  0  0  0  0  0  0  0  0  0  0
    9.1810   -2.0420    2.6100 C   0  0  0  0  0  0  0  0  0  0  0  0
   10.3830   -1.4590    2.3390 C   0  0  0  0  0  0  0  0  0  0  0  0
    9.9080   -0.1750    1.1380 S   0  0  0  0  0  0  0  0  0  0  0  0
    2.5080    0.2450   -1.2360 O   0  0  0  0  0  0  0  0  0  0  0  0
  1  2  1  0
  2  3  2  0
  2  7  1  0
  3  4  1  0
  4  5  2  0
  5  6  1  0
  5 41  1  0
  6  7  2  0
  6  8  1  0
  8  9  1  0
  8 23  1  0
  9 10  1  0
 10 11  1  0
 10 12  2  3
 12 13  1  0
 13 14  2  3
 14 15  1  0
 15 16  2  0
 15 22  1  0
 16 17  1  0
 17 18  2  0
 18 19  1  0
 18 21  1  0
 19 20  1  0
 21 22  2  0
 23 24  2  0
 23 25  1  0
 25 26  1  1
 25 41  1  0
 26 27  1  0
 27 28  1  0
 28 29  2  0
 28 33  1  0
 29 30  1  0
 30 31  2  0
 31 32  1  0
 32 33  2  0
 33 34  1  0
 34 35  1  0
 35 36  1  0
 36 37  2  0
 36 40  1  0
 37 38  1  0
 38 39  2  0
 39 40  1  0
M  CHG  1  20   1
M  END
