
     RDKit          3D

 16 16  0  0  0  0  0  0  0  0999 V2000
    1.4370   -2.3780   -2.1260 O   0  0  0  0  0  0  0  0  0  0  0  0
    1.4440   -1.8630   -0.9750 C   0  0  0  0  0  0  0  0  0  0  0  0
    1.9500   -0.5400   -0.8790 N   0  0  0  0  0  0  0  0  0  0  0  0
    2.2040    0.1510    0.3700 C   0  0  0  0  0  0  0  0  0  0  0  0
    1.7500    1.5930    0.1680 C   0  0  2  0  0  0  0  0  0  0  0  0
    2.3890    2.3690    1.1150 O   0  0  0  0  0  0  0  0  0  0  0  0
    0.2510    1.7240    0.2920 C   0  0  0  0  0  0  0  0  0  0  0  0
   -0.3760    1.0180   -0.7230 O   0  0  0  0  0  0  0  0  0  0  0  0
   -1.7430    1.2900   -0.7360 C   0  0  0  0  0  0  0  0  0  0  0  0
   -2.5170    0.1930   -0.0390 C   0  0  1  0  0  0  0  0  0  0  0  0
   -3.7870    0.1180   -0.5540 O   0  0  0  0  0  0  0  0  0  0  0  0
   -1.7780   -1.1370   -0.1230 C   0  0  0  0  0  0  0  0  0  0  0  0
   -0.9380   -1.2710    0.9780 O   0  0  0  0  0  0  0  0  0  0  0  0
    0.0890   -2.1780    1.1250 C   0  0  0  0  0  0  0  0  0  0  0  0
    0.2930   -2.6390    2.2780 O   0  0  0  0  0  0  0  0  0  0  0  0
    0.9500   -2.6510    0.0960 N   0  0  0  0  0  0  0  0  0  0  0  0
  1  2  2  0
  2  3  1  0
  2 16  1  0
  3  4  1  0
  4  5  1  0
  5  6  1  1
  5  7  1  0
  7  8  1  0
  8  9  1  0
  9 10  1  0
 10 11  1  6
 10 12  1  0
 12 13  1  0
 13 14  1  0
 14 15  2  0
 14 16  1  0
M  END
