
     RDKit          3D

 15 16  0  0  0  0  0  0  0  0999 V2000
   -3.1250   -0.4990   -1.5770 C   0  0  0  0  0  0  0  0  0  0  0  0
   -2.4100    0.3180   -0.4920 C   0  0  2  0  0  0  0  0  0  0  0  0
   -3.3190    1.3220   -0.0880 O   0  0  0  0  0  0  0  0  0  0  0  0
   -1.3050    0.9560   -0.9890 O   0  0  0  0  0  0  0  0  0  0  0  0
   -0.2250    0.8090   -0.1650 C   0  0  2  0  0  0  0  0  0  0  0  0
    0.9490    1.3440   -0.6150 O   0  0  0  0  0  0  0  0  0  0  0  0
    1.9140    0.7890    0.2090 C   0  0  2  0  0  0  0  0  0  0  0  0
    3.2390    0.7190   -0.4620 C   0  0  0  0  0  0  0  0  0  0  0  0
    4.3600    0.1810    0.2170 N   0  0  0  0  0  0  0  0  0  0  0  0
    3.3790    1.1310   -1.6280 O   0  0  0  0  0  0  0  0  0  0  0  0
    1.4650   -0.6490    0.4890 C   0  0  0  0  0  0  0  0  0  0  0  0
    0.1350   -0.6880   -0.1800 C   0  0  1  0  0  0  0  0  0  0  0  0
   -0.9050   -1.3140    0.6140 N   0  0  0  0  0  0  0  0  0  0  0  0
   -2.1460   -0.6230    0.6210 C   0  0  0  0  0  0  0  0  0  0  0  0
   -2.9760   -0.7980    1.5220 O   0  0  0  0  0  0  0  0  0  0  0  0
  2  1  1  6
  2  3  1  0
  2  4  1  0
  2 14  1  0
  5  4  1  6
  5  6  1  0
  5 12  1  0
  6  7  1  0
  7  8  1  6
  7 11  1  0
  8  9  1  0
  8 10  2  0
 12 11  1  1
 12 13  1  0
 13 14  1  0
 14 15  2  0
M  END
