
     RDKit          3D

 16 16  0  0  0  0  0  0  0  0999 V2000
    3.0270    1.1880    0.5640 C   0  0  0  0  0  0  0  0  0  0  0  0
    1.8750    0.3970    0.6220 O   0  0  0  0  0  0  0  0  0  0  0  0
    1.4690    0.1680   -0.6730 C   0  0  0  0  0  0  0  0  0  0  0  0
    0.2230   -0.6830   -0.7580 C   0  0  1  0  0  0  0  0  0  0  0  0
   -0.1920   -0.9160   -2.1080 N   0  0  0  0  0  0  0  0  0  0  0  0
    0.5140   -1.9370   -0.0140 C   0  0  0  0  0  0  0  0  0  0  0  0
    0.7320   -3.0170   -0.6080 O   0  0  0  0  0  0  0  0  0  0  0  0
    0.5160   -1.7800    1.3660 O   0  0  0  0  0  0  0  0  0  0  0  0
   -0.1960   -0.7580    2.0270 C   0  0  0  0  0  0  0  0  0  0  0  0
   -0.4670    0.3310    1.2290 O   0  0  0  0  0  0  0  0  0  0  0  0
   -0.9380   -0.0530   -0.0190 C   0  0  2  0  0  0  0  0  0  0  0  0
   -2.0510   -1.0510    0.1920 C   0  0  0  0  0  0  0  0  0  0  0  0
   -3.0500   -0.4200    0.9300 O   0  0  0  0  0  0  0  0  0  0  0  0
   -1.4560    1.0470   -0.8160 C   0  0  0  0  0  0  0  0  0  0  0  0
   -1.4720    2.3780   -0.3470 N   0  0  0  0  0  0  0  0  0  0  0  0
   -1.9070    0.8130   -1.9610 O   0  0  0  0  0  0  0  0  0  0  0  0
  1  2  1  0
  2  3  1  0
  3  4  1  0
  4  5  1  6
  4  6  1  0
  4 11  1  0
  6  7  2  0
  6  8  1  0
  8  9  1  0
  9 10  1  0
 10 11  1  0
 11 12  1  1
 11 14  1  0
 12 13  1  0
 14 15  1  0
 14 16  2  0
M  END
