
     RDKit          3D

 16 17  0  0  0  0  0  0  0  0999 V2000
    4.3630    0.0340    1.0810 C   0  0  0  0  0  0  0  0  0  0  0  0
    3.3000   -0.5430    0.3140 N   0  0  0  0  0  0  0  0  0  0  0  0
    3.5690   -1.0390   -1.0110 C   0  0  0  0  0  0  0  0  0  0  0  0
    2.0250   -0.6200    0.8470 N   0  0  0  0  0  0  0  0  0  0  0  0
    1.0180    0.0750    0.3950 C   0  0  0  0  0  0  0  0  0  0  0  0
    1.1690    1.0150   -0.7450 C   0  0  0  0  0  0  0  0  0  0  0  0
   -0.1290    2.2120   -0.1830 S   0  0  0  0  0  0  0  0  0  0  0  0
   -1.0340    0.9900    0.7530 C   0  0  0  0  0  0  0  0  0  0  0  0
   -2.3500    1.1300    1.1980 N   0  0  0  0  0  0  0  0  0  0  0  0
   -3.2890    0.5030    0.5740 C   0  0  0  0  0  0  0  0  0  0  0  0
   -4.7320    0.5140    0.8770 C   0  0  0  0  0  0  0  0  0  0  0  0
   -5.3370   -0.2590   -0.0050 C   0  0  0  0  0  0  0  0  0  0  0  0
   -4.3750   -0.8240   -0.9300 C   0  0  0  0  0  0  0  0  0  0  0  0
   -4.7660   -1.8970   -2.2430 Cl  0  0  0  0  0  0  0  0  0  0  0  0
   -3.1750   -0.3860   -0.6030 C   0  0  0  0  0  0  0  0  0  0  0  0
   -0.2570    0.0060    0.9220 N   0  0  0  0  0  0  0  0  0  0  0  0
  1  2  1  0
  2  3  1  0
  2  4  1  0
  4  5  2  3
  5  6  1  0
  5 16  1  0
  6  7  1  0
  7  8  1  0
  8  9  1  0
  8 16  2  0
  9 10  2  3
 10 11  1  0
 10 15  1  0
 11 12  2  0
 12 13  1  0
 13 14  1  0
 13 15  2  0
M  END
