
     RDKit          3D

 16 16  0  0  0  0  0  0  0  0999 V2000
    0.4320   -1.6180   -1.5640 C   0  0  0  0  0  0  0  0  0  0  0  0
    0.5300   -0.5600   -0.4510 C   0  0  2  0  0  0  0  0  0  0  0  0
   -0.6040   -0.8460    0.5030 C   0  0  1  0  0  0  0  0  0  0  0  0
   -0.4260   -2.1210    1.0570 O   0  0  0  0  0  0  0  0  0  0  0  0
   -0.7370    0.1420    1.6170 C   0  0  0  0  0  0  0  0  0  0  0  0
   -0.9220    1.4270    1.1580 O   0  0  0  0  0  0  0  0  0  0  0  0
   -1.8850   -0.8730   -0.2480 C   0  0  0  0  0  0  0  0  0  0  0  0
   -2.3890    0.2700   -0.9500 N   0  0  0  0  0  0  0  0  0  0  0  0
   -2.6030   -1.9040   -0.3100 O   0  0  0  0  0  0  0  0  0  0  0  0
    0.4360    0.7410   -1.0700 N   0  0  0  0  0  0  0  0  0  0  0  0
    1.1920    1.8350   -0.5660 C   0  0  0  0  0  0  0  0  0  0  0  0
    0.9520    2.9750   -1.0440 O   0  0  0  0  0  0  0  0  0  0  0  0
    2.2300    1.7290    0.4680 C   0  0  0  0  0  0  0  0  0  0  0  0
    2.5540    0.3920    0.7310 O   0  0  0  0  0  0  0  0  0  0  0  0
    1.8610   -0.6810    0.1860 C   0  0  0  0  0  0  0  0  0  0  0  0
    2.4250   -1.8090    0.2540 O   0  0  0  0  0  0  0  0  0  0  0  0
  2  1  1  6
  2  3  1  0
  2 10  1  0
  2 15  1  0
  3  4  1  1
  3  5  1  0
  3  7  1  0
  5  6  1  0
  7  8  1  0
  7  9  2  0
 10 11  1  0
 11 12  2  0
 11 13  1  0
 13 14  1  0
 14 15  1  0
 15 16  2  0
M  END
