
     RDKit          3D

 16 16  0  0  0  0  0  0  0  0999 V2000
   -4.9380   -0.9150   -0.0150 N   0  0  0  0  0  0  0  0  0  0  0  0
   -3.7670   -0.1970    0.2810 C   0  0  0  0  0  0  0  0  0  0  0  0
   -3.6860    0.4580    1.3350 O   0  0  0  0  0  0  0  0  0  0  0  0
   -2.6480   -0.2140   -0.6330 C   0  0  0  0  0  0  0  0  0  0  0  0
   -1.5170    0.4520   -0.3950 C   0  0  0  0  0  0  0  0  0  0  0  0
   -1.2450    1.2320    0.7200 O   0  0  0  0  0  0  0  0  0  0  0  0
   -0.0880    2.0250    0.4700 C   0  0  0  0  0  0  0  0  0  0  0  0
    0.7280    1.1020   -0.3880 C   0  0  1  0  0  0  0  0  0  0  0  0
    1.4660    0.1640    0.3260 O   0  0  0  0  0  0  0  0  0  0  0  0
    2.8310    0.0160    0.2850 C   0  0  0  0  0  0  0  0  0  0  0  0
    3.4800    0.7960   -0.4650 O   0  0  0  0  0  0  0  0  0  0  0  0
    3.5370   -0.9940    1.0640 C   0  0  0  0  0  0  0  0  0  0  0  0
    4.9440   -1.1020    0.9840 N   0  0  0  0  0  0  0  0  0  0  0  0
    2.9090   -1.7720    1.8100 O   0  0  0  0  0  0  0  0  0  0  0  0
   -0.3310    0.4850   -1.2780 C   0  0  1  0  0  0  0  0  0  0  0  0
    0.1120   -0.8250   -1.5720 O   0  0  0  0  0  0  0  0  0  0  0  0
  1  2  1  0
  2  3  2  0
  2  4  1  0
  4  5  2  3
  5  6  1  0
  5 15  1  0
  6  7  1  0
  7  8  1  0
  8  9  1  1
  8 15  1  0
  9 10  1  0
 10 11  2  0
 10 12  1  0
 12 13  1  0
 12 14  2  0
 15 16  1  1
M  END
