
     RDKit          3D

 34 37  0  0  0  0  0  0  0  0999 V2000
    0.6600    7.0270   -3.6200 C   0  0  0  0  0  0  0  0  0  0  0  0
    0.7250    5.6890   -3.0620 C   0  0  0  0  0  0  0  0  0  0  0  0
   -0.2330    5.1270   -2.3500 C   0  0  0  0  0  0  0  0  0  0  0  0
   -0.0550    3.7730   -1.8400 C   0  0  0  0  0  0  0  0  0  0  0  0
   -0.9530    3.0890   -1.1120 C   0  0  0  0  0  0  0  0  0  0  0  0
   -0.6180    1.7530   -0.6740 C   0  0  0  0  0  0  0  0  0  0  0  0
    0.5960    1.3560   -0.9420 O   0  0  0  0  0  0  0  0  0  0  0  0
   -1.3960    0.7690    0.0180 C   0  0  0  0  0  0  0  0  0  0  0  0
   -2.7570    0.7400   -0.0520 C   0  0  0  0  0  0  0  0  0  0  0  0
   -3.4460   -0.3020    0.4700 N   0  0  0  0  0  0  0  0  0  0  0  0
   -2.8770   -1.3480    1.0710 C   0  0  0  0  0  0  0  0  0  0  0  0
   -3.6980   -2.4000    1.5900 N   0  0  0  0  0  0  0  0  0  0  0  0
   -3.1220   -3.5500    2.2530 C   0  0  0  0  0  0  0  0  0  0  0  0
   -5.1270   -2.3050    1.4460 C   0  0  0  0  0  0  0  0  0  0  0  0
   -5.7200   -3.2930    0.4920 C   0  0  0  0  0  0  0  0  0  0  0  0
   -5.5330   -4.6730    0.8200 N   0  0  0  0  0  0  0  0  0  0  0  0
   -1.5560   -1.3500    1.1550 N   0  0  0  0  0  0  0  0  0  0  0  0
   -0.8090   -0.3250    0.6490 C   0  0  0  0  0  0  0  0  0  0  0  0
    0.6440   -0.3880    0.8070 C   0  0  0  0  0  0  0  0  0  0  0  0
    1.3190    0.6570    1.4020 C   0  0  0  0  0  0  0  0  0  0  0  0
    2.6880    0.5400    1.5180 C   0  0  0  0  0  0  0  0  0  0  0  0
    3.3860   -0.5650    1.0660 C   0  0  0  0  0  0  0  0  0  0  0  0
    4.7590   -0.6760    1.1860 C   0  0  0  0  0  0  0  0  0  0  0  0
    5.4660   -1.7790    0.7370 C   0  0  0  0  0  0  0  0  0  0  0  0
    6.9540   -1.8270    0.9030 C   0  0  0  0  0  0  0  0  0  0  0  0
    4.7930   -2.8280    0.1390 C   0  0  0  0  0  0  0  0  0  0  0  0
    5.5640   -4.0080   -0.3390 C   0  0  0  0  0  0  0  0  0  0  0  0
    3.4230   -2.7170    0.0200 C   0  0  0  0  0  0  0  0  0  0  0  0
    2.7200   -1.6140    0.4690 C   0  0  0  0  0  0  0  0  0  0  0  0
    1.3510   -1.5090    0.3480 C   0  0  0  0  0  0  0  0  0  0  0  0
   -2.1670    3.8250   -0.8410 C   0  0  0  0  0  0  0  0  0  0  0  0
   -2.4320    5.0090   -1.2320 N   0  0  0  0  0  0  0  0  0  0  0  0
   -1.4940    5.7920   -2.0320 C   0  0  0  0  0  0  0  0  0  0  0  0
   -1.7960    6.9230   -2.3860 N   0  0  0  0  0  0  0  0  0  0  0  0
  1  2  1  0
  2  3  2  3
  3  4  1  0
  3 33  1  0
  4  5  2  0
  5  6  1  0
  5 31  1  0
  6  7  2  0
  6  8  1  0
  8  9  2  0
  8 18  1  0
  9 10  1  0
 10 11  2  0
 11 12  1  0
 11 17  1  0
 12 13  1  0
 12 14  1  0
 14 15  1  0
 15 16  1  0
 17 18  2  0
 18 19  1  0
 19 20  2  0
 19 30  1  0
 20 21  1  0
 21 22  2  0
 22 23  1  0
 22 29  1  0
 23 24  2  0
 24 25  1  0
 24 26  1  0
 26 27  1  0
 26 28  2  0
 28 29  1  0
 29 30  2  0
 31 32  2  0
 32 33  1  0
 33 34  2  0
M  CHG  1  16   1
M  END
