
     RDKit          3D

 35 39  0  0  0  0  0  0  0  0999 V2000
   -8.1260   -0.3710    0.4360 C   0  0  0  0  0  0  0  0  0  0  0  0
   -7.2640   -1.4760   -0.1640 C   0  0  1  0  0  0  0  0  0  0  0  0
   -8.2440   -2.3620   -0.9430 C   0  0  0  0  0  0  0  0  0  0  0  0
   -6.2940   -0.9260   -1.1470 C   0  0  0  0  0  0  0  0  0  0  0  0
   -5.3450    0.0410   -0.6070 N   0  0  0  0  0  0  0  0  0  0  0  0
   -4.6160    0.5750   -1.7580 C   0  0  0  0  0  0  0  0  0  0  0  0
   -4.3490    2.0280   -1.4390 C   0  0  0  0  0  0  0  0  0  0  0  0
   -3.8890    2.1030    0.0090 C   0  0  0  0  0  0  0  0  0  0  0  0
   -2.7370    1.2390    0.1380 N   0  0  1  0  0  0  0  0  0  0  0  0
   -1.9380    1.6880    1.2360 C   0  0  0  0  0  0  0  0  0  0  0  0
   -0.4780    1.7940    0.8670 C   0  0  0  0  0  0  0  0  0  0  0  0
   -0.1070    3.0110    0.3080 C   0  0  0  0  0  0  0  0  0  0  0  0
    1.2230    3.1270   -0.0280 C   0  0  0  0  0  0  0  0  0  0  0  0
    2.1160    2.0580    0.1980 C   0  0  0  0  0  0  0  0  0  0  0  0
    3.7940    1.8240   -0.0700 S   0  0  0  0  0  0  0  0  0  0  0  0
    3.8420    0.0810    0.6080 C   0  0  0  0  0  0  0  0  0  0  0  0
    5.0240   -0.6860    0.6650 N   0  0  0  0  0  0  0  0  0  0  0  0
    6.3060   -0.3070    0.2640 C   0  0  0  0  0  0  0  0  0  0  0  0
    7.3800   -1.0920    0.3500 N   0  0  0  0  0  0  0  0  0  0  0  0
    8.4700   -0.4560   -0.1040 C   0  0  0  0  0  0  0  0  0  0  0  0
    9.8150   -0.9960   -0.1610 C   0  0  0  0  0  0  0  0  0  0  0  0
   10.0810   -2.2810    0.2750 C   0  0  0  0  0  0  0  0  0  0  0  0
   11.3680   -2.7710    0.2150 C   0  0  0  0  0  0  0  0  0  0  0  0
   12.4170   -2.0110   -0.2730 C   0  0  0  0  0  0  0  0  0  0  0  0
   12.1390   -0.7650   -0.6920 N   0  0  0  0  0  0  0  0  0  0  0  0
   10.8900   -0.2690   -0.6410 C   0  0  0  0  0  0  0  0  0  0  0  0
   10.5980    1.0300   -1.0770 O   0  0  0  0  0  0  0  0  0  0  0  0
    8.0530    0.7480   -0.4780 N   0  0  0  0  0  0  0  0  0  0  0  0
    6.7260    0.8400   -0.2530 N   0  0  0  0  0  0  0  0  0  0  0  0
    2.6430   -0.0390    0.9120 N   0  0  0  0  0  0  0  0  0  0  0  0
    1.7310    0.8680    0.7500 C   0  0  0  0  0  0  0  0  0  0  0  0
    0.3660    0.7590    1.0900 C   0  0  0  0  0  0  0  0  0  0  0  0
   -2.9750   -0.1480    0.1330 C   0  0  0  0  0  0  0  0  0  0  0  0
   -4.3820   -0.6360    0.2290 C   0  0  1  0  0  0  0  0  0  0  0  0
   -4.8100   -0.7590    1.6710 C   0  0  0  0  0  0  0  0  0  0  0  0
  2  1  1  6
  2  3  1  0
  2  4  1  0
  4  5  1  0
  5  6  1  0
  5 34  1  0
  6  7  1  0
  7  8  1  0
  8  9  1  0
  9 10  1  1
  9 33  1  0
 10 11  1  0
 11 12  2  0
 11 32  1  0
 12 13  1  0
 13 14  2  0
 14 15  1  0
 14 31  1  0
 15 16  1  0
 16 17  1  0
 16 30  2  0
 17 18  1  0
 18 19  2  0
 18 29  1  0
 19 20  1  0
 20 21  1  0
 20 28  2  0
 21 22  2  0
 21 26  1  0
 22 23  1  0
 23 24  2  0
 24 25  1  0
 25 26  2  0
 26 27  1  0
 28 29  1  0
 30 31  1  0
 31 32  2  0
 33 34  1  0
 34 35  1  1
M  CHG  1   9   1
M  END
