
     RDKit          3D

 35 39  0  0  0  0  0  0  0  0999 V2000
   -6.8170    4.1050    0.0530 C   0  0  0  0  0  0  0  0  0  0  0  0
   -8.1600    2.8460   -0.1110 S   0  0  0  0  0  0  0  0  0  0  0  0
   -7.4080    1.2260    0.2490 C   0  0  0  0  0  0  0  0  0  0  0  0
   -6.8740    0.5250   -0.9100 C   0  0  0  0  0  0  0  0  0  0  0  0
   -7.7700    0.0290   -1.9030 C   0  0  0  0  0  0  0  0  0  0  0  0
   -7.3500   -0.8920   -2.8350 C   0  0  0  0  0  0  0  0  0  0  0  0
   -6.0680   -1.3580   -2.8610 C   0  0  0  0  0  0  0  0  0  0  0  0
   -5.1210   -0.8890   -1.8910 C   0  0  0  0  0  0  0  0  0  0  0  0
   -5.5690    0.0010   -0.9900 C   0  0  0  0  0  0  0  0  0  0  0  0
   -4.7360    0.4760    0.1260 C   0  0  0  0  0  0  0  0  0  0  0  0
   -5.1200    1.2230    1.1480 N   0  0  0  0  0  0  0  0  0  0  0  0
   -4.2620    1.2950    2.0840 N   0  0  0  0  0  0  0  0  0  0  0  0
   -3.2110    0.5440    1.6810 C   0  0  0  0  0  0  0  0  0  0  0  0
   -2.0150    0.3290    2.5310 C   0  0  0  0  0  0  0  0  0  0  0  0
   -3.4750    0.0200    0.4040 N   0  0  0  0  0  0  0  0  0  0  0  0
   -2.4990   -0.5190   -0.3970 N   0  0  0  0  0  0  0  0  0  0  0  0
   -1.5450   -1.4830    0.0170 C   0  0  0  0  0  0  0  0  0  0  0  0
   -1.7780   -1.9850    1.1690 O   0  0  0  0  0  0  0  0  0  0  0  0
   -0.4080   -1.9260   -0.6270 N   0  0  0  0  0  0  0  0  0  0  0  0
    0.4810   -2.9460   -0.0470 C   0  0  2  0  0  0  0  0  0  0  0  0
    0.8860   -2.2640    1.3180 C   0  0  0  0  0  0  0  0  0  0  0  0
    1.9790   -1.3580    0.7330 C   0  0  0  0  0  0  0  0  0  0  0  0
    2.8100   -2.3910    0.1400 N   0  0  0  0  0  0  0  0  0  0  0  0
    3.8520   -1.8660   -0.6520 C   0  0  0  0  0  0  0  0  0  0  0  0
    4.7790   -0.9630    0.0700 C   0  0  0  0  0  0  0  0  0  0  0  0
    4.9410   -0.8210    1.4340 C   0  0  0  0  0  0  0  0  0  0  0  0
    5.9140    0.1300    1.6620 N   0  0  0  0  0  0  0  0  0  0  0  0
    6.3270    0.5550    0.4680 C   0  0  0  0  0  0  0  0  0  0  0  0
    7.4050    1.5040    0.1850 C   0  0  0  0  0  0  0  0  0  0  0  0
    8.6970    1.0670    0.1180 C   0  0  0  0  0  0  0  0  0  0  0  0
    9.5860    2.2090   -0.1620 C   0  0  0  0  0  0  0  0  0  0  0  0
    8.6540    3.4010   -0.2520 C   0  0  0  0  0  0  0  0  0  0  0  0
    7.4350    2.9160   -0.0380 C   0  0  0  0  0  0  0  0  0  0  0  0
    5.6350   -0.1030   -0.4730 N   0  0  0  0  0  0  0  0  0  0  0  0
    1.7850   -3.0570   -0.7130 C   0  0  0  0  0  0  0  0  0  0  0  0
  1  2  1  0
  2  3  1  0
  3  4  1  0
  4  5  2  0
  4  9  1  0
  5  6  1  0
  6  7  2  0
  7  8  1  0
  8  9  2  0
  9 10  1  0
 10 11  2  0
 10 15  1  0
 11 12  1  0
 12 13  2  0
 13 14  1  0
 13 15  1  0
 15 16  1  0
 16 17  1  0
 17 18  2  0
 17 19  1  0
 20 19  1  6
 20 21  1  0
 20 35  1  0
 21 22  1  0
 22 23  1  0
 23 24  1  0
 23 35  1  0
 24 25  1  0
 25 26  2  0
 25 34  1  0
 26 27  1  0
 27 28  1  0
 28 29  1  0
 28 34  2  0
 29 30  2  0
 29 33  1  0
 30 31  1  0
 31 32  1  0
 32 33  2  0
M  CHG  1  34   1
M  END
