
     RDKit          3D

 35 37  0  0  0  0  0  0  0  0999 V2000
   -6.7210    0.4630    2.9080 C   0  0  0  0  0  0  0  0  0  0  0  0
   -5.2270    0.6390    3.0770 C   0  0  0  0  0  0  0  0  0  0  0  0
   -4.4970    0.3120    1.8190 C   0  0  2  0  0  0  0  0  0  0  0  0
   -4.7040   -1.1060    1.3440 C   0  0  0  0  0  0  0  0  0  0  0  0
   -4.2840   -1.1020   -0.1040 C   0  0  0  0  0  0  0  0  0  0  0  0
   -2.8740   -0.6510   -0.1870 N   0  0  0  0  0  0  0  0  0  0  0  0
   -2.0850   -1.3820   -1.0820 C   0  0  0  0  0  0  0  0  0  0  0  0
   -2.5340   -2.3900   -1.7060 O   0  0  0  0  0  0  0  0  0  0  0  0
   -0.6440   -0.9940   -1.3540 C   0  0  2  0  0  0  0  0  0  0  0  0
   -0.6850   -0.1830   -2.6300 C   0  0  0  0  0  0  0  0  0  0  0  0
   -1.5630    1.0400   -2.4720 C   0  0  0  0  0  0  0  0  0  0  0  0
   -1.5570    1.8230   -3.7890 C   0  0  0  0  0  0  0  0  0  0  0  0
   -2.3930    2.9860   -3.6880 N   0  0  0  0  0  0  0  0  0  0  0  0
   -2.0990    3.9650   -2.9440 C   0  0  0  0  0  0  0  0  0  0  0  0
   -0.9250    3.9730   -2.1600 N   0  0  0  0  0  0  0  0  0  0  0  0
   -2.9530    5.0900   -2.8800 N   0  0  0  0  0  0  0  0  0  0  0  0
   -0.0300   -2.3060   -1.6050 N   0  0  0  0  0  0  0  0  0  0  0  0
    1.0910   -2.8140   -0.4220 S   0  0  1  0  0  0  0  0  0  0  0  0
    0.2860   -3.2000    0.7380 O   0  0  0  0  0  0  0  0  0  0  0  0
    1.6040   -4.1640   -0.9740 O   0  0  0  0  0  0  0  0  0  0  0  0
    2.4340   -1.8370   -0.3060 C   0  0  0  0  0  0  0  0  0  0  0  0
    2.7090   -0.9030   -1.2940 C   0  0  0  0  0  0  0  0  0  0  0  0
    3.8780   -0.1310   -1.2920 C   0  0  0  0  0  0  0  0  0  0  0  0
    4.7940   -0.2850   -0.2930 C   0  0  0  0  0  0  0  0  0  0  0  0
    4.5700   -1.1870    0.6960 C   0  0  0  0  0  0  0  0  0  0  0  0
    5.5220   -1.3050    1.6950 C   0  0  0  0  0  0  0  0  0  0  0  0
    6.7190   -0.5420    1.6810 N   0  0  0  0  0  0  0  0  0  0  0  0
    7.7090   -0.7640    0.6530 C   0  0  0  0  0  0  0  0  0  0  0  0
    6.9370    0.4580    2.7150 C   0  0  0  0  0  0  0  0  0  0  0  0
    5.2890   -2.2190    2.7100 C   0  0  0  0  0  0  0  0  0  0  0  0
    4.1430   -2.9810    2.7170 C   0  0  0  0  0  0  0  0  0  0  0  0
    3.1990   -2.8470    1.7060 C   0  0  0  0  0  0  0  0  0  0  0  0
    3.4140   -1.9430    0.6850 C   0  0  0  0  0  0  0  0  0  0  0  0
   -2.3900    0.4130    0.6050 C   0  0  0  0  0  0  0  0  0  0  0  0
   -3.0040    0.4550    2.0130 C   0  0  0  0  0  0  0  0  0  0  0  0
  1  2  1  0
  3  2  1  1
  3  4  1  0
  3 35  1  0
  4  5  1  0
  5  6  1  0
  6  7  1  0
  6 34  1  0
  7  8  2  0
  7  9  1  0
  9 10  1  6
  9 17  1  0
 10 11  1  0
 11 12  1  0
 12 13  1  0
 13 14  2  3
 14 15  1  0
 14 16  1  0
 18 17  1  6
 18 19  2  0
 18 20  2  0
 18 21  1  0
 21 22  2  0
 21 33  1  0
 22 23  1  0
 23 24  2  0
 24 25  1  0
 25 26  2  0
 25 33  1  0
 26 27  1  0
 26 30  1  0
 27 28  1  0
 27 29  1  0
 30 31  2  0
 31 32  1  0
 32 33  2  0
 34 35  1  0
M  CHG  1  13   1
M  END
