
     RDKit          3D

 34 37  0  0  0  0  0  0  0  0999 V2000
   -8.6910   -0.9040    1.1310 C   0  0  0  0  0  0  0  0  0  0  0  0
   -7.4820   -0.7050    0.6890 C   0  0  0  0  0  0  0  0  0  0  0  0
   -6.7830   -1.8500    0.2030 C   0  0  0  0  0  0  0  0  0  0  0  0
   -5.5140   -1.7660   -0.2800 C   0  0  0  0  0  0  0  0  0  0  0  0
   -4.8420   -0.5700   -0.3240 C   0  0  0  0  0  0  0  0  0  0  0  0
   -3.4880   -0.4950   -0.7040 N   0  0  0  0  0  0  0  0  0  0  0  0
   -2.8480   -1.3570   -1.6150 C   0  0  0  0  0  0  0  0  0  0  0  0
   -3.4750   -2.1120   -2.5610 C   0  0  0  0  0  0  0  0  0  0  0  0
   -2.8100   -2.8880   -3.5000 C   0  0  0  0  0  0  0  0  0  0  0  0
   -1.4400   -2.9040   -3.4860 C   0  0  0  0  0  0  0  0  0  0  0  0
   -0.7520   -2.1640   -2.5580 C   0  0  0  0  0  0  0  0  0  0  0  0
   -1.4400   -1.3950   -1.6300 C   0  0  0  0  0  0  0  0  0  0  0  0
   -0.7710   -0.6360   -0.6490 N   0  0  0  0  0  0  0  0  0  0  0  0
   -0.8920   -0.9910    0.7440 C   0  0  0  0  0  0  0  0  0  0  0  0
    0.5110   -1.4990    1.1340 C   0  0  0  0  0  0  0  0  0  0  0  0
    1.5530   -0.4740    0.8330 C   0  0  0  0  0  0  0  0  0  0  0  0
    1.4410    0.1980   -0.4730 C   0  0  0  0  0  0  0  0  0  0  0  0
    2.4370    0.5340   -1.1740 N   0  0  0  0  0  0  0  0  0  0  0  0
    3.7660    0.3900   -0.9500 N   0  0  0  0  0  0  0  0  0  0  0  0
    4.5200    0.8340    0.1690 C   0  0  0  0  0  0  0  0  0  0  0  0
    3.9010    1.4170    1.0990 O   0  0  0  0  0  0  0  0  0  0  0  0
    5.9270    0.6440    0.2620 N   0  0  0  0  0  0  0  0  0  0  0  0
    6.7020    1.0980    1.4120 C   0  0  2  0  0  0  0  0  0  0  0  0
    7.4120    2.4180    1.0310 C   0  0  0  0  0  0  0  0  0  0  0  0
    8.0820    2.1400   -0.2770 C   0  0  0  0  0  0  0  0  0  0  0  0
    9.0520    1.0210   -0.1410 C   0  0  0  0  0  0  0  0  0  0  0  0
    8.6010   -0.1270    0.5670 N   0  0  0  0  0  0  0  0  0  0  0  0
    7.7910    0.1350    1.7330 C   0  0  0  0  0  0  0  0  0  0  0  0
    0.0370    0.4990   -0.9820 C   0  0  0  0  0  0  0  0  0  0  0  0
   -5.5070    0.5350    0.1400 C   0  0  0  0  0  0  0  0  0  0  0  0
   -4.8510    1.8750    0.0420 C   0  0  0  0  0  0  0  0  0  0  0  0
   -6.8340    0.5030    0.6580 C   0  0  0  0  0  0  0  0  0  0  0  0
   -7.3550    1.6170    1.0720 C   0  0  0  0  0  0  0  0  0  0  0  0
   -8.6510    1.9260    1.6400 C   0  0  0  0  0  0  0  0  0  0  0  0
  1  2  2  0
  2  3  1  0
  2 32  1  0
  3  4  2  0
  4  5  1  0
  5  6  1  0
  5 30  2  0
  6  7  1  0
  7  8  2  0
  7 12  1  0
  8  9  1  0
  9 10  2  0
 10 11  1  0
 11 12  2  0
 12 13  1  0
 13 14  1  0
 13 29  1  0
 14 15  1  0
 15 16  1  0
 16 17  1  0
 17 18  2  3
 17 29  1  0
 18 19  1  0
 19 20  1  0
 20 21  2  0
 20 22  1  0
 23 22  1  6
 23 24  1  0
 23 28  1  0
 24 25  1  0
 25 26  1  0
 26 27  1  0
 27 28  1  0
 30 31  1  0
 30 32  1  0
 32 33  2  3
 33 34  1  0
M  CHG  1  27   1
M  END
