
     RDKit          3D

 29 31  0  0  0  0  0  0  0  0999 V2000
   -5.8510   -2.1850   -0.8830 C   0  0  0  0  0  0  0  0  0  0  0  0
   -4.4270   -1.8080   -0.7840 C   0  0  0  0  0  0  0  0  0  0  0  0
   -3.9880   -1.2490    0.3860 C   0  0  0  0  0  0  0  0  0  0  0  0
   -2.6610   -0.8650    0.5760 C   0  0  0  0  0  0  0  0  0  0  0  0
   -1.7260   -1.0640   -0.4730 C   0  0  0  0  0  0  0  0  0  0  0  0
   -2.2190   -1.6310   -1.6380 C   0  0  0  0  0  0  0  0  0  0  0  0
   -3.5410   -2.0050   -1.8160 C   0  0  0  0  0  0  0  0  0  0  0  0
   -4.0380   -2.6060   -3.0720 C   0  0  0  0  0  0  0  0  0  0  0  0
   -0.4360   -0.7510   -0.3830 O   0  0  0  0  0  0  0  0  0  0  0  0
    0.7500   -0.6840    0.1360 C   0  0  0  0  0  0  0  0  0  0  0  0
    1.2050   -1.1440    1.3540 C   0  0  0  0  0  0  0  0  0  0  0  0
    2.4910   -1.0220    1.8130 C   0  0  0  0  0  0  0  0  0  0  0  0
    2.9410   -1.5410    3.1400 C   0  0  0  0  0  0  0  0  0  0  0  0
    3.4200   -0.4060    1.0360 C   0  0  0  0  0  0  0  0  0  0  0  0
    4.7320   -0.2760    1.4930 O   0  0  0  0  0  0  0  0  0  0  0  0
    5.6520    0.3770    0.6440 C   0  0  0  0  0  0  0  0  0  0  0  0
    7.0000    0.4390    1.2380 C   0  0  0  0  0  0  0  0  0  0  0  0
    7.2640   -0.0350    2.3300 O   0  0  0  0  0  0  0  0  0  0  0  0
    3.0430    0.0810   -0.1930 C   0  0  0  0  0  0  0  0  0  0  0  0
    1.7710   -0.0390   -0.6490 C   0  0  0  0  0  0  0  0  0  0  0  0
    1.3900    0.4700   -1.9590 C   0  0  0  0  0  0  0  0  0  0  0  0
    1.7160    1.8510   -2.2920 C   0  0  0  0  0  0  0  0  0  0  0  0
    1.3880    2.8400   -1.4990 C   0  0  0  0  0  0  0  0  0  0  0  0
    0.6780    2.7910   -0.2080 C   0  0  0  0  0  0  0  0  0  0  0  0
   -0.8200    2.6120   -0.3440 C   0  0  0  0  0  0  0  0  0  0  0  0
   -1.5720    2.9720    0.8560 C   0  0  0  0  0  0  0  0  0  0  0  0
   -2.0440    2.2940    1.8570 C   0  0  0  0  0  0  0  0  0  0  0  0
   -2.0880    0.9440    2.3000 C   0  0  0  0  0  0  0  0  0  0  0  0
   -2.3150   -0.2570    1.8650 C   0  0  0  0  0  0  0  0  0  0  0  0
  1  2  1  0
  2  3  2  0
  2  7  1  0
  3  4  1  0
  4  5  2  0
  4 29  1  0
  5  6  1  0
  5  9  1  0
  6  7  2  0
  7  8  1  0
  9 10  1  0
 10 11  2  0
 10 20  1  0
 11 12  1  0
 12 13  1  0
 12 14  2  0
 14 15  1  0
 14 19  1  0
 15 16  1  0
 16 17  1  0
 17 18  2  0
 19 20  2  0
 20 21  1  0
 21 22  1  0
 22 23  2  0
 23 24  1  0
 24 25  1  0
 25 26  1  0
 26 27  2  0
 27 28  1  0
 28 29  2  0
M  END
