
     RDKit          3D

 29 33  0  0  0  0  0  0  0  0999 V2000
    7.4790    2.2630    1.2470 N   0  0  0  0  0  0  0  0  0  0  0  0
    6.9440    0.9860    0.9250 C   0  0  0  0  0  0  0  0  0  0  0  0
    7.7030   -0.0160    0.9190 O   0  0  0  0  0  0  0  0  0  0  0  0
    5.5320    0.8240    0.6040 C   0  0  0  0  0  0  0  0  0  0  0  0
    4.5900    1.7960    0.5670 N   0  0  0  0  0  0  0  0  0  0  0  0
    3.4180    1.2150    0.2260 C   0  0  0  0  0  0  0  0  0  0  0  0
    3.5860   -0.0950    0.0470 N   0  0  0  0  0  0  0  0  0  0  0  0
    4.8810   -0.3410    0.2770 C   0  0  0  0  0  0  0  0  0  0  0  0
    5.5040   -1.6090    0.1990 N   0  0  0  0  0  0  0  0  0  0  0  0
    2.4640   -0.8620   -0.3070 N   0  0  0  0  0  0  0  0  0  0  0  0
    1.2700   -0.4080   -0.4740 C   0  0  0  0  0  0  0  0  0  0  0  0
    0.1890   -1.3590   -0.8510 C   0  0  0  0  0  0  0  0  0  0  0  0
    0.4100   -2.7050   -1.0220 C   0  0  0  0  0  0  0  0  0  0  0  0
   -0.6700   -3.5250   -1.3750 C   0  0  0  0  0  0  0  0  0  0  0  0
   -0.4440   -4.9240   -1.5530 N   0  0  0  0  0  0  0  0  0  0  0  0
   -1.9160   -3.0000   -1.5470 C   0  0  0  0  0  0  0  0  0  0  0  0
   -2.1620   -1.6460   -1.3800 C   0  0  0  0  0  0  0  0  0  0  0  0
   -1.0850   -0.8240   -1.0270 C   0  0  0  0  0  0  0  0  0  0  0  0
   -1.3980    0.5160   -0.8770 O   0  0  0  0  0  0  0  0  0  0  0  0
   -2.6680    0.8510   -0.3640 C   0  0  1  0  0  0  0  0  0  0  0  0
   -2.9280    0.1600    0.9350 C   0  0  0  0  0  0  0  0  0  0  0  0
   -3.4450    1.0550    2.0150 C   0  0  0  0  0  0  0  0  0  0  0  0
   -4.5580    1.9220    1.4750 C   0  0  0  0  0  0  0  0  0  0  0  0
   -4.0680    2.7900    0.3560 C   0  0  0  0  0  0  0  0  0  0  0  0
   -2.7720    2.3510   -0.2330 C   0  0  0  0  0  0  0  0  0  0  0  0
   -3.6640    0.3450   -1.4090 C   0  0  0  0  0  0  0  0  0  0  0  0
   -3.5360   -1.1170   -1.5790 C   0  0  0  0  0  0  0  0  0  0  0  0
    0.9930    1.0190   -0.2820 C   0  0  0  0  0  0  0  0  0  0  0  0
    2.1530    1.7850    0.0480 N   0  0  0  0  0  0  0  0  0  0  0  0
  1  2  1  0
  2  3  2  0
  2  4  1  0
  4  5  1  0
  4  8  2  0
  5  6  2  0
  6  7  1  0
  6 29  1  0
  7  8  1  0
  7 10  1  0
  8  9  1  0
 10 11  2  0
 11 12  1  0
 11 28  1  0
 12 13  2  0
 12 18  1  0
 13 14  1  0
 14 15  1  0
 14 16  2  0
 16 17  1  0
 17 18  2  0
 17 27  1  0
 18 19  1  0
 19 20  1  0
 20 21  1  1
 20 25  1  0
 20 26  1  0
 21 22  1  0
 22 23  1  0
 23 24  1  0
 24 25  1  0
 26 27  1  0
 28 29  1  0
M  CHG  1  10   1
M  END
