
     RDKit          3D

 29 32  0  0  0  0  0  0  0  0999 V2000
   -6.9820   -2.7860   -0.7850 N   0  0  0  0  0  0  0  0  0  0  0  0
   -5.7300   -2.1250   -0.9390 C   0  0  0  0  0  0  0  0  0  0  0  0
   -5.3840   -0.9410   -0.4700 C   0  0  0  0  0  0  0  0  0  0  0  0
   -6.2310   -0.0910    0.2940 N   0  0  0  0  0  0  0  0  0  0  0  0
   -4.0240   -0.6170   -0.8380 C   0  0  0  0  0  0  0  0  0  0  0  0
   -3.3400    0.5730   -0.5000 N   0  0  0  0  0  0  0  0  0  0  0  0
   -2.0140    0.9000   -0.8520 C   0  0  0  0  0  0  0  0  0  0  0  0
   -1.3480    0.0830   -1.5300 O   0  0  0  0  0  0  0  0  0  0  0  0
   -1.3910    2.2120   -0.4270 C   0  0  1  0  0  0  0  0  0  0  0  0
   -1.3990    2.2520    1.0410 C   0  0  0  0  0  0  0  0  0  0  0  0
   -0.2250    1.7020    1.7530 C   0  0  0  0  0  0  0  0  0  0  0  0
    0.8410    2.7360    2.0400 C   0  0  0  0  0  0  0  0  0  0  0  0
    1.3940    3.2760    0.7360 C   0  0  0  0  0  0  0  0  0  0  0  0
    1.0740    2.3220   -0.2890 N   0  0  0  0  0  0  0  0  0  0  0  0
    1.9790    1.2540   -0.5090 C   0  0  0  0  0  0  0  0  0  0  0  0
    1.7320    0.3930   -1.4080 O   0  0  0  0  0  0  0  0  0  0  0  0
    3.1510    1.1320    0.2560 N   0  0  0  0  0  0  0  0  0  0  0  0
    4.0680    0.0420    0.0270 C   0  0  0  0  0  0  0  0  0  0  0  0
    3.9530   -0.9440   -0.8790 N   0  0  0  0  0  0  0  0  0  0  0  0
    5.0180   -1.7760   -0.7840 C   0  0  0  0  0  0  0  0  0  0  0  0
    5.4040   -2.9280   -1.4580 C   0  0  0  0  0  0  0  0  0  0  0  0
    6.5720   -3.5970   -1.1520 C   0  0  0  0  0  0  0  0  0  0  0  0
    7.3660   -3.0760   -0.1320 C   0  0  0  0  0  0  0  0  0  0  0  0
    6.9920   -1.9310    0.5460 C   0  0  0  0  0  0  0  0  0  0  0  0
    5.8200   -1.2790    0.2220 C   0  0  0  0  0  0  0  0  0  0  0  0
    5.2050   -0.1690    0.6920 N   0  0  0  0  0  0  0  0  0  0  0  0
   -0.1060    2.3500   -1.1290 C   0  0  0  0  0  0  0  0  0  0  0  0
   -3.5480   -1.6200   -1.5360 C   0  0  0  0  0  0  0  0  0  0  0  0
   -4.5910   -2.6870   -1.6720 C   0  0  0  0  0  0  0  0  0  0  0  0
  1  2  1  0
  2  3  2  0
  2 29  1  0
  3  4  1  0
  3  5  1  0
  5  6  1  0
  5 28  2  0
  6  7  1  0
  7  8  2  0
  9  7  1  1
  9 10  1  0
  9 27  1  0
 10 11  1  0
 11 12  1  0
 12 13  1  0
 13 14  1  0
 14 15  1  0
 14 27  1  0
 15 16  2  0
 15 17  1  0
 17 18  1  0
 18 19  2  0
 18 26  1  0
 19 20  1  0
 20 21  2  0
 20 25  1  0
 21 22  1  0
 22 23  2  0
 23 24  1  0
 24 25  2  0
 25 26  1  0
 28 29  1  0
M  CHG  1   4   1
M  END
