
     RDKit          3D

 23 25  0  0  0  0  0  0  0  0999 V2000
    8.1740    1.7930   -0.5260 N   0  0  0  0  0  0  0  0  0  0  0  0
    7.5390    0.6020   -0.0800 C   0  0  0  0  0  0  0  0  0  0  0  0
    8.3050   -0.3360    0.3090 O   0  0  0  0  0  0  0  0  0  0  0  0
    6.1120    0.4470   -0.0630 C   0  0  0  0  0  0  0  0  0  0  0  0
    5.5620   -0.6720    0.3560 C   0  0  0  0  0  0  0  0  0  0  0  0
    4.1600   -0.8430    0.3800 C   0  0  0  0  0  0  0  0  0  0  0  0
    3.2720   -1.8010    0.7270 C   0  0  0  0  0  0  0  0  0  0  0  0
    2.0160   -1.5470    0.5890 N   0  0  0  0  0  0  0  0  0  0  0  0
    1.4700   -0.5460    0.1820 C   0  0  0  0  0  0  0  0  0  0  0  0
    0.1800    0.0290   -0.0820 N   0  0  0  0  0  0  0  0  0  0  0  0
   -1.0030   -0.6930    0.1630 C   0  0  0  0  0  0  0  0  0  0  0  0
   -0.7980   -1.8820    0.6340 O   0  0  0  0  0  0  0  0  0  0  0  0
   -2.3400   -0.2300   -0.0580 C   0  0  0  0  0  0  0  0  0  0  0  0
   -3.4110   -1.0910    0.2450 C   0  0  0  0  0  0  0  0  0  0  0  0
   -4.7240   -0.7220    0.0610 C   0  0  0  0  0  0  0  0  0  0  0  0
   -5.0170    0.5270   -0.4360 C   0  0  0  0  0  0  0  0  0  0  0  0
   -3.9870    1.3740   -0.7350 C   0  0  0  0  0  0  0  0  0  0  0  0
   -2.6740    0.9810   -0.5420 C   0  0  0  0  0  0  0  0  0  0  0  0
   -1.7110    1.9060   -0.8730 O   0  0  0  0  0  0  0  0  0  0  0  0
   -6.3310    0.6810   -0.5370 C   0  0  0  0  0  0  0  0  0  0  0  0
   -6.9220   -0.5180   -0.0860 N   0  0  0  0  0  0  0  0  0  0  0  0
   -5.8640   -1.3640    0.2760 C   0  0  0  0  0  0  0  0  0  0  0  0
    2.9810    0.4970   -0.1790 S   0  0  0  0  0  0  0  0  0  0  0  0
  1  2  1  0
  2  3  2  0
  2  4  1  0
  4  5  2  3
  5  6  1  0
  6  7  2  0
  6 23  1  0
  7  8  1  0
  8  9  2  0
  9 10  1  0
  9 23  1  0
 10 11  1  0
 11 12  2  0
 11 13  1  0
 13 14  2  0
 13 18  1  0
 14 15  1  0
 15 16  1  0
 15 22  2  0
 16 17  1  0
 16 20  2  0
 17 18  2  0
 18 19  1  0
 20 21  1  0
 21 22  1  0
M  CHG  1  21   1
M  END
