
     RDKit          3D

 23 24  0  0  0  0  0  0  0  0999 V2000
    1.6420   -1.3990   -3.3020 C   0  0  0  0  0  0  0  0  0  0  0  0
    1.7840   -1.0470   -1.8670 C   0  0  0  0  0  0  0  0  0  0  0  0
    0.7870   -0.3100   -1.2000 C   0  0  0  0  0  0  0  0  0  0  0  0
    0.9140    0.0200    0.1260 C   0  0  0  0  0  0  0  0  0  0  0  0
   -0.0700    0.7350    0.8430 N   0  0  0  0  0  0  0  0  0  0  0  0
   -1.4160    0.9160    0.4910 C   0  0  0  0  0  0  0  0  0  0  0  0
   -1.8690    0.4110   -0.5590 O   0  0  0  0  0  0  0  0  0  0  0  0
   -2.3350    1.6640    1.2850 N   0  0  0  0  0  0  0  0  0  0  0  0
   -3.6880    1.8080    0.8920 N   0  0  0  0  0  0  0  0  0  0  0  0
   -4.5470    0.6840    0.8150 C   0  0  0  0  0  0  0  0  0  0  0  0
   -4.0480   -0.4210    1.1070 O   0  0  0  0  0  0  0  0  0  0  0  0
   -5.9700    0.7730    0.4140 C   0  0  0  0  0  0  0  0  0  0  0  0
   -6.5400    1.8670   -0.0780 C   0  0  0  0  0  0  0  0  0  0  0  0
   -7.8590    1.8980   -0.4280 C   0  0  0  0  0  0  0  0  0  0  0  0
   -8.3700    0.1700   -0.0150 S   0  0  0  0  0  0  0  0  0  0  0  0
   -6.7870   -0.3630    0.5610 C   0  0  0  0  0  0  0  0  0  0  0  0
    2.0670   -0.4090    0.7600 C   0  0  0  0  0  0  0  0  0  0  0  0
    3.0610   -1.1300    0.1410 C   0  0  0  0  0  0  0  0  0  0  0  0
    4.2100   -1.5240    0.9040 C   0  0  0  0  0  0  0  0  0  0  0  0
    5.4890   -0.8110    0.7600 C   0  0  0  0  0  0  0  0  0  0  0  0
    5.4600    0.6010    1.0900 N   0  0  0  0  0  0  0  0  0  0  0  0
    2.9010   -1.4450   -1.1940 C   0  0  0  0  0  0  0  0  0  0  0  0
    3.9180   -2.1620   -1.7620 O   0  0  0  0  0  0  0  0  0  0  0  0
  1  2  1  0
  2  3  2  0
  2 22  1  0
  3  4  1  0
  4  5  1  0
  4 17  2  0
  5  6  1  0
  6  7  2  0
  6  8  1  0
  8  9  1  0
  9 10  1  0
 10 11  2  0
 10 12  1  0
 12 13  1  0
 12 16  2  0
 13 14  2  0
 14 15  1  0
 15 16  1  0
 17 18  1  0
 18 19  1  0
 18 22  2  0
 19 20  1  0
 20 21  1  0
 22 23  1  0
M  CHG  1  21   1
M  END
