
     RDKit          3D

 23 24  0  0  0  0  0  0  0  0999 V2000
    6.2670    0.9290    2.9990 C   0  0  0  0  0  0  0  0  0  0  0  0
    6.7270    0.1610    1.9530 O   0  0  0  0  0  0  0  0  0  0  0  0
    6.3210    0.5610    0.7050 C   0  0  0  0  0  0  0  0  0  0  0  0
    4.8990    0.4540    0.3910 C   0  0  0  0  0  0  0  0  0  0  0  0
    4.5190    1.0280   -0.6900 O   0  0  0  0  0  0  0  0  0  0  0  0
    3.8810   -0.2000    1.1120 N   0  0  0  0  0  0  0  0  0  0  0  0
    2.5390   -0.1930    0.6450 N   0  0  0  0  0  0  0  0  0  0  0  0
    2.1710   -0.8200   -0.5630 C   0  0  0  0  0  0  0  0  0  0  0  0
    3.1230   -1.3890   -1.2020 O   0  0  0  0  0  0  0  0  0  0  0  0
    0.8160   -0.8520   -1.1010 C   0  0  0  0  0  0  0  0  0  0  0  0
   -0.3670   -0.3580   -0.6800 C   0  0  0  0  0  0  0  0  0  0  0  0
   -1.4640   -0.5670   -1.4430 C   0  0  0  0  0  0  0  0  0  0  0  0
   -2.7950   -0.0120   -1.0500 C   0  0  0  0  0  0  0  0  0  0  0  0
   -3.5420    0.7800   -1.8880 C   0  0  0  0  0  0  0  0  0  0  0  0
   -4.7620    1.3050   -1.4430 C   0  0  0  0  0  0  0  0  0  0  0  0
   -5.2190    1.0380   -0.1810 C   0  0  0  0  0  0  0  0  0  0  0  0
   -4.4790    0.2500    0.6560 C   0  0  0  0  0  0  0  0  0  0  0  0
   -4.9670   -0.0350    1.9780 N   0  0  0  0  0  0  0  0  0  0  0  0
   -3.2820   -0.2600    0.2050 C   0  0  0  0  0  0  0  0  0  0  0  0
   -2.5240   -1.0890    1.0660 N   0  0  0  0  0  0  0  0  0  0  0  0
   -1.3430   -1.2600   -2.5940 C   0  0  0  0  0  0  0  0  0  0  0  0
   -2.3400   -1.6610   -3.6140 C   0  0  0  0  0  0  0  0  0  0  0  0
    0.3900   -1.6620   -2.6580 S   0  0  0  0  0  0  0  0  0  0  0  0
  1  2  1  0
  2  3  1  0
  3  4  1  0
  4  5  2  0
  4  6  1  0
  6  7  1  0
  7  8  1  0
  8  9  2  0
  8 10  1  0
 10 11  2  0
 10 23  1  0
 11 12  1  0
 12 13  1  0
 12 21  2  0
 13 14  2  0
 13 19  1  0
 14 15  1  0
 15 16  2  0
 16 17  1  0
 17 18  1  0
 17 19  2  0
 19 20  1  0
 21 22  1  0
 21 23  1  0
M  CHG  1  18   1
M  END
