
     RDKit          3D

 17 19  0  0  0  0  0  0  0  0999 V2000
    4.4800    0.4110   -0.3600 C   0  0  0  0  0  0  0  0  0  0  0  0
    3.0480    0.0500   -0.0540 C   0  0  0  0  0  0  0  0  0  0  0  0
    2.7860   -1.0280    0.7670 C   0  0  0  0  0  0  0  0  0  0  0  0
    1.4860   -1.3750    1.0600 C   0  0  0  0  0  0  0  0  0  0  0  0
    0.4810   -0.5980    0.4940 C   0  0  0  0  0  0  0  0  0  0  0  0
   -0.8360   -0.8910    0.7460 C   0  0  0  0  0  0  0  0  0  0  0  0
   -1.9030   -0.1650    0.2210 C   0  0  0  0  0  0  0  0  0  0  0  0
   -3.1970   -0.5150    0.5150 C   0  0  0  0  0  0  0  0  0  0  0  0
   -3.3270   -1.5280    1.2840 O   0  0  0  0  0  0  0  0  0  0  0  0
   -4.3040    0.0690    0.0990 N   0  0  0  0  0  0  0  0  0  0  0  0
   -4.3980    1.1400   -0.7100 C   0  0  0  0  0  0  0  0  0  0  0  0
   -5.5230    1.6150   -1.0440 O   0  0  0  0  0  0  0  0  0  0  0  0
   -2.8880    1.7690   -1.2190 S   0  0  0  0  0  0  0  0  0  0  0  0
   -1.5640    0.8940   -0.5880 C   0  0  0  0  0  0  0  0  0  0  0  0
   -0.2470    1.2030   -0.8510 C   0  0  0  0  0  0  0  0  0  0  0  0
    0.8000    0.4660   -0.3170 C   0  0  0  0  0  0  0  0  0  0  0  0
    2.0720    0.8010   -0.6000 N   0  0  0  0  0  0  0  0  0  0  0  0
  1  2  1  0
  2  3  2  0
  2 17  1  0
  3  4  1  0
  4  5  2  0
  5  6  1  0
  5 16  1  0
  6  7  2  0
  7  8  1  0
  7 14  1  0
  8  9  2  0
  8 10  1  0
 10 11  1  0
 11 12  2  0
 11 13  1  0
 13 14  1  0
 14 15  2  0
 15 16  1  0
 16 17  2  0
M  END
