
     RDKit          3D

  9 10  0  0  0  0  0  0  0  0999 V2000
   -2.9770   -0.2560    0.1540 C   0  0  0  0  0  0  0  0  0  0  0  0
   -2.1610    0.4980    0.8790 C   0  0  0  0  0  0  0  0  0  0  0  0
   -1.0120   -0.0700    0.1940 C   0  0  0  0  0  0  0  0  0  0  0  0
    0.4370    0.1170    0.2760 C   0  0  0  0  0  0  0  0  0  0  0  0
    1.0760    0.9590    1.1080 N   0  0  0  0  0  0  0  0  0  0  0  0
    2.3990    0.8990    0.9420 C   0  0  0  0  0  0  0  0  0  0  0  0
    2.6100   -0.0380   -0.0540 C   0  0  0  0  0  0  0  0  0  0  0  0
    1.3910   -0.4880   -0.4310 N   0  0  0  0  0  0  0  0  0  0  0  0
   -1.8200   -0.8240   -0.5310 C   0  0  0  0  0  0  0  0  0  0  0  0
  1  2  2  0
  1  9  1  0
  2  3  1  0
  3  4  1  0
  3  9  2  0
  4  5  2  0
  4  8  1  0
  5  6  1  0
  6  7  2  0
  7  8  1  0
M  END
