
     RDKit          3D

 17 19  0  0  0  0  0  0  0  0999 V2000
    5.7880    0.4550   -0.1620 O   0  0  0  0  0  0  0  0  0  0  0  0
    4.5460    0.3470   -0.1270 C   0  0  0  0  0  0  0  0  0  0  0  0
    3.7520    1.3830    0.1570 N   0  0  0  0  0  0  0  0  0  0  0  0
    2.4170    1.3260    0.2080 C   0  0  0  0  0  0  0  0  0  0  0  0
    1.8320    2.3930    0.4840 O   0  0  0  0  0  0  0  0  0  0  0  0
    1.7420    0.0910   -0.0480 C   0  0  0  0  0  0  0  0  0  0  0  0
    0.4060   -0.0870   -0.0420 C   0  0  0  0  0  0  0  0  0  0  0  0
    0.0780   -1.4590   -0.3780 C   0  0  0  0  0  0  0  0  0  0  0  0
    1.4960   -2.2640   -0.6290 S   0  0  0  0  0  0  0  0  0  0  0  0
    2.6070   -0.9130   -0.3290 C   0  0  0  0  0  0  0  0  0  0  0  0
    3.9520   -0.8350   -0.3770 N   0  0  0  0  0  0  0  0  0  0  0  0
   -1.3440   -2.2120   -0.5670 C   0  0  0  0  0  0  0  0  0  0  0  0
   -2.2600   -1.1760   -0.3670 C   0  0  0  0  0  0  0  0  0  0  0  0
   -3.4920   -0.5670   -0.1870 C   0  0  0  0  0  0  0  0  0  0  0  0
   -3.0570    0.8860    0.2400 C   0  0  0  0  0  0  0  0  0  0  0  0
   -1.7580    0.9290    0.9580 C   0  0  0  0  0  0  0  0  0  0  0  0
   -0.4500    1.1090    0.3330 C   0  0  0  0  0  0  0  0  0  0  0  0
  1  2  2  0
  2  3  1  0
  2 11  1  0
  3  4  1  0
  4  5  2  0
  4  6  1  0
  6  7  1  0
  6 10  2  0
  7  8  2  0
  7 17  1  0
  8  9  1  0
  8 12  1  0
  9 10  1  0
 10 11  1  0
 12 13  1  0
 13 14  1  0
 14 15  1  0
 15 16  1  0
 16 17  1  0
M  END
