
     RDKit          3D

 26 29  0  0  0  0  0  0  0  0999 V2000
    3.9580   -2.3120    0.4770 C   0  0  0  0  0  0  0  0  0  0  0  0
    3.4960   -1.4880   -0.5790 O   0  0  0  0  0  0  0  0  0  0  0  0
    2.8100   -0.3140   -0.3680 C   0  0  0  0  0  0  0  0  0  0  0  0
    3.4040    0.9150   -0.2380 C   0  0  0  0  0  0  0  0  0  0  0  0
    4.7800    0.9700   -0.3250 O   0  0  0  0  0  0  0  0  0  0  0  0
    2.6700    2.0520   -0.0290 C   0  0  0  0  0  0  0  0  0  0  0  0
    1.2880    1.9810    0.0560 C   0  0  0  0  0  0  0  0  0  0  0  0
    0.6510    0.7850   -0.0670 C   0  0  0  0  0  0  0  0  0  0  0  0
    1.4290   -0.3660   -0.2810 C   0  0  0  0  0  0  0  0  0  0  0  0
    0.7800   -1.5430   -0.3940 C   0  0  0  0  0  0  0  0  0  0  0  0
   -0.6200   -1.6800   -0.3140 C   0  0  0  0  0  0  0  0  0  0  0  0
   -1.0710   -3.0070   -0.3240 N   0  0  0  0  0  0  0  0  0  0  0  0
   -1.8670   -3.4550    0.5000 O   0  0  0  0  0  0  0  0  0  0  0  0
   -0.4640   -3.9140   -1.1570 O   0  0  0  0  0  0  0  0  0  0  0  0
   -1.3570   -0.5520   -0.1210 C   0  0  0  0  0  0  0  0  0  0  0  0
   -2.7170   -0.6230   -0.0710 C   0  0  0  0  0  0  0  0  0  0  0  0
   -3.4840   -1.7750   -0.5010 C   0  0  0  0  0  0  0  0  0  0  0  0
   -4.4750   -2.1070    0.2200 O   0  0  0  0  0  0  0  0  0  0  0  0
   -3.2280   -2.5180   -1.6340 O   0  0  0  0  0  0  0  0  0  0  0  0
   -3.4620    0.5420    0.1350 C   0  0  0  0  0  0  0  0  0  0  0  0
   -2.8370    1.7360    0.2730 C   0  0  0  0  0  0  0  0  0  0  0  0
   -1.4810    1.8660    0.2160 C   0  0  0  0  0  0  0  0  0  0  0  0
   -0.7220    0.7150    0.0130 C   0  0  0  0  0  0  0  0  0  0  0  0
   -1.2010    3.2040    0.3890 O   0  0  0  0  0  0  0  0  0  0  0  0
   -2.3700    3.9410    0.1410 C   0  0  0  0  0  0  0  0  0  0  0  0
   -3.3760    2.9940    0.4850 O   0  0  0  0  0  0  0  0  0  0  0  0
  1  2  1  0
  2  3  1  0
  3  4  2  0
  3  9  1  0
  4  5  1  0
  4  6  1  0
  6  7  2  0
  7  8  1  0
  8  9  2  0
  8 23  1  0
  9 10  1  0
 10 11  2  0
 11 12  1  0
 11 15  1  0
 12 13  2  0
 12 14  1  0
 15 16  2  0
 15 23  1  0
 16 17  1  0
 16 20  1  0
 17 18  2  0
 17 19  1  0
 20 21  2  0
 21 22  1  0
 21 26  1  0
 22 23  2  0
 22 24  1  0
 24 25  1  0
 25 26  1  0
M  CHG  2  12   1  14  -1
M  END
