
     RDKit          3D

 26 28  0  0  0  0  0  0  0  0999 V2000
    6.3260   -1.9940   -0.4440 C   0  0  0  0  0  0  0  0  0  0  0  0
    5.6450   -0.8580   -1.1060 C   0  0  0  0  0  0  0  0  0  0  0  0
    6.3630   -0.1090   -1.8270 O   0  0  0  0  0  0  0  0  0  0  0  0
    4.2220   -0.5920   -0.9510 C   0  0  0  0  0  0  0  0  0  0  0  0
    3.6330    0.4730   -1.5840 C   0  0  0  0  0  0  0  0  0  0  0  0
    2.2670    0.7440   -1.4480 C   0  0  0  0  0  0  0  0  0  0  0  0
    1.5040   -0.0780   -0.6610 C   0  0  0  0  0  0  0  0  0  0  0  0
    0.1420    0.1480   -0.4620 N   0  0  0  0  0  0  0  0  0  0  0  0
   -0.4470    1.4180   -0.2420 C   0  0  0  0  0  0  0  0  0  0  0  0
    0.3920    2.4970    0.0880 C   0  0  0  0  0  0  0  0  0  0  0  0
   -0.1540    3.7210    0.3430 C   0  0  0  0  0  0  0  0  0  0  0  0
   -1.5100    3.9570    0.2940 C   0  0  0  0  0  0  0  0  0  0  0  0
   -2.0630    5.3120    0.5800 C   0  0  0  0  0  0  0  0  0  0  0  0
   -2.3160    2.8950   -0.0280 C   0  0  0  0  0  0  0  0  0  0  0  0
   -1.8070    1.6070   -0.3020 C   0  0  0  0  0  0  0  0  0  0  0  0
   -2.6880    0.6450   -0.6060 O   0  0  0  0  0  0  0  0  0  0  0  0
   -3.0250   -0.5450   -0.0460 C   0  0  0  0  0  0  0  0  0  0  0  0
   -2.9760   -1.7380   -0.7600 C   0  0  0  0  0  0  0  0  0  0  0  0
   -3.3090   -2.9610   -0.2290 C   0  0  0  0  0  0  0  0  0  0  0  0
   -3.2440   -4.2120   -1.0220 C   0  0  0  0  0  0  0  0  0  0  0  0
   -3.7120   -2.9810    1.0920 C   0  0  0  0  0  0  0  0  0  0  0  0
   -3.7650   -1.8050    1.8120 C   0  0  0  0  0  0  0  0  0  0  0  0
   -3.4360   -0.5770    1.2960 C   0  0  0  0  0  0  0  0  0  0  0  0
   -3.5090    0.9060    2.2240 Cl  0  0  0  0  0  0  0  0  0  0  0  0
    2.1060   -1.1630   -0.0170 C   0  0  0  0  0  0  0  0  0  0  0  0
    3.4490   -1.4140   -0.1630 C   0  0  0  0  0  0  0  0  0  0  0  0
  1  2  1  0
  2  3  2  0
  2  4  1  0
  4  5  2  0
  4 26  1  0
  5  6  1  0
  6  7  2  0
  7  8  1  0
  7 25  1  0
  8  9  1  0
  9 10  2  0
  9 15  1  0
 10 11  1  0
 11 12  2  0
 12 13  1  0
 12 14  1  0
 14 15  2  0
 15 16  1  0
 16 17  1  0
 17 18  2  0
 17 23  1  0
 18 19  1  0
 19 20  1  0
 19 21  2  0
 21 22  1  0
 22 23  2  0
 23 24  1  0
 25 26  2  0
M  END
