
     RDKit          3D

 26 27  0  0  0  0  0  0  0  0999 V2000
   -1.5920   -2.9240    2.3890 C   0  0  0  0  0  0  0  0  0  0  0  0
   -2.0810   -2.5900    1.0170 C   0  0  0  0  0  0  0  0  0  0  0  0
   -1.7250   -1.4400    0.3990 C   0  0  0  0  0  0  0  0  0  0  0  0
   -2.1700   -1.0900   -0.9120 C   0  0  0  0  0  0  0  0  0  0  0  0
   -1.9650   -0.0340   -1.6070 C   0  0  0  0  0  0  0  0  0  0  0  0
   -1.3030    1.2070   -1.5130 C   0  0  0  0  0  0  0  0  0  0  0  0
   -1.3290    2.0020   -2.6030 C   0  0  0  0  0  0  0  0  0  0  0  0
   -0.7440    3.3500   -2.8500 C   0  0  0  0  0  0  0  0  0  0  0  0
    0.7520    3.3970   -2.6030 C   0  0  0  0  0  0  0  0  0  0  0  0
    1.0940    3.3860   -1.1420 C   0  0  0  0  0  0  0  0  0  0  0  0
    1.8720    4.2730   -0.7860 O   0  0  0  0  0  0  0  0  0  0  0  0
    0.5860    2.4350   -0.1480 C   0  0  0  0  0  0  0  0  0  0  0  0
    1.3030    2.2400    0.9080 C   0  0  0  0  0  0  0  0  0  0  0  0
    2.5920    2.9550    1.1010 C   0  0  0  0  0  0  0  0  0  0  0  0
    0.9490    1.3580    1.9620 N   0  0  0  0  0  0  0  0  0  0  0  0
    1.6660    0.1640    2.1290 C   0  0  0  0  0  0  0  0  0  0  0  0
    1.3840   -0.7140    3.1560 C   0  0  0  0  0  0  0  0  0  0  0  0
    2.0930   -1.8940    3.3210 C   0  0  0  0  0  0  0  0  0  0  0  0
    3.0980   -2.2230    2.4640 C   0  0  0  0  0  0  0  0  0  0  0  0
    3.9830   -3.7330    2.6990 Cl  0  0  0  0  0  0  0  0  0  0  0  0
    3.4080   -1.3720    1.4280 C   0  0  0  0  0  0  0  0  0  0  0  0
    2.6900   -0.2080    1.2850 C   0  0  0  0  0  0  0  0  0  0  0  0
   -0.6880    1.6890   -0.2800 C   0  0  0  0  0  0  0  0  0  0  0  0
   -1.2730    1.4710    0.7910 O   0  0  0  0  0  0  0  0  0  0  0  0
   -3.0250   -2.1600   -1.6020 C   0  0  0  0  0  0  0  0  0  0  0  0
   -2.2650   -3.4190   -1.8440 C   0  0  0  0  0  0  0  0  0  0  0  0
  1  2  1  0
  2  3  2  3
  3  4  1  0
  4  5  2  3
  4 25  1  0
  5  6  1  0
  6  7  2  0
  6 23  1  0
  7  8  1  0
  8  9  1  0
  9 10  1  0
 10 11  2  0
 10 12  1  0
 12 13  2  3
 12 23  1  0
 13 14  1  0
 13 15  1  0
 15 16  1  0
 16 17  2  0
 16 22  1  0
 17 18  1  0
 18 19  2  0
 19 20  1  0
 19 21  1  0
 21 22  2  0
 23 24  2  0
 25 26  1  0
M  END
