
     RDKit          3D

 26 28  0  0  0  0  0  0  0  0999 V2000
    4.7280    2.3670    0.9620 C   0  0  0  0  0  0  0  0  0  0  0  0
    4.1200    1.4350    0.2010 C   0  0  0  0  0  0  0  0  0  0  0  0
    3.2900    0.4830    0.9220 C   0  0  0  0  0  0  0  0  0  0  0  0
    1.8570    0.6130    0.5720 C   0  0  0  0  0  0  0  0  0  0  0  0
    1.5290    1.5710   -0.1520 O   0  0  0  0  0  0  0  0  0  0  0  0
    0.9250   -0.3240    1.0540 N   0  0  0  0  0  0  0  0  0  0  0  0
   -0.4610   -0.3310    0.8080 C   0  0  0  0  0  0  0  0  0  0  0  0
   -1.0790    0.6070    0.0240 C   0  0  0  0  0  0  0  0  0  0  0  0
   -2.4490    0.5590   -0.1930 C   0  0  0  0  0  0  0  0  0  0  0  0
   -3.3010    1.2830   -0.8670 O   0  0  0  0  0  0  0  0  0  0  0  0
   -4.5230    0.8210   -0.7620 C   0  0  0  0  0  0  0  0  0  0  0  0
   -5.7470    1.2350   -1.2830 C   0  0  0  0  0  0  0  0  0  0  0  0
   -6.8700    0.5110   -0.9730 C   0  0  0  0  0  0  0  0  0  0  0  0
   -8.4040    1.0580   -1.6460 Cl  0  0  0  0  0  0  0  0  0  0  0  0
   -6.8610   -0.6170   -0.1650 C   0  0  0  0  0  0  0  0  0  0  0  0
   -5.6440   -1.0190    0.3470 C   0  0  0  0  0  0  0  0  0  0  0  0
   -4.5100   -0.3000    0.0420 C   0  0  0  0  0  0  0  0  0  0  0  0
   -3.1650   -0.4530    0.3980 C   0  0  0  0  0  0  0  0  0  0  0  0
   -2.5530   -1.3980    1.1850 C   0  0  0  0  0  0  0  0  0  0  0  0
   -1.2020   -1.3550    1.4030 C   0  0  0  0  0  0  0  0  0  0  0  0
   -0.5640   -2.4000    2.2690 C   0  0  0  0  0  0  0  0  0  0  0  0
    0.1420   -3.3750    1.3890 C   0  0  0  0  0  0  0  0  0  0  0  0
    4.3700    1.5050   -1.2000 C   0  0  0  0  0  0  0  0  0  0  0  0
    5.2930    2.6540   -1.6660 C   0  0  0  0  0  0  0  0  0  0  0  0
    3.9300    0.7370   -2.1520 C   0  0  0  0  0  0  0  0  0  0  0  0
    3.0550   -0.4290   -2.1130 C   0  0  0  0  0  0  0  0  0  0  0  0
  1  2  2  0
  2  3  1  0
  2 23  1  0
  3  4  1  0
  4  5  2  0
  4  6  1  0
  6  7  1  0
  7  8  2  0
  7 20  1  0
  8  9  1  0
  9 10  1  0
  9 18  2  0
 10 11  1  0
 11 12  2  0
 11 17  1  0
 12 13  1  0
 13 14  1  0
 13 15  2  0
 15 16  1  0
 16 17  2  0
 17 18  1  0
 18 19  1  0
 19 20  2  0
 20 21  1  0
 21 22  1  0
 23 24  1  0
 23 25  2  3
 25 26  1  0
M  END
