
     RDKit          3D

 21 21  0  0  0  0  0  0  0  0999 V2000
    6.1950    1.4220    0.9940 C   0  0  0  0  0  0  0  0  0  0  0  0
    6.5240    0.6940   -0.2800 C   0  0  0  0  0  0  0  0  0  0  0  0
    5.3820    0.5040   -1.1380 N   0  0  0  0  0  0  0  0  0  0  0  0
    4.4210   -0.3080   -0.8370 C   0  0  0  0  0  0  0  0  0  0  0  0
    4.5270   -1.0370    0.4160 C   0  0  0  0  0  0  0  0  0  0  0  0
    3.6290   -1.8220    0.7400 O   0  0  0  0  0  0  0  0  0  0  0  0
    2.9750   -0.5460   -1.9280 P   0  0  0  0  0  0  0  0  0  0  0  0
    1.4360   -0.3120   -1.3610 C   0  0  0  0  0  0  0  0  0  0  0  0
    0.2830   -0.4820   -2.1600 N   0  0  0  0  0  0  0  0  0  0  0  0
   -0.9590   -0.8460   -1.5170 C   0  0  0  0  0  0  0  0  0  0  0  0
   -1.7470    0.0290   -0.9730 C   0  0  0  0  0  0  0  0  0  0  0  0
   -1.2730    1.3710   -1.0710 O   0  0  0  0  0  0  0  0  0  0  0  0
   -3.0010   -0.1600   -0.3020 C   0  0  0  0  0  0  0  0  0  0  0  0
   -3.6700    0.9740    0.2080 C   0  0  0  0  0  0  0  0  0  0  0  0
   -4.8750    0.8320    0.8580 C   0  0  0  0  0  0  0  0  0  0  0  0
   -5.5140    1.9810    1.3530 O   0  0  0  0  0  0  0  0  0  0  0  0
   -6.7570    1.8600    2.0270 C   0  0  0  0  0  0  0  0  0  0  0  0
   -5.3910   -0.3920    0.9940 N   0  0  0  0  0  0  0  0  0  0  0  0
   -4.7960   -1.4760    0.5310 N   0  0  0  0  0  0  0  0  0  0  0  0
   -3.5900   -1.3800   -0.1250 C   0  0  0  0  0  0  0  0  0  0  0  0
   -2.9830   -2.5230   -0.6010 O   0  0  0  0  0  0  0  0  0  0  0  0
  1  2  1  0
  2  3  1  0
  3  4  2  3
  4  5  1  0
  4  7  1  0
  5  6  2  0
  7  8  2  3
  8  9  1  0
  9 10  1  0
 10 11  2  3
 11 12  1  0
 11 13  1  0
 13 14  2  0
 13 20  1  0
 14 15  1  0
 15 16  1  0
 15 18  2  0
 16 17  1  0
 18 19  1  0
 19 20  2  0
 20 21  1  0
M  END
