
     RDKit          3D

 21 22  0  0  0  0  0  0  0  0999 V2000
    5.3780   -1.3290   -0.1350 C   0  0  0  0  0  0  0  0  0  0  0  0
    4.7160   -0.0230   -0.4800 C   0  0  0  0  0  0  0  0  0  0  0  0
    3.5090    0.2360    0.4150 C   0  0  0  0  0  0  0  0  0  0  0  0
    2.9080    1.5330    0.0220 C   0  0  0  0  0  0  0  0  0  0  0  0
    3.6690    2.6960    0.1020 O   0  0  0  0  0  0  0  0  0  0  0  0
    1.6650    1.5520   -0.3930 C   0  0  0  0  0  0  0  0  0  0  0  0
    0.6750    0.0160   -0.4930 P   0  0  0  0  0  0  0  0  0  0  0  0
    1.3650   -0.9100   -1.8440 O   0  0  0  0  0  0  0  0  0  0  0  0
    0.4380   -1.9480   -2.0100 O   0  0  0  0  0  0  0  0  0  0  0  0
   -0.8690   -2.0190   -1.4750 C   0  0  0  0  0  0  0  0  0  0  0  0
   -2.0630   -1.8040   -1.9280 C   0  0  0  0  0  0  0  0  0  0  0  0
   -2.8080   -0.9860   -0.9960 O   0  0  0  0  0  0  0  0  0  0  0  0
   -2.0260   -0.2180   -0.0460 C   0  0  1  0  0  0  0  0  0  0  0  0
   -2.9580    0.7850    0.4950 N   0  0  0  0  0  0  0  0  0  0  0  0
   -4.0790    0.1400    1.1450 C   0  0  0  0  0  0  0  0  0  0  0  0
   -4.9800    1.2390    1.6690 C   0  0  0  0  0  0  0  0  0  0  0  0
   -1.6280   -1.0280    1.0900 N   0  0  0  0  0  0  0  0  0  0  0  0
   -0.9200   -2.5330    0.3510 P   0  0  0  0  0  0  0  0  0  0  0  0
   -1.7830   -3.9350    0.6460 O   0  0  0  0  0  0  0  0  0  0  0  0
   -1.0090    0.4360   -0.7600 N   0  0  0  0  0  0  0  0  0  0  0  0
   -1.2310    1.8680   -0.8720 C   0  0  0  0  0  0  0  0  0  0  0  0
  1  2  1  0
  2  3  1  0
  3  4  1  0
  4  5  1  0
  4  6  2  3
  6  7  1  0
  7  8  1  0
  7 20  1  0
  8  9  1  0
  9 10  1  0
 10 11  2  0
 10 18  1  0
 11 12  1  0
 12 13  1  0
 13 14  1  1
 13 17  1  0
 13 20  1  0
 14 15  1  0
 15 16  1  0
 17 18  1  0
 18 19  1  0
 20 21  1  0
M  END
