
     RDKit          3D

 21 23  0  0  0  0  0  0  0  0999 V2000
    4.7540    1.3250   -0.2300 C   0  0  0  0  0  0  0  0  0  0  0  0
    3.8450    0.1560   -0.0580 C   0  0  0  0  0  0  0  0  0  0  0  0
    2.6790    0.2520   -0.8830 O   0  0  0  0  0  0  0  0  0  0  0  0
    1.7440   -0.8070   -0.7990 C   0  0  0  0  0  0  0  0  0  0  0  0
    0.5670   -0.6280   -0.2990 C   0  0  0  0  0  0  0  0  0  0  0  0
   -0.2330    0.4680    0.2880 C   0  0  0  0  0  0  0  0  0  0  0  0
    0.3850    1.4270    0.8350 N   0  0  0  0  0  0  0  0  0  0  0  0
   -1.6880    0.4420    0.2260 N   0  0  0  0  0  0  0  0  0  0  0  0
   -2.3370    1.4750    0.7720 N   0  0  0  0  0  0  0  0  0  0  0  0
   -1.5610    2.5660    1.4030 C   0  0  0  0  0  0  0  0  0  0  0  0
   -3.6260    1.6380    0.8130 O   0  0  0  0  0  0  0  0  0  0  0  0
   -4.5690    0.4570    0.1260 P   0  0  0  0  0  0  0  0  0  0  0  0
   -6.2450    0.1660    0.4940 O   0  0  0  0  0  0  0  0  0  0  0  0
   -3.5760   -0.7990   -0.5290 C   0  0  0  0  0  0  0  0  0  0  0  0
   -4.0950   -1.7910   -1.0960 O   0  0  0  0  0  0  0  0  0  0  0  0
   -2.2470   -0.5990   -0.3680 N   0  0  0  0  0  0  0  0  0  0  0  0
   -1.4620   -1.6970   -0.9460 C   0  0  0  0  0  0  0  0  0  0  0  0
   -1.8840   -2.3760   -1.8780 O   0  0  0  0  0  0  0  0  0  0  0  0
   -0.1360   -1.9620   -0.3630 C   0  0  1  0  0  0  0  0  0  0  0  0
    0.8020   -2.8390   -0.9790 C   0  0  0  0  0  0  0  0  0  0  0  0
    1.9350   -2.1790   -1.2420 C   0  0  0  0  0  0  0  0  0  0  0  0
  1  2  1  0
  2  3  1  0
  3  4  1  0
  4  5  2  0
  4 21  1  0
  5  6  1  0
  5 19  1  0
  6  7  2  0
  6  8  1  0
  8  9  1  0
  8 16  1  0
  9 10  1  0
  9 11  1  0
 11 12  1  0
 12 13  1  0
 12 14  1  0
 14 15  2  0
 14 16  1  0
 16 17  1  0
 17 18  2  0
 17 19  1  0
 19 20  1  6
 20 21  2  0
M  END
