
     RDKit          3D

 21 22  0  0  0  0  0  0  0  0999 V2000
    4.4000    1.1590   -0.2460 C   0  0  0  0  0  0  0  0  0  0  0  0
    3.5890    0.6580   -1.2770 N   0  0  0  0  0  0  0  0  0  0  0  0
    4.1180   -0.3580   -2.0990 C   0  0  0  0  0  0  0  0  0  0  0  0
    2.2960    0.7880   -1.1920 O   0  0  0  0  0  0  0  0  0  0  0  0
    1.6690    0.0840   -0.1920 C   0  0  1  0  0  0  0  0  0  0  0  0
    0.8030    1.0140    0.6600 C   0  0  0  0  0  0  0  0  0  0  0  0
   -0.2870    0.2610    1.1450 N   0  0  0  0  0  0  0  0  0  0  0  0
   -0.9900    0.9390    2.1660 C   0  0  0  0  0  0  0  0  0  0  0  0
   -0.1370    1.1860    3.2620 O   0  0  0  0  0  0  0  0  0  0  0  0
   -1.1100   -0.1150   -0.0020 C   0  0  2  0  0  0  0  0  0  0  0  0
   -1.6210    1.0220   -0.7640 C   0  0  0  0  0  0  0  0  0  0  0  0
   -3.0160    0.9550   -1.1500 C   0  0  0  0  0  0  0  0  0  0  0  0
   -3.5550    2.0710   -1.9010 N   0  0  0  0  0  0  0  0  0  0  0  0
   -3.7890   -0.0570   -0.8510 C   0  0  0  0  0  0  0  0  0  0  0  0
   -3.2140   -1.1830   -0.0820 C   0  0  0  0  0  0  0  0  0  0  0  0
   -4.0830   -2.3160    0.2490 C   0  0  0  0  0  0  0  0  0  0  0  0
   -5.2750   -2.3230   -0.1100 O   0  0  0  0  0  0  0  0  0  0  0  0
   -2.0000   -1.1450    0.2680 N   0  0  0  0  0  0  0  0  0  0  0  0
    0.3250   -0.9460   -0.9780 P   0  0  0  0  0  0  0  0  0  0  0  0
    0.5120   -3.0040   -0.1850 P   0  0  0  0  0  0  0  0  0  0  0  0
    0.7520   -2.9760    2.0080 P   0  0  0  0  0  0  0  0  0  0  0  0
  1  2  1  0
  2  3  1  0
  2  4  1  0
  5  4  1  6
  5  6  1  0
  5 19  1  0
  6  7  1  0
  7  8  1  0
  7 10  1  0
  8  9  1  0
 10 11  1  6
 10 18  1  0
 10 19  1  0
 11 12  1  0
 12 13  1  0
 12 14  2  0
 14 15  1  0
 15 16  1  0
 15 18  2  0
 16 17  2  0
 19 20  1  0
 20 21  1  0
M  END
