
     RDKit          3D

 21 21  0  0  0  0  0  0  0  0999 V2000
    5.5080    0.0690   -0.1050 C   0  0  0  0  0  0  0  0  0  0  0  0
    4.4060    0.9850    0.2270 C   0  0  0  0  0  0  0  0  0  0  0  0
    3.8290    0.9560    1.3710 N   0  0  0  0  0  0  0  0  0  0  0  0
    3.9800    1.8990   -0.7130 O   0  0  0  0  0  0  0  0  0  0  0  0
    2.7230    2.3920   -0.5770 O   0  0  0  0  0  0  0  0  0  0  0  0
    1.6420    1.0930   -0.8990 P   0  0  0  0  0  0  0  0  0  0  0  0
    0.2260    0.5960    0.4410 P   0  0  0  0  0  0  0  0  0  0  0  0
   -0.9340   -0.8090    0.0800 C   0  0  0  0  0  0  0  0  0  0  0  0
   -2.1860   -0.3950   -0.3190 C   0  0  0  0  0  0  0  0  0  0  0  0
   -2.6610    0.9690   -0.4670 C   0  0  1  0  0  0  0  0  0  0  0  0
   -2.5720    1.6660    0.9010 C   0  0  0  0  0  0  0  0  0  0  0  0
   -1.8930    1.8320   -1.4210 C   0  0  0  0  0  0  0  0  0  0  0  0
   -4.0700    0.9390   -0.9170 C   0  0  0  0  0  0  0  0  0  0  0  0
   -4.9240    1.4490   -0.2370 O   0  0  0  0  0  0  0  0  0  0  0  0
   -3.2540   -1.7180   -0.6570 P   0  0  0  0  0  0  0  0  0  0  0  0
   -2.5130   -3.2790   -0.4200 C   0  0  0  0  0  0  0  0  0  0  0  0
   -1.2020   -3.1890   -0.0030 C   0  0  0  0  0  0  0  0  0  0  0  0
   -0.6140   -4.3210    0.1850 O   0  0  0  0  0  0  0  0  0  0  0  0
   -0.5190   -2.0590    0.2130 N   0  0  0  0  0  0  0  0  0  0  0  0
    0.8490   -2.2340    0.6520 C   0  0  0  0  0  0  0  0  0  0  0  0
    1.6100   -1.2640    0.8960 O   0  0  0  0  0  0  0  0  0  0  0  0
  1  2  1  0
  2  3  2  0
  2  4  1  0
  4  5  1  0
  5  6  1  0
  6  7  2  3
  7  8  1  0
  8  9  2  0
  8 19  1  0
  9 10  1  0
  9 15  1  0
 10 11  1  1
 10 12  1  0
 10 13  1  0
 13 14  2  0
 15 16  2  0
 16 17  1  0
 17 18  2  0
 17 19  1  0
 19 20  1  0
 20 21  2  0
M  END
