
     RDKit          3D

 17 18  0  0  0  0  0  0  0  0999 V2000
    1.3620    1.0460   -1.9750 C   0  0  0  0  0  0  0  0  0  0  0  0
    0.8030    0.5970   -0.8780 C   0  0  0  0  0  0  0  0  0  0  0  0
   -0.5220    0.0580   -0.9370 N   0  0  0  0  0  0  0  0  0  0  0  0
   -1.5570    0.0760    0.1140 C   0  0  1  0  0  0  0  0  0  0  0  0
   -2.6180   -0.8740   -0.2820 C   0  0  2  0  0  0  0  0  0  0  0  0
   -3.2580   -0.4170   -1.5740 C   0  0  0  0  0  0  0  0  0  0  0  0
   -4.4080    0.4300   -1.0350 C   0  0  0  0  0  0  0  0  0  0  0  0
   -4.6890    0.0320    0.2370 O   0  0  0  0  0  0  0  0  0  0  0  0
   -3.8060   -0.9430    0.6210 C   0  0  0  0  0  0  0  0  0  0  0  0
   -0.9500   -0.1150    1.4600 C   0  0  0  0  0  0  0  0  0  0  0  0
   -0.2830    1.1280    1.9840 C   0  0  0  0  0  0  0  0  0  0  0  0
    1.0900    1.2430    1.5670 O   0  0  0  0  0  0  0  0  0  0  0  0
    1.5930    0.6990    0.3520 C   0  0  0  0  0  0  0  0  0  0  0  0
    2.8190    0.2600    0.3200 C   0  0  0  0  0  0  0  0  0  0  0  0
    3.5220   -0.3350   -0.7700 C   0  0  0  0  0  0  0  0  0  0  0  0
    4.8040   -0.7160   -0.6230 C   0  0  0  0  0  0  0  0  0  0  0  0
    5.4750   -0.5060    0.6970 C   0  0  0  0  0  0  0  0  0  0  0  0
  1  2  2  0
  2  3  1  0
  2 13  1  0
  3  4  1  0
  4  5  1  0
  4 10  1  1
  5  6  1  6
  5  9  1  0
  6  7  1  0
  7  8  1  0
  8  9  1  0
 10 11  1  0
 11 12  1  0
 12 13  1  0
 13 14  2  3
 14 15  1  0
 15 16  2  3
 16 17  1  0
M  END
