
     RDKit          3D

 17 19  0  0  0  0  0  0  0  0999 V2000
   -2.9780    2.6630   -0.0530 C   0  0  0  0  0  0  0  0  0  0  0  0
   -2.5560    1.4430    0.7310 C   0  0  1  0  0  0  0  0  0  0  0  0
   -3.1410    0.2960    0.1110 N   0  0  0  0  0  0  0  0  0  0  0  0
   -2.4730   -0.7040   -0.3230 C   0  0  0  0  0  0  0  0  0  0  0  0
   -2.9190   -1.9640   -0.9860 C   0  0  0  0  0  0  0  0  0  0  0  0
   -1.7500   -2.9130   -0.8830 C   0  0  0  0  0  0  0  0  0  0  0  0
   -0.5310   -2.0380   -0.8050 C   0  0  0  0  0  0  0  0  0  0  0  0
   -1.0340   -0.7540   -0.2150 C   0  0  0  0  0  0  0  0  0  0  0  0
   -0.2850    0.2270    0.3390 C   0  0  0  0  0  0  0  0  0  0  0  0
    1.1580    0.0800    0.3980 C   0  0  0  0  0  0  0  0  0  0  0  0
    2.0700    0.8750    0.8750 C   0  0  0  0  0  0  0  0  0  0  0  0
    1.7940    2.1080    1.4600 O   0  0  0  0  0  0  0  0  0  0  0  0
    3.5080    0.5290    0.8340 C   0  0  2  0  0  0  0  0  0  0  0  0
    4.3210    0.5440   -0.3800 C   0  0  0  0  0  0  0  0  0  0  0  0
    3.9130   -0.7650    0.2060 C   0  0  0  0  0  0  0  0  0  0  0  0
   -1.0600    1.3490    0.8230 C   0  0  0  0  0  0  0  0  0  0  0  0
   -0.5100    2.3280    1.3610 O   0  0  0  0  0  0  0  0  0  0  0  0
  2  1  1  6
  2  3  1  0
  2 16  1  0
  3  4  2  0
  4  5  1  0
  4  8  1  0
  5  6  1  0
  6  7  1  0
  7  8  1  0
  8  9  2  0
  9 10  1  0
  9 16  1  0
 10 11  2  3
 11 12  1  0
 13 11  1  6
 13 14  1  0
 13 15  1  0
 14 15  1  0
 16 17  2  0
M  END
