
     RDKit          3D

 17 19  0  0  0  0  0  0  0  0999 V2000
   -3.4730   -1.3720   -0.1020 C   0  0  0  0  0  0  0  0  0  0  0  0
   -2.2880   -0.5900   -0.5510 C   0  0  0  0  0  0  0  0  0  0  0  0
   -1.0870   -1.0780   -0.2890 C   0  0  0  0  0  0  0  0  0  0  0  0
   -0.9730   -2.3270    0.4080 C   0  0  0  0  0  0  0  0  0  0  0  0
   -0.8920   -3.3370    0.9670 N   0  0  0  0  0  0  0  0  0  0  0  0
    0.0800   -0.2810   -0.7450 C   0  0  2  0  0  0  0  0  0  0  0  0
    1.3510   -0.7130   -0.1580 C   0  0  0  0  0  0  0  0  0  0  0  0
    1.9530   -1.8850   -0.2010 C   0  0  0  0  0  0  0  0  0  0  0  0
    3.2390   -1.8180    0.5620 C   0  0  0  0  0  0  0  0  0  0  0  0
    3.2360   -0.4070    1.0280 C   0  0  0  0  0  0  0  0  0  0  0  0
    2.1610    0.2110    0.6150 C   0  0  0  0  0  0  0  0  0  0  0  0
    1.7210    1.5270    0.7990 O   0  0  0  0  0  0  0  0  0  0  0  0
    0.5300    1.9390    0.2510 C   0  0  0  0  0  0  0  0  0  0  0  0
    0.1140    3.3650    0.4850 C   0  0  0  0  0  0  0  0  0  0  0  0
   -0.2260    1.1410   -0.4490 C   0  0  0  0  0  0  0  0  0  0  0  0
   -1.5140    1.6680   -1.0150 C   0  0  0  0  0  0  0  0  0  0  0  0
   -2.4470    0.6320   -1.2330 O   0  0  0  0  0  0  0  0  0  0  0  0
  1  2  1  0
  2  3  2  0
  2 17  1  0
  3  4  1  0
  6  3  1  1
  4  5  3  0
  6  7  1  0
  6 15  1  0
  7  8  2  0
  7 11  1  0
  8  9  1  0
  9 10  1  0
 10 11  2  0
 11 12  1  0
 12 13  1  0
 13 14  1  0
 13 15  2  0
 15 16  1  0
 16 17  1  0
M  END
