
     RDKit          3D

 17 18  0  0  0  0  0  0  0  0999 V2000
    2.4320    2.5270    1.7790 C   0  0  0  0  0  0  0  0  0  0  0  0
    2.5500    1.5220    0.6410 C   0  0  0  0  0  0  0  0  0  0  0  0
    1.3400    0.7590    0.4950 N   0  0  0  0  0  0  0  0  0  0  0  0
    1.3030   -0.1750   -0.3780 C   0  0  0  0  0  0  0  0  0  0  0  0
    2.4450   -0.5210   -1.2590 C   0  0  0  0  0  0  0  0  0  0  0  0
    2.5930   -2.0390   -1.0750 C   0  0  0  0  0  0  0  0  0  0  0  0
    1.4600   -2.6250   -1.5890 O   0  0  0  0  0  0  0  0  0  0  0  0
    0.3120   -2.4820   -0.8130 C   0  0  0  0  0  0  0  0  0  0  0  0
    0.1080   -1.0040   -0.5140 C   0  0  0  0  0  0  0  0  0  0  0  0
   -1.0860   -0.5170   -0.4360 C   0  0  0  0  0  0  0  0  0  0  0  0
   -2.2730   -1.4470   -0.5710 C   0  0  0  0  0  0  0  0  0  0  0  0
   -3.4290   -1.0070    0.2760 C   0  0  0  0  0  0  0  0  0  0  0  0
   -3.0410    0.0650    1.2840 C   0  0  1  0  0  0  0  0  0  0  0  0
   -2.2960   -0.4510    2.3240 O   0  0  0  0  0  0  0  0  0  0  0  0
   -2.3490    1.1880    0.5680 C   0  0  0  0  0  0  0  0  0  0  0  0
   -1.3760    0.9170   -0.2910 C   0  0  0  0  0  0  0  0  0  0  0  0
   -0.6610    1.9080   -1.0820 C   0  0  0  0  0  0  0  0  0  0  0  0
  1  2  1  0
  2  3  1  0
  3  4  2  3
  4  5  1  0
  4  9  1  0
  5  6  1  0
  6  7  1  0
  7  8  1  0
  8  9  1  0
  9 10  2  3
 10 11  1  0
 10 16  1  0
 11 12  1  0
 12 13  1  0
 13 14  1  1
 13 15  1  0
 15 16  2  0
 16 17  1  0
M  END
