
     RDKit          3D

 21 22  0  0  0  0  0  0  0  0999 V2000
    5.7080    1.8430    1.1590 N   0  0  0  0  0  0  0  0  0  0  0  0
    5.2870    0.1980    1.1390 S   0  0  1  0  0  0  0  0  0  0  0  0
    6.4420   -0.5740    0.4960 O   0  0  0  0  0  0  0  0  0  0  0  0
    5.0720   -0.2530    2.5710 O   0  0  0  0  0  0  0  0  0  0  0  0
    3.8170   -0.0570    0.2330 C   0  0  0  0  0  0  0  0  0  0  0  0
    3.7820   -0.7570   -0.9560 C   0  0  0  0  0  0  0  0  0  0  0  0
    2.5450   -0.9920   -1.5750 C   0  0  0  0  0  0  0  0  0  0  0  0
    1.3620   -0.5700   -1.0630 C   0  0  0  0  0  0  0  0  0  0  0  0
    0.0740   -1.0190   -1.5460 C   0  0  0  0  0  0  0  0  0  0  0  0
   -0.0210   -1.9120   -2.4200 O   0  0  0  0  0  0  0  0  0  0  0  0
   -1.1260   -0.4820   -1.0110 N   0  0  0  0  0  0  0  0  0  0  0  0
   -2.4740   -0.9980   -1.2960 C   0  0  0  0  0  0  0  0  0  0  0  0
   -3.3740   -0.3090   -0.3500 C   0  0  0  0  0  0  0  0  0  0  0  0
   -3.5190    1.0490   -0.3530 C   0  0  0  0  0  0  0  0  0  0  0  0
   -4.4800    1.6440    0.4900 C   0  0  0  0  0  0  0  0  0  0  0  0
   -5.2820    0.9070    1.3170 C   0  0  0  0  0  0  0  0  0  0  0  0
   -5.1380   -0.4670    1.3200 C   0  0  0  0  0  0  0  0  0  0  0  0
   -4.2180   -1.0520    0.5140 C   0  0  0  0  0  0  0  0  0  0  0  0
   -3.9780   -2.4080    0.4950 F   0  0  0  0  0  0  0  0  0  0  0  0
    1.4310    0.1580    0.1520 C   0  0  0  0  0  0  0  0  0  0  0  0
    2.6530    0.3990    0.7790 C   0  0  0  0  0  0  0  0  0  0  0  0
  2  1  1  1
  2  3  2  0
  2  4  2  0
  2  5  1  0
  5  6  2  0
  5 21  1  0
  6  7  1  0
  7  8  2  0
  8  9  1  0
  8 20  1  0
  9 10  2  0
  9 11  1  0
 11 12  1  0
 12 13  1  0
 13 14  2  0
 13 18  1  0
 14 15  1  0
 15 16  2  0
 16 17  1  0
 17 18  2  0
 18 19  1  0
 20 21  2  0
M  END
