
     RDKit          3D

 25 25  0  0  0  0  0  0  0  0999 V2000
   -0.8020   -4.0910    0.2390 C   0  0  0  0  0  0  0  0  0  0  0  0
   -1.2120   -3.2800    1.1760 C   0  0  0  0  0  0  0  0  0  0  0  0
   -1.9020   -2.0140    1.0140 C   0  0  0  0  0  0  0  0  0  0  0  0
   -2.2240   -1.3160    2.0810 C   0  0  0  0  0  0  0  0  0  0  0  0
   -2.2240   -1.5040   -0.2940 C   0  0  0  0  0  0  0  0  0  0  0  0
   -1.8070   -0.2890   -0.7530 C   0  0  0  0  0  0  0  0  0  0  0  0
   -0.9500    0.5360    0.0670 N   0  0  0  0  0  0  0  0  0  0  0  0
   -1.4590    1.6160    0.6270 N   0  0  0  0  0  0  0  0  0  0  0  0
   -1.4560    2.6230    1.2740 C   0  0  0  0  0  0  0  0  0  0  0  0
   -0.2630    3.1980    1.9570 C   0  0  0  0  0  0  0  0  0  0  0  0
   -2.7500    3.3890    1.4290 C   0  0  0  0  0  0  0  0  0  0  0  0
   -2.6020    4.8060    0.9110 C   0  0  0  0  0  0  0  0  0  0  0  0
    0.4300    0.1680    0.2110 C   0  0  0  0  0  0  0  0  0  0  0  0
    1.1840    0.7410    1.0300 O   0  0  0  0  0  0  0  0  0  0  0  0
    1.0170   -0.9140   -0.6260 C   0  0  0  0  0  0  0  0  0  0  0  0
    2.2050   -1.5120    0.0490 C   0  0  0  0  0  0  0  0  0  0  0  0
    3.2690   -0.6080    0.3210 N   0  0  0  0  0  0  0  0  0  0  0  0
    3.9460   -0.1090   -0.8570 C   0  0  1  0  0  0  0  0  0  0  0  0
    5.0630    0.8030   -0.3330 C   0  0  0  0  0  0  0  0  0  0  0  0
    4.5910   -1.1740   -1.6890 C   0  0  0  0  0  0  0  0  0  0  0  0
   -2.2250    0.1130   -2.0170 C   0  0  0  0  0  0  0  0  0  0  0  0
   -3.0370   -0.6980   -2.7800 C   0  0  0  0  0  0  0  0  0  0  0  0
   -3.4410   -1.8860   -2.3290 N   0  0  0  0  0  0  0  0  0  0  0  0
   -3.0490   -2.2860   -1.1150 C   0  0  0  0  0  0  0  0  0  0  0  0
   -3.4570   -3.4100   -0.7250 O   0  0  0  0  0  0  0  0  0  0  0  0
  1  2  2  0
  2  3  1  0
  3  4  2  0
  3  5  1  0
  5  6  2  0
  5 24  1  0
  6  7  1  0
  6 21  1  0
  7  8  1  0
  7 13  1  0
  8  9  2  3
  9 10  1  0
  9 11  1  0
 11 12  1  0
 13 14  2  0
 13 15  1  0
 15 16  1  0
 16 17  1  0
 17 18  1  0
 18 19  1  1
 18 20  1  0
 21 22  2  0
 22 23  1  0
 23 24  1  0
 24 25  2  0
M  END
