
     RDKit          3D

 25 26  0  0  0  0  0  0  0  0999 V2000
    6.9850    0.1120    2.9700 C   0  0  0  0  0  0  0  0  0  0  0  0
    5.6240    0.0120    2.4130 C   0  0  0  0  0  0  0  0  0  0  0  0
    5.3640   -0.5970    1.2690 C   0  0  0  0  0  0  0  0  0  0  0  0
    6.4880   -1.2060    0.5130 C   0  0  0  0  0  0  0  0  0  0  0  0
    4.0030   -0.7110    0.6880 C   0  0  0  0  0  0  0  0  0  0  0  0
    3.0860   -0.1010    1.5050 O   0  0  0  0  0  0  0  0  0  0  0  0
    1.7990   -0.1570    1.0490 C   0  0  0  0  0  0  0  0  0  0  0  0
    1.6060    0.4980   -0.2930 C   0  0  0  0  0  0  0  0  0  0  0  0
    0.2130    0.3960   -0.7070 N   0  0  0  0  0  0  0  0  0  0  0  0
   -0.2640    0.9210   -1.9220 C   0  0  0  0  0  0  0  0  0  0  0  0
    0.5810    1.4910   -2.6700 O   0  0  0  0  0  0  0  0  0  0  0  0
   -1.6600    0.8690   -2.4190 C   0  0  1  0  0  0  0  0  0  0  0  0
   -1.8080   -0.2690   -3.4150 C   0  0  0  0  0  0  0  0  0  0  0  0
   -3.1760   -0.2740   -3.9740 C   0  0  0  0  0  0  0  0  0  0  0  0
   -4.2540   -0.2940   -2.9070 C   0  0  0  0  0  0  0  0  0  0  0  0
   -3.9840    0.6750   -1.8220 C   0  0  0  0  0  0  0  0  0  0  0  0
   -2.6170    0.7440   -1.3930 N   0  0  0  0  0  0  0  0  0  0  0  0
   -2.4390    1.4920   -0.1980 C   0  0  0  0  0  0  0  0  0  0  0  0
   -2.8500    0.8940    1.0620 C   0  0  0  0  0  0  0  0  0  0  0  0
   -2.7920    1.5690    2.2950 C   0  0  0  0  0  0  0  0  0  0  0  0
   -2.3690    2.9650    2.5480 C   0  0  0  0  0  0  0  0  0  0  0  0
   -3.1960    0.7140    3.2310 N   0  0  0  0  0  0  0  0  0  0  0  0
   -3.5050   -0.4490    2.6950 N   0  0  0  0  0  0  0  0  0  0  0  0
   -3.3010   -0.3710    1.3550 C   0  0  0  0  0  0  0  0  0  0  0  0
   -3.5240   -1.5400    0.4460 C   0  0  0  0  0  0  0  0  0  0  0  0
  1  2  1  0
  2  3  2  3
  3  4  1  0
  3  5  1  0
  5  6  1  0
  6  7  1  0
  7  8  1  0
  8  9  1  0
  9 10  1  0
 10 11  2  0
 12 10  1  1
 12 13  1  0
 12 17  1  0
 13 14  1  0
 14 15  1  0
 15 16  1  0
 16 17  1  0
 17 18  1  0
 18 19  1  0
 19 20  1  0
 19 24  2  0
 20 21  1  0
 20 22  2  0
 22 23  1  0
 23 24  1  0
 24 25  1  0
M  END
