
     RDKit          3D

 25 25  0  0  0  0  0  0  0  0999 V2000
   -5.0560    2.2300    1.9140 C   0  0  0  0  0  0  0  0  0  0  0  0
   -5.0640    2.9260    0.8540 C   0  0  0  0  0  0  0  0  0  0  0  0
   -4.0310    2.8190   -0.1750 C   0  0  0  0  0  0  0  0  0  0  0  0
   -4.1790    3.7680   -1.2110 C   0  0  0  0  0  0  0  0  0  0  0  0
   -2.9630    1.9010   -0.3560 C   0  0  0  0  0  0  0  0  0  0  0  0
   -3.4410    0.5310   -0.6710 N   0  0  0  0  0  0  0  0  0  0  0  0
   -2.4110   -0.2450   -1.4760 C   0  0  0  0  0  0  0  0  0  0  0  0
   -1.3710   -0.6200   -0.5310 C   0  0  0  0  0  0  0  0  0  0  0  0
   -0.1620   -1.3010   -1.1030 C   0  0  0  0  0  0  0  0  0  0  0  0
    0.6440   -1.6420    0.1420 C   0  0  0  0  0  0  0  0  0  0  0  0
    0.1310   -2.0770    1.1540 O   0  0  0  0  0  0  0  0  0  0  0  0
    2.0760   -1.4280    0.1070 N   0  0  0  0  0  0  0  0  0  0  0  0
    2.8050   -1.7250    1.3450 C   0  0  0  0  0  0  0  0  0  0  0  0
    4.2280   -1.6040    1.0890 C   0  0  0  0  0  0  0  0  0  0  0  0
    5.3680   -1.5260    0.8940 C   0  0  0  0  0  0  0  0  0  0  0  0
    6.6590   -1.4350    0.6960 C   0  0  0  0  0  0  0  0  0  0  0  0
    6.8910   -0.1950    1.6880 O   0  0  0  0  0  0  0  0  0  0  0  0
    7.9110   -1.5750    0.3220 N   0  0  0  0  0  0  0  0  0  0  0  0
    9.0890   -0.8340    0.6890 C   0  0  0  0  0  0  0  0  0  0  0  0
    8.7900    0.6230    0.3370 C   0  0  0  0  0  0  0  0  0  0  0  0
   -4.5760   -0.0550   -0.2490 C   0  0  0  0  0  0  0  0  0  0  0  0
   -4.6910   -0.9170    0.8050 C   0  0  0  0  0  0  0  0  0  0  0  0
   -6.0850   -1.3480    0.9470 C   0  0  0  0  0  0  0  0  0  0  0  0
   -6.7770   -0.6390   -0.0990 N   0  0  0  0  0  0  0  0  0  0  0  0
   -5.9930    0.0630   -0.7500 C   0  0  0  0  0  0  0  0  0  0  0  0
  1  2  2  0
  2  3  1  0
  3  4  2  0
  3  5  1  0
  5  6  1  0
  6  7  1  0
  6 21  1  0
  7  8  1  0
  8  9  1  0
  9 10  1  0
 10 11  2  0
 10 12  1  0
 12 13  1  0
 13 14  1  0
 14 15  3  0
 15 16  1  0
 16 17  2  0
 16 18  1  0
 18 19  1  0
 19 20  1  0
 21 22  2  0
 21 25  1  0
 22 23  1  0
 23 24  1  0
 24 25  2  0
M  END
