
     RDKit          3D

 25 26  0  0  0  0  0  0  0  0999 V2000
    5.5820   -3.6090    0.6560 C   0  0  0  0  0  0  0  0  0  0  0  0
    4.2380   -2.9790    0.5630 C   0  0  0  0  0  0  0  0  0  0  0  0
    3.9950   -2.0640   -0.3480 C   0  0  0  0  0  0  0  0  0  0  0  0
    5.0790   -1.6690   -1.2830 C   0  0  0  0  0  0  0  0  0  0  0  0
    2.6380   -1.3950   -0.4920 C   0  0  0  0  0  0  0  0  0  0  0  0
    2.7380   -0.0040   -0.3110 N   0  0  0  0  0  0  0  0  0  0  0  0
    1.7350    0.9090   -0.5890 C   0  0  0  0  0  0  0  0  0  0  0  0
    0.4740    0.9630    0.1690 C   0  0  2  0  0  0  0  0  0  0  0  0
    0.6880    1.1590    1.6600 C   0  0  0  0  0  0  0  0  0  0  0  0
   -0.4480   -0.1220   -0.0880 C   0  0  0  0  0  0  0  0  0  0  0  0
   -0.2590   -1.2870   -0.4640 O   0  0  0  0  0  0  0  0  0  0  0  0
   -1.7710    0.4440    0.1980 N   0  0  0  0  0  0  0  0  0  0  0  0
   -2.9170   -0.3630    0.5410 C   0  0  0  0  0  0  0  0  0  0  0  0
   -3.6790   -0.7910   -0.7140 C   0  0  0  0  0  0  0  0  0  0  0  0
   -4.8080   -1.5830   -0.2850 N   0  0  0  0  0  0  0  0  0  0  0  0
   -4.7940   -2.9010   -0.1090 C   0  0  0  0  0  0  0  0  0  0  0  0
   -6.0420   -3.3090    0.2920 C   0  0  0  0  0  0  0  0  0  0  0  0
   -6.8520   -2.2040    0.3660 C   0  0  0  0  0  0  0  0  0  0  0  0
   -6.0640   -1.1420    0.0030 C   0  0  0  0  0  0  0  0  0  0  0  0
   -1.6550    1.8540    0.0660 C   0  0  0  0  0  0  0  0  0  0  0  0
   -2.6270    2.6730    0.2460 O   0  0  0  0  0  0  0  0  0  0  0  0
   -0.3260    2.1660   -0.2840 N   0  0  0  0  0  0  0  0  0  0  0  0
    0.2160    3.3000   -0.8900 C   0  0  0  0  0  0  0  0  0  0  0  0
    0.6750    4.3820    0.0590 C   0  0  0  0  0  0  0  0  0  0  0  0
   -0.3910    4.9310    0.9340 C   0  0  0  0  0  0  0  0  0  0  0  0
  1  2  1  0
  2  3  2  3
  3  4  1  0
  3  5  1  0
  5  6  1  0
  6  7  1  0
  7  8  1  0
  8  9  1  1
  8 10  1  0
  8 22  1  0
 10 11  2  0
 10 12  1  0
 12 13  1  0
 12 20  1  0
 13 14  1  0
 14 15  1  0
 15 16  1  0
 15 19  1  0
 16 17  2  0
 17 18  1  0
 18 19  2  0
 20 21  2  0
 20 22  1  0
 22 23  1  0
 23 24  1  0
 24 25  1  0
M  END
