
     RDKit          3D

 45 49  0  0  0  0  0  0  0  0999 V2000
   -7.4980    4.3060    1.8850 C   0  0  0  0  0  0  0  0  0  0  0  0
   -6.5100    3.4110    2.4090 N   0  0  0  0  0  0  0  0  0  0  0  0
   -6.2960    2.0940    1.9050 C   0  0  0  0  0  0  0  0  0  0  0  0
   -5.3230    1.2810    2.4400 C   0  0  0  0  0  0  0  0  0  0  0  0
   -4.5230    1.7250    3.4850 O   0  0  0  0  0  0  0  0  0  0  0  0
   -5.1370    0.0040    1.9340 C   0  0  0  0  0  0  0  0  0  0  0  0
   -5.9280   -0.4670    0.8890 C   0  0  0  0  0  0  0  0  0  0  0  0
   -5.7360   -1.8550    0.3890 C   0  0  0  0  0  0  0  0  0  0  0  0
   -4.5250   -2.4460    0.9310 N   0  0  0  0  0  0  0  0  0  0  0  0
   -3.2420   -1.8740    0.6400 C   0  0  0  0  0  0  0  0  0  0  0  0
   -3.2050   -0.8450   -0.0890 O   0  0  0  0  0  0  0  0  0  0  0  0
   -1.9970   -2.4520    1.1590 C   0  0  0  0  0  0  0  0  0  0  0  0
   -2.0080   -3.4860    1.8710 O   0  0  0  0  0  0  0  0  0  0  0  0
   -0.7380   -1.8720    0.8760 N   0  0  0  0  0  0  0  0  0  0  0  0
    0.5260   -2.4080    1.3400 C   0  0  1  0  0  0  0  0  0  0  0  0
    1.3640   -2.6220    0.1000 C   0  0  0  0  0  0  0  0  0  0  0  0
    2.7170   -2.1210    0.4610 C   0  0  2  0  0  0  0  0  0  0  0  0
    3.7590   -3.2480    0.3540 C   0  0  0  0  0  0  0  0  0  0  0  0
    4.9730   -2.8400    0.6440 O   0  0  0  0  0  0  0  0  0  0  0  0
    6.0020   -2.0580    0.3900 C   0  0  0  0  0  0  0  0  0  0  0  0
    5.9590   -1.1710   -0.6630 C   0  0  0  0  0  0  0  0  0  0  0  0
    6.9960   -0.3100   -1.0060 C   0  0  0  0  0  0  0  0  0  0  0  0
    8.1460   -0.3240   -0.2670 C   0  0  0  0  0  0  0  0  0  0  0  0
    9.2500    0.5270   -0.5370 N   0  0  0  0  0  0  0  0  0  0  0  0
    9.1050    1.7700   -1.1810 C   0  0  0  0  0  0  0  0  0  0  0  0
    8.0050    2.2410   -1.5380 O   0  0  0  0  0  0  0  0  0  0  0  0
   10.2530    2.5970   -1.4780 N   0  0  0  0  0  0  0  0  0  0  0  0
   10.0920    3.8630   -2.1260 C   0  0  1  0  0  0  0  0  0  0  0  0
   11.1450    4.8700   -2.0250 C   0  0  0  0  0  0  0  0  0  0  0  0
   10.9400    4.1550   -3.2860 N   0  0  0  0  0  0  0  0  0  0  0  0
    8.2210   -1.2210    0.8150 C   0  0  0  0  0  0  0  0  0  0  0  0
    7.1880   -2.0570    1.1330 C   0  0  0  0  0  0  0  0  0  0  0  0
    7.2220   -2.9320    2.1660 F   0  0  0  0  0  0  0  0  0  0  0  0
    2.6420   -1.5670    1.7290 O   0  0  0  0  0  0  0  0  0  0  0  0
    1.3290   -1.4620    2.1330 C   0  0  0  0  0  0  0  0  0  0  0  0
    0.8980   -0.7000    3.0160 O   0  0  0  0  0  0  0  0  0  0  0  0
   -6.9100    0.3320    0.3410 C   0  0  0  0  0  0  0  0  0  0  0  0
   -7.0370    1.5890    0.8870 C   0  0  0  0  0  0  0  0  0  0  0  0
   -8.2740    2.4460   -0.1430 S   0  0  0  0  0  0  0  0  0  0  0  0
   -7.8760    1.3520   -1.6010 C   0  0  2  0  0  0  0  0  0  0  0  0
   -8.9640    1.2320   -2.4160 O   0  0  0  0  0  0  0  0  0  0  0  0
   -7.7880    0.0600   -0.7610 C   0  0  0  0  0  0  0  0  0  0  0  0
   -8.5400   -0.9190   -1.0680 C   0  0  0  0  0  0  0  0  0  0  0  0
   -8.8140   -2.1670   -0.3810 C   0  0  0  0  0  0  0  0  0  0  0  0
   -8.4050   -3.3110   -1.0350 F   0  0  0  0  0  0  0  0  0  0  0  0
  1  2  1  0
  2  3  1  0
  3  4  2  0
  3 38  1  0
  4  5  1  0
  4  6  1  0
  6  7  2  0
  7  8  1  0
  7 37  1  0
  8  9  1  0
  9 10  1  0
 10 11  2  0
 10 12  1  0
 12 13  2  0
 12 14  1  0
 15 14  1  6
 15 16  1  0
 15 35  1  0
 16 17  1  0
 17 18  1  1
 17 34  1  0
 18 19  1  0
 19 20  1  0
 20 21  2  0
 20 32  1  0
 21 22  1  0
 22 23  2  0
 23 24  1  0
 23 31  1  0
 24 25  1  0
 25 26  2  0
 25 27  1  0
 28 27  1  1
 28 29  1  0
 28 30  1  0
 29 30  1  0
 31 32  2  0
 32 33  1  0
 34 35  1  0
 35 36  2  0
 37 38  2  0
 37 42  1  0
 38 39  1  0
 39 40  1  0
 40 41  1  6
 40 42  1  0
 42 43  2  3
 43 44  1  0
 44 45  1  0
M  END
