
     RDKit          3D

 45 49  0  0  0  0  0  0  0  0999 V2000
    8.0510   -0.3230   -0.1140 C   0  0  0  0  0  0  0  0  0  0  0  0
    6.6440   -0.6240    0.1420 N   0  0  0  0  0  0  0  0  0  0  0  0
    6.1830   -1.9600    0.3020 C   0  0  0  0  0  0  0  0  0  0  0  0
    7.0590   -2.8820    0.2110 O   0  0  0  0  0  0  0  0  0  0  0  0
    4.8160   -2.3340    0.5550 C   0  0  0  0  0  0  0  0  0  0  0  0
    4.4960   -3.6660    0.7070 C   0  0  0  0  0  0  0  0  0  0  0  0
    3.2010   -4.0520    0.9480 C   0  0  0  0  0  0  0  0  0  0  0  0
    2.1910   -3.1210    1.0440 C   0  0  0  0  0  0  0  0  0  0  0  0
    2.4640   -1.7770    0.8990 C   0  0  0  0  0  0  0  0  0  0  0  0
    1.3500   -0.8110    1.0050 C   0  0  0  0  0  0  0  0  0  0  0  0
    0.8660   -0.3020   -0.2180 N   0  0  0  0  0  0  0  0  0  0  0  0
    0.8930    1.1020   -0.4090 C   0  0  2  0  0  0  0  0  0  0  0  0
    2.2080    1.7680   -0.1520 C   0  0  0  0  0  0  0  0  0  0  0  0
    1.9960    3.1680   -0.4070 O   0  0  0  0  0  0  0  0  0  0  0  0
    2.9680    4.1060   -0.2790 C   0  0  0  0  0  0  0  0  0  0  0  0
    4.2410    3.7670    0.1120 C   0  0  0  0  0  0  0  0  0  0  0  0
    5.2380    4.7430    0.2420 C   0  0  0  0  0  0  0  0  0  0  0  0
    4.9480    6.0500   -0.0210 C   0  0  0  0  0  0  0  0  0  0  0  0
    3.6810    6.4090   -0.4130 C   0  0  0  0  0  0  0  0  0  0  0  0
    2.6920    5.4260   -0.5400 C   0  0  0  0  0  0  0  0  0  0  0  0
   -0.1700    1.8450    0.3590 C   0  0  2  0  0  0  0  0  0  0  0  0
   -0.1010    1.6660    1.7190 O   0  0  0  0  0  0  0  0  0  0  0  0
   -1.5680    1.4480   -0.1240 C   0  0  1  0  0  0  0  0  0  0  0  0
   -1.6350    1.4150   -1.5160 O   0  0  0  0  0  0  0  0  0  0  0  0
   -2.0350    0.1880    0.5330 C   0  0  1  0  0  0  0  0  0  0  0  0
   -3.4550    0.4410    0.9960 C   0  0  0  0  0  0  0  0  0  0  0  0
   -4.3280    0.6240   -0.1010 O   0  0  0  0  0  0  0  0  0  0  0  0
   -5.6590    0.8660    0.1440 C   0  0  0  0  0  0  0  0  0  0  0  0
   -6.1910    0.9400    1.4150 C   0  0  0  0  0  0  0  0  0  0  0  0
   -7.5310    1.1830    1.6540 C   0  0  0  0  0  0  0  0  0  0  0  0
   -8.3980    1.3650    0.5890 C   0  0  0  0  0  0  0  0  0  0  0  0
   -7.8690    1.2920   -0.6840 C   0  0  0  0  0  0  0  0  0  0  0  0
   -6.5340    1.0490   -0.9200 C   0  0  0  0  0  0  0  0  0  0  0  0
   -1.9310   -0.9840   -0.2890 N   0  0  0  0  0  0  0  0  0  0  0  0
   -2.1990   -2.1890    0.4120 C   0  0  0  0  0  0  0  0  0  0  0  0
   -2.8600   -3.2460   -0.3700 C   0  0  0  0  0  0  0  0  0  0  0  0
   -3.1950   -3.0930   -1.6850 C   0  0  0  0  0  0  0  0  0  0  0  0
   -3.8110   -4.1280   -2.3440 C   0  0  0  0  0  0  0  0  0  0  0  0
   -4.1040   -5.3260   -1.7170 C   0  0  0  0  0  0  0  0  0  0  0  0
   -3.7610   -5.4730   -0.3840 C   0  0  0  0  0  0  0  0  0  0  0  0
   -3.1470   -4.4260    0.2540 C   0  0  0  0  0  0  0  0  0  0  0  0
   -0.3650   -1.1370   -0.9940 S   0  0  1  0  0  0  0  0  0  0  0  0
   -0.3910   -0.6990   -2.4560 O   0  0  0  0  0  0  0  0  0  0  0  0
    0.0510   -2.6010   -1.0860 O   0  0  0  0  0  0  0  0  0  0  0  0
    3.7780   -1.4320    0.6580 C   0  0  0  0  0  0  0  0  0  0  0  0
  1  2  1  0
  2  3  1  0
  3  4  2  0
  3  5  1  0
  5  6  2  0
  5 45  1  0
  6  7  1  0
  7  8  2  0
  8  9  1  0
  9 10  1  0
  9 45  2  0
 10 11  1  0
 11 12  1  0
 42 11  1  1
 12 13  1  1
 12 21  1  0
 13 14  1  0
 14 15  1  0
 15 16  2  0
 15 20  1  0
 16 17  1  0
 17 18  2  0
 18 19  1  0
 19 20  2  0
 21 22  1  1
 21 23  1  0
 23 24  1  6
 23 25  1  0
 25 26  1  6
 25 34  1  0
 26 27  1  0
 27 28  1  0
 28 29  2  0
 28 33  1  0
 29 30  1  0
 30 31  2  0
 31 32  1  0
 32 33  2  0
 34 35  1  0
 34 42  1  0
 35 36  1  0
 36 37  2  0
 36 41  1  0
 37 38  1  0
 38 39  2  0
 39 40  1  0
 40 41  2  0
 42 43  2  0
 42 44  2  0
M  END
