
     RDKit          3D

 45 49  0  0  0  0  0  0  0  0999 V2000
  -10.3510    2.7900    0.6500 C   0  0  0  0  0  0  0  0  0  0  0  0
   -9.9000    1.2700    1.4820 S   0  0  0  0  0  0  0  0  0  0  0  0
  -10.0520    1.4880    2.9810 O   0  0  0  0  0  0  0  0  0  0  0  0
   -8.2540    0.8050    1.1660 N   0  0  0  0  0  0  0  0  0  0  0  0
   -7.3990    1.9390    1.5330 C   0  0  0  0  0  0  0  0  0  0  0  0
   -5.9980    1.3960    1.6660 C   0  0  0  0  0  0  0  0  0  0  0  0
   -5.6570    0.6190    0.5310 N   0  0  0  0  0  0  0  0  0  0  0  0
   -4.2630    0.2570    0.3460 C   0  0  0  0  0  0  0  0  0  0  0  0
   -3.3760    0.6100    1.1570 O   0  0  0  0  0  0  0  0  0  0  0  0
   -3.8690   -0.5400   -0.8130 C   0  0  0  0  0  0  0  0  0  0  0  0
   -2.6080   -0.8630   -0.9710 C   0  0  0  0  0  0  0  0  0  0  0  0
   -2.2590   -1.6870   -2.1860 C   0  0  0  0  0  0  0  0  0  0  0  0
   -0.9640   -1.4100   -2.6190 O   0  0  0  0  0  0  0  0  0  0  0  0
    0.0730   -1.0440   -1.7380 C   0  0  0  0  0  0  0  0  0  0  0  0
    1.3830   -1.1300   -2.1050 C   0  0  0  0  0  0  0  0  0  0  0  0
    2.4640   -0.7840   -1.2810 C   0  0  0  0  0  0  0  0  0  0  0  0
    3.7450   -0.9140   -1.8160 N   0  0  0  0  0  0  0  0  0  0  0  0
    4.9690   -0.8440   -1.0970 C   0  0  0  0  0  0  0  0  0  0  0  0
    4.9130   -0.6630    0.1280 O   0  0  0  0  0  0  0  0  0  0  0  0
    6.2150   -0.9720   -1.7220 N   0  0  0  0  0  0  0  0  0  0  0  0
    7.5030   -0.9060   -1.1500 C   0  0  0  0  0  0  0  0  0  0  0  0
    7.8950    0.4140   -0.5930 C   0  0  1  0  0  0  0  0  0  0  0  0
    7.0570    0.8780    0.4680 N   0  0  0  0  0  0  0  0  0  0  0  0
    7.3020    0.4950    1.8250 C   0  0  0  0  0  0  0  0  0  0  0  0
    6.4580    0.7580    2.6900 O   0  0  0  0  0  0  0  0  0  0  0  0
    8.5420   -0.1980    2.1530 C   0  0  1  0  0  0  0  0  0  0  0  0
    8.9660    0.2960    3.4060 O   0  0  0  0  0  0  0  0  0  0  0  0
    8.3610   -1.5610    2.3250 F   0  0  0  0  0  0  0  0  0  0  0  0
    9.6150    0.1020    1.2020 C   0  0  0  0  0  0  0  0  0  0  0  0
   10.9570    0.0910    1.6370 C   0  0  0  0  0  0  0  0  0  0  0  0
   11.9680    0.3670    0.7460 C   0  0  0  0  0  0  0  0  0  0  0  0
   13.2670    0.3490    1.1940 F   0  0  0  0  0  0  0  0  0  0  0  0
   11.6490    0.6510   -0.5620 C   0  0  0  0  0  0  0  0  0  0  0  0
   10.3160    0.6620   -0.9930 C   0  0  0  0  0  0  0  0  0  0  0  0
    9.3210    0.3890   -0.1090 C   0  0  0  0  0  0  0  0  0  0  0  0
    2.1320   -0.3320   -0.0270 C   0  0  0  0  0  0  0  0  0  0  0  0
    0.7900   -0.2370    0.3710 C   0  0  0  0  0  0  0  0  0  0  0  0
   -0.2230   -0.5900   -0.4800 C   0  0  0  0  0  0  0  0  0  0  0  0
   -1.5800   -0.5070   -0.1140 O   0  0  0  0  0  0  0  0  0  0  0  0
   -6.5770    0.1520   -0.4480 C   0  0  0  0  0  0  0  0  0  0  0  0
   -7.9960    0.4950   -0.2080 C   0  0  1  0  0  0  0  0  0  0  0  0
   -8.8860   -0.6150   -0.7260 C   0  0  0  0  0  0  0  0  0  0  0  0
   -8.7600   -1.8840    0.0010 C   0  0  0  0  0  0  0  0  0  0  0  0
   -9.7560   -2.2130    0.9650 N   0  0  0  0  0  0  0  0  0  0  0  0
   -7.8280   -2.6940   -0.1750 O   0  0  0  0  0  0  0  0  0  0  0  0
  2  1  1  6
  2  3  2  0
  2  4  1  0
  4  5  1  0
  4 41  1  0
  5  6  1  0
  6  7  1  0
  7  8  1  0
  7 40  1  0
  8  9  2  0
  8 10  1  0
 10 11  2  3
 11 12  1  0
 11 39  1  0
 12 13  1  0
 13 14  1  0
 14 15  2  0
 14 38  1  0
 15 16  1  0
 16 17  1  0
 16 36  2  0
 17 18  1  0
 18 19  2  0
 18 20  1  0
 20 21  1  0
 22 21  1  1
 22 23  1  0
 22 35  1  0
 23 24  1  0
 24 25  2  0
 24 26  1  0
 26 27  1  1
 26 28  1  0
 26 29  1  0
 29 30  2  0
 29 35  1  0
 30 31  1  0
 31 32  1  0
 31 33  2  0
 33 34  1  0
 34 35  2  0
 36 37  1  0
 37 38  2  0
 38 39  1  0
 40 41  1  0
 41 42  1  1
 42 43  1  0
 43 44  1  0
 43 45  2  0
M  END
