
     RDKit          3D

 44 48  0  0  0  0  0  0  0  0999 V2000
   -6.9630   -3.2390    0.1220 C   0  0  0  0  0  0  0  0  0  0  0  0
   -6.0880   -2.7250   -0.8780 O   0  0  0  0  0  0  0  0  0  0  0  0
   -4.7870   -2.4050   -0.5410 C   0  0  0  0  0  0  0  0  0  0  0  0
   -4.3950   -2.5920    0.6390 O   0  0  0  0  0  0  0  0  0  0  0  0
   -3.8630   -1.8220   -1.5760 C   0  0  1  0  0  0  0  0  0  0  0  0
   -4.4830   -2.0930   -2.8290 O   0  0  0  0  0  0  0  0  0  0  0  0
   -3.8060   -0.3460   -1.4090 C   0  0  2  0  0  0  0  0  0  0  0  0
   -3.1290    0.0870   -0.2330 N   0  0  0  0  0  0  0  0  0  0  0  0
   -2.1670    1.0250   -0.0530 C   0  0  0  0  0  0  0  0  0  0  0  0
   -1.7040    1.7520   -0.9640 O   0  0  0  0  0  0  0  0  0  0  0  0
   -1.5460    1.2190    1.3510 C   0  0  0  0  0  0  0  0  0  0  0  0
   -0.2180    0.5550    1.0710 C   0  0  0  0  0  0  0  0  0  0  0  0
    0.7150    1.2930    0.4700 C   0  0  0  0  0  0  0  0  0  0  0  0
    1.8960    0.6590    0.0790 C   0  0  0  0  0  0  0  0  0  0  0  0
    2.0820   -0.6590    0.3120 C   0  0  0  0  0  0  0  0  0  0  0  0
    1.0840   -1.3670    0.9330 C   0  0  0  0  0  0  0  0  0  0  0  0
   -0.0820   -0.7480    1.3160 N   0  0  0  0  0  0  0  0  0  0  0  0
    1.2030   -2.8390    1.1430 C   0  0  0  0  0  0  0  0  0  0  0  0
    2.2060   -3.4030    0.1850 C   0  0  0  0  0  0  0  0  0  0  0  0
    3.4990   -2.6660    0.0890 C   0  0  2  0  0  0  0  0  0  0  0  0
    4.3280   -2.8720    1.4130 C   0  0  0  0  0  0  0  0  0  0  0  0
    3.5700   -2.3330    2.4570 O   0  0  0  0  0  0  0  0  0  0  0  0
    3.3570   -1.2380    0.0480 N   0  0  0  0  0  0  0  0  0  0  0  0
    4.4580   -0.4130   -0.1880 C   0  0  0  0  0  0  0  0  0  0  0  0
    4.4310    0.8270    0.3400 N   0  0  0  0  0  0  0  0  0  0  0  0
    5.3400    1.7740    0.2700 C   0  0  0  0  0  0  0  0  0  0  0  0
    5.1610    3.1150    0.8780 C   0  0  0  0  0  0  0  0  0  0  0  0
    6.4950    1.4480   -0.4460 C   0  0  0  0  0  0  0  0  0  0  0  0
    6.5760    0.1890   -1.0070 C   0  0  0  0  0  0  0  0  0  0  0  0
    5.5710   -0.7200   -0.8770 N   0  0  0  0  0  0  0  0  0  0  0  0
    7.8640   -0.1120   -1.6840 C   0  0  0  0  0  0  0  0  0  0  0  0
    8.9030    0.3430   -0.6220 C   0  0  0  0  0  0  0  0  0  0  0  0
    8.9320    1.8660   -0.6800 C   0  0  0  0  0  0  0  0  0  0  0  0
    7.5620    2.4560   -0.5970 C   0  0  0  0  0  0  0  0  0  0  0  0
   -5.2160    0.2310   -1.4330 C   0  0  0  0  0  0  0  0  0  0  0  0
   -5.6790    0.6100   -2.5080 O   0  0  0  0  0  0  0  0  0  0  0  0
   -5.9570    0.3410   -0.2310 N   0  0  0  0  0  0  0  0  0  0  0  0
   -7.3020    0.8290   -0.1520 C   0  0  1  0  0  0  0  0  0  0  0  0
   -7.7090    1.1500    1.2520 C   0  0  0  0  0  0  0  0  0  0  0  0
   -8.6720    2.1610    1.1010 O   0  0  0  0  0  0  0  0  0  0  0  0
   -7.8010    3.3580    0.2150 S   0  0  0  0  0  0  0  0  0  0  0  0
   -8.2730    4.3100   -0.7260 O   0  0  0  0  0  0  0  0  0  0  0  0
   -6.0940    3.2360    0.7090 F   0  0  0  0  0  0  0  0  0  0  0  0
   -7.4520    2.1830   -0.8660 C   0  0  0  0  0  0  0  0  0  0  0  0
  1  2  1  0
  2  3  1  0
  3  4  2  0
  3  5  1  0
  5  6  1  6
  5  7  1  0
  7  8  1  1
  7 35  1  0
  8  9  1  0
  9 10  2  0
  9 11  1  0
 11 12  1  0
 12 13  2  0
 12 17  1  0
 13 14  1  0
 14 15  2  0
 15 16  1  0
 15 23  1  0
 16 17  2  0
 16 18  1  0
 18 19  1  0
 19 20  1  0
 20 21  1  1
 20 23  1  0
 21 22  1  0
 23 24  1  0
 24 25  2  0
 24 30  1  0
 25 26  1  0
 26 27  1  0
 26 28  2  0
 28 29  1  0
 28 34  1  0
 29 30  2  0
 29 31  1  0
 31 32  1  0
 32 33  1  0
 33 34  1  0
 35 36  2  0
 35 37  1  0
 38 37  1  1
 38 39  1  0
 38 44  1  0
 39 40  1  0
 40 41  1  0
 41 42  2  0
 41 43  1  0
 41 44  1  0
M  END
