
     RDKit          3D

 44 48  0  0  0  0  0  0  0  0999 V2000
   -6.1340   -4.1660    1.6450 C   0  0  0  0  0  0  0  0  0  0  0  0
   -6.1130   -2.8020    1.3090 O   0  0  0  0  0  0  0  0  0  0  0  0
   -7.1780   -2.0910    0.8270 C   0  0  0  0  0  0  0  0  0  0  0  0
   -8.2540   -2.7750    0.6920 O   0  0  0  0  0  0  0  0  0  0  0  0
   -7.1840   -0.6950    0.4770 C   0  0  0  0  0  0  0  0  0  0  0  0
   -8.3150   -0.1460    0.0370 C   0  0  0  0  0  0  0  0  0  0  0  0
   -9.4030   -0.9430   -0.0570 F   0  0  0  0  0  0  0  0  0  0  0  0
   -8.4780    1.2610   -0.3510 C   0  0  1  0  0  0  0  0  0  0  0  0
   -9.5670    1.9520    0.4520 C   0  0  2  0  0  0  0  0  0  0  0  0
  -10.9640    1.4680    0.4300 C   0  0  0  0  0  0  0  0  0  0  0  0
  -10.6110    2.6430   -0.3880 C   0  0  0  0  0  0  0  0  0  0  0  0
   -7.3170    2.0410   -0.1860 O   0  0  0  0  0  0  0  0  0  0  0  0
   -6.1650    1.4430    0.2670 C   0  0  0  0  0  0  0  0  0  0  0  0
   -6.0290    0.1650    0.5970 C   0  0  0  0  0  0  0  0  0  0  0  0
   -4.7190   -0.3580    1.0790 C   0  0  0  0  0  0  0  0  0  0  0  0
   -4.0820   -1.6020   -0.0270 S   0  0  0  0  0  0  0  0  0  0  0  0
   -3.6260   -0.9560   -1.6350 C   0  0  0  0  0  0  0  0  0  0  0  0
   -2.4460   -0.0380   -1.4610 C   0  0  0  0  0  0  0  0  0  0  0  0
   -2.6340    1.3140   -1.2890 C   0  0  0  0  0  0  0  0  0  0  0  0
   -1.5730    2.1660   -1.1190 C   0  0  0  0  0  0  0  0  0  0  0  0
   -0.2830    1.5860   -1.1300 C   0  0  0  0  0  0  0  0  0  0  0  0
   -0.0850    0.2540   -1.2990 C   0  0  0  0  0  0  0  0  0  0  0  0
    1.1780   -0.3610   -1.3130 N   0  0  0  0  0  0  0  0  0  0  0  0
    2.4170    0.2660   -1.1660 C   0  0  0  0  0  0  0  0  0  0  0  0
    2.5030    1.4940   -1.0060 O   0  0  0  0  0  0  0  0  0  0  0  0
    3.6560   -0.4750   -1.1930 N   0  0  0  0  0  0  0  0  0  0  0  0
    4.9500    0.1490   -1.0440 C   0  0  2  0  0  0  0  0  0  0  0  0
    5.7740   -0.1850   -2.2420 C   0  0  0  0  0  0  0  0  0  0  0  0
    7.2520    0.0130   -2.0330 C   0  0  0  0  0  0  0  0  0  0  0  0
    7.5550    0.7300   -0.7390 C   0  0  0  0  0  0  0  0  0  0  0  0
    7.0020   -0.0840    0.4120 C   0  0  1  0  0  0  0  0  0  0  0  0
    7.6890   -1.3700    0.5680 C   0  0  0  0  0  0  0  0  0  0  0  0
    7.0290   -2.4360    0.4990 O   0  0  0  0  0  0  0  0  0  0  0  0
    9.0490   -1.5070    0.7930 O   0  0  0  0  0  0  0  0  0  0  0  0
    9.6340   -2.7860    0.9330 C   0  0  0  0  0  0  0  0  0  0  0  0
    7.2380    0.6960    1.6280 N   0  0  0  0  0  0  0  0  0  0  0  0
    7.9660    0.3790    2.6850 N   0  0  0  0  0  0  0  0  0  0  0  0
    7.9310    1.3730    3.6050 C   0  0  0  0  0  0  0  0  0  0  0  0
    8.5290    1.3740    4.7310 O   0  0  0  0  0  0  0  0  0  0  0  0
    7.1520    2.3240    3.0840 N   0  0  0  0  0  0  0  0  0  0  0  0
    6.7280    1.9240    1.8880 C   0  0  0  0  0  0  0  0  0  0  0  0
    5.9720    2.5780    1.1150 O   0  0  0  0  0  0  0  0  0  0  0  0
    5.5330   -0.3260    0.2600 C   0  0  0  0  0  0  0  0  0  0  0  0
   -1.2050   -0.5310   -1.4630 N   0  0  0  0  0  0  0  0  0  0  0  0
  1  2  1  0
  2  3  1  0
  3  4  2  0
  3  5  1  0
  5  6  2  0
  5 14  1  0
  6  7  1  0
  6  8  1  0
  8  9  1  0
  8 12  1  1
  9 10  1  6
  9 11  1  0
 10 11  1  0
 12 13  1  0
 13 14  2  0
 14 15  1  0
 15 16  1  0
 16 17  1  0
 17 18  1  0
 18 19  2  0
 18 44  1  0
 19 20  1  0
 20 21  2  0
 21 22  1  0
 22 23  1  0
 22 44  2  0
 23 24  1  0
 24 25  2  0
 24 26  1  0
 27 26  1  6
 27 28  1  0
 27 43  1  0
 28 29  1  0
 29 30  1  0
 30 31  1  0
 31 32  1  0
 31 36  1  1
 31 43  1  0
 32 33  2  0
 32 34  1  0
 34 35  1  0
 36 37  1  0
 36 41  1  0
 37 38  1  0
 38 39  2  0
 38 40  1  0
 40 41  1  0
 41 42  2  0
M  END
