
     RDKit          3D

 38 41  0  0  0  0  0  0  0  0999 V2000
    1.4670   -5.5070    2.5410 C   0  0  0  0  0  0  0  0  0  0  0  0
    1.2190   -4.3430    1.6530 C   0  0  0  0  0  0  0  0  0  0  0  0
   -0.0060   -4.1620    1.2050 C   0  0  0  0  0  0  0  0  0  0  0  0
   -0.3090   -3.0170    0.3170 C   0  0  0  0  0  0  0  0  0  0  0  0
    0.6150   -2.1500   -0.0540 C   0  0  0  0  0  0  0  0  0  0  0  0
    1.9800   -2.3220    0.4190 C   0  0  0  0  0  0  0  0  0  0  0  0
    3.0300   -1.5700    0.1510 C   0  0  0  0  0  0  0  0  0  0  0  0
    3.3030   -0.4000   -0.6220 C   0  0  1  0  0  0  0  0  0  0  0  0
    3.5970   -0.6020   -2.0300 O   0  0  0  0  0  0  0  0  0  0  0  0
    3.1320    0.9630   -0.2590 C   0  0  1  0  0  0  0  0  0  0  0  0
    2.3430    1.4380    0.8860 C   0  0  0  0  0  0  0  0  0  0  0  0
    1.4280    2.6170    0.5070 C   0  0  2  0  0  0  0  0  0  0  0  0
    2.1340    3.9310    0.9180 C   0  0  0  0  0  0  0  0  0  0  0  0
    0.2780    2.5870    1.2760 O   0  0  0  0  0  0  0  0  0  0  0  0
    1.0700    2.6450   -0.9370 C   0  0  0  0  0  0  0  0  0  0  0  0
   -0.3400    3.0760   -1.2360 C   0  0  0  0  0  0  0  0  0  0  0  0
   -0.4210    3.6880   -2.3720 O   0  0  0  0  0  0  0  0  0  0  0  0
   -1.3430    2.8590   -0.4470 O   0  0  0  0  0  0  0  0  0  0  0  0
   -2.4700    2.1790   -0.2010 C   0  0  0  0  0  0  0  0  0  0  0  0
   -3.1880    2.5560    0.9450 C   0  0  0  0  0  0  0  0  0  0  0  0
   -4.3560    1.9740    1.3450 C   0  0  0  0  0  0  0  0  0  0  0  0
   -5.0380    2.3870    2.5030 O   0  0  0  0  0  0  0  0  0  0  0  0
   -4.8830    0.9610    0.6050 C   0  0  0  0  0  0  0  0  0  0  0  0
   -4.2200    0.5500   -0.5300 C   0  0  0  0  0  0  0  0  0  0  0  0
   -4.8180   -0.4790   -1.2190 O   0  0  0  0  0  0  0  0  0  0  0  0
   -5.9360   -1.2210   -0.9770 C   0  0  0  0  0  0  0  0  0  0  0  0
   -5.9540   -2.1070    0.2230 C   0  0  0  0  0  0  0  0  0  0  0  0
   -7.1950   -2.7810    0.2970 O   0  0  0  0  0  0  0  0  0  0  0  0
   -3.0100    1.1340   -0.9660 C   0  0  0  0  0  0  0  0  0  0  0  0
   -2.4040    0.6950   -2.0800 O   0  0  0  0  0  0  0  0  0  0  0  0
   -1.3010    0.0210   -2.5090 C   0  0  0  0  0  0  0  0  0  0  0  0
   -1.0090   -1.3120   -1.8160 C   0  0  0  0  0  0  0  0  0  0  0  0
    0.1530   -1.0120   -0.8990 C   0  0  1  0  0  0  0  0  0  0  0  0
   -0.3830   -0.0690    0.0230 O   0  0  0  0  0  0  0  0  0  0  0  0
    4.4900    0.4210   -0.0370 C   0  0  2  0  0  0  0  0  0  0  0  0
    5.6570    0.7350   -0.9020 C   0  0  0  0  0  0  0  0  0  0  0  0
    6.6620    1.4930   -0.2230 N   0  0  0  0  0  0  0  0  0  0  0  0
    2.1780   -3.4530    1.2720 O   0  0  0  0  0  0  0  0  0  0  0  0
  1  2  1  0
  2  3  2  0
  2 38  1  0
  3  4  1  0
  4  5  2  0
  5  6  1  0
  5 33  1  0
  6  7  2  0
  6 38  1  0
  7  8  1  0
  8  9  1  6
  8 10  1  0
  8 35  1  0
 10 11  1  1
 10 35  1  0
 11 12  1  0
 12 13  1  1
 12 14  1  0
 12 15  1  0
 15 16  1  0
 16 17  2  0
 16 18  1  0
 18 19  1  0
 19 20  2  0
 19 29  1  0
 20 21  1  0
 21 22  1  0
 21 23  2  0
 23 24  1  0
 24 25  1  0
 24 29  2  0
 25 26  1  0
 26 27  1  0
 27 28  1  0
 29 30  1  0
 30 31  1  0
 31 32  1  0
 32 33  1  0
 33 34  1  1
 35 36  1  6
 36 37  1  0
M  CHG  1  37   1
M  END
