
     RDKit          3D

 39 43  0  0  0  0  0  0  0  0999 V2000
   -9.5360    2.8980    0.3260 C   0  0  0  0  0  0  0  0  0  0  0  0
   -8.6770    4.1350   -0.0190 C   0  0  0  0  0  0  0  0  0  0  0  0
   -7.9200    3.7960   -1.2240 O   0  0  0  0  0  0  0  0  0  0  0  0
   -6.9990    2.8000   -1.1470 C   0  0  0  0  0  0  0  0  0  0  0  0
   -6.8460    2.2600    0.0440 O   0  0  0  0  0  0  0  0  0  0  0  0
   -6.1220    2.1790   -2.1740 C   0  0  0  0  0  0  0  0  0  0  0  0
   -5.0630    1.5010   -1.4130 O   0  0  0  0  0  0  0  0  0  0  0  0
   -5.1120    0.1080   -1.4210 N   0  0  0  0  0  0  0  0  0  0  0  0
   -4.2890   -0.4950   -0.5760 C   0  0  0  0  0  0  0  0  0  0  0  0
   -4.2590   -1.9510   -0.4560 C   0  0  0  0  0  0  0  0  0  0  0  0
   -3.4510   -2.5820    0.4530 C   0  0  0  0  0  0  0  0  0  0  0  0
   -3.4950   -3.9550    0.6630 C   0  0  0  0  0  0  0  0  0  0  0  0
   -4.3940   -4.6920   -0.0920 C   0  0  0  0  0  0  0  0  0  0  0  0
   -5.1960   -4.0450   -1.0020 C   0  0  0  0  0  0  0  0  0  0  0  0
   -5.1160   -2.6990   -1.1680 N   0  0  0  0  0  0  0  0  0  0  0  0
   -3.3600    0.3390    0.1890 C   0  0  2  0  0  0  0  0  0  0  0  0
   -1.9050   -0.0760   -0.0570 C   0  0  0  0  0  0  0  0  0  0  0  0
   -1.5730   -0.6380   -1.2750 C   0  0  0  0  0  0  0  0  0  0  0  0
   -0.2410   -1.0120   -1.5420 C   0  0  0  0  0  0  0  0  0  0  0  0
    0.7430   -0.8230   -0.6070 C   0  0  0  0  0  0  0  0  0  0  0  0
    0.4040   -0.2550    0.6110 C   0  0  0  0  0  0  0  0  0  0  0  0
   -0.9290    0.1100    0.8560 C   0  0  0  0  0  0  0  0  0  0  0  0
    1.5450   -0.1750    1.3060 N   0  0  0  0  0  0  0  0  0  0  0  0
    2.5670   -0.6610    0.5940 C   0  0  0  0  0  0  0  0  0  0  0  0
    3.9870   -0.6960    1.0610 C   0  0  0  0  0  0  0  0  0  0  0  0
    4.8090   -0.1940   -0.0150 N   0  0  0  0  0  0  0  0  0  0  0  0
    6.2350   -0.0380    0.1340 C   0  0  0  0  0  0  0  0  0  0  0  0
    7.0470    0.0770   -0.9720 C   0  0  0  0  0  0  0  0  0  0  0  0
    8.4220    0.2480   -0.8390 C   0  0  0  0  0  0  0  0  0  0  0  0
    9.0110    0.3090    0.4240 C   0  0  0  0  0  0  0  0  0  0  0  0
   10.4640    0.5280    0.5200 C   0  0  0  0  0  0  0  0  0  0  0  0
   11.2220    0.9370   -0.5790 N   0  0  0  0  0  0  0  0  0  0  0  0
   11.0320    0.3540    1.6610 N   0  0  0  0  0  0  0  0  0  0  0  0
    8.1970    0.1940    1.5030 C   0  0  0  0  0  0  0  0  0  0  0  0
    6.8050    0.0210    1.3840 C   0  0  0  0  0  0  0  0  0  0  0  0
    2.0890   -1.0680   -0.5850 N   0  0  0  0  0  0  0  0  0  0  0  0
    2.7520   -1.7190   -1.6790 C   0  0  0  0  0  0  0  0  0  0  0  0
   -3.7320    0.3180    1.7040 C   0  0  0  0  0  0  0  0  0  0  0  0
   -3.5800    1.5660    0.9140 C   0  0  0  0  0  0  0  0  0  0  0  0
  1  2  1  0
  2  3  1  0
  3  4  1  0
  4  5  2  0
  4  6  1  0
  6  7  1  0
  7  8  1  0
  8  9  2  3
  9 10  1  0
 16  9  1  6
 10 11  2  0
 10 15  1  0
 11 12  1  0
 12 13  2  0
 13 14  1  0
 14 15  2  0
 16 17  1  0
 16 38  1  0
 16 39  1  0
 17 18  2  0
 17 22  1  0
 18 19  1  0
 19 20  2  0
 20 21  1  0
 20 36  1  0
 21 22  2  0
 21 23  1  0
 23 24  2  0
 24 25  1  0
 24 36  1  0
 25 26  1  0
 26 27  1  0
 27 28  2  0
 27 35  1  0
 28 29  1  0
 29 30  2  0
 30 31  1  0
 30 34  1  0
 31 32  1  0
 31 33  2  0
 34 35  2  0
 36 37  1  0
 38 39  1  0
M  CHG  1  33   1
M  END
