
     RDKit          3D

 39 42  0  0  0  0  0  0  0  0999 V2000
   -2.8430   -2.5100    2.1180 C   0  0  0  0  0  0  0  0  0  0  0  0
   -3.3320   -1.1860    2.1410 O   0  0  0  0  0  0  0  0  0  0  0  0
   -4.2590   -0.8040    1.1840 C   0  0  0  0  0  0  0  0  0  0  0  0
   -5.5960   -1.0940    1.5100 C   0  0  0  0  0  0  0  0  0  0  0  0
   -5.9390   -1.7110    2.7010 O   0  0  0  0  0  0  0  0  0  0  0  0
   -6.6200   -0.7620    0.6360 C   0  0  0  0  0  0  0  0  0  0  0  0
   -6.3130   -0.1460   -0.5560 C   0  0  0  0  0  0  0  0  0  0  0  0
   -7.3790    0.1710   -1.4080 O   0  0  0  0  0  0  0  0  0  0  0  0
   -5.0180    0.1250   -0.8510 C   0  0  0  0  0  0  0  0  0  0  0  0
   -3.9350   -0.1880   -0.0020 C   0  0  0  0  0  0  0  0  0  0  0  0
   -2.7300    0.1390   -0.4180 O   0  0  0  0  0  0  0  0  0  0  0  0
   -1.4130    0.0760   -0.0950 C   0  0  1  0  0  0  0  0  0  0  0  0
   -0.6540   -0.4240   -1.3090 C   0  0  0  0  0  0  0  0  0  0  0  0
   -0.6980   -1.9080   -1.3810 C   0  0  2  0  0  0  0  0  0  0  0  0
   -2.0670   -2.2680   -1.3420 O   0  0  0  0  0  0  0  0  0  0  0  0
    0.0010   -2.6200   -0.2880 C   0  0  0  0  0  0  0  0  0  0  0  0
   -0.5410   -3.6860    0.1900 O   0  0  0  0  0  0  0  0  0  0  0  0
    1.1910   -2.1930    0.2280 O   0  0  0  0  0  0  0  0  0  0  0  0
    2.3570   -1.8920   -0.6150 C   0  0  2  0  0  0  0  0  0  0  0  0
    3.0700   -3.1560   -0.7840 C   0  0  0  0  0  0  0  0  0  0  0  0
    4.2940   -3.2080   -1.6330 C   0  0  0  0  0  0  0  0  0  0  0  0
    4.0420   -2.7850   -2.9510 O   0  0  0  0  0  0  0  0  0  0  0  0
    2.9800   -0.6610   -0.0930 C   0  0  2  0  0  0  0  0  0  0  0  0
    4.4150   -0.5840    0.1850 C   0  0  0  0  0  0  0  0  0  0  0  0
    5.0310   -1.4230    1.1210 N   0  0  0  0  0  0  0  0  0  0  0  0
    2.1170   -0.0610    1.0360 C   0  0  0  0  0  0  0  0  0  0  0  0
    2.1420    1.4100    1.0450 C   0  0  0  0  0  0  0  0  0  0  0  0
    3.0760    2.1030    1.7470 C   0  0  0  0  0  0  0  0  0  0  0  0
    2.8500    3.5590    1.5590 C   0  0  0  0  0  0  0  0  0  0  0  0
    2.2300    3.5310    0.1510 C   0  0  2  0  0  0  0  0  0  0  0  0
    1.5870    4.7260    0.0120 O   0  0  0  0  0  0  0  0  0  0  0  0
    1.2640    2.3630    0.3900 C   0  0  0  0  0  0  0  0  0  0  0  0
   -0.0390    2.2590    0.1390 C   0  0  0  0  0  0  0  0  0  0  0  0
   -0.6100    3.4530   -0.5680 C   0  0  0  0  0  0  0  0  0  0  0  0
   -1.7170    4.1870   -0.2040 C   0  0  0  0  0  0  0  0  0  0  0  0
   -1.8900    5.1880   -1.1310 C   0  0  0  0  0  0  0  0  0  0  0  0
   -0.8710    5.0250   -2.0350 C   0  0  0  0  0  0  0  0  0  0  0  0
   -0.1440    3.9910   -1.6600 O   0  0  0  0  0  0  0  0  0  0  0  0
   -0.8750    1.2560    0.4320 O   0  0  0  0  0  0  0  0  0  0  0  0
  1  2  1  0
  2  3  1  0
  3  4  2  0
  3 10  1  0
  4  5  1  0
  4  6  1  0
  6  7  2  0
  7  8  1  0
  7  9  1  0
  9 10  2  0
 10 11  1  0
 12 11  1  6
 12 13  1  0
 12 39  1  0
 13 14  1  0
 14 15  1  1
 14 16  1  0
 16 17  2  0
 16 18  1  0
 18 19  1  0
 19 20  1  1
 19 23  1  0
 20 21  1  0
 21 22  1  0
 23 24  1  1
 23 26  1  0
 24 25  1  0
 26 27  1  0
 27 28  2  0
 27 32  1  0
 28 29  1  0
 29 30  1  0
 30 31  1  1
 30 32  1  0
 32 33  2  0
 33 34  1  0
 33 39  1  0
 34 35  2  0
 34 38  1  0
 35 36  1  0
 36 37  2  0
 37 38  1  0
M  CHG  1  25   1
M  END
