
     RDKit          3D

 38 42  0  0  0  0  0  0  0  0999 V2000
   -4.4610    0.3960   -2.3500 O   0  0  0  0  0  0  0  0  0  0  0  0
   -3.6130    0.7190   -1.5350 C   0  0  0  0  0  0  0  0  0  0  0  0
   -3.4020    0.0380   -0.2260 C   0  0  1  0  0  0  0  0  0  0  0  0
   -3.1600   -1.3970   -0.5570 C   0  0  0  0  0  0  0  0  0  0  0  0
   -2.8780   -2.2030    0.4980 O   0  0  0  0  0  0  0  0  0  0  0  0
   -2.3090    0.7130    0.4290 N   0  0  0  0  0  0  0  0  0  0  0  0
   -1.0140    0.1720    0.2120 C   0  0  1  0  0  0  0  0  0  0  0  0
   -0.0830    1.1810   -0.4700 C   0  0  0  0  0  0  0  0  0  0  0  0
    0.4060    0.6860   -1.7720 C   0  0  0  0  0  0  0  0  0  0  0  0
   -0.4330    0.4810   -2.7040 O   0  0  0  0  0  0  0  0  0  0  0  0
    1.7670    0.4640   -1.9310 O   0  0  0  0  0  0  0  0  0  0  0  0
    2.7750    1.3970   -1.7210 C   0  0  0  0  0  0  0  0  0  0  0  0
    3.8120    0.8830   -0.7880 C   0  0  0  0  0  0  0  0  0  0  0  0
    4.5750    1.9070   -0.1930 C   0  0  0  0  0  0  0  0  0  0  0  0
    5.5880    1.6730    0.7000 C   0  0  0  0  0  0  0  0  0  0  0  0
    5.8890    0.3770    1.0480 C   0  0  0  0  0  0  0  0  0  0  0  0
    5.1570   -0.6140    0.4750 C   0  0  0  0  0  0  0  0  0  0  0  0
    4.1010   -0.4180   -0.4560 C   0  0  0  0  0  0  0  0  0  0  0  0
    3.4960   -1.5180   -0.9150 O   0  0  0  0  0  0  0  0  0  0  0  0
    2.4410   -2.1320   -1.4260 C   0  0  0  0  0  0  0  0  0  0  0  0
    2.4560   -2.5780   -2.7660 C   0  0  0  0  0  0  0  0  0  0  0  0
    1.4350   -3.2250   -3.3960 C   0  0  0  0  0  0  0  0  0  0  0  0
    0.3000   -3.4680   -2.6810 C   0  0  0  0  0  0  0  0  0  0  0  0
    0.2380   -3.0500   -1.3660 C   0  0  0  0  0  0  0  0  0  0  0  0
    1.2560   -2.3970   -0.7140 C   0  0  0  0  0  0  0  0  0  0  0  0
    1.0480   -2.0450    0.5880 O   0  0  0  0  0  0  0  0  0  0  0  0
    1.0410   -0.8390    1.2630 C   0  0  0  0  0  0  0  0  0  0  0  0
   -0.3380   -0.2520    1.4970 C   0  0  1  0  0  0  0  0  0  0  0  0
   -0.1910    0.9120    2.2860 O   0  0  0  0  0  0  0  0  0  0  0  0
    6.9430    0.4280    1.9570 O   0  0  0  0  0  0  0  0  0  0  0  0
    6.9520    1.6830    2.6030 C   0  0  0  0  0  0  0  0  0  0  0  0
    6.5150    2.5780    1.4410 C   0  0  0  0  0  0  0  0  0  0  0  0
   -4.6490    0.2620    0.5740 C   0  0  1  0  0  0  0  0  0  0  0  0
   -4.9620    1.7180    0.8130 C   0  0  0  0  0  0  0  0  0  0  0  0
   -5.9230    2.0370   -0.1730 O   0  0  0  0  0  0  0  0  0  0  0  0
   -6.7900    0.9660   -0.0750 C   0  0  0  0  0  0  0  0  0  0  0  0
   -5.9120   -0.2730    0.0420 C   0  0  2  0  0  0  0  0  0  0  0  0
   -6.5720   -1.1000    0.9870 O   0  0  0  0  0  0  0  0  0  0  0  0
  1  2  2  0
  2  3  1  0
  3  4  1  6
  3  6  1  0
  3 33  1  0
  4  5  1  0
  7  6  1  1
  7  8  1  0
  7 28  1  0
  8  9  1  0
  9 10  2  0
  9 11  1  0
 11 12  1  0
 12 13  1  0
 13 14  2  0
 13 18  1  0
 14 15  1  0
 15 16  2  0
 15 32  1  0
 16 17  1  0
 16 30  1  0
 17 18  2  0
 18 19  1  0
 19 20  1  0
 20 21  2  0
 20 25  1  0
 21 22  1  0
 22 23  2  0
 23 24  1  0
 24 25  2  0
 25 26  1  0
 26 27  1  0
 27 28  1  0
 28 29  1  1
 30 31  1  0
 31 32  1  0
 33 34  1  6
 33 37  1  0
 34 35  1  0
 35 36  1  0
 36 37  1  0
 37 38  1  1
M  CHG  1   6   1
M  END
