
     RDKit          3D

 13 13  0  0  0  0  0  0  0  0999 V2000
   -2.3660    0.2550    2.5990 O   0  0  0  0  0  0  0  0  0  0  0  0
   -1.8140    0.3110    1.4720 C   0  0  0  0  0  0  0  0  0  0  0  0
   -0.5800   -0.4080    1.2740 C   0  0  0  0  0  0  0  0  0  0  0  0
   -0.3050   -0.9230    0.0930 C   0  0  0  0  0  0  0  0  0  0  0  0
    0.8260   -1.6200   -0.2100 O   0  0  0  0  0  0  0  0  0  0  0  0
    2.1470   -1.3810    0.0690 C   0  0  0  0  0  0  0  0  0  0  0  0
    2.7240   -0.1020   -0.4760 C   0  0  0  0  0  0  0  0  0  0  0  0
    2.0940    1.0940   -0.0140 N   0  0  0  0  0  0  0  0  0  0  0  0
    1.5550    1.8580   -0.8150 O   0  0  0  0  0  0  0  0  0  0  0  0
    2.0690    1.4330    1.3150 O   0  0  0  0  0  0  0  0  0  0  0  0
   -1.3270   -0.7140   -0.9800 C   0  0  0  0  0  0  0  0  0  0  0  0
   -1.8590    0.6770   -0.9770 C   0  0  0  0  0  0  0  0  0  0  0  0
   -2.4080    1.0970    0.3600 C   0  0  0  0  0  0  0  0  0  0  0  0
  1  2  2  0
  2  3  1  0
  2 13  1  0
  3  4  2  0
  4  5  1  0
  4 11  1  0
  5  6  1  0
  6  7  1  0
  7  8  1  0
  8  9  2  0
  8 10  1  0
 11 12  1  0
 12 13  1  0
M  CHG  2   8   1  10  -1
M  END
