
     RDKit          3D

 12 12  0  0  0  0  0  0  0  0999 V2000
    4.0940   -0.3690   -0.2850 C   0  0  0  0  0  0  0  0  0  0  0  0
    2.9080    0.3500   -0.0020 O   0  0  0  0  0  0  0  0  0  0  0  0
    1.7020   -0.2990    0.0320 C   0  0  0  0  0  0  0  0  0  0  0  0
    1.6400   -1.5370   -0.1870 O   0  0  0  0  0  0  0  0  0  0  0  0
    0.4780    0.4310    0.3220 C   0  0  0  0  0  0  0  0  0  0  0  0
   -0.6950   -0.1890    0.3570 C   0  0  0  0  0  0  0  0  0  0  0  0
   -0.9290   -1.5390    0.1390 O   0  0  0  0  0  0  0  0  0  0  0  0
   -2.2830   -1.7870    0.2660 C   0  0  0  0  0  0  0  0  0  0  0  0
   -2.9130   -2.8800    0.1460 O   0  0  0  0  0  0  0  0  0  0  0  0
   -2.9310   -0.5340    0.5790 C   0  0  0  0  0  0  0  0  0  0  0  0
   -1.9890    0.3990    0.6300 C   0  0  0  0  0  0  0  0  0  0  0  0
   -2.2020    1.8370    0.9210 C   0  0  0  0  0  0  0  0  0  0  0  0
  1  2  1  0
  2  3  1  0
  3  4  2  0
  3  5  1  0
  5  6  2  3
  6  7  1  0
  6 11  1  0
  7  8  1  0
  8  9  2  0
  8 10  1  0
 10 11  2  0
 11 12  1  0
M  END
