
     RDKit          3D

 13 13  0  0  0  0  0  0  0  0999 V2000
    2.6220   -1.6770   -0.7620 C   0  0  0  0  0  0  0  0  0  0  0  0
    1.9650   -0.4440   -0.5400 O   0  0  0  0  0  0  0  0  0  0  0  0
    0.6110   -0.4800   -0.1750 C   0  0  0  0  0  0  0  0  0  0  0  0
   -0.0740   -1.6590   -0.0320 C   0  0  0  0  0  0  0  0  0  0  0  0
   -1.4140   -1.7090    0.3280 C   0  0  0  0  0  0  0  0  0  0  0  0
   -2.0690   -0.5150    0.5480 C   0  0  0  0  0  0  0  0  0  0  0  0
   -3.4190   -0.4600    0.9160 O   0  0  0  0  0  0  0  0  0  0  0  0
   -1.4220    0.7190    0.4180 C   0  0  0  0  0  0  0  0  0  0  0  0
   -0.0930    0.6970    0.0570 C   0  0  0  0  0  0  0  0  0  0  0  0
    0.6780    1.9510   -0.1020 C   0  0  0  0  0  0  0  0  0  0  0  0
   -0.0910    3.1470    0.1400 N   0  0  0  0  0  0  0  0  0  0  0  0
    0.2090    3.9350    1.0660 O   0  0  0  0  0  0  0  0  0  0  0  0
   -1.1670    3.3990   -0.6760 O   0  0  0  0  0  0  0  0  0  0  0  0
  1  2  1  0
  2  3  1  0
  3  4  2  0
  3  9  1  0
  4  5  1  0
  5  6  2  0
  6  7  1  0
  6  8  1  0
  8  9  2  0
  9 10  1  0
 10 11  1  0
 11 12  2  0
 11 13  1  0
M  CHG  2  11   1  13  -1
M  END
