
     RDKit          3D

 13 13  0  0  0  0  0  0  0  0999 V2000
    0.7070   -0.7910   -0.9740 O   0  0  0  0  0  0  0  0  0  0  0  0
    1.0200   -0.0840    0.0110 C   0  0  0  0  0  0  0  0  0  0  0  0
    2.4350    0.0190    0.3920 C   0  0  0  0  0  0  0  0  0  0  0  0
    3.2960   -0.8060   -0.5450 C   0  0  0  0  0  0  0  0  0  0  0  0
    4.6600   -0.6570   -0.1120 N   0  0  0  0  0  0  0  0  0  0  0  0
    5.5110   -0.1830   -0.8700 O   0  0  0  0  0  0  0  0  0  0  0  0
    5.0120   -1.0440    1.1460 O   0  0  0  0  0  0  0  0  0  0  0  0
    0.0620    0.5870    0.7280 O   0  0  0  0  0  0  0  0  0  0  0  0
   -1.3060    0.5240    0.4080 C   0  0  0  0  0  0  0  0  0  0  0  0
   -1.9740    1.3180   -0.4040 C   0  0  0  0  0  0  0  0  0  0  0  0
   -3.4080    0.9560   -0.5030 C   0  0  0  0  0  0  0  0  0  0  0  0
   -3.6080   -0.0020    0.6460 C   0  0  0  0  0  0  0  0  0  0  0  0
   -2.2190   -0.4780    0.9580 C   0  0  0  0  0  0  0  0  0  0  0  0
  1  2  2  0
  2  3  1  0
  2  8  1  0
  3  4  1  0
  4  5  1  0
  5  6  2  0
  5  7  1  0
  8  9  1  0
  9 10  2  0
  9 13  1  0
 10 11  1  0
 11 12  1  0
 12 13  1  0
M  CHG  2   5   1   7  -1
M  END
