
     RDKit          3D

 13 13  0  0  0  0  0  0  0  0999 V2000
    2.4500    2.1040    1.7880 C   0  0  0  0  0  0  0  0  0  0  0  0
    1.5610    1.2320    1.1260 O   0  0  0  0  0  0  0  0  0  0  0  0
    1.7410    0.8640   -0.1960 C   0  0  0  0  0  0  0  0  0  0  0  0
    2.7740    1.3840   -0.7440 O   0  0  0  0  0  0  0  0  0  0  0  0
    0.8700   -0.0270   -0.9410 C   0  0  0  0  0  0  0  0  0  0  0  0
   -0.2060   -0.5900   -0.4330 C   0  0  0  0  0  0  0  0  0  0  0  0
   -1.1550   -1.5260   -1.1510 C   0  0  0  0  0  0  0  0  0  0  0  0
   -2.4750   -0.8240   -0.8270 C   0  0  0  0  0  0  0  0  0  0  0  0
   -2.3070   -0.5940    0.6530 C   0  0  0  0  0  0  0  0  0  0  0  0
   -0.8150   -0.5080    0.9200 C   0  0  0  0  0  0  0  0  0  0  0  0
    1.1890   -0.3120   -2.2940 N   0  0  0  0  0  0  0  0  0  0  0  0
    1.5400   -1.4260   -2.7000 O   0  0  0  0  0  0  0  0  0  0  0  0
    1.0890    0.7540   -3.1810 O   0  0  0  0  0  0  0  0  0  0  0  0
  1  2  1  0
  2  3  1  0
  3  4  2  0
  3  5  1  0
  5  6  2  3
  5 11  1  0
  6  7  1  0
  6 10  1  0
  7  8  1  0
  8  9  1  0
  9 10  1  0
 11 12  2  0
 11 13  1  0
M  CHG  2  11   1  13  -1
M  END
