
     RDKit          3D

 13 13  0  0  0  0  0  0  0  0999 V2000
   -4.0060    1.0130   -0.7100 C   0  0  0  0  0  0  0  0  0  0  0  0
   -2.9440    0.8080    0.1860 O   0  0  0  0  0  0  0  0  0  0  0  0
   -2.1600   -0.3190    0.2260 C   0  0  0  0  0  0  0  0  0  0  0  0
   -2.3760   -1.2480   -0.5840 O   0  0  0  0  0  0  0  0  0  0  0  0
   -1.0670   -0.4640    1.2030 C   0  0  0  0  0  0  0  0  0  0  0  0
    0.2600   -0.4700    0.6400 N   0  0  0  0  0  0  0  0  0  0  0  0
    0.8840   -1.5940    0.2170 C   0  0  0  0  0  0  0  0  0  0  0  0
    2.1480   -1.3170   -0.2460 C   0  0  0  0  0  0  0  0  0  0  0  0
    2.3070    0.0590   -0.0960 C   0  0  0  0  0  0  0  0  0  0  0  0
    3.5010    0.7960   -0.4460 C   0  0  0  0  0  0  0  0  0  0  0  0
    3.5460    2.0410   -0.2340 O   0  0  0  0  0  0  0  0  0  0  0  0
    4.5710    0.1490   -1.0070 O   0  0  0  0  0  0  0  0  0  0  0  0
    1.1190    0.5380    0.4520 C   0  0  0  0  0  0  0  0  0  0  0  0
  1  2  1  0
  2  3  1  0
  3  4  2  0
  3  5  1  0
  5  6  1  0
  6  7  1  0
  6 13  1  0
  7  8  2  0
  8  9  1  0
  9 10  1  0
  9 13  2  0
 10 11  2  0
 10 12  1  0
M  END
