
     RDKit          3D

 39 42  0  0  0  0  0  0  0  0999 V2000
   -6.7440    1.8090    2.5980 C   0  0  0  0  0  0  0  0  0  0  0  0
   -5.6690    0.9800    2.9840 O   0  0  0  0  0  0  0  0  0  0  0  0
   -5.3260   -0.1820    2.3010 C   0  0  0  0  0  0  0  0  0  0  0  0
   -5.9560   -1.3260    2.7520 C   0  0  0  0  0  0  0  0  0  0  0  0
   -6.8640   -1.2840    3.8190 O   0  0  0  0  0  0  0  0  0  0  0  0
   -5.7170   -2.5470    2.1740 C   0  0  0  0  0  0  0  0  0  0  0  0
   -6.3560   -3.6800    2.6420 O   0  0  0  0  0  0  0  0  0  0  0  0
   -4.8210   -2.5680    1.1220 C   0  0  0  0  0  0  0  0  0  0  0  0
   -4.1660   -1.4570    0.6290 C   0  0  0  0  0  0  0  0  0  0  0  0
   -4.4300   -0.2330    1.2450 C   0  0  0  0  0  0  0  0  0  0  0  0
   -3.7990    0.9440    0.8230 O   0  0  0  0  0  0  0  0  0  0  0  0
   -2.3640    1.0630    0.7830 C   0  0  0  0  0  0  0  0  0  0  0  0
   -1.8960    2.3480    0.1560 C   0  0  0  0  0  0  0  0  0  0  0  0
   -0.5060    2.4120    0.2150 O   0  0  0  0  0  0  0  0  0  0  0  0
    0.4810    1.4820    0.1210 C   0  0  0  0  0  0  0  0  0  0  0  0
    1.4050    1.4300    1.1820 C   0  0  0  0  0  0  0  0  0  0  0  0
    2.4560    0.5440    1.2350 C   0  0  0  0  0  0  0  0  0  0  0  0
    2.6650   -0.3650    0.2210 C   0  0  0  0  0  0  0  0  0  0  0  0
    3.7220   -1.2550    0.2790 O   0  0  0  0  0  0  0  0  0  0  0  0
    4.5860   -1.2250    1.3830 C   0  0  0  0  0  0  0  0  0  0  0  0
    5.6620   -2.2280    1.3060 C   0  0  0  0  0  0  0  0  0  0  0  0
    6.9440   -1.8800    1.3030 C   0  0  0  0  0  0  0  0  0  0  0  0
    7.4240   -0.4840    1.3750 C   0  0  2  0  0  0  0  0  0  0  0  0
    8.6990   -0.4420    0.7850 O   0  0  0  0  0  0  0  0  0  0  0  0
    7.5850   -0.0120    2.8050 C   0  0  0  0  0  0  0  0  0  0  0  0
    8.4860   -0.9130    3.4100 O   0  0  0  0  0  0  0  0  0  0  0  0
    1.7730   -0.3280   -0.8250 C   0  0  0  0  0  0  0  0  0  0  0  0
    0.7070    0.5710   -0.8780 C   0  0  0  0  0  0  0  0  0  0  0  0
   -0.1000    0.4500   -2.1490 C   0  0  2  0  0  0  0  0  0  0  0  0
   -1.0430   -0.6940   -2.1540 C   0  0  0  0  0  0  0  0  0  0  0  0
   -2.4630   -0.2980   -2.4400 C   0  0  0  0  0  0  0  0  0  0  0  0
   -3.5180   -1.0970   -1.7720 C   0  0  0  0  0  0  0  0  0  0  0  0
   -3.2700   -1.5240   -0.4500 O   0  0  0  0  0  0  0  0  0  0  0  0
    0.8630    0.2520   -3.3610 C   0  0  2  0  0  0  0  0  0  0  0  0
    2.1420    0.7320   -3.1080 O   0  0  0  0  0  0  0  0  0  0  0  0
    0.0850    1.2910   -4.1370 C   0  0  2  0  0  0  0  0  0  0  0  0
    0.9090    2.2880   -4.8020 N   0  0  0  0  0  0  0  0  0  0  0  0
   -0.4490    1.7390   -2.7860 C   0  0  2  0  0  0  0  0  0  0  0  0
    0.4060    2.7550   -2.3040 O   0  0  0  0  0  0  0  0  0  0  0  0
  1  2  1  0
  2  3  1  0
  3  4  2  0
  3 10  1  0
  4  5  1  0
  4  6  1  0
  6  7  1  0
  6  8  2  0
  8  9  1  0
  9 10  2  0
  9 33  1  0
 10 11  1  0
 11 12  1  0
 12 13  1  0
 13 14  1  0
 14 15  1  0
 15 16  2  0
 15 28  1  0
 16 17  1  0
 17 18  2  0
 18 19  1  0
 18 27  1  0
 19 20  1  0
 20 21  1  0
 21 22  2  3
 22 23  1  0
 23 24  1  1
 23 25  1  0
 25 26  1  0
 27 28  2  0
 28 29  1  0
 29 30  1  1
 29 34  1  0
 29 38  1  0
 30 31  1  0
 31 32  1  0
 32 33  1  0
 34 35  1  1
 34 36  1  0
 36 37  1  1
 36 38  1  0
 38 39  1  1
M  CHG  1  37   1
M  END
