
     RDKit          3D

 38 42  0  0  0  0  0  0  0  0999 V2000
   -3.1480    3.2640   -0.6450 O   0  0  0  0  0  0  0  0  0  0  0  0
   -2.6010    2.1450   -0.7760 C   0  0  0  0  0  0  0  0  0  0  0  0
   -3.3690    0.8990   -0.6340 C   0  0  1  0  0  0  0  0  0  0  0  0
   -4.2630    0.8640   -1.8880 C   0  0  0  0  0  0  0  0  0  0  0  0
   -5.0710    1.9820   -1.9980 O   0  0  0  0  0  0  0  0  0  0  0  0
   -2.5940   -0.3130   -0.7370 N   0  0  0  0  0  0  0  0  0  0  0  0
   -1.1930   -0.2200   -0.3500 C   0  0  1  0  0  0  0  0  0  0  0  0
   -0.9820   -1.1820    0.7590 C   0  0  0  0  0  0  0  0  0  0  0  0
    0.0750   -0.8920    1.7470 C   0  0  0  0  0  0  0  0  0  0  0  0
   -0.3010   -1.1430    2.9700 O   0  0  0  0  0  0  0  0  0  0  0  0
    1.3170   -0.4200    1.4600 O   0  0  0  0  0  0  0  0  0  0  0  0
    1.8350    0.7670    1.0800 C   0  0  0  0  0  0  0  0  0  0  0  0
    3.1970    0.7920    0.4810 C   0  0  0  0  0  0  0  0  0  0  0  0
    3.7610    2.0750    0.5310 C   0  0  0  0  0  0  0  0  0  0  0  0
    4.9970    2.3780    0.0230 C   0  0  0  0  0  0  0  0  0  0  0  0
    5.7390    1.3830   -0.5730 C   0  0  0  0  0  0  0  0  0  0  0  0
    5.2030    0.1480   -0.6240 C   0  0  0  0  0  0  0  0  0  0  0  0
    3.9120   -0.2160   -0.1030 C   0  0  0  0  0  0  0  0  0  0  0  0
    3.5540   -1.5030   -0.2480 O   0  0  0  0  0  0  0  0  0  0  0  0
    2.9740   -2.6240    0.1860 C   0  0  0  0  0  0  0  0  0  0  0  0
    3.6080   -3.5380    1.0480 C   0  0  0  0  0  0  0  0  0  0  0  0
    3.0920   -4.7010    1.5320 C   0  0  0  0  0  0  0  0  0  0  0  0
    1.8150   -5.0160    1.1360 C   0  0  0  0  0  0  0  0  0  0  0  0
    1.1440   -4.1590    0.2920 C   0  0  0  0  0  0  0  0  0  0  0  0
    1.6620   -2.9830   -0.1990 C   0  0  0  0  0  0  0  0  0  0  0  0
    0.8240   -2.2940   -1.0100 O   0  0  0  0  0  0  0  0  0  0  0  0
    0.7790   -1.1590   -1.7110 C   0  0  0  0  0  0  0  0  0  0  0  0
   -0.3640   -0.2470   -1.5450 C   0  0  1  0  0  0  0  0  0  0  0  0
   -1.1660   -0.3940   -2.7200 O   0  0  0  0  0  0  0  0  0  0  0  0
    6.9490    1.9060   -1.0150 O   0  0  0  0  0  0  0  0  0  0  0  0
    6.7640    3.3090   -1.2010 C   0  0  0  0  0  0  0  0  0  0  0  0
    5.8240    3.6110   -0.0560 C   0  0  0  0  0  0  0  0  0  0  0  0
   -4.1610    0.8290    0.6380 C   0  0  1  0  0  0  0  0  0  0  0  0
   -5.1450    1.9780    0.7930 C   0  0  0  0  0  0  0  0  0  0  0  0
   -5.8170    1.5980    1.9810 O   0  0  0  0  0  0  0  0  0  0  0  0
   -6.0710    0.2550    1.8460 C   0  0  0  0  0  0  0  0  0  0  0  0
   -5.1280   -0.2980    0.7650 C   0  0  2  0  0  0  0  0  0  0  0  0
   -4.6630   -1.4820    1.2650 O   0  0  0  0  0  0  0  0  0  0  0  0
  1  2  2  0
  2  3  1  0
  3  4  1  6
  3  6  1  0
  3 33  1  0
  4  5  1  0
  7  6  1  6
  7  8  1  0
  7 28  1  0
  8  9  1  0
  9 10  2  0
  9 11  1  0
 11 12  1  0
 12 13  1  0
 13 14  2  0
 13 18  1  0
 14 15  1  0
 15 16  2  0
 15 32  1  0
 16 17  1  0
 16 30  1  0
 17 18  2  0
 18 19  1  0
 19 20  1  0
 20 21  2  0
 20 25  1  0
 21 22  1  0
 22 23  2  0
 23 24  1  0
 24 25  2  0
 25 26  1  0
 26 27  1  0
 27 28  1  0
 28 29  1  6
 30 31  1  0
 31 32  1  0
 33 34  1  6
 33 37  1  0
 34 35  1  0
 35 36  1  0
 36 37  1  0
 37 38  1  1
M  CHG  1   6   1
M  END
