
     RDKit          3D

 32 35  0  0  0  0  0  0  0  0999 V2000
   11.1500    0.2520   -2.1590 N   0  0  0  0  0  0  0  0  0  0  0  0
    9.8390   -0.0000   -1.7140 C   0  0  0  0  0  0  0  0  0  0  0  0
    9.5610   -0.9070   -0.8950 O   0  0  0  0  0  0  0  0  0  0  0  0
    8.7230    0.8060   -2.2000 N   0  0  0  0  0  0  0  0  0  0  0  0
    7.5000    0.6390   -1.8430 N   0  0  0  0  0  0  0  0  0  0  0  0
    6.3620    0.4840   -1.5980 C   0  0  0  0  0  0  0  0  0  0  0  0
    5.7990    0.4170   -0.2180 C   0  0  0  0  0  0  0  0  0  0  0  0
    6.6340    0.5370    0.8440 C   0  0  0  0  0  0  0  0  0  0  0  0
    6.0910    0.4730    2.0690 N   0  0  0  0  0  0  0  0  0  0  0  0
    4.7690    0.2980    2.2890 C   0  0  0  0  0  0  0  0  0  0  0  0
    4.2810    0.2410    3.5470 N   0  0  0  0  0  0  0  0  0  0  0  0
    2.9730    0.0660    3.7670 C   0  0  0  0  0  0  0  0  0  0  0  0
    2.0610   -0.0630    2.7280 C   0  0  0  0  0  0  0  0  0  0  0  0
    2.5320   -0.0090    1.4420 C   0  0  0  0  0  0  0  0  0  0  0  0
    1.6780   -0.1260    0.3450 N   0  0  0  0  0  0  0  0  0  0  0  0
    0.2720   -0.3380    0.3920 C   0  0  0  0  0  0  0  0  0  0  0  0
   -0.3340   -0.4430    1.4780 O   0  0  0  0  0  0  0  0  0  0  0  0
   -0.5130   -0.4400   -0.8180 N   0  0  0  0  0  0  0  0  0  0  0  0
   -1.9360   -0.6550   -0.7560 C   0  0  0  0  0  0  0  0  0  0  0  0
   -2.6460    0.4080   -0.0440 C   0  0  0  0  0  0  0  0  0  0  0  0
   -2.0530    1.3940    0.4480 O   0  0  0  0  0  0  0  0  0  0  0  0
   -4.0600    0.3300    0.1020 N   0  0  0  0  0  0  0  0  0  0  0  0
   -4.8020    1.3730    0.8090 C   0  0  0  0  0  0  0  0  0  0  0  0
   -5.8540    1.9020   -0.1270 C   0  0  0  0  0  0  0  0  0  0  0  0
   -6.5790    0.8300   -0.8950 C   0  0  0  0  0  0  0  0  0  0  0  0
   -6.2440   -0.5490   -0.3730 C   0  0  2  0  0  0  0  0  0  0  0  0
   -7.0990   -1.6180   -1.0300 C   0  0  0  0  0  0  0  0  0  0  0  0
   -7.6330   -1.9830    0.3270 C   0  0  0  0  0  0  0  0  0  0  0  0
   -6.8130   -0.9020    0.9590 C   0  0  0  0  0  0  0  0  0  0  0  0
   -4.7740   -0.7950   -0.4490 C   0  0  0  0  0  0  0  0  0  0  0  0
    3.8970    0.1730    1.2100 C   0  0  0  0  0  0  0  0  0  0  0  0
    4.4530    0.2370   -0.0610 C   0  0  0  0  0  0  0  0  0  0  0  0
  1  2  1  0
  2  3  2  0
  2  4  1  0
  4  5  1  0
  5  6  2  3
  6  7  1  0
  7  8  2  0
  7 32  1  0
  8  9  1  0
  9 10  2  0
 10 11  1  0
 10 31  1  0
 11 12  2  0
 12 13  1  0
 13 14  2  0
 14 15  1  0
 14 31  1  0
 15 16  1  0
 16 17  2  0
 16 18  1  0
 18 19  1  0
 19 20  1  0
 20 21  2  0
 20 22  1  0
 22 23  1  0
 22 30  1  0
 23 24  1  0
 24 25  1  0
 26 25  1  6
 26 27  1  0
 26 29  1  0
 26 30  1  0
 27 28  1  0
 28 29  1  0
 31 32  2  0
M  END
