
     RDKit          3D

 32 35  0  0  0  0  0  0  0  0999 V2000
    0.9700    1.7070    0.6470 C   0  0  0  0  0  0  0  0  0  0  0  0
    0.9320    0.4030    1.3080 C   0  0  0  0  0  0  0  0  0  0  0  0
    1.7900    0.2900    2.3100 N   0  0  0  0  0  0  0  0  0  0  0  0
    2.6810    1.2870    2.7550 C   0  0  0  0  0  0  0  0  0  0  0  0
    3.9000    1.3090    1.8850 C   0  0  0  0  0  0  0  0  0  0  0  0
    4.7840    2.1570    2.1570 O   0  0  0  0  0  0  0  0  0  0  0  0
    3.9970    0.3900    0.8180 N   0  0  0  0  0  0  0  0  0  0  0  0
    5.1090    0.3510   -0.0420 C   0  0  0  0  0  0  0  0  0  0  0  0
    6.2250    1.1320   -0.0160 C   0  0  0  0  0  0  0  0  0  0  0  0
    7.2650    1.0040   -0.9200 C   0  0  0  0  0  0  0  0  0  0  0  0
    7.1610    0.0610   -1.8650 N   0  0  0  0  0  0  0  0  0  0  0  0
    6.0770   -0.7480   -1.9450 C   0  0  0  0  0  0  0  0  0  0  0  0
    5.0400   -0.6260   -1.0510 C   0  0  0  0  0  0  0  0  0  0  0  0
    3.9240   -1.5000   -1.1780 N   0  0  0  0  0  0  0  0  0  0  0  0
    0.1330   -0.7650    1.0150 C   0  0  0  0  0  0  0  0  0  0  0  0
    0.3810   -1.9180    1.8000 C   0  0  0  0  0  0  0  0  0  0  0  0
   -0.2990   -3.0450    1.6040 N   0  0  0  0  0  0  0  0  0  0  0  0
   -1.2500   -3.0760    0.6250 C   0  0  0  0  0  0  0  0  0  0  0  0
   -1.5110   -1.9920   -0.1410 C   0  0  0  0  0  0  0  0  0  0  0  0
   -0.8000   -0.7720    0.0460 C   0  0  0  0  0  0  0  0  0  0  0  0
   -1.2390    0.2870   -0.8590 C   0  0  0  0  0  0  0  0  0  0  0  0
   -2.7840    0.4220   -0.6590 C   0  0  0  0  0  0  0  0  0  0  0  0
   -3.4060   -0.8170   -1.0020 N   0  0  0  0  0  0  0  0  0  0  0  0
   -4.7890   -0.9450   -1.1170 C   0  0  0  0  0  0  0  0  0  0  0  0
   -5.2210   -2.1020   -1.4640 O   0  0  0  0  0  0  0  0  0  0  0  0
   -5.7650    0.0830   -0.8860 C   0  0  0  0  0  0  0  0  0  0  0  0
   -7.1630   -0.1010   -1.0720 C   0  0  0  0  0  0  0  0  0  0  0  0
   -7.7960    1.0290   -0.7920 N   0  0  0  0  0  0  0  0  0  0  0  0
   -6.9070    1.9560   -0.4310 C   0  0  0  0  0  0  0  0  0  0  0  0
   -7.1860    3.1370   -0.1040 O   0  0  0  0  0  0  0  0  0  0  0  0
   -5.6870    1.3640   -0.4950 N   0  0  0  0  0  0  0  0  0  0  0  0
   -2.5400   -2.0030   -1.2120 C   0  0  0  0  0  0  0  0  0  0  0  0
  1  2  1  0
  2  3  2  3
  2 15  1  0
  3  4  1  0
  4  5  1  0
  5  6  2  0
  5  7  1  0
  7  8  1  0
  8  9  2  0
  8 13  1  0
  9 10  1  0
 10 11  2  0
 11 12  1  0
 12 13  2  0
 13 14  1  0
 15 16  2  0
 15 20  1  0
 16 17  1  0
 17 18  2  0
 18 19  1  0
 19 20  2  0
 19 32  1  0
 20 21  1  0
 21 22  1  0
 22 23  1  0
 23 24  1  0
 23 32  1  0
 24 25  2  0
 24 26  1  0
 26 27  2  0
 26 31  1  0
 27 28  1  0
 28 29  1  0
 29 30  2  0
 29 31  1  0
M  END
