
     RDKit          3D

 33 34  0  0  0  0  0  0  0  0999 V2000
   -4.1450    1.6120    0.8290 C   0  0  0  0  0  0  0  0  0  0  0  0
   -4.7410    2.1190   -0.4200 C   0  0  0  0  0  0  0  0  0  0  0  0
   -4.6890    1.2790   -1.6410 C   0  0  0  0  0  0  0  0  0  0  0  0
   -5.3570   -0.0140   -1.6750 C   0  0  0  0  0  0  0  0  0  0  0  0
   -5.0120   -1.1440   -0.7810 C   0  0  1  0  0  0  0  0  0  0  0  0
   -6.0680   -2.1280   -1.2200 O   0  0  0  0  0  0  0  0  0  0  0  0
   -3.8110   -1.9670   -1.0560 C   0  0  0  0  0  0  0  0  0  0  0  0
   -2.4870   -1.4910   -0.7550 N   0  0  0  0  0  0  0  0  0  0  0  0
   -1.7810   -0.8140   -1.7550 C   0  0  0  0  0  0  0  0  0  0  0  0
   -2.3750   -0.8550   -2.9230 O   0  0  0  0  0  0  0  0  0  0  0  0
   -0.5360   -0.0860   -1.7350 C   0  0  0  0  0  0  0  0  0  0  0  0
    0.1760    0.3500   -0.6540 C   0  0  0  0  0  0  0  0  0  0  0  0
    1.2620    1.1050   -1.1240 C   0  0  0  0  0  0  0  0  0  0  0  0
    2.2820    1.7600   -0.3180 C   0  0  0  0  0  0  0  0  0  0  0  0
    2.2300    1.6810    0.9400 O   0  0  0  0  0  0  0  0  0  0  0  0
    3.3240    2.4770   -0.8610 O   0  0  0  0  0  0  0  0  0  0  0  0
    4.3230    3.1200   -0.1200 C   0  0  0  0  0  0  0  0  0  0  0  0
    5.1230    2.2140    0.7350 C   0  0  0  0  0  0  0  0  0  0  0  0
    5.9470    2.7750    1.6750 C   0  0  0  0  0  0  0  0  0  0  0  0
    6.7420    2.0120    2.5260 C   0  0  0  0  0  0  0  0  0  0  0  0
    6.6760    0.6520    2.3950 C   0  0  0  0  0  0  0  0  0  0  0  0
    7.4890   -0.2300    3.2620 C   0  0  0  0  0  0  0  0  0  0  0  0
    5.8520    0.0790    1.4530 C   0  0  0  0  0  0  0  0  0  0  0  0
    5.0700    0.8610    0.6180 C   0  0  0  0  0  0  0  0  0  0  0  0
    1.1450    1.0850   -2.4690 C   0  0  0  0  0  0  0  0  0  0  0  0
    2.0950    1.7700   -3.3970 C   0  0  0  0  0  0  0  0  0  0  0  0
    0.0880    0.3870   -2.8440 N   0  0  0  0  0  0  0  0  0  0  0  0
   -1.8140   -1.8830    0.4570 C   0  0  1  0  0  0  0  0  0  0  0  0
   -2.3680   -1.2680    1.7070 C   0  0  0  0  0  0  0  0  0  0  0  0
   -1.8160   -3.3980    0.6560 C   0  0  0  0  0  0  0  0  0  0  0  0
   -1.1470   -4.1260   -0.4180 C   0  0  0  0  0  0  0  0  0  0  0  0
    0.1990   -4.5380   -0.2700 N   0  0  0  0  0  0  0  0  0  0  0  0
   -1.7420   -4.3960   -1.4800 O   0  0  0  0  0  0  0  0  0  0  0  0
  1  2  1  0
  2  3  1  0
  3  4  1  0
  4  5  1  0
  5  6  1  6
  5  7  1  0
  7  8  1  0
  8  9  1  0
  8 28  1  0
  9 10  2  0
  9 11  1  0
 11 12  2  0
 11 27  1  0
 12 13  1  0
 13 14  1  0
 13 25  2  0
 14 15  2  0
 14 16  1  0
 16 17  1  0
 17 18  1  0
 18 19  2  0
 18 24  1  0
 19 20  1  0
 20 21  2  0
 21 22  1  0
 21 23  1  0
 23 24  2  0
 25 26  1  0
 25 27  1  0
 28 29  1  1
 28 30  1  0
 30 31  1  0
 31 32  1  0
 31 33  2  0
M  END
