
     RDKit          3D

 42 45  0  0  0  0  0  0  0  0999 V2000
    5.1970    1.5060    3.5330 C   0  0  0  0  0  0  0  0  0  0  0  0
    4.2580    0.4160    3.9400 C   0  0  0  0  0  0  0  0  0  0  0  0
    3.1550    0.3360    3.0890 O   0  0  0  0  0  0  0  0  0  0  0  0
    3.2930    0.0660    1.7500 C   0  0  0  0  0  0  0  0  0  0  0  0
    4.4960   -0.1550    1.1410 C   0  0  0  0  0  0  0  0  0  0  0  0
    4.5800   -0.4250   -0.2290 C   0  0  0  0  0  0  0  0  0  0  0  0
    5.8870   -0.6540   -0.8300 C   0  0  0  0  0  0  0  0  0  0  0  0
    6.0070   -0.9000   -2.0590 O   0  0  0  0  0  0  0  0  0  0  0  0
    7.1080   -0.6020    0.0010 C   0  0  0  0  0  0  0  0  0  0  0  0
    8.3550   -0.8710   -0.7910 C   0  0  0  0  0  0  0  0  0  0  0  0
    8.3220   -2.2270   -1.4220 C   0  0  0  0  0  0  0  0  0  0  0  0
    9.4140   -2.6650   -2.2200 N   0  0  0  0  0  0  0  0  0  0  0  0
    7.3620   -3.0170   -1.2830 O   0  0  0  0  0  0  0  0  0  0  0  0
    3.4270   -0.4650   -0.9630 C   0  0  0  0  0  0  0  0  0  0  0  0
    2.1950   -0.2390   -0.3390 C   0  0  0  0  0  0  0  0  0  0  0  0
    2.1150    0.0260    1.0080 C   0  0  0  0  0  0  0  0  0  0  0  0
    0.8910    0.2480    1.6090 O   0  0  0  0  0  0  0  0  0  0  0  0
   -0.3550    0.2690    1.0100 C   0  0  0  0  0  0  0  0  0  0  0  0
   -0.5020    1.3750    0.0450 C   0  0  0  0  0  0  0  0  0  0  0  0
    0.4870    2.3140   -0.1100 C   0  0  0  0  0  0  0  0  0  0  0  0
    0.3350    3.3760   -0.9850 C   0  0  0  0  0  0  0  0  0  0  0  0
   -0.8350    3.4610   -1.6910 C   0  0  0  0  0  0  0  0  0  0  0  0
   -1.8460    2.5030   -1.5330 C   0  0  0  0  0  0  0  0  0  0  0  0
   -1.7120    1.4470   -0.6730 C   0  0  0  0  0  0  0  0  0  0  0  0
   -2.6710    0.3770   -0.4070 C   0  0  0  0  0  0  0  0  0  0  0  0
   -3.8770    0.5010   -1.1530 N   0  0  0  0  0  0  0  0  0  0  0  0
   -4.9480   -0.4720   -1.0330 C   0  0  0  0  0  0  0  0  0  0  0  0
   -6.0360   -0.2130   -0.3310 C   0  0  0  0  0  0  0  0  0  0  0  0
   -6.7620    0.7430    0.5010 C   0  0  0  0  0  0  0  0  0  0  0  0
   -6.1810    2.3200    0.9240 S   0  0  1  0  0  0  0  0  0  0  0  0
   -6.6680    3.5610   -0.2500 C   0  0  0  0  0  0  0  0  0  0  0  0
   -6.8440    2.6990    2.2410 O   0  0  0  0  0  0  0  0  0  0  0  0
   -4.7020    2.3500    1.1860 O   0  0  0  0  0  0  0  0  0  0  0  0
   -7.9000    0.1400    0.8300 C   0  0  0  0  0  0  0  0  0  0  0  0
   -7.9520   -1.1540    0.2560 N   0  0  0  0  0  0  0  0  0  0  0  0
   -6.9050   -1.4080   -0.4220 C   0  0  0  0  0  0  0  0  0  0  0  0
   -6.1400   -2.3390   -1.2640 C   0  0  0  0  0  0  0  0  0  0  0  0
   -6.6750   -3.9410   -1.7220 S   0  0  1  0  0  0  0  0  0  0  0  0
   -6.1050   -5.0820   -0.4880 C   0  0  0  0  0  0  0  0  0  0  0  0
   -8.1870   -3.9510   -1.7970 O   0  0  0  0  0  0  0  0  0  0  0  0
   -6.1410   -4.3150   -3.0970 O   0  0  0  0  0  0  0  0  0  0  0  0
   -5.0190   -1.7530   -1.5910 N   0  0  0  0  0  0  0  0  0  0  0  0
  1  2  1  0
  2  3  1  0
  3  4  1  0
  4  5  2  0
  4 16  1  0
  5  6  1  0
  6  7  1  0
  6 14  2  0
  7  8  2  0
  7  9  1  0
  9 10  1  0
 10 11  1  0
 11 12  1  0
 11 13  2  0
 14 15  1  0
 15 16  2  0
 16 17  1  0
 17 18  1  0
 18 19  1  0
 19 20  2  0
 19 24  1  0
 20 21  1  0
 21 22  2  0
 22 23  1  0
 23 24  2  0
 24 25  1  0
 25 26  1  0
 26 27  1  0
 27 28  2  0
 27 42  1  0
 28 29  1  0
 28 36  1  0
 29 30  1  0
 29 34  2  0
 30 31  1  6
 30 32  2  0
 30 33  2  0
 34 35  1  0
 35 36  2  0
 36 37  1  0
 37 38  1  0
 37 42  2  0
 38 39  1  1
 38 40  2  0
 38 41  2  0
M  END
