
     RDKit          3D

 42 45  0  0  0  0  0  0  0  0999 V2000
    2.8330   -1.4890    2.6390 C   0  0  0  0  0  0  0  0  0  0  0  0
    4.0960   -1.0860    2.1850 O   0  0  0  0  0  0  0  0  0  0  0  0
    4.5180   -1.3290    0.9000 C   0  0  0  0  0  0  0  0  0  0  0  0
    3.6730   -1.9880    0.0370 C   0  0  0  0  0  0  0  0  0  0  0  0
    4.1050   -2.2290   -1.2560 C   0  0  0  0  0  0  0  0  0  0  0  0
    3.0620   -3.0760   -2.4230 S   0  0  0  0  0  0  0  0  0  0  0  0
    2.0670   -1.8650   -3.2930 C   0  0  0  0  0  0  0  0  0  0  0  0
    1.1080   -1.1950   -2.4000 N   0  0  0  0  0  0  0  0  0  0  0  0
   -0.1020   -1.6750   -2.2110 N   0  0  0  0  0  0  0  0  0  0  0  0
   -1.0320   -1.1010   -1.3980 C   0  0  0  0  0  0  0  0  0  0  0  0
   -2.2830   -1.6520   -1.2420 C   0  0  0  0  0  0  0  0  0  0  0  0
   -3.2770   -1.1050   -0.4190 C   0  0  0  0  0  0  0  0  0  0  0  0
   -4.5430   -1.7140   -0.3080 N   0  0  0  0  0  0  0  0  0  0  0  0
   -6.0310   -0.9340   -0.4850 S   0  0  2  0  0  0  0  0  0  0  0  0
   -7.1690   -1.9370   -0.3750 O   0  0  0  0  0  0  0  0  0  0  0  0
   -6.1570   -0.3860   -1.9080 O   0  0  0  0  0  0  0  0  0  0  0  0
   -6.3380    0.3310    0.6540 C   0  0  0  0  0  0  0  0  0  0  0  0
   -6.8320   -0.0390    1.9030 C   0  0  0  0  0  0  0  0  0  0  0  0
   -7.0470   -1.4920    2.2200 C   0  0  0  0  0  0  0  0  0  0  0  0
   -7.1240    0.9030    2.8480 C   0  0  0  0  0  0  0  0  0  0  0  0
   -6.9390    2.2510    2.5990 C   0  0  0  0  0  0  0  0  0  0  0  0
   -6.4550    2.6070    1.3720 C   0  0  0  0  0  0  0  0  0  0  0  0
   -6.2550    3.9980    1.0890 N   0  0  0  0  0  0  0  0  0  0  0  0
   -6.1540    1.6700    0.4030 C   0  0  0  0  0  0  0  0  0  0  0  0
   -5.6470    2.0790   -0.9210 C   0  0  0  0  0  0  0  0  0  0  0  0
   -2.9240    0.0480    0.2460 C   0  0  0  0  0  0  0  0  0  0  0  0
   -1.6650    0.6210    0.1010 C   0  0  0  0  0  0  0  0  0  0  0  0
   -0.7120    0.0550   -0.7180 C   0  0  0  0  0  0  0  0  0  0  0  0
    0.5520    0.5750   -0.9020 C   0  0  0  0  0  0  0  0  0  0  0  0
    0.8450    1.6260   -0.2830 O   0  0  0  0  0  0  0  0  0  0  0  0
    1.4510   -0.0700   -1.7520 C   0  0  0  0  0  0  0  0  0  0  0  0
    2.6040    0.4010   -1.9210 O   0  0  0  0  0  0  0  0  0  0  0  0
    5.3510   -1.8170   -1.6550 C   0  0  0  0  0  0  0  0  0  0  0  0
    6.2040   -1.1470   -0.7640 C   0  0  0  0  0  0  0  0  0  0  0  0
    7.4620   -0.7460   -1.1900 O   0  0  0  0  0  0  0  0  0  0  0  0
    7.9430   -0.9780   -2.4920 C   0  0  0  0  0  0  0  0  0  0  0  0
    5.8010   -0.8920    0.5260 C   0  0  0  0  0  0  0  0  0  0  0  0
    6.5960   -0.2440    1.4400 O   0  0  0  0  0  0  0  0  0  0  0  0
    6.4310    1.0690    1.8630 C   0  0  0  0  0  0  0  0  0  0  0  0
    6.4800    2.1200    0.8520 C   0  0  0  0  0  0  0  0  0  0  0  0
    6.3330    3.5420    1.3450 C   0  0  0  0  0  0  0  0  0  0  0  0
    6.6260    1.9410   -0.3190 O   0  0  0  0  0  0  0  0  0  0  0  0
  1  2  1  0
  2  3  1  0
  3  4  2  0
  3 37  1  0
  4  5  1  0
  5  6  1  0
  5 33  2  0
  6  7  1  0
  7  8  1  0
  8  9  1  0
  8 31  1  0
  9 10  1  0
 10 11  2  0
 10 28  1  0
 11 12  1  0
 12 13  1  0
 12 26  2  0
 14 13  1  1
 14 15  2  0
 14 16  2  0
 14 17  1  0
 17 18  2  0
 17 24  1  0
 18 19  1  0
 18 20  1  0
 20 21  2  0
 21 22  1  0
 22 23  1  0
 22 24  2  0
 24 25  1  0
 26 27  1  0
 27 28  2  0
 28 29  1  0
 29 30  2  0
 29 31  1  0
 31 32  2  0
 33 34  1  0
 34 35  1  0
 34 37  2  0
 35 36  1  0
 37 38  1  0
 38 39  1  0
 39 40  1  0
 40 41  1  0
 40 42  2  0
M  END
