
     RDKit          3D

 42 45  0  0  0  0  0  0  0  0999 V2000
    3.8660   -1.2060   -4.7300 C   0  0  0  0  0  0  0  0  0  0  0  0
    2.6420   -1.7180   -3.9880 C   0  0  0  0  0  0  0  0  0  0  0  0
    2.8170   -1.4610   -2.5990 O   0  0  0  0  0  0  0  0  0  0  0  0
    1.9200   -1.7920   -1.6200 C   0  0  0  0  0  0  0  0  0  0  0  0
    0.8470   -2.3740   -1.9630 O   0  0  0  0  0  0  0  0  0  0  0  0
    2.1410   -1.5080   -0.2320 C   0  0  0  0  0  0  0  0  0  0  0  0
    3.2600   -0.8270    0.2360 C   0  0  0  0  0  0  0  0  0  0  0  0
    4.6210   -0.2290   -0.7450 S   0  0  0  0  0  0  0  0  0  0  0  0
    4.4770    1.4830   -1.2370 C   0  0  0  0  0  0  0  0  0  0  0  0
    4.5950    2.3800   -0.0430 C   0  0  0  0  0  0  0  0  0  0  0  0
    5.8360    2.8600    0.3830 C   0  0  0  0  0  0  0  0  0  0  0  0
    5.5540    3.6340    1.4800 C   0  0  0  0  0  0  0  0  0  0  0  0
    4.2030    3.5980    1.6750 C   0  0  0  0  0  0  0  0  0  0  0  0
    3.6540    2.8320    0.7380 O   0  0  0  0  0  0  0  0  0  0  0  0
    3.1040   -0.7540    1.6040 C   0  0  0  0  0  0  0  0  0  0  0  0
    1.9630   -1.3620    1.8870 N   0  0  0  0  0  0  0  0  0  0  0  0
    1.3430   -1.8350    0.8280 N   0  0  0  0  0  0  0  0  0  0  0  0
    0.1300   -2.5770    0.7550 C   0  0  0  0  0  0  0  0  0  0  0  0
    0.1890   -4.3760    0.8190 S   0  0  0  0  0  0  0  0  0  0  0  0
    1.8800   -4.9320    1.0570 C   0  0  0  0  0  0  0  0  0  0  0  0
    2.3900   -4.6660    2.4220 C   0  0  0  0  0  0  0  0  0  0  0  0
    1.6310   -4.1430    3.4840 N   0  0  0  0  0  0  0  0  0  0  0  0
    3.6100   -4.9470    2.6180 O   0  0  0  0  0  0  0  0  0  0  0  0
   -1.0660   -2.0170    0.5970 C   0  0  0  0  0  0  0  0  0  0  0  0
   -1.1820   -0.5560    0.4800 C   0  0  0  0  0  0  0  0  0  0  0  0
   -0.0660    0.0780    0.5450 O   0  0  0  0  0  0  0  0  0  0  0  0
   -2.3150    0.2100    0.3090 N   0  0  0  0  0  0  0  0  0  0  0  0
   -2.4650    1.6030    0.1650 C   0  0  0  0  0  0  0  0  0  0  0  0
   -1.4040    2.4450    0.0270 C   0  0  0  0  0  0  0  0  0  0  0  0
   -1.5170    3.8150   -0.1690 C   0  0  0  0  0  0  0  0  0  0  0  0
   -2.7740    4.3640   -0.2260 C   0  0  0  0  0  0  0  0  0  0  0  0
   -2.9320    5.7440   -0.4230 O   0  0  0  0  0  0  0  0  0  0  0  0
   -3.8740    3.5490   -0.0890 C   0  0  0  0  0  0  0  0  0  0  0  0
   -3.7490    2.1830    0.1040 C   0  0  0  0  0  0  0  0  0  0  0  0
   -4.9100    1.3110    0.2480 C   0  0  0  0  0  0  0  0  0  0  0  0
   -6.2040    2.0430    0.0640 C   0  0  0  0  0  0  0  0  0  0  0  0
   -6.2140    3.4140    0.6530 C   0  0  0  0  0  0  0  0  0  0  0  0
   -5.2040    4.2290   -0.1470 C   0  0  0  0  0  0  0  0  0  0  0  0
   -2.2220   -2.8790    0.5950 C   0  0  0  0  0  0  0  0  0  0  0  0
   -3.3680   -2.4590    0.4450 O   0  0  0  0  0  0  0  0  0  0  0  0
   -2.0580   -4.2360    0.7700 O   0  0  0  0  0  0  0  0  0  0  0  0
   -3.0550   -5.2120    0.8090 C   0  0  0  0  0  0  0  0  0  0  0  0
  1  2  1  0
  2  3  1  0
  3  4  1  0
  4  5  2  0
  4  6  1  0
  6  7  2  0
  6 17  1  0
  7  8  1  0
  7 15  1  0
  8  9  1  0
  9 10  1  0
 10 11  2  0
 10 14  1  0
 11 12  1  0
 12 13  2  0
 13 14  1  0
 15 16  2  0
 16 17  1  0
 17 18  1  0
 18 19  1  0
 18 24  2  3
 19 20  1  0
 20 21  1  0
 21 22  1  0
 21 23  2  0
 24 25  1  0
 24 39  1  0
 25 26  2  0
 25 27  1  0
 27 28  1  0
 28 29  2  0
 28 34  1  0
 29 30  1  0
 30 31  2  0
 31 32  1  0
 31 33  1  0
 33 34  2  0
 33 38  1  0
 34 35  1  0
 35 36  1  0
 36 37  1  0
 37 38  1  0
 39 40  2  0
 39 41  1  0
 41 42  1  0
M  END
