
     RDKit          3D

 47 51  0  0  0  0  0  0  0  0999 V2000
    6.4950   -5.5960    0.8480 C   0  0  0  0  0  0  0  0  0  0  0  0
    5.8020   -4.3590    0.8380 O   0  0  0  0  0  0  0  0  0  0  0  0
    5.5380   -3.6570   -0.3130 C   0  0  0  0  0  0  0  0  0  0  0  0
    5.9310   -4.1350   -1.4070 O   0  0  0  0  0  0  0  0  0  0  0  0
    4.8150   -2.3720   -0.2970 C   0  0  0  0  0  0  0  0  0  0  0  0
    4.5810   -1.7160   -1.4710 C   0  0  0  0  0  0  0  0  0  0  0  0
    3.8960   -0.4940   -1.4750 C   0  0  0  0  0  0  0  0  0  0  0  0
    3.4470    0.0700   -0.3040 C   0  0  0  0  0  0  0  0  0  0  0  0
    2.7150    1.3820   -0.3430 C   0  0  0  0  0  0  0  0  0  0  0  0
    1.4610    1.2200    0.2840 N   0  0  0  0  0  0  0  0  0  0  0  0
    0.8740    2.3140    0.9570 C   0  0  2  0  0  0  0  0  0  0  0  0
    1.7490    3.3940    1.4680 C   0  0  0  0  0  0  0  0  0  0  0  0
    2.4910    4.0920    0.5400 O   0  0  0  0  0  0  0  0  0  0  0  0
    2.2030    4.8910   -0.5040 C   0  0  0  0  0  0  0  0  0  0  0  0
    3.2820    5.4080   -1.2400 C   0  0  0  0  0  0  0  0  0  0  0  0
    3.0400    6.2240   -2.3060 C   0  0  0  0  0  0  0  0  0  0  0  0
    1.7680    6.5710   -2.7020 C   0  0  0  0  0  0  0  0  0  0  0  0
    0.6920    6.0800   -2.0000 C   0  0  0  0  0  0  0  0  0  0  0  0
    0.9420    5.2560   -0.9230 C   0  0  0  0  0  0  0  0  0  0  0  0
    0.1450    1.7170    2.1840 C   0  0  2  0  0  0  0  0  0  0  0  0
    0.8710    0.6540    2.6630 O   0  0  0  0  0  0  0  0  0  0  0  0
   -1.1940    1.2510    1.6810 C   0  0  1  0  0  0  0  0  0  0  0  0
   -1.6570    2.0340    0.6300 O   0  0  0  0  0  0  0  0  0  0  0  0
   -1.0470   -0.2020    1.2620 C   0  0  1  0  0  0  0  0  0  0  0  0
   -2.3400   -0.8700    1.6930 C   0  0  0  0  0  0  0  0  0  0  0  0
   -2.4810   -0.7960    3.1210 O   0  0  0  0  0  0  0  0  0  0  0  0
   -3.5980   -1.3440    3.7360 C   0  0  0  0  0  0  0  0  0  0  0  0
   -3.7280   -1.2720    5.0960 C   0  0  0  0  0  0  0  0  0  0  0  0
   -4.8280   -1.8100    5.7250 C   0  0  0  0  0  0  0  0  0  0  0  0
   -5.8250   -2.4320    5.0250 C   0  0  0  0  0  0  0  0  0  0  0  0
   -5.7000   -2.5090    3.6440 C   0  0  0  0  0  0  0  0  0  0  0  0
   -4.6000   -1.9720    3.0150 C   0  0  0  0  0  0  0  0  0  0  0  0
   -0.9320   -0.2860   -0.1480 N   0  0  0  0  0  0  0  0  0  0  0  0
   -0.9360   -1.5920   -0.7190 C   0  0  0  0  0  0  0  0  0  0  0  0
   -1.9100   -1.5800   -1.8740 C   0  0  0  0  0  0  0  0  0  0  0  0
   -2.0360   -2.6820   -2.6910 C   0  0  0  0  0  0  0  0  0  0  0  0
   -2.9190   -2.7000   -3.7480 C   0  0  0  0  0  0  0  0  0  0  0  0
   -3.6790   -1.5810   -3.9710 C   0  0  0  0  0  0  0  0  0  0  0  0
   -4.6520   -1.5330   -5.0930 C   0  0  0  0  0  0  0  0  0  0  0  0
   -4.6400   -2.7250   -5.7890 O   0  0  0  0  0  0  0  0  0  0  0  0
   -3.5770   -0.4620   -3.1710 C   0  0  0  0  0  0  0  0  0  0  0  0
   -2.6900   -0.4830   -2.1320 C   0  0  0  0  0  0  0  0  0  0  0  0
    0.3220    0.6240   -0.8630 S   0  0  1  0  0  0  0  0  0  0  0  0
   -0.2750    1.7930   -1.5910 O   0  0  0  0  0  0  0  0  0  0  0  0
    1.0560   -0.1930   -1.8820 O   0  0  0  0  0  0  0  0  0  0  0  0
    3.6890   -0.5990    0.8700 C   0  0  0  0  0  0  0  0  0  0  0  0
    4.3710   -1.8170    0.8820 C   0  0  0  0  0  0  0  0  0  0  0  0
  1  2  1  0
  2  3  1  0
  3  4  2  0
  3  5  1  0
  5  6  2  0
  5 47  1  0
  6  7  1  0
  7  8  2  0
  8  9  1  0
  8 46  1  0
  9 10  1  0
 10 11  1  0
 43 10  1  1
 11 12  1  1
 11 20  1  0
 12 13  1  0
 13 14  1  0
 14 15  2  0
 14 19  1  0
 15 16  1  0
 16 17  2  0
 17 18  1  0
 18 19  2  0
 20 21  1  6
 20 22  1  0
 22 23  1  6
 22 24  1  0
 24 25  1  6
 24 33  1  0
 25 26  1  0
 26 27  1  0
 27 28  2  0
 27 32  1  0
 28 29  1  0
 29 30  2  0
 30 31  1  0
 31 32  2  0
 33 34  1  0
 33 43  1  0
 34 35  1  0
 35 36  2  0
 35 42  1  0
 36 37  1  0
 37 38  2  0
 38 39  1  0
 38 41  1  0
 39 40  1  0
 41 42  2  0
 43 44  2  0
 43 45  2  0
 46 47  2  0
M  END
