
     RDKit          3D

 42 45  0  0  0  0  0  0  0  0999 V2000
   -7.1120   -2.3000    1.5910 C   0  0  0  0  0  0  0  0  0  0  0  0
   -6.2040   -1.7350    0.5680 C   0  0  0  0  0  0  0  0  0  0  0  0
   -4.9400   -1.2360    0.8270 C   0  0  0  0  0  0  0  0  0  0  0  0
   -4.4280   -1.1210    2.1740 C   0  0  0  0  0  0  0  0  0  0  0  0
   -3.0170   -0.9190    2.4160 N   0  0  0  0  0  0  0  0  0  0  0  0
   -5.1170   -1.1840    3.2030 O   0  0  0  0  0  0  0  0  0  0  0  0
   -4.1120   -0.7680   -0.1890 C   0  0  0  0  0  0  0  0  0  0  0  0
   -2.5060   -0.1330    0.2130 S   0  0  0  0  0  0  0  0  0  0  0  0
   -2.5150    1.6140    0.4870 C   0  0  0  0  0  0  0  0  0  0  0  0
   -3.5920    2.2440    0.3840 O   0  0  0  0  0  0  0  0  0  0  0  0
   -1.3380    2.3090    0.8200 N   0  0  0  0  0  0  0  0  0  0  0  0
   -1.4000    3.7610    1.0370 C   0  0  0  0  0  0  0  0  0  0  0  0
   -1.1590    4.4470   -0.2720 C   0  0  0  0  0  0  0  0  0  0  0  0
   -1.1680    5.7890   -0.5280 C   0  0  0  0  0  0  0  0  0  0  0  0
   -0.8960    5.9670   -1.8690 C   0  0  0  0  0  0  0  0  0  0  0  0
   -0.7310    4.7010   -2.3760 C   0  0  0  0  0  0  0  0  0  0  0  0
   -0.8940    3.8600   -1.4100 O   0  0  0  0  0  0  0  0  0  0  0  0
   -0.0620    1.7070    0.9660 C   0  0  0  0  0  0  0  0  0  0  0  0
    0.9490    2.4330    1.2690 O   0  0  0  0  0  0  0  0  0  0  0  0
    0.2290    0.2710    0.7960 C   0  0  0  0  0  0  0  0  0  0  0  0
    2.0150   -0.0780    1.0690 S   0  0  0  0  0  0  0  0  0  0  0  0
    2.9160    0.7420   -0.2730 C   0  0  0  0  0  0  0  0  0  0  0  0
    4.3820    0.5200   -0.1500 C   0  0  0  0  0  0  0  0  0  0  0  0
    5.2130    1.3700    0.5590 C   0  0  0  0  0  0  0  0  0  0  0  0
    6.4850    0.8600    0.4580 C   0  0  0  0  0  0  0  0  0  0  0  0
    6.3980   -0.2790   -0.3040 C   0  0  0  0  0  0  0  0  0  0  0  0
    7.5360   -1.1620   -0.6740 C   0  0  0  0  0  0  0  0  0  0  0  0
    7.7410   -2.2520    0.3580 C   0  0  1  0  0  0  0  0  0  0  0  0
    8.0320   -1.6010    1.6930 C   0  0  0  0  0  0  0  0  0  0  0  0
    6.4390   -3.0420    0.4410 C   0  0  0  0  0  0  0  0  0  0  0  0
    8.8460   -3.1340   -0.0600 C   0  0  0  0  0  0  0  0  0  0  0  0
    8.6610   -4.3340   -0.1100 O   0  0  0  0  0  0  0  0  0  0  0  0
    5.1210   -0.4330   -0.6400 O   0  0  0  0  0  0  0  0  0  0  0  0
   -4.5770   -0.8100   -1.4810 C   0  0  0  0  0  0  0  0  0  0  0  0
   -5.8350   -1.3040   -1.7470 C   0  0  0  0  0  0  0  0  0  0  0  0
   -6.2960   -1.3340   -3.0290 N   0  0  0  0  0  0  0  0  0  0  0  0
   -7.5180   -1.8000   -3.3130 C   0  0  0  0  0  0  0  0  0  0  0  0
   -7.9330   -1.8230   -4.4970 O   0  0  0  0  0  0  0  0  0  0  0  0
   -8.3540   -2.2600   -2.3660 N   0  0  0  0  0  0  0  0  0  0  0  0
   -7.9220   -2.2440   -1.0740 C   0  0  0  0  0  0  0  0  0  0  0  0
   -8.7260   -2.6780   -0.2120 O   0  0  0  0  0  0  0  0  0  0  0  0
   -6.6680   -1.7690   -0.7600 C   0  0  0  0  0  0  0  0  0  0  0  0
  1  2  1  0
  2  3  2  0
  2 42  1  0
  3  4  1  0
  3  7  1  0
  4  5  1  0
  4  6  2  0
  7  8  1  0
  7 34  2  0
  8  9  1  0
  9 10  2  0
  9 11  1  0
 11 12  1  0
 11 18  1  0
 12 13  1  0
 13 14  2  0
 13 17  1  0
 14 15  1  0
 15 16  2  0
 16 17  1  0
 18 19  2  0
 18 20  1  0
 20 21  1  0
 21 22  1  0
 22 23  1  0
 23 24  2  0
 23 33  1  0
 24 25  1  0
 25 26  2  0
 26 27  1  0
 26 33  1  0
 27 28  1  0
 28 29  1  1
 28 30  1  0
 28 31  1  0
 31 32  2  0
 34 35  1  0
 35 36  1  0
 35 42  2  0
 36 37  1  0
 37 38  2  0
 37 39  1  0
 39 40  1  0
 40 41  2  0
 40 42  1  0
M  END
