
     RDKit          3D

 32 35  0  0  0  0  0  0  0  0999 V2000
   10.6660   -0.6750    0.8620 N   0  0  0  0  0  0  0  0  0  0  0  0
    9.4480   -0.0390    1.2160 C   0  0  0  0  0  0  0  0  0  0  0  0
    8.9880   -0.2200    2.3670 O   0  0  0  0  0  0  0  0  0  0  0  0
    8.7360    0.8040    0.2860 N   0  0  0  0  0  0  0  0  0  0  0  0
    7.5730    1.4220    0.5970 N   0  0  0  0  0  0  0  0  0  0  0  0
    6.3640    1.1920    0.3650 C   0  0  0  0  0  0  0  0  0  0  0  0
    5.8140    0.0890   -0.3750 C   0  0  0  0  0  0  0  0  0  0  0  0
    6.5510   -0.9110   -0.9590 C   0  0  0  0  0  0  0  0  0  0  0  0
    5.9580   -1.9120   -1.6380 N   0  0  0  0  0  0  0  0  0  0  0  0
    4.6210   -1.9990   -1.7880 C   0  0  0  0  0  0  0  0  0  0  0  0
    4.0580   -3.0020   -2.4660 N   0  0  0  0  0  0  0  0  0  0  0  0
    2.7320   -3.0590   -2.5960 C   0  0  0  0  0  0  0  0  0  0  0  0
    1.8890   -2.1130   -2.0540 C   0  0  0  0  0  0  0  0  0  0  0  0
    2.4340   -1.0690   -1.3510 C   0  0  0  0  0  0  0  0  0  0  0  0
    1.6580   -0.0540   -0.7600 N   0  0  0  0  0  0  0  0  0  0  0  0
    0.2550   -0.0090   -0.8340 C   0  0  0  0  0  0  0  0  0  0  0  0
   -0.4320   -0.8360   -1.4150 O   0  0  0  0  0  0  0  0  0  0  0  0
   -0.4990    1.0660   -0.2030 N   0  0  0  0  0  0  0  0  0  0  0  0
   -1.9450    1.1090   -0.2800 C   0  0  0  0  0  0  0  0  0  0  0  0
   -2.5660   -0.0950    0.3320 C   0  0  0  0  0  0  0  0  0  0  0  0
   -1.7960   -0.9560    0.8200 O   0  0  0  0  0  0  0  0  0  0  0  0
   -3.9560   -0.3050    0.3870 N   0  0  0  0  0  0  0  0  0  0  0  0
   -4.4660   -1.5050    1.0020 C   0  0  0  0  0  0  0  0  0  0  0  0
   -5.2880   -1.0210    2.1830 C   0  0  0  0  0  0  0  0  0  0  0  0
   -6.4360   -0.2350    1.6730 C   0  0  0  0  0  0  0  0  0  0  0  0
   -6.1610    0.7630    0.6290 C   0  0  2  0  0  0  0  0  0  0  0  0
   -6.3590    2.1950    1.0860 C   0  0  0  0  0  0  0  0  0  0  0  0
   -7.2920    2.4340   -0.0670 C   0  0  0  0  0  0  0  0  0  0  0  0
   -7.3510    0.9520   -0.2930 C   0  0  0  0  0  0  0  0  0  0  0  0
   -4.9040    0.6200   -0.1420 C   0  0  0  0  0  0  0  0  0  0  0  0
    3.8480   -0.9990   -1.2070 C   0  0  0  0  0  0  0  0  0  0  0  0
    4.4260    0.0300   -0.5110 C   0  0  0  0  0  0  0  0  0  0  0  0
  1  2  1  0
  2  3  2  0
  2  4  1  0
  4  5  1  0
  5  6  2  3
  6  7  1  0
  7  8  2  0
  7 32  1  0
  8  9  1  0
  9 10  2  0
 10 11  1  0
 10 31  1  0
 11 12  2  0
 12 13  1  0
 13 14  2  0
 14 15  1  0
 14 31  1  0
 15 16  1  0
 16 17  2  0
 16 18  1  0
 18 19  1  0
 19 20  1  0
 20 21  2  0
 20 22  1  0
 22 23  1  0
 22 30  1  0
 23 24  1  0
 24 25  1  0
 26 25  1  1
 26 27  1  0
 26 29  1  0
 26 30  1  0
 27 28  1  0
 28 29  1  0
 31 32  2  0
M  END
