
     RDKit          3D

 33 34  0  0  0  0  0  0  0  0999 V2000
   -3.8750    3.8010    0.4850 C   0  0  0  0  0  0  0  0  0  0  0  0
   -4.5050    2.5990    0.4480 C   0  0  0  0  0  0  0  0  0  0  0  0
   -3.7190    1.4850   -0.0390 C   0  0  0  0  0  0  0  0  0  0  0  0
   -4.1220    0.2410   -0.1790 C   0  0  0  0  0  0  0  0  0  0  0  0
   -5.5650    0.0270    0.2230 C   0  0  0  0  0  0  0  0  0  0  0  0
   -3.3230   -0.8050   -0.7780 C   0  0  0  0  0  0  0  0  0  0  0  0
   -3.6830   -2.0580   -0.8270 C   0  0  0  0  0  0  0  0  0  0  0  0
   -4.8350   -2.7680   -0.3580 C   0  0  0  0  0  0  0  0  0  0  0  0
   -5.1700   -2.8050    1.0050 C   0  0  0  0  0  0  0  0  0  0  0  0
   -6.2820   -3.5150    1.3900 C   0  0  0  0  0  0  0  0  0  0  0  0
   -7.0600   -4.1810    0.4730 C   0  0  0  0  0  0  0  0  0  0  0  0
   -6.7130   -4.1310   -0.8560 C   0  0  0  0  0  0  0  0  0  0  0  0
   -5.6090   -3.4330   -1.2940 C   0  0  0  0  0  0  0  0  0  0  0  0
   -2.0260   -0.4170   -1.4110 C   0  0  0  0  0  0  0  0  0  0  0  0
   -1.6040    0.7550   -1.4270 O   0  0  0  0  0  0  0  0  0  0  0  0
   -1.1660   -1.3600   -2.0490 N   0  0  0  0  0  0  0  0  0  0  0  0
    0.0880   -0.9900   -2.6170 C   0  0  0  0  0  0  0  0  0  0  0  0
    1.2260   -0.6260   -1.7450 C   0  0  1  0  0  0  0  0  0  0  0  0
    2.3190   -0.2280   -2.5530 O   0  0  0  0  0  0  0  0  0  0  0  0
    1.0590    0.2210   -0.5570 C   0  0  0  0  0  0  0  0  0  0  0  0
    2.2780    0.1680    0.2640 N   0  0  0  0  0  0  0  0  0  0  0  0
    3.5400    0.6400   -0.1110 C   0  0  0  0  0  0  0  0  0  0  0  0
    3.7290    1.1860   -1.1990 O   0  0  0  0  0  0  0  0  0  0  0  0
    4.6900    0.5250    0.7300 N   0  0  0  0  0  0  0  0  0  0  0  0
    5.9870    0.9780    0.4110 C   0  0  1  0  0  0  0  0  0  0  0  0
    6.4560    2.0860    1.3280 C   0  0  0  0  0  0  0  0  0  0  0  0
    7.6350    1.7350    1.9830 O   0  0  0  0  0  0  0  0  0  0  0  0
    8.7100    1.6050    1.1120 C   0  0  0  0  0  0  0  0  0  0  0  0
    8.3440    0.6640   -0.0330 C   0  0  0  0  0  0  0  0  0  0  0  0
    7.0590   -0.0600    0.3440 C   0  0  1  0  0  0  0  0  0  0  0  0
    7.3240   -0.7440    1.6640 C   0  0  0  0  0  0  0  0  0  0  0  0
   -5.8070    2.5450    0.8730 O   0  0  0  0  0  0  0  0  0  0  0  0
   -6.5390    3.7060    1.1570 C   0  0  0  0  0  0  0  0  0  0  0  0
  1  2  2  0
  2  3  1  0
  2 32  1  0
  3  4  2  3
  4  5  1  0
  4  6  1  0
  6  7  2  3
  6 14  1  0
  7  8  1  0
  8  9  2  0
  8 13  1  0
  9 10  1  0
 10 11  2  0
 11 12  1  0
 12 13  2  0
 14 15  2  0
 14 16  1  0
 16 17  1  0
 17 18  1  0
 18 19  1  6
 18 20  1  0
 20 21  1  0
 21 22  1  0
 22 23  2  0
 22 24  1  0
 25 24  1  1
 25 26  1  0
 25 30  1  0
 26 27  1  0
 27 28  1  0
 28 29  1  0
 29 30  1  0
 30 31  1  1
 32 33  1  0
M  END
