
     RDKit          3D

 32 35  0  0  0  0  0  0  0  0999 V2000
   -2.4630   -4.3190    1.6510 C   0  0  0  0  0  0  0  0  0  0  0  0
   -2.7350   -2.9750    1.1030 C   0  0  0  0  0  0  0  0  0  0  0  0
   -1.7030   -2.1500    0.7440 N   0  0  0  0  0  0  0  0  0  0  0  0
   -1.8960   -0.9460    0.2410 C   0  0  0  0  0  0  0  0  0  0  0  0
   -0.8810   -0.0360   -0.1380 N   0  0  0  0  0  0  0  0  0  0  0  0
    0.5160   -0.3570    0.0060 C   0  0  0  0  0  0  0  0  0  0  0  0
    0.8830   -1.4620    0.4740 O   0  0  0  0  0  0  0  0  0  0  0  0
    1.5170    0.5810   -0.3800 N   0  0  0  0  0  0  0  0  0  0  0  0
    2.9400    0.2970   -0.2470 C   0  0  1  0  0  0  0  0  0  0  0  0
    3.6470    0.2740   -1.5460 C   0  0  0  0  0  0  0  0  0  0  0  0
    5.1140    0.2840   -1.3820 C   0  0  0  0  0  0  0  0  0  0  0  0
    5.9060    0.1300   -2.5110 N   0  0  0  0  0  0  0  0  0  0  0  0
    7.2290    0.1420   -2.3380 C   0  0  0  0  0  0  0  0  0  0  0  0
    8.0110   -0.0230   -3.5330 N   0  0  0  0  0  0  0  0  0  0  0  0
    7.8580    0.2930   -1.1660 N   0  0  0  0  0  0  0  0  0  0  0  0
    7.0990    0.4460   -0.0410 C   0  0  0  0  0  0  0  0  0  0  0  0
    7.6800    0.5870    1.0540 O   0  0  0  0  0  0  0  0  0  0  0  0
    5.7260    0.4380   -0.1730 C   0  0  0  0  0  0  0  0  0  0  0  0
    4.9350    0.6040    1.0950 C   0  0  1  0  0  0  0  0  0  0  0  0
    4.6460   -0.7230    1.7320 C   0  0  0  0  0  0  0  0  0  0  0  0
    5.6240    1.5010    2.0970 C   0  0  0  0  0  0  0  0  0  0  0  0
    3.5990    1.2400    0.7130 C   0  0  0  0  0  0  0  0  0  0  0  0
   -3.1730   -0.5240    0.0800 N   0  0  0  0  0  0  0  0  0  0  0  0
   -4.2230   -1.2810    0.4110 C   0  0  0  0  0  0  0  0  0  0  0  0
   -5.5010   -0.7820    0.2190 O   0  0  0  0  0  0  0  0  0  0  0  0
   -5.6740    0.5210   -0.3550 C   0  0  2  0  0  0  0  0  0  0  0  0
   -6.1740    1.4010    0.7910 C   0  0  0  0  0  0  0  0  0  0  0  0
   -7.5260    0.8340    1.1670 C   0  0  0  0  0  0  0  0  0  0  0  0
   -8.4840    1.2920    0.0770 C   0  0  0  0  0  0  0  0  0  0  0  0
   -7.9070    1.2220   -1.3000 C   0  0  0  0  0  0  0  0  0  0  0  0
   -6.6770    0.3930   -1.4450 C   0  0  0  0  0  0  0  0  0  0  0  0
   -3.9820   -2.5010    0.9200 N   0  0  0  0  0  0  0  0  0  0  0  0
  1  2  1  0
  2  3  2  0
  2 32  1  0
  3  4  1  0
  4  5  1  0
  4 23  2  0
  5  6  1  0
  6  7  2  0
  6  8  1  0
  9  8  1  6
  9 10  1  0
  9 22  1  0
 10 11  1  0
 11 12  1  0
 11 18  2  0
 12 13  2  0
 13 14  1  0
 13 15  1  0
 15 16  1  0
 16 17  2  0
 16 18  1  0
 18 19  1  0
 19 20  1  1
 19 21  1  0
 19 22  1  0
 23 24  1  0
 24 25  1  0
 24 32  2  0
 26 25  1  1
 26 27  1  0
 26 31  1  0
 27 28  1  0
 28 29  1  0
 29 30  1  0
 30 31  1  0
M  END
