
     RDKit          3D

 17 17  0  0  0  0  0  0  0  0999 V2000
    5.2040    1.2020    0.4590 C   0  0  0  0  0  0  0  0  0  0  0  0
    4.3760   -0.1060    0.5360 C   0  0  1  0  0  0  0  0  0  0  0  0
    2.9580    0.3040    0.5740 C   0  0  0  0  0  0  0  0  0  0  0  0
    2.0320   -0.0860   -0.2860 C   0  0  0  0  0  0  0  0  0  0  0  0
    0.6990    0.3690   -0.1570 N   0  0  0  0  0  0  0  0  0  0  0  0
   -0.3980   -0.5170    0.0350 C   0  0  0  0  0  0  0  0  0  0  0  0
   -0.1410   -1.7460    0.0870 O   0  0  0  0  0  0  0  0  0  0  0  0
   -1.7360   -0.0700    0.1650 N   0  0  0  0  0  0  0  0  0  0  0  0
   -2.8400   -0.9880    0.3600 C   0  0  0  0  0  0  0  0  0  0  0  0
   -4.1260   -0.1940    0.4610 C   0  0  2  0  0  0  0  0  0  0  0  0
   -4.0340    0.7880    1.5850 C   0  0  0  0  0  0  0  0  0  0  0  0
   -5.2220   -1.0130    0.6480 O   0  0  0  0  0  0  0  0  0  0  0  0
   -4.3820    0.5940   -0.8230 C   0  0  0  0  0  0  0  0  0  0  0  0
   -5.5460    1.3280   -0.6420 O   0  0  0  0  0  0  0  0  0  0  0  0
    2.5160   -0.9860   -1.3240 C   0  0  0  0  0  0  0  0  0  0  0  0
    3.7680   -1.3740   -1.3940 C   0  0  0  0  0  0  0  0  0  0  0  0
    4.7470   -0.9730   -0.4990 N   0  0  0  0  0  0  0  0  0  0  0  0
  2  1  1  6
  2  3  1  0
  2 17  1  0
  3  4  2  0
  4  5  1  0
  4 15  1  0
  5  6  1  0
  6  7  2  0
  6  8  1  0
  8  9  1  0
  9 10  1  0
 10 11  1  1
 10 12  1  0
 10 13  1  0
 13 14  1  0
 15 16  2  0
 16 17  1  0
M  CHG  1  17   1
M  END
