
     RDKit          3D

 17 17  0  0  0  0  0  0  0  0999 V2000
    5.3150   -1.7450    0.3170 N   0  0  0  0  0  0  0  0  0  0  0  0
    4.2030   -1.0300    0.9150 C   0  0  0  0  0  0  0  0  0  0  0  0
    3.9970    0.3000    0.3320 C   0  0  0  0  0  0  0  0  0  0  0  0
    2.8700    0.6460   -0.2620 C   0  0  0  0  0  0  0  0  0  0  0  0
    2.7140    1.9970   -0.8330 C   0  0  0  0  0  0  0  0  0  0  0  0
    1.6630    2.7140   -0.2640 O   0  0  0  0  0  0  0  0  0  0  0  0
    1.8520   -0.3450   -0.3230 N   0  0  0  0  0  0  0  0  0  0  0  0
    0.5660   -0.2290    0.2550 C   0  0  0  0  0  0  0  0  0  0  0  0
    0.2810    0.8130    0.8710 O   0  0  0  0  0  0  0  0  0  0  0  0
   -0.4220   -1.2420    0.1670 N   0  0  0  0  0  0  0  0  0  0  0  0
   -1.7410   -1.1240    0.7570 C   0  0  0  0  0  0  0  0  0  0  0  0
   -2.5230    0.0280    0.2200 C   0  0  2  0  0  0  0  0  0  0  0  0
   -3.8750    0.0230    0.9250 C   0  0  0  0  0  0  0  0  0  0  0  0
   -4.6600    1.2220    0.4560 C   0  0  0  0  0  0  0  0  0  0  0  0
   -4.5790    1.4120   -0.9150 O   0  0  0  0  0  0  0  0  0  0  0  0
   -4.2210    0.2740   -1.6040 C   0  0  0  0  0  0  0  0  0  0  0  0
   -2.8330   -0.2210   -1.2590 C   0  0  0  0  0  0  0  0  0  0  0  0
  1  2  1  0
  2  3  1  0
  3  4  2  3
  4  5  1  0
  4  7  1  0
  5  6  1  0
  7  8  1  0
  8  9  2  0
  8 10  1  0
 10 11  1  0
 12 11  1  1
 12 13  1  0
 12 17  1  0
 13 14  1  0
 14 15  1  0
 15 16  1  0
 16 17  1  0
M  CHG  1   1   1
M  END
