
     RDKit          3D

 17 17  0  0  0  0  0  0  0  0999 V2000
   -4.0980   -0.9410    0.9690 C   0  0  0  0  0  0  0  0  0  0  0  0
   -3.2660    0.3450    1.1100 C   0  0  1  0  0  0  0  0  0  0  0  0
   -2.2930    0.4480    0.1330 N   0  0  0  0  0  0  0  0  0  0  0  0
   -0.8480    0.0340    0.2290 C   0  0  0  0  0  0  0  0  0  0  0  0
   -0.6180   -0.5010    1.3240 O   0  0  0  0  0  0  0  0  0  0  0  0
   -0.2400    0.3710   -0.9130 N   0  0  0  0  0  0  0  0  0  0  0  0
    1.3070   -0.3170   -0.5430 C   0  0  0  0  0  0  0  0  0  0  0  0
    1.3350   -0.7120    0.5670 O   0  0  0  0  0  0  0  0  0  0  0  0
    2.2600   -0.2910   -1.6260 C   0  0  0  0  0  0  0  0  0  0  0  0
    3.6380   -0.5080   -1.1150 C   0  0  0  0  0  0  0  0  0  0  0  0
    4.6700    0.2800   -1.3390 C   0  0  0  0  0  0  0  0  0  0  0  0
    5.8690   -0.2510   -0.6690 C   0  0  0  0  0  0  0  0  0  0  0  0
    5.3750   -1.4720    0.0220 C   0  0  0  0  0  0  0  0  0  0  0  0
    4.1180   -1.6010   -0.2510 C   0  0  0  0  0  0  0  0  0  0  0  0
   -4.2350    1.5030    0.9600 C   0  0  0  0  0  0  0  0  0  0  0  0
   -5.3230    1.7420    1.8090 N   0  0  0  0  0  0  0  0  0  0  0  0
   -4.0730    2.3090    0.0300 O   0  0  0  0  0  0  0  0  0  0  0  0
  2  1  1  6
  2  3  1  0
  2 15  1  0
  3  4  1  0
  4  5  2  0
  4  6  1  0
  6  7  1  0
  7  8  2  0
  7  9  1  0
  9 10  1  0
 10 11  2  0
 10 14  1  0
 11 12  1  0
 12 13  1  0
 13 14  2  0
 15 16  1  0
 15 17  2  0
M  CHG  1  16   1
M  END
