
     RDKit          3D

 17 17  0  0  0  0  0  0  0  0999 V2000
    3.4150   -1.6110    0.3780 C   0  0  0  0  0  0  0  0  0  0  0  0
    3.2340   -0.2290    0.9760 C   0  0  2  0  0  0  0  0  0  0  0  0
    2.0130    0.3910    0.5570 N   0  0  0  0  0  0  0  0  0  0  0  0
    0.8860   -0.1830    0.4650 C   0  0  0  0  0  0  0  0  0  0  0  0
   -0.3540    0.4640    0.0350 C   0  0  0  0  0  0  0  0  0  0  0  0
   -1.4800   -0.3270   -0.0020 C   0  0  0  0  0  0  0  0  0  0  0  0
   -2.7090    0.1500   -0.3860 C   0  0  0  0  0  0  0  0  0  0  0  0
   -3.8570   -0.7390   -0.4020 C   0  0  0  0  0  0  0  0  0  0  0  0
   -3.6680   -2.1060   -0.0100 N   0  0  0  0  0  0  0  0  0  0  0  0
   -5.0120   -0.3400   -0.7500 N   0  0  0  0  0  0  0  0  0  0  0  0
   -2.7730    1.4750   -0.7400 C   0  0  0  0  0  0  0  0  0  0  0  0
   -1.6730    2.2780   -0.7130 C   0  0  0  0  0  0  0  0  0  0  0  0
   -0.4260    1.7800   -0.3190 C   0  0  0  0  0  0  0  0  0  0  0  0
    0.6540    2.6070   -0.3020 O   0  0  0  0  0  0  0  0  0  0  0  0
    4.3910    0.6340    0.6430 C   0  0  0  0  0  0  0  0  0  0  0  0
    4.2300    1.7410    0.0710 O   0  0  0  0  0  0  0  0  0  0  0  0
    5.6910    0.2660    0.9430 O   0  0  0  0  0  0  0  0  0  0  0  0
  2  1  1  6
  2  3  1  0
  2 15  1  0
  3  4  2  3
  4  5  1  0
  5  6  2  0
  5 13  1  0
  6  7  1  0
  7  8  1  0
  7 11  2  0
  8  9  1  0
  8 10  2  0
 11 12  1  0
 12 13  2  0
 13 14  1  0
 15 16  2  0
 15 17  1  0
M  CHG  1  10   1
M  END
