
     RDKit          3D

 17 17  0  0  0  0  0  0  0  0999 V2000
    2.9210   -1.6130   -1.8410 C   0  0  0  0  0  0  0  0  0  0  0  0
    2.2440   -0.5740   -0.9410 C   0  0  0  0  0  0  0  0  0  0  0  0
    0.8690   -0.4360   -1.0840 N   0  0  0  0  0  0  0  0  0  0  0  0
   -0.0650    0.3820   -0.4590 C   0  0  0  0  0  0  0  0  0  0  0  0
    0.2880    1.1840    0.4130 O   0  0  0  0  0  0  0  0  0  0  0  0
   -1.5080    0.3520   -0.7830 C   0  0  1  0  0  0  0  0  0  0  0  0
   -2.1750   -0.9440   -0.6140 C   0  0  0  0  0  0  0  0  0  0  0  0
   -3.1160   -0.7390    0.5560 C   0  0  0  0  0  0  0  0  0  0  0  0
   -3.4350    0.7060    0.4190 C   0  0  0  0  0  0  0  0  0  0  0  0
   -4.6040    1.3020    0.6580 C   0  0  0  0  0  0  0  0  0  0  0  0
   -5.7230    0.5410    1.0980 N   0  0  0  0  0  0  0  0  0  0  0  0
   -2.2460    1.2780   -0.0100 O   0  0  0  0  0  0  0  0  0  0  0  0
    3.0600    0.0430   -0.1590 C   0  0  0  0  0  0  0  0  0  0  0  0
    2.7760    1.0540    0.7940 N   0  0  0  0  0  0  0  0  0  0  0  0
    4.5150   -0.2940   -0.2000 C   0  0  0  0  0  0  0  0  0  0  0  0
    5.3780    0.2960    0.5650 C   0  0  0  0  0  0  0  0  0  0  0  0
    4.9270    1.2720    1.4490 O   0  0  0  0  0  0  0  0  0  0  0  0
  1  2  1  0
  2  3  1  0
  2 13  2  3
  3  4  1  0
  4  5  2  0
  6  4  1  1
  6  7  1  0
  6 12  1  0
  7  8  1  0
  8  9  1  0
  9 10  2  3
  9 12  1  0
 10 11  1  0
 13 14  1  0
 13 15  1  0
 15 16  2  3
 16 17  1  0
M  CHG  1  11   1
M  END
