
     RDKit          3D

 27 29  0  0  0  0  0  0  0  0999 V2000
    6.4010    0.3340   -0.0690 N   0  0  0  0  0  0  0  0  0  0  0  0
    5.0790    0.5860    0.4190 C   0  0  0  0  0  0  0  0  0  0  0  0
    4.8180    1.3640    1.4710 N   0  0  0  0  0  0  0  0  0  0  0  0
    3.5460    1.5590    1.8780 C   0  0  0  0  0  0  0  0  0  0  0  0
    2.4890    0.9840    1.2470 N   0  0  0  0  0  0  0  0  0  0  0  0
    2.6990    0.1930    0.1840 C   0  0  0  0  0  0  0  0  0  0  0  0
    4.0030    0.0020   -0.2210 C   0  0  0  0  0  0  0  0  0  0  0  0
    3.9760   -0.8050   -1.2780 N   0  0  0  0  0  0  0  0  0  0  0  0
    2.7070   -1.1000   -1.5150 C   0  0  0  0  0  0  0  0  0  0  0  0
    1.8900   -0.4850   -0.6110 N   0  0  0  0  0  0  0  0  0  0  0  0
    0.4880   -0.6110   -0.6110 C   0  0  2  0  0  0  0  0  0  0  0  0
   -0.2250    0.5570   -0.7850 O   0  0  0  0  0  0  0  0  0  0  0  0
   -1.5500    0.1510   -0.6510 C   0  0  2  0  0  0  0  0  0  0  0  0
   -2.4410    1.2730   -0.1720 C   0  0  0  0  0  0  0  0  0  0  0  0
   -2.3650    2.2940   -1.1180 O   0  0  0  0  0  0  0  0  0  0  0  0
   -3.3390    3.5880   -0.6480 P   0  0  2  0  0  0  0  0  0  0  0  0
   -4.7120    3.3660   -1.2100 O   0  0  0  0  0  0  0  0  0  0  0  0
   -2.6210    5.0020   -1.2260 O   0  0  0  0  0  0  0  0  0  0  0  0
   -3.4190    3.5750    1.0400 O   0  0  0  0  0  0  0  0  0  0  0  0
   -1.5610   -1.0230    0.2960 C   0  0  1  0  0  0  0  0  0  0  0  0
   -1.7590   -2.1660   -0.4700 O   0  0  0  0  0  0  0  0  0  0  0  0
   -3.0010   -3.1310    0.0570 P   0  0  2  0  0  0  0  0  0  0  0  0
   -3.8810   -2.4680    1.0860 O   0  0  0  0  0  0  0  0  0  0  0  0
   -2.3320   -4.5600    0.6920 O   0  0  0  0  0  0  0  0  0  0  0  0
   -3.9310   -3.5820   -1.2960 O   0  0  0  0  0  0  0  0  0  0  0  0
   -0.0900   -1.0580    0.7390 C   0  0  1  0  0  0  0  0  0  0  0  0
    0.3070   -2.3220    1.0840 O   0  0  0  0  0  0  0  0  0  0  0  0
  1  2  1  0
  2  3  2  0
  2  7  1  0
  3  4  1  0
  4  5  2  0
  5  6  1  0
  6  7  2  0
  6 10  1  0
  7  8  1  0
  8  9  2  0
  9 10  1  0
 11 10  1  1
 11 12  1  0
 11 26  1  0
 12 13  1  0
 13 14  1  1
 13 20  1  0
 14 15  1  0
 15 16  1  0
 16 17  2  0
 16 18  1  1
 16 19  1  0
 20 21  1  6
 20 26  1  0
 21 22  1  0
 22 23  2  0
 22 24  1  1
 22 25  1  0
 26 27  1  6
M  END
