
     RDKit          3D

 20 20  0  0  0  0  0  0  0  0999 V2000
   -6.4640   -0.8480    0.4770 O   0  0  0  0  0  0  0  0  0  0  0  0
   -6.4150   -0.4240   -0.7040 C   0  0  0  0  0  0  0  0  0  0  0  0
   -5.1520   -0.2800   -1.3380 N   0  0  0  0  0  0  0  0  0  0  0  0
   -3.8980   -0.6040   -0.6720 C   0  0  0  0  0  0  0  0  0  0  0  0
   -3.6810    0.2160    0.5600 C   0  0  0  0  0  0  0  0  0  0  0  0
   -2.4640   -0.1370    1.1610 O   0  0  0  0  0  0  0  0  0  0  0  0
   -1.2810    0.0450    0.4740 C   0  0  0  0  0  0  0  0  0  0  0  0
   -1.1960    0.5190   -0.6830 O   0  0  0  0  0  0  0  0  0  0  0  0
   -0.0400   -0.3030    1.0490 O   0  0  0  0  0  0  0  0  0  0  0  0
    1.1460   -0.1170    0.3530 C   0  0  0  0  0  0  0  0  0  0  0  0
    1.1490    0.3730   -0.8280 O   0  0  0  0  0  0  0  0  0  0  0  0
    2.3950   -0.4380    0.8610 O   0  0  0  0  0  0  0  0  0  0  0  0
    3.5920   -0.2350    0.1200 C   0  0  1  0  0  0  0  0  0  0  0  0
    4.4150    0.7670    0.9270 C   0  0  0  0  0  0  0  0  0  0  0  0
    5.6980    0.9510    0.3500 O   0  0  0  0  0  0  0  0  0  0  0  0
    6.4470   -0.1830    0.0680 C   0  0  0  0  0  0  0  0  0  0  0  0
    7.7000   -0.1710   -0.0100 O   0  0  0  0  0  0  0  0  0  0  0  0
    5.7500   -1.3890   -0.1370 O   0  0  0  0  0  0  0  0  0  0  0  0
    4.3750   -1.4560   -0.0620 C   0  0  0  0  0  0  0  0  0  0  0  0
    3.8230   -2.5720   -0.1540 O   0  0  0  0  0  0  0  0  0  0  0  0
  1  2  2  0
  2  3  1  0
  3  4  1  0
  4  5  1  0
  5  6  1  0
  6  7  1  0
  7  8  2  0
  7  9  1  0
  9 10  1  0
 10 11  2  0
 10 12  1  0
 13 12  1  1
 13 14  1  0
 13 19  1  0
 14 15  1  0
 15 16  1  0
 16 17  2  0
 16 18  1  0
 18 19  1  0
 19 20  2  0
M  END
