
     RDKit          3D

 25 25  0  0  0  0  0  0  0  0999 V2000
    2.8200    1.5900   -0.0590 C   0  0  0  0  0  0  0  0  0  0  0  0
    2.0490    0.3020   -0.1690 C   0  0  1  0  0  0  0  0  0  0  0  0
    2.4890   -0.5110   -1.3840 C   0  0  0  0  0  0  0  0  0  0  0  0
    2.4020   -0.5370    1.0480 C   0  0  0  0  0  0  0  0  0  0  0  0
    3.8980   -0.7710    1.0020 C   0  0  0  0  0  0  0  0  0  0  0  0
    4.3270   -1.5380    2.0870 O   0  0  0  0  0  0  0  0  0  0  0  0
    5.6290   -1.6820    1.9550 O   0  0  0  0  0  0  0  0  0  0  0  0
    6.0250   -1.4150    0.7250 O   0  0  0  0  0  0  0  0  0  0  0  0
    0.6650    0.5090   -0.2720 O   0  0  0  0  0  0  0  0  0  0  0  0
    0.1630    1.2360   -1.3180 C   0  0  0  0  0  0  0  0  0  0  0  0
    0.8800    1.7520   -2.2310 O   0  0  0  0  0  0  0  0  0  0  0  0
   -1.3040    1.4680   -1.4440 C   0  0  0  0  0  0  0  0  0  0  0  0
   -2.0420    0.8530   -0.3750 N   0  0  0  0  0  0  0  0  0  0  0  0
   -2.3050    1.5930    0.8350 C   0  0  0  0  0  0  0  0  0  0  0  0
   -1.9070    2.7730    0.9750 O   0  0  0  0  0  0  0  0  0  0  0  0
   -3.0300    0.9260    1.8530 N   0  0  0  0  0  0  0  0  0  0  0  0
   -3.4720   -0.4120    1.6780 C   0  0  0  0  0  0  0  0  0  0  0  0
   -3.6940   -1.1620    2.6750 O   0  0  0  0  0  0  0  0  0  0  0  0
   -3.6670   -0.9100    0.2940 C   0  0  1  0  0  0  0  0  0  0  0  0
   -4.8120   -0.2610   -0.2780 O   0  0  0  0  0  0  0  0  0  0  0  0
   -5.8880   -0.9830   -0.7650 C   0  0  0  0  0  0  0  0  0  0  0  0
   -5.8160   -2.2370   -0.6830 O   0  0  0  0  0  0  0  0  0  0  0  0
   -7.0080   -0.3800   -1.3240 O   0  0  0  0  0  0  0  0  0  0  0  0
   -2.5020   -0.4790   -0.5110 C   0  0  0  0  0  0  0  0  0  0  0  0
   -1.9660   -1.3020   -1.2820 O   0  0  0  0  0  0  0  0  0  0  0  0
  2  1  1  1
  2  3  1  0
  2  4  1  0
  2  9  1  0
  4  5  1  0
  5  6  1  0
  6  7  1  0
  7  8  1  0
  9 10  1  0
 10 11  2  0
 10 12  1  0
 12 13  1  0
 13 14  1  0
 13 24  1  0
 14 15  2  0
 14 16  1  0
 16 17  1  0
 17 18  2  0
 17 19  1  0
 19 20  1  6
 19 24  1  0
 20 21  1  0
 21 22  2  0
 21 23  1  0
 24 25  2  0
M  END
