
     RDKit          3D

 20 20  0  0  0  0  0  0  0  0999 V2000
    0.0200   -1.6790   -1.4130 O   0  0  0  0  0  0  0  0  0  0  0  0
   -0.1230   -1.3660   -0.2170 C   0  0  0  0  0  0  0  0  0  0  0  0
   -1.3150   -1.6460    0.6360 C   0  0  0  0  0  0  0  0  0  0  0  0
   -2.3030   -1.5080   -0.2720 O   0  0  0  0  0  0  0  0  0  0  0  0
   -2.3530   -0.2600   -0.6490 O   0  0  0  0  0  0  0  0  0  0  0  0
   -3.2090    0.4950    0.0040 C   0  0  2  0  0  0  0  0  0  0  0  0
   -4.5850   -0.1060   -0.2670 C   0  0  0  0  0  0  0  0  0  0  0  0
   -5.5660    0.7910   -0.5910 O   0  0  0  0  0  0  0  0  0  0  0  0
   -5.4490    1.8970    0.2910 C   0  0  0  0  0  0  0  0  0  0  0  0
   -4.4050    2.6830   -0.3020 O   0  0  0  0  0  0  0  0  0  0  0  0
   -3.2020    1.9410   -0.4880 C   0  0  0  0  0  0  0  0  0  0  0  0
   -2.2160    2.4830   -1.0760 O   0  0  0  0  0  0  0  0  0  0  0  0
    0.9370   -0.6670    0.3500 N   0  0  0  0  0  0  0  0  0  0  0  0
    2.1240   -0.3680   -0.5880 C   0  0  0  0  0  0  0  0  0  0  0  0
    3.2270   -0.9380    0.1980 C   0  0  0  0  0  0  0  0  0  0  0  0
    4.4770   -0.7640   -0.6410 C   0  0  0  0  0  0  0  0  0  0  0  0
    5.5290   -1.0050    0.3090 O   0  0  0  0  0  0  0  0  0  0  0  0
    6.2540    0.1650    0.1890 O   0  0  0  0  0  0  0  0  0  0  0  0
    5.1940    1.0770   -0.0420 O   0  0  0  0  0  0  0  0  0  0  0  0
    5.8180    2.2060   -0.4520 O   0  0  0  0  0  0  0  0  0  0  0  0
  1  2  2  0
  2  3  1  0
  2 13  1  0
  3  4  1  0
  4  5  1  0
  6  5  1  6
  6  7  1  0
  6 11  1  0
  7  8  1  0
  8  9  1  0
  9 10  1  0
 10 11  1  0
 11 12  2  0
 13 14  1  0
 14 15  1  0
 15 16  1  0
 16 17  1  0
 17 18  1  0
 18 19  1  0
 19 20  1  0
M  END
