
     RDKit          3D

 20 19  0  0  0  0  0  0  0  0999 V2000
   -1.9740   -0.5090   -2.2350 O   0  0  0  0  0  0  0  0  0  0  0  0
   -1.8140   -0.6880   -1.1020 C   0  0  0  0  0  0  0  0  0  0  0  0
   -0.5040   -0.9300   -0.4080 C   0  0  0  0  0  0  0  0  0  0  0  0
    0.4090   -1.1590   -1.4470 O   0  0  0  0  0  0  0  0  0  0  0  0
    1.3420   -0.1140   -1.4330 C   0  0  0  0  0  0  0  0  0  0  0  0
    2.0920   -0.2240   -0.1560 C   0  0  0  0  0  0  0  0  0  0  0  0
    3.0050    0.7350    0.1300 O   0  0  0  0  0  0  0  0  0  0  0  0
    4.2940    0.3660   -0.1320 C   0  0  0  0  0  0  0  0  0  0  0  0
    5.3240    1.4030    0.3470 C   0  0  0  0  0  0  0  0  0  0  0  0
    5.1630    1.4900    1.6910 O   0  0  0  0  0  0  0  0  0  0  0  0
    5.3450    0.5420    2.4810 O   0  0  0  0  0  0  0  0  0  0  0  0
    6.1940   -0.3860    2.2500 O   0  0  0  0  0  0  0  0  0  0  0  0
    7.3330    0.1520    1.8170 O   0  0  0  0  0  0  0  0  0  0  0  0
   -2.9270   -0.6670   -0.1210 N   0  0  0  0  0  0  0  0  0  0  0  0
   -4.2080   -0.4760   -0.8180 C   0  0  2  0  0  0  0  0  0  0  0  0
   -4.3960    1.0670   -0.6690 C   0  0  0  0  0  0  0  0  0  0  0  0
   -5.5630    1.4520   -1.1920 O   0  0  0  0  0  0  0  0  0  0  0  0
   -5.2890   -1.1100    0.0910 C   0  0  0  0  0  0  0  0  0  0  0  0
   -5.4150   -0.1350    1.0610 O   0  0  0  0  0  0  0  0  0  0  0  0
   -5.2120   -0.3810    2.2230 O   0  0  0  0  0  0  0  0  0  0  0  0
  1  2  2  0
  2  3  1  0
  2 14  1  0
  3  4  1  0
  4  5  1  0
  5  6  1  0
  6  7  1  0
  7  8  1  0
  8  9  1  0
  9 10  1  0
 10 11  1  0
 11 12  1  0
 12 13  1  0
 14 15  1  0
 15 16  1  1
 15 18  1  0
 16 17  1  0
 18 19  1  0
 19 20  1  0
M  END
