
     RDKit          3D

 17 18  0  0  0  0  0  0  0  0999 V2000
    3.7700    0.4550    0.9340 C   0  0  0  0  0  0  0  0  0  0  0  0
    2.8030    0.2560   -0.2730 C   0  0  0  0  0  0  0  0  0  0  0  0
    1.4270    0.4630    0.1440 C   0  0  0  0  0  0  0  0  0  0  0  0
    0.4470   -0.3850    0.0440 C   0  0  0  0  0  0  0  0  0  0  0  0
    0.5330   -1.7060   -0.5020 C   0  0  0  0  0  0  0  0  0  0  0  0
    1.6010   -2.4770   -1.1020 C   0  0  0  0  0  0  0  0  0  0  0  0
   -0.6120   -2.3530   -0.4430 O   0  0  0  0  0  0  0  0  0  0  0  0
   -0.8720    0.1530    0.5680 C   0  0  2  0  0  0  0  0  0  0  0  0
   -2.0410   -0.6220    0.0940 C   0  0  0  0  0  0  0  0  0  0  0  0
   -2.9060   -1.3790    0.7460 C   0  0  0  0  0  0  0  0  0  0  0  0
   -3.9180   -1.9550   -0.1770 C   0  0  0  0  0  0  0  0  0  0  0  0
   -3.5080   -1.4100   -1.4790 C   0  0  0  0  0  0  0  0  0  0  0  0
   -2.4480   -0.6590   -1.3210 C   0  0  0  0  0  0  0  0  0  0  0  0
   -0.9610    1.4720    0.0430 O   0  0  0  0  0  0  0  0  0  0  0  0
   -0.1790    2.2650    0.8530 C   0  0  2  0  0  0  0  0  0  0  0  0
   -0.2810    3.7170    0.4220 C   0  0  0  0  0  0  0  0  0  0  0  0
    1.1730    1.7780    0.7710 N   0  0  0  0  0  0  0  0  0  0  0  0
  1  2  1  0
  2  3  1  0
  3  4  2  0
  3 17  1  0
  4  5  1  0
  4  8  1  0
  5  6  1  0
  5  7  2  0
  8  9  1  6
  8 14  1  0
  9 10  2  0
  9 13  1  0
 10 11  1  0
 11 12  1  0
 12 13  2  0
 14 15  1  0
 15 16  1  6
 15 17  1  0
M  END
