
     RDKit          3D

 17 19  0  0  0  0  0  0  0  0999 V2000
    0.1900   -1.9450   -1.4320 C   0  0  0  0  0  0  0  0  0  0  0  0
   -0.4730   -1.3070   -0.2080 C   0  0  2  0  0  0  0  0  0  0  0  0
   -0.3100   -2.3920    0.8930 C   0  0  0  0  0  0  0  0  0  0  0  0
   -1.9020   -1.1300   -0.5220 C   0  0  0  0  0  0  0  0  0  0  0  0
   -2.4870    0.1980   -0.3690 C   0  0  0  0  0  0  0  0  0  0  0  0
   -1.7740    1.2090    0.0330 C   0  0  0  0  0  0  0  0  0  0  0  0
   -0.3560    1.0410    0.3440 C   0  0  0  0  0  0  0  0  0  0  0  0
    0.2430   -0.1150    0.2330 C   0  0  0  0  0  0  0  0  0  0  0  0
    1.6890   -0.1540    0.5950 C   0  0  2  0  0  0  0  0  0  0  0  0
    2.2230    1.2100    0.9180 C   0  0  0  0  0  0  0  0  0  0  0  0
    3.7510    0.9590    0.7330 C   0  0  0  0  0  0  0  0  0  0  0  0
    3.6770    0.0200   -0.4470 C   0  0  0  0  0  0  0  0  0  0  0  0
    2.5150   -0.7000   -0.3400 O   0  0  0  0  0  0  0  0  0  0  0  0
   -2.6320    2.4030    0.0890 C   0  0  0  0  0  0  0  0  0  0  0  0
   -3.9410    1.9910   -0.3250 N   0  0  0  0  0  0  0  0  0  0  0  0
   -3.8790    0.6110   -0.6180 C   0  0  0  0  0  0  0  0  0  0  0  0
   -4.8290   -0.1290   -1.0180 O   0  0  0  0  0  0  0  0  0  0  0  0
  2  1  1  6
  2  3  1  0
  2  4  1  0
  2  8  1  0
  4  5  1  0
  5  6  2  0
  5 16  1  0
  6  7  1  0
  6 14  1  0
  7  8  2  0
  9  8  1  6
  9 10  1  0
  9 13  1  0
 10 11  1  0
 11 12  1  0
 12 13  1  0
 14 15  1  0
 15 16  1  0
 16 17  2  0
M  END
