
     RDKit          3D

 17 19  0  0  0  0  0  0  0  0999 V2000
    2.5150    1.7010    2.2040 C   0  0  0  0  0  0  0  0  0  0  0  0
    1.5290    0.7160    1.7360 C   0  0  0  0  0  0  0  0  0  0  0  0
    1.4510    0.4320    0.4460 C   0  0  0  0  0  0  0  0  0  0  0  0
    2.2730    1.0300   -0.5220 C   0  0  0  0  0  0  0  0  0  0  0  0
    2.9350    1.5360   -1.3260 N   0  0  0  0  0  0  0  0  0  0  0  0
    0.4190   -0.5750    0.0610 C   0  0  2  0  0  0  0  0  0  0  0  0
    0.1320   -0.6400   -1.3700 C   0  0  0  0  0  0  0  0  0  0  0  0
    1.0020   -0.7950   -2.4120 C   0  0  0  0  0  0  0  0  0  0  0  0
    0.2160   -0.7970   -3.6540 C   0  0  0  0  0  0  0  0  0  0  0  0
   -1.1730   -0.6350   -3.1840 C   0  0  0  0  0  0  0  0  0  0  0  0
   -1.2140   -0.5430   -1.8510 C   0  0  0  0  0  0  0  0  0  0  0  0
   -2.2990   -0.3830   -0.9780 O   0  0  0  0  0  0  0  0  0  0  0  0
   -1.9750   -0.3260    0.3720 C   0  0  0  0  0  0  0  0  0  0  0  0
   -3.1060   -0.1530    1.3850 C   0  0  0  0  0  0  0  0  0  0  0  0
   -0.7840   -0.4070    0.8800 C   0  0  0  0  0  0  0  0  0  0  0  0
   -0.6240   -0.3040    2.3930 C   0  0  0  0  0  0  0  0  0  0  0  0
    0.6970    0.1050    2.6730 O   0  0  0  0  0  0  0  0  0  0  0  0
  1  2  1  0
  2  3  2  0
  2 17  1  0
  3  4  1  0
  6  3  1  6
  4  5  3  0
  6  7  1  0
  6 15  1  0
  7  8  2  0
  7 11  1  0
  8  9  1  0
  9 10  1  0
 10 11  2  0
 11 12  1  0
 12 13  1  0
 13 14  1  0
 13 15  2  0
 15 16  1  0
 16 17  1  0
M  END
