
     RDKit          3D

 17 19  0  0  0  0  0  0  0  0999 V2000
   -1.6940   -1.7660    0.4940 C   0  0  0  0  0  0  0  0  0  0  0  0
   -1.6690   -1.1870   -0.9010 C   0  0  1  0  0  0  0  0  0  0  0  0
   -3.0100   -1.1480   -1.3580 O   0  0  0  0  0  0  0  0  0  0  0  0
   -3.5980   -0.0660   -0.6950 C   0  0  0  0  0  0  0  0  0  0  0  0
   -4.7370    0.4450   -0.2340 C   0  0  0  0  0  0  0  0  0  0  0  0
   -4.4740    1.7590    0.4040 C   0  0  0  0  0  0  0  0  0  0  0  0
   -3.0260    1.9460    0.2510 C   0  0  0  0  0  0  0  0  0  0  0  0
   -2.5420    0.8940   -0.3780 C   0  0  0  0  0  0  0  0  0  0  0  0
   -1.2980    0.2780   -0.9120 C   0  0  1  0  0  0  0  0  0  0  0  0
   -0.1340    0.5810   -0.0760 C   0  0  0  0  0  0  0  0  0  0  0  0
   -0.2590    1.3900    0.8760 O   0  0  0  0  0  0  0  0  0  0  0  0
    1.1450    0.0020   -0.2860 N   0  0  0  0  0  0  0  0  0  0  0  0
    2.2860    0.3320    0.5740 C   0  0  2  0  0  0  0  0  0  0  0  0
    3.3290    0.9690   -0.2990 C   0  0  0  0  0  0  0  0  0  0  0  0
    4.1140   -0.2300   -0.7880 C   0  0  0  0  0  0  0  0  0  0  0  0
    4.3280   -0.9770    0.5350 C   0  0  0  0  0  0  0  0  0  0  0  0
    2.9370   -0.9170    1.1230 C   0  0  0  0  0  0  0  0  0  0  0  0
  2  1  1  1
  2  3  1  0
  2  9  1  0
  3  4  1  0
  4  5  2  0
  4  8  1  0
  5  6  1  0
  6  7  1  0
  7  8  2  0
  8  9  1  0
  9 10  1  1
 10 11  2  0
 10 12  1  0
 13 12  1  6
 13 14  1  0
 13 17  1  0
 14 15  1  0
 15 16  1  0
 16 17  1  0
M  END
