
     RDKit          3D

 17 18  0  0  0  0  0  0  0  0999 V2000
   -3.3530    2.2970   -0.3270 C   0  0  0  0  0  0  0  0  0  0  0  0
   -2.8350    1.5200   -1.5080 C   0  0  0  0  0  0  0  0  0  0  0  0
   -1.6710    0.7640   -1.2590 N   0  0  0  0  0  0  0  0  0  0  0  0
   -1.4600   -0.1950   -0.5100 C   0  0  0  0  0  0  0  0  0  0  0  0
   -2.5690   -0.7410    0.3360 C   0  0  0  0  0  0  0  0  0  0  0  0
   -2.2210   -2.1830    0.7230 C   0  0  0  0  0  0  0  0  0  0  0  0
   -1.5840   -2.7910   -0.3470 O   0  0  0  0  0  0  0  0  0  0  0  0
   -0.2260   -2.3490   -0.3870 C   0  0  0  0  0  0  0  0  0  0  0  0
   -0.1740   -0.8580   -0.4130 C   0  0  0  0  0  0  0  0  0  0  0  0
    0.9210   -0.2030   -0.2930 C   0  0  0  0  0  0  0  0  0  0  0  0
    0.9470    1.3030   -0.2320 C   0  0  0  0  0  0  0  0  0  0  0  0
    1.6820    1.6640    1.0770 C   0  0  0  0  0  0  0  0  0  0  0  0
    3.0890    1.1940    1.0380 C   0  0  1  0  0  0  0  0  0  0  0  0
    3.5890    1.1470    2.3590 O   0  0  0  0  0  0  0  0  0  0  0  0
    3.2410   -0.1050    0.3970 C   0  0  0  0  0  0  0  0  0  0  0  0
    2.2820   -0.7820   -0.2250 C   0  0  0  0  0  0  0  0  0  0  0  0
    2.6030   -2.0630   -0.8710 C   0  0  0  0  0  0  0  0  0  0  0  0
  1  2  1  0
  2  3  1  0
  3  4  2  3
  4  5  1  0
  4  9  1  0
  5  6  1  0
  6  7  1  0
  7  8  1  0
  8  9  1  0
  9 10  2  3
 10 11  1  0
 10 16  1  0
 11 12  1  0
 12 13  1  0
 13 14  1  1
 13 15  1  0
 15 16  2  0
 16 17  1  0
M  END
