
     RDKit          3D

 17 19  0  0  0  0  0  0  0  0999 V2000
   -2.9410    2.1820   -0.9520 C   0  0  0  0  0  0  0  0  0  0  0  0
   -2.4850    1.7080    0.4280 C   0  0  1  0  0  0  0  0  0  0  0  0
   -3.0830    0.4580    0.7300 N   0  0  0  0  0  0  0  0  0  0  0  0
   -2.4330   -0.6510    0.8250 C   0  0  0  0  0  0  0  0  0  0  0  0
   -2.8650   -2.0540    1.1250 C   0  0  0  0  0  0  0  0  0  0  0  0
   -1.8260   -2.8480    0.3680 C   0  0  0  0  0  0  0  0  0  0  0  0
   -0.5580   -2.1120    0.8330 C   0  0  0  0  0  0  0  0  0  0  0  0
   -0.9960   -0.6920    0.6920 C   0  0  0  0  0  0  0  0  0  0  0  0
   -0.2290    0.4110    0.4690 C   0  0  0  0  0  0  0  0  0  0  0  0
    1.2050    0.2690    0.3390 C   0  0  0  0  0  0  0  0  0  0  0  0
    2.1160    1.1470    0.1170 C   0  0  0  0  0  0  0  0  0  0  0  0
    1.8370    2.4900   -0.0490 O   0  0  0  0  0  0  0  0  0  0  0  0
    3.5690    0.7830    0.0190 C   0  0  2  0  0  0  0  0  0  0  0  0
    3.9320    0.0320   -1.2170 C   0  0  0  0  0  0  0  0  0  0  0  0
    4.0040   -0.6190    0.1710 C   0  0  0  0  0  0  0  0  0  0  0  0
   -0.9860    1.6450    0.4730 C   0  0  0  0  0  0  0  0  0  0  0  0
   -0.3700    2.7490    0.5190 O   0  0  0  0  0  0  0  0  0  0  0  0
  2  1  1  6
  2  3  1  0
  2 16  1  0
  3  4  2  0
  4  5  1  0
  4  8  1  0
  5  6  1  0
  6  7  1  0
  7  8  1  0
  8  9  2  0
  9 10  1  0
  9 16  1  0
 10 11  2  3
 11 12  1  0
 13 11  1  6
 13 14  1  0
 13 15  1  0
 14 15  1  0
 16 17  2  0
M  END
