
     RDKit          3D

 18 20  0  0  0  0  0  0  0  0999 V2000
    5.7290   -0.3060    1.1060 N   0  0  0  0  0  0  0  0  0  0  0  0
    4.5870   -0.0390    0.3210 C   0  0  0  0  0  0  0  0  0  0  0  0
    4.8020    0.5720   -0.7990 N   0  0  0  0  0  0  0  0  0  0  0  0
    3.9330    1.0050   -1.8370 C   0  0  0  0  0  0  0  0  0  0  0  0
    2.6150    0.8740   -1.9020 C   0  0  0  0  0  0  0  0  0  0  0  0
    1.6780    0.2630   -0.9540 C   0  0  0  0  0  0  0  0  0  0  0  0
    0.3970    0.3150   -1.3580 N   0  0  0  0  0  0  0  0  0  0  0  0
   -0.6240   -0.1850   -0.6420 C   0  0  0  0  0  0  0  0  0  0  0  0
   -1.9810   -0.1050   -1.1280 N   0  0  0  0  0  0  0  0  0  0  0  0
   -3.0890   -0.6120   -0.3910 C   0  0  1  0  0  0  0  0  0  0  0  0
   -3.2040    0.1330    0.9340 C   0  0  0  0  0  0  0  0  0  0  0  0
   -4.4470    0.9770    0.7640 C   0  0  0  0  0  0  0  0  0  0  0  0
   -4.8100    0.9390   -0.5560 O   0  0  0  0  0  0  0  0  0  0  0  0
   -4.3670   -0.2740   -1.0770 C   0  0  0  0  0  0  0  0  0  0  0  0
   -0.3250   -0.7770    0.5630 C   0  0  0  0  0  0  0  0  0  0  0  0
    1.0000   -0.8440    1.0060 C   0  0  0  0  0  0  0  0  0  0  0  0
    2.0260   -0.3200    0.2470 C   0  0  0  0  0  0  0  0  0  0  0  0
    3.3140   -0.4660    0.8330 N   0  0  0  0  0  0  0  0  0  0  0  0
  1  2  1  0
  2  3  2  0
  2 18  1  0
  3  4  1  0
  4  5  2  0
  5  6  1  0
  6  7  2  0
  6 17  1  0
  7  8  1  0
  8  9  1  0
  8 15  2  0
 10  9  1  6
 10 11  1  0
 10 14  1  0
 11 12  1  0
 12 13  1  0
 13 14  1  0
 15 16  1  0
 16 17  2  0
 17 18  1  0
M  END
