
     RDKit          3D

 12 12  0  0  0  0  0  0  0  0999 V2000
    3.4540    1.2890    0.0970 O   0  0  0  0  0  0  0  0  0  0  0  0
    3.2340   -0.0260   -0.3020 C   0  0  0  0  0  0  0  0  0  0  0  0
    1.9020   -0.1110   -0.7640 O   0  0  0  0  0  0  0  0  0  0  0  0
    1.0170    0.2330    0.2460 C   0  0  2  0  0  0  0  0  0  0  0  0
    0.0990   -0.9290    0.5660 C   0  0  0  0  0  0  0  0  0  0  0  0
   -1.2610   -0.3270    0.2730 C   0  0  2  0  0  0  0  0  0  0  0  0
   -1.7790    0.3880    1.3220 O   0  0  0  0  0  0  0  0  0  0  0  0
   -2.2500   -1.3470   -0.2160 C   0  0  0  0  0  0  0  0  0  0  0  0
   -3.3900   -0.6700   -0.6300 O   0  0  0  0  0  0  0  0  0  0  0  0
   -0.8790    0.6570   -0.8250 C   0  0  1  0  0  0  0  0  0  0  0  0
   -1.8760    1.5580   -1.0930 O   0  0  0  0  0  0  0  0  0  0  0  0
    0.2340    1.2690   -0.2000 O   0  0  0  0  0  0  0  0  0  0  0  0
  1  2  1  0
  2  3  1  0
  4  3  1  6
  4  5  1  0
  4 12  1  0
  5  6  1  0
  6  7  1  1
  6  8  1  0
  6 10  1  0
  8  9  1  0
 10 11  1  1
 10 12  1  0
M  END
