
     RDKit          3D

 22 23  0  0  0  0  0  0  0  0999 V2000
   -6.2870    1.7650   -0.9840 C   0  0  0  0  0  0  0  0  0  0  0  0
   -5.1670    0.8660   -0.6950 C   0  0  0  0  0  0  0  0  0  0  0  0
   -5.0780   -0.4590   -0.4750 C   0  0  0  0  0  0  0  0  0  0  0  0
   -3.9150   -1.0530   -0.2280 C   0  0  0  0  0  0  0  0  0  0  0  0
   -3.7430   -2.5420    0.0280 C   0  0  1  0  0  0  0  0  0  0  0  0
   -2.9460   -3.0860   -0.9490 F   0  0  0  0  0  0  0  0  0  0  0  0
   -3.1890   -2.7530    1.2730 F   0  0  0  0  0  0  0  0  0  0  0  0
   -2.7820   -0.1750   -0.2150 C   0  0  0  0  0  0  0  0  0  0  0  0
   -1.4310   -0.5850    0.0280 N   0  0  0  0  0  0  0  0  0  0  0  0
   -0.3770    0.3730    0.0180 C   0  0  0  0  0  0  0  0  0  0  0  0
   -0.7090    1.5710   -0.2130 O   0  0  0  0  0  0  0  0  0  0  0  0
    1.0060    0.0220    0.2560 C   0  0  0  0  0  0  0  0  0  0  0  0
    1.4770   -1.2420    0.5170 C   0  0  0  0  0  0  0  0  0  0  0  0
    2.8590   -1.1560    0.6870 C   0  0  0  0  0  0  0  0  0  0  0  0
    3.1410    0.1960    0.5120 C   0  0  0  0  0  0  0  0  0  0  0  0
    4.4520    0.7970    0.5920 C   0  0  0  0  0  0  0  0  0  0  0  0
    5.5190    0.0600    0.8490 C   0  0  0  0  0  0  0  0  0  0  0  0
    6.8440    0.6990    0.9250 C   0  0  0  0  0  0  0  0  0  0  0  0
    6.9870    2.1050    0.7240 N   0  0  0  0  0  0  0  0  0  0  0  0
    7.8200   -0.0240    1.1680 O   0  0  0  0  0  0  0  0  0  0  0  0
    2.0130    0.8440    0.2610 O   0  0  0  0  0  0  0  0  0  0  0  0
   -3.4300    1.3900   -0.5460 S   0  0  0  0  0  0  0  0  0  0  0  0
  1  2  1  0
  2  3  2  0
  2 22  1  0
  3  4  1  0
  4  5  1  0
  4  8  2  0
  5  6  1  6
  5  7  1  0
  8  9  1  0
  8 22  1  0
  9 10  1  0
 10 11  2  0
 10 12  1  0
 12 13  2  0
 12 21  1  0
 13 14  1  0
 14 15  2  0
 15 16  1  0
 15 21  1  0
 16 17  2  3
 17 18  1  0
 18 19  1  0
 18 20  2  0
M  END
