
     RDKit          3D

 22 23  0  0  0  0  0  0  0  0999 V2000
    1.7260   -2.0270    0.6470 O   0  0  0  0  0  0  0  0  0  0  0  0
    1.5380   -0.8210    0.3210 C   0  0  0  0  0  0  0  0  0  0  0  0
    0.2050   -0.4710    0.0710 N   0  0  0  0  0  0  0  0  0  0  0  0
   -0.9410   -1.3580    0.1450 C   0  0  0  0  0  0  0  0  0  0  0  0
   -0.8110   -2.7250    0.1460 C   0  0  0  0  0  0  0  0  0  0  0  0
   -1.9510   -3.5390    0.1370 C   0  0  0  0  0  0  0  0  0  0  0  0
   -3.1580   -2.9270    0.1260 C   0  0  0  0  0  0  0  0  0  0  0  0
   -3.3320   -1.5530    0.1240 C   0  0  0  0  0  0  0  0  0  0  0  0
   -2.2180   -0.7520    0.1350 C   0  0  0  0  0  0  0  0  0  0  0  0
   -2.3220    0.6470    0.2060 N   0  0  0  0  0  0  0  0  0  0  0  0
   -3.4870    1.4030    0.0050 C   0  0  0  0  0  0  0  0  0  0  0  0
   -4.5780    0.8950   -0.2710 O   0  0  0  0  0  0  0  0  0  0  0  0
   -3.4540    2.9060    0.1210 C   0  0  1  0  0  0  0  0  0  0  0  0
   -3.0350    3.1800    1.4310 F   0  0  0  0  0  0  0  0  0  0  0  0
   -2.5200    3.4340   -0.7180 F   0  0  0  0  0  0  0  0  0  0  0  0
    2.7060    0.0570    0.2420 C   0  0  0  0  0  0  0  0  0  0  0  0
    3.8740   -0.5200    0.5260 C   0  0  0  0  0  0  0  0  0  0  0  0
    5.2130    0.0660    0.5410 C   0  0  0  0  0  0  0  0  0  0  0  0
    5.2670    1.8140    0.1150 S   0  0  0  0  0  0  0  0  0  0  0  0
    3.5890    2.3000   -0.2080 C   0  0  0  0  0  0  0  0  0  0  0  0
    2.5740    1.4360   -0.1160 C   0  0  0  0  0  0  0  0  0  0  0  0
    1.3310    2.0320   -0.4140 O   0  0  0  0  0  0  0  0  0  0  0  0
  1  2  2  0
  2  3  1  0
  2 16  1  0
  3  4  1  0
  4  5  2  0
  4  9  1  0
  5  6  1  0
  6  7  2  0
  7  8  1  0
  8  9  2  0
  9 10  1  0
 10 11  1  0
 11 12  2  0
 11 13  1  0
 13 14  1  1
 13 15  1  0
 16 17  2  0
 16 21  1  0
 17 18  1  0
 18 19  1  0
 19 20  1  0
 20 21  2  0
 21 22  1  0
M  END
