
     RDKit          3D

 20 21  0  0  0  0  0  0  0  0999 V2000
   -4.4220    0.4260   -1.4240 C   0  0  0  0  0  0  0  0  0  0  0  0
   -4.1250    0.1080   -0.0070 C   0  0  0  0  0  0  0  0  0  0  0  0
   -2.9850   -0.0650    0.5810 C   0  0  0  0  0  0  0  0  0  0  0  0
   -1.6290   -0.0270    0.1670 N   0  0  0  0  0  0  0  0  0  0  0  0
   -1.0950    0.2260   -1.0780 C   0  0  0  0  0  0  0  0  0  0  0  0
   -1.7760    0.4700   -2.0640 O   0  0  0  0  0  0  0  0  0  0  0  0
    0.3670    0.2200   -1.3140 C   0  0  0  0  0  0  0  0  0  0  0  0
    1.4190   -0.0030   -0.4910 C   0  0  0  0  0  0  0  0  0  0  0  0
    2.6700    0.0440   -0.9320 C   0  0  0  0  0  0  0  0  0  0  0  0
    3.8470   -0.1740   -0.1530 O   0  0  0  0  0  0  0  0  0  0  0  0
    3.7810   -0.4690    1.2030 C   0  0  0  0  0  0  0  0  0  0  0  0
    5.1570   -0.6390    1.7280 C   0  0  0  0  0  0  0  0  0  0  0  0
    6.2730   -0.4930    0.8640 N   0  0  0  0  0  0  0  0  0  0  0  0
    5.3810   -0.9140    2.9380 O   0  0  0  0  0  0  0  0  0  0  0  0
    2.8970    0.3350   -2.2930 C   0  0  0  0  0  0  0  0  0  0  0  0
    4.0520    0.4680   -3.1080 C   0  0  0  0  0  0  0  0  0  0  0  0
    1.1270    0.5330   -2.8750 S   0  0  0  0  0  0  0  0  0  0  0  0
   -3.2970   -0.3940    2.0560 C   0  0  0  0  0  0  0  0  0  0  0  0
   -4.5980    0.2810    2.2960 C   0  0  0  0  0  0  0  0  0  0  0  0
   -5.2760   -0.0380    0.9750 C   0  0  0  0  0  0  0  0  0  0  0  0
  1  2  1  0
  2  3  2  0
  2 20  1  0
  3  4  1  0
  3 18  1  0
  4  5  1  0
  5  6  2  0
  5  7  1  0
  7  8  2  0
  7 17  1  0
  8  9  1  0
  9 10  1  0
  9 15  2  0
 10 11  1  0
 11 12  1  0
 12 13  1  0
 12 14  2  0
 15 16  1  0
 15 17  1  0
 18 19  1  0
 19 20  1  0
M  END
