
     RDKit          3D

 20 21  0  0  0  0  0  0  0  0999 V2000
   -5.5440    1.1080   -0.7350 C   0  0  0  0  0  0  0  0  0  0  0  0
   -4.2340    1.0010   -0.7110 C   0  0  0  0  0  0  0  0  0  0  0  0
   -3.5550   -0.0880   -1.5010 C   0  0  0  0  0  0  0  0  0  0  0  0
   -2.8290   -0.8890   -0.4780 N   0  0  0  0  0  0  0  0  0  0  0  0
   -3.4500   -1.9830    0.1560 C   0  0  0  0  0  0  0  0  0  0  0  0
   -4.5600   -2.5160   -0.1050 O   0  0  0  0  0  0  0  0  0  0  0  0
   -2.3380   -2.4980    1.4490 S   0  0  0  0  0  0  0  0  0  0  0  0
   -0.9420   -1.4720    0.9060 C   0  0  0  0  0  0  0  0  0  0  0  0
    0.2820   -1.5410    1.3990 C   0  0  0  0  0  0  0  0  0  0  0  0
    1.4080   -0.7450    0.9870 C   0  0  0  0  0  0  0  0  0  0  0  0
    1.7790   -0.6200   -0.3390 C   0  0  0  0  0  0  0  0  0  0  0  0
    2.8460    0.1870   -0.6790 C   0  0  0  0  0  0  0  0  0  0  0  0
    3.2690    0.3360   -2.1160 C   0  0  0  0  0  0  0  0  0  0  0  0
    3.5260    0.8580    0.3090 C   0  0  0  0  0  0  0  0  0  0  0  0
    4.6160    1.6830   -0.0600 N   0  0  0  0  0  0  0  0  0  0  0  0
    3.1800    0.7530    1.6430 C   0  0  0  0  0  0  0  0  0  0  0  0
    2.1280   -0.0440    1.9710 C   0  0  0  0  0  0  0  0  0  0  0  0
    1.7030   -0.2110    3.3020 O   0  0  0  0  0  0  0  0  0  0  0  0
   -1.5240   -0.6080   -0.1010 C   0  0  0  0  0  0  0  0  0  0  0  0
   -0.8440    0.3690   -0.6030 O   0  0  0  0  0  0  0  0  0  0  0  0
  1  2  2  0
  2  3  1  0
  3  4  1  0
  4  5  1  0
  4 19  1  0
  5  6  2  0
  5  7  1  0
  7  8  1  0
  8  9  2  3
  8 19  1  0
  9 10  1  0
 10 11  2  0
 10 17  1  0
 11 12  1  0
 12 13  1  0
 12 14  2  0
 14 15  1  0
 14 16  1  0
 16 17  2  0
 17 18  1  0
 19 20  2  0
M  END
