
     RDKit          3D

 18 20  0  0  0  0  0  0  0  0999 V2000
    6.6290    0.2340   -1.4190 O   0  0  0  0  0  0  0  0  0  0  0  0
    5.5530   -0.1290   -0.8760 C   0  0  0  0  0  0  0  0  0  0  0  0
    5.4540   -0.9620    0.1650 N   0  0  0  0  0  0  0  0  0  0  0  0
    4.1560   -1.0990    0.4480 N   0  0  0  0  0  0  0  0  0  0  0  0
    3.4680   -0.3510   -0.4190 C   0  0  0  0  0  0  0  0  0  0  0  0
    2.0190   -0.2250   -0.4500 C   0  0  0  0  0  0  0  0  0  0  0  0
    1.3910    0.5850   -1.3990 C   0  0  0  0  0  0  0  0  0  0  0  0
    0.0300    0.6790   -1.3970 C   0  0  0  0  0  0  0  0  0  0  0  0
   -0.7520    0.0030   -0.4920 C   0  0  0  0  0  0  0  0  0  0  0  0
   -2.1580    0.1450   -0.5530 N   0  0  0  0  0  0  0  0  0  0  0  0
   -3.0300   -0.4900    0.4280 C   0  0  2  0  0  0  0  0  0  0  0  0
   -4.4280   -0.2040    0.0600 C   0  0  0  0  0  0  0  0  0  0  0  0
   -4.8380    0.8260    0.7550 C   0  0  0  0  0  0  0  0  0  0  0  0
   -3.8200    1.3060    1.6090 N   0  0  0  0  0  0  0  0  0  0  0  0
   -2.8860    0.2150    1.7560 C   0  0  0  0  0  0  0  0  0  0  0  0
   -0.1350   -0.8000    0.4500 C   0  0  0  0  0  0  0  0  0  0  0  0
    1.2470   -0.9020    0.4560 C   0  0  0  0  0  0  0  0  0  0  0  0
    4.3200    0.2640   -1.2550 N   0  0  0  0  0  0  0  0  0  0  0  0
  1  2  2  0
  2  3  1  0
  2 18  1  0
  3  4  1  0
  4  5  2  0
  5  6  1  0
  5 18  1  0
  6  7  2  0
  6 17  1  0
  7  8  1  0
  8  9  2  0
  9 10  1  0
  9 16  1  0
 11 10  1  6
 11 12  1  0
 11 15  1  0
 12 13  2  0
 13 14  1  0
 14 15  1  0
 16 17  2  0
M  END
