
     RDKit          3D

 18 20  0  0  0  0  0  0  0  0999 V2000
   -5.3810    0.2180   -1.2710 C   0  0  0  0  0  0  0  0  0  0  0  0
   -4.1250    0.1210   -0.4760 C   0  0  0  0  0  0  0  0  0  0  0  0
   -4.2620   -0.0060    0.8870 C   0  0  0  0  0  0  0  0  0  0  0  0
   -3.1080   -0.0990    1.6600 C   0  0  0  0  0  0  0  0  0  0  0  0
   -1.8520   -0.0660    1.0900 C   0  0  0  0  0  0  0  0  0  0  0  0
   -0.5530   -0.1320    1.5500 C   0  0  0  0  0  0  0  0  0  0  0  0
    0.3230   -0.0440    0.4700 C   0  0  0  0  0  0  0  0  0  0  0  0
    1.7830   -0.0730    0.5190 C   0  0  0  0  0  0  0  0  0  0  0  0
    2.6440    0.0140   -0.5500 C   0  0  0  0  0  0  0  0  0  0  0  0
    3.9230   -0.0530   -0.0720 C   0  0  0  0  0  0  0  0  0  0  0  0
    5.1480    0.0010   -0.8460 C   0  0  0  0  0  0  0  0  0  0  0  0
    6.4210   -0.0800   -0.2230 N   0  0  0  0  0  0  0  0  0  0  0  0
    5.1450    0.1210   -2.1070 O   0  0  0  0  0  0  0  0  0  0  0  0
    3.8550   -0.1780    1.2550 N   0  0  0  0  0  0  0  0  0  0  0  0
    2.5770   -0.1890    1.5920 N   0  0  0  0  0  0  0  0  0  0  0  0
   -0.4690    0.0720   -0.6080 N   0  0  0  0  0  0  0  0  0  0  0  0
   -1.7730    0.0630   -0.2810 C   0  0  0  0  0  0  0  0  0  0  0  0
   -2.9100    0.1540   -1.0320 N   0  0  0  0  0  0  0  0  0  0  0  0
  1  2  1  0
  2  3  2  0
  2 18  1  0
  3  4  1  0
  4  5  2  0
  5  6  1  0
  5 17  1  0
  6  7  2  0
  7  8  1  0
  7 16  1  0
  8  9  2  0
  8 15  1  0
  9 10  1  0
 10 11  1  0
 10 14  2  0
 11 12  1  0
 11 13  2  0
 14 15  1  0
 16 17  1  0
 17 18  2  0
M  END
