
     RDKit          3D

 22 23  0  0  0  0  0  0  0  0999 V2000
    5.9830    1.0090    1.0360 N   0  0  0  0  0  0  0  0  0  0  0  0
    5.4440    0.6080   -0.5710 S   0  0  2  0  0  0  0  0  0  0  0  0
    6.1960   -0.5730   -1.1300 O   0  0  0  0  0  0  0  0  0  0  0  0
    5.6870    1.7730   -1.4630 O   0  0  0  0  0  0  0  0  0  0  0  0
    3.7370    0.1700   -0.5320 C   0  0  0  0  0  0  0  0  0  0  0  0
    3.3130   -1.0890   -0.8830 C   0  0  0  0  0  0  0  0  0  0  0  0
    1.9400   -1.4400   -0.8130 C   0  0  0  0  0  0  0  0  0  0  0  0
    1.0570   -0.5320   -0.4070 C   0  0  0  0  0  0  0  0  0  0  0  0
   -0.4120   -0.7530   -0.2770 C   0  0  0  0  0  0  0  0  0  0  0  0
   -1.0500   -0.5320   -1.3900 O   0  0  0  0  0  0  0  0  0  0  0  0
   -1.0600   -1.1140    0.8320 N   0  0  0  0  0  0  0  0  0  0  0  0
   -2.3940   -1.3680    1.2510 C   0  0  0  0  0  0  0  0  0  0  0  0
   -3.3410   -0.4310    0.5820 C   0  0  0  0  0  0  0  0  0  0  0  0
   -3.6500   -0.5820   -0.8030 C   0  0  0  0  0  0  0  0  0  0  0  0
   -4.5820    0.2610   -1.3020 C   0  0  0  0  0  0  0  0  0  0  0  0
   -5.2560    1.2390   -0.6560 C   0  0  0  0  0  0  0  0  0  0  0  0
   -4.9190    1.3490    0.7050 C   0  0  0  0  0  0  0  0  0  0  0  0
   -5.5350    2.3380    1.3970 F   0  0  0  0  0  0  0  0  0  0  0  0
   -4.0000    0.5540    1.3340 C   0  0  0  0  0  0  0  0  0  0  0  0
   -3.7420    0.6840    2.6830 F   0  0  0  0  0  0  0  0  0  0  0  0
    1.4750    0.7600   -0.0380 C   0  0  0  0  0  0  0  0  0  0  0  0
    2.7910    1.0800   -0.1060 C   0  0  0  0  0  0  0  0  0  0  0  0
  2  1  1  1
  2  3  2  0
  2  4  2  0
  2  5  1  0
  5  6  2  0
  5 22  1  0
  6  7  1  0
  7  8  2  0
  8  9  1  0
  8 21  1  0
  9 10  2  0
  9 11  1  0
 11 12  1  0
 12 13  1  0
 13 14  2  0
 13 19  1  0
 14 15  1  0
 15 16  2  0
 16 17  1  0
 17 18  1  0
 17 19  2  0
 19 20  1  0
 21 22  2  0
M  END
