
     RDKit          3D

 18 19  0  0  0  0  0  0  0  0999 V2000
   -3.2280   -2.1590    1.2040 C   0  0  0  0  0  0  0  0  0  0  0  0
   -3.3590   -0.8720    0.4770 C   0  0  0  0  0  0  0  0  0  0  0  0
   -2.2450   -0.1100    0.1870 C   0  0  0  0  0  0  0  0  0  0  0  0
   -0.9970   -0.6040    0.5990 N   0  0  0  0  0  0  0  0  0  0  0  0
    0.2350    0.1360    0.3900 C   0  0  0  0  0  0  0  0  0  0  0  0
    0.2250    1.4000    0.5710 N   0  0  0  0  0  0  0  0  0  0  0  0
    1.3130    2.2810    0.4180 C   0  0  0  0  0  0  0  0  0  0  0  0
    2.4770    1.7570    0.0480 C   0  0  0  0  0  0  0  0  0  0  0  0
    2.5570    0.3630   -0.1700 N   0  0  0  0  0  0  0  0  0  0  0  0
    3.8310   -0.1820   -0.5750 C   0  0  0  0  0  0  0  0  0  0  0  0
    4.8740   -0.0700    0.2220 C   0  0  0  0  0  0  0  0  0  0  0  0
    6.1390   -0.5880   -0.1360 N   0  0  0  0  0  0  0  0  0  0  0  0
    1.4630   -0.5610   -0.0170 C   0  0  0  0  0  0  0  0  0  0  0  0
   -2.4710    1.0620   -0.4880 C   0  0  0  0  0  0  0  0  0  0  0  0
   -3.7550    1.4480   -0.8530 C   0  0  0  0  0  0  0  0  0  0  0  0
   -4.8120    0.6920   -0.5600 N   0  0  0  0  0  0  0  0  0  0  0  0
   -4.6340   -0.4620    0.1000 C   0  0  0  0  0  0  0  0  0  0  0  0
   -5.6620   -1.1400    0.3530 O   0  0  0  0  0  0  0  0  0  0  0  0
  1  2  1  0
  2  3  2  0
  2 17  1  0
  3  4  1  0
  3 14  1  0
  4  5  1  0
  5  6  2  0
  5 13  1  0
  6  7  1  0
  7  8  2  0
  8  9  1  0
  9 10  1  0
  9 13  1  0
 10 11  2  3
 11 12  1  0
 14 15  2  0
 15 16  1  0
 16 17  1  0
 17 18  2  0
M  END
