
     RDKit          3D

 18 20  0  0  0  0  0  0  0  0999 V2000
   -1.7800    0.6630   -1.7860 N   0  0  0  0  0  0  0  0  0  0  0  0
   -1.1000    0.1890   -0.6240 C   0  0  0  0  0  0  0  0  0  0  0  0
   -1.8270   -0.1640    0.4090 C   0  0  0  0  0  0  0  0  0  0  0  0
   -3.2850   -0.0690    0.3590 C   0  0  0  0  0  0  0  0  0  0  0  0
   -4.0500    0.9240   -0.1780 C   0  0  0  0  0  0  0  0  0  0  0  0
   -5.4010    0.5660    0.0090 C   0  0  0  0  0  0  0  0  0  0  0  0
   -5.4260   -0.6180    0.6470 N   0  0  0  0  0  0  0  0  0  0  0  0
   -4.1640   -1.0120    0.8650 C   0  0  0  0  0  0  0  0  0  0  0  0
    0.3520    0.1370   -0.6390 C   0  0  0  0  0  0  0  0  0  0  0  0
    1.0340    0.4720   -1.7810 C   0  0  0  0  0  0  0  0  0  0  0  0
    2.3750    0.4600   -1.8890 N   0  0  0  0  0  0  0  0  0  0  0  0
    3.0960    0.0930   -0.7970 C   0  0  0  0  0  0  0  0  0  0  0  0
    2.4480   -0.2490    0.3680 C   0  0  0  0  0  0  0  0  0  0  0  0
    1.0830   -0.2280    0.4490 N   0  0  0  0  0  0  0  0  0  0  0  0
    3.2390   -0.6100    1.5060 N   0  0  0  0  0  0  0  0  0  0  0  0
    4.5790   -0.0730    1.5530 C   0  0  0  0  0  0  0  0  0  0  0  0
    5.2960   -0.4070    0.2370 C   0  0  0  0  0  0  0  0  0  0  0  0
    4.4770    0.0520   -0.8180 O   0  0  0  0  0  0  0  0  0  0  0  0
  1  2  1  0
  2  3  2  3
  2  9  1  0
  3  4  1  0
  4  5  1  0
  4  8  2  0
  5  6  2  0
  6  7  1  0
  7  8  1  0
  9 10  2  0
  9 14  1  0
 10 11  1  0
 11 12  2  0
 12 13  1  0
 12 18  1  0
 13 14  2  0
 13 15  1  0
 15 16  1  0
 16 17  1  0
 17 18  1  0
M  END
