
     RDKit          3D

 18 19  0  0  0  0  0  0  0  0999 V2000
   -4.7690   -0.5760    1.3780 C   0  0  0  0  0  0  0  0  0  0  0  0
   -3.7270   -0.2890    0.5990 C   0  0  0  0  0  0  0  0  0  0  0  0
   -2.3610   -0.3240    1.1770 C   0  0  0  0  0  0  0  0  0  0  0  0
   -1.3470    0.0030    0.2320 N   0  0  0  0  0  0  0  0  0  0  0  0
   -1.6510    0.3200   -1.1040 C   0  0  0  0  0  0  0  0  0  0  0  0
   -2.8190    0.3590   -1.6350 N   0  0  0  0  0  0  0  0  0  0  0  0
   -3.9520    0.0500   -0.7980 C   0  0  0  0  0  0  0  0  0  0  0  0
   -5.1690    0.0780   -1.3020 C   0  0  0  0  0  0  0  0  0  0  0  0
   -0.5480    0.6340   -1.9740 N   0  0  0  0  0  0  0  0  0  0  0  0
    0.8110    0.6360   -1.5390 C   0  0  0  0  0  0  0  0  0  0  0  0
    0.9830    0.2830   -0.1040 C   0  0  0  0  0  0  0  0  0  0  0  0
    2.3780    0.2700    0.3970 C   0  0  0  0  0  0  0  0  0  0  0  0
    2.5390   -0.0250    1.6020 O   0  0  0  0  0  0  0  0  0  0  0  0
    3.4790    0.5750   -0.4350 N   0  0  0  0  0  0  0  0  0  0  0  0
    4.8090    0.5470    0.1060 C   0  0  0  0  0  0  0  0  0  0  0  0
    5.1570   -0.8460    0.6460 C   0  0  0  0  0  0  0  0  0  0  0  0
    0.0080   -0.0100    0.7230 C   0  0  0  0  0  0  0  0  0  0  0  0
    0.2840   -0.3360    2.0830 N   0  0  0  0  0  0  0  0  0  0  0  0
  1  2  2  0
  2  3  1  0
  2  7  1  0
  3  4  1  0
  4  5  1  0
  4 17  1  0
  5  6  2  0
  5  9  1  0
  6  7  1  0
  7  8  2  0
  9 10  1  0
 10 11  1  0
 11 12  1  0
 11 17  2  0
 12 13  2  0
 12 14  1  0
 14 15  1  0
 15 16  1  0
 17 18  1  0
M  END
