
     RDKit          3D

 22 23  0  0  0  0  0  0  0  0999 V2000
    4.1760   -1.8590    0.3710 C   0  0  0  0  0  0  0  0  0  0  0  0
    2.7980   -1.3560    0.6660 C   0  0  0  0  0  0  0  0  0  0  0  0
    2.0560   -0.4970   -0.7540 S   0  0  0  0  0  0  0  0  0  0  0  0
    0.4340    0.0420   -0.2630 C   0  0  0  0  0  0  0  0  0  0  0  0
   -0.6340   -0.8320   -0.4740 C   0  0  0  0  0  0  0  0  0  0  0  0
   -0.3350   -2.0840   -1.0710 C   0  0  0  0  0  0  0  0  0  0  0  0
   -0.8420   -3.3690   -0.9100 N   0  0  0  0  0  0  0  0  0  0  0  0
    0.6390   -2.0130   -1.9610 O   0  0  0  0  0  0  0  0  0  0  0  0
   -1.8860   -0.4180   -0.0960 C   0  0  0  0  0  0  0  0  0  0  0  0
   -3.0140   -1.1800   -0.2800 C   0  0  0  0  0  0  0  0  0  0  0  0
   -2.9580   -2.3650   -0.8670 F   0  0  0  0  0  0  0  0  0  0  0  0
   -4.2850   -0.7150    0.1020 C   0  0  0  0  0  0  0  0  0  0  0  0
   -5.3970   -1.4690   -0.0790 F   0  0  0  0  0  0  0  0  0  0  0  0
   -4.3920    0.5320    0.6700 C   0  0  0  0  0  0  0  0  0  0  0  0
   -3.2550    1.2890    0.8470 C   0  0  0  0  0  0  0  0  0  0  0  0
   -1.9940    0.8570    0.4800 C   0  0  0  0  0  0  0  0  0  0  0  0
   -0.8890    1.6680    0.6610 C   0  0  0  0  0  0  0  0  0  0  0  0
   -1.0230    2.8060    1.1820 O   0  0  0  0  0  0  0  0  0  0  0  0
    0.3230    1.2530    0.2860 N   0  0  0  0  0  0  0  0  0  0  0  0
    1.5050    2.0710    0.4540 C   0  0  0  0  0  0  0  0  0  0  0  0
    1.6400    2.8960   -0.8320 C   0  0  0  0  0  0  0  0  0  0  0  0
    0.5020    3.6700   -0.9770 O   0  0  0  0  0  0  0  0  0  0  0  0
  1  2  1  0
  2  3  1  0
  3  4  1  0
  4  5  2  0
  4 19  1  0
  5  6  1  0
  5  9  1  0
  6  7  1  0
  6  8  2  0
  9 10  2  0
  9 16  1  0
 10 11  1  0
 10 12  1  0
 12 13  1  0
 12 14  2  0
 14 15  1  0
 15 16  2  0
 16 17  1  0
 17 18  2  0
 17 19  1  0
 19 20  1  0
 20 21  1  0
 21 22  1  0
M  END
