
     RDKit          3D

 22 23  0  0  0  0  0  0  0  0999 V2000
    4.2500    2.2720    1.8480 C   0  0  0  0  0  0  0  0  0  0  0  0
    3.8860    0.8710    1.7680 N   0  0  0  0  0  0  0  0  0  0  0  0
    3.0390    0.3590    0.7580 C   0  0  0  0  0  0  0  0  0  0  0  0
    2.6060    1.1790   -0.0820 O   0  0  0  0  0  0  0  0  0  0  0  0
    2.6690   -1.0910    0.6830 C   0  0  0  0  0  0  0  0  0  0  0  0
    1.9060   -1.6010   -0.2110 C   0  0  0  0  0  0  0  0  0  0  0  0
    1.3170   -0.7750   -1.2660 N   0  0  0  0  0  0  0  0  0  0  0  0
    0.0190   -0.2330   -1.0800 C   0  0  0  0  0  0  0  0  0  0  0  0
   -0.6530   -0.5010    0.0930 C   0  0  0  0  0  0  0  0  0  0  0  0
   -1.9220   -0.0100    0.3490 C   0  0  0  0  0  0  0  0  0  0  0  0
   -2.5290    0.7750   -0.6100 C   0  0  0  0  0  0  0  0  0  0  0  0
   -3.7450    1.3040   -0.4900 O   0  0  0  0  0  0  0  0  0  0  0  0
   -4.7850    1.3270    0.3830 C   0  0  0  0  0  0  0  0  0  0  0  0
   -5.5150    0.0570    0.6720 C   0  0  1  0  0  0  0  0  0  0  0  0
   -6.0630   -0.4650   -0.4990 F   0  0  0  0  0  0  0  0  0  0  0  0
   -4.8260   -0.9300    1.3010 F   0  0  0  0  0  0  0  0  0  0  0  0
   -1.8450    1.0550   -1.8170 C   0  0  0  0  0  0  0  0  0  0  0  0
   -2.4610    1.8480   -2.7820 O   0  0  0  0  0  0  0  0  0  0  0  0
   -0.5950    0.5510   -2.0290 C   0  0  0  0  0  0  0  0  0  0  0  0
    1.6250   -3.0470   -0.1680 C   0  0  0  0  0  0  0  0  0  0  0  0
    3.0400   -3.6000    0.8700 S   0  0  0  0  0  0  0  0  0  0  0  0
    3.2240   -2.0040    1.7210 C   0  0  0  0  0  0  0  0  0  0  0  0
  1  2  1  0
  2  3  1  0
  3  4  2  0
  3  5  1  0
  5  6  2  0
  5 22  1  0
  6  7  1  0
  6 20  1  0
  7  8  1  0
  8  9  2  0
  8 19  1  0
  9 10  1  0
 10 11  2  0
 11 12  1  0
 11 17  1  0
 12 13  1  0
 13 14  1  0
 14 15  1  6
 14 16  1  0
 17 18  1  0
 17 19  2  0
 20 21  1  0
 21 22  1  0
M  END
