
     RDKit          3D

 22 23  0  0  0  0  0  0  0  0999 V2000
   -2.2600   -2.2650    2.0140 C   0  0  0  0  0  0  0  0  0  0  0  0
   -2.9540   -1.3040    1.1360 C   0  0  0  0  0  0  0  0  0  0  0  0
   -4.6720   -0.8230    1.2450 S   0  0  0  0  0  0  0  0  0  0  0  0
   -4.6340    0.2920   -0.1110 C   0  0  0  0  0  0  0  0  0  0  0  0
   -5.8160    1.0640   -0.5660 C   0  0  1  0  0  0  0  0  0  0  0  0
   -6.8420    0.2210   -0.9600 F   0  0  0  0  0  0  0  0  0  0  0  0
   -6.2530    1.8230    0.4950 F   0  0  0  0  0  0  0  0  0  0  0  0
   -3.3660    0.2380   -0.5540 C   0  0  0  0  0  0  0  0  0  0  0  0
   -2.9650    1.0570   -1.6980 N   0  0  0  0  0  0  0  0  0  0  0  0
   -2.4890   -0.5750    0.0730 C   0  0  0  0  0  0  0  0  0  0  0  0
   -1.0760   -0.7450   -0.2880 N   0  0  0  0  0  0  0  0  0  0  0  0
   -0.0650    0.0720    0.2810 C   0  0  0  0  0  0  0  0  0  0  0  0
   -0.4550    0.9390    1.1040 O   0  0  0  0  0  0  0  0  0  0  0  0
    1.3410   -0.0600   -0.0450 C   0  0  0  0  0  0  0  0  0  0  0  0
    2.2040    0.7470    0.5380 C   0  0  0  0  0  0  0  0  0  0  0  0
    3.6360    0.6660    0.2540 C   0  0  0  0  0  0  0  0  0  0  0  0
    4.6370    1.4390    0.7860 C   0  0  0  0  0  0  0  0  0  0  0  0
    5.8070    0.9900    0.2160 C   0  0  0  0  0  0  0  0  0  0  0  0
    5.4760   -0.0550   -0.6560 C   0  0  0  0  0  0  0  0  0  0  0  0
    6.4160   -0.8110   -1.4630 C   0  0  0  0  0  0  0  0  0  0  0  0
    6.0030   -1.7230   -2.2040 O   0  0  0  0  0  0  0  0  0  0  0  0
    4.1750   -0.1820   -0.5740 O   0  0  0  0  0  0  0  0  0  0  0  0
  1  2  1  0
  2  3  1  0
  2 10  2  0
  3  4  1  0
  4  5  1  0
  4  8  2  0
  5  6  1  1
  5  7  1  0
  8  9  1  0
  8 10  1  0
 10 11  1  0
 11 12  1  0
 12 13  2  0
 12 14  1  0
 14 15  2  3
 15 16  1  0
 16 17  2  0
 16 22  1  0
 17 18  1  0
 18 19  2  0
 19 20  1  0
 19 22  1  0
 20 21  2  0
M  END
