
     RDKit          3D

 19 21  0  0  0  0  0  0  0  0999 V2000
   -4.6530    2.2290    0.5760 C   0  0  0  0  0  0  0  0  0  0  0  0
   -3.3070    1.5990    0.3170 C   0  0  0  0  0  0  0  0  0  0  0  0
   -3.1460    0.3100    0.4610 C   0  0  0  0  0  0  0  0  0  0  0  0
   -4.2850   -0.4030    0.8600 O   0  0  0  0  0  0  0  0  0  0  0  0
   -4.2970   -1.7620    1.0590 C   0  0  0  0  0  0  0  0  0  0  0  0
   -3.1950   -2.4230    0.8670 C   0  0  0  0  0  0  0  0  0  0  0  0
   -1.9540   -1.7500    0.4470 C   0  0  0  0  0  0  0  0  0  0  0  0
   -1.9270   -0.4410    0.2520 C   0  0  0  0  0  0  0  0  0  0  0  0
   -0.7020    0.2250   -0.1630 C   0  0  0  0  0  0  0  0  0  0  0  0
   -0.6890    1.4910   -0.3480 O   0  0  0  0  0  0  0  0  0  0  0  0
    0.5200   -0.4740   -0.3800 N   0  0  0  0  0  0  0  0  0  0  0  0
    1.6610    0.3240   -0.7910 C   0  0  2  0  0  0  0  0  0  0  0  0
    2.1780   -0.1570   -2.1320 C   0  0  0  0  0  0  0  0  0  0  0  0
    3.5880    0.4490   -2.1060 C   0  0  0  0  0  0  0  0  0  0  0  0
    3.9710    0.1790   -0.6940 C   0  0  0  0  0  0  0  0  0  0  0  0
    5.0230   -0.0220    0.1200 N   0  0  0  0  0  0  0  0  0  0  0  0
    4.5900   -0.2210    1.3840 C   0  0  0  0  0  0  0  0  0  0  0  0
    3.2490   -0.1400    1.3420 N   0  0  0  0  0  0  0  0  0  0  0  0
    2.8360    0.1040    0.0860 C   0  0  0  0  0  0  0  0  0  0  0  0
  1  2  1  0
  2  3  2  3
  3  4  1  0
  3  8  1  0
  4  5  1  0
  5  6  2  0
  6  7  1  0
  7  8  2  0
  8  9  1  0
  9 10  2  0
  9 11  1  0
 12 11  1  1
 12 13  1  0
 12 19  1  0
 13 14  1  0
 14 15  1  0
 15 16  1  0
 15 19  2  0
 16 17  1  0
 17 18  2  0
 18 19  1  0
M  CHG  1  18   1
M  END
