
     RDKit          3D

 18 19  0  0  0  0  0  0  0  0999 V2000
    0.8970   -2.9630   -0.3390 N   0  0  0  0  0  0  0  0  0  0  0  0
   -0.2610   -2.1910   -0.5290 C   0  0  0  0  0  0  0  0  0  0  0  0
   -1.2580   -2.6930   -1.0660 O   0  0  0  0  0  0  0  0  0  0  0  0
   -0.2970   -0.7580   -0.0850 C   0  0  0  0  0  0  0  0  0  0  0  0
    0.8250   -0.2470    0.5030 C   0  0  0  0  0  0  0  0  0  0  0  0
    2.4290   -0.9460    0.8890 S   0  0  0  0  0  0  0  0  0  0  0  0
    3.5820   -0.7210   -0.5020 C   0  0  0  0  0  0  0  0  0  0  0  0
    3.8540    0.7420   -0.6720 C   0  0  0  0  0  0  0  0  0  0  0  0
    4.4170    1.2210    0.5100 O   0  0  0  0  0  0  0  0  0  0  0  0
    0.3570    1.4830    0.8760 S   0  0  0  0  0  0  0  0  0  0  0  0
   -1.2760    1.3340    0.2100 C   0  0  0  0  0  0  0  0  0  0  0  0
   -1.3670    0.0370   -0.2380 C   0  0  0  0  0  0  0  0  0  0  0  0
   -2.5610   -0.4150   -0.8330 O   0  0  0  0  0  0  0  0  0  0  0  0
   -3.8700    0.0320   -0.8560 C   0  0  0  0  0  0  0  0  0  0  0  0
   -4.2470    1.0640    0.0920 C   0  0  0  0  0  0  0  0  0  0  0  0
   -5.4670    1.0600    0.4090 O   0  0  0  0  0  0  0  0  0  0  0  0
   -3.4810    2.0720    0.7220 O   0  0  0  0  0  0  0  0  0  0  0  0
   -2.2200    2.4660    0.2110 C   0  0  0  0  0  0  0  0  0  0  0  0
  1  2  1  0
  2  3  2  0
  2  4  1  0
  4  5  2  0
  4 12  1  0
  5  6  1  0
  5 10  1  0
  6  7  1  0
  7  8  1  0
  8  9  1  0
 10 11  1  0
 11 12  2  0
 11 18  1  0
 12 13  1  0
 13 14  1  0
 14 15  1  0
 15 16  2  0
 15 17  1  0
 17 18  1  0
M  END
