
     RDKit          3D

 18 18  0  0  0  0  0  0  0  0999 V2000
   -2.1990   -2.7750   -0.0630 C   0  0  0  0  0  0  0  0  0  0  0  0
   -1.0790   -1.7320   -0.0550 C   0  0  0  0  0  0  0  0  0  0  0  0
   -1.3800   -0.4860    0.1800 C   0  0  0  0  0  0  0  0  0  0  0  0
   -2.7670   -0.2800    0.4020 O   0  0  0  0  0  0  0  0  0  0  0  0
   -0.4850    0.6130    0.2270 C   0  0  0  0  0  0  0  0  0  0  0  0
    0.9370    0.6070    0.0280 C   0  0  0  0  0  0  0  0  0  0  0  0
    1.9450   -0.1150   -0.2270 C   0  0  0  0  0  0  0  0  0  0  0  0
    2.2340   -1.8820   -0.5460 S   0  0  0  0  0  0  0  0  0  0  0  0
    3.8230   -1.8790    0.3560 C   0  0  0  0  0  0  0  0  0  0  0  0
    4.3110   -2.7560    1.0740 O   0  0  0  0  0  0  0  0  0  0  0  0
    4.3260   -0.5960   -0.0040 N   0  0  0  0  0  0  0  0  0  0  0  0
    3.3760    0.3560   -0.3200 C   0  0  0  0  0  0  0  0  0  0  0  0
    3.7550    1.8900   -0.7780 S   0  0  0  0  0  0  0  0  0  0  0  0
   -1.0200    1.8430    0.4950 C   0  0  0  0  0  0  0  0  0  0  0  0
    0.0070    2.8630    0.5110 O   0  0  0  0  0  0  0  0  0  0  0  0
   -2.2990    2.2910    0.7450 C   0  0  0  0  0  0  0  0  0  0  0  0
   -3.3820    1.7070    0.8070 O   0  0  0  0  0  0  0  0  0  0  0  0
   -2.4720    3.7100    0.9910 O   0  0  0  0  0  0  0  0  0  0  0  0
  1  2  1  0
  2  3  2  3
  3  4  1  0
  3  5  1  0
  5  6  1  0
  5 14  2  3
  6  7  2  3
  7  8  1  0
  7 12  1  0
  8  9  1  0
  9 10  2  0
  9 11  1  0
 11 12  1  0
 12 13  2  0
 14 15  1  0
 14 16  1  0
 16 17  2  0
 16 18  1  0
M  END
