
     RDKit          3D

 25 26  0  0  0  0  0  0  0  0999 V2000
   -6.3490    1.4700    0.8460 N   0  0  0  0  0  0  0  0  0  0  0  0
   -5.8080    0.4530   -0.4510 S   0  0  2  0  0  0  0  0  0  0  0  0
   -5.9300    1.2160   -1.7330 O   0  0  0  0  0  0  0  0  0  0  0  0
   -6.6000   -0.8210   -0.5080 O   0  0  0  0  0  0  0  0  0  0  0  0
   -4.1250    0.0260   -0.1660 C   0  0  0  0  0  0  0  0  0  0  0  0
   -3.7900   -1.0980    0.5520 C   0  0  0  0  0  0  0  0  0  0  0  0
   -2.4700   -1.4150    0.7640 C   0  0  0  0  0  0  0  0  0  0  0  0
   -1.4110   -0.6380    0.2790 C   0  0  0  0  0  0  0  0  0  0  0  0
   -0.0650   -1.0880    0.5760 C   0  0  0  0  0  0  0  0  0  0  0  0
    0.1180   -2.1370    1.2450 O   0  0  0  0  0  0  0  0  0  0  0  0
    1.1030   -0.3530    0.1190 N   0  0  0  0  0  0  0  0  0  0  0  0
    2.3490   -0.9140    0.4860 C   0  0  0  0  0  0  0  0  0  0  0  0
    3.5720   -0.2650    0.0840 C   0  0  0  0  0  0  0  0  0  0  0  0
    4.7690   -0.8800    0.4840 C   0  0  0  0  0  0  0  0  0  0  0  0
    4.7020   -2.0260    1.2130 F   0  0  0  0  0  0  0  0  0  0  0  0
    5.9990   -0.3930    0.1850 C   0  0  0  0  0  0  0  0  0  0  0  0
    7.1090   -1.0430    0.6070 F   0  0  0  0  0  0  0  0  0  0  0  0
    6.1130    0.7540   -0.5440 C   0  0  0  0  0  0  0  0  0  0  0  0
    7.3670    1.2040   -0.8200 F   0  0  0  0  0  0  0  0  0  0  0  0
    4.9770    1.4040   -0.9660 C   0  0  0  0  0  0  0  0  0  0  0  0
    5.1220    2.5390   -1.6870 F   0  0  0  0  0  0  0  0  0  0  0  0
    3.7110    0.8830   -0.6450 C   0  0  0  0  0  0  0  0  0  0  0  0
    2.6230    1.5680   -1.0900 F   0  0  0  0  0  0  0  0  0  0  0  0
   -1.7560    0.4680   -0.4270 C   0  0  0  0  0  0  0  0  0  0  0  0
   -3.0920    0.7940   -0.6460 C   0  0  0  0  0  0  0  0  0  0  0  0
  2  1  1  1
  2  3  2  0
  2  4  2  0
  2  5  1  0
  5  6  2  0
  5 25  1  0
  6  7  1  0
  7  8  2  0
  8  9  1  0
  8 24  1  0
  9 10  2  0
  9 11  1  0
 11 12  1  0
 12 13  1  0
 13 14  2  0
 13 22  1  0
 14 15  1  0
 14 16  1  0
 16 17  1  0
 16 18  2  0
 18 19  1  0
 18 20  1  0
 20 21  1  0
 20 22  2  0
 22 23  1  0
 24 25  2  0
M  END
