
     RDKit          3D

 20 20  0  0  0  0  0  0  0  0999 V2000
    2.6290    4.8320   -1.9370 C   0  0  0  0  0  0  0  0  0  0  0  0
    2.4300    3.4000   -1.8030 C   0  0  0  0  0  0  0  0  0  0  0  0
    1.3960    2.8440   -1.0930 C   0  0  0  0  0  0  0  0  0  0  0  0
    0.5190    3.7930   -0.4890 C   0  0  0  0  0  0  0  0  0  0  0  0
    0.6890    5.0610   -0.6010 O   0  0  0  0  0  0  0  0  0  0  0  0
    1.3320    1.4040   -1.0570 C   0  0  0  0  0  0  0  0  0  0  0  0
    0.5940    0.5020   -0.5510 C   0  0  0  0  0  0  0  0  0  0  0  0
   -0.5940    0.6160    0.2740 C   0  0  0  0  0  0  0  0  0  0  0  0
   -1.8350    0.0250   -0.3800 C   0  0  2  0  0  0  0  0  0  0  0  0
   -2.9830    0.2120    0.5780 C   0  0  0  0  0  0  0  0  0  0  0  0
   -2.9990   -0.7650    1.6980 C   0  0  0  0  0  0  0  0  0  0  0  0
   -3.3420   -2.1710    1.3190 C   0  0  0  0  0  0  0  0  0  0  0  0
   -3.9690   -2.3000   -0.0270 C   0  0  0  0  0  0  0  0  0  0  0  0
   -3.0570   -1.9470   -1.1500 C   0  0  0  0  0  0  0  0  0  0  0  0
   -1.7060   -1.4180   -0.7140 C   0  0  0  0  0  0  0  0  0  0  0  0
    1.0150   -0.8540   -0.8520 O   0  0  0  0  0  0  0  0  0  0  0  0
    2.3190   -1.2590   -0.5630 C   0  0  0  0  0  0  0  0  0  0  0  0
    2.6560   -1.1450    0.9220 C   0  0  1  0  0  0  0  0  0  0  0  0
    1.7460   -1.9930    1.7460 C   0  0  0  0  0  0  0  0  0  0  0  0
    4.0910   -1.5780    1.1210 C   0  0  0  0  0  0  0  0  0  0  0  0
  1  2  1  0
  2  3  2  3
  3  4  1  0
  3  6  1  0
  4  5  2  0
  6  7  2  3
  7  8  1  0
  7 16  1  0
  9  8  1  1
  9 10  1  0
  9 15  1  0
 10 11  1  0
 11 12  1  0
 12 13  1  0
 13 14  1  0
 14 15  1  0
 16 17  1  0
 17 18  1  0
 18 19  1  1
 18 20  1  0
M  END
