
     RDKit          3D

 20 20  0  0  0  0  0  0  0  0999 V2000
   -3.7390    3.0090    1.8570 C   0  0  0  0  0  0  0  0  0  0  0  0
   -3.3200    1.5370    1.7380 C   0  0  0  0  0  0  0  0  0  0  0  0
   -2.3940    1.4320    0.5630 C   0  0  0  0  0  0  0  0  0  0  0  0
   -1.9050    0.0510    0.2550 C   0  0  1  0  0  0  0  0  0  0  0  0
   -2.8510   -1.0200   -0.0590 C   0  0  0  0  0  0  0  0  0  0  0  0
   -2.1300   -2.3380   -0.2080 C   0  0  0  0  0  0  0  0  0  0  0  0
   -3.1410   -3.4280   -0.5610 C   0  0  0  0  0  0  0  0  0  0  0  0
   -0.5780    0.0510   -0.3990 C   0  0  0  0  0  0  0  0  0  0  0  0
    0.6030    0.2440    0.3250 C   0  0  0  0  0  0  0  0  0  0  0  0
    1.8710    0.0650   -0.1700 C   0  0  0  0  0  0  0  0  0  0  0  0
    3.0970    0.3090    0.6220 C   0  0  2  0  0  0  0  0  0  0  0  0
    2.7350    1.2900    1.7700 C   0  0  0  0  0  0  0  0  0  0  0  0
    2.1700    2.4120    1.2230 O   0  0  0  0  0  0  0  0  0  0  0  0
    4.0260    0.8990   -0.1940 O   0  0  0  0  0  0  0  0  0  0  0  0
    5.3010    0.4270   -0.1260 C   0  0  0  0  0  0  0  0  0  0  0  0
    5.5160   -1.0140   -0.3850 C   0  0  0  0  0  0  0  0  0  0  0  0
    1.9740   -0.3430   -1.4970 C   0  0  0  0  0  0  0  0  0  0  0  0
    0.8270   -0.5390   -2.2350 C   0  0  0  0  0  0  0  0  0  0  0  0
   -0.4340   -0.3510   -1.7220 C   0  0  0  0  0  0  0  0  0  0  0  0
   -1.5960   -0.3920   -2.6320 C   0  0  0  0  0  0  0  0  0  0  0  0
  1  2  1  0
  2  3  1  0
  4  3  1  6
  4  5  1  0
  4  8  1  0
  5  6  1  0
  6  7  1  0
  8  9  2  0
  8 19  1  0
  9 10  1  0
 10 11  1  0
 10 17  2  0
 11 12  1  1
 11 14  1  0
 12 13  1  0
 14 15  1  0
 15 16  1  0
 17 18  1  0
 18 19  2  0
 19 20  1  0
M  END
