
     RDKit          3D

 20 20  0  0  0  0  0  0  0  0999 V2000
    6.2030   -0.0490    0.4990 C   0  0  0  0  0  0  0  0  0  0  0  0
    5.4560   -0.9810   -0.3940 C   0  0  0  0  0  0  0  0  0  0  0  0
    4.0440   -0.5370   -0.6840 C   0  0  0  0  0  0  0  0  0  0  0  0
    3.2120   -0.4130    0.5660 C   0  0  0  0  0  0  0  0  0  0  0  0
    1.8400    0.0260    0.2000 C   0  0  0  0  0  0  0  0  0  0  0  0
    1.5110    1.3610    0.1310 C   0  0  0  0  0  0  0  0  0  0  0  0
    0.2550    1.8190   -0.2000 C   0  0  0  0  0  0  0  0  0  0  0  0
   -0.0170    3.2910   -0.2720 C   0  0  0  0  0  0  0  0  0  0  0  0
   -0.7230    0.8550   -0.4770 C   0  0  0  0  0  0  0  0  0  0  0  0
   -2.0460    1.3490   -0.8610 C   0  0  0  0  0  0  0  0  0  0  0  0
   -2.8650    1.9730    0.2160 C   0  0  0  0  0  0  0  0  0  0  0  0
   -4.2240    2.3930   -0.3770 C   0  0  0  0  0  0  0  0  0  0  0  0
   -5.0050    2.9810    0.6150 O   0  0  0  0  0  0  0  0  0  0  0  0
   -0.4530   -0.4870   -0.4250 C   0  0  0  0  0  0  0  0  0  0  0  0
   -1.3610   -1.6040   -0.7040 C   0  0  0  0  0  0  0  0  0  0  0  0
   -2.2840   -2.0640    0.3460 C   0  0  1  0  0  0  0  0  0  0  0  0
   -3.0630   -3.2520   -0.2790 C   0  0  0  0  0  0  0  0  0  0  0  0
   -1.6120   -2.5850    1.5900 C   0  0  0  0  0  0  0  0  0  0  0  0
   -3.2550   -1.1720    0.7450 O   0  0  0  0  0  0  0  0  0  0  0  0
    0.8530   -0.8890   -0.0800 C   0  0  0  0  0  0  0  0  0  0  0  0
  1  2  1  0
  2  3  1  0
  3  4  1  0
  4  5  1  0
  5  6  2  0
  5 20  1  0
  6  7  1  0
  7  8  1  0
  7  9  2  0
  9 10  1  0
  9 14  1  0
 10 11  1  0
 11 12  1  0
 12 13  1  0
 14 15  1  0
 14 20  2  0
 15 16  1  0
 16 17  1  6
 16 18  1  0
 16 19  1  0
M  END
