
     RDKit          3D

 20 21  0  0  0  0  0  0  0  0999 V2000
    3.7860    1.8490    1.5420 C   0  0  0  0  0  0  0  0  0  0  0  0
    4.7550    0.9990    1.3280 C   0  0  0  0  0  0  0  0  0  0  0  0
    4.6930   -0.1480    0.4370 C   0  0  0  0  0  0  0  0  0  0  0  0
    3.4340   -0.2430   -0.3860 C   0  0  0  0  0  0  0  0  0  0  0  0
    2.5100   -1.1800   -0.2540 C   0  0  0  0  0  0  0  0  0  0  0  0
    2.5530   -2.3110    0.7410 C   0  0  0  0  0  0  0  0  0  0  0  0
    1.4630   -0.9340   -1.2290 C   0  0  0  0  0  0  0  0  0  0  0  0
    0.3070   -1.6770   -1.4290 O   0  0  0  0  0  0  0  0  0  0  0  0
   -0.8370   -1.5450   -0.6020 C   0  0  0  0  0  0  0  0  0  0  0  0
   -1.3000   -0.1200   -0.7020 C   0  0  0  0  0  0  0  0  0  0  0  0
   -2.5150    0.1830    0.1250 C   0  0  1  0  0  0  0  0  0  0  0  0
   -2.8290    1.6610   -0.1040 C   0  0  0  0  0  0  0  0  0  0  0  0
   -3.9290    2.0820    0.5980 O   0  0  0  0  0  0  0  0  0  0  0  0
   -3.6910   -0.6810   -0.1840 C   0  0  0  0  0  0  0  0  0  0  0  0
   -4.6090   -0.4750    1.0160 C   0  0  0  0  0  0  0  0  0  0  0  0
   -3.7050   -0.1140    2.1510 C   0  0  0  0  0  0  0  0  0  0  0  0
   -2.3020   -0.0030    1.5930 C   0  0  0  0  0  0  0  0  0  0  0  0
    1.7400    0.1290   -1.9470 C   0  0  0  0  0  0  0  0  0  0  0  0
    0.9240    0.7320   -3.0610 C   0  0  0  0  0  0  0  0  0  0  0  0
    3.0350    0.6550   -1.4930 C   0  0  0  0  0  0  0  0  0  0  0  0
  1  2  2  0
  2  3  1  0
  3  4  1  0
  4  5  2  0
  4 20  1  0
  5  6  1  0
  5  7  1  0
  7  8  1  0
  7 18  2  0
  8  9  1  0
  9 10  1  0
 11 10  1  6
 11 12  1  0
 11 14  1  0
 11 17  1  0
 12 13  1  0
 14 15  1  0
 15 16  1  0
 16 17  1  0
 18 19  1  0
 18 20  1  0
M  END
