
     RDKit          3D

 20 19  0  0  0  0  0  0  0  0999 V2000
    1.2360    2.8370   -0.1770 C   0  0  0  0  0  0  0  0  0  0  0  0
   -0.0520    2.1830   -0.0210 C   0  0  0  0  0  0  0  0  0  0  0  0
   -0.1930    0.8630    0.1850 C   0  0  0  0  0  0  0  0  0  0  0  0
    1.0370    0.1100    0.2510 C   0  0  0  0  0  0  0  0  0  0  0  0
    1.2010   -1.1160    0.3890 O   0  0  0  0  0  0  0  0  0  0  0  0
    2.2940    0.7620    0.1580 O   0  0  0  0  0  0  0  0  0  0  0  0
    3.5110    0.0500    0.2190 C   0  0  0  0  0  0  0  0  0  0  0  0
    4.6570    1.0250    0.1040 C   0  0  2  0  0  0  0  0  0  0  0  0
    4.5860    1.7760   -1.2040 C   0  0  0  0  0  0  0  0  0  0  0  0
    5.9910    0.3110    0.2550 C   0  0  0  0  0  0  0  0  0  0  0  0
   -1.5340    0.3600    0.1620 C   0  0  0  0  0  0  0  0  0  0  0  0
   -1.9660   -0.8300    0.4380 C   0  0  0  0  0  0  0  0  0  0  0  0
   -1.3420   -2.0700    0.8730 C   0  0  0  0  0  0  0  0  0  0  0  0
   -2.3690   -2.8440    1.7650 C   0  0  2  0  0  0  0  0  0  0  0  0
   -2.6930   -1.9660    2.9260 C   0  0  0  0  0  0  0  0  0  0  0  0
   -1.8210   -4.1850    2.1250 C   0  0  0  0  0  0  0  0  0  0  0  0
   -2.6550    1.3220   -0.2830 C   0  0  0  0  0  0  0  0  0  0  0  0
   -2.4990    1.7550   -1.6910 C   0  0  0  0  0  0  0  0  0  0  0  0
   -2.5350    0.5720   -2.6600 C   0  0  0  0  0  0  0  0  0  0  0  0
   -3.8190   -0.1880   -2.5880 C   0  0  0  0  0  0  0  0  0  0  0  0
  1  2  1  0
  2  3  2  3
  3  4  1  0
  3 11  1  0
  4  5  2  0
  4  6  1  0
  6  7  1  0
  7  8  1  0
  8  9  1  6
  8 10  1  0
 11 12  2  3
 11 17  1  0
 12 13  1  0
 13 14  1  0
 14 15  1  1
 14 16  1  0
 17 18  1  0
 18 19  1  0
 19 20  1  0
M  END
