
     RDKit          3D

 20 19  0  0  0  0  0  0  0  0999 V2000
   -7.7230   -0.7980   -1.9410 C   0  0  0  0  0  0  0  0  0  0  0  0
   -6.7930   -0.1420   -0.8920 C   0  0  0  0  0  0  0  0  0  0  0  0
   -6.1010   -1.2170   -0.1190 C   0  0  0  0  0  0  0  0  0  0  0  0
   -5.1780   -0.8240    0.9550 C   0  0  0  0  0  0  0  0  0  0  0  0
   -3.9300   -0.1030    0.7060 C   0  0  0  0  0  0  0  0  0  0  0  0
   -3.9330    1.2210    0.0490 C   0  0  0  0  0  0  0  0  0  0  0  0
   -2.5400    1.8340    0.0210 C   0  0  0  0  0  0  0  0  0  0  0  0
   -1.5870    0.9760   -0.7530 C   0  0  0  0  0  0  0  0  0  0  0  0
   -0.2690    1.6530   -0.7040 C   0  0  0  0  0  0  0  0  0  0  0  0
    0.7780    1.0890   -0.1730 C   0  0  0  0  0  0  0  0  0  0  0  0
    0.8630   -0.2350    0.4410 C   0  0  0  0  0  0  0  0  0  0  0  0
    1.8770   -1.0600   -0.3090 C   0  0  0  0  0  0  0  0  0  0  0  0
    3.2180   -0.3980   -0.2490 C   0  0  0  0  0  0  0  0  0  0  0  0
    3.7820   -0.2160    1.1180 C   0  0  0  0  0  0  0  0  0  0  0  0
    5.1040    0.4950    1.0320 C   0  0  0  0  0  0  0  0  0  0  0  0
    6.0590   -0.3000    0.2000 C   0  0  0  0  0  0  0  0  0  0  0  0
    7.4280    0.3740    0.1390 C   0  0  0  0  0  0  0  0  0  0  0  0
    8.2940   -0.4690   -0.7090 C   0  0  0  0  0  0  0  0  0  0  0  0
    7.8970   -0.8310   -1.8370 O   0  0  0  0  0  0  0  0  0  0  0  0
    9.5520   -0.8790   -0.2790 O   0  0  0  0  0  0  0  0  0  0  0  0
  1  2  1  0
  2  3  1  0
  3  4  1  0
  4  5  1  0
  5  6  1  0
  6  7  1  0
  7  8  1  0
  8  9  1  0
  9 10  2  3
 10 11  1  0
 11 12  1  0
 12 13  1  0
 13 14  1  0
 14 15  1  0
 15 16  1  0
 16 17  1  0
 17 18  1  0
 18 19  2  0
 18 20  1  0
M  END
