
     RDKit          3D

 39 44  0  0  0  0  0  0  0  0999 V2000
   11.0060    1.1110   -0.8360 C   0  0  0  0  0  0  0  0  0  0  0  0
   10.4540    1.8820    0.3280 C   0  0  0  0  0  0  0  0  0  0  0  0
    9.0130    1.7850    0.4130 N   0  0  1  0  0  0  0  0  0  0  0  0
    8.3870    1.6920   -0.8440 C   0  0  0  0  0  0  0  0  0  0  0  0
    7.2500    0.9820   -0.7660 C   0  0  0  0  0  0  0  0  0  0  0  0
    6.3640    0.6970   -1.8800 C   0  0  0  0  0  0  0  0  0  0  0  0
    5.2960    0.0400   -1.8460 N   0  0  0  0  0  0  0  0  0  0  0  0
    4.6250   -0.5960   -0.8500 N   0  0  0  0  0  0  0  0  0  0  0  0
    3.6750   -0.0060    0.0770 C   0  0  0  0  0  0  0  0  0  0  0  0
    3.2990   -1.0880    1.0460 C   0  0  1  0  0  0  0  0  0  0  0  0
    1.9150   -1.1850    1.3590 N   0  0  0  0  0  0  0  0  0  0  0  0
    0.8460   -1.4150    0.4620 C   0  0  0  0  0  0  0  0  0  0  0  0
    1.0380   -1.5710   -0.8910 C   0  0  0  0  0  0  0  0  0  0  0  0
   -0.0510   -1.7910   -1.6570 N   0  0  0  0  0  0  0  0  0  0  0  0
   -0.1080   -1.9650   -2.9770 N   0  0  0  0  0  0  0  0  0  0  0  0
   -1.3930   -2.1510   -3.3470 C   0  0  0  0  0  0  0  0  0  0  0  0
   -2.1690   -2.0890   -2.2060 C   0  0  0  0  0  0  0  0  0  0  0  0
   -1.2980   -1.8610   -1.1480 C   0  0  0  0  0  0  0  0  0  0  0  0
   -1.5080   -1.7070    0.2100 C   0  0  0  0  0  0  0  0  0  0  0  0
   -2.8080   -1.7900    0.7960 N   0  0  0  0  0  0  0  0  0  0  0  0
   -3.5080   -3.0550    0.7730 C   0  0  0  0  0  0  0  0  0  0  0  0
   -3.4340   -0.6110    1.4120 C   0  0  0  0  0  0  0  0  0  0  0  0
   -4.6020   -0.2370    0.5250 C   0  0  0  0  0  0  0  0  0  0  0  0
   -5.3210    0.9090    1.0030 N   0  0  2  0  0  0  0  0  0  0  0  0
   -6.0710    0.6370    2.2130 C   0  0  0  0  0  0  0  0  0  0  0  0
   -6.3850    1.9500    2.8750 C   0  0  0  0  0  0  0  0  0  0  0  0
   -6.2710    3.1280    1.9470 C   0  0  0  0  0  0  0  0  0  0  0  0
   -6.7140    2.8190    0.5480 C   0  0  0  0  0  0  0  0  0  0  0  0
   -6.1310    1.5320    0.0050 C   0  0  2  0  0  0  0  0  0  0  0  0
   -7.2500    0.7100   -0.5300 C   0  0  1  0  0  0  0  0  0  0  0  0
   -8.0290    1.5260   -1.5640 C   0  0  0  0  0  0  0  0  0  0  0  0
   -7.3870    0.7020   -2.6560 C   0  0  0  0  0  0  0  0  0  0  0  0
   -6.9840   -0.2970   -1.5830 C   0  0  0  0  0  0  0  0  0  0  0  0
   -0.4180   -1.4890    0.9620 N   0  0  0  0  0  0  0  0  0  0  0  0
    3.8100   -2.3970    0.4920 C   0  0  0  0  0  0  0  0  0  0  0  0
    4.7580   -2.0040   -0.5700 C   0  0  0  0  0  0  0  0  0  0  0  0
    5.5540   -2.7810   -1.1370 O   0  0  0  0  0  0  0  0  0  0  0  0
    7.0990    0.5640    0.6510 C   0  0  0  0  0  0  0  0  0  0  0  0
    8.5680    0.5880    1.0980 C   0  0  0  0  0  0  0  0  0  0  0  0
  1  2  1  0
  3  2  1  6
  3  4  1  0
  3 39  1  0
  4  5  2  0
  5  6  1  0
  5 38  1  0
  6  7  2  3
  7  8  1  0
  8  9  1  0
  8 36  1  0
  9 10  1  0
 10 11  1  6
 10 35  1  0
 11 12  1  0
 12 13  2  0
 12 34  1  0
 13 14  1  0
 14 15  1  0
 14 18  1  0
 15 16  2  0
 16 17  1  0
 17 18  2  0
 18 19  1  0
 19 20  1  0
 19 34  2  0
 20 21  1  0
 20 22  1  0
 22 23  1  0
 24 23  1  6
 24 25  1  0
 24 29  1  0
 25 26  1  0
 26 27  1  0
 27 28  1  0
 29 28  1  1
 29 30  1  0
 30 31  1  6
 30 33  1  0
 31 32  1  0
 32 33  1  0
 35 36  1  0
 36 37  2  0
 38 39  1  0
M  CHG  2   3   1  24   1
M  END
