
     RDKit          3D

 39 43  0  0  0  0  0  0  0  0999 V2000
    9.9260   -1.9530   -3.6540 C   0  0  0  0  0  0  0  0  0  0  0  0
    9.7090   -0.8030   -3.0490 C   0  0  0  0  0  0  0  0  0  0  0  0
   10.1530   -0.5810   -1.6770 C   0  0  0  0  0  0  0  0  0  0  0  0
    9.1220   -0.2730   -0.7270 N   0  0  2  0  0  0  0  0  0  0  0  0
    8.2300   -1.3740   -0.4370 C   0  0  0  0  0  0  0  0  0  0  0  0
    7.5430   -1.0710    0.8820 C   0  0  0  0  0  0  0  0  0  0  0  0
    6.7850    0.2130    0.7420 C   0  0  2  0  0  0  0  0  0  0  0  0
    5.3710   -0.0040    1.1610 C   0  0  0  0  0  0  0  0  0  0  0  0
    5.0770   -1.1400    1.6090 O   0  0  0  0  0  0  0  0  0  0  0  0
    4.3960    0.9870    1.0720 N   0  0  0  0  0  0  0  0  0  0  0  0
    3.0440    0.8040    1.4690 C   0  0  0  0  0  0  0  0  0  0  0  0
    2.0600    1.7360    1.3970 N   0  0  0  0  0  0  0  0  0  0  0  0
    0.9260    1.2090    1.8590 C   0  0  0  0  0  0  0  0  0  0  0  0
   -0.3680    1.9330    1.9230 C   0  0  0  0  0  0  0  0  0  0  0  0
   -0.6080    3.2240    1.5110 C   0  0  0  0  0  0  0  0  0  0  0  0
   -1.9330    3.5190    1.7330 C   0  0  0  0  0  0  0  0  0  0  0  0
   -2.4680    2.4200    2.2680 N   0  0  0  0  0  0  0  0  0  0  0  0
   -1.5550    1.4770    2.3860 N   0  0  0  0  0  0  0  0  0  0  0  0
   -1.7640    0.1770    2.9400 C   0  0  0  0  0  0  0  0  0  0  0  0
   -2.1090   -0.9140    2.0030 C   0  0  1  0  0  0  0  0  0  0  0  0
   -2.2670   -2.1870    2.8580 C   0  0  0  0  0  0  0  0  0  0  0  0
   -3.3550   -0.7740    1.2820 N   0  0  2  0  0  0  0  0  0  0  0  0
   -3.1950   -0.0210    0.0770 C   0  0  0  0  0  0  0  0  0  0  0  0
   -4.3860    0.7750   -0.3490 C   0  0  0  0  0  0  0  0  0  0  0  0
   -5.7090    0.2120    0.0810 C   0  0  1  0  0  0  0  0  0  0  0  0
   -6.6520   -0.0110   -0.9790 N   0  0  0  0  0  0  0  0  0  0  0  0
   -7.4810    1.0680   -1.4870 C   0  0  0  0  0  0  0  0  0  0  0  0
   -8.3370    0.9360   -2.4650 C   0  0  0  0  0  0  0  0  0  0  0  0
   -9.1030    2.1670   -2.8500 C   0  0  0  0  0  0  0  0  0  0  0  0
   -8.5270   -0.3490   -3.1260 C   0  0  0  0  0  0  0  0  0  0  0  0
   -7.6790   -1.3890   -2.5910 C   0  0  0  0  0  0  0  0  0  0  0  0
   -6.7890   -1.2670   -1.5860 C   0  0  0  0  0  0  0  0  0  0  0  0
   -5.9950   -2.4210   -1.2260 C   0  0  0  0  0  0  0  0  0  0  0  0
   -5.7330   -0.6930    1.2490 C   0  0  0  0  0  0  0  0  0  0  0  0
   -4.4700   -0.4120    2.0980 C   0  0  0  0  0  0  0  0  0  0  0  0
    1.1890   -0.0340    2.2170 N   0  0  0  0  0  0  0  0  0  0  0  0
    2.4710   -0.2950    1.9860 N   0  0  0  0  0  0  0  0  0  0  0  0
    6.8810    0.7050   -0.6720 C   0  0  0  0  0  0  0  0  0  0  0  0
    8.3440    0.9030   -1.0640 C   0  0  0  0  0  0  0  0  0  0  0  0
  1  2  2  0
  2  3  1  0
  4  3  1  6
  4  5  1  0
  4 39  1  0
  5  6  1  0
  6  7  1  0
  7  8  1  6
  7 38  1  0
  8  9  2  0
  8 10  1  0
 10 11  1  0
 11 12  2  0
 11 37  1  0
 12 13  1  0
 13 14  1  0
 13 36  2  0
 14 15  2  0
 14 18  1  0
 15 16  1  0
 16 17  2  0
 17 18  1  0
 18 19  1  0
 19 20  1  0
 20 21  1  1
 20 22  1  0
 22 23  1  6
 22 35  1  0
 23 24  1  0
 24 25  1  0
 25 26  1  6
 25 34  1  0
 26 27  1  0
 26 32  1  0
 27 28  2  0
 28 29  1  0
 28 30  1  0
 30 31  1  0
 31 32  2  0
 32 33  1  0
 34 35  1  0
 36 37  1  0
 38 39  1  0
M  CHG  2   4   1  22   1
M  END
