
     RDKit          3D

 39 43  0  0  0  0  0  0  0  0999 V2000
   -8.7190   -2.0280    1.5270 C   0  0  0  0  0  0  0  0  0  0  0  0
   -7.4550   -1.3890    0.9690 C   0  0  0  0  0  0  0  0  0  0  0  0
   -7.3180   -0.0390    1.6000 C   0  0  0  0  0  0  0  0  0  0  0  0
   -6.1270    0.6050    1.0940 N   0  0  0  0  0  0  0  0  0  0  0  0
   -5.8040    1.9550    1.5400 C   0  0  0  0  0  0  0  0  0  0  0  0
   -6.9100    2.8410    1.1430 C   0  0  0  0  0  0  0  0  0  0  0  0
   -7.6840    2.6740    0.0020 C   0  0  0  0  0  0  0  0  0  0  0  0
   -8.6080    3.6910   -0.0240 C   0  0  0  0  0  0  0  0  0  0  0  0
   -8.3730    4.4470    1.0990 C   0  0  0  0  0  0  0  0  0  0  0  0
   -7.3580    3.9030    1.7570 O   0  0  0  0  0  0  0  0  0  0  0  0
   -5.2990   -0.1080    0.1930 C   0  0  0  0  0  0  0  0  0  0  0  0
   -4.1130   -0.5540    0.6820 N   0  0  0  0  0  0  0  0  0  0  0  0
   -3.2380   -1.2550   -0.0440 C   0  0  0  0  0  0  0  0  0  0  0  0
   -1.9490   -1.7020    0.5580 C   0  0  0  0  0  0  0  0  0  0  0  0
   -0.8980   -0.8080    0.1230 N   0  0  2  0  0  0  0  0  0  0  0  0
    0.0930   -1.6390   -0.5890 C   0  0  0  0  0  0  0  0  0  0  0  0
    0.9780   -0.6410   -1.2740 C   0  0  0  0  0  0  0  0  0  0  0  0
    1.7780    0.1050   -0.2710 C   0  0  2  0  0  0  0  0  0  0  0  0
    3.0720   -0.4850    0.0560 N   0  0  1  0  0  0  0  0  0  0  0  0
    3.4850   -1.5590   -0.7700 C   0  0  0  0  0  0  0  0  0  0  0  0
    4.0140    0.5630    0.2670 C   0  0  0  0  0  0  0  0  0  0  0  0
    5.4380    0.2110    0.0520 C   0  0  0  0  0  0  0  0  0  0  0  0
    5.9770   -0.8440   -0.3920 N   0  0  0  0  0  0  0  0  0  0  0  0
    7.3860   -0.7250   -0.4210 C   0  0  0  0  0  0  0  0  0  0  0  0
    8.3550   -1.5640   -0.8090 C   0  0  0  0  0  0  0  0  0  0  0  0
    9.7970   -1.2090   -0.7440 C   0  0  0  0  0  0  0  0  0  0  0  0
    9.9860   -0.1820    0.3640 C   0  0  0  0  0  0  0  0  0  0  0  0
    9.0680    1.0010    0.1660 C   0  0  2  0  0  0  0  0  0  0  0  0
    9.3170    1.9900    1.2610 C   0  0  0  0  0  0  0  0  0  0  0  0
    7.7040    0.5600    0.0680 N   0  0  0  0  0  0  0  0  0  0  0  0
    6.4580    1.1410    0.3630 N   0  0  0  0  0  0  0  0  0  0  0  0
    6.3370    2.4890    0.8950 C   0  0  0  0  0  0  0  0  0  0  0  0
    1.0570    0.4380    0.9880 C   0  0  0  0  0  0  0  0  0  0  0  0
   -0.2960   -0.0970    1.2060 C   0  0  0  0  0  0  0  0  0  0  0  0
   -3.5470   -1.5430   -1.3500 C   0  0  0  0  0  0  0  0  0  0  0  0
   -4.7680   -1.0890   -1.8680 C   0  0  0  0  0  0  0  0  0  0  0  0
   -5.1310   -1.3710   -3.2090 N   0  0  0  0  0  0  0  0  0  0  0  0
   -4.2900   -2.1320   -4.1070 C   0  0  0  0  0  0  0  0  0  0  0  0
   -5.6070   -0.3850   -1.0820 N   0  0  0  0  0  0  0  0  0  0  0  0
  1  2  1  0
  2  3  1  0
  3  4  1  0
  4  5  1  0
  4 11  1  0
  5  6  1  0
  6  7  2  0
  6 10  1  0
  7  8  1  0
  8  9  2  0
  9 10  1  0
 11 12  2  0
 11 39  1  0
 12 13  1  0
 13 14  1  0
 13 35  2  0
 15 14  1  1
 15 16  1  0
 15 34  1  0
 16 17  1  0
 18 17  1  1
 18 19  1  0
 18 33  1  0
 19 20  1  6
 19 21  1  0
 21 22  1  0
 22 23  2  0
 22 31  1  0
 23 24  1  0
 24 25  2  0
 24 30  1  0
 25 26  1  0
 26 27  1  0
 27 28  1  0
 28 29  1  1
 28 30  1  0
 30 31  1  0
 31 32  1  0
 33 34  1  0
 35 36  1  0
 36 37  1  0
 36 39  2  0
 37 38  1  0
M  CHG  2  15   1  19   1
M  END
