
     RDKit          3D

 39 44  0  0  0  0  0  0  0  0999 V2000
    9.6620   -1.0440    1.0900 C   0  0  0  0  0  0  0  0  0  0  0  0
    8.7270    0.1180    1.0140 C   0  0  0  0  0  0  0  0  0  0  0  0
    7.3690   -0.2010    1.5980 C   0  0  1  0  0  0  0  0  0  0  0  0
    6.4660    1.0100    1.4940 C   0  0  0  0  0  0  0  0  0  0  0  0
    5.2120    0.6980    2.2700 C   0  0  0  0  0  0  0  0  0  0  0  0
    4.5120   -0.5390    1.8180 C   0  0  1  0  0  0  0  0  0  0  0  0
    3.5800   -0.2550    0.6770 C   0  0  0  0  0  0  0  0  0  0  0  0
    2.2290   -0.3880    0.6610 N   0  0  0  0  0  0  0  0  0  0  0  0
    1.7520   -0.0360   -0.5450 C   0  0  0  0  0  0  0  0  0  0  0  0
    0.3490   -0.0390   -0.9730 C   0  0  0  0  0  0  0  0  0  0  0  0
   -0.6310   -0.4350   -0.0880 C   0  0  0  0  0  0  0  0  0  0  0  0
   -1.9390   -0.4410   -0.4790 C   0  0  0  0  0  0  0  0  0  0  0  0
   -3.0540   -0.8650    0.4460 C   0  0  2  0  0  0  0  0  0  0  0  0
   -3.6370   -2.1190   -0.0990 C   0  0  0  0  0  0  0  0  0  0  0  0
   -4.3860   -1.9810   -1.3070 N   0  0  0  0  0  0  0  0  0  0  0  0
   -5.4100   -0.9850   -1.2860 C   0  0  0  0  0  0  0  0  0  0  0  0
   -6.0220   -0.8980    0.0950 C   0  0  0  0  0  0  0  0  0  0  0  0
   -5.3150   -0.0350    0.9760 N   0  0  0  0  0  0  0  0  0  0  0  0
   -6.0380    1.2140    1.1040 C   0  0  0  0  0  0  0  0  0  0  0  0
   -7.4010    1.0490    1.6690 C   0  0  0  0  0  0  0  0  0  0  0  0
   -7.8110   -0.1020    2.2610 C   0  0  0  0  0  0  0  0  0  0  0  0
   -9.0710   -0.2450    2.7760 C   0  0  0  0  0  0  0  0  0  0  0  0
   -9.9600    0.8060    2.6980 C   0  0  0  0  0  0  0  0  0  0  0  0
   -9.5100    1.9580    2.0920 C   0  0  0  0  0  0  0  0  0  0  0  0
   -8.2710    2.0890    1.5890 N   0  0  0  0  0  0  0  0  0  0  0  0
   -3.9760    0.2860    0.5800 C   0  0  0  0  0  0  0  0  0  0  0  0
   -2.2190   -0.0490   -1.7440 N   0  0  0  0  0  0  0  0  0  0  0  0
   -1.2710    0.3290   -2.5820 N   0  0  0  0  0  0  0  0  0  0  0  0
    0.0380    0.3560   -2.2520 C   0  0  0  0  0  0  0  0  0  0  0  0
    1.0490    0.7610   -3.1520 N   0  0  0  0  0  0  0  0  0  0  0  0
    1.4850   -0.0130   -4.1850 C   0  0  0  0  0  0  0  0  0  0  0  0
    2.4730    0.6650   -4.8740 C   0  0  0  0  0  0  0  0  0  0  0  0
    2.6080    1.8790   -4.2050 C   0  0  0  0  0  0  0  0  0  0  0  0
    3.5820    2.9350   -4.6210 C   0  0  0  0  0  0  0  0  0  0  0  0
    1.7430    1.8850   -3.1950 N   0  0  0  0  0  0  0  0  0  0  0  0
    2.8330    0.3140   -1.2630 N   0  0  0  0  0  0  0  0  0  0  0  0
    3.8970    0.1760   -0.5210 O   0  0  0  0  0  0  0  0  0  0  0  0
    5.4230   -1.6920    1.5100 C   0  0  0  0  0  0  0  0  0  0  0  0
    6.6930   -1.3170    0.8320 C   0  0  0  0  0  0  0  0  0  0  0  0
  1  2  1  0
  3  2  1  6
  3  4  1  0
  3 39  1  0
  4  5  1  0
  5  6  1  0
  6  7  1  6
  6 38  1  0
  7  8  2  0
  7 37  1  0
  8  9  1  0
  9 10  1  0
  9 36  2  0
 10 11  2  0
 10 29  1  0
 11 12  1  0
 13 12  1  6
 12 27  2  0
 13 14  1  0
 13 26  1  0
 14 15  1  0
 15 16  1  0
 16 17  1  0
 17 18  1  0
 18 19  1  0
 18 26  1  0
 19 20  1  0
 20 21  2  0
 20 25  1  0
 21 22  1  0
 22 23  2  0
 23 24  1  0
 24 25  2  0
 27 28  1  0
 28 29  2  0
 29 30  1  0
 30 31  1  0
 30 35  1  0
 31 32  2  0
 32 33  1  0
 33 34  1  0
 33 35  2  0
 36 37  1  0
 38 39  1  0
M  CHG  2  15   1  25   1
M  END
