
     RDKit          3D

 43 46  0  0  0  0  0  0  0  0999 V2000
   -6.9030   -0.4620   -2.2160 C   0  0  0  0  0  0  0  0  0  0  0  0
   -7.2720   -0.7660   -0.7950 C   0  0  2  0  0  0  0  0  0  0  0  0
   -7.7980    0.5600   -0.2150 C   0  0  0  0  0  0  0  0  0  0  0  0
   -6.8870    1.7120   -0.5390 C   0  0  0  0  0  0  0  0  0  0  0  0
   -6.5280    2.5290    0.7150 C   0  0  0  0  0  0  0  0  0  0  0  0
   -5.2270    2.0730    1.2840 C   0  0  0  0  0  0  0  0  0  0  0  0
   -4.1480    3.1250    1.3180 C   0  0  0  0  0  0  0  0  0  0  0  0
   -3.1110    2.9250    0.2150 C   0  0  0  0  0  0  0  0  0  0  0  0
   -2.6530    3.9190   -0.3590 O   0  0  0  0  0  0  0  0  0  0  0  0
   -2.7670    1.6300   -0.1120 O   0  0  0  0  0  0  0  0  0  0  0  0
   -2.4210    0.7600    1.0690 C   0  0  2  0  0  0  0  0  0  0  0  0
   -1.0100    0.8530    1.1940 C   0  0  0  0  0  0  0  0  0  0  0  0
   -0.4000    0.8040    2.2780 O   0  0  0  0  0  0  0  0  0  0  0  0
   -0.1430    1.0670    0.0380 N   0  0  0  0  0  0  0  0  0  0  0  0
    1.1510    1.3620   -0.1000 C   0  0  0  0  0  0  0  0  0  0  0  0
    2.2770    0.6150    0.5490 C   0  0  2  0  0  0  0  0  0  0  0  0
    2.3160    0.9740    1.9240 O   0  0  0  0  0  0  0  0  0  0  0  0
    3.5730    0.9210   -0.0750 C   0  0  0  0  0  0  0  0  0  0  0  0
    4.5280    1.7910    0.5100 C   0  0  0  0  0  0  0  0  0  0  0  0
    5.6890    2.0180   -0.2440 C   0  0  0  0  0  0  0  0  0  0  0  0
    6.9860    2.3670    0.4030 N   0  0  0  0  0  0  0  0  0  0  0  0
    7.8220    1.2350    0.4320 C   0  0  0  0  0  0  0  0  0  0  0  0
    7.2170    0.1370    0.0870 O   0  0  0  0  0  0  0  0  0  0  0  0
    9.1640    1.0420    0.7120 N   0  0  0  0  0  0  0  0  0  0  0  0
    9.7360   -0.3140    0.5080 C   0  0  1  0  0  0  0  0  0  0  0  0
   10.2130   -0.3910   -0.9480 C   0  0  0  0  0  0  0  0  0  0  0  0
   11.6770   -0.7170   -0.8450 C   0  0  0  0  0  0  0  0  0  0  0  0
   11.7680   -1.4790    0.4660 C   0  0  0  0  0  0  0  0  0  0  0  0
   10.9160   -0.5740    1.3900 C   0  0  0  0  0  0  0  0  0  0  0  0
    5.7980    1.4670   -1.4290 C   0  0  0  0  0  0  0  0  0  0  0  0
    4.9210    0.6030   -2.0440 C   0  0  0  0  0  0  0  0  0  0  0  0
    3.7840    0.3200   -1.3170 C   0  0  0  0  0  0  0  0  0  0  0  0
    2.8590   -0.7500   -1.6780 C   0  0  0  0  0  0  0  0  0  0  0  0
    3.1620   -1.9550   -1.0240 O   0  0  0  0  0  0  0  0  0  0  0  0
   -3.0210   -0.4770    0.5120 C   0  0  0  0  0  0  0  0  0  0  0  0
   -3.6430   -1.7640   -0.0740 C   0  0  0  0  0  0  0  0  0  0  0  0
   -4.0060   -2.5160   -0.4190 C   0  0  0  0  0  0  0  0  0  0  0  0
   -5.6070   -2.5400   -0.7590 C   0  0  1  0  0  0  0  0  0  0  0  0
   -6.2720   -3.7250   -0.2460 C   0  0  0  0  0  0  0  0  0  0  0  0
   -6.6630   -3.7230    1.2170 C   0  0  0  0  0  0  0  0  0  0  0  0
   -7.2800   -2.4120    1.6070 C   0  0  0  0  0  0  0  0  0  0  0  0
   -6.2540   -1.3280    1.2790 C   0  0  0  0  0  0  0  0  0  0  0  0
   -6.1260   -1.2440   -0.1480 N   0  0  2  0  0  0  0  0  0  0  0  0
  2  1  1  6
  2  3  1  0
  2 43  1  0
  3  4  1  0
  4  5  1  0
  5  6  1  0
  6  7  1  0
  7  8  1  0
  8  9  2  0
  8 10  1  0
 10 11  1  0
 11 12  1  6
 11 35  1  0
 12 13  2  0
 12 14  1  0
 14 15  1  0
 15 16  1  0
 16 17  1  1
 16 18  1  0
 18 19  2  0
 18 32  1  0
 19 20  1  0
 20 21  1  0
 20 30  2  0
 21 22  1  0
 22 23  2  0
 22 24  1  0
 25 24  1  1
 25 26  1  0
 25 29  1  0
 26 27  1  0
 27 28  1  0
 28 29  1  0
 30 31  1  0
 31 32  2  0
 32 33  1  0
 33 34  1  0
 35 36  3  0
 36 37  1  0
 38 37  1  1
 38 39  1  0
 38 43  1  0
 39 40  1  0
 40 41  1  0
 41 42  1  0
 43 42  1  1
M  CHG  1  43   1
M  END
