
     RDKit          3D

 43 44  0  0  0  0  0  0  0  0999 V2000
   -5.4240    6.9960   -0.9860 C   0  0  0  0  0  0  0  0  0  0  0  0
   -4.5660    7.0870   -2.2160 C   0  0  0  0  0  0  0  0  0  0  0  0
   -3.1470    6.8050   -1.8630 C   0  0  0  0  0  0  0  0  0  0  0  0
   -2.9390    5.4380   -1.2800 C   0  0  0  0  0  0  0  0  0  0  0  0
   -3.3650    4.3630   -2.2480 C   0  0  0  0  0  0  0  0  0  0  0  0
   -3.1720    3.0340   -1.7430 N   0  0  0  0  0  0  0  0  0  0  0  0
   -1.8740    2.5690   -1.4280 C   0  0  0  0  0  0  0  0  0  0  0  0
   -0.9070    3.3570   -1.6140 O   0  0  0  0  0  0  0  0  0  0  0  0
   -1.6100    1.2170   -0.9000 C   0  0  2  0  0  0  0  0  0  0  0  0
   -2.4110    1.0340    0.3670 C   0  0  0  0  0  0  0  0  0  0  0  0
   -2.1970   -0.3070    0.9550 C   0  0  0  0  0  0  0  0  0  0  0  0
   -1.2360   -0.5550    1.8990 C   0  0  0  0  0  0  0  0  0  0  0  0
   -1.0230   -1.8200    2.4280 C   0  0  0  0  0  0  0  0  0  0  0  0
   -1.8080   -2.8550    1.9820 C   0  0  0  0  0  0  0  0  0  0  0  0
   -1.6210   -4.1510    2.4920 O   0  0  0  0  0  0  0  0  0  0  0  0
   -0.6280   -4.4350    3.4680 C   0  0  0  0  0  0  0  0  0  0  0  0
   -0.6970   -5.8810    3.7700 C   0  0  0  0  0  0  0  0  0  0  0  0
    0.0700   -6.3830    4.6140 O   0  0  0  0  0  0  0  0  0  0  0  0
   -1.6150   -6.7170    3.1240 O   0  0  0  0  0  0  0  0  0  0  0  0
   -2.7760   -2.6250    1.0360 C   0  0  0  0  0  0  0  0  0  0  0  0
   -3.6210   -3.7100    0.5500 C   0  0  0  0  0  0  0  0  0  0  0  0
   -4.4980   -3.4860   -0.3240 O   0  0  0  0  0  0  0  0  0  0  0  0
   -3.4910   -5.0010    1.0220 O   0  0  0  0  0  0  0  0  0  0  0  0
   -2.9720   -1.3500    0.5210 C   0  0  0  0  0  0  0  0  0  0  0  0
   -0.2020    1.0350   -0.7200 N   0  0  0  0  0  0  0  0  0  0  0  0
    0.5250   -0.1070   -1.0690 C   0  0  0  0  0  0  0  0  0  0  0  0
   -0.0630   -1.0710   -1.5770 O   0  0  0  0  0  0  0  0  0  0  0  0
    1.9790   -0.1660   -0.8300 C   0  0  2  0  0  0  0  0  0  0  0  0
    2.7030    0.4660   -1.9870 C   0  0  0  0  0  0  0  0  0  0  0  0
    4.1690    0.4570   -1.8390 C   0  0  0  0  0  0  0  0  0  0  0  0
    4.9130    1.4500   -1.2550 C   0  0  0  0  0  0  0  0  0  0  0  0
    6.2830    1.3740   -1.1530 C   0  0  0  0  0  0  0  0  0  0  0  0
    6.9500    0.2870   -1.6380 C   0  0  0  0  0  0  0  0  0  0  0  0
    6.2520   -0.7450   -2.2360 C   0  0  0  0  0  0  0  0  0  0  0  0
    4.8640   -0.6530   -2.3330 C   0  0  0  0  0  0  0  0  0  0  0  0
    2.3170   -1.5650   -0.6430 N   0  0  0  0  0  0  0  0  0  0  0  0
    2.8130   -2.0620    0.5750 C   0  0  0  0  0  0  0  0  0  0  0  0
    2.9520   -1.2090    1.4950 O   0  0  0  0  0  0  0  0  0  0  0  0
    3.1660   -3.4790    0.8190 C   0  0  0  0  0  0  0  0  0  0  0  0
    3.7140   -3.6560    2.2320 C   0  0  0  0  0  0  0  0  0  0  0  0
    4.0370   -5.0950    2.4110 C   0  0  0  0  0  0  0  0  0  0  0  0
    3.8500   -5.9260    1.4960 O   0  0  0  0  0  0  0  0  0  0  0  0
    4.5650   -5.5770    3.6120 O   0  0  0  0  0  0  0  0  0  0  0  0
  1  2  1  0
  2  3  1  0
  3  4  1  0
  4  5  1  0
  5  6  1  0
  6  7  1  0
  7  8  2  0
  7  9  1  0
  9 10  1  1
  9 25  1  0
 10 11  1  0
 11 12  2  0
 11 24  1  0
 12 13  1  0
 13 14  2  0
 14 15  1  0
 14 20  1  0
 15 16  1  0
 16 17  1  0
 17 18  2  0
 17 19  1  0
 20 21  1  0
 20 24  2  0
 21 22  2  0
 21 23  1  0
 25 26  1  0
 26 27  2  0
 26 28  1  0
 28 29  1  6
 28 36  1  0
 29 30  1  0
 30 31  2  0
 30 35  1  0
 31 32  1  0
 32 33  2  0
 33 34  1  0
 34 35  2  0
 36 37  1  0
 37 38  2  0
 37 39  1  0
 39 40  1  0
 40 41  1  0
 41 42  2  0
 41 43  1  0
M  END
