
     RDKit          3D

 24 25  0  0  0  0  0  0  0  0999 V2000
   -6.2740   -0.1870   -1.8850 C   0  0  0  0  0  0  0  0  0  0  0  0
   -6.3510   -0.6110   -0.4400 C   0  0  2  0  0  0  0  0  0  0  0  0
   -7.5400   -1.2810   -0.1900 O   0  0  0  0  0  0  0  0  0  0  0  0
   -6.2990    0.5130    0.3830 O   0  0  0  0  0  0  0  0  0  0  0  0
   -5.2510    0.4640    1.2770 C   0  0  0  0  0  0  0  0  0  0  0  0
   -3.9950    0.3840    0.6330 O   0  0  0  0  0  0  0  0  0  0  0  0
   -2.8580    0.3290    1.4450 C   0  0  0  0  0  0  0  0  0  0  0  0
   -2.9550    0.3500    2.8140 C   0  0  0  0  0  0  0  0  0  0  0  0
   -1.8370    0.2960    3.6060 C   0  0  0  0  0  0  0  0  0  0  0  0
   -0.6240    0.2190    2.9760 C   0  0  0  0  0  0  0  0  0  0  0  0
   -0.4860    0.1950    1.5830 C   0  0  0  0  0  0  0  0  0  0  0  0
    0.8130    0.0950    1.0650 N   0  0  0  0  0  0  0  0  0  0  0  0
    1.1910    0.3750   -0.2540 C   0  0  0  0  0  0  0  0  0  0  0  0
    0.3350    0.7630   -1.0960 O   0  0  0  0  0  0  0  0  0  0  0  0
    2.5900    0.2120   -0.6410 C   0  0  0  0  0  0  0  0  0  0  0  0
    3.5260   -0.5000    0.0550 C   0  0  0  0  0  0  0  0  0  0  0  0
    4.8470   -0.6020   -0.3800 C   0  0  0  0  0  0  0  0  0  0  0  0
    5.2650    0.0110   -1.5300 C   0  0  0  0  0  0  0  0  0  0  0  0
    7.0030   -0.1380   -2.0770 P   0  0  0  0  0  0  0  0  0  0  0  0
    7.3670   -1.9430   -2.3270 C   0  0  0  0  0  0  0  0  0  0  0  0
    8.0950    0.5530   -0.9230 O   0  0  0  0  0  0  0  0  0  0  0  0
    4.3310    0.7380   -2.2510 C   0  0  0  0  0  0  0  0  0  0  0  0
    3.0280    0.8340   -1.8160 C   0  0  0  0  0  0  0  0  0  0  0  0
   -1.6160    0.2500    0.8280 C   0  0  0  0  0  0  0  0  0  0  0  0
  2  1  1  6
  2  3  1  0
  2  4  1  0
  4  5  1  0
  5  6  1  0
  6  7  1  0
  7  8  2  0
  7 24  1  0
  8  9  1  0
  9 10  2  0
 10 11  1  0
 11 12  1  0
 11 24  2  0
 12 13  1  0
 13 14  2  0
 13 15  1  0
 15 16  2  0
 15 23  1  0
 16 17  1  0
 17 18  2  0
 18 19  1  0
 18 22  1  0
 19 20  1  0
 19 21  1  0
 22 23  2  0
M  END
