
     RDKit          3D

 24 25  0  0  0  0  0  0  0  0999 V2000
    6.3160   -0.1760    0.7180 C   0  0  0  0  0  0  0  0  0  0  0  0
    5.5390    0.4710    1.6750 O   0  0  0  0  0  0  0  0  0  0  0  0
    3.9630    0.8500    1.0640 P   0  0  0  0  0  0  0  0  0  0  0  0
    3.4730   -0.2890   -0.3160 C   0  0  0  0  0  0  0  0  0  0  0  0
    2.0300   -0.1180   -0.5910 C   0  0  0  0  0  0  0  0  0  0  0  0
    1.5880    1.1310   -0.9740 O   0  0  0  0  0  0  0  0  0  0  0  0
    1.1720   -1.1070   -0.4830 C   0  0  0  0  0  0  0  0  0  0  0  0
   -0.2310   -0.8350   -0.7780 C   0  0  0  0  0  0  0  0  0  0  0  0
   -1.0770   -1.8430   -0.6630 C   0  0  0  0  0  0  0  0  0  0  0  0
   -0.6990   -3.1210   -0.2830 O   0  0  0  0  0  0  0  0  0  0  0  0
   -1.5940   -4.1750   -0.1650 C   0  0  0  0  0  0  0  0  0  0  0  0
   -2.8650   -3.9310   -0.4310 C   0  0  0  0  0  0  0  0  0  0  0  0
   -3.3540   -2.6220   -0.8360 C   0  0  0  0  0  0  0  0  0  0  0  0
   -2.4840   -1.6080   -0.9490 C   0  0  0  0  0  0  0  0  0  0  0  0
   -2.8950   -0.3040   -1.3400 N   0  0  0  0  0  0  0  0  0  0  0  0
   -3.6380    0.4810   -0.4070 C   0  0  0  0  0  0  0  0  0  0  0  0
   -3.9500   -0.0130    0.8480 C   0  0  0  0  0  0  0  0  0  0  0  0
   -4.6600    0.7090    1.7700 C   0  0  0  0  0  0  0  0  0  0  0  0
   -5.0660    1.9750    1.4050 C   0  0  0  0  0  0  0  0  0  0  0  0
   -4.7930    2.5290    0.1800 C   0  0  0  0  0  0  0  0  0  0  0  0
   -4.0640    1.7500   -0.7280 C   0  0  0  0  0  0  0  0  0  0  0  0
   -3.7990    2.3380   -1.9680 O   0  0  0  0  0  0  0  0  0  0  0  0
    3.8400    2.4860    0.5440 O   0  0  0  0  0  0  0  0  0  0  0  0
    5.0620    3.0800    0.2990 C   0  0  0  0  0  0  0  0  0  0  0  0
  1  2  1  0
  2  3  1  0
  3  4  1  0
  3 23  1  0
  4  5  1  0
  5  6  1  0
  5  7  2  3
  7  8  1  0
  8  9  2  3
  9 10  1  0
  9 14  1  0
 10 11  1  0
 11 12  2  0
 12 13  1  0
 13 14  2  0
 14 15  1  0
 15 16  1  0
 16 17  2  0
 16 21  1  0
 17 18  1  0
 18 19  2  0
 19 20  1  0
 20 21  2  0
 21 22  1  0
 23 24  1  0
M  END
