
     RDKit          3D

 24 25  0  0  0  0  0  0  0  0999 V2000
   -3.8680   -0.4590   -2.2140 O   0  0  0  0  0  0  0  0  0  0  0  0
   -3.9800   -0.1900   -0.9760 C   0  0  0  0  0  0  0  0  0  0  0  0
   -2.8060   -0.0540   -0.3120 O   0  0  0  0  0  0  0  0  0  0  0  0
   -1.5350   -0.1970   -0.9180 C   0  0  1  0  0  0  0  0  0  0  0  0
   -0.8490    1.1060   -0.8860 C   0  0  0  0  0  0  0  0  0  0  0  0
    0.2540    1.2770    0.1230 C   0  0  0  0  0  0  0  0  0  0  0  0
    1.1780    0.0990   -0.0250 C   0  0  1  0  0  0  0  0  0  0  0  0
    2.3240    0.2650    0.8010 N   0  0  0  0  0  0  0  0  0  0  0  0
    3.0980    1.4120    0.3920 C   0  0  0  0  0  0  0  0  0  0  0  0
    4.3380    1.4860    1.2880 C   0  0  0  0  0  0  0  0  0  0  0  0
    5.1160    0.2190    1.1320 C   0  0  0  0  0  0  0  0  0  0  0  0
    5.5660    0.0050   -0.2890 C   0  0  0  0  0  0  0  0  0  0  0  0
    6.5330   -1.6070   -0.2830 P   0  0  0  0  0  0  0  0  0  0  0  0
    8.0580   -1.2770    0.4690 O   0  0  0  0  0  0  0  0  0  0  0  0
    5.6690   -2.6970    0.7490 O   0  0  0  0  0  0  0  0  0  0  0  0
    0.3910   -1.1130    0.4310 C   0  0  0  0  0  0  0  0  0  0  0  0
   -0.8310   -1.3700   -0.3660 C   0  0  0  0  0  0  0  0  0  0  0  0
   -5.3320   -0.0610   -0.4280 C   0  0  0  0  0  0  0  0  0  0  0  0
   -6.4050   -0.2470   -1.3080 C   0  0  0  0  0  0  0  0  0  0  0  0
   -7.6950   -0.1470   -0.8760 C   0  0  0  0  0  0  0  0  0  0  0  0
   -7.9220    0.1410    0.4420 C   0  0  0  0  0  0  0  0  0  0  0  0
   -6.9050    0.3240    1.3040 C   0  0  0  0  0  0  0  0  0  0  0  0
   -5.5730    0.2240    0.8760 C   0  0  0  0  0  0  0  0  0  0  0  0
   -4.5660    0.4190    1.7900 O   0  0  0  0  0  0  0  0  0  0  0  0
  1  2  2  0
  2  3  1  0
  2 18  1  0
  4  3  1  1
  4  5  1  0
  4 17  1  0
  5  6  1  0
  6  7  1  0
  7  8  1  1
  7 16  1  0
  8  9  1  0
  9 10  1  0
 10 11  1  0
 11 12  1  0
 12 13  1  0
 13 14  1  0
 13 15  1  0
 16 17  1  0
 18 19  2  0
 18 23  1  0
 19 20  1  0
 20 21  2  0
 21 22  1  0
 22 23  2  0
 23 24  1  0
M  END
