
     RDKit          3D

 23 24  0  0  0  0  0  0  0  0999 V2000
    5.0130    1.4530    0.4290 C   0  0  0  0  0  0  0  0  0  0  0  0
    4.1730    0.6320   -0.5310 C   0  0  1  0  0  0  0  0  0  0  0  0
    4.6710   -0.7430   -0.5720 C   0  0  0  0  0  0  0  0  0  0  0  0
    3.9000   -1.6930   -0.2950 O   0  0  0  0  0  0  0  0  0  0  0  0
    5.9720   -1.0030   -0.9080 O   0  0  0  0  0  0  0  0  0  0  0  0
    2.7190    0.6560   -0.1550 C   0  0  0  0  0  0  0  0  0  0  0  0
    1.7920    1.3350   -0.9240 C   0  0  0  0  0  0  0  0  0  0  0  0
    0.4710    1.3230   -0.5690 C   0  0  0  0  0  0  0  0  0  0  0  0
   -0.0100    0.6530    0.5440 C   0  0  0  0  0  0  0  0  0  0  0  0
   -1.4000    0.6630    0.8760 N   0  0  0  0  0  0  0  0  0  0  0  0
   -2.2280   -0.4670    0.7090 C   0  0  0  0  0  0  0  0  0  0  0  0
   -3.2470   -0.4880   -0.1150 C   0  0  0  0  0  0  0  0  0  0  0  0
   -3.6480    0.6420   -0.9480 C   0  0  0  0  0  0  0  0  0  0  0  0
   -3.8390    1.9580   -0.6140 C   0  0  0  0  0  0  0  0  0  0  0  0
   -4.2080    2.6360   -1.7500 C   0  0  0  0  0  0  0  0  0  0  0  0
   -4.2320    1.6910   -2.7630 C   0  0  0  0  0  0  0  0  0  0  0  0
   -3.8970    0.5480   -2.2370 O   0  0  0  0  0  0  0  0  0  0  0  0
   -1.9290   -1.6910    1.4910 C   0  0  0  0  0  0  0  0  0  0  0  0
   -3.1540   -3.0340    1.1050 P   0  0  0  0  0  0  0  0  0  0  0  0
   -2.6540   -3.9910   -0.2310 O   0  0  0  0  0  0  0  0  0  0  0  0
   -3.5730   -3.9370    2.4950 O   0  0  0  0  0  0  0  0  0  0  0  0
    0.9060   -0.0230    1.3150 C   0  0  0  0  0  0  0  0  0  0  0  0
    2.2510   -0.0110    0.9530 C   0  0  0  0  0  0  0  0  0  0  0  0
  2  1  1  1
  2  3  1  0
  2  6  1  0
  3  4  2  0
  3  5  1  0
  6  7  2  0
  6 23  1  0
  7  8  1  0
  8  9  2  0
  9 10  1  0
  9 22  1  0
 10 11  1  0
 11 12  2  3
 11 18  1  0
 12 13  1  0
 13 14  2  0
 13 17  1  0
 14 15  1  0
 15 16  2  0
 16 17  1  0
 18 19  1  0
 19 20  1  0
 19 21  1  0
 22 23  2  0
M  END
