
     RDKit          3D

 27 30  0  0  0  0  0  0  0  0999 V2000
    3.9530    1.9540   -1.9780 C   0  0  0  0  0  0  0  0  0  0  0  0
    5.0250    1.9040   -0.9380 C   0  0  0  0  0  0  0  0  0  0  0  0
    5.4850    0.5470   -0.6220 C   0  0  0  0  0  0  0  0  0  0  0  0
    6.6530    0.1090   -1.0890 N   0  0  0  0  0  0  0  0  0  0  0  0
    7.1620   -1.0950   -0.8660 C   0  0  0  0  0  0  0  0  0  0  0  0
    6.4210   -1.9580   -0.0870 C   0  0  0  0  0  0  0  0  0  0  0  0
    5.1880   -1.5450    0.4290 C   0  0  0  0  0  0  0  0  0  0  0  0
    4.7050   -0.2890    0.1680 C   0  0  0  0  0  0  0  0  0  0  0  0
    3.4460    0.1750    0.6610 N   0  0  0  0  0  0  0  0  0  0  0  0
    2.6340   -0.6090    1.5180 C   0  0  0  0  0  0  0  0  0  0  0  0
    3.0650   -1.3630    2.4670 N   0  0  0  0  0  0  0  0  0  0  0  0
    2.0340   -2.0250    3.1570 C   0  0  0  0  0  0  0  0  0  0  0  0
    2.1240   -2.8360    4.1390 O   0  0  0  0  0  0  0  0  0  0  0  0
    0.8090   -1.6020    2.5250 N   0  0  0  0  0  0  0  0  0  0  0  0
    1.1580   -0.7160    1.4970 C   0  0  0  0  0  0  0  0  0  0  0  0
    0.4330   -0.0830    0.6230 C   0  0  0  0  0  0  0  0  0  0  0  0
   -1.0250   -0.0990    0.4990 C   0  0  0  0  0  0  0  0  0  0  0  0
   -1.7030    0.5630   -0.4570 C   0  0  0  0  0  0  0  0  0  0  0  0
   -3.1290    0.3480   -0.3180 C   0  0  0  0  0  0  0  0  0  0  0  0
   -3.9840    0.5030   -1.2650 N   0  0  0  0  0  0  0  0  0  0  0  0
   -5.3830    0.2630   -1.0240 C   0  0  2  0  0  0  0  0  0  0  0  0
   -6.1960    0.1420   -2.3140 C   0  0  0  0  0  0  0  0  0  0  0  0
   -7.3080    0.8830   -1.5770 C   0  0  0  0  0  0  0  0  0  0  0  0
   -6.1940    1.5130   -0.7310 C   0  0  0  0  0  0  0  0  0  0  0  0
   -3.3110   -0.0610    1.0800 C   0  0  0  0  0  0  0  0  0  0  0  0
   -2.0060   -0.7640    1.3770 C   0  0  1  0  0  0  0  0  0  0  0  0
   -2.1220   -2.0840    1.0100 O   0  0  0  0  0  0  0  0  0  0  0  0
  1  2  1  0
  2  3  1  0
  3  4  2  0
  3  8  1  0
  4  5  1  0
  5  6  2  0
  6  7  1  0
  7  8  2  0
  8  9  1  0
  9 10  1  0
 10 11  2  0
 10 15  1  0
 11 12  1  0
 12 13  2  0
 12 14  1  0
 14 15  1  0
 15 16  2  3
 16 17  1  0
 17 18  2  0
 17 26  1  0
 18 19  1  0
 19 20  2  3
 19 25  1  0
 21 20  1  6
 21 22  1  0
 21 24  1  0
 22 23  1  0
 23 24  1  0
 25 26  1  0
 26 27  1  6
M  CHG  1  20   1
M  END
