
     RDKit          3D

 27 29  0  0  0  0  0  0  0  0999 V2000
    6.2580   -1.4090    0.0710 C   0  0  0  0  0  0  0  0  0  0  0  0
    5.1150   -0.6520   -0.4720 C   0  0  0  0  0  0  0  0  0  0  0  0
    3.8250   -0.9260   -0.2690 C   0  0  0  0  0  0  0  0  0  0  0  0
    3.3290   -2.0600    0.5510 C   0  0  0  0  0  0  0  0  0  0  0  0
    3.0360    0.0320   -0.9590 N   0  0  0  0  0  0  0  0  0  0  0  0
    1.6820    0.3730   -0.7020 C   0  0  0  0  0  0  0  0  0  0  0  0
    1.0190    1.3220   -1.4410 C   0  0  0  0  0  0  0  0  0  0  0  0
   -0.3180    1.6690   -1.1970 C   0  0  0  0  0  0  0  0  0  0  0  0
   -1.0250    1.0560   -0.1870 C   0  0  0  0  0  0  0  0  0  0  0  0
   -2.3500    1.3630    0.1900 N   0  0  0  0  0  0  0  0  0  0  0  0
   -3.2650    2.2080   -0.4770 C   0  0  0  0  0  0  0  0  0  0  0  0
   -2.9110    2.7680   -1.5250 O   0  0  0  0  0  0  0  0  0  0  0  0
   -4.6210    2.4410    0.0330 C   0  0  0  0  0  0  0  0  0  0  0  0
   -5.1960    1.9570    1.1080 C   0  0  0  0  0  0  0  0  0  0  0  0
   -6.5330    2.4490    1.2260 N   0  0  0  0  0  0  0  0  0  0  0  0
   -6.7290    3.3010    0.0940 C   0  0  0  0  0  0  0  0  0  0  0  0
   -5.5950    3.2960   -0.6120 C   0  0  0  0  0  0  0  0  0  0  0  0
   -0.3170    0.0980    0.5380 C   0  0  0  0  0  0  0  0  0  0  0  0
   -1.0050   -0.5520    1.5640 O   0  0  0  0  0  0  0  0  0  0  0  0
   -1.6250   -1.7680    1.2940 C   0  0  1  0  0  0  0  0  0  0  0  0
   -2.3430   -2.2980    2.5330 C   0  0  0  0  0  0  0  0  0  0  0  0
   -2.5870   -1.6890    0.1500 C   0  0  0  0  0  0  0  0  0  0  0  0
   -0.6100   -2.8540    0.9410 C   0  0  0  0  0  0  0  0  0  0  0  0
    0.9760   -0.2130    0.2760 N   0  0  0  0  0  0  0  0  0  0  0  0
    3.8710    0.5680   -1.9430 N   0  0  0  0  0  0  0  0  0  0  0  0
    5.1690    0.5390   -1.3320 C   0  0  2  0  0  0  0  0  0  0  0  0
    6.1930    0.3040   -2.4350 C   0  0  0  0  0  0  0  0  0  0  0  0
  1  2  1  0
  2  3  2  0
  2 26  1  0
  3  4  1  0
  3  5  1  0
  5  6  1  0
  5 25  1  0
  6  7  2  0
  6 24  1  0
  7  8  1  0
  8  9  2  0
  9 10  1  0
  9 18  1  0
 10 11  1  0
 11 12  2  0
 11 13  1  0
 13 14  2  0
 13 17  1  0
 14 15  1  0
 15 16  1  0
 16 17  2  0
 18 19  1  0
 18 24  2  0
 19 20  1  0
 20 21  1  1
 20 22  1  0
 20 23  1  0
 25 26  1  0
 26 27  1  6
M  CHG  1  15   1
M  END
