
     RDKit          3D

 27 29  0  0  0  0  0  0  0  0999 V2000
   -0.8920    1.9640    1.3960 C   0  0  0  0  0  0  0  0  0  0  0  0
   -1.4550    2.2190    0.1620 O   0  0  0  0  0  0  0  0  0  0  0  0
   -1.8150    1.0470   -0.5440 C   0  0  2  0  0  0  0  0  0  0  0  0
   -1.3430    1.0300   -1.9320 C   0  0  0  0  0  0  0  0  0  0  0  0
   -0.0660    1.1450   -2.3280 C   0  0  0  0  0  0  0  0  0  0  0  0
    1.0700    1.2980   -1.4590 N   0  0  0  0  0  0  0  0  0  0  0  0
    1.7110    2.5180   -1.2760 C   0  0  0  0  0  0  0  0  0  0  0  0
    1.5260    3.6250   -1.9160 N   0  0  0  0  0  0  0  0  0  0  0  0
    2.6030    2.2850   -0.3230 N   0  0  0  0  0  0  0  0  0  0  0  0
    2.5700    1.0090    0.0980 C   0  0  0  0  0  0  0  0  0  0  0  0
    3.3040    0.3140    1.0420 C   0  0  0  0  0  0  0  0  0  0  0  0
    4.3400    1.0240    1.8180 C   0  0  0  0  0  0  0  0  0  0  0  0
    3.0730   -1.0110    1.2550 C   0  0  0  0  0  0  0  0  0  0  0  0
    3.8660   -1.7670    2.2820 C   0  0  0  0  0  0  0  0  0  0  0  0
    2.1020   -1.6260    0.5060 C   0  0  0  0  0  0  0  0  0  0  0  0
    1.3060   -0.9650   -0.4870 C   0  0  0  0  0  0  0  0  0  0  0  0
    1.5710    0.3720   -0.6550 C   0  0  0  0  0  0  0  0  0  0  0  0
    0.4730   -1.8590   -1.2450 C   0  0  0  0  0  0  0  0  0  0  0  0
    1.3280   -2.8720   -1.7030 O   0  0  0  0  0  0  0  0  0  0  0  0
   -0.8440   -2.1250   -1.7090 C   0  0  0  0  0  0  0  0  0  0  0  0
   -2.0620   -2.2340   -1.2500 C   0  0  0  0  0  0  0  0  0  0  0  0
   -2.7200   -2.1200    0.0280 C   0  0  0  0  0  0  0  0  0  0  0  0
   -2.6410   -3.2530    1.0290 C   0  0  0  0  0  0  0  0  0  0  0  0
   -3.5030   -1.1550    0.4530 N   0  0  0  0  0  0  0  0  0  0  0  0
   -3.9740    0.0080   -0.0790 C   0  0  0  0  0  0  0  0  0  0  0  0
   -5.4850    0.2890   -0.2070 C   0  0  0  0  0  0  0  0  0  0  0  0
   -3.2690    0.9560   -0.5100 N   0  0  0  0  0  0  0  0  0  0  0  0
  1  2  1  0
  3  2  1  6
  3  4  1  0
  3 27  1  0
  4  5  2  0
  5  6  1  0
  6  7  1  0
  6 17  1  0
  7  8  2  0
  7  9  1  0
  9 10  1  0
 10 11  2  0
 10 17  1  0
 11 12  1  0
 11 13  1  0
 13 14  1  0
 13 15  2  0
 15 16  1  0
 16 17  2  0
 16 18  1  0
 18 19  2  0
 18 20  1  0
 20 21  2  0
 21 22  1  0
 22 23  1  0
 22 24  2  0
 24 25  1  0
 25 26  1  0
 25 27  2  0
M  CHG  1   8   1
M  END
