
     RDKit          3D

  9  8  0  0  0  0  0  0  0  0999 V2000
    3.5980   -0.3930    0.5000 C   0  0  0  0  0  0  0  0  0  0  0  0
    3.0840    0.9710    0.0940 C   0  0  0  0  0  0  0  0  0  0  0  0
    1.7530    0.8450   -0.6230 C   0  0  0  0  0  0  0  0  0  0  0  0
    0.7410    0.1850    0.3170 C   0  0  0  0  0  0  0  0  0  0  0  0
   -0.5960    0.0500   -0.3820 C   0  0  0  0  0  0  0  0  0  0  0  0
   -1.5800   -0.5970    0.5480 C   0  0  2  0  0  0  0  0  0  0  0  0
   -1.1070   -1.8510    0.9020 O   0  0  0  0  0  0  0  0  0  0  0  0
   -2.9400   -0.7370   -0.0590 C   0  0  0  0  0  0  0  0  0  0  0  0
   -3.5280    0.6030   -0.4410 C   0  0  0  0  0  0  0  0  0  0  0  0
  1  2  1  0
  2  3  1  0
  3  4  1  0
  4  5  1  0
  5  6  1  0
  6  7  1  6
  6  8  1  0
  8  9  1  0
M  END
