
     RDKit          3D

 27 29  0  0  0  0  0  0  0  0999 V2000
   -2.9200    3.2460    1.9260 C   0  0  0  0  0  0  0  0  0  0  0  0
   -3.4570    2.2700    0.9640 C   0  0  0  0  0  0  0  0  0  0  0  0
   -2.6950    1.3280    0.4110 C   0  0  0  0  0  0  0  0  0  0  0  0
   -1.3010    1.2720    0.7730 C   0  0  0  0  0  0  0  0  0  0  0  0
   -0.1670    1.2390    0.0630 C   0  0  0  0  0  0  0  0  0  0  0  0
    0.1650    1.2470   -1.3200 C   0  0  0  0  0  0  0  0  0  0  0  0
    1.1540    1.6400   -2.0880 C   0  0  0  0  0  0  0  0  0  0  0  0
    2.4300    2.2690   -1.9370 C   0  0  0  0  0  0  0  0  0  0  0  0
    3.4580    2.0580   -1.1470 C   0  0  0  0  0  0  0  0  0  0  0  0
    4.6260    3.0680   -1.4230 C   0  0  0  0  0  0  0  0  0  0  0  0
    3.7160    1.1410   -0.0850 C   0  0  0  0  0  0  0  0  0  0  0  0
    3.3000   -0.0630    0.2900 C   0  0  0  0  0  0  0  0  0  0  0  0
    3.8320   -0.6890    1.5000 N   0  0  0  0  0  0  0  0  0  0  0  0
    3.1710   -1.8780    1.7410 N   0  0  0  0  0  0  0  0  0  0  0  0
    2.2020   -2.0180    0.6740 C   0  0  0  0  0  0  0  0  0  0  0  0
    1.3720   -3.0210    0.7160 N   0  0  0  0  0  0  0  0  0  0  0  0
    0.3400   -3.4800   -0.0630 C   0  0  0  0  0  0  0  0  0  0  0  0
    0.2480   -4.5790   -0.6230 O   0  0  0  0  0  0  0  0  0  0  0  0
   -0.8460   -2.5680   -0.2910 C   0  0  1  0  0  0  0  0  0  0  0  0
   -1.7700   -3.0230   -1.3730 C   0  0  0  0  0  0  0  0  0  0  0  0
   -2.5360   -1.7440   -1.8030 C   0  0  0  0  0  0  0  0  0  0  0  0
   -3.0120   -0.9950   -0.6490 N   0  0  0  0  0  0  0  0  0  0  0  0
   -3.0870   -1.9360    0.4880 C   0  0  0  0  0  0  0  0  0  0  0  0
   -1.7040   -2.3820    0.9260 C   0  0  0  0  0  0  0  0  0  0  0  0
   -3.3660    0.3670   -0.5360 C   0  0  0  0  0  0  0  0  0  0  0  0
   -4.2880    1.0110   -1.1850 O   0  0  0  0  0  0  0  0  0  0  0  0
    2.2890   -0.9170   -0.2150 N   0  0  0  0  0  0  0  0  0  0  0  0
  1  2  1  0
  2  3  2  3
  3  4  1  0
  3 25  1  0
  4  5  2  0
  5  6  1  0
  6  7  2  0
  7  8  1  0
  8  9  2  0
  9 10  1  0
  9 11  1  0
 11 12  2  0
 12 13  1  0
 12 27  1  0
 13 14  1  0
 14 15  1  0
 15 16  2  0
 15 27  1  0
 16 17  1  0
 17 18  2  0
 17 19  1  0
 19 20  1  0
 19 24  1  1
 20 21  1  0
 21 22  1  0
 22 23  1  0
 22 25  1  0
 23 24  1  0
 25 26  2  0
M  END
