
     RDKit          3D

 24 25  0  0  0  0  0  0  0  0999 V2000
    4.3590   -0.6720    1.3640 N   0  0  0  0  0  0  0  0  0  0  0  0
    3.9620   -0.1250    0.2420 C   0  0  0  0  0  0  0  0  0  0  0  0
    4.9400    0.2840   -0.6930 N   0  0  0  0  0  0  0  0  0  0  0  0
    6.7030    0.0980   -0.4470 P   0  0  0  0  0  0  0  0  0  0  0  0
    7.1620   -1.5440   -0.2380 O   0  0  0  0  0  0  0  0  0  0  0  0
    7.3180    1.1430    0.7710 O   0  0  0  0  0  0  0  0  0  0  0  0
    2.5740    0.0470   -0.0180 N   0  0  0  0  0  0  0  0  0  0  0  0
    2.0530    0.1880   -1.3510 C   0  0  0  0  0  0  0  0  0  0  0  0
    0.7890   -0.6530   -1.4270 C   0  0  0  0  0  0  0  0  0  0  0  0
   -0.1880   -0.1580   -0.4470 N   0  0  0  0  0  0  0  0  0  0  0  0
   -1.5580   -0.4800   -0.5650 C   0  0  0  0  0  0  0  0  0  0  0  0
   -1.9370   -1.1940   -1.5140 O   0  0  0  0  0  0  0  0  0  0  0  0
   -2.5160    0.0190    0.4180 C   0  0  0  0  0  0  0  0  0  0  0  0
   -3.9270   -0.3960    0.1750 C   0  0  2  0  0  0  0  0  0  0  0  0
   -4.4450    0.0470   -1.0910 N   0  0  0  0  0  0  0  0  0  0  0  0
   -5.8370    0.1200   -1.3300 C   0  0  0  0  0  0  0  0  0  0  0  0
   -6.3130    0.0900   -2.4850 O   0  0  0  0  0  0  0  0  0  0  0  0
   -6.7690    0.2370   -0.2090 C   0  0  0  0  0  0  0  0  0  0  0  0
   -8.0150    0.3060   -0.3730 O   0  0  0  0  0  0  0  0  0  0  0  0
   -6.1700    0.2680    1.0970 N   0  0  0  0  0  0  0  0  0  0  0  0
   -4.7620    0.1900    1.2820 C   0  0  0  0  0  0  0  0  0  0  0  0
   -4.2320    0.6060    2.3530 O   0  0  0  0  0  0  0  0  0  0  0  0
    0.3210    0.6730    0.6420 C   0  0  0  0  0  0  0  0  0  0  0  0
    1.6310    0.0850    1.0820 C   0  0  0  0  0  0  0  0  0  0  0  0
  1  2  2  0
  2  3  1  0
  2  7  1  0
  3  4  1  0
  4  5  1  0
  4  6  1  0
  7  8  1  0
  7 24  1  0
  8  9  1  0
  9 10  1  0
 10 11  1  0
 10 23  1  0
 11 12  2  0
 11 13  1  0
 14 13  1  1
 14 15  1  0
 14 21  1  0
 15 16  1  0
 16 17  2  0
 16 18  1  0
 18 19  2  0
 18 20  1  0
 20 21  1  0
 21 22  2  0
 23 24  1  0
M  END
