
     RDKit          3D

 12 11  0  0  0  0  0  0  0  0999 V2000
   -3.0030   -2.4900    0.7070 C   0  0  0  0  0  0  0  0  0  0  0  0
   -2.4780   -1.0920    0.3780 C   0  0  0  0  0  0  0  0  0  0  0  0
   -1.8620   -0.6240    1.5350 O   0  0  0  0  0  0  0  0  0  0  0  0
   -1.2140    0.9690    1.3030 P   0  0  0  0  0  0  0  0  0  0  0  0
   -1.6580    1.5260   -0.2780 O   0  0  0  0  0  0  0  0  0  0  0  0
   -2.2800    2.7690   -0.2290 C   0  0  0  0  0  0  0  0  0  0  0  0
    0.5400    0.8670    1.3440 O   0  0  0  0  0  0  0  0  0  0  0  0
    1.2230    0.4970    0.2010 C   0  0  0  0  0  0  0  0  0  0  0  0
    0.5540    0.2460   -0.8290 O   0  0  0  0  0  0  0  0  0  0  0  0
    2.6880    0.3890    0.1550 C   0  0  2  0  0  0  0  0  0  0  0  0
    3.1460   -0.0340   -1.2240 C   0  0  0  0  0  0  0  0  0  0  0  0
    3.2270   -0.6020    1.1680 C   0  0  0  0  0  0  0  0  0  0  0  0
  1  2  1  0
  2  3  1  0
  3  4  1  0
  4  5  1  0
  4  7  1  0
  5  6  1  0
  7  8  1  0
  8  9  2  0
  8 10  1  0
 10 11  1  6
 10 12  1  0
M  END
