
     RDKit          3D

 24 25  0  0  0  0  0  0  0  0999 V2000
    0.4300   -1.9460   -0.1800 O   0  0  0  0  0  0  0  0  0  0  0  0
   -0.3700   -1.3960    0.7000 C   0  0  0  0  0  0  0  0  0  0  0  0
    0.2370   -0.1480    1.2630 C   0  0  0  0  0  0  0  0  0  0  0  0
    1.2590    0.4650    0.4510 N   0  0  0  0  0  0  0  0  0  0  0  0
    2.4660   -0.3690    0.4110 C   0  0  0  0  0  0  0  0  0  0  0  0
    2.5200   -1.4120    1.1210 O   0  0  0  0  0  0  0  0  0  0  0  0
    3.5810   -0.0890   -0.3740 N   0  0  0  0  0  0  0  0  0  0  0  0
    5.0180   -1.2100   -0.3190 P   0  0  0  0  0  0  0  0  0  0  0  0
    5.0120   -2.0390    1.2020 O   0  0  0  0  0  0  0  0  0  0  0  0
    4.7860   -2.3850   -1.5600 O   0  0  0  0  0  0  0  0  0  0  0  0
    1.3460    1.6720   -0.2590 C   0  0  0  0  0  0  0  0  0  0  0  0
    0.7440    2.9630    0.1100 C   0  0  0  0  0  0  0  0  0  0  0  0
   -0.5020    3.2510   -0.7150 N   0  0  0  0  0  0  0  0  0  0  0  0
   -1.5040    2.1670   -0.5480 C   0  0  0  0  0  0  0  0  0  0  0  0
   -1.3230    1.0100   -1.2870 C   0  0  0  0  0  0  0  0  0  0  0  0
   -1.9380   -0.1520   -0.9560 N   0  0  0  0  0  0  0  0  0  0  0  0
   -2.7220   -0.1750    0.0860 C   0  0  0  0  0  0  0  0  0  0  0  0
   -2.9430    0.8640    0.7860 N   0  0  0  0  0  0  0  0  0  0  0  0
   -2.3570    2.1030    0.5240 C   0  0  0  0  0  0  0  0  0  0  0  0
   -2.8540    3.0280    1.5160 O   0  0  0  0  0  0  0  0  0  0  0  0
   -2.9580   -1.6230    0.5300 C   0  0  1  0  0  0  0  0  0  0  0  0
   -3.3350   -2.4140   -0.6780 C   0  0  0  0  0  0  0  0  0  0  0  0
   -2.4650   -2.1830   -1.7510 O   0  0  0  0  0  0  0  0  0  0  0  0
   -1.5520   -2.0500    0.9200 N   0  0  0  0  0  0  0  0  0  0  0  0
  1  2  2  0
  2  3  1  0
  2 24  1  0
  3  4  1  0
  4  5  1  0
  4 11  1  0
  5  6  2  0
  5  7  1  0
  7  8  1  0
  8  9  1  0
  8 10  1  0
 11 12  1  0
 12 13  1  0
 13 14  1  0
 14 15  2  0
 14 19  1  0
 15 16  1  0
 16 17  2  0
 17 18  1  0
 17 21  1  0
 18 19  2  0
 19 20  1  0
 21 22  1  6
 21 24  1  0
 22 23  1  0
M  END
