
     RDKit          3D

 39 41  0  0  0  0  0  0  0  0999 V2000
   -2.0030    1.0400    1.3950 O   0  0  0  0  0  0  0  0  0  0  0  0
   -2.2010    1.7210    0.3570 C   0  0  0  0  0  0  0  0  0  0  0  0
   -2.2470    3.1020    0.4910 O   0  0  0  0  0  0  0  0  0  0  0  0
   -2.3690    1.1040   -0.9030 O   0  0  0  0  0  0  0  0  0  0  0  0
   -2.3070   -0.2620   -0.9350 C   0  0  0  0  0  0  0  0  0  0  0  0
   -3.3870   -0.9790   -0.4220 C   0  0  0  0  0  0  0  0  0  0  0  0
   -4.4790   -0.2580    0.0990 N   0  0  0  0  0  0  0  0  0  0  0  0
   -5.6060   -0.9880    0.6350 C   0  0  0  0  0  0  0  0  0  0  0  0
   -6.9130    0.1740    1.2590 P   0  0  0  0  0  0  0  0  0  0  0  0
   -6.2580    1.7020    1.7150 O   0  0  0  0  0  0  0  0  0  0  0  0
   -7.8330   -0.5560    2.5200 O   0  0  0  0  0  0  0  0  0  0  0  0
   -3.2960   -2.3150   -0.4670 N   0  0  0  0  0  0  0  0  0  0  0  0
   -2.2190   -2.9450   -0.9810 C   0  0  0  0  0  0  0  0  0  0  0  0
   -2.2080   -4.3390   -0.9880 O   0  0  0  0  0  0  0  0  0  0  0  0
   -1.2050   -2.2170   -1.4630 N   0  0  0  0  0  0  0  0  0  0  0  0
   -1.1950   -0.8690   -1.4660 C   0  0  0  0  0  0  0  0  0  0  0  0
   -0.0300   -0.1820   -2.0380 C   0  0  2  0  0  0  0  0  0  0  0  0
   -0.4810    0.5570   -3.2860 C   0  0  0  0  0  0  0  0  0  0  0  0
   -1.1080   -0.2800   -4.1960 O   0  0  0  0  0  0  0  0  0  0  0  0
    0.8940   -1.1980   -2.4760 O   0  0  0  0  0  0  0  0  0  0  0  0
    1.7410   -1.8200   -1.5840 C   0  0  0  0  0  0  0  0  0  0  0  0
    2.1910   -2.9910   -1.8320 O   0  0  0  0  0  0  0  0  0  0  0  0
    2.1020   -1.1400   -0.3890 N   0  0  0  0  0  0  0  0  0  0  0  0
    1.5550    0.1810   -0.1720 C   0  0  0  0  0  0  0  0  0  0  0  0
    1.8860    0.7890    0.9030 N   0  0  0  0  0  0  0  0  0  0  0  0
    2.7560    0.1860    1.8420 C   0  0  0  0  0  0  0  0  0  0  0  0
    2.3850   -0.6810    2.8310 N   0  0  0  0  0  0  0  0  0  0  0  0
    3.4900   -1.0300    3.5080 C   0  0  0  0  0  0  0  0  0  0  0  0
    3.5050   -1.8160    4.4820 O   0  0  0  0  0  0  0  0  0  0  0  0
    4.5240   -0.4230    2.9910 O   0  0  0  0  0  0  0  0  0  0  0  0
    4.1170    0.3240    1.9770 C   0  0  0  0  0  0  0  0  0  0  0  0
    4.9800    1.1500    1.1500 C   0  0  0  0  0  0  0  0  0  0  0  0
    4.5530    1.8440    0.1970 O   0  0  0  0  0  0  0  0  0  0  0  0
    6.3520    1.2050    1.3890 O   0  0  0  0  0  0  0  0  0  0  0  0
    7.4010    2.2140    0.3780 P   0  0  0  0  0  0  0  0  0  0  0  0
    8.3230    1.2320   -0.7160 O   0  0  0  0  0  0  0  0  0  0  0  0
    8.5180    3.0960    1.3680 O   0  0  0  0  0  0  0  0  0  0  0  0
    0.6640    0.7640   -1.1710 C   0  0  0  0  0  0  0  0  0  0  0  0
    0.5160    1.9840   -1.2660 O   0  0  0  0  0  0  0  0  0  0  0  0
  1  2  2  0
  2  3  1  0
  2  4  1  0
  4  5  1  0
  5  6  2  0
  5 16  1  0
  6  7  1  0
  6 12  1  0
  7  8  1  0
  8  9  1  0
  9 10  1  0
  9 11  1  0
 12 13  2  0
 13 14  1  0
 13 15  1  0
 15 16  2  0
 16 17  1  0
 17 18  1  6
 17 20  1  0
 17 38  1  0
 18 19  1  0
 20 21  1  0
 21 22  2  0
 21 23  1  0
 23 24  1  0
 24 25  2  3
 24 38  1  0
 25 26  1  0
 26 27  1  0
 26 31  2  0
 27 28  1  0
 28 29  2  0
 28 30  1  0
 30 31  1  0
 31 32  1  0
 32 33  2  0
 32 34  1  0
 34 35  1  0
 35 36  1  0
 35 37  1  0
 38 39  2  0
M  END
