
     RDKit          3D

 38 39  0  0  0  0  0  0  0  0999 V2000
    2.6380    3.0970   -1.3280 N   0  0  0  0  0  0  0  0  0  0  0  0
    2.2070    2.8470   -0.1400 C   0  0  0  0  0  0  0  0  0  0  0  0
    1.3980    3.8130    0.5150 N   0  0  0  0  0  0  0  0  0  0  0  0
    1.1420    5.4710   -0.1030 P   0  0  0  0  0  0  0  0  0  0  0  0
    2.5440    6.4500    0.1840 O   0  0  0  0  0  0  0  0  0  0  0  0
    0.6300    5.5050   -1.7410 O   0  0  0  0  0  0  0  0  0  0  0  0
    2.5060    1.6420    0.5510 N   0  0  0  0  0  0  0  0  0  0  0  0
    1.3910    0.8130    0.9460 C   0  0  0  0  0  0  0  0  0  0  0  0
    0.2840    0.8560   -0.0510 C   0  0  0  0  0  0  0  0  0  0  0  0
    0.3360    1.7980   -0.8850 O   0  0  0  0  0  0  0  0  0  0  0  0
   -0.7890   -0.0670   -0.1180 N   0  0  0  0  0  0  0  0  0  0  0  0
   -2.1030    0.4500   -0.3900 C   0  0  0  0  0  0  0  0  0  0  0  0
   -2.3590    1.6600   -0.5700 O   0  0  0  0  0  0  0  0  0  0  0  0
   -3.2040   -0.4170   -0.4710 O   0  0  0  0  0  0  0  0  0  0  0  0
   -4.5110    0.0190   -0.7320 C   0  0  2  0  0  0  0  0  0  0  0  0
   -5.3460   -0.3040    0.4940 C   0  0  0  0  0  0  0  0  0  0  0  0
   -6.8260   -0.2510    0.1850 C   0  0  2  0  0  0  0  0  0  0  0  0
   -7.5120   -0.5630    1.3510 O   0  0  0  0  0  0  0  0  0  0  0  0
   -7.1740   -1.2840   -0.8570 C   0  0  0  0  0  0  0  0  0  0  0  0
   -6.4010   -1.0140   -2.0360 O   0  0  0  0  0  0  0  0  0  0  0  0
   -5.0840   -0.5860   -1.9570 C   0  0  0  0  0  0  0  0  0  0  0  0
   -4.3600   -0.7240   -2.9770 O   0  0  0  0  0  0  0  0  0  0  0  0
   -0.6460   -1.5020    0.0660 C   0  0  0  0  0  0  0  0  0  0  0  0
   -0.0970   -1.8830    1.3790 C   0  0  0  0  0  0  0  0  0  0  0  0
   -0.5360   -1.3300    2.4050 O   0  0  0  0  0  0  0  0  0  0  0  0
    0.9140   -2.8580    1.5090 N   0  0  0  0  0  0  0  0  0  0  0  0
    1.4810   -3.6170    0.4270 C   0  0  0  0  0  0  0  0  0  0  0  0
    2.6460   -2.8460   -0.1370 C   0  0  0  0  0  0  0  0  0  0  0  0
    3.8240   -2.4870    1.2310 P   0  0  0  0  0  0  0  0  0  0  0  0
    5.3800   -3.1670    1.0140 O   0  0  0  0  0  0  0  0  0  0  0  0
    3.8300   -0.8570    1.7460 O   0  0  0  0  0  0  0  0  0  0  0  0
    4.3960   -0.0490    0.7900 C   0  0  1  0  0  0  0  0  0  0  0  0
    4.1890   -0.6220   -0.5030 O   0  0  0  0  0  0  0  0  0  0  0  0
    5.2590   -1.0510   -1.2730 C   0  0  0  0  0  0  0  0  0  0  0  0
    6.4490   -0.9550   -0.8680 O   0  0  0  0  0  0  0  0  0  0  0  0
    5.0670   -1.6100   -2.5340 O   0  0  0  0  0  0  0  0  0  0  0  0
    3.8670    1.3440    0.8050 C   0  0  0  0  0  0  0  0  0  0  0  0
    4.7090    2.2760    1.0610 O   0  0  0  0  0  0  0  0  0  0  0  0
  1  2  2  0
  2  3  1  0
  2  7  1  0
  3  4  1  0
  4  5  1  0
  4  6  1  0
  7  8  1  0
  7 37  1  0
  8  9  1  0
  9 10  2  0
  9 11  1  0
 11 12  1  0
 11 23  1  0
 12 13  2  0
 12 14  1  0
 15 14  1  1
 15 16  1  0
 15 21  1  0
 16 17  1  0
 17 18  1  1
 17 19  1  0
 19 20  1  0
 20 21  1  0
 21 22  2  0
 23 24  1  0
 24 25  2  0
 24 26  1  0
 26 27  1  0
 27 28  1  0
 28 29  1  0
 29 30  1  0
 29 31  1  0
 31 32  1  0
 32 33  1  6
 32 37  1  0
 33 34  1  0
 34 35  2  0
 34 36  1  0
 37 38  2  0
M  END
