
     RDKit          3D

 39 41  0  0  0  0  0  0  0  0999 V2000
   -0.0480    0.1190   -2.7520 C   0  0  0  0  0  0  0  0  0  0  0  0
    0.5590   -0.9420   -2.2960 C   0  0  0  0  0  0  0  0  0  0  0  0
    0.8570   -1.9660   -3.3590 C   0  0  0  0  0  0  0  0  0  0  0  0
    2.2790   -1.9570   -3.8170 C   0  0  0  0  0  0  0  0  0  0  0  0
    0.8890   -1.1780   -0.8660 C   0  0  0  0  0  0  0  0  0  0  0  0
    1.5280   -2.2860   -0.6140 C   0  0  0  0  0  0  0  0  0  0  0  0
    1.8810   -3.2540   -1.5970 O   0  0  0  0  0  0  0  0  0  0  0  0
    2.5600   -4.2890   -1.0170 C   0  0  0  0  0  0  0  0  0  0  0  0
    2.6960   -4.1160    0.2240 N   0  0  0  0  0  0  0  0  0  0  0  0
    2.0680   -2.8560    0.5820 C   0  0  0  0  0  0  0  0  0  0  0  0
    2.1080   -2.5040    1.7620 O   0  0  0  0  0  0  0  0  0  0  0  0
    0.4140   -0.1610    0.0690 C   0  0  1  0  0  0  0  0  0  0  0  0
   -0.7840    0.5430   -0.2570 N   0  0  0  0  0  0  0  0  0  0  0  0
   -2.0590    0.0130   -0.2240 C   0  0  1  0  0  0  0  0  0  0  0  0
   -2.3960   -1.2120   -0.9950 C   0  0  0  0  0  0  0  0  0  0  0  0
   -2.9120   -0.0270    1.4190 P   0  0  0  0  0  0  0  0  0  0  0  0
   -3.9090   -1.4700    1.5360 O   0  0  0  0  0  0  0  0  0  0  0  0
   -4.0000    1.3120    1.6230 O   0  0  0  0  0  0  0  0  0  0  0  0
   -5.0670    1.2000    0.8020 N   0  0  0  0  0  0  0  0  0  0  0  0
   -4.8210    1.0100   -0.5840 C   0  0  0  0  0  0  0  0  0  0  0  0
   -5.6890    0.6250   -1.3970 O   0  0  0  0  0  0  0  0  0  0  0  0
   -3.1060    1.3620   -1.1800 P   0  0  0  0  0  0  0  0  0  0  0  0
   -2.6230    3.0310   -0.5300 C   0  0  0  0  0  0  0  0  0  0  0  0
    0.2570   -0.6350    1.4850 C   0  0  0  0  0  0  0  0  0  0  0  0
    0.8220   -0.0120    2.4350 N   0  0  0  0  0  0  0  0  0  0  0  0
    0.7270   -0.3960    3.8310 C   0  0  0  0  0  0  0  0  0  0  0  0
   -0.1490   -1.5450    4.0770 C   0  0  0  0  0  0  0  0  0  0  0  0
   -0.3320   -1.9110    5.2640 O   0  0  0  0  0  0  0  0  0  0  0  0
   -0.7790   -2.2240    2.9580 C   0  0  0  0  0  0  0  0  0  0  0  0
   -1.8330   -3.6760    3.2850 P   0  0  0  0  0  0  0  0  0  0  0  0
   -1.7510   -4.4320    4.6420 O   0  0  0  0  0  0  0  0  0  0  0  0
   -0.5570   -1.7600    1.7680 N   0  0  0  0  0  0  0  0  0  0  0  0
    1.7810    1.1430    0.1330 P   0  0  0  0  0  0  0  0  0  0  0  0
    1.8350    1.7480    1.7550 O   0  0  0  0  0  0  0  0  0  0  0  0
    1.3550    2.4280   -0.9040 O   0  0  0  0  0  0  0  0  0  0  0  0
    2.3790    3.7870   -0.8350 P   0  0  0  0  0  0  0  0  0  0  0  0
    3.9280    3.5620   -1.5120 O   0  0  0  0  0  0  0  0  0  0  0  0
    2.3590    4.6140    0.6630 O   0  0  0  0  0  0  0  0  0  0  0  0
    3.6830    4.9620    0.9820 C   0  0  0  0  0  0  0  0  0  0  0  0
  1  2  2  0
  2  3  1  0
  2  5  1  0
  3  4  1  0
  5  6  2  3
  5 12  1  0
  6  7  1  0
  6 10  1  0
  7  8  1  0
  8  9  2  0
  9 10  1  0
 10 11  2  0
 12 13  1  6
 12 24  1  0
 12 33  1  0
 13 14  1  0
 14 15  1  6
 14 16  1  0
 14 22  1  0
 16 17  1  0
 16 18  1  0
 18 19  1  0
 19 20  1  0
 20 21  2  0
 20 22  1  0
 22 23  1  0
 24 25  2  0
 24 32  1  0
 25 26  1  0
 26 27  1  0
 27 28  2  0
 27 29  1  0
 29 30  1  0
 29 32  2  0
 30 31  2  0
 33 34  1  0
 33 35  1  0
 35 36  1  0
 36 37  1  0
 36 38  1  0
 38 39  1  0
M  END
