
     RDKit          3D

 19 18  0  0  0  0  0  0  0  0999 V2000
   -3.4160   -1.5220    2.9240 C   0  0  0  0  0  0  0  0  0  0  0  0
   -2.4720   -0.9670    1.8930 C   0  0  0  0  0  0  0  0  0  0  0  0
   -2.8730    0.2530    1.3880 O   0  0  0  0  0  0  0  0  0  0  0  0
   -1.7620    0.8270    0.2280 P   0  0  0  0  0  0  0  0  0  0  0  0
   -2.4080    2.0750   -0.9370 C   0  0  0  0  0  0  0  0  0  0  0  0
   -2.4810    1.4440   -2.3120 C   0  0  0  0  0  0  0  0  0  0  0  0
   -3.4160    0.2590   -2.2150 C   0  0  0  0  0  0  0  0  0  0  0  0
   -5.0960    0.8220   -1.6840 P   0  0  0  0  0  0  0  0  0  0  0  0
   -5.3920    1.1050   -0.1950 O   0  0  0  0  0  0  0  0  0  0  0  0
   -0.7480   -0.3540   -0.4610 O   0  0  0  0  0  0  0  0  0  0  0  0
    0.5530   -0.3380    0.0410 C   0  0  0  0  0  0  0  0  0  0  0  0
    1.3260   -1.4260   -0.6540 C   0  0  0  0  0  0  0  0  0  0  0  0
    2.6390   -1.4440   -0.1750 O   0  0  0  0  0  0  0  0  0  0  0  0
    3.5450   -0.4050   -0.2770 C   0  0  0  0  0  0  0  0  0  0  0  0
    3.2270    0.6580   -0.8320 O   0  0  0  0  0  0  0  0  0  0  0  0
    4.8280   -0.5980    0.2680 O   0  0  0  0  0  0  0  0  0  0  0  0
    5.7770    0.4080    0.1960 C   0  0  0  0  0  0  0  0  0  0  0  0
    7.1490    0.2890    0.7420 C   0  0  0  0  0  0  0  0  0  0  0  0
    5.4370    1.4830   -0.3720 O   0  0  0  0  0  0  0  0  0  0  0  0
  1  2  1  0
  2  3  1  0
  3  4  1  0
  4  5  1  0
  4 10  1  0
  5  6  1  0
  6  7  1  0
  7  8  1  0
  8  9  2  0
 10 11  1  0
 11 12  1  0
 12 13  1  0
 13 14  1  0
 14 15  2  0
 14 16  1  0
 16 17  1  0
 17 18  1  0
 17 19  2  0
M  END
