
     RDKit          3D

 18 17  0  0  0  0  0  0  0  0999 V2000
    2.9710    0.4200   -2.4400 C   0  0  0  0  0  0  0  0  0  0  0  0
    3.1440    0.4840   -0.9570 C   0  0  2  0  0  0  0  0  0  0  0  0
    4.4890   -0.0800   -0.5690 C   0  0  0  0  0  0  0  0  0  0  0  0
    4.7160   -0.0050    1.2830 P   0  0  0  0  0  0  0  0  0  0  0  0
    6.4050    0.2820    1.6460 O   0  0  0  0  0  0  0  0  0  0  0  0
    3.7970    1.3350    1.9250 O   0  0  0  0  0  0  0  0  0  0  0  0
    2.0650   -0.2410   -0.2390 C   0  0  0  0  0  0  0  0  0  0  0  0
    2.3740   -1.2090    0.5150 O   0  0  0  0  0  0  0  0  0  0  0  0
    0.7290    0.0980   -0.3600 O   0  0  0  0  0  0  0  0  0  0  0  0
   -0.2260   -0.6480    0.3610 C   0  0  0  0  0  0  0  0  0  0  0  0
   -1.6010   -0.1900    0.1480 C   0  0  0  0  0  0  0  0  0  0  0  0
   -1.8100    0.7500   -0.5940 O   0  0  0  0  0  0  0  0  0  0  0  0
   -2.7430   -0.8440    0.8150 C   0  0  0  0  0  0  0  0  0  0  0  0
   -4.0620   -0.2250    0.4650 C   0  0  1  0  0  0  0  0  0  0  0  0
   -4.1520    1.2270    0.8420 C   0  0  0  0  0  0  0  0  0  0  0  0
   -4.3900   -0.3430   -1.0080 C   0  0  0  0  0  0  0  0  0  0  0  0
   -5.3920   -1.1370    1.4140 P   0  0  0  0  0  0  0  0  0  0  0  0
   -5.8290   -2.5220    0.9070 O   0  0  0  0  0  0  0  0  0  0  0  0
  2  1  1  6
  2  3  1  0
  2  7  1  0
  3  4  1  0
  4  5  1  0
  4  6  1  0
  7  8  2  0
  7  9  1  0
  9 10  1  0
 10 11  1  0
 11 12  2  0
 11 13  1  0
 13 14  1  0
 14 15  1  1
 14 16  1  0
 14 17  1  0
 17 18  2  0
M  END
