
     RDKit          3D

 19 19  0  0  0  0  0  0  0  0999 V2000
   -6.4200    1.5580   -0.6860 C   0  0  0  0  0  0  0  0  0  0  0  0
   -5.5530    0.5090   -0.0510 C   0  0  2  0  0  0  0  0  0  0  0  0
   -5.3920    0.7320    1.3120 O   0  0  0  0  0  0  0  0  0  0  0  0
   -4.8340   -0.3960    1.7750 O   0  0  0  0  0  0  0  0  0  0  0  0
   -3.4530   -0.4020    0.6660 P   0  0  0  0  0  0  0  0  0  0  0  0
   -2.2160    0.7520    1.4240 C   0  0  0  0  0  0  0  0  0  0  0  0
   -0.8840    0.7470    0.7610 C   0  0  0  0  0  0  0  0  0  0  0  0
   -0.2560   -0.6090    0.8580 C   0  0  0  0  0  0  0  0  0  0  0  0
    1.0990   -0.6120    0.1830 C   0  0  0  0  0  0  0  0  0  0  0  0
    1.1420   -0.1020   -0.9620 O   0  0  0  0  0  0  0  0  0  0  0  0
    2.2050   -1.1310    0.7820 O   0  0  0  0  0  0  0  0  0  0  0  0
    3.4690   -1.1410    0.1750 C   0  0  2  0  0  0  0  0  0  0  0  0
    3.5320   -1.9420   -1.1040 C   0  0  0  0  0  0  0  0  0  0  0  0
    4.5120   -1.7040    1.1350 C   0  0  0  0  0  0  0  0  0  0  0  0
    3.9210    0.2760   -0.1510 C   0  0  0  0  0  0  0  0  0  0  0  0
    3.9950    1.0750    0.9740 O   0  0  0  0  0  0  0  0  0  0  0  0
    4.4980    2.6790    0.6180 P   0  0  0  0  0  0  0  0  0  0  0  0
    4.8420    3.0540   -0.8580 O   0  0  0  0  0  0  0  0  0  0  0  0
   -4.3030    0.4170   -0.6460 O   0  0  0  0  0  0  0  0  0  0  0  0
  2  1  1  6
  2  3  1  0
  2 19  1  0
  3  4  1  0
  4  5  1  0
  5  6  1  0
  5 19  1  0
  6  7  1  0
  7  8  1  0
  8  9  1  0
  9 10  2  0
  9 11  1  0
 11 12  1  0
 12 13  1  6
 12 14  1  0
 12 15  1  0
 15 16  1  0
 16 17  1  0
 17 18  2  0
M  END
