
     RDKit          3D

 19 18  0  0  0  0  0  0  0  0999 V2000
    5.4470    2.8860   -0.9620 C   0  0  0  0  0  0  0  0  0  0  0  0
    4.8510    1.7080   -1.4020 O   0  0  0  0  0  0  0  0  0  0  0  0
    4.6200    0.5470   -0.1880 P   0  0  0  0  0  0  0  0  0  0  0  0
    3.0460    0.4540    0.4500 O   0  0  0  0  0  0  0  0  0  0  0  0
    2.0600    0.8020   -0.4880 C   0  0  0  0  0  0  0  0  0  0  0  0
    0.6720    0.6980    0.1500 C   0  0  2  0  0  0  0  0  0  0  0  0
    0.4330   -0.7070    0.6140 C   0  0  0  0  0  0  0  0  0  0  0  0
   -0.3350    1.2540   -0.7720 C   0  0  0  0  0  0  0  0  0  0  0  0
   -1.6600    1.2950   -0.4360 O   0  0  0  0  0  0  0  0  0  0  0  0
   -2.5740    0.3190   -0.2650 C   0  0  0  0  0  0  0  0  0  0  0  0
   -2.2640   -0.8660   -0.4320 O   0  0  0  0  0  0  0  0  0  0  0  0
   -4.0060    0.6090    0.1330 C   0  0  0  0  0  0  0  0  0  0  0  0
   -4.7900   -0.6880    0.2500 C   0  0  2  0  0  0  0  0  0  0  0  0
   -4.1340   -1.5470    1.3040 C   0  0  0  0  0  0  0  0  0  0  0  0
   -4.8140   -1.4470   -1.0400 C   0  0  0  0  0  0  0  0  0  0  0  0
   -6.0770   -0.4150    0.6670 O   0  0  0  0  0  0  0  0  0  0  0  0
    5.5730   -1.3610   -0.5470 P   0  0  0  0  0  0  0  0  0  0  0  0
    4.3730   -2.6150   -0.5270 O   0  0  0  0  0  0  0  0  0  0  0  0
    6.8210   -1.7350    0.5880 O   0  0  0  0  0  0  0  0  0  0  0  0
  1  2  1  0
  2  3  1  0
  3  4  1  0
  3 17  1  0
  4  5  1  0
  5  6  1  0
  6  7  1  6
  6  8  1  0
  8  9  1  0
  9 10  1  0
 10 11  2  0
 10 12  1  0
 12 13  1  0
 13 14  1  1
 13 15  1  0
 13 16  1  0
 17 18  1  0
 17 19  1  0
M  END
