
     RDKit          3D

 20 20  0  0  0  0  0  0  0  0999 V2000
    3.9420   -1.4320   -1.3890 O   0  0  0  0  0  0  0  0  0  0  0  0
    4.4090   -1.1820   -0.2530 C   0  0  0  0  0  0  0  0  0  0  0  0
    4.8340   -2.2730    0.4960 O   0  0  0  0  0  0  0  0  0  0  0  0
    4.4990    0.2010    0.2520 C   0  0  0  0  0  0  0  0  0  0  0  0
    3.9600    1.2420   -0.6780 C   0  0  0  0  0  0  0  0  0  0  0  0
    2.5080    1.0810   -0.9980 C   0  0  0  0  0  0  0  0  0  0  0  0
    1.6490    1.1510    0.2760 C   0  0  0  0  0  0  0  0  0  0  0  0
   -0.0240    0.9610   -0.1360 P   0  0  0  0  0  0  0  0  0  0  0  0
   -0.6270    2.1910    0.5650 O   0  0  0  0  0  0  0  0  0  0  0  0
    0.1180   -0.3360   -0.9650 O   0  0  0  0  0  0  0  0  0  0  0  0
   -1.0150    0.0610    0.9160 O   0  0  0  0  0  0  0  0  0  0  0  0
   -2.3000   -0.1980    0.5850 C   0  0  0  0  0  0  0  0  0  0  0  0
   -2.7210   -1.5290    0.5970 C   0  0  0  0  0  0  0  0  0  0  0  0
   -4.0100   -1.9010    0.2770 C   0  0  0  0  0  0  0  0  0  0  0  0
   -4.9270   -0.9230   -0.0710 C   0  0  0  0  0  0  0  0  0  0  0  0
   -6.2600   -1.2620   -0.4070 N   0  0  0  0  0  0  0  0  0  0  0  0
   -7.0680   -0.3920   -0.7140 O   0  0  0  0  0  0  0  0  0  0  0  0
   -6.6650   -2.5700   -0.3930 O   0  0  0  0  0  0  0  0  0  0  0  0
   -4.5140    0.3880   -0.0840 C   0  0  0  0  0  0  0  0  0  0  0  0
   -3.2340    0.7610    0.2340 C   0  0  0  0  0  0  0  0  0  0  0  0
  1  2  2  0
  2  3  1  0
  2  4  1  0
  4  5  1  0
  5  6  1  0
  6  7  1  0
  7  8  1  0
  8  9  1  0
  8 10  1  0
  8 11  1  0
 11 12  1  0
 12 13  2  0
 12 20  1  0
 13 14  1  0
 14 15  2  0
 15 16  1  0
 15 19  1  0
 16 17  2  0
 16 18  1  0
 19 20  2  0
M  CHG  2  16   1  18  -1
M  END
