
     RDKit          3D

  9  8  0  0  0  0  0  0  0  0999 V2000
    3.3490    0.4040   -0.2710 C   0  0  0  0  0  0  0  0  0  0  0  0
    2.0890   -0.2540   -0.7570 C   0  0  0  0  0  0  0  0  0  0  0  0
    0.8890    0.4620   -0.3190 N   0  0  0  0  0  0  0  0  0  0  0  0
   -0.1500   -0.5080   -0.2130 C   0  0  1  0  0  0  0  0  0  0  0  0
    0.2220   -1.4370    0.7670 O   0  0  0  0  0  0  0  0  0  0  0  0
   -1.4870    0.0410    0.1670 C   0  0  2  0  0  0  0  0  0  0  0  0
   -2.4260   -1.1640    0.3180 C   0  0  0  0  0  0  0  0  0  0  0  0
   -2.0950    0.9160   -0.9000 C   0  0  0  0  0  0  0  0  0  0  0  0
   -1.4580    0.6810    1.4030 O   0  0  0  0  0  0  0  0  0  0  0  0
  1  2  1  0
  2  3  1  0
  3  4  1  0
  4  5  1  1
  4  6  1  0
  6  7  1  1
  6  8  1  0
  6  9  1  0
M  CHG  1   3   1
M  END
