
     RDKit          3D

  9  8  0  0  0  0  0  0  0  0999 V2000
   -1.6320   -0.2670    1.5030 C   0  0  0  0  0  0  0  0  0  0  0  0
   -0.9100    0.0310    0.2030 C   0  0  2  0  0  0  0  0  0  0  0  0
   -1.4980    1.3100   -0.3460 C   0  0  0  0  0  0  0  0  0  0  0  0
   -1.2110   -1.0720   -0.7700 C   0  0  0  0  0  0  0  0  0  0  0  0
   -0.8090   -2.3140   -0.2870 O   0  0  0  0  0  0  0  0  0  0  0  0
    0.4910    0.1460    0.5020 N   0  0  0  0  0  0  0  0  0  0  0  0
    1.2790    0.6890   -0.5610 C   0  0  0  0  0  0  0  0  0  0  0  0
    2.7440    0.4920   -0.1850 C   0  0  0  0  0  0  0  0  0  0  0  0
    3.0590   -0.8360   -0.0180 O   0  0  0  0  0  0  0  0  0  0  0  0
  2  1  1  1
  2  3  1  0
  2  4  1  0
  2  6  1  0
  4  5  1  0
  6  7  1  0
  7  8  1  0
  8  9  1  0
M  CHG  1   6   1
M  END
