
     RDKit          3D

  9  8  0  0  0  0  0  0  0  0999 V2000
   -1.0620    2.1990   -0.6220 N   0  0  0  0  0  0  0  0  0  0  0  0
   -0.7590    0.7660   -0.4990 C   0  0  1  0  0  0  0  0  0  0  0  0
    0.7050    0.6370   -0.2180 C   0  0  0  0  0  0  0  0  0  0  0  0
    1.3600   -0.4630   -0.5200 C   0  0  0  0  0  0  0  0  0  0  0  0
    2.8060   -0.5760   -0.2370 C   0  0  0  0  0  0  0  0  0  0  0  0
    3.1060   -1.6280    0.6320 O   0  0  0  0  0  0  0  0  0  0  0  0
   -1.5840    0.2640    0.6670 C   0  0  0  0  0  0  0  0  0  0  0  0
   -1.3630   -1.2140    0.9040 C   0  0  0  0  0  0  0  0  0  0  0  0
   -2.1300   -1.6380    1.9750 O   0  0  0  0  0  0  0  0  0  0  0  0
  2  1  1  1
  2  3  1  0
  2  7  1  0
  3  4  2  3
  4  5  1  0
  5  6  1  0
  7  8  1  0
  8  9  1  0
M  CHG  1   1   1
M  END
