
     RDKit          3D

  9  8  0  0  0  0  0  0  0  0999 V2000
    2.9280   -0.2240   -0.1680 C   0  0  0  0  0  0  0  0  0  0  0  0
    2.2310    0.8300   -0.9350 C   0  0  0  0  0  0  0  0  0  0  0  0
    3.0000    1.8230   -1.5820 O   0  0  0  0  0  0  0  0  0  0  0  0
    0.9300    0.9170   -1.0670 C   0  0  0  0  0  0  0  0  0  0  0  0
    0.0510   -0.0490   -0.4460 C   0  0  0  0  0  0  0  0  0  0  0  0
    0.5530   -1.0780    0.2940 O   0  0  0  0  0  0  0  0  0  0  0  0
   -1.2700    0.0240   -0.5690 C   0  0  0  0  0  0  0  0  0  0  0  0
   -2.1900   -0.9340    0.0450 C   0  0  0  0  0  0  0  0  0  0  0  0
   -3.1110   -0.2850    0.9760 N   0  0  0  0  0  0  0  0  0  0  0  0
  1  2  1  0
  2  3  1  0
  2  4  2  3
  4  5  1  0
  5  6  1  0
  5  7  2  3
  7  8  1  0
  8  9  1  0
M  CHG  1   9   1
M  END
