
     RDKit          3D

 25 26  0  0  0  0  0  0  0  0999 V2000
   -4.0600   -1.0170   -1.6030 C   0  0  0  0  0  0  0  0  0  0  0  0
   -2.6830   -1.2120   -1.1110 C   0  0  0  0  0  0  0  0  0  0  0  0
   -2.0750   -0.4010   -0.3090 C   0  0  0  0  0  0  0  0  0  0  0  0
   -2.4040    0.8300    0.3430 C   0  0  0  0  0  0  0  0  0  0  0  0
   -3.3020    1.6880   -0.1030 C   0  0  0  0  0  0  0  0  0  0  0  0
   -3.5530    2.8600    0.6040 O   0  0  0  0  0  0  0  0  0  0  0  0
   -1.6120    0.9250    1.4920 O   0  0  0  0  0  0  0  0  0  0  0  0
   -0.9080   -0.3420    1.6020 C   0  0  1  0  0  0  0  0  0  0  0  0
    0.1470   -0.2350    2.5960 C   0  0  0  0  0  0  0  0  0  0  0  0
   -2.0050   -1.2670    2.1610 C   0  0  0  0  0  0  0  0  0  0  0  0
   -0.6120   -0.6720    0.1830 C   0  0  2  0  0  0  0  0  0  0  0  0
    0.1550    0.2790   -0.6290 C   0  0  0  0  0  0  0  0  0  0  0  0
    1.5930    0.4510   -0.6110 C   0  0  2  0  0  0  0  0  0  0  0  0
    2.3540   -0.7120   -0.9140 O   0  0  0  0  0  0  0  0  0  0  0  0
    2.2710    1.3580    0.3460 C   0  0  0  0  0  0  0  0  0  0  0  0
    3.7430    1.3480    0.1070 N   0  0  0  0  0  0  0  0  0  0  0  0
    4.4220    2.1600   -0.7190 C   0  0  0  0  0  0  0  0  0  0  0  0
    3.9390    3.0870   -1.4480 O   0  0  0  0  0  0  0  0  0  0  0  0
    5.7220    1.7960   -0.6200 N   0  0  0  0  0  0  0  0  0  0  0  0
    5.8510    0.8130    0.2180 O   0  0  0  0  0  0  0  0  0  0  0  0
    4.6570    0.5360    0.6630 C   0  0  0  0  0  0  0  0  0  0  0  0
    4.3540   -0.3670    1.5040 O   0  0  0  0  0  0  0  0  0  0  0  0
   -0.3850   -2.0850   -0.0840 C   0  0  0  0  0  0  0  0  0  0  0  0
   -1.0080   -3.1690    0.5770 N   0  0  0  0  0  0  0  0  0  0  0  0
    0.4400   -2.4360   -0.9860 O   0  0  0  0  0  0  0  0  0  0  0  0
  1  2  1  0
  2  3  2  3
  3  4  1  0
  3 11  1  0
  4  5  2  3
  4  7  1  0
  5  6  1  0
  7  8  1  0
  8  9  1  1
  8 10  1  0
  8 11  1  0
 11 12  1  6
 11 23  1  0
 12 13  1  0
 13 14  1  1
 13 15  1  0
 15 16  1  0
 16 17  1  0
 16 21  1  0
 17 18  2  0
 17 19  1  0
 19 20  1  0
 20 21  1  0
 21 22  2  0
 23 24  1  0
 23 25  2  0
M  END
