
     RDKit          3D

 25 26  0  0  0  0  0  0  0  0999 V2000
   -0.1270    2.6440   -2.5690 C   0  0  0  0  0  0  0  0  0  0  0  0
   -0.5770    1.4570   -1.7350 C   0  0  2  0  0  0  0  0  0  0  0  0
   -1.9610    1.6840   -1.3690 N   0  0  0  0  0  0  0  0  0  0  0  0
   -2.6900    0.7510   -0.5800 C   0  0  0  0  0  0  0  0  0  0  0  0
   -2.1210   -0.2790   -0.1990 O   0  0  0  0  0  0  0  0  0  0  0  0
   -4.0490    0.9460   -0.2040 N   0  0  0  0  0  0  0  0  0  0  0  0
   -4.7420   -0.0280    0.5950 C   0  0  0  0  0  0  0  0  0  0  0  0
   -5.2430    0.3030    1.7740 C   0  0  0  0  0  0  0  0  0  0  0  0
   -5.9710   -0.6410    2.6610 C   0  0  0  0  0  0  0  0  0  0  0  0
   -6.0820   -1.9260    2.1340 O   0  0  0  0  0  0  0  0  0  0  0  0
   -5.5680   -2.2790    0.9160 C   0  0  0  0  0  0  0  0  0  0  0  0
   -4.9240   -1.4060    0.1530 C   0  0  0  0  0  0  0  0  0  0  0  0
   -4.4160   -1.8080   -1.0800 O   0  0  0  0  0  0  0  0  0  0  0  0
    0.3160    1.3150   -0.5360 C   0  0  0  0  0  0  0  0  0  0  0  0
    0.7920   -0.1090   -0.5640 C   0  0  2  0  0  0  0  0  0  0  0  0
    2.3300   -0.1660   -0.6320 C   0  0  0  0  0  0  0  0  0  0  0  0
    2.8030    0.4560    0.4940 O   0  0  0  0  0  0  0  0  0  0  0  0
    4.1530    0.5580    0.6400 C   0  0  0  0  0  0  0  0  0  0  0  0
    4.8930   -0.7420    0.6870 C   0  0  1  0  0  0  0  0  0  0  0  0
    4.7890   -1.5230   -0.4340 O   0  0  0  0  0  0  0  0  0  0  0  0
    6.3440   -0.4770    1.0650 C   0  0  0  0  0  0  0  0  0  0  0  0
    6.9380   -1.7940    1.3100 N   0  0  0  0  0  0  0  0  0  0  0  0
    0.2330   -0.7310   -1.6910 O   0  0  0  0  0  0  0  0  0  0  0  0
   -0.4150    0.1960   -2.4940 C   0  0  0  0  0  0  0  0  0  0  0  0
   -0.8110    0.0200   -3.6740 O   0  0  0  0  0  0  0  0  0  0  0  0
  2  1  1  6
  2  3  1  0
  2 14  1  0
  2 24  1  0
  3  4  1  0
  4  5  2  0
  4  6  1  0
  6  7  1  0
  7  8  2  0
  7 12  1  0
  8  9  1  0
  9 10  1  0
 10 11  1  0
 11 12  2  0
 12 13  1  0
 14 15  1  0
 15 16  1  6
 15 23  1  0
 16 17  1  0
 17 18  1  0
 18 19  1  0
 19 20  1  6
 19 21  1  0
 21 22  1  0
 23 24  1  0
 24 25  2  0
M  END
