
     RDKit          3D

 25 26  0  0  0  0  0  0  0  0999 V2000
   -1.5630   -2.8180    0.6040 C   0  0  0  0  0  0  0  0  0  0  0  0
   -1.2610   -1.8920   -0.5390 C   0  0  0  0  0  0  0  0  0  0  0  0
   -1.5620   -0.4400   -0.1800 C   0  0  1  0  0  0  0  0  0  0  0  0
   -2.9050   -0.3680    0.1320 O   0  0  0  0  0  0  0  0  0  0  0  0
   -3.2190    0.9980    0.2250 C   0  0  2  0  0  0  0  0  0  0  0  0
   -2.6330    1.4950    1.5060 C   0  0  0  0  0  0  0  0  0  0  0  0
   -1.1860    1.2000    1.6900 C   0  0  0  0  0  0  0  0  0  0  0  0
   -0.6670    0.0330    0.9330 C   0  0  2  0  0  0  0  0  0  0  0  0
    0.6180    0.3880    0.3610 N   0  0  0  0  0  0  0  0  0  0  0  0
    1.8010   -0.3360    0.6670 C   0  0  0  0  0  0  0  0  0  0  0  0
    1.6890   -1.3050    1.4590 O   0  0  0  0  0  0  0  0  0  0  0  0
    3.0380   -0.0370    0.1510 O   0  0  0  0  0  0  0  0  0  0  0  0
    4.2070   -0.7900    0.4830 C   0  0  0  0  0  0  0  0  0  0  0  0
    5.4030   -0.2670   -0.2020 C   0  0  0  0  0  0  0  0  0  0  0  0
    5.8450    1.1460    0.0390 C   0  0  0  0  0  0  0  0  0  0  0  0
    6.0710   -1.0390   -1.0120 C   0  0  0  0  0  0  0  0  0  0  0  0
    5.6610   -2.3330   -1.2280 O   0  0  0  0  0  0  0  0  0  0  0  0
   -4.6880    1.1930    0.2620 C   0  0  0  0  0  0  0  0  0  0  0  0
   -5.3150    1.4850    1.3110 O   0  0  0  0  0  0  0  0  0  0  0  0
   -5.4100    1.0410   -0.9540 N   0  0  0  0  0  0  0  0  0  0  0  0
   -4.7720    1.2450   -2.2300 C   0  0  0  0  0  0  0  0  0  0  0  0
   -5.4080    1.1110   -3.3020 O   0  0  0  0  0  0  0  0  0  0  0  0
   -3.3960    1.6030   -2.1860 N   0  0  0  0  0  0  0  0  0  0  0  0
   -2.7080    1.7460   -0.9490 C   0  0  0  0  0  0  0  0  0  0  0  0
   -1.6910    2.4980   -0.8860 O   0  0  0  0  0  0  0  0  0  0  0  0
  1  2  1  0
  3  2  1  1
  3  4  1  0
  3  8  1  0
  4  5  1  0
  5  6  1  1
  5 18  1  0
  5 24  1  0
  6  7  1  0
  7  8  1  0
  8  9  1  6
  9 10  1  0
 10 11  2  0
 10 12  1  0
 12 13  1  0
 13 14  1  0
 14 15  1  0
 14 16  2  3
 16 17  1  0
 18 19  2  0
 18 20  1  0
 20 21  1  0
 21 22  2  0
 21 23  1  0
 23 24  1  0
 24 25  2  0
M  END
