
     RDKit          3D

 24 25  0  0  0  0  0  0  0  0999 V2000
    5.5480   -0.8170   -0.1260 C   0  0  0  0  0  0  0  0  0  0  0  0
    4.6270    0.2550    0.4560 C   0  0  1  0  0  0  0  0  0  0  0  0
    5.4880    1.4920    0.6440 C   0  0  0  0  0  0  0  0  0  0  0  0
    4.6910    2.5650    1.0680 O   0  0  0  0  0  0  0  0  0  0  0  0
    3.5940    0.4810   -0.5380 N   0  0  0  0  0  0  0  0  0  0  0  0
    2.2240    0.2730   -0.2220 C   0  0  0  0  0  0  0  0  0  0  0  0
    1.9690   -0.1100    0.9500 O   0  0  0  0  0  0  0  0  0  0  0  0
    1.1710    0.4720   -1.1350 N   0  0  0  0  0  0  0  0  0  0  0  0
   -0.2440    0.2560   -0.8050 C   0  0  2  0  0  0  0  0  0  0  0  0
   -0.9130   -0.6450   -1.7890 C   0  0  0  0  0  0  0  0  0  0  0  0
   -1.1440   -2.0450   -1.3400 C   0  0  1  0  0  0  0  0  0  0  0  0
   -0.4620   -2.6980   -0.2340 C   0  0  0  0  0  0  0  0  0  0  0  0
   -1.7920   -2.0960   -0.0010 C   0  0  2  0  0  0  0  0  0  0  0  0
   -3.0610   -2.8900   -0.1100 C   0  0  0  0  0  0  0  0  0  0  0  0
   -3.8980   -2.5570    0.9230 O   0  0  0  0  0  0  0  0  0  0  0  0
   -4.0880   -1.1950    1.0970 C   0  0  0  0  0  0  0  0  0  0  0  0
   -3.8950   -0.4520   -0.0640 O   0  0  0  0  0  0  0  0  0  0  0  0
   -3.7010    0.8960   -0.1840 C   0  0  0  0  0  0  0  0  0  0  0  0
   -4.2990    1.5410   -1.0670 O   0  0  0  0  0  0  0  0  0  0  0  0
   -2.7880    1.6180    0.7220 C   0  0  2  0  0  0  0  0  0  0  0  0
   -3.5250    2.6650    1.5440 C   0  0  0  0  0  0  0  0  0  0  0  0
   -1.6820    2.2270    0.0140 N   0  0  0  0  0  0  0  0  0  0  0  0
   -0.8690    1.6060   -0.9440 C   0  0  0  0  0  0  0  0  0  0  0  0
   -0.6020    2.1950   -2.0500 O   0  0  0  0  0  0  0  0  0  0  0  0
  2  1  1  6
  2  3  1  0
  2  5  1  0
  3  4  1  0
  5  6  1  0
  6  7  2  0
  6  8  1  0
  9  8  1  6
  9 10  1  0
  9 23  1  0
 11 10  1  1
 11 12  1  0
 11 13  1  0
 13 12  1  1
 13 14  1  0
 14 15  1  0
 15 16  1  0
 16 17  1  0
 17 18  1  0
 18 19  2  0
 18 20  1  0
 20 21  1  6
 20 22  1  0
 22 23  1  0
 23 24  2  0
M  END
