
     RDKit          3D

 23 24  0  0  0  0  0  0  0  0999 V2000
    8.1470    2.5810    0.3530 C   0  0  0  0  0  0  0  0  0  0  0  0
    6.7960    1.9610    0.4290 C   0  0  0  0  0  0  0  0  0  0  0  0
    5.7110    1.4510    0.4720 C   0  0  0  0  0  0  0  0  0  0  0  0
    4.3950    0.8500    0.5300 C   0  0  0  0  0  0  0  0  0  0  0  0
    3.9260    0.1550    1.6070 C   0  0  0  0  0  0  0  0  0  0  0  0
    2.6600   -0.3880    1.6000 C   0  0  0  0  0  0  0  0  0  0  0  0
    1.8020   -0.2630    0.5180 C   0  0  0  0  0  0  0  0  0  0  0  0
    0.4550   -0.8480    0.4990 C   0  0  0  0  0  0  0  0  0  0  0  0
    0.3090   -2.2070    0.9780 C   0  0  0  0  0  0  0  0  0  0  0  0
    1.3290   -2.8300    1.4030 O   0  0  0  0  0  0  0  0  0  0  0  0
   -0.5600   -0.1850    0.0460 C   0  0  0  0  0  0  0  0  0  0  0  0
   -0.2710    1.1330   -0.4270 O   0  0  0  0  0  0  0  0  0  0  0  0
   -1.0840    2.1490    0.1270 C   0  0  0  0  0  0  0  0  0  0  0  0
   -1.9430   -0.5780   -0.0470 C   0  0  0  0  0  0  0  0  0  0  0  0
   -2.6130   -1.1360    1.0010 C   0  0  0  0  0  0  0  0  0  0  0  0
   -3.9580   -1.5310    0.8850 C   0  0  0  0  0  0  0  0  0  0  0  0
   -4.6290   -1.3610   -0.2940 C   0  0  0  0  0  0  0  0  0  0  0  0
   -6.0480   -1.7960   -0.3510 C   0  0  0  0  0  0  0  0  0  0  0  0
   -3.9760   -0.8020   -1.3650 C   0  0  0  0  0  0  0  0  0  0  0  0
   -4.7200   -0.6280   -2.6330 C   0  0  0  0  0  0  0  0  0  0  0  0
   -2.6490   -0.4130   -1.2460 C   0  0  0  0  0  0  0  0  0  0  0  0
    2.2930    0.4420   -0.5600 C   0  0  0  0  0  0  0  0  0  0  0  0
    3.5710    0.9920   -0.5580 C   0  0  0  0  0  0  0  0  0  0  0  0
  1  2  1  0
  2  3  3  0
  3  4  1  0
  4  5  2  0
  4 23  1  0
  5  6  1  0
  6  7  2  0
  7  8  1  0
  7 22  1  0
  8  9  1  0
  8 11  2  3
  9 10  2  0
 11 12  1  0
 11 14  1  0
 12 13  1  0
 14 15  2  0
 14 21  1  0
 15 16  1  0
 16 17  2  0
 17 18  1  0
 17 19  1  0
 19 20  1  0
 19 21  2  0
 22 23  2  0
M  END
