
     RDKit          3D

 17 18  0  0  0  0  0  0  0  0999 V2000
   -2.9490    1.9090   -0.5300 N   0  0  0  0  0  0  0  0  0  0  0  0
   -1.5850    1.5440   -0.5500 C   0  0  0  0  0  0  0  0  0  0  0  0
   -0.8260    2.2190   -1.2970 O   0  0  0  0  0  0  0  0  0  0  0  0
   -1.0560    0.4010    0.2840 C   0  0  1  0  0  0  0  0  0  0  0  0
    0.3500    0.3070    0.0290 N   0  0  0  0  0  0  0  0  0  0  0  0
    1.2350   -0.6230    0.6330 C   0  0  0  0  0  0  0  0  0  0  0  0
    0.7770   -1.4410    1.4670 O   0  0  0  0  0  0  0  0  0  0  0  0
    2.6560   -0.6300    0.2930 C   0  0  0  0  0  0  0  0  0  0  0  0
    3.2880    0.1480   -0.5470 C   0  0  0  0  0  0  0  0  0  0  0  0
    4.6260   -0.1810   -0.5830 O   0  0  0  0  0  0  0  0  0  0  0  0
    4.8780   -0.9570    0.5730 C   0  0  0  0  0  0  0  0  0  0  0  0
    3.5930   -1.5200    0.8500 O   0  0  0  0  0  0  0  0  0  0  0  0
   -1.3940    0.7060    1.7070 C   0  0  0  0  0  0  0  0  0  0  0  0
   -3.1910    0.3580    1.6780 S   0  0  0  0  0  0  0  0  0  0  0  0
   -3.1450   -0.8500    0.3020 C   0  0  0  0  0  0  0  0  0  0  0  0
   -1.7150   -0.8870   -0.1030 C   0  0  1  0  0  0  0  0  0  0  0  0
   -1.6840   -0.9450   -1.5160 O   0  0  0  0  0  0  0  0  0  0  0  0
  1  2  1  0
  2  3  2  0
  2  4  1  0
  4  5  1  1
  4 13  1  0
  4 16  1  0
  5  6  1  0
  6  7  2  0
  6  8  1  0
  8  9  2  0
  8 12  1  0
  9 10  1  0
 10 11  1  0
 11 12  1  0
 13 14  1  0
 14 15  1  0
 15 16  1  0
 16 17  1  6
M  END
