
     RDKit          3D

 17 18  0  0  0  0  0  0  0  0999 V2000
    3.5610    1.3100    1.1090 N   0  0  0  0  0  0  0  0  0  0  0  0
    3.4690    0.2060   -0.2430 S   0  0  2  0  0  0  0  0  0  0  0  0
    3.7820   -1.1420    0.2740 O   0  0  0  0  0  0  0  0  0  0  0  0
    4.4980    0.6860   -1.2430 O   0  0  0  0  0  0  0  0  0  0  0  0
    1.9280    0.3500   -0.9390 N   0  0  0  0  0  0  0  0  0  0  0  0
    0.9170   -0.4970   -0.4390 C   0  0  2  0  0  0  0  0  0  0  0  0
    0.2940   -1.3710   -1.4480 C   0  0  0  0  0  0  0  0  0  0  0  0
    0.5300   -1.1580   -2.6600 O   0  0  0  0  0  0  0  0  0  0  0  0
   -0.5510   -2.4360   -1.1920 O   0  0  0  0  0  0  0  0  0  0  0  0
   -1.3200   -2.8050   -0.0760 C   0  0  0  0  0  0  0  0  0  0  0  0
   -1.6460   -1.6240    0.8140 C   0  0  0  0  0  0  0  0  0  0  0  0
   -1.5410   -0.3750   -0.0250 C   0  0  1  0  0  0  0  0  0  0  0  0
   -2.5050    0.6880    0.3720 C   0  0  0  0  0  0  0  0  0  0  0  0
   -1.8920    1.9480   -0.1850 C   0  0  0  0  0  0  0  0  0  0  0  0
   -0.4390    1.6380   -0.5000 C   0  0  0  0  0  0  0  0  0  0  0  0
   -0.1970    0.3200    0.1770 C   0  0  2  0  0  0  0  0  0  0  0  0
    0.0370    0.5740    1.5240 O   0  0  0  0  0  0  0  0  0  0  0  0
  2  1  1  1
  2  3  2  0
  2  4  2  0
  2  5  1  0
  6  5  1  6
  6  7  1  0
  6 16  1  0
  7  8  2  0
  7  9  1  0
  9 10  1  0
 10 11  1  0
 12 11  1  1
 12 13  1  0
 12 16  1  0
 13 14  1  0
 14 15  1  0
 15 16  1  0
 16 17  1  1
M  END
