
     RDKit          3D

 19 21  0  0  0  0  0  0  0  0999 V2000
    4.7160    0.6460    0.7170 N   0  0  0  0  0  0  0  0  0  0  0  0
    4.3860   -0.3330   -0.2430 C   0  0  0  0  0  0  0  0  0  0  0  0
    5.3180   -0.9730   -0.8370 N   0  0  0  0  0  0  0  0  0  0  0  0
    2.9950   -0.6010   -0.5430 C   0  0  0  0  0  0  0  0  0  0  0  0
    2.5800   -1.5370   -1.4640 C   0  0  0  0  0  0  0  0  0  0  0  0
    1.2290   -1.7710   -1.7300 C   0  0  0  0  0  0  0  0  0  0  0  0
    0.2990   -1.0270   -1.0350 C   0  0  0  0  0  0  0  0  0  0  0  0
   -1.0430   -0.9720   -1.0190 N   0  0  0  0  0  0  0  0  0  0  0  0
   -1.4910   -0.0580   -0.1450 C   0  0  0  0  0  0  0  0  0  0  0  0
   -2.9190    0.2150    0.0790 C   0  0  0  0  0  0  0  0  0  0  0  0
   -3.8630   -0.4690   -0.6120 N   0  0  0  0  0  0  0  0  0  0  0  0
   -5.1740   -0.3080   -0.4940 C   0  0  0  0  0  0  0  0  0  0  0  0
   -5.6380    0.6380    0.4110 C   0  0  0  0  0  0  0  0  0  0  0  0
   -4.7350    1.3710    1.1490 C   0  0  0  0  0  0  0  0  0  0  0  0
   -3.3690    1.1520    0.9750 C   0  0  0  0  0  0  0  0  0  0  0  0
   -2.4940    1.8940    1.7210 O   0  0  0  0  0  0  0  0  0  0  0  0
   -0.4160    0.4890    0.4160 N   0  0  0  0  0  0  0  0  0  0  0  0
    0.7050   -0.0860   -0.1090 C   0  0  0  0  0  0  0  0  0  0  0  0
    2.0250    0.1370    0.1450 C   0  0  0  0  0  0  0  0  0  0  0  0
  1  2  1  0
  2  3  2  0
  2  4  1  0
  4  5  2  0
  4 19  1  0
  5  6  1  0
  6  7  2  0
  7  8  1  0
  7 18  1  0
  8  9  2  0
  9 10  1  0
  9 17  1  0
 10 11  2  0
 10 15  1  0
 11 12  1  0
 12 13  2  0
 13 14  1  0
 14 15  2  0
 15 16  1  0
 17 18  1  0
 18 19  2  0
M  CHG  1   3   1
M  END
