
     RDKit          3D

 27 28  0  0  0  0  0  0  0  0999 V2000
   -0.8160   -1.9410    1.0530 O   0  0  0  0  0  0  0  0  0  0  0  0
   -0.8220   -1.4190   -0.1030 C   0  0  0  0  0  0  0  0  0  0  0  0
   -1.9880   -1.3000   -0.7780 O   0  0  0  0  0  0  0  0  0  0  0  0
   -2.4090   -0.3060   -1.6540 C   0  0  0  0  0  0  0  0  0  0  0  0
   -3.8610    0.0370   -1.2920 C   0  0  1  0  0  0  0  0  0  0  0  0
   -4.4750   -1.1990   -0.7160 C   0  0  0  0  0  0  0  0  0  0  0  0
   -4.2410   -2.2320   -1.6560 O   0  0  0  0  0  0  0  0  0  0  0  0
   -3.9740    1.1620   -0.5330 O   0  0  0  0  0  0  0  0  0  0  0  0
   -3.4860    1.1030    0.7390 C   0  0  0  0  0  0  0  0  0  0  0  0
   -2.4920    2.2220    1.0390 C   0  0  2  0  0  0  0  0  0  0  0  0
   -2.2260    2.8360   -0.1880 O   0  0  0  0  0  0  0  0  0  0  0  0
   -1.2650    1.7180    1.7100 C   0  0  0  0  0  0  0  0  0  0  0  0
   -0.0680    2.0240    1.0650 O   0  0  0  0  0  0  0  0  0  0  0  0
    0.6970    1.3260    0.1960 C   0  0  0  0  0  0  0  0  0  0  0  0
    1.0720    1.8870   -0.8640 O   0  0  0  0  0  0  0  0  0  0  0  0
    1.1350   -0.0750    0.4050 C   0  0  2  0  0  0  0  0  0  0  0  0
    2.6170   -0.2030    0.6010 C   0  0  2  0  0  0  0  0  0  0  0  0
    2.9100   -1.5460    0.7900 O   0  0  0  0  0  0  0  0  0  0  0  0
    2.9110    0.4080    1.8460 O   0  0  0  0  0  0  0  0  0  0  0  0
    4.1650    0.9600    1.8860 C   0  0  0  0  0  0  0  0  0  0  0  0
    5.1890    0.2730    1.0430 C   0  0  0  0  0  0  0  0  0  0  0  0
    4.7690   -0.0900   -0.2090 O   0  0  0  0  0  0  0  0  0  0  0  0
    3.4790    0.4710   -0.3940 C   0  0  1  0  0  0  0  0  0  0  0  0
    3.0790    0.4170   -1.7030 O   0  0  0  0  0  0  0  0  0  0  0  0
    0.5290   -0.9760   -0.6080 C   0  0  1  0  0  0  0  0  0  0  0  0
    1.2490   -2.2410   -0.9100 C   0  0  0  0  0  0  0  0  0  0  0  0
    0.4700   -2.9080   -1.8910 O   0  0  0  0  0  0  0  0  0  0  0  0
  1  2  2  0
  2  3  1  0
  2 25  1  0
  3  4  1  0
  4  5  1  0
  5  6  1  1
  5  8  1  0
  6  7  1  0
  8  9  1  0
  9 10  1  0
 10 11  1  6
 10 12  1  0
 12 13  1  0
 13 14  1  0
 14 15  2  0
 16 14  1  6
 16 17  1  0
 16 25  1  0
 17 18  1  1
 17 19  1  0
 17 23  1  0
 19 20  1  0
 20 21  1  0
 21 22  1  0
 22 23  1  0
 23 24  1  6
 25 26  1  1
 26 27  1  0
M  END
