
     RDKit          3D

 16 16  0  0  0  0  0  0  0  0999 V2000
   -3.4500    2.3710    0.8870 C   0  0  0  0  0  0  0  0  0  0  0  0
   -2.4690    1.5020    0.1940 C   0  0  0  0  0  0  0  0  0  0  0  0
   -2.6900    0.2160   -0.0020 C   0  0  0  0  0  0  0  0  0  0  0  0
   -3.9190   -0.4890    0.4410 C   0  0  0  0  0  0  0  0  0  0  0  0
   -3.8860   -1.6790   -0.3820 N   0  0  0  0  0  0  0  0  0  0  0  0
   -2.5600   -1.8180   -0.8560 C   0  0  0  0  0  0  0  0  0  0  0  0
   -1.8230   -0.7510   -0.6620 C   0  0  0  0  0  0  0  0  0  0  0  0
   -0.3900   -0.5230   -1.0230 C   0  0  0  0  0  0  0  0  0  0  0  0
    0.3880   -0.2420    0.1380 O   0  0  0  0  0  0  0  0  0  0  0  0
    1.7410   -0.0120   -0.0760 C   0  0  0  0  0  0  0  0  0  0  0  0
    2.2280   -0.0560   -1.2450 O   0  0  0  0  0  0  0  0  0  0  0  0
    2.6370    0.2900    1.0770 C   0  0  0  0  0  0  0  0  0  0  0  0
    3.9520    0.4860    0.6420 O   0  0  0  0  0  0  0  0  0  0  0  0
    4.6440   -0.5110   -0.0220 C   0  0  0  0  0  0  0  0  0  0  0  0
    6.0220   -0.2740   -0.4660 C   0  0  0  0  0  0  0  0  0  0  0  0
    4.0990   -1.6180   -0.2470 O   0  0  0  0  0  0  0  0  0  0  0  0
  1  2  1  0
  2  3  2  3
  3  4  1  0
  3  7  1  0
  4  5  1  0
  5  6  1  0
  6  7  2  0
  7  8  1  0
  8  9  1  0
  9 10  1  0
 10 11  2  0
 10 12  1  0
 12 13  1  0
 13 14  1  0
 14 15  1  0
 14 16  2  0
M  END
