
     RDKit          3D

 16 17  0  0  0  0  0  0  0  0999 V2000
   -2.0720    3.1080   -0.0170 O   0  0  0  0  0  0  0  0  0  0  0  0
   -2.6120    1.9900   -0.1220 C   0  0  0  0  0  0  0  0  0  0  0  0
   -3.9640    1.8740   -0.2110 O   0  0  0  0  0  0  0  0  0  0  0  0
   -4.7490    0.7360    0.0540 C   0  0  0  0  0  0  0  0  0  0  0  0
   -3.9210   -0.4790    0.3970 C   0  0  0  0  0  0  0  0  0  0  0  0
   -2.6170   -0.4220   -0.2690 N   0  0  0  0  0  0  0  0  0  0  0  0
   -1.8060    0.7280   -0.1510 C   0  0  0  0  0  0  0  0  0  0  0  0
   -0.5260    0.7980   -0.0990 C   0  0  0  0  0  0  0  0  0  0  0  0
    0.4990   -0.1970   -0.0980 C   0  0  0  0  0  0  0  0  0  0  0  0
    0.5440   -1.5200   -0.3770 C   0  0  0  0  0  0  0  0  0  0  0  0
    1.8260   -1.9680   -0.2020 C   0  0  0  0  0  0  0  0  0  0  0  0
    2.5680   -0.8770    0.1970 C   0  0  0  0  0  0  0  0  0  0  0  0
    4.0430   -0.8380    0.5240 C   0  0  0  0  0  0  0  0  0  0  0  0
    4.3930    0.6240    0.7730 C   0  0  0  0  0  0  0  0  0  0  0  0
    4.1060    1.3170   -0.4110 O   0  0  0  0  0  0  0  0  0  0  0  0
    1.7750    0.1450    0.2510 O   0  0  0  0  0  0  0  0  0  0  0  0
  1  2  2  0
  2  3  1  0
  2  7  1  0
  3  4  1  0
  4  5  1  0
  5  6  1  0
  6  7  1  0
  7  8  2  3
  8  9  1  0
  9 10  2  0
  9 16  1  0
 10 11  1  0
 11 12  2  0
 12 13  1  0
 12 16  1  0
 13 14  1  0
 14 15  1  0
M  END
