
     RDKit          3D

 25 26  0  0  0  0  0  0  0  0999 V2000
   -4.9220   -1.0880    1.7070 C   0  0  0  0  0  0  0  0  0  0  0  0
   -3.8280   -0.1750    1.2600 C   0  0  0  0  0  0  0  0  0  0  0  0
   -3.2670   -0.4180    0.0950 C   0  0  0  0  0  0  0  0  0  0  0  0
   -3.7340   -1.5050   -0.6250 O   0  0  0  0  0  0  0  0  0  0  0  0
   -3.2290   -2.0860   -1.7920 C   0  0  0  0  0  0  0  0  0  0  0  0
   -1.7850   -2.1720   -1.7950 N   0  0  0  0  0  0  0  0  0  0  0  0
   -0.8530   -1.0730   -1.6660 C   0  0  0  0  0  0  0  0  0  0  0  0
    0.3150   -1.2240   -2.0890 O   0  0  0  0  0  0  0  0  0  0  0  0
   -1.1440    0.2330   -1.0760 C   0  0  0  0  0  0  0  0  0  0  0  0
   -2.1880    0.5100   -0.3190 C   0  0  0  0  0  0  0  0  0  0  0  0
   -2.4060    1.8100    0.1880 N   0  0  0  0  0  0  0  0  0  0  0  0
   -1.4660    2.8250   -0.1390 C   0  0  0  0  0  0  0  0  0  0  0  0
   -1.3170    3.8270    0.6000 O   0  0  0  0  0  0  0  0  0  0  0  0
   -0.6750    2.6340   -1.3940 C   0  0  0  0  0  0  0  0  0  0  0  0
   -0.1000    1.2280   -1.4330 C   0  0  1  0  0  0  0  0  0  0  0  0
    1.0900    1.1300   -0.5360 C   0  0  0  0  0  0  0  0  0  0  0  0
    1.3930    2.1410    0.1390 O   0  0  0  0  0  0  0  0  0  0  0  0
    1.8770    0.0110   -0.3990 O   0  0  0  0  0  0  0  0  0  0  0  0
    3.0010   -0.0220    0.4740 C   0  0  2  0  0  0  0  0  0  0  0  0
    4.2100   -0.2800   -0.3730 C   0  0  0  0  0  0  0  0  0  0  0  0
    5.3920   -0.3370    0.3270 O   0  0  0  0  0  0  0  0  0  0  0  0
    5.7170    0.8090    1.0120 C   0  0  0  0  0  0  0  0  0  0  0  0
    2.8160   -1.0940    1.5080 C   0  0  0  0  0  0  0  0  0  0  0  0
    1.6600   -1.9010    1.5320 N   0  0  0  0  0  0  0  0  0  0  0  0
    3.6980   -1.2930    2.3810 O   0  0  0  0  0  0  0  0  0  0  0  0
  1  2  1  0
  2  3  2  3
  3  4  1  0
  3 10  1  0
  4  5  1  0
  5  6  1  0
  6  7  1  0
  7  8  2  0
  7  9  1  0
  9 10  2  0
  9 15  1  0
 10 11  1  0
 11 12  1  0
 12 13  2  0
 12 14  1  0
 14 15  1  0
 15 16  1  1
 16 17  2  0
 16 18  1  0
 18 19  1  0
 19 20  1  6
 19 23  1  0
 20 21  1  0
 21 22  1  0
 23 24  1  0
 23 25  2  0
M  END
