
     RDKit          3D

 25 26  0  0  0  0  0  0  0  0999 V2000
    0.5420   -0.8560   -2.5770 C   0  0  0  0  0  0  0  0  0  0  0  0
   -0.5980   -1.5800   -1.9150 C   0  0  0  0  0  0  0  0  0  0  0  0
   -1.3680   -0.7130   -0.9870 C   0  0  1  0  0  0  0  0  0  0  0  0
   -2.4490   -1.4310   -0.4000 O   0  0  0  0  0  0  0  0  0  0  0  0
   -3.4200   -0.5600    0.0240 C   0  0  1  0  0  0  0  0  0  0  0  0
   -2.9250    0.8480    0.2210 C   0  0  0  0  0  0  0  0  0  0  0  0
   -1.5420    0.9260    0.7740 C   0  0  0  0  0  0  0  0  0  0  0  0
   -0.6240   -0.1650    0.1900 C   0  0  2  0  0  0  0  0  0  0  0  0
    0.6860    0.3170   -0.0340 N   0  0  0  0  0  0  0  0  0  0  0  0
    1.7870   -0.1700    0.7200 C   0  0  0  0  0  0  0  0  0  0  0  0
    1.6780   -1.0380    1.6140 O   0  0  0  0  0  0  0  0  0  0  0  0
    3.0490    0.3400    0.4550 O   0  0  0  0  0  0  0  0  0  0  0  0
    4.2040   -0.1000    1.1730 C   0  0  0  0  0  0  0  0  0  0  0  0
    5.3630    0.6480    0.6310 C   0  0  0  0  0  0  0  0  0  0  0  0
    6.7010    0.3790    1.2070 C   0  0  0  0  0  0  0  0  0  0  0  0
    5.2480    1.5400   -0.3390 C   0  0  0  0  0  0  0  0  0  0  0  0
    6.3420    2.2160   -0.8180 O   0  0  0  0  0  0  0  0  0  0  0  0
   -4.4490   -0.4920   -1.0740 C   0  0  0  0  0  0  0  0  0  0  0  0
   -4.2070   -0.8960   -2.2390 O   0  0  0  0  0  0  0  0  0  0  0  0
   -5.7480    0.0370   -0.8310 N   0  0  0  0  0  0  0  0  0  0  0  0
   -6.2550    0.0450    0.5140 C   0  0  0  0  0  0  0  0  0  0  0  0
   -7.3890    0.5080    0.7250 O   0  0  0  0  0  0  0  0  0  0  0  0
   -5.4070   -0.4880    1.5360 N   0  0  0  0  0  0  0  0  0  0  0  0
   -4.1190   -1.0060    1.2460 C   0  0  0  0  0  0  0  0  0  0  0  0
   -3.6230   -1.8300    2.0480 O   0  0  0  0  0  0  0  0  0  0  0  0
  1  2  1  0
  3  2  1  1
  3  4  1  0
  3  8  1  0
  4  5  1  0
  5  6  1  1
  5 18  1  0
  5 24  1  0
  6  7  1  0
  7  8  1  0
  8  9  1  6
  9 10  1  0
 10 11  2  0
 10 12  1  0
 12 13  1  0
 13 14  1  0
 14 15  1  0
 14 16  2  3
 16 17  1  0
 18 19  2  0
 18 20  1  0
 20 21  1  0
 21 22  2  0
 21 23  1  0
 23 24  1  0
 24 25  2  0
M  END
