
     RDKit          3D

 25 26  0  0  0  0  0  0  0  0999 V2000
    0.3690   -2.1480   -0.2930 C   0  0  0  0  0  0  0  0  0  0  0  0
    0.2860   -0.8010   -0.9670 C   0  0  2  0  0  0  0  0  0  0  0  0
    1.5810   -0.4130   -1.5330 N   0  0  0  0  0  0  0  0  0  0  0  0
    2.6970   -0.2840   -0.6530 C   0  0  0  0  0  0  0  0  0  0  0  0
    2.5230   -0.5070    0.5590 O   0  0  0  0  0  0  0  0  0  0  0  0
    3.9930    0.0900   -1.1280 N   0  0  0  0  0  0  0  0  0  0  0  0
    5.1070    0.2200   -0.2550 C   0  0  0  0  0  0  0  0  0  0  0  0
    6.2050   -0.4920   -0.3760 C   0  0  0  0  0  0  0  0  0  0  0  0
    7.3650   -0.3620    0.5260 C   0  0  0  0  0  0  0  0  0  0  0  0
    7.1770    0.6020    1.5300 O   0  0  0  0  0  0  0  0  0  0  0  0
    6.0390    1.3670    1.6860 C   0  0  0  0  0  0  0  0  0  0  0  0
    5.0450    1.1880    0.8340 C   0  0  0  0  0  0  0  0  0  0  0  0
    3.8680    1.9390    0.9490 O   0  0  0  0  0  0  0  0  0  0  0  0
   -0.2640    0.2590   -0.0630 C   0  0  0  0  0  0  0  0  0  0  0  0
   -1.6760    0.4840   -0.5860 C   0  0  2  0  0  0  0  0  0  0  0  0
   -2.6130   -0.6100   -0.0740 C   0  0  0  0  0  0  0  0  0  0  0  0
   -3.8170   -0.5310   -0.7500 O   0  0  0  0  0  0  0  0  0  0  0  0
   -4.4870    0.6570   -0.6200 C   0  0  0  0  0  0  0  0  0  0  0  0
   -4.8190    0.9390    0.8190 C   0  0  1  0  0  0  0  0  0  0  0  0
   -5.5090    2.1510    0.9580 O   0  0  0  0  0  0  0  0  0  0  0  0
   -5.7380   -0.1610    1.3070 C   0  0  0  0  0  0  0  0  0  0  0  0
   -6.9300   -0.1020    0.4520 N   0  0  0  0  0  0  0  0  0  0  0  0
   -1.5050    0.2380   -1.9680 O   0  0  0  0  0  0  0  0  0  0  0  0
   -0.6810   -0.8530   -2.0780 C   0  0  0  0  0  0  0  0  0  0  0  0
   -0.7310   -1.7360   -2.9560 O   0  0  0  0  0  0  0  0  0  0  0  0
  2  1  1  1
  2  3  1  0
  2 14  1  0
  2 24  1  0
  3  4  1  0
  4  5  2  0
  4  6  1  0
  6  7  1  0
  7  8  2  0
  7 12  1  0
  8  9  1  0
  9 10  1  0
 10 11  1  0
 11 12  2  0
 12 13  1  0
 14 15  1  0
 15 16  1  1
 15 23  1  0
 16 17  1  0
 17 18  1  0
 18 19  1  0
 19 20  1  6
 19 21  1  0
 21 22  1  0
 23 24  1  0
 24 25  2  0
M  END
