
     RDKit          3D

 25 26  0  0  0  0  0  0  0  0999 V2000
    2.8320   -0.6340    3.7700 C   0  0  0  0  0  0  0  0  0  0  0  0
    2.4420   -0.1980    2.3030 C   0  0  0  0  0  0  0  0  0  0  0  0
    1.2080   -0.2520    2.2200 O   0  0  0  0  0  0  0  0  0  0  0  0
    3.5090    0.1320    1.4750 C   0  0  0  0  0  0  0  0  0  0  0  0
    3.9920    0.5100    0.3790 C   0  0  0  0  0  0  0  0  0  0  0  0
    5.4700    0.6290    0.3280 O   0  0  0  0  0  0  0  0  0  0  0  0
    6.0860    1.8210   -0.1800 C   0  0  0  0  0  0  0  0  0  0  0  0
    5.4890    2.1610   -1.4990 C   0  0  0  0  0  0  0  0  0  0  0  0
    4.4680    1.2240   -1.8350 O   0  0  0  0  0  0  0  0  0  0  0  0
    3.4150    0.8530   -0.8700 C   0  0  0  0  0  0  0  0  0  0  0  0
    2.2450    0.9150   -1.3520 C   0  0  0  0  0  0  0  0  0  0  0  0
    2.3280    1.3510   -2.7760 O   0  0  0  0  0  0  0  0  0  0  0  0
    0.8990    0.7080   -0.9800 C   0  0  0  0  0  0  0  0  0  0  0  0
    0.4010    0.3510    0.0920 O   0  0  0  0  0  0  0  0  0  0  0  0
   -0.1900    0.9280   -1.9720 N   0  0  0  0  0  0  0  0  0  0  0  0
   -1.4920    0.7020   -1.5270 N   0  0  0  0  0  0  0  0  0  0  0  0
   -1.9410   -0.5640   -1.0910 C   0  0  0  0  0  0  0  0  0  0  0  0
   -1.1290   -1.5090   -1.1110 O   0  0  0  0  0  0  0  0  0  0  0  0
   -3.3480   -0.6970   -0.6370 C   0  0  2  0  0  0  0  0  0  0  0  0
   -4.0300    0.5150   -0.7260 O   0  0  0  0  0  0  0  0  0  0  0  0
   -3.4520   -1.1360    0.8140 C   0  0  0  0  0  0  0  0  0  0  0  0
   -4.9020   -0.8660    1.2180 C   0  0  0  0  0  0  0  0  0  0  0  0
   -5.7790   -1.7020    0.3350 C   0  0  0  0  0  0  0  0  0  0  0  0
   -5.5040   -1.6140   -1.0600 N   0  0  0  0  0  0  0  0  0  0  0  0
   -4.1310   -1.7140   -1.4390 C   0  0  0  0  0  0  0  0  0  0  0  0
  1  2  1  0
  2  3  2  0
  2  4  1  0
  4  5  2  3
  5  6  1  0
  5 10  1  0
  6  7  1  0
  7  8  1  0
  8  9  1  0
  9 10  1  0
 10 11  2  3
 11 12  1  0
 11 13  1  0
 13 14  2  0
 13 15  1  0
 15 16  1  0
 16 17  1  0
 17 18  2  0
 17 19  1  0
 19 20  1  1
 19 21  1  0
 19 25  1  0
 21 22  1  0
 22 23  1  0
 23 24  1  0
 24 25  1  0
M  END
