
     RDKit          3D

 24 25  0  0  0  0  0  0  0  0999 V2000
   -5.6120    0.3640   -1.7410 C   0  0  0  0  0  0  0  0  0  0  0  0
   -4.7600   -0.4220   -0.7810 C   0  0  2  0  0  0  0  0  0  0  0  0
   -5.6520   -1.1850    0.2080 C   0  0  0  0  0  0  0  0  0  0  0  0
   -6.5310   -2.0270   -0.4300 O   0  0  0  0  0  0  0  0  0  0  0  0
   -3.9170    0.3930   -0.0130 O   0  0  0  0  0  0  0  0  0  0  0  0
   -2.5100    0.2260   -0.0000 C   0  0  0  0  0  0  0  0  0  0  0  0
   -2.1000   -0.6870   -0.7150 O   0  0  0  0  0  0  0  0  0  0  0  0
   -1.6800    1.0990    0.8150 C   0  0  0  0  0  0  0  0  0  0  0  0
   -2.1290    2.0780    1.5810 C   0  0  0  0  0  0  0  0  0  0  0  0
   -1.0880    2.7470    2.2490 N   0  0  0  0  0  0  0  0  0  0  0  0
    0.1590    2.1270    1.8680 C   0  0  0  0  0  0  0  0  0  0  0  0
    1.2970    2.4460    2.2560 O   0  0  0  0  0  0  0  0  0  0  0  0
   -0.2160    1.0650    0.9450 C   0  0  0  0  0  0  0  0  0  0  0  0
    0.5380    0.1930    0.3010 C   0  0  0  0  0  0  0  0  0  0  0  0
    1.9760    0.0970    0.3760 C   0  0  0  0  0  0  0  0  0  0  0  0
    2.6930    0.8440    1.0740 O   0  0  0  0  0  0  0  0  0  0  0  0
    2.7170   -0.8870   -0.3630 N   0  0  0  0  0  0  0  0  0  0  0  0
    4.1330   -0.9890   -0.2960 C   0  0  0  0  0  0  0  0  0  0  0  0
    4.6550   -2.1190    0.1320 C   0  0  0  0  0  0  0  0  0  0  0  0
    6.1210   -2.3140    0.2350 C   0  0  0  0  0  0  0  0  0  0  0  0
    6.8390   -1.1860   -0.1660 O   0  0  0  0  0  0  0  0  0  0  0  0
    6.2740   -0.0230   -0.6060 C   0  0  0  0  0  0  0  0  0  0  0  0
    4.9710    0.1290   -0.6900 C   0  0  0  0  0  0  0  0  0  0  0  0
    4.3400    1.3090   -1.1390 N   0  0  0  0  0  0  0  0  0  0  0  0
  2  1  1  6
  2  3  1  0
  2  5  1  0
  3  4  1  0
  5  6  1  0
  6  7  2  0
  6  8  1  0
  8  9  2  0
  8 13  1  0
  9 10  1  0
 10 11  1  0
 11 12  2  0
 11 13  1  0
 13 14  2  3
 14 15  1  0
 15 16  2  0
 15 17  1  0
 17 18  1  0
 18 19  2  0
 18 23  1  0
 19 20  1  0
 20 21  1  0
 21 22  1  0
 22 23  2  0
 23 24  1  0
M  END
