
     RDKit          3D

 23 24  0  0  0  0  0  0  0  0999 V2000
    3.5950   -0.1320   -2.2390 C   0  0  0  0  0  0  0  0  0  0  0  0
    2.7780    0.3710   -1.2140 O   0  0  0  0  0  0  0  0  0  0  0  0
    3.0610    0.2880    0.1130 C   0  0  0  0  0  0  0  0  0  0  0  0
    4.4570    0.6350    0.5390 C   0  0  0  0  0  0  0  0  0  0  0  0
    2.2160   -0.0690    1.0480 C   0  0  0  0  0  0  0  0  0  0  0  0
    2.5200   -0.1730    2.5410 C   0  0  0  0  0  0  0  0  0  0  0  0
    1.6240   -1.2990    3.0140 C   0  0  0  0  0  0  0  0  0  0  0  0
    0.7240   -1.6840    1.8330 C   0  0  0  0  0  0  0  0  0  0  0  0
    0.8200   -0.4630    0.9510 C   0  0  0  0  0  0  0  0  0  0  0  0
   -0.1490    0.1260    0.2960 C   0  0  0  0  0  0  0  0  0  0  0  0
   -1.4720   -0.5140    0.3740 C   0  0  0  0  0  0  0  0  0  0  0  0
   -2.1460   -0.3940    1.5940 C   0  0  0  0  0  0  0  0  0  0  0  0
   -3.3630   -0.9980    1.7300 C   0  0  0  0  0  0  0  0  0  0  0  0
   -3.9620   -1.7250    0.7190 C   0  0  0  0  0  0  0  0  0  0  0  0
   -5.2860   -2.3470    0.9560 C   0  0  0  0  0  0  0  0  0  0  0  0
   -3.2840   -1.8360   -0.4790 C   0  0  0  0  0  0  0  0  0  0  0  0
   -2.0320   -1.2290   -0.6550 C   0  0  0  0  0  0  0  0  0  0  0  0
   -1.3810   -1.4550   -1.9410 C   0  0  0  0  0  0  0  0  0  0  0  0
    0.0100    1.4150   -0.3740 C   0  0  2  0  0  0  0  0  0  0  0  0
   -1.0000    2.4370    0.1970 C   0  0  0  0  0  0  0  0  0  0  0  0
   -0.2120    1.4520   -1.8500 C   0  0  0  0  0  0  0  0  0  0  0  0
    0.0450    2.9010   -2.3110 C   0  0  0  0  0  0  0  0  0  0  0  0
   -0.1390    2.9840   -3.6970 O   0  0  0  0  0  0  0  0  0  0  0  0
  1  2  1  0
  2  3  1  0
  3  4  1  0
  3  5  2  3
  5  6  1  0
  5  9  1  0
  6  7  1  0
  7  8  1  0
  8  9  1  0
  9 10  2  3
 10 11  1  0
 10 19  1  0
 11 12  2  0
 11 17  1  0
 12 13  1  0
 13 14  2  0
 14 15  1  0
 14 16  1  0
 16 17  2  0
 17 18  1  0
 19 20  1  1
 19 21  1  0
 21 22  1  0
 22 23  1  0
M  END
