
     RDKit          3D

 17 18  0  0  0  0  0  0  0  0999 V2000
   -2.3180    0.1440   -2.6240 N   0  0  0  0  0  0  0  0  0  0  0  0
   -1.0700    0.0880   -1.9620 C   0  0  0  0  0  0  0  0  0  0  0  0
   -0.0830   -0.3830   -2.5640 O   0  0  0  0  0  0  0  0  0  0  0  0
   -0.9330    0.5810   -0.5740 C   0  0  1  0  0  0  0  0  0  0  0  0
    0.4150    0.4170   -0.1330 N   0  0  0  0  0  0  0  0  0  0  0  0
    1.0410   -0.8520   -0.0730 C   0  0  0  0  0  0  0  0  0  0  0  0
    0.4460   -1.9010   -0.4040 O   0  0  0  0  0  0  0  0  0  0  0  0
    2.4400   -0.8930    0.4010 C   0  0  0  0  0  0  0  0  0  0  0  0
    3.1870   -1.9840    0.5230 C   0  0  0  0  0  0  0  0  0  0  0  0
    4.4560   -1.6110    1.0030 O   0  0  0  0  0  0  0  0  0  0  0  0
    4.2370   -0.3400    1.6380 C   0  0  0  0  0  0  0  0  0  0  0  0
    3.2240    0.1740    0.7980 O   0  0  0  0  0  0  0  0  0  0  0  0
   -1.3200    2.0370   -0.5840 C   0  0  0  0  0  0  0  0  0  0  0  0
   -2.1060    2.2770    1.0500 S   0  0  0  0  0  0  0  0  0  0  0  0
   -1.9830    0.5370    1.6130 C   0  0  0  0  0  0  0  0  0  0  0  0
   -1.9330   -0.1500    0.2700 C   0  0  1  0  0  0  0  0  0  0  0  0
   -3.1770   -0.1300   -0.3240 O   0  0  0  0  0  0  0  0  0  0  0  0
  1  2  1  0
  2  3  2  0
  2  4  1  0
  4  5  1  1
  4 13  1  0
  4 16  1  0
  5  6  1  0
  6  7  2  0
  6  8  1  0
  8  9  2  0
  8 12  1  0
  9 10  1  0
 10 11  1  0
 11 12  1  0
 13 14  1  0
 14 15  1  0
 15 16  1  0
 16 17  1  6
M  END
