
     RDKit          3D

 23 24  0  0  0  0  0  0  0  0999 V2000
    7.7550   -2.9630    0.7380 C   0  0  0  0  0  0  0  0  0  0  0  0
    6.4070   -2.3920    0.3560 C   0  0  0  0  0  0  0  0  0  0  0  0
    5.3130   -1.9190    0.0650 C   0  0  0  0  0  0  0  0  0  0  0  0
    4.0720   -1.3620   -0.2860 C   0  0  0  0  0  0  0  0  0  0  0  0
    3.4330   -0.4050    0.4980 C   0  0  0  0  0  0  0  0  0  0  0  0
    2.2340    0.0340    0.0400 C   0  0  0  0  0  0  0  0  0  0  0  0
    1.5780   -0.3220   -1.0580 C   0  0  0  0  0  0  0  0  0  0  0  0
    0.2410    0.2470   -1.4190 C   0  0  0  0  0  0  0  0  0  0  0  0
    0.1910    0.6520   -2.8350 C   0  0  0  0  0  0  0  0  0  0  0  0
    1.1440    0.5290   -3.5990 O   0  0  0  0  0  0  0  0  0  0  0  0
   -0.6680    0.3340   -0.5750 C   0  0  0  0  0  0  0  0  0  0  0  0
   -0.1550   -0.2320    0.7660 O   0  0  0  0  0  0  0  0  0  0  0  0
   -0.3730   -1.6550    0.7880 C   0  0  0  0  0  0  0  0  0  0  0  0
   -2.0020    0.7590   -0.3460 C   0  0  0  0  0  0  0  0  0  0  0  0
   -3.0670    0.5190   -1.2440 C   0  0  0  0  0  0  0  0  0  0  0  0
   -4.2980    0.9900   -0.8850 C   0  0  0  0  0  0  0  0  0  0  0  0
   -4.6240    1.6520    0.2160 C   0  0  0  0  0  0  0  0  0  0  0  0
   -5.9180    2.1940    0.6020 C   0  0  0  0  0  0  0  0  0  0  0  0
   -3.5410    1.9410    1.2100 C   0  0  0  0  0  0  0  0  0  0  0  0
   -3.9240    2.6240    2.4090 C   0  0  0  0  0  0  0  0  0  0  0  0
   -2.3650    1.4470    0.7860 C   0  0  0  0  0  0  0  0  0  0  0  0
    2.2180   -1.2950   -1.8640 C   0  0  0  0  0  0  0  0  0  0  0  0
    3.4580   -1.8030   -1.4660 C   0  0  0  0  0  0  0  0  0  0  0  0
  1  2  1  0
  2  3  3  0
  3  4  1  0
  4  5  2  0
  4 23  1  0
  5  6  1  0
  6  7  2  0
  7  8  1  0
  7 22  1  0
  8  9  1  0
  8 11  2  3
  9 10  2  0
 11 12  1  0
 11 14  1  0
 12 13  1  0
 14 15  2  0
 14 21  1  0
 15 16  1  0
 16 17  2  0
 17 18  1  0
 17 19  1  0
 19 20  1  0
 19 21  2  0
 22 23  2  0
M  END
