
     RDKit          3D

 23 24  0  0  0  0  0  0  0  0999 V2000
   -4.3140    2.3530    0.0460 C   0  0  0  0  0  0  0  0  0  0  0  0
   -5.0800    1.3410    0.2810 C   0  0  0  0  0  0  0  0  0  0  0  0
   -6.5730    1.7100    0.2100 C   0  0  0  0  0  0  0  0  0  0  0  0
   -4.7980   -0.0600    0.5180 C   0  0  0  0  0  0  0  0  0  0  0  0
   -5.7890   -0.9340    0.8260 C   0  0  0  0  0  0  0  0  0  0  0  0
   -5.2290   -2.2730    1.0200 C   0  0  0  0  0  0  0  0  0  0  0  0
   -3.8060   -2.0850    0.7810 C   0  0  0  0  0  0  0  0  0  0  0  0
   -3.5430   -0.7770    0.4780 C   0  0  0  0  0  0  0  0  0  0  0  0
   -2.1750   -0.3690    0.2220 C   0  0  0  0  0  0  0  0  0  0  0  0
   -1.1460   -0.9800    0.9610 C   0  0  0  0  0  0  0  0  0  0  0  0
    0.1590   -0.7280    0.6360 C   0  0  0  0  0  0  0  0  0  0  0  0
    0.5110    0.1050   -0.3920 C   0  0  0  0  0  0  0  0  0  0  0  0
    1.8340    0.3550   -0.7120 O   0  0  0  0  0  0  0  0  0  0  0  0
    2.8640   -0.2590    0.0330 C   0  0  0  0  0  0  0  0  0  0  0  0
    4.1820    0.1970   -0.5400 C   0  0  0  0  0  0  0  0  0  0  0  0
    5.3680   -0.3990    0.1810 C   0  0  1  0  0  0  0  0  0  0  0  0
    6.6140    0.1590   -0.5160 C   0  0  0  0  0  0  0  0  0  0  0  0
    5.3640   -0.0040    1.6420 C   0  0  0  0  0  0  0  0  0  0  0  0
    5.4340   -1.8890    0.0930 C   0  0  0  0  0  0  0  0  0  0  0  0
   -0.4740    0.7180   -1.1340 C   0  0  0  0  0  0  0  0  0  0  0  0
   -0.1750    1.6290   -2.2560 C   0  0  0  0  0  0  0  0  0  0  0  0
   -1.3530    2.0950   -2.8160 O   0  0  0  0  0  0  0  0  0  0  0  0
   -1.7910    0.4530   -0.7960 C   0  0  0  0  0  0  0  0  0  0  0  0
  1  2  2  0
  2  3  1  0
  2  4  1  0
  4  5  2  0
  4  8  1  0
  5  6  1  0
  6  7  1  0
  7  8  2  0
  8  9  1  0
  9 10  2  0
  9 23  1  0
 10 11  1  0
 11 12  2  0
 12 13  1  0
 12 20  1  0
 13 14  1  0
 14 15  1  0
 15 16  1  0
 16 17  1  6
 16 18  1  0
 16 19  1  0
 20 21  1  0
 20 23  2  0
 21 22  1  0
M  END
