
     RDKit          3D

 23 24  0  0  0  0  0  0  0  0999 V2000
    3.3840   -2.4980    1.9940 C   0  0  0  0  0  0  0  0  0  0  0  0
    4.3310   -1.6310    1.9380 C   0  0  0  0  0  0  0  0  0  0  0  0
    4.4450   -0.4210    1.1050 C   0  0  0  0  0  0  0  0  0  0  0  0
    5.5470    0.3060    1.1950 C   0  0  0  0  0  0  0  0  0  0  0  0
    5.8810    1.5360    0.4820 C   0  0  0  0  0  0  0  0  0  0  0  0
    3.4310   -0.0620    0.1220 C   0  0  0  0  0  0  0  0  0  0  0  0
    3.7120    0.4940   -1.1060 C   0  0  0  0  0  0  0  0  0  0  0  0
    2.7350    0.9490   -1.9820 C   0  0  0  0  0  0  0  0  0  0  0  0
    1.4050    0.8660   -1.6620 C   0  0  0  0  0  0  0  0  0  0  0  0
    0.4340    1.4390   -2.6460 C   0  0  0  0  0  0  0  0  0  0  0  0
    1.0810    0.3210   -0.4590 C   0  0  0  0  0  0  0  0  0  0  0  0
   -0.2980    0.1410   -0.0740 C   0  0  0  0  0  0  0  0  0  0  0  0
   -0.5570    0.5950    1.1130 O   0  0  0  0  0  0  0  0  0  0  0  0
   -1.3790   -0.4540   -0.7940 C   0  0  0  0  0  0  0  0  0  0  0  0
   -1.1920   -1.1040   -2.1020 C   0  0  0  0  0  0  0  0  0  0  0  0
   -2.5960   -0.4920   -0.2740 C   0  0  0  0  0  0  0  0  0  0  0  0
   -3.8340   -1.0590   -0.8610 C   0  0  0  0  0  0  0  0  0  0  0  0
   -4.8690   -0.0390   -0.3670 C   0  0  0  0  0  0  0  0  0  0  0  0
   -4.3620    0.1910    1.0420 C   0  0  2  0  0  0  0  0  0  0  0  0
   -5.0510   -0.8180    1.9310 C   0  0  0  0  0  0  0  0  0  0  0  0
   -4.7150    1.5710    1.5470 C   0  0  0  0  0  0  0  0  0  0  0  0
   -2.9740    0.0110    0.9710 O   0  0  0  0  0  0  0  0  0  0  0  0
    2.0790   -0.1360    0.4240 C   0  0  0  0  0  0  0  0  0  0  0  0
  1  2  2  0
  2  3  1  0
  3  4  2  3
  3  6  1  0
  4  5  1  0
  6  7  2  0
  6 23  1  0
  7  8  1  0
  8  9  2  0
  9 10  1  0
  9 11  1  0
 11 12  1  0
 11 23  2  0
 12 13  2  0
 12 14  1  0
 14 15  1  0
 14 16  2  3
 16 17  1  0
 16 22  1  0
 17 18  1  0
 18 19  1  0
 19 20  1  1
 19 21  1  0
 19 22  1  0
M  END
