
     RDKit          3D

 19 21  0  0  0  0  0  0  0  0999 V2000
   -4.5490    1.9160   -0.6060 N   0  0  0  0  0  0  0  0  0  0  0  0
   -4.4700    0.5530   -0.1780 C   0  0  0  0  0  0  0  0  0  0  0  0
   -5.5400   -0.1100    0.0160 N   0  0  0  0  0  0  0  0  0  0  0  0
   -3.1730   -0.0520    0.0270 C   0  0  0  0  0  0  0  0  0  0  0  0
   -3.0150   -1.3490    0.4350 C   0  0  0  0  0  0  0  0  0  0  0  0
   -1.7170   -1.8430    0.6060 C   0  0  0  0  0  0  0  0  0  0  0  0
   -0.6210   -1.0460    0.3700 C   0  0  0  0  0  0  0  0  0  0  0  0
    0.6980   -1.2540    0.4510 N   0  0  0  0  0  0  0  0  0  0  0  0
    1.4010   -0.1300    0.1080 C   0  0  0  0  0  0  0  0  0  0  0  0
    2.8500   -0.0370    0.0960 C   0  0  0  0  0  0  0  0  0  0  0  0
    3.6020   -1.1620    0.4580 C   0  0  0  0  0  0  0  0  0  0  0  0
    4.9790   -1.1130    0.4600 C   0  0  0  0  0  0  0  0  0  0  0  0
    5.6530    0.0460    0.1050 C   0  0  0  0  0  0  0  0  0  0  0  0
    4.9050    1.1360   -0.2460 C   0  0  0  0  0  0  0  0  0  0  0  0
    3.4930    1.1150   -0.2570 C   0  0  0  0  0  0  0  0  0  0  0  0
    2.8050    2.2380   -0.6170 O   0  0  0  0  0  0  0  0  0  0  0  0
    0.4810    0.7740   -0.1870 N   0  0  0  0  0  0  0  0  0  0  0  0
   -0.7540    0.2730   -0.0450 C   0  0  0  0  0  0  0  0  0  0  0  0
   -2.0380    0.7370   -0.2060 C   0  0  0  0  0  0  0  0  0  0  0  0
  1  2  1  0
  2  3  2  0
  2  4  1  0
  4  5  2  0
  4 19  1  0
  5  6  1  0
  6  7  2  0
  7  8  1  0
  7 18  1  0
  8  9  1  0
  9 10  1  0
  9 17  2  0
 10 11  2  0
 10 15  1  0
 11 12  1  0
 12 13  2  0
 13 14  1  0
 14 15  2  0
 15 16  1  0
 17 18  1  0
 18 19  2  0
M  CHG  1   3   1
M  END
