
     RDKit          3D

 27 29  0  0  0  0  0  0  0  0999 V2000
   -6.8130    1.1860   -1.4160 C   0  0  0  0  0  0  0  0  0  0  0  0
   -6.0300    0.1230   -0.6670 C   0  0  0  0  0  0  0  0  0  0  0  0
   -4.6980    0.5350   -0.4720 O   0  0  0  0  0  0  0  0  0  0  0  0
   -3.7550   -0.2370    0.1970 C   0  0  0  0  0  0  0  0  0  0  0  0
   -3.9970   -1.4670    0.7400 C   0  0  0  0  0  0  0  0  0  0  0  0
   -3.0620   -2.1930    1.3840 N   0  0  0  0  0  0  0  0  0  0  0  0
   -1.8080   -1.6910    1.5100 C   0  0  0  0  0  0  0  0  0  0  0  0
   -0.9150   -2.3660    2.1240 O   0  0  0  0  0  0  0  0  0  0  0  0
   -1.5110   -0.4600    0.9800 C   0  0  0  0  0  0  0  0  0  0  0  0
   -0.1660    0.0950    1.0530 C   0  0  0  0  0  0  0  0  0  0  0  0
    0.8870   -0.2950    0.3720 C   0  0  0  0  0  0  0  0  0  0  0  0
    0.6970   -1.3970   -0.5590 C   0  0  0  0  0  0  0  0  0  0  0  0
    1.7000   -1.8090   -1.2100 O   0  0  0  0  0  0  0  0  0  0  0  0
   -0.5320   -2.0230   -0.7840 O   0  0  0  0  0  0  0  0  0  0  0  0
   -0.5720   -3.0750   -1.7220 C   0  0  0  0  0  0  0  0  0  0  0  0
    2.1260    0.4460    0.5070 C   0  0  0  0  0  0  0  0  0  0  0  0
    3.3060   -0.0730    0.0480 C   0  0  0  0  0  0  0  0  0  0  0  0
    4.5010    0.6670    0.0720 C   0  0  0  0  0  0  0  0  0  0  0  0
    5.6810    0.1570   -0.3860 C   0  0  0  0  0  0  0  0  0  0  0  0
    6.8140    0.9490   -0.3310 C   0  0  0  0  0  0  0  0  0  0  0  0
    6.7480    2.2490    0.1860 C   0  0  0  0  0  0  0  0  0  0  0  0
    5.5530    2.7550    0.6470 C   0  0  0  0  0  0  0  0  0  0  0  0
    4.4350    1.9450    0.5830 C   0  0  0  0  0  0  0  0  0  0  0  0
    3.2290    2.4280    1.0350 C   0  0  0  0  0  0  0  0  0  0  0  0
    3.1350    3.5990    1.5120 O   0  0  0  0  0  0  0  0  0  0  0  0
    2.0910    1.6930    1.0000 N   0  0  0  0  0  0  0  0  0  0  0  0
   -2.4950    0.2870    0.3110 C   0  0  0  0  0  0  0  0  0  0  0  0
  1  2  1  0
  2  3  1  0
  3  4  1  0
  4  5  2  0
  4 27  1  0
  5  6  1  0
  6  7  1  0
  7  8  2  0
  7  9  1  0
  9 10  1  0
  9 27  2  0
 10 11  2  3
 11 12  1  0
 11 16  1  0
 12 13  2  0
 12 14  1  0
 14 15  1  0
 16 17  2  0
 16 26  1  0
 17 18  1  0
 18 19  2  0
 18 23  1  0
 19 20  1  0
 20 21  2  0
 21 22  1  0
 22 23  2  0
 23 24  1  0
 24 25  2  0
 24 26  1  0
M  END
