
     RDKit          3D

  9  9  0  0  0  0  0  0  0  0999 V2000
    2.7020    0.0620   -1.1830 O   0  0  0  0  0  0  0  0  0  0  0  0
    2.2390   -0.7240   -0.1490 C   0  0  0  0  0  0  0  0  0  0  0  0
    0.7930   -0.3980    0.1650 C   0  0  1  0  0  0  0  0  0  0  0  0
    0.6280    1.0500    0.5670 C   0  0  0  0  0  0  0  0  0  0  0  0
   -0.6320    1.1310    1.4300 C   0  0  0  0  0  0  0  0  0  0  0  0
   -2.0250    1.4310    0.3270 S   0  0  0  0  0  0  0  0  0  0  0  0
   -2.2790    0.0840   -0.8370 C   0  0  0  0  0  0  0  0  0  0  0  0
   -1.2850   -1.0250   -0.5850 C   0  0  0  0  0  0  0  0  0  0  0  0
   -0.0040   -0.6250   -0.9530 O   0  0  0  0  0  0  0  0  0  0  0  0
  1  2  1  0
  3  2  1  6
  3  4  1  0
  3  9  1  0
  4  5  1  0
  5  6  1  0
  6  7  1  0
  7  8  1  0
  8  9  1  0
M  END
