
     RDKit          3D

 27 29  0  0  0  0  0  0  0  0999 V2000
   -2.4970   -4.5740   -0.9980 C   0  0  0  0  0  0  0  0  0  0  0  0
   -1.6330   -3.6900   -0.3300 O   0  0  0  0  0  0  0  0  0  0  0  0
   -1.9730   -2.3460   -0.2930 C   0  0  0  0  0  0  0  0  0  0  0  0
   -3.1080   -1.8640   -0.8810 C   0  0  0  0  0  0  0  0  0  0  0  0
   -3.4540   -0.5370   -0.8510 C   0  0  0  0  0  0  0  0  0  0  0  0
   -2.6490    0.3700   -0.2140 C   0  0  0  0  0  0  0  0  0  0  0  0
   -1.4810   -0.0910    0.3960 C   0  0  0  0  0  0  0  0  0  0  0  0
   -1.1440   -1.4110    0.3630 C   0  0  0  0  0  0  0  0  0  0  0  0
    0.0240   -1.9050    0.9680 N   0  0  0  0  0  0  0  0  0  0  0  0
    0.9700   -1.1380    1.6640 C   0  0  0  0  0  0  0  0  0  0  0  0
    0.8540    0.0910    1.8130 O   0  0  0  0  0  0  0  0  0  0  0  0
    2.1830   -1.8490    2.2570 C   0  0  0  0  0  0  0  0  0  0  0  0
    3.0630   -0.8510    2.9550 C   0  0  0  0  0  0  0  0  0  0  0  0
    3.5510    0.1780    2.0860 N   0  0  0  0  0  0  0  0  0  0  0  0
    4.3530   -0.0800    0.9360 C   0  0  0  0  0  0  0  0  0  0  0  0
    4.6260   -1.2830    0.7010 O   0  0  0  0  0  0  0  0  0  0  0  0
    4.8380    0.9840    0.0660 C   0  0  0  0  0  0  0  0  0  0  0  0
    4.6350    2.2720    0.1830 C   0  0  0  0  0  0  0  0  0  0  0  0
    5.3100    3.0150   -0.9210 C   0  0  0  0  0  0  0  0  0  0  0  0
    5.9430    1.9200   -1.7040 C   0  0  0  0  0  0  0  0  0  0  0  0
    5.6590    0.7810   -1.1210 C   0  0  0  0  0  0  0  0  0  0  0  0
   -3.0300    1.6900   -0.2070 O   0  0  0  0  0  0  0  0  0  0  0  0
   -4.3950    2.1160   -0.2870 C   0  0  1  0  0  0  0  0  0  0  0  0
   -4.4190    3.6130   -0.5150 C   0  0  0  0  0  0  0  0  0  0  0  0
   -5.1610    1.3540   -1.3160 C   0  0  0  0  0  0  0  0  0  0  0  0
   -4.6740   -0.0360   -1.4860 C   0  0  0  0  0  0  0  0  0  0  0  0
   -5.3260   -0.8160   -2.1990 O   0  0  0  0  0  0  0  0  0  0  0  0
  1  2  1  0
  2  3  1  0
  3  4  2  0
  3  8  1  0
  4  5  1  0
  5  6  2  0
  5 26  1  0
  6  7  1  0
  6 22  1  0
  7  8  2  0
  8  9  1  0
  9 10  1  0
 10 11  2  0
 10 12  1  0
 12 13  1  0
 13 14  1  0
 14 15  1  0
 15 16  2  0
 15 17  1  0
 17 18  2  0
 17 21  1  0
 18 19  1  0
 19 20  1  0
 20 21  2  0
 22 23  1  0
 23 24  1  6
 23 25  1  0
 25 26  1  0
 26 27  2  0
M  END
