
     RDKit          3D

 27 29  0  0  0  0  0  0  0  0999 V2000
    0.5910   -3.3150    0.1270 C   0  0  0  0  0  0  0  0  0  0  0  0
    0.2730   -1.8540    0.0820 C   0  0  0  0  0  0  0  0  0  0  0  0
    1.1280   -0.7960    0.2510 C   0  0  0  0  0  0  0  0  0  0  0  0
    0.4860    0.4180    0.1450 C   0  0  0  0  0  0  0  0  0  0  0  0
    0.8940    1.7790    0.2830 C   0  0  0  0  0  0  0  0  0  0  0  0
    1.8190    2.4650    0.8050 C   0  0  0  0  0  0  0  0  0  0  0  0
    2.9940    2.3850    1.5700 C   0  0  0  0  0  0  0  0  0  0  0  0
    3.6420    3.5850    1.6280 O   0  0  0  0  0  0  0  0  0  0  0  0
    3.6430    1.3860    2.2780 N   0  0  0  0  0  0  0  0  0  0  0  0
    5.0330    1.6860    2.7050 C   0  0  0  0  0  0  0  0  0  0  0  0
    5.4780    0.5360    3.5620 C   0  0  0  0  0  0  0  0  0  0  0  0
    4.6130    0.3750    4.6400 O   0  0  0  0  0  0  0  0  0  0  0  0
    3.3470    0.0480    4.2560 C   0  0  0  0  0  0  0  0  0  0  0  0
    3.0900    0.1720    2.7510 C   0  0  0  0  0  0  0  0  0  0  0  0
   -0.8530    0.0160   -0.1070 C   0  0  0  0  0  0  0  0  0  0  0  0
   -1.9910    0.9670   -0.2720 C   0  0  0  0  0  0  0  0  0  0  0  0
   -0.9470   -1.3130   -0.1390 N   0  0  0  0  0  0  0  0  0  0  0  0
   -2.1460   -2.1190   -0.3940 C   0  0  0  0  0  0  0  0  0  0  0  0
   -2.3150   -2.5000   -1.8210 C   0  0  0  0  0  0  0  0  0  0  0  0
   -2.4410   -1.5080   -2.7590 O   0  0  0  0  0  0  0  0  0  0  0  0
   -3.3670   -0.5230   -2.9210 C   0  0  0  0  0  0  0  0  0  0  0  0
   -4.5440   -0.6890   -2.3590 C   0  0  0  0  0  0  0  0  0  0  0  0
   -5.6150    0.3320   -2.4830 C   0  0  0  0  0  0  0  0  0  0  0  0
   -5.2370    1.4460   -3.2310 O   0  0  0  0  0  0  0  0  0  0  0  0
   -3.9970    1.6040   -3.8150 C   0  0  0  0  0  0  0  0  0  0  0  0
   -3.0730    0.6870   -3.6910 C   0  0  0  0  0  0  0  0  0  0  0  0
   -1.8340    0.8400   -4.2700 O   0  0  0  0  0  0  0  0  0  0  0  0
  1  2  1  0
  2  3  2  0
  2 17  1  0
  3  4  1  0
  4  5  1  0
  4 15  2  0
  5  6  2  3
  6  7  1  0
  7  8  2  0
  7  9  1  0
  9 10  1  0
  9 14  1  0
 10 11  1  0
 11 12  1  0
 12 13  1  0
 13 14  1  0
 15 16  1  0
 15 17  1  0
 17 18  1  0
 18 19  1  0
 19 20  1  0
 20 21  1  0
 21 22  2  0
 21 26  1  0
 22 23  1  0
 23 24  1  0
 24 25  1  0
 25 26  2  0
 26 27  1  0
M  END
