
     RDKit          3D

  9  9  0  0  0  0  0  0  0  0999 V2000
   -3.1670    0.5830   -0.0790 C   0  0  0  0  0  0  0  0  0  0  0  0
   -1.7810    0.0520   -0.3440 C   0  0  0  0  0  0  0  0  0  0  0  0
   -0.6930    0.3080    1.0770 S   0  0  0  0  0  0  0  0  0  0  0  0
    0.9220   -0.3410    0.6970 C   0  0  0  0  0  0  0  0  0  0  0  0
    1.3860   -1.6370    0.9250 C   0  0  0  0  0  0  0  0  0  0  0  0
    2.6140   -1.6780    0.4980 O   0  0  0  0  0  0  0  0  0  0  0  0
    2.9880   -0.4970    0.0050 C   0  0  0  0  0  0  0  0  0  0  0  0
    1.9340    0.3840    0.1140 C   0  0  0  0  0  0  0  0  0  0  0  0
    1.9800    1.7020   -0.3030 O   0  0  0  0  0  0  0  0  0  0  0  0
  1  2  1  0
  2  3  1  0
  3  4  1  0
  4  5  2  0
  4  8  1  0
  5  6  1  0
  6  7  1  0
  7  8  2  0
  8  9  1  0
M  END
