
     RDKit          3D

  9  9  0  0  0  0  0  0  0  0999 V2000
   -2.9090    0.0860    0.2460 C   0  0  0  0  0  0  0  0  0  0  0  0
   -1.5990    0.6300   -0.2440 C   0  0  0  0  0  0  0  0  0  0  0  0
   -0.5780   -0.2090    0.1990 O   0  0  0  0  0  0  0  0  0  0  0  0
    0.8000    0.0280   -0.0980 C   0  0  0  0  0  0  0  0  0  0  0  0
    1.0990    1.1280   -0.8480 C   0  0  0  0  0  0  0  0  0  0  0  0
    2.9420    0.9940   -0.9500 S   0  0  0  0  0  0  0  0  0  0  0  0
    3.0710   -0.4040   -0.0500 C   0  0  0  0  0  0  0  0  0  0  0  0
    1.7390   -0.7890    0.3390 C   0  0  0  0  0  0  0  0  0  0  0  0
    1.5520   -1.9310    1.1040 O   0  0  0  0  0  0  0  0  0  0  0  0
  1  2  1  0
  2  3  1  0
  3  4  1  0
  4  5  2  0
  4  8  1  0
  5  6  1  0
  6  7  1  0
  7  8  2  0
  8  9  1  0
M  END
