
     RDKit          3D

 24 25  0  0  0  0  0  0  0  0999 V2000
    1.3410    1.9730   -2.4780 C   0  0  0  0  0  0  0  0  0  0  0  0
    0.1560    1.0930   -2.7600 C   0  0  2  0  0  0  0  0  0  0  0  0
   -1.1290    1.8230   -2.4640 C   0  0  0  0  0  0  0  0  0  0  0  0
   -1.2300    3.0360   -3.1340 O   0  0  0  0  0  0  0  0  0  0  0  0
    0.1590   -0.1010   -2.0440 O   0  0  0  0  0  0  0  0  0  0  0  0
    0.1700   -1.3690   -2.5380 C   0  0  0  0  0  0  0  0  0  0  0  0
    0.1780   -1.3370   -3.8390 O   0  0  0  0  0  0  0  0  0  0  0  0
    0.1740   -2.6550   -1.9050 C   0  0  0  0  0  0  0  0  0  0  0  0
    0.1860   -3.7680   -2.7080 C   0  0  0  0  0  0  0  0  0  0  0  0
    0.1870   -4.9260   -1.9090 N   0  0  0  0  0  0  0  0  0  0  0  0
    0.1770   -4.5580   -0.5580 C   0  0  0  0  0  0  0  0  0  0  0  0
    0.1750   -5.3140    0.4220 O   0  0  0  0  0  0  0  0  0  0  0  0
    0.1670   -3.0300   -0.5360 C   0  0  0  0  0  0  0  0  0  0  0  0
    0.1560   -2.4220    0.5990 C   0  0  0  0  0  0  0  0  0  0  0  0
    0.1450   -1.0700    1.0410 C   0  0  0  0  0  0  0  0  0  0  0  0
    0.1430   -0.0100    0.3860 O   0  0  0  0  0  0  0  0  0  0  0  0
    0.1340   -0.7650    2.4870 N   0  0  0  0  0  0  0  0  0  0  0  0
    0.1230    0.6020    2.8660 C   0  0  0  0  0  0  0  0  0  0  0  0
    1.1150    1.0560    3.5960 C   0  0  0  0  0  0  0  0  0  0  0  0
    1.1500    2.4690    4.0150 C   0  0  0  0  0  0  0  0  0  0  0  0
    0.0640    3.2330    3.5720 O   0  0  0  0  0  0  0  0  0  0  0  0
   -0.9550    2.7260    2.8110 C   0  0  0  0  0  0  0  0  0  0  0  0
   -0.9580    1.4680    2.4550 C   0  0  0  0  0  0  0  0  0  0  0  0
   -2.0520    0.9630    1.6500 N   0  0  0  0  0  0  0  0  0  0  0  0
  2  1  1  1
  2  3  1  0
  2  5  1  0
  3  4  1  0
  5  6  1  0
  6  7  2  0
  6  8  1  0
  8  9  2  0
  8 13  1  0
  9 10  1  0
 10 11  1  0
 11 12  2  0
 11 13  1  0
 13 14  2  3
 14 15  1  0
 15 16  2  0
 15 17  1  0
 17 18  1  0
 18 19  2  0
 18 23  1  0
 19 20  1  0
 20 21  1  0
 21 22  1  0
 22 23  2  0
 23 24  1  0
M  END
