
     RDKit          3D

 25 26  0  0  0  0  0  0  0  0999 V2000
   -1.0960    2.4840    0.8780 C   0  0  0  0  0  0  0  0  0  0  0  0
   -1.5250    1.0180    1.1240 C   0  0  1  0  0  0  0  0  0  0  0  0
   -2.8890    0.9320    1.1140 O   0  0  0  0  0  0  0  0  0  0  0  0
   -3.3260    0.1790   -0.0120 C   0  0  0  0  0  0  0  0  0  0  0  0
   -4.6100   -0.0200   -0.2420 C   0  0  0  0  0  0  0  0  0  0  0  0
   -5.3050   -0.7300   -1.2850 C   0  0  2  0  0  0  0  0  0  0  0  0
   -6.5520   -0.0860   -1.5910 O   0  0  0  0  0  0  0  0  0  0  0  0
   -5.7360   -2.1290   -0.8780 C   0  0  0  0  0  0  0  0  0  0  0  0
   -6.6050   -2.1210    0.2180 O   0  0  0  0  0  0  0  0  0  0  0  0
   -2.1460   -0.2400   -0.7230 C   0  0  0  0  0  0  0  0  0  0  0  0
   -2.0700   -1.0290   -1.9670 C   0  0  0  0  0  0  0  0  0  0  0  0
   -2.5980   -2.2850   -1.9250 O   0  0  0  0  0  0  0  0  0  0  0  0
   -1.0620    0.2420   -0.0550 C   0  0  0  0  0  0  0  0  0  0  0  0
    0.2650   -0.0630   -0.5270 C   0  0  0  0  0  0  0  0  0  0  0  0
    0.7950   -0.6280   -1.3700 O   0  0  0  0  0  0  0  0  0  0  0  0
    1.4360    0.6740    0.5640 N   0  0  0  0  0  0  0  0  0  0  0  0
    2.5860    0.2300   -0.1230 C   0  0  0  0  0  0  0  0  0  0  0  0
    2.8270   -0.4130   -1.0980 O   0  0  0  0  0  0  0  0  0  0  0  0
    3.8000    0.7370    0.6410 N   0  0  0  0  0  0  0  0  0  0  0  0
    5.0630    0.3810    0.1060 C   0  0  1  0  0  0  0  0  0  0  0  0
    6.1310    1.3700    0.3790 C   0  0  0  0  0  0  0  0  0  0  0  0
    6.9270    0.8550    1.5450 C   0  0  0  0  0  0  0  0  0  0  0  0
    6.3220   -0.4380    1.8910 N   0  0  0  0  0  0  0  0  0  0  0  0
    5.5180   -0.8720    0.8170 C   0  0  0  0  0  0  0  0  0  0  0  0
    5.2220   -2.0580    0.4970 O   0  0  0  0  0  0  0  0  0  0  0  0
  2  1  1  6
  2  3  1  0
  2 13  1  0
  3  4  1  0
  4  5  2  3
  4 10  1  0
  5  6  1  0
  6  7  1  1
  6  8  1  0
  8  9  1  0
 10 11  1  0
 10 13  2  0
 11 12  1  0
 13 14  1  0
 14 15  2  0
 14 16  1  0
 16 17  1  0
 17 18  2  0
 17 19  1  0
 20 19  1  1
 20 21  1  0
 20 24  1  0
 21 22  1  0
 22 23  1  0
 23 24  1  0
 24 25  2  0
M  END
