
     RDKit          3D

 25 26  0  0  0  0  0  0  0  0999 V2000
   -1.5860   -2.9980    1.4340 C   0  0  0  0  0  0  0  0  0  0  0  0
   -0.6620   -1.8320    1.1590 C   0  0  0  0  0  0  0  0  0  0  0  0
   -1.3560   -0.8350    0.2610 C   0  0  1  0  0  0  0  0  0  0  0  0
   -2.5210   -0.3400    0.8420 O   0  0  0  0  0  0  0  0  0  0  0  0
   -3.3260    0.2880   -0.1000 C   0  0  2  0  0  0  0  0  0  0  0  0
   -2.5930    0.5900   -1.3830 C   0  0  0  0  0  0  0  0  0  0  0  0
   -1.2370    1.1630   -1.1150 C   0  0  0  0  0  0  0  0  0  0  0  0
   -0.4850    0.3510   -0.0550 C   0  0  2  0  0  0  0  0  0  0  0  0
    0.8270   -0.0050   -0.4890 N   0  0  0  0  0  0  0  0  0  0  0  0
    1.9520    0.4530    0.2250 C   0  0  0  0  0  0  0  0  0  0  0  0
    1.7640    1.1810    1.2500 O   0  0  0  0  0  0  0  0  0  0  0  0
    3.2560    0.1720   -0.1030 O   0  0  0  0  0  0  0  0  0  0  0  0
    4.3290    0.6780    0.6780 C   0  0  0  0  0  0  0  0  0  0  0  0
    5.6410    0.2440    0.1340 C   0  0  0  0  0  0  0  0  0  0  0  0
    6.8850    0.6810    0.8270 C   0  0  0  0  0  0  0  0  0  0  0  0
    5.6600   -0.5130   -0.9410 C   0  0  0  0  0  0  0  0  0  0  0  0
    6.8790   -0.9270   -1.4610 O   0  0  0  0  0  0  0  0  0  0  0  0
   -3.8380    1.5330    0.5430 C   0  0  0  0  0  0  0  0  0  0  0  0
   -3.2940    2.0180    1.5670 O   0  0  0  0  0  0  0  0  0  0  0  0
   -4.9730    2.1390   -0.0620 N   0  0  0  0  0  0  0  0  0  0  0  0
   -5.9220    1.3850   -0.8300 C   0  0  0  0  0  0  0  0  0  0  0  0
   -6.9220    1.9280   -1.3620 O   0  0  0  0  0  0  0  0  0  0  0  0
   -5.6440   -0.0160   -0.9430 N   0  0  0  0  0  0  0  0  0  0  0  0
   -4.5020   -0.5830   -0.3250 C   0  0  0  0  0  0  0  0  0  0  0  0
   -4.5060   -1.7720    0.0100 O   0  0  0  0  0  0  0  0  0  0  0  0
  1  2  1  0
  3  2  1  1
  3  4  1  0
  3  8  1  0
  4  5  1  0
  5  6  1  6
  5 18  1  0
  5 24  1  0
  6  7  1  0
  7  8  1  0
  8  9  1  6
  9 10  1  0
 10 11  2  0
 10 12  1  0
 12 13  1  0
 13 14  1  0
 14 15  1  0
 14 16  2  3
 16 17  1  0
 18 19  2  0
 18 20  1  0
 20 21  1  0
 21 22  2  0
 21 23  1  0
 23 24  1  0
 24 25  2  0
M  END
