
     RDKit          3D

 12 12  0  0  0  0  0  0  0  0999 V2000
    3.6960    1.0150   -0.2460 O   0  0  0  0  0  0  0  0  0  0  0  0
    3.3560   -0.3300   -0.0570 C   0  0  0  0  0  0  0  0  0  0  0  0
    1.9330   -0.4830    0.4130 C   0  0  0  0  0  0  0  0  0  0  0  0
    1.0450    0.0750   -0.5660 O   0  0  0  0  0  0  0  0  0  0  0  0
   -0.3260    0.0520   -0.3550 C   0  0  0  0  0  0  0  0  0  0  0  0
   -0.8560   -0.5070    0.7970 C   0  0  0  0  0  0  0  0  0  0  0  0
   -2.2190   -0.5290    1.0050 C   0  0  0  0  0  0  0  0  0  0  0  0
   -2.7690   -1.0880    2.1600 O   0  0  0  0  0  0  0  0  0  0  0  0
   -3.0180    0.0240    0.0240 C   0  0  0  0  0  0  0  0  0  0  0  0
   -2.4930    0.5800   -1.1220 C   0  0  0  0  0  0  0  0  0  0  0  0
   -1.1300    0.6060   -1.3370 C   0  0  0  0  0  0  0  0  0  0  0  0
   -0.5800    1.1650   -2.4930 O   0  0  0  0  0  0  0  0  0  0  0  0
  1  2  1  0
  2  3  1  0
  3  4  1  0
  4  5  1  0
  5  6  2  0
  5 11  1  0
  6  7  1  0
  7  8  1  0
  7  9  2  0
  9 10  1  0
 10 11  2  0
 11 12  1  0
M  END
