
     RDKit          3D

 12 12  0  0  0  0  0  0  0  0999 V2000
    4.0690    0.1160    0.0370 O   0  0  0  0  0  0  0  0  0  0  0  0
    2.7440   -0.1320    0.4380 C   0  0  0  0  0  0  0  0  0  0  0  0
    2.0370   -0.7490   -0.7330 C   0  0  0  0  0  0  0  0  0  0  0  0
    0.7240   -1.0490   -0.5110 O   0  0  0  0  0  0  0  0  0  0  0  0
   -0.3120   -0.1860   -0.2730 C   0  0  0  0  0  0  0  0  0  0  0  0
   -0.1660    1.1620   -0.2770 C   0  0  0  0  0  0  0  0  0  0  0  0
   -1.2410    2.0060   -0.0250 C   0  0  0  0  0  0  0  0  0  0  0  0
   -2.4600    1.4310    0.2280 C   0  0  0  0  0  0  0  0  0  0  0  0
   -2.6140    0.0620    0.2320 C   0  0  0  0  0  0  0  0  0  0  0  0
   -3.8730   -0.4730    0.4930 O   0  0  0  0  0  0  0  0  0  0  0  0
   -1.5670   -0.7870   -0.0140 C   0  0  0  0  0  0  0  0  0  0  0  0
   -1.6720   -2.1720   -0.0220 O   0  0  0  0  0  0  0  0  0  0  0  0
  1  2  1  0
  2  3  1  0
  3  4  1  0
  4  5  1  0
  5  6  2  0
  5 11  1  0
  6  7  1  0
  7  8  2  0
  8  9  1  0
  9 10  1  0
  9 11  2  0
 11 12  1  0
M  END
