
     RDKit          3D

 12 12  0  0  0  0  0  0  0  0999 V2000
    4.7070    0.6270    0.3700 O   0  0  0  0  0  0  0  0  0  0  0  0
    3.6380   -0.0210    0.4560 C   0  0  0  0  0  0  0  0  0  0  0  0
    3.6290   -1.2810    0.9860 O   0  0  0  0  0  0  0  0  0  0  0  0
    2.3840    0.5980   -0.0230 C   0  0  0  0  0  0  0  0  0  0  0  0
    1.3580   -0.2840    0.1700 O   0  0  0  0  0  0  0  0  0  0  0  0
    0.1180    0.1850   -0.2440 C   0  0  1  0  0  0  0  0  0  0  0  0
   -0.4510   -0.7390   -1.2540 C   0  0  0  0  0  0  0  0  0  0  0  0
   -1.9160   -0.7000   -1.4360 C   0  0  0  0  0  0  0  0  0  0  0  0
   -2.7200   -0.3860   -0.2270 C   0  0  0  0  0  0  0  0  0  0  0  0
   -2.1110    0.7200    0.6190 C   0  0  0  0  0  0  0  0  0  0  0  0
   -0.7380    0.2340    1.0100 C   0  0  2  0  0  0  0  0  0  0  0  0
   -0.1620    0.9620    2.0160 O   0  0  0  0  0  0  0  0  0  0  0  0
  1  2  2  0
  2  3  1  0
  2  4  1  0
  4  5  1  0
  6  5  1  1
  6  7  1  0
  6 11  1  0
  7  8  1  0
  8  9  1  0
  9 10  1  0
 10 11  1  0
 11 12  1  1
M  END
