
     RDKit          3D

 11 11  0  0  0  0  0  0  0  0999 V2000
    3.5100   -0.8150    0.5170 O   0  0  0  0  0  0  0  0  0  0  0  0
    2.6890    0.3130    0.5140 C   0  0  0  0  0  0  0  0  0  0  0  0
    1.5500   -0.0030   -0.4650 C   0  0  1  0  0  0  0  0  0  0  0  0
    0.8440   -1.2030    0.0360 C   0  0  0  0  0  0  0  0  0  0  0  0
   -0.6410   -1.1940   -0.1570 C   0  0  0  0  0  0  0  0  0  0  0  0
   -1.3160    0.0560    0.2670 C   0  0  2  0  0  0  0  0  0  0  0  0
   -1.6780   -0.0530    1.6310 O   0  0  0  0  0  0  0  0  0  0  0  0
   -2.6440    0.1370   -0.4880 C   0  0  0  0  0  0  0  0  0  0  0  0
   -3.3420   -1.0570   -0.1960 O   0  0  0  0  0  0  0  0  0  0  0  0
   -0.5210    1.3000    0.1100 C   0  0  0  0  0  0  0  0  0  0  0  0
    0.7020    1.1920   -0.7100 C   0  0  0  0  0  0  0  0  0  0  0  0
  1  2  1  0
  3  2  1  1
  3  4  1  0
  3 11  1  0
  4  5  1  0
  5  6  1  0
  6  7  1  1
  6  8  1  0
  6 10  1  0
  8  9  1  0
 10 11  1  0
M  END
