
     RDKit          3D

 26 29  0  0  0  0  0  0  0  0999 V2000
   -3.5930   -5.8780   -0.0450 N   0  0  0  0  0  0  0  0  0  0  0  0
   -4.1100   -4.8390   -0.9010 C   0  0  0  0  0  0  0  0  0  0  0  0
   -5.1960   -5.1290   -1.5120 N   0  0  0  0  0  0  0  0  0  0  0  0
   -3.3890   -3.5850   -0.9190 C   0  0  0  0  0  0  0  0  0  0  0  0
   -2.1760   -3.5090   -0.2160 C   0  0  0  0  0  0  0  0  0  0  0  0
   -1.4350   -2.3580   -0.1880 C   0  0  0  0  0  0  0  0  0  0  0  0
   -0.2390   -1.9760    0.3950 C   0  0  0  0  0  0  0  0  0  0  0  0
    0.0530   -0.6330    0.0790 C   0  0  0  0  0  0  0  0  0  0  0  0
    1.2380    0.0560    0.5640 C   0  0  0  0  0  0  0  0  0  0  0  0
    2.2170   -0.6320    1.2520 C   0  0  0  0  0  0  0  0  0  0  0  0
    3.3480   -0.0040    1.7390 C   0  0  0  0  0  0  0  0  0  0  0  0
    3.4780    1.3520    1.5190 C   0  0  0  0  0  0  0  0  0  0  0  0
    2.5170    2.0760    0.8350 C   0  0  0  0  0  0  0  0  0  0  0  0
    2.7430    3.5140    0.6360 C   0  0  0  0  0  0  0  0  0  0  0  0
    2.9640    4.3170    1.7600 C   0  0  0  0  0  0  0  0  0  0  0  0
    3.2100    5.6770    1.6150 C   0  0  0  0  0  0  0  0  0  0  0  0
    3.2460    6.2760    0.3790 C   0  0  0  0  0  0  0  0  0  0  0  0
    3.0300    5.4890   -0.7290 C   0  0  0  0  0  0  0  0  0  0  0  0
    2.7790    4.1130   -0.5970 C   0  0  0  0  0  0  0  0  0  0  0  0
    1.4000    1.3990    0.3650 C   0  0  0  0  0  0  0  0  0  0  0  0
    0.4550    2.1160   -0.3030 O   0  0  0  0  0  0  0  0  0  0  0  0
   -0.9680   -0.2270   -0.6840 N   0  0  0  0  0  0  0  0  0  0  0  0
   -1.8550   -1.2200   -0.8570 C   0  0  0  0  0  0  0  0  0  0  0  0
   -3.0300   -1.2860   -1.5430 C   0  0  0  0  0  0  0  0  0  0  0  0
   -3.8050   -2.4520   -1.5860 C   0  0  0  0  0  0  0  0  0  0  0  0
   -5.3000   -2.4310   -2.4770 Cl  0  0  0  0  0  0  0  0  0  0  0  0
  1  2  1  0
  2  3  2  0
  2  4  1  0
  4  5  2  0
  4 25  1  0
  5  6  1  0
  6  7  1  0
  6 23  2  0
  7  8  2  0
  8  9  1  0
  8 22  1  0
  9 10  2  0
  9 20  1  0
 10 11  1  0
 11 12  2  0
 12 13  1  0
 13 14  1  0
 13 20  2  0
 14 15  2  0
 14 19  1  0
 15 16  1  0
 16 17  2  0
 17 18  1  0
 18 19  2  0
 20 21  1  0
 22 23  1  0
 23 24  1  0
 24 25  2  0
 25 26  1  0
M  CHG  1   3   1
M  END
