
     RDKit          3D

 12 12  0  0  0  0  0  0  0  0999 V2000
    1.8840    0.8500   -1.2430 O   0  0  0  0  0  0  0  0  0  0  0  0
    1.6760    0.1970   -0.2010 C   0  0  0  0  0  0  0  0  0  0  0  0
    2.7390   -0.4970    0.5740 C   0  0  0  0  0  0  0  0  0  0  0  0
    4.1020   -0.3050   -0.0690 C   0  0  0  0  0  0  0  0  0  0  0  0
    4.3500    1.0670   -0.0930 O   0  0  0  0  0  0  0  0  0  0  0  0
    0.3820    0.1100    0.2630 O   0  0  0  0  0  0  0  0  0  0  0  0
   -0.7240    0.7210   -0.3750 C   0  0  0  0  0  0  0  0  0  0  0  0
   -1.9410    0.3810    0.4540 C   0  0  1  0  0  0  0  0  0  0  0  0
   -1.8420    0.8440    1.7470 O   0  0  0  0  0  0  0  0  0  0  0  0
   -3.2600    0.5980   -0.2350 C   0  0  0  0  0  0  0  0  0  0  0  0
   -3.1580   -0.8360   -0.7450 C   0  0  0  0  0  0  0  0  0  0  0  0
   -2.2230   -1.1070    0.4190 C   0  0  0  0  0  0  0  0  0  0  0  0
  1  2  2  0
  2  3  1  0
  2  6  1  0
  3  4  1  0
  4  5  1  0
  6  7  1  0
  7  8  1  0
  8  9  1  1
  8 10  1  0
  8 12  1  0
 10 11  1  0
 11 12  1  0
M  END
