
     RDKit          3D

 25 28  0  0  0  0  0  0  0  0999 V2000
   -5.4230    0.3490    2.1580 C   0  0  0  0  0  0  0  0  0  0  0  0
   -4.7750   -0.2100    0.9440 C   0  0  0  0  0  0  0  0  0  0  0  0
   -5.5540   -0.7090   -0.0780 C   0  0  0  0  0  0  0  0  0  0  0  0
   -4.9770   -1.2470   -1.1990 C   0  0  0  0  0  0  0  0  0  0  0  0
   -5.8140   -1.7260   -2.2410 N   0  0  0  0  0  0  0  0  0  0  0  0
   -3.6030   -1.3020   -1.3180 C   0  0  0  0  0  0  0  0  0  0  0  0
   -2.9780   -1.8710   -2.5310 C   0  0  0  0  0  0  0  0  0  0  0  0
   -2.7490   -0.8060   -0.2990 C   0  0  0  0  0  0  0  0  0  0  0  0
   -1.4600   -0.8900   -0.5140 O   0  0  0  0  0  0  0  0  0  0  0  0
   -0.2610   -0.4240   -0.2570 C   0  0  0  0  0  0  0  0  0  0  0  0
    0.8890   -1.0730   -0.6190 N   0  0  0  0  0  0  0  0  0  0  0  0
    1.9380   -0.3560   -0.2330 C   0  0  0  0  0  0  0  0  0  0  0  0
    3.3670   -0.7330   -0.2660 C   0  0  0  0  0  0  0  0  0  0  0  0
    4.2450    0.1610    0.0400 C   0  0  0  0  0  0  0  0  0  0  0  0
    5.6800   -0.0340    0.0720 C   0  0  0  0  0  0  0  0  0  0  0  0
    6.6050    0.8550    0.3740 C   0  0  0  0  0  0  0  0  0  0  0  0
    7.8720    0.2560    0.2880 N   0  0  0  0  0  0  0  0  0  0  0  0
    7.6640   -1.0710   -0.0870 C   0  0  0  0  0  0  0  0  0  0  0  0
    6.3850   -1.2950   -0.2330 C   0  0  0  0  0  0  0  0  0  0  0  0
    1.4820    0.7470    0.3700 N   0  0  0  0  0  0  0  0  0  0  0  0
    0.1070    0.7240    0.3780 C   0  0  0  0  0  0  0  0  0  0  0  0
   -0.6930    1.6900    1.1580 C   0  0  2  0  0  0  0  0  0  0  0  0
   -1.0840    3.0770    0.8090 C   0  0  0  0  0  0  0  0  0  0  0  0
    0.1830    2.9770    1.5040 C   0  0  0  0  0  0  0  0  0  0  0  0
   -3.4180   -0.2790    0.7940 C   0  0  0  0  0  0  0  0  0  0  0  0
  1  2  1  0
  2  3  2  0
  2 25  1  0
  3  4  1  0
  4  5  1  0
  4  6  2  0
  6  7  1  0
  6  8  1  0
  8  9  1  0
  8 25  2  0
  9 10  1  0
 10 11  1  0
 10 21  2  0
 11 12  1  0
 12 13  1  0
 12 20  2  0
 13 14  2  3
 14 15  1  0
 15 16  2  0
 15 19  1  0
 16 17  1  0
 17 18  1  0
 18 19  2  0
 20 21  1  0
 22 21  1  6
 22 23  1  0
 22 24  1  0
 23 24  1  0
M  CHG  1  17   1
M  END
