
     RDKit          3D

 25 28  0  0  0  0  0  0  0  0999 V2000
   -4.1990   -3.8540   -1.2880 C   0  0  0  0  0  0  0  0  0  0  0  0
   -3.5390   -2.5760   -0.8810 C   0  0  0  0  0  0  0  0  0  0  0  0
   -4.0390   -1.7620    0.1090 C   0  0  0  0  0  0  0  0  0  0  0  0
   -3.4420   -0.5710    0.5010 C   0  0  0  0  0  0  0  0  0  0  0  0
   -2.2870   -0.1840   -0.1340 C   0  0  0  0  0  0  0  0  0  0  0  0
   -1.5800    1.0620    0.1870 C   0  0  0  0  0  0  0  0  0  0  0  0
   -2.0890    2.2540    0.3750 C   0  0  0  0  0  0  0  0  0  0  0  0
   -3.5280    2.6720    0.3110 C   0  0  0  0  0  0  0  0  0  0  0  0
   -3.8920    3.2000    1.5950 N   0  0  0  0  0  0  0  0  0  0  0  0
   -1.0170    3.1970    0.6730 C   0  0  0  0  0  0  0  0  0  0  0  0
   -1.1030    4.4380    0.9120 O   0  0  0  0  0  0  0  0  0  0  0  0
    0.2350    2.4790    0.6580 N   0  0  0  0  0  0  0  0  0  0  0  0
   -0.0990    1.1410    0.3560 C   0  0  0  0  0  0  0  0  0  0  0  0
    0.6750    0.1400    0.2460 N   0  0  0  0  0  0  0  0  0  0  0  0
    2.0670    0.0670    0.3780 C   0  0  0  0  0  0  0  0  0  0  0  0
    2.8330    0.6770    1.3260 C   0  0  0  0  0  0  0  0  0  0  0  0
    4.2010    0.5190    1.3700 C   0  0  0  0  0  0  0  0  0  0  0  0
    4.8350   -0.2730    0.4410 C   0  0  0  0  0  0  0  0  0  0  0  0
    4.0950   -0.8990   -0.5260 C   0  0  0  0  0  0  0  0  0  0  0  0
    2.7310   -0.7330   -0.5580 C   0  0  0  0  0  0  0  0  0  0  0  0
    5.0320   -1.6890   -1.3880 C   0  0  0  0  0  0  0  0  0  0  0  0
    6.2970   -1.0310   -1.1850 N   0  0  0  0  0  0  0  0  0  0  0  0
    6.2500   -0.6510    0.2080 C   0  0  0  0  0  0  0  0  0  0  0  0
   -1.7660   -1.0050   -1.1450 C   0  0  0  0  0  0  0  0  0  0  0  0
   -2.3770   -2.1800   -1.5150 C   0  0  0  0  0  0  0  0  0  0  0  0
  1  2  1  0
  2  3  2  0
  2 25  1  0
  3  4  1  0
  4  5  2  0
  5  6  1  0
  5 24  1  0
  6  7  2  0
  6 13  1  0
  7  8  1  0
  7 10  1  0
  8  9  1  0
 10 11  2  0
 10 12  1  0
 12 13  1  0
 13 14  2  3
 14 15  1  0
 15 16  2  0
 15 20  1  0
 16 17  1  0
 17 18  2  0
 18 19  1  0
 18 23  1  0
 19 20  2  0
 19 21  1  0
 21 22  1  0
 22 23  1  0
 24 25  2  0
M  CHG  1   9   1
M  END
