
     RDKit          3D

 25 28  0  0  0  0  0  0  0  0999 V2000
    1.0620    3.0290   -0.3280 C   0  0  0  0  0  0  0  0  0  0  0  0
    1.7060    1.7030   -0.2080 C   0  0  0  0  0  0  0  0  0  0  0  0
    2.9810    1.5180   -0.5510 N   0  0  0  0  0  0  0  0  0  0  0  0
    3.6050    0.3480   -0.4610 C   0  0  0  0  0  0  0  0  0  0  0  0
    4.9320    0.2720   -0.8460 C   0  0  0  0  0  0  0  0  0  0  0  0
    5.6730    1.4780   -1.3570 C   0  0  0  0  0  0  0  0  0  0  0  0
    5.5570   -0.9460   -0.7460 C   0  0  0  0  0  0  0  0  0  0  0  0
    4.8920   -2.0620   -0.2780 C   0  0  0  0  0  0  0  0  0  0  0  0
    3.5570   -1.9420    0.0980 C   0  0  0  0  0  0  0  0  0  0  0  0
    2.8990   -0.7310    0.0100 C   0  0  0  0  0  0  0  0  0  0  0  0
    1.5450   -0.6130    0.3930 C   0  0  0  0  0  0  0  0  0  0  0  0
    0.9490   -1.8050    0.8590 N   0  0  0  0  0  0  0  0  0  0  0  0
    0.9680    0.6030    0.2780 C   0  0  0  0  0  0  0  0  0  0  0  0
   -0.4200    0.8790    0.6330 C   0  0  0  0  0  0  0  0  0  0  0  0
   -1.1670   -0.2180    1.1200 N   0  0  0  0  0  0  0  0  0  0  0  0
   -2.5170    0.1860    1.5430 C   0  0  2  0  0  0  0  0  0  0  0  0
   -3.1120   -1.0640    2.1980 C   0  0  0  0  0  0  0  0  0  0  0  0
   -3.5720   -1.8340    0.9850 C   0  0  0  0  0  0  0  0  0  0  0  0
   -4.0660   -0.7920    0.0790 C   0  0  0  0  0  0  0  0  0  0  0  0
   -3.4350    0.3860    0.4090 C   0  0  0  0  0  0  0  0  0  0  0  0
   -3.7630    1.4960   -0.3420 C   0  0  0  0  0  0  0  0  0  0  0  0
   -4.6950    1.3950   -1.3800 C   0  0  0  0  0  0  0  0  0  0  0  0
   -5.2750    0.2320   -1.6560 N   0  0  0  0  0  0  0  0  0  0  0  0
   -4.9970   -0.8810   -0.9620 C   0  0  0  0  0  0  0  0  0  0  0  0
   -5.6200   -2.0790   -1.2760 O   0  0  0  0  0  0  0  0  0  0  0  0
  1  2  1  0
  2  3  2  0
  2 13  1  0
  3  4  1  0
  4  5  2  0
  4 10  1  0
  5  6  1  0
  5  7  1  0
  7  8  2  0
  8  9  1  0
  9 10  2  0
 10 11  1  0
 11 12  1  0
 11 13  2  0
 13 14  1  0
 14 15  1  0
 16 15  1  6
 16 17  1  0
 16 20  1  0
 17 18  1  0
 18 19  1  0
 19 20  2  0
 19 24  1  0
 20 21  1  0
 21 22  2  0
 22 23  1  0
 23 24  2  0
 24 25  1  0
M  CHG  1  15   1
M  END
