
     RDKit          3D

 25 27  0  0  0  0  0  0  0  0999 V2000
   -5.3770   -0.6010    1.0350 C   0  0  0  0  0  0  0  0  0  0  0  0
   -5.4210    0.0340   -0.3040 C   0  0  0  0  0  0  0  0  0  0  0  0
   -6.7280    0.2560   -0.9690 C   0  0  0  0  0  0  0  0  0  0  0  0
   -4.2590    0.3860   -0.8640 C   0  0  0  0  0  0  0  0  0  0  0  0
   -2.9900    0.1600   -0.1960 C   0  0  0  0  0  0  0  0  0  0  0  0
   -1.8040    0.4630   -0.6520 C   0  0  0  0  0  0  0  0  0  0  0  0
   -1.6630    1.1030   -1.9780 C   0  0  0  0  0  0  0  0  0  0  0  0
   -1.0570    2.4110   -1.7740 N   0  0  0  0  0  0  0  0  0  0  0  0
   -0.6030    0.1900    0.1120 C   0  0  0  0  0  0  0  0  0  0  0  0
   -0.6450   -0.3260    1.3850 C   0  0  0  0  0  0  0  0  0  0  0  0
    0.5160   -0.6090    2.1190 C   0  0  0  0  0  0  0  0  0  0  0  0
    0.4180   -1.1730    3.5080 C   0  0  0  0  0  0  0  0  0  0  0  0
    1.7170   -0.3530    1.5210 C   0  0  0  0  0  0  0  0  0  0  0  0
    1.8360    0.1630    0.2500 C   0  0  0  0  0  0  0  0  0  0  0  0
    3.1210    0.4290   -0.3800 C   0  0  0  0  0  0  0  0  0  0  0  0
    3.4480    1.5500   -1.0420 N   0  0  0  0  0  0  0  0  0  0  0  0
    4.6970    1.4600   -1.4930 N   0  0  0  0  0  0  0  0  0  0  0  0
    5.2400    0.2760   -1.1450 C   0  0  0  0  0  0  0  0  0  0  0  0
    6.4620   -0.3280   -1.3430 C   0  0  0  0  0  0  0  0  0  0  0  0
    6.6310   -1.5910   -0.8110 C   0  0  0  0  0  0  0  0  0  0  0  0
    7.7250   -2.2060   -0.9530 O   0  0  0  0  0  0  0  0  0  0  0  0
    5.6440   -2.2050   -0.1300 N   0  0  0  0  0  0  0  0  0  0  0  0
    4.4460   -1.6270    0.0710 C   0  0  0  0  0  0  0  0  0  0  0  0
    4.2270   -0.3780   -0.4340 C   0  0  0  0  0  0  0  0  0  0  0  0
    0.6590    0.4260   -0.4340 C   0  0  0  0  0  0  0  0  0  0  0  0
  1  2  1  0
  2  3  1  0
  2  4  2  3
  4  5  1  0
  5  6  2  3
  6  7  1  0
  6  9  1  0
  7  8  1  0
  9 10  2  0
  9 25  1  0
 10 11  1  0
 11 12  1  0
 11 13  2  0
 13 14  1  0
 14 15  1  0
 14 25  2  0
 15 16  2  0
 15 24  1  0
 16 17  1  0
 17 18  1  0
 18 19  2  0
 18 24  1  0
 19 20  1  0
 20 21  2  0
 20 22  1  0
 22 23  1  0
 23 24  2  0
M  CHG  1   8   1
M  END
