
     RDKit          3D

 42 45  0  0  0  0  0  0  0  0999 V2000
    3.8930    0.3180   -3.7480 C   0  0  0  0  0  0  0  0  0  0  0  0
    4.0060   -0.6590   -2.6120 C   0  0  2  0  0  0  0  0  0  0  0  0
    2.8200   -0.5760   -1.8060 N   0  0  0  0  0  0  0  0  0  0  0  0
    2.1860   -1.8700   -1.6290 C   0  0  0  0  0  0  0  0  0  0  0  0
    1.0250   -1.6910   -0.7300 C   0  0  0  0  0  0  0  0  0  0  0  0
    0.2970   -2.6750   -0.4220 O   0  0  0  0  0  0  0  0  0  0  0  0
    0.7020   -0.4510   -0.2020 O   0  0  0  0  0  0  0  0  0  0  0  0
   -0.4120   -0.2780    0.6610 C   0  0  0  0  0  0  0  0  0  0  0  0
   -0.5560    1.1530    1.1040 C   0  0  0  0  0  0  0  0  0  0  0  0
   -1.6800    1.2440    1.9550 O   0  0  0  0  0  0  0  0  0  0  0  0
   -2.9990    0.9760    1.5100 C   0  0  0  0  0  0  0  0  0  0  0  0
   -3.0440    0.6740    0.3180 O   0  0  0  0  0  0  0  0  0  0  0  0
   -4.0920    1.0830    2.4580 C   0  0  0  0  0  0  0  0  0  0  0  0
   -3.7950    1.4270    3.7970 C   0  0  0  0  0  0  0  0  0  0  0  0
   -4.7180    1.5460    4.7770 C   0  0  0  0  0  0  0  0  0  0  0  0
   -6.0340    1.3190    4.4610 C   0  0  0  0  0  0  0  0  0  0  0  0
   -6.3540    0.9870    3.1830 C   0  0  0  0  0  0  0  0  0  0  0  0
   -5.3840    0.8640    2.1580 C   0  0  0  0  0  0  0  0  0  0  0  0
   -5.8260    0.5210    0.8240 C   0  0  0  0  0  0  0  0  0  0  0  0
   -5.1620    0.3900   -0.2090 O   0  0  0  0  0  0  0  0  0  0  0  0
   -7.2140    0.2860    0.5990 O   0  0  0  0  0  0  0  0  0  0  0  0
   -7.6960   -0.0510   -0.6870 C   0  0  0  0  0  0  0  0  0  0  0  0
   -9.1490   -0.2300   -0.5930 C   0  0  0  0  0  0  0  0  0  0  0  0
   -9.7970   -0.0680    0.6040 C   0  0  0  0  0  0  0  0  0  0  0  0
  -11.1810   -0.2370    0.7090 C   0  0  0  0  0  0  0  0  0  0  0  0
  -11.9090   -0.5720   -0.4080 C   0  0  0  0  0  0  0  0  0  0  0  0
  -11.2610   -0.7340   -1.6090 C   0  0  0  0  0  0  0  0  0  0  0  0
   -9.8750   -0.5650   -1.7120 C   0  0  0  0  0  0  0  0  0  0  0  0
   -9.3220   -0.7490   -2.9560 O   0  0  0  0  0  0  0  0  0  0  0  0
    5.2190   -0.3880   -1.7820 C   0  0  0  0  0  0  0  0  0  0  0  0
    5.2790    0.6660   -0.9040 C   0  0  0  0  0  0  0  0  0  0  0  0
    6.4190    0.9070   -0.1280 C   0  0  0  0  0  0  0  0  0  0  0  0
    7.5120    0.0910   -0.2240 C   0  0  0  0  0  0  0  0  0  0  0  0
    7.4460   -0.9640   -1.1080 C   0  0  0  0  0  0  0  0  0  0  0  0
    6.3360   -1.2110   -1.8740 C   0  0  0  0  0  0  0  0  0  0  0  0
    8.7020   -1.7960   -1.1690 C   0  0  0  0  0  0  0  0  0  0  0  0
    9.7360   -0.8340   -1.2760 O   0  0  0  0  0  0  0  0  0  0  0  0
    9.9780   -0.2840    0.0020 C   0  0  0  0  0  0  0  0  0  0  0  0
    8.7440    0.2840    0.5910 C   0  0  0  0  0  0  0  0  0  0  0  0
    8.6450    0.9110    1.7300 C   0  0  0  0  0  0  0  0  0  0  0  0
    9.7100    1.1950    2.6530 C   0  0  0  0  0  0  0  0  0  0  0  0
   10.9130    0.9100    2.5740 N   0  0  0  0  0  0  0  0  0  0  0  0
  2  1  1  6
  2  3  1  0
  2 30  1  0
  3  4  1  0
  4  5  1  0
  5  6  2  0
  5  7  1  0
  7  8  1  0
  8  9  1  0
  9 10  1  0
 10 11  1  0
 11 12  2  0
 11 13  1  0
 13 14  2  0
 13 18  1  0
 14 15  1  0
 15 16  2  0
 16 17  1  0
 17 18  2  0
 18 19  1  0
 19 20  2  0
 19 21  1  0
 21 22  1  0
 22 23  1  0
 23 24  2  0
 23 28  1  0
 24 25  1  0
 25 26  2  0
 26 27  1  0
 27 28  2  0
 28 29  1  0
 30 31  2  0
 30 35  1  0
 31 32  1  0
 32 33  2  0
 33 34  1  0
 33 39  1  0
 34 35  2  0
 34 36  1  0
 36 37  1  0
 37 38  1  0
 38 39  1  0
 39 40  2  3
 40 41  1  0
 41 42  2  0
M  CHG  1   3   1
M  END
