
     RDKit          3D

 42 44  0  0  0  0  0  0  0  0999 V2000
   -1.3250   -3.5440    0.4090 C   0  0  0  0  0  0  0  0  0  0  0  0
   -1.6270   -3.6720   -0.8690 C   0  0  0  0  0  0  0  0  0  0  0  0
   -2.1800   -2.5080   -1.6200 C   0  0  0  0  0  0  0  0  0  0  0  0
   -2.4560   -2.7650   -2.9090 C   0  0  0  0  0  0  0  0  0  0  0  0
   -3.0070   -1.6720   -3.7340 C   0  0  0  0  0  0  0  0  0  0  0  0
   -2.3960   -1.3150   -1.1190 N   0  0  0  0  0  0  0  0  0  0  0  0
   -2.9760   -0.3960   -0.5530 C   0  0  0  0  0  0  0  0  0  0  0  0
   -2.1690    0.8870   -0.4780 C   0  0  0  0  0  0  0  0  0  0  0  0
   -0.9550    0.9460   -1.2780 C   0  0  0  0  0  0  0  0  0  0  0  0
   -0.7170   -0.0150   -2.1020 O   0  0  0  0  0  0  0  0  0  0  0  0
   -0.0160    2.0350   -1.2010 C   0  0  0  0  0  0  0  0  0  0  0  0
    1.0080    2.4690   -1.8800 C   0  0  0  0  0  0  0  0  0  0  0  0
    1.5310    3.6880   -1.2850 N   0  0  0  0  0  0  0  0  0  0  0  0
    0.6900    3.9730   -0.1590 C   0  0  0  0  0  0  0  0  0  0  0  0
    0.3040    5.0960    0.3280 C   0  0  0  0  0  0  0  0  0  0  0  0
    0.5370    6.4600   -0.0400 C   0  0  0  0  0  0  0  0  0  0  0  0
    0.0190    7.4060    0.6640 O   0  0  0  0  0  0  0  0  0  0  0  0
    1.3000    6.8990   -1.1360 N   0  0  0  0  0  0  0  0  0  0  0  0
    1.4680    8.3290   -1.4350 C   0  0  0  0  0  0  0  0  0  0  0  0
    0.3100    2.6160    0.2480 C   0  0  2  0  0  0  0  0  0  0  0  0
    1.5320    1.8490    0.5460 N   0  0  0  0  0  0  0  0  0  0  0  0
    1.6130    0.4780    0.8280 C   0  0  0  0  0  0  0  0  0  0  0  0
    0.5810   -0.1910    0.8120 O   0  0  0  0  0  0  0  0  0  0  0  0
    2.8540   -0.1490    1.1280 N   0  0  0  0  0  0  0  0  0  0  0  0
    3.0940   -1.5180    1.3440 C   0  0  0  0  0  0  0  0  0  0  0  0
    2.2490   -2.5190    0.9270 C   0  0  0  0  0  0  0  0  0  0  0  0
    2.5610   -3.8730    1.0620 C   0  0  0  0  0  0  0  0  0  0  0  0
    1.7050   -4.8880    0.6330 O   0  0  0  0  0  0  0  0  0  0  0  0
    2.1100   -6.2310    0.8010 C   0  0  0  0  0  0  0  0  0  0  0  0
    3.7720   -4.1660    1.6440 C   0  0  0  0  0  0  0  0  0  0  0  0
    4.6450   -3.1760    2.0780 C   0  0  0  0  0  0  0  0  0  0  0  0
    4.3220   -1.8450    1.9350 C   0  0  0  0  0  0  0  0  0  0  0  0
    5.1380   -0.8140    2.3420 O   0  0  0  0  0  0  0  0  0  0  0  0
    6.3830   -1.0610    2.9460 C   0  0  0  0  0  0  0  0  0  0  0  0
   -2.6600    1.9270    0.1600 C   0  0  0  0  0  0  0  0  0  0  0  0
   -3.9560    1.9170    0.8140 C   0  0  0  0  0  0  0  0  0  0  0  0
   -4.6880    0.8430    0.7780 C   0  0  0  0  0  0  0  0  0  0  0  0
   -5.9200    0.8690    1.4130 O   0  0  0  0  0  0  0  0  0  0  0  0
   -4.2520   -0.4180    0.0790 C   0  0  0  0  0  0  0  0  0  0  0  0
   -5.0960   -1.3940    0.1000 C   0  0  0  0  0  0  0  0  0  0  0  0
   -5.2070   -2.7460   -0.4070 C   0  0  0  0  0  0  0  0  0  0  0  0
   -6.6710   -2.8670   -1.4930 Cl  0  0  0  0  0  0  0  0  0  0  0  0
  1  2  2  0
  2  3  1  0
  3  4  2  3
  3  6  1  0
  4  5  1  0
  6  7  2  3
  7  8  1  0
  7 39  1  0
  8  9  1  0
  8 35  2  0
  9 10  2  0
  9 11  1  0
 11 12  2  0
 11 20  1  0
 12 13  1  0
 13 14  1  0
 14 15  2  3
 14 20  1  0
 15 16  1  0
 16 17  2  0
 16 18  1  0
 18 19  1  0
 20 21  1  6
 21 22  1  0
 22 23  2  0
 22 24  1  0
 24 25  1  0
 25 26  2  0
 25 32  1  0
 26 27  1  0
 27 28  1  0
 27 30  2  0
 28 29  1  0
 30 31  1  0
 31 32  2  0
 32 33  1  0
 33 34  1  0
 35 36  1  0
 36 37  2  0
 37 38  1  0
 37 39  1  0
 39 40  2  3
 40 41  1  0
 41 42  1  0
M  END
