
     RDKit          3D

 42 42  0  0  0  0  0  0  0  0999 V2000
   -4.4990    3.6470   -0.6820 C   0  0  0  0  0  0  0  0  0  0  0  0
   -4.2400    2.5930    0.2980 C   0  0  0  0  0  0  0  0  0  0  0  0
   -3.7270    2.8850    1.4200 O   0  0  0  0  0  0  0  0  0  0  0  0
   -4.5280    1.1960    0.0930 N   0  0  0  0  0  0  0  0  0  0  0  0
   -4.2630    0.2050    1.0610 C   0  0  1  0  0  0  0  0  0  0  0  0
   -5.3910   -0.1840    1.9790 C   0  0  0  0  0  0  0  0  0  0  0  0
   -6.6250   -0.7120    1.3630 C   0  0  1  0  0  0  0  0  0  0  0  0
   -7.5530   -1.0990    2.5530 C   0  0  0  0  0  0  0  0  0  0  0  0
   -8.9410   -1.1920    2.0000 C   0  0  0  0  0  0  0  0  0  0  0  0
   -8.9560   -1.4760    0.5270 C   0  0  0  0  0  0  0  0  0  0  0  0
   -8.4370   -0.2730   -0.2330 C   0  0  0  0  0  0  0  0  0  0  0  0
   -7.4340    0.3990    0.6840 C   0  0  0  0  0  0  0  0  0  0  0  0
   -3.5470   -1.0150    0.5130 C   0  0  1  0  0  0  0  0  0  0  0  0
   -4.4690   -1.5180   -0.4590 O   0  0  0  0  0  0  0  0  0  0  0  0
   -2.3190   -0.7260   -0.2300 C   0  0  0  0  0  0  0  0  0  0  0  0
   -1.1780   -0.0490    0.3700 C   0  0  2  0  0  0  0  0  0  0  0  0
   -0.1310    0.0700   -0.7240 C   0  0  0  0  0  0  0  0  0  0  0  0
   -0.2460   -0.5300   -1.8240 O   0  0  0  0  0  0  0  0  0  0  0  0
    1.0350    0.8630   -0.5650 N   0  0  0  0  0  0  0  0  0  0  0  0
    2.0330    0.9420   -1.6690 C   0  0  1  0  0  0  0  0  0  0  0  0
    1.9570    2.3420   -2.2460 C   0  0  0  0  0  0  0  0  0  0  0  0
    2.9170    2.5270   -3.3620 C   0  0  0  0  0  0  0  0  0  0  0  0
    2.6800    1.6400   -4.5100 C   0  0  0  0  0  0  0  0  0  0  0  0
    3.6060    1.6100   -5.5870 N   0  0  0  0  0  0  0  0  0  0  0  0
    1.6810    0.8900   -4.5950 O   0  0  0  0  0  0  0  0  0  0  0  0
    3.3580    0.6150   -1.1040 C   0  0  0  0  0  0  0  0  0  0  0  0
    3.4960    0.7310    0.1530 O   0  0  0  0  0  0  0  0  0  0  0  0
    4.4500    0.1880   -1.8590 N   0  0  0  0  0  0  0  0  0  0  0  0
    5.7700   -0.1060   -1.2200 C   0  0  1  0  0  0  0  0  0  0  0  0
    5.9100   -1.5770   -1.1060 C   0  0  0  0  0  0  0  0  0  0  0  0
    7.0940   -2.1700   -0.4740 C   0  0  0  0  0  0  0  0  0  0  0  0
    7.2680   -1.8570    0.9660 C   0  0  0  0  0  0  0  0  0  0  0  0
    7.4550   -0.4770    1.2770 N   0  0  0  0  0  0  0  0  0  0  0  0
    7.1460   -0.1140    2.5030 C   0  0  0  0  0  0  0  0  0  0  0  0
    6.6600   -1.0620    3.4330 N   0  0  0  0  0  0  0  0  0  0  0  0
    7.3140    1.2470    2.8730 N   0  0  0  0  0  0  0  0  0  0  0  0
    6.7420    0.4360   -2.1860 C   0  0  0  0  0  0  0  0  0  0  0  0
    8.1360    0.3820   -2.0240 N   0  0  0  0  0  0  0  0  0  0  0  0
    6.3620    1.0110   -3.2760 O   0  0  0  0  0  0  0  0  0  0  0  0
   -0.4700   -0.7320    1.5020 C   0  0  2  0  0  0  0  0  0  0  0  0
    0.0920   -2.0690    1.1590 C   0  0  0  0  0  0  0  0  0  0  0  0
   -1.1760   -0.6570    2.8310 C   0  0  0  0  0  0  0  0  0  0  0  0
  1  2  1  0
  2  3  2  0
  2  4  1  0
  4  5  1  0
  5  6  1  6
  5 13  1  0
  7  6  1  1
  7  8  1  0
  7 12  1  0
  8  9  1  0
  9 10  1  0
 10 11  1  0
 11 12  1  0
 13 14  1  6
 13 15  1  0
 16 15  1  6
 16 17  1  0
 16 40  1  0
 17 18  2  0
 17 19  1  0
 19 20  1  0
 20 21  1  1
 20 26  1  0
 21 22  1  0
 22 23  1  0
 23 24  1  0
 23 25  2  0
 26 27  2  0
 26 28  1  0
 28 29  1  0
 29 30  1  6
 29 37  1  0
 30 31  1  0
 31 32  1  0
 32 33  1  0
 33 34  2  3
 34 35  1  0
 34 36  1  0
 37 38  1  0
 37 39  2  0
 40 41  1  6
 40 42  1  0
M  CHG  1  33   1
M  END
