
     RDKit          3D

 42 45  0  0  0  0  0  0  0  0999 V2000
    0.0380   -4.7000   -5.1010 C   0  0  0  0  0  0  0  0  0  0  0  0
   -0.3720   -3.3300   -4.6020 C   0  0  0  0  0  0  0  0  0  0  0  0
   -0.5660   -3.3120   -3.1160 C   0  0  0  0  0  0  0  0  0  0  0  0
   -0.9720   -1.9040   -2.7280 C   0  0  0  0  0  0  0  0  0  0  0  0
   -1.0960   -1.0450   -3.6290 O   0  0  0  0  0  0  0  0  0  0  0  0
   -1.1780   -1.7000   -1.3480 N   0  0  0  0  0  0  0  0  0  0  0  0
   -1.5770   -0.4550   -0.8260 C   0  0  0  0  0  0  0  0  0  0  0  0
   -2.3640    0.4250   -1.5970 C   0  0  0  0  0  0  0  0  0  0  0  0
   -3.0020    1.5370   -1.0420 C   0  0  0  0  0  0  0  0  0  0  0  0
   -2.8860    1.8170    0.3130 C   0  0  0  0  0  0  0  0  0  0  0  0
   -3.4940    2.9520    0.9770 C   0  0  0  0  0  0  0  0  0  0  0  0
   -3.4690    4.1360    0.4220 C   0  0  0  0  0  0  0  0  0  0  0  0
   -2.7190    4.4650   -1.1370 Cl  0  0  0  0  0  0  0  0  0  0  0  0
   -4.0930    5.3360    1.0920 C   0  0  0  0  0  0  0  0  0  0  0  0
   -3.0110    6.3700    1.3290 C   0  0  0  0  0  0  0  0  0  0  0  0
   -2.1240    0.9590    1.0470 C   0  0  0  0  0  0  0  0  0  0  0  0
   -1.4850   -0.1250    0.4950 C   0  0  0  0  0  0  0  0  0  0  0  0
   -0.4630   -0.7430    1.4360 C   0  0  1  0  0  0  0  0  0  0  0  0
    0.4380   -1.5480    0.6930 N   0  0  0  0  0  0  0  0  0  0  0  0
    1.2140   -1.0910   -0.4020 C   0  0  0  0  0  0  0  0  0  0  0  0
    1.1830    0.0690   -0.8530 O   0  0  0  0  0  0  0  0  0  0  0  0
    2.1180   -1.9850   -1.0760 N   0  0  0  0  0  0  0  0  0  0  0  0
    2.9410   -1.6830   -2.1470 C   0  0  0  0  0  0  0  0  0  0  0  0
    3.0740   -0.4540   -2.7060 C   0  0  0  0  0  0  0  0  0  0  0  0
    3.9390   -0.2160   -3.7900 C   0  0  0  0  0  0  0  0  0  0  0  0
    4.6810   -1.2330   -4.3180 C   0  0  0  0  0  0  0  0  0  0  0  0
    4.5680   -2.4890   -3.7740 C   0  0  0  0  0  0  0  0  0  0  0  0
    3.7160   -2.7010   -2.7150 C   0  0  0  0  0  0  0  0  0  0  0  0
    3.5940   -3.9860   -2.1500 O   0  0  0  0  0  0  0  0  0  0  0  0
    0.3780    0.3690    1.9840 C   0  0  0  0  0  0  0  0  0  0  0  0
    1.0340    1.0340    1.0370 O   0  0  0  0  0  0  0  0  0  0  0  0
    0.6650    0.8900    3.2170 N   0  0  0  0  0  0  0  0  0  0  0  0
    1.4900    2.1750    3.2730 C   0  0  0  0  0  0  0  0  0  0  0  0
    2.8790    1.6920    3.5590 C   0  0  0  0  0  0  0  0  0  0  0  0
    2.8440    1.2240    4.9530 N   0  0  0  0  0  0  0  0  0  0  0  0
    1.6430    0.6570    5.4410 C   0  0  0  0  0  0  0  0  0  0  0  0
    1.5400    0.3120    6.6400 O   0  0  0  0  0  0  0  0  0  0  0  0
    0.4270    0.4360    4.5500 C   0  0  0  0  0  0  0  0  0  0  0  0
   -1.2700   -1.3800    2.4950 C   0  0  0  0  0  0  0  0  0  0  0  0
   -2.1970   -0.4160    3.1700 C   0  0  0  0  0  0  0  0  0  0  0  0
   -2.1570    0.9570    2.5340 C   0  0  0  0  0  0  0  0  0  0  0  0
   -2.1570    2.0020    3.1210 O   0  0  0  0  0  0  0  0  0  0  0  0
  1  2  1  0
  2  3  1  0
  3  4  1  0
  4  5  2  0
  4  6  1  0
  6  7  1  0
  7  8  2  0
  7 17  1  0
  8  9  1  0
  9 10  2  0
 10 11  1  0
 10 16  1  0
 11 12  2  3
 12 13  1  0
 12 14  1  0
 14 15  1  0
 16 17  2  0
 16 41  1  0
 17 18  1  0
 18 19  1  6
 18 30  1  0
 18 39  1  0
 19 20  1  0
 20 21  2  0
 20 22  1  0
 22 23  1  0
 23 24  2  0
 23 28  1  0
 24 25  1  0
 25 26  2  0
 26 27  1  0
 27 28  2  0
 28 29  1  0
 30 31  2  0
 30 32  1  0
 32 33  1  0
 32 38  1  0
 33 34  1  0
 34 35  1  0
 35 36  1  0
 36 37  2  0
 36 38  1  0
 39 40  1  0
 40 41  1  0
 41 42  2  0
M  END
