
     RDKit          3D

 42 44  0  0  0  0  0  0  0  0999 V2000
    6.1490   -0.6680    1.2640 C   0  0  0  0  0  0  0  0  0  0  0  0
    5.6020   -1.8400    1.4700 C   0  0  0  0  0  0  0  0  0  0  0  0
    4.2620   -2.1210    0.9350 C   0  0  0  0  0  0  0  0  0  0  0  0
    3.7520   -3.3410    1.1760 C   0  0  0  0  0  0  0  0  0  0  0  0
    4.5180   -4.3480    1.9480 C   0  0  0  0  0  0  0  0  0  0  0  0
    3.5880   -1.1980    0.2540 N   0  0  0  0  0  0  0  0  0  0  0  0
    3.2860   -0.6320   -0.7960 C   0  0  0  0  0  0  0  0  0  0  0  0
    2.2950    0.5130   -0.7490 C   0  0  0  0  0  0  0  0  0  0  0  0
    1.8200    0.8270    0.5860 C   0  0  0  0  0  0  0  0  0  0  0  0
    2.2980    0.1240    1.5820 O   0  0  0  0  0  0  0  0  0  0  0  0
    0.8730    1.8360    0.9630 C   0  0  0  0  0  0  0  0  0  0  0  0
    0.5390    2.0480    2.2670 C   0  0  0  0  0  0  0  0  0  0  0  0
   -0.4060    3.0980    2.3690 N   0  0  0  0  0  0  0  0  0  0  0  0
   -0.7210    3.6140    1.1320 C   0  0  0  0  0  0  0  0  0  0  0  0
   -1.4660    4.5690    0.6610 C   0  0  0  0  0  0  0  0  0  0  0  0
   -2.3130    5.5320    1.2740 C   0  0  0  0  0  0  0  0  0  0  0  0
   -2.9370    6.3710    0.5170 O   0  0  0  0  0  0  0  0  0  0  0  0
   -2.5430    5.6630    2.6440 N   0  0  0  0  0  0  0  0  0  0  0  0
   -3.4670    6.7370    3.0910 C   0  0  0  0  0  0  0  0  0  0  0  0
    0.0790    2.7390    0.1560 C   0  0  2  0  0  0  0  0  0  0  0  0
   -0.9830    2.1140   -0.6160 N   0  0  0  0  0  0  0  0  0  0  0  0
   -1.6650    0.9870   -0.0970 C   0  0  0  0  0  0  0  0  0  0  0  0
   -1.3620    0.5170    1.0280 O   0  0  0  0  0  0  0  0  0  0  0  0
   -2.7020    0.3760   -0.8440 N   0  0  0  0  0  0  0  0  0  0  0  0
   -3.4950   -0.7310   -0.4650 C   0  0  0  0  0  0  0  0  0  0  0  0
   -3.4040   -1.3440    0.7540 C   0  0  0  0  0  0  0  0  0  0  0  0
   -4.2270   -2.4210    1.0930 C   0  0  0  0  0  0  0  0  0  0  0  0
   -4.1400   -3.0430    2.3210 O   0  0  0  0  0  0  0  0  0  0  0  0
   -4.9900   -4.1250    2.6320 C   0  0  0  0  0  0  0  0  0  0  0  0
   -5.1380   -2.8540    0.1660 C   0  0  0  0  0  0  0  0  0  0  0  0
   -5.2350   -2.2340   -1.0760 C   0  0  0  0  0  0  0  0  0  0  0  0
   -4.4340   -1.1850   -1.4090 C   0  0  0  0  0  0  0  0  0  0  0  0
   -4.5300   -0.5580   -2.6620 O   0  0  0  0  0  0  0  0  0  0  0  0
   -5.4780   -1.0400   -3.5790 C   0  0  0  0  0  0  0  0  0  0  0  0
    1.9670    1.1210   -1.8500 C   0  0  0  0  0  0  0  0  0  0  0  0
    2.5020    0.7640   -3.1570 C   0  0  0  0  0  0  0  0  0  0  0  0
    3.3710   -0.2240   -3.2760 C   0  0  0  0  0  0  0  0  0  0  0  0
    3.8750   -0.5530   -4.5400 O   0  0  0  0  0  0  0  0  0  0  0  0
    3.8230   -0.9850   -2.1290 C   0  0  0  0  0  0  0  0  0  0  0  0
    4.6890   -1.9620   -2.2040 C   0  0  0  0  0  0  0  0  0  0  0  0
    5.3750   -2.5220   -3.3670 C   0  0  0  0  0  0  0  0  0  0  0  0
    7.1530   -2.3330   -3.1960 Cl  0  0  0  0  0  0  0  0  0  0  0  0
  1  2  2  0
  2  3  1  0
  3  4  2  3
  3  6  1  0
  4  5  1  0
  6  7  2  3
  7  8  1  0
  7 39  1  0
  8  9  1  0
  8 35  2  0
  9 10  2  0
  9 11  1  0
 11 12  2  0
 11 20  1  0
 12 13  1  0
 13 14  1  0
 14 15  2  3
 14 20  1  0
 15 16  1  0
 16 17  2  0
 16 18  1  0
 18 19  1  0
 20 21  1  6
 21 22  1  0
 22 23  2  0
 22 24  1  0
 24 25  1  0
 25 26  2  0
 25 32  1  0
 26 27  1  0
 27 28  1  0
 27 30  2  0
 28 29  1  0
 30 31  1  0
 31 32  2  0
 32 33  1  0
 33 34  1  0
 35 36  1  0
 36 37  2  0
 37 38  1  0
 37 39  1  0
 39 40  2  3
 40 41  1  0
 41 42  1  0
M  END
