
     RDKit          3D

 42 45  0  0  0  0  0  0  0  0999 V2000
   -2.5440   -4.6530   -1.4640 C   0  0  0  0  0  0  0  0  0  0  0  0
   -3.7820   -3.8700   -1.2170 C   0  0  0  0  0  0  0  0  0  0  0  0
   -4.4280   -4.0250    0.1060 C   0  0  0  0  0  0  0  0  0  0  0  0
   -3.7390   -3.6670    1.2730 N   0  0  0  0  0  0  0  0  0  0  0  0
   -2.5310   -2.9390    1.2140 C   0  0  0  0  0  0  0  0  0  0  0  0
   -2.6010   -1.5120    0.8750 C   0  0  0  0  0  0  0  0  0  0  0  0
   -3.7260   -0.9220    0.6390 C   0  0  0  0  0  0  0  0  0  0  0  0
   -3.9530    0.4790    0.2830 C   0  0  0  0  0  0  0  0  0  0  0  0
   -3.3990    1.0390   -0.8610 C   0  0  0  0  0  0  0  0  0  0  0  0
   -3.5630    2.3500   -1.1980 C   0  0  0  0  0  0  0  0  0  0  0  0
   -4.3200    3.1340   -0.3490 C   0  0  0  0  0  0  0  0  0  0  0  0
   -4.8830    2.6160    0.7900 C   0  0  0  0  0  0  0  0  0  0  0  0
   -4.7060    1.2670    1.1250 C   0  0  0  0  0  0  0  0  0  0  0  0
   -5.6060    3.7160    1.4690 C   0  0  0  0  0  0  0  0  0  0  0  0
   -5.9220    4.6820    0.3610 C   0  0  0  0  0  0  0  0  0  0  0  0
   -4.6640    4.5900   -0.4820 C   0  0  0  0  0  0  0  0  0  0  0  0
   -1.3580   -0.7740    0.8840 C   0  0  0  0  0  0  0  0  0  0  0  0
   -1.2860    0.4560    0.6710 O   0  0  0  0  0  0  0  0  0  0  0  0
   -0.1220   -1.3820    1.1380 O   0  0  0  0  0  0  0  0  0  0  0  0
    1.0830   -0.6750    1.1560 C   0  0  1  0  0  0  0  0  0  0  0  0
    1.7130   -0.7220    2.5310 C   0  0  0  0  0  0  0  0  0  0  0  0
    1.1770   -0.9140    3.6460 O   0  0  0  0  0  0  0  0  0  0  0  0
    3.0630   -0.5020    2.3180 O   0  0  0  0  0  0  0  0  0  0  0  0
    3.3540   -0.4610    0.9720 C   0  0  0  0  0  0  0  0  0  0  0  0
    4.3780    0.0880    0.3820 C   0  0  0  0  0  0  0  0  0  0  0  0
    5.4560    0.7900    1.0140 C   0  0  0  0  0  0  0  0  0  0  0  0
    6.4040    1.2820    0.3000 O   0  0  0  0  0  0  0  0  0  0  0  0
    5.5460    0.9800    2.4010 N   0  0  0  0  0  0  0  0  0  0  0  0
    6.6420    1.6980    3.0300 C   0  0  0  0  0  0  0  0  0  0  0  0
    6.7040    3.1240    2.5580 C   0  0  0  0  0  0  0  0  0  0  0  0
    7.8450    3.8370    3.2260 C   0  0  0  0  0  0  0  0  0  0  0  0
    8.5330    3.1870    4.0840 O   0  0  0  0  0  0  0  0  0  0  0  0
    8.1890    5.1400    2.9660 O   0  0  0  0  0  0  0  0  0  0  0  0
    2.1960   -1.2120    0.3410 C   0  0  2  0  0  0  0  0  0  0  0  0
    2.1320   -0.9750   -1.0990 C   0  0  0  0  0  0  0  0  0  0  0  0
    1.8590    0.2390   -1.6840 C   0  0  0  0  0  0  0  0  0  0  0  0
    1.8230    0.3970   -3.0680 C   0  0  0  0  0  0  0  0  0  0  0  0
    2.0610   -0.6610   -3.9100 C   0  0  0  0  0  0  0  0  0  0  0  0
    2.0260   -0.5010   -5.3100 O   0  0  0  0  0  0  0  0  0  0  0  0
    2.2800   -1.6200   -6.1570 C   0  0  0  0  0  0  0  0  0  0  0  0
    2.3370   -1.8870   -3.3410 C   0  0  0  0  0  0  0  0  0  0  0  0
    2.3730   -2.0420   -1.9700 C   0  0  0  0  0  0  0  0  0  0  0  0
  1  2  1  0
  2  3  1  0
  3  4  1  0
  4  5  1  0
  5  6  1  0
  6  7  2  3
  6 17  1  0
  7  8  1  0
  8  9  2  0
  8 13  1  0
  9 10  1  0
 10 11  2  0
 11 12  1  0
 11 16  1  0
 12 13  2  0
 12 14  1  0
 14 15  1  0
 15 16  1  0
 17 18  2  0
 17 19  1  0
 20 19  1  1
 20 21  1  0
 20 34  1  0
 21 22  2  0
 21 23  1  0
 23 24  1  0
 24 25  2  3
 24 34  1  0
 25 26  1  0
 26 27  2  0
 26 28  1  0
 28 29  1  0
 29 30  1  0
 30 31  1  0
 31 32  2  0
 31 33  1  0
 34 35  1  6
 35 36  2  0
 35 42  1  0
 36 37  1  0
 37 38  2  0
 38 39  1  0
 38 41  1  0
 39 40  1  0
 41 42  2  0
M  CHG  1   4   1
M  END
