
     RDKit          3D

 41 44  0  0  0  0  0  0  0  0999 V2000
    4.6310   -4.5610   -3.3670 C   0  0  0  0  0  0  0  0  0  0  0  0
    3.5230   -3.6550   -2.8320 C   0  0  0  0  0  0  0  0  0  0  0  0
    4.1720   -2.6550   -2.0820 O   0  0  0  0  0  0  0  0  0  0  0  0
    3.5600   -1.6400   -1.4090 C   0  0  0  0  0  0  0  0  0  0  0  0
    2.2910   -1.5970   -1.4760 O   0  0  0  0  0  0  0  0  0  0  0  0
    4.2250   -0.5950   -0.6030 C   0  0  0  0  0  0  0  0  0  0  0  0
    3.5180    0.2890    0.0390 O   0  0  0  0  0  0  0  0  0  0  0  0
    3.1000    1.2770    0.7860 C   0  0  0  0  0  0  0  0  0  0  0  0
    1.5920    1.3670    0.7320 C   0  0  0  0  0  0  0  0  0  0  0  0
    0.9090    2.5300    0.5860 C   0  0  0  0  0  0  0  0  0  0  0  0
   -0.4640    2.4910    0.5170 C   0  0  0  0  0  0  0  0  0  0  0  0
   -1.1970    1.3370    0.5870 C   0  0  0  0  0  0  0  0  0  0  0  0
   -2.6420    1.2880    0.4910 C   0  0  0  0  0  0  0  0  0  0  0  0
   -3.5340    2.3180    0.3740 C   0  0  0  0  0  0  0  0  0  0  0  0
   -4.7800    1.7780    0.3150 C   0  0  0  0  0  0  0  0  0  0  0  0
   -4.6220    0.3940    0.3970 C   0  0  0  0  0  0  0  0  0  0  0  0
   -5.7100   -0.6040    0.3660 C   0  0  1  0  0  0  0  0  0  0  0  0
   -5.2530   -2.0220    0.5610 C   0  0  0  0  0  0  0  0  0  0  0  0
   -4.3150   -2.4080   -0.5480 C   0  0  0  0  0  0  0  0  0  0  0  0
   -4.9600   -2.2900   -1.8000 O   0  0  0  0  0  0  0  0  0  0  0  0
   -6.8190   -0.2100    1.1860 N   0  0  0  0  0  0  0  0  0  0  0  0
   -7.9480    0.0800    0.2810 C   0  0  1  0  0  0  0  0  0  0  0  0
   -8.8220   -1.1310    0.2210 C   0  0  0  0  0  0  0  0  0  0  0  0
  -10.1380   -0.7410    0.6940 N   0  0  0  0  0  0  0  0  0  0  0  0
   -9.8990    0.3840    1.5800 C   0  0  0  0  0  0  0  0  0  0  0  0
   -8.8550    1.1550    0.7940 C   0  0  1  0  0  0  0  0  0  0  0  0
   -8.1560    2.0560    1.5890 O   0  0  0  0  0  0  0  0  0  0  0  0
   -8.2750    3.3460    1.0250 C   0  0  0  0  0  0  0  0  0  0  0  0
   -3.3470    0.1860    0.5000 O   0  0  0  0  0  0  0  0  0  0  0  0
   -0.4570    0.1620    0.7390 C   0  0  0  0  0  0  0  0  0  0  0  0
    0.9040    0.1700    0.8110 C   0  0  0  0  0  0  0  0  0  0  0  0
    5.6010   -0.5780   -0.5590 C   0  0  0  0  0  0  0  0  0  0  0  0
    6.2740   -1.6000   -1.3390 C   0  0  0  0  0  0  0  0  0  0  0  0
    6.2310    0.4070    0.2870 C   0  0  0  0  0  0  0  0  0  0  0  0
    7.3950    0.7620    0.6150 C   0  0  0  0  0  0  0  0  0  0  0  0
    8.7490    0.4080    0.3460 C   0  0  0  0  0  0  0  0  0  0  0  0
    9.1000   -0.4920   -0.4130 O   0  0  0  0  0  0  0  0  0  0  0  0
    9.9160    1.1490    1.0130 C   0  0  2  0  0  0  0  0  0  0  0  0
    9.5390    2.2120    1.9730 C   0  0  0  0  0  0  0  0  0  0  0  0
   11.1040    1.3310    0.1350 C   0  0  0  0  0  0  0  0  0  0  0  0
   11.1120    0.3300    1.2530 C   0  0  0  0  0  0  0  0  0  0  0  0
  1  2  1  0
  2  3  1  0
  3  4  1  0
  4  5  2  0
  4  6  1  0
  6  7  1  0
  6 32  2  3
  7  8  1  0
  8  9  1  0
  9 10  2  0
  9 31  1  0
 10 11  1  0
 11 12  2  0
 12 13  1  0
 12 30  1  0
 13 14  2  0
 13 29  1  0
 14 15  1  0
 15 16  2  0
 16 17  1  0
 16 29  1  0
 17 18  1  1
 17 21  1  0
 18 19  1  0
 19 20  1  0
 22 21  1  1
 22 23  1  0
 22 26  1  0
 23 24  1  0
 24 25  1  0
 25 26  1  0
 26 27  1  1
 27 28  1  0
 30 31  2  0
 32 33  1  0
 32 34  1  0
 34 35  2  3
 35 36  1  0
 36 37  2  0
 36 38  1  0
 38 39  1  1
 38 40  1  0
 38 41  1  0
 40 41  1  0
M  CHG  1  21   1
M  END
