
     RDKit          3D

 42 45  0  0  0  0  0  0  0  0999 V2000
   10.3470   -2.1520   -3.9300 C   0  0  0  0  0  0  0  0  0  0  0  0
    9.5880   -2.5470   -2.6920 C   0  0  0  0  0  0  0  0  0  0  0  0
    9.8390   -3.6740   -2.2000 O   0  0  0  0  0  0  0  0  0  0  0  0
    8.6560   -1.7150   -2.1170 O   0  0  0  0  0  0  0  0  0  0  0  0
    7.9550   -2.0880   -0.9680 C   0  0  0  0  0  0  0  0  0  0  0  0
    7.0130   -0.9930   -0.5710 C   0  0  0  0  0  0  0  0  0  0  0  0
    6.9610    0.0470   -1.2600 O   0  0  0  0  0  0  0  0  0  0  0  0
    6.1790   -1.1030    0.5640 N   0  0  0  0  0  0  0  0  0  0  0  0
    5.2530   -0.1550    1.0430 C   0  0  0  0  0  0  0  0  0  0  0  0
    4.8950    1.0090    0.4330 C   0  0  0  0  0  0  0  0  0  0  0  0
    3.9790    1.8830    0.9890 C   0  0  0  0  0  0  0  0  0  0  0  0
    3.3660    1.6390    2.1970 C   0  0  0  0  0  0  0  0  0  0  0  0
    2.3880    2.5620    2.8020 C   0  0  1  0  0  0  0  0  0  0  0  0
    3.0490    3.8730    3.0740 C   0  0  0  0  0  0  0  0  0  0  0  0
    1.1630    2.7690    1.9430 C   0  0  0  0  0  0  0  0  0  0  0  0
    0.4310    1.4780    1.6940 C   0  0  0  0  0  0  0  0  0  0  0  0
   -0.7660    1.6420    0.8610 C   0  0  0  0  0  0  0  0  0  0  0  0
   -1.0280    2.8140    0.4580 O   0  0  0  0  0  0  0  0  0  0  0  0
   -1.6340    0.6090    0.4810 N   0  0  0  0  0  0  0  0  0  0  0  0
   -2.7600    0.7330   -0.2980 N   0  0  0  0  0  0  0  0  0  0  0  0
   -3.9060    0.2120   -0.0360 C   0  0  0  0  0  0  0  0  0  0  0  0
   -4.0510   -0.5810    1.1810 C   0  0  0  0  0  0  0  0  0  0  0  0
   -3.3630   -0.3600    2.2210 O   0  0  0  0  0  0  0  0  0  0  0  0
   -5.0540   -1.6590    1.1170 C   0  0  0  0  0  0  0  0  0  0  0  0
   -5.4520   -2.5810    2.0660 C   0  0  0  0  0  0  0  0  0  0  0  0
   -4.8880   -2.6580    3.4270 C   0  0  0  0  0  0  0  0  0  0  0  0
   -6.4040   -3.3280    1.4820 N   0  0  0  0  0  0  0  0  0  0  0  0
   -6.6110   -2.9100    0.2200 C   0  0  0  0  0  0  0  0  0  0  0  0
   -7.5640   -3.4490   -0.7710 C   0  0  0  0  0  0  0  0  0  0  0  0
   -5.7580   -1.8330   -0.0540 C   0  0  0  0  0  0  0  0  0  0  0  0
   -5.5710   -1.0130   -1.2770 C   0  0  0  0  0  0  0  0  0  0  0  0
   -5.1010    0.3490   -0.8690 C   0  0  2  0  0  0  0  0  0  0  0  0
   -4.9350    1.2700   -2.0120 C   0  0  0  0  0  0  0  0  0  0  0  0
   -5.1850    0.8300   -3.2950 C   0  0  0  0  0  0  0  0  0  0  0  0
   -5.0370    1.6690   -4.3890 C   0  0  0  0  0  0  0  0  0  0  0  0
   -4.6240    2.9720   -4.1100 C   0  0  0  0  0  0  0  0  0  0  0  0
   -4.4350    4.0420   -5.4860 Cl  0  0  0  0  0  0  0  0  0  0  0  0
   -4.3880    3.3730   -2.8520 N   0  0  0  0  0  0  0  0  0  0  0  0
   -4.5290    2.5670   -1.7860 C   0  0  0  0  0  0  0  0  0  0  0  0
   -4.2980    2.9730   -0.6050 O   0  0  0  0  0  0  0  0  0  0  0  0
    3.7230    0.4630    2.8210 C   0  0  0  0  0  0  0  0  0  0  0  0
    4.6340   -0.4140    2.2760 C   0  0  0  0  0  0  0  0  0  0  0  0
  1  2  1  0
  2  3  2  0
  2  4  1  0
  4  5  1  0
  5  6  1  0
  6  7  2  0
  6  8  1  0
  8  9  1  0
  9 10  2  0
  9 42  1  0
 10 11  1  0
 11 12  2  0
 12 13  1  0
 12 41  1  0
 13 14  1  6
 13 15  1  0
 15 16  1  0
 16 17  1  0
 17 18  2  0
 17 19  1  0
 19 20  1  0
 20 21  2  3
 21 22  1  0
 21 32  1  0
 22 23  2  0
 22 24  1  0
 24 25  2  0
 24 30  1  0
 25 26  1  0
 25 27  1  0
 27 28  1  0
 28 29  1  0
 28 30  2  0
 30 31  1  0
 31 32  1  0
 32 33  1  6
 33 34  2  0
 33 39  1  0
 34 35  1  0
 35 36  2  0
 36 37  1  0
 36 38  1  0
 38 39  1  0
 39 40  2  0
 41 42  2  0
M  END
