
     RDKit          3D

 41 46  0  0  0  0  0  0  0  0999 V2000
   -0.1440    3.2140    3.7850 C   0  0  0  0  0  0  0  0  0  0  0  0
   -0.7130    3.2380    2.4060 C   0  0  0  0  0  0  0  0  0  0  0  0
   -1.4390    4.3310    1.9640 C   0  0  0  0  0  0  0  0  0  0  0  0
   -1.9570    4.3400    0.6810 C   0  0  0  0  0  0  0  0  0  0  0  0
   -1.7560    3.2560   -0.1770 C   0  0  0  0  0  0  0  0  0  0  0  0
   -2.3070    3.2560   -1.5540 C   0  0  0  0  0  0  0  0  0  0  0  0
   -1.0400    2.1670    0.2440 C   0  0  0  0  0  0  0  0  0  0  0  0
   -0.8150    1.0630   -0.5930 N   0  0  0  0  0  0  0  0  0  0  0  0
   -1.7700    0.0840   -0.9120 C   0  0  0  0  0  0  0  0  0  0  0  0
   -1.4450   -0.8460   -1.7020 O   0  0  0  0  0  0  0  0  0  0  0  0
   -3.1610    0.0480   -0.3880 C   0  0  0  0  0  0  0  0  0  0  0  0
   -3.9500   -1.0790   -1.0490 C   0  0  0  0  0  0  0  0  0  0  0  0
   -5.2860   -1.1290   -0.5650 N   0  0  0  0  0  0  0  0  0  0  0  0
   -6.2540   -0.4110   -1.1870 C   0  0  0  0  0  0  0  0  0  0  0  0
   -5.9430    0.3010   -2.1960 O   0  0  0  0  0  0  0  0  0  0  0  0
   -7.5630   -0.3920   -0.8090 C   0  0  0  0  0  0  0  0  0  0  0  0
   -7.9380   -1.1550    0.2830 C   0  0  0  0  0  0  0  0  0  0  0  0
   -6.9850   -1.8960    0.9400 C   0  0  0  0  0  0  0  0  0  0  0  0
   -7.3330   -2.6520    2.0100 N   0  0  0  0  0  0  0  0  0  0  0  0
   -6.4500   -3.3980    2.6870 C   0  0  0  0  0  0  0  0  0  0  0  0
   -5.1370   -3.3880    2.2700 C   0  0  0  0  0  0  0  0  0  0  0  0
   -4.7570   -2.6150    1.1690 C   0  0  0  0  0  0  0  0  0  0  0  0
   -5.6770   -1.8530    0.4830 C   0  0  0  0  0  0  0  0  0  0  0  0
    0.5290    0.9180   -1.1560 C   0  0  2  0  0  0  0  0  0  0  0  0
    0.4960    0.8090   -2.6420 C   0  0  0  0  0  0  0  0  0  0  0  0
    1.1470   -0.3230   -0.6050 C   0  0  0  0  0  0  0  0  0  0  0  0
    0.4160   -1.0580    0.1220 O   0  0  0  0  0  0  0  0  0  0  0  0
    2.4950   -0.6710   -0.8790 N   0  0  0  0  0  0  0  0  0  0  0  0
    3.2770    0.1990   -1.7080 C   0  0  0  0  0  0  0  0  0  0  0  0
    4.6910    0.2100   -1.2290 C   0  0  0  0  0  0  0  0  0  0  0  0
    5.5850    1.1760   -1.6880 C   0  0  0  0  0  0  0  0  0  0  0  0
    6.8980    1.2270   -1.2760 C   0  0  0  0  0  0  0  0  0  0  0  0
    7.3870    0.3050   -0.3750 C   0  0  0  0  0  0  0  0  0  0  0  0
    6.5140   -0.6510    0.0830 C   0  0  0  0  0  0  0  0  0  0  0  0
    5.1770   -0.7050   -0.3350 C   0  0  0  0  0  0  0  0  0  0  0  0
    4.3810   -1.7810    0.2480 C   0  0  2  0  0  0  0  0  0  0  0  0
    5.1340   -3.0890    0.1840 C   0  0  0  0  0  0  0  0  0  0  0  0
    6.5470   -2.9660    0.3860 N   0  0  0  0  0  0  0  0  0  0  0  0
    6.9090   -1.7050    1.0550 C   0  0  0  0  0  0  0  0  0  0  0  0
    2.9920   -1.8930   -0.2940 C   0  0  0  0  0  0  0  0  0  0  0  0
   -0.5400    2.1920    1.5260 C   0  0  0  0  0  0  0  0  0  0  0  0
  1  2  1  0
  2  3  2  0
  2 41  1  0
  3  4  1  0
  4  5  2  0
  5  6  1  0
  5  7  1  0
  7  8  1  0
  7 41  2  0
  8  9  1  0
  8 24  1  0
  9 10  2  0
  9 11  1  0
 11 12  1  0
 12 13  1  0
 13 14  1  0
 13 23  1  0
 14 15  2  0
 14 16  1  0
 16 17  2  0
 17 18  1  0
 18 19  2  0
 18 23  1  0
 19 20  1  0
 20 21  2  0
 21 22  1  0
 22 23  2  0
 24 25  1  6
 24 26  1  0
 26 27  2  0
 26 28  1  0
 28 29  1  0
 28 40  1  0
 29 30  1  0
 30 31  2  0
 30 35  1  0
 31 32  1  0
 32 33  2  0
 33 34  1  0
 34 35  2  0
 34 39  1  0
 35 36  1  0
 36 37  1  6
 36 40  1  0
 37 38  1  0
 38 39  1  0
M  CHG  1  38   1
M  END
