
     RDKit          3D

 42 46  0  0  0  0  0  0  0  0999 V2000
    5.7460   -5.2530    1.6760 C   0  0  0  0  0  0  0  0  0  0  0  0
    5.9070   -4.2850    2.8180 C   0  0  0  0  0  0  0  0  0  0  0  0
    4.6930   -3.4960    2.9090 N   0  0  0  0  0  0  0  0  0  0  0  0
    4.2780   -2.6930    1.7950 C   0  0  0  0  0  0  0  0  0  0  0  0
    4.9760   -2.6720    0.7260 O   0  0  0  0  0  0  0  0  0  0  0  0
    3.1130   -1.9070    1.8180 N   0  0  0  0  0  0  0  0  0  0  0  0
    2.7470   -1.0990    0.6210 C   0  0  0  0  0  0  0  0  0  0  0  0
    3.7380   -0.1410    0.2180 C   0  0  0  0  0  0  0  0  0  0  0  0
    4.8670   -0.0020    0.8910 N   0  0  0  0  0  0  0  0  0  0  0  0
    5.8580    0.9260    0.5240 C   0  0  0  0  0  0  0  0  0  0  0  0
    7.1350    0.5180    0.2210 C   0  0  0  0  0  0  0  0  0  0  0  0
    8.1240    1.4210   -0.1440 C   0  0  0  0  0  0  0  0  0  0  0  0
    9.5080    1.0090   -0.4750 C   0  0  0  0  0  0  0  0  0  0  0  0
    7.8160    2.7620   -0.2030 C   0  0  0  0  0  0  0  0  0  0  0  0
    6.5350    3.1670    0.1010 C   0  0  0  0  0  0  0  0  0  0  0  0
    5.5520    2.2610    0.4640 C   0  0  0  0  0  0  0  0  0  0  0  0
    4.1920    2.7280    0.7830 C   0  0  0  0  0  0  0  0  0  0  0  0
    1.6010   -1.4190    0.1320 C   0  0  0  0  0  0  0  0  0  0  0  0
    0.8110   -0.9840   -0.9470 N   0  0  0  0  0  0  0  0  0  0  0  0
    0.9740    0.0730   -1.8550 C   0  0  0  0  0  0  0  0  0  0  0  0
    1.5740    1.1770   -1.7090 O   0  0  0  0  0  0  0  0  0  0  0  0
    0.3020   -0.3050   -3.0730 N   0  0  0  0  0  0  0  0  0  0  0  0
    0.2550    0.5230   -4.2460 C   0  0  0  0  0  0  0  0  0  0  0  0
   -0.2560   -1.5950   -2.8490 C   0  0  0  0  0  0  0  0  0  0  0  0
   -0.5360   -2.4340   -3.7280 O   0  0  0  0  0  0  0  0  0  0  0  0
   -0.4160   -1.6900   -1.3570 C   0  0  2  0  0  0  0  0  0  0  0  0
   -1.6590   -1.0560   -0.9610 C   0  0  0  0  0  0  0  0  0  0  0  0
   -1.9590    0.2790   -1.1050 C   0  0  0  0  0  0  0  0  0  0  0  0
   -3.2010    0.7230   -0.6660 C   0  0  0  0  0  0  0  0  0  0  0  0
   -4.1290   -0.1180   -0.0990 C   0  0  0  0  0  0  0  0  0  0  0  0
   -5.4330    0.3310    0.3660 C   0  0  0  0  0  0  0  0  0  0  0  0
   -6.0390   -0.2970    1.4330 C   0  0  0  0  0  0  0  0  0  0  0  0
   -7.2730    0.0890    1.9140 C   0  0  0  0  0  0  0  0  0  0  0  0
   -7.9680    1.1430    1.3340 C   0  0  0  0  0  0  0  0  0  0  0  0
   -7.3660    1.7740    0.2680 C   0  0  0  0  0  0  0  0  0  0  0  0
   -6.1320    1.3770   -0.2030 C   0  0  0  0  0  0  0  0  0  0  0  0
   -8.2860    2.8340   -0.1590 C   0  0  0  0  0  0  0  0  0  0  0  0
   -9.5320    2.6250    0.5340 N   0  0  1  0  0  0  0  0  0  0  0  0
  -10.5440    2.0910   -0.3490 C   0  0  0  0  0  0  0  0  0  0  0  0
   -9.2920    1.7600    1.6450 C   0  0  0  0  0  0  0  0  0  0  0  0
   -3.8160   -1.4530    0.0390 C   0  0  0  0  0  0  0  0  0  0  0  0
   -2.6100   -1.9230   -0.3800 C   0  0  0  0  0  0  0  0  0  0  0  0
  1  2  1  0
  2  3  1  0
  3  4  1  0
  4  5  2  0
  4  6  1  0
  6  7  1  0
  7  8  1  0
  7 18  2  3
  8  9  2  3
  9 10  1  0
 10 11  2  0
 10 16  1  0
 11 12  1  0
 12 13  1  0
 12 14  2  0
 14 15  1  0
 15 16  2  0
 16 17  1  0
 18 19  1  0
 19 20  1  0
 19 26  1  0
 20 21  2  0
 20 22  1  0
 22 23  1  0
 22 24  1  0
 24 25  2  0
 24 26  1  0
 26 27  1  1
 27 28  2  0
 27 42  1  0
 28 29  1  0
 29 30  2  0
 30 31  1  0
 30 41  1  0
 31 32  2  0
 31 36  1  0
 32 33  1  0
 33 34  2  0
 34 35  1  0
 34 40  1  0
 35 36  2  0
 35 37  1  0
 37 38  1  0
 38 39  1  6
 38 40  1  0
 41 42  2  0
M  CHG  1  38   1
M  END
