
     RDKit          3D

  9  8  0  0  0  0  0  0  0  0999 V2000
    3.6840   -0.3160   -0.0690 O   0  0  0  0  0  0  0  0  0  0  0  0
    2.3810    0.1790    0.0130 C   0  0  0  0  0  0  0  0  0  0  0  0
    1.4800   -0.7860    0.7290 C   0  0  0  0  0  0  0  0  0  0  0  0
    0.1780   -0.3420    0.8390 O   0  0  0  0  0  0  0  0  0  0  0  0
   -0.4560   -0.1090   -0.3580 C   0  0  0  0  0  0  0  0  0  0  0  0
   -1.8690    0.3560   -0.0340 C   0  0  1  0  0  0  0  0  0  0  0  0
   -1.8640    1.5140    0.7220 O   0  0  0  0  0  0  0  0  0  0  0  0
   -2.5720    0.5510   -1.2180 O   0  0  0  0  0  0  0  0  0  0  0  0
   -3.6390   -0.2140   -1.2710 O   0  0  0  0  0  0  0  0  0  0  0  0
  1  2  1  0
  2  3  1  0
  3  4  1  0
  4  5  1  0
  5  6  1  0
  6  7  1  6
  6  8  1  0
  8  9  1  0
M  END
