
     RDKit          3D

  9  8  0  0  0  0  0  0  0  0999 V2000
   -2.8940   -0.9090   -0.1590 O   0  0  0  0  0  0  0  0  0  0  0  0
   -2.5560    0.4360   -0.4380 C   0  0  0  0  0  0  0  0  0  0  0  0
   -2.0170    0.9460    0.7300 O   0  0  0  0  0  0  0  0  0  0  0  0
   -0.9050    0.2830    1.1660 C   0  0  0  0  0  0  0  0  0  0  0  0
    0.1770    0.3650    0.1180 C   0  0  0  0  0  0  0  0  0  0  0  0
    1.2700   -0.3330    0.6550 O   0  0  0  0  0  0  0  0  0  0  0  0
    2.3450   -0.3430   -0.1990 C   0  0  2  0  0  0  0  0  0  0  0  0
    2.6950   -1.6550   -0.4690 O   0  0  0  0  0  0  0  0  0  0  0  0
    3.3980    0.3840    0.3640 O   0  0  0  0  0  0  0  0  0  0  0  0
  1  2  1  0
  2  3  1  0
  3  4  1  0
  4  5  1  0
  5  6  1  0
  6  7  1  0
  7  8  1  1
  7  9  1  0
M  END
