
     RDKit          3D

 18 20  0  0  0  0  0  0  0  0999 V2000
   -1.6120    2.2950    1.2220 C   0  0  0  0  0  0  0  0  0  0  0  0
   -2.1520    0.9080    1.1400 C   0  0  1  0  0  0  0  0  0  0  0  0
   -3.6410    1.0220    0.7570 C   0  0  0  0  0  0  0  0  0  0  0  0
   -3.8360   -0.2740    0.0500 C   0  0  0  0  0  0  0  0  0  0  0  0
   -2.6920   -0.7510   -0.3900 C   0  0  0  0  0  0  0  0  0  0  0  0
   -3.0110   -2.0200   -1.0620 C   0  0  0  0  0  0  0  0  0  0  0  0
   -4.3060   -2.2170   -0.9830 C   0  0  0  0  0  0  0  0  0  0  0  0
   -4.9150   -1.1490   -0.2870 N   0  0  0  0  0  0  0  0  0  0  0  0
   -1.6270    0.1770   -0.0220 C   0  0  2  0  0  0  0  0  0  0  0  0
   -0.3370   -0.4190    0.1130 N   0  0  0  0  0  0  0  0  0  0  0  0
    0.8010   -0.1060   -0.6820 C   0  0  0  0  0  0  0  0  0  0  0  0
    0.6200    0.7660   -1.5620 O   0  0  0  0  0  0  0  0  0  0  0  0
    2.1180   -0.7390   -0.5180 C   0  0  2  0  0  0  0  0  0  0  0  0
    2.7120   -0.5280    0.8470 C   0  0  0  0  0  0  0  0  0  0  0  0
    4.2280   -0.6380    0.8050 C   0  0  0  0  0  0  0  0  0  0  0  0
    4.8390    0.4970    0.0060 C   0  0  0  0  0  0  0  0  0  0  0  0
    3.7470    1.0370   -0.9020 C   0  0  0  0  0  0  0  0  0  0  0  0
    3.0780   -0.1650   -1.5380 C   0  0  0  0  0  0  0  0  0  0  0  0
  2  1  1  6
  2  3  1  0
  2  9  1  0
  3  4  1  0
  4  5  2  0
  4  8  1  0
  5  6  1  0
  5  9  1  0
  6  7  2  0
  7  8  1  0
  9 10  1  1
 10 11  1  0
 11 12  2  0
 13 11  1  1
 13 14  1  0
 13 18  1  0
 14 15  1  0
 15 16  1  0
 16 17  1  0
 17 18  1  0
M  CHG  1   8   1
M  END
