
     RDKit          3D

 20 20  0  0  0  0  0  0  0  0999 V2000
   -6.8410    0.8100    0.8730 N   0  0  0  0  0  0  0  0  0  0  0  0
   -6.2970    0.5220   -0.7520 S   0  0  0  0  0  0  0  0  0  0  0  0
   -6.3530    1.8450   -1.5070 O   0  0  0  0  0  0  0  0  0  0  0  0
   -4.5820    0.0610   -0.6470 N   0  0  0  0  0  0  0  0  0  0  0  0
   -3.7590    0.8500    0.1660 C   0  0  0  0  0  0  0  0  0  0  0  0
   -4.3940    2.1540    0.9830 S   0  0  0  0  0  0  0  0  0  0  0  0
   -2.3880    0.6120    0.3490 N   0  0  0  0  0  0  0  0  0  0  0  0
   -1.7010   -0.4490   -0.2710 C   0  0  0  0  0  0  0  0  0  0  0  0
   -2.2200   -1.2730   -1.0290 O   0  0  0  0  0  0  0  0  0  0  0  0
   -0.2190   -0.5410    0.0520 C   0  0  0  0  0  0  0  0  0  0  0  0
    0.3540   -1.6690   -0.6490 N   0  0  0  0  0  0  0  0  0  0  0  0
    1.3640   -2.2880    0.1530 C   0  0  0  0  0  0  0  0  0  0  0  0
    2.3780   -1.2480    0.5610 C   0  0  0  0  0  0  0  0  0  0  0  0
    3.0130   -0.6540   -0.6750 C   0  0  0  0  0  0  0  0  0  0  0  0
    4.0000    0.3540   -0.1930 C   0  0  0  0  0  0  0  0  0  0  0  0
    5.2910    0.1200    0.0880 N   0  0  0  0  0  0  0  0  0  0  0  0
    5.8480    1.2720    0.4920 N   0  0  0  0  0  0  0  0  0  0  0  0
    4.8840    2.2070    0.4540 C   0  0  0  0  0  0  0  0  0  0  0  0
    5.1060    3.7630    0.8620 S   0  0  0  0  0  0  0  0  0  0  0  0
    3.7480    1.6510    0.0350 N   0  0  0  0  0  0  0  0  0  0  0  0
  2  1  1  1
  2  3  2  0
  2  4  1  0
  4  5  1  0
  5  6  2  0
  5  7  1  0
  7  8  1  0
  8  9  2  0
  8 10  1  0
 10 11  1  0
 11 12  1  0
 12 13  1  0
 13 14  1  0
 14 15  1  0
 15 16  2  0
 15 20  1  0
 16 17  1  0
 17 18  1  0
 18 19  2  0
 18 20  1  0
M  CHG  1  11   1
M  END
