
     RDKit          3D

 19 22  0  0  0  0  0  0  0  0999 V2000
   -1.4780    3.5290   -0.1030 C   0  0  0  0  0  0  0  0  0  0  0  0
   -0.8080    2.2280    0.2180 C   0  0  0  0  0  0  0  0  0  0  0  0
   -0.8590    1.8220    1.4670 C   0  0  0  0  0  0  0  0  0  0  0  0
   -0.2890    0.4630    1.8120 C   0  0  1  0  0  0  0  0  0  0  0  0
   -1.3880   -0.5210    1.6540 C   0  0  0  0  0  0  0  0  0  0  0  0
   -1.4400   -1.2420    0.3790 C   0  0  0  0  0  0  0  0  0  0  0  0
   -2.3430   -2.2330    0.2590 N   0  0  0  0  0  0  0  0  0  0  0  0
   -2.4510   -2.9370   -0.8760 C   0  0  0  0  0  0  0  0  0  0  0  0
   -3.2890   -3.8630   -1.0000 O   0  0  0  0  0  0  0  0  0  0  0  0
   -1.6210   -2.6290   -1.9190 C   0  0  0  0  0  0  0  0  0  0  0  0
   -0.6880   -1.6190   -1.8220 C   0  0  0  0  0  0  0  0  0  0  0  0
   -0.5900   -0.9000   -0.6380 C   0  0  0  0  0  0  0  0  0  0  0  0
    0.4060    0.1850   -0.5200 C   0  0  2  0  0  0  0  0  0  0  0  0
   -0.1510    1.5180   -0.8940 C   0  0  0  0  0  0  0  0  0  0  0  0
    1.5640   -0.1890   -1.3050 N   0  0  0  0  0  0  0  0  0  0  0  0
    2.8070    0.2330   -0.7140 C   0  0  0  0  0  0  0  0  0  0  0  0
    3.1290   -0.5080    0.5670 C   0  0  0  0  0  0  0  0  0  0  0  0
    1.7750   -0.8500    1.2060 C   0  0  0  0  0  0  0  0  0  0  0  0
    0.8860    0.2970    0.9250 C   0  0  2  0  0  0  0  0  0  0  0  0
  1  2  1  0
  2  3  2  0
  2 14  1  0
  3  4  1  0
  4  5  1  6
  4 19  1  0
  5  6  1  0
  6  7  1  0
  6 12  2  0
  7  8  1  0
  8  9  2  0
  8 10  1  0
 10 11  2  0
 11 12  1  0
 12 13  1  0
 13 14  1  6
 13 15  1  0
 13 19  1  0
 15 16  1  0
 16 17  1  0
 17 18  1  0
 19 18  1  1
M  CHG  1  15   1
M  END
