
     RDKit          3D

 20 20  0  0  0  0  0  0  0  0999 V2000
   -1.4970   -1.6500    1.7460 C   0  0  0  0  0  0  0  0  0  0  0  0
   -1.8880   -0.4090    0.9290 C   0  0  2  0  0  0  0  0  0  0  0  0
   -0.9340   -0.0960   -0.0650 N   0  0  0  0  0  0  0  0  0  0  0  0
    0.4100    0.1970    0.2560 C   0  0  0  0  0  0  0  0  0  0  0  0
    0.8660    0.2120    1.3910 O   0  0  0  0  0  0  0  0  0  0  0  0
    1.3420    0.4980   -0.7050 N   0  0  0  0  0  0  0  0  0  0  0  0
    2.6580    0.7970   -0.5370 C   0  0  0  0  0  0  0  0  0  0  0  0
    3.0390    0.9820   -1.8250 N   0  0  0  0  0  0  0  0  0  0  0  0
    3.9380    1.0190    0.6240 S   0  0  0  0  0  0  0  0  0  0  0  0
    5.3840    1.4200   -0.2010 O   0  0  0  0  0  0  0  0  0  0  0  0
    6.2610    0.0160   -0.5770 S   0  0  0  0  0  0  0  0  0  0  0  0
    7.4960    0.4470   -1.4400 N   0  0  0  0  0  0  0  0  0  0  0  0
   -2.1350    0.7080    1.8590 C   0  0  0  0  0  0  0  0  0  0  0  0
   -2.5150    1.9870    1.3770 N   0  0  0  0  0  0  0  0  0  0  0  0
   -1.9770    0.5030    3.4650 S   0  0  0  0  0  0  0  0  0  0  0  0
   -3.1500   -0.7940    0.2010 C   0  0  0  0  0  0  0  0  0  0  0  0
   -3.6060   -2.0380   -0.0110 N   0  0  0  0  0  0  0  0  0  0  0  0
   -4.7500   -2.0270   -0.6890 C   0  0  0  0  0  0  0  0  0  0  0  0
   -5.0490   -0.7090   -0.9270 C   0  0  0  0  0  0  0  0  0  0  0  0
   -4.0530    0.0240   -0.3720 N   0  0  0  0  0  0  0  0  0  0  0  0
  2  1  1  1
  2  3  1  0
  2 13  1  0
  2 16  1  0
  3  4  1  0
  4  5  2  0
  4  6  1  0
  6  7  1  0
  7  8  2  0
  7  9  1  0
  9 10  1  0
 10 11  1  0
 11 12  2  0
 13 14  1  0
 13 15  2  0
 16 17  2  0
 16 20  1  0
 17 18  1  0
 18 19  2  0
 19 20  1  0
M  CHG  1  12   1
M  END
