
     RDKit          3D

 12 11  0  0  0  0  0  0  0  0999 V2000
    2.1860    1.6180   -0.8990 O   0  0  0  0  0  0  0  0  0  0  0  0
    2.5720    0.4990   -0.1660 C   0  0  0  0  0  0  0  0  0  0  0  0
    2.1830   -0.7140   -0.9580 C   0  0  0  0  0  0  0  0  0  0  0  0
    0.8500   -0.8350   -1.2160 O   0  0  0  0  0  0  0  0  0  0  0  0
    0.0150   -0.9380   -0.1320 C   0  0  2  0  0  0  0  0  0  0  0  0
   -0.6460   -2.3430   -0.1070 C   0  0  0  0  0  0  0  0  0  0  0  0
   -1.4880   -2.4400    0.9900 O   0  0  0  0  0  0  0  0  0  0  0  0
   -1.0380   -0.0550   -0.2790 O   0  0  0  0  0  0  0  0  0  0  0  0
   -1.3160    0.7310    0.8040 C   0  0  2  0  0  0  0  0  0  0  0  0
   -2.5920    0.4070    1.2990 O   0  0  0  0  0  0  0  0  0  0  0  0
   -1.2590    2.1860    0.4070 C   0  0  0  0  0  0  0  0  0  0  0  0
   -2.1950    2.4700   -0.6040 O   0  0  0  0  0  0  0  0  0  0  0  0
  1  2  1  0
  2  3  1  0
  3  4  1  0
  4  5  1  0
  5  6  1  6
  5  8  1  0
  6  7  1  0
  8  9  1  0
  9 10  1  6
  9 11  1  0
 11 12  1  0
M  END
