
     RDKit          3D

 12 11  0  0  0  0  0  0  0  0999 V2000
   -2.6840   -1.2670   -0.4780 C   0  0  0  0  0  0  0  0  0  0  0  0
   -2.0430   -0.6930    0.5970 O   0  0  0  0  0  0  0  0  0  0  0  0
   -1.1030    0.2470    0.2640 C   0  0  1  0  0  0  0  0  0  0  0  0
   -1.5580    1.5870    0.8520 C   0  0  0  0  0  0  0  0  0  0  0  0
   -2.7940    1.9610    0.3400 O   0  0  0  0  0  0  0  0  0  0  0  0
    0.0890   -0.1040    0.8660 O   0  0  0  0  0  0  0  0  0  0  0  0
    1.1620   -0.1630    0.0150 C   0  0  1  0  0  0  0  0  0  0  0  0
    1.3470    1.0830   -0.5630 O   0  0  0  0  0  0  0  0  0  0  0  0
    2.3860   -0.5210    0.8380 C   0  0  0  0  0  0  0  0  0  0  0  0
    2.6350    0.4260    1.8260 O   0  0  0  0  0  0  0  0  0  0  0  0
    1.0400   -1.1830   -1.0750 C   0  0  0  0  0  0  0  0  0  0  0  0
    2.2130   -1.1100   -1.8450 O   0  0  0  0  0  0  0  0  0  0  0  0
  1  2  1  0
  2  3  1  0
  3  4  1  1
  3  6  1  0
  4  5  1  0
  6  7  1  0
  7  8  1  6
  7  9  1  0
  7 11  1  0
  9 10  1  0
 11 12  1  0
M  END
