
     RDKit          3D

 13 12  0  0  0  0  0  0  0  0999 V2000
   -2.0950   -0.7070   -1.9850 O   0  0  0  0  0  0  0  0  0  0  0  0
   -1.6000    0.0860   -1.1480 C   0  0  0  0  0  0  0  0  0  0  0  0
   -1.3670    1.3780   -1.5410 O   0  0  0  0  0  0  0  0  0  0  0  0
   -1.2820   -0.3870    0.2320 C   0  0  2  0  0  0  0  0  0  0  0  0
   -2.6080   -0.8340    0.8380 C   0  0  0  0  0  0  0  0  0  0  0  0
   -3.0960   -1.8580    0.0240 O   0  0  0  0  0  0  0  0  0  0  0  0
   -0.7510    0.6220    0.9910 O   0  0  0  0  0  0  0  0  0  0  0  0
    0.5160    0.2820    1.4530 C   0  0  2  0  0  0  0  0  0  0  0  0
    0.4270    0.2430    2.8560 O   0  0  0  0  0  0  0  0  0  0  0  0
    1.3990    1.2740    1.0770 O   0  0  0  0  0  0  0  0  0  0  0  0
    2.4850    0.8330    0.3600 C   0  0  0  0  0  0  0  0  0  0  0  0
    2.1090    0.1710   -0.9230 C   0  0  0  0  0  0  0  0  0  0  0  0
    3.2930   -0.2250   -1.5500 O   0  0  0  0  0  0  0  0  0  0  0  0
  1  2  2  0
  2  3  1  0
  2  4  1  0
  4  5  1  1
  4  7  1  0
  5  6  1  0
  7  8  1  0
  8  9  1  1
  8 10  1  0
 10 11  1  0
 11 12  1  0
 12 13  1  0
M  END
