
     RDKit          3D

 13 12  0  0  0  0  0  0  0  0999 V2000
    1.7680    2.4830   -0.1300 O   0  0  0  0  0  0  0  0  0  0  0  0
    2.1580    1.3060   -0.0970 C   0  0  0  0  0  0  0  0  0  0  0  0
    3.4950    1.0410    0.0890 O   0  0  0  0  0  0  0  0  0  0  0  0
    1.2030    0.1470   -0.2570 C   0  0  2  0  0  0  0  0  0  0  0  0
    1.6370   -0.5090   -1.5690 C   0  0  0  0  0  0  0  0  0  0  0  0
    0.8040   -1.5250   -1.9690 O   0  0  0  0  0  0  0  0  0  0  0  0
   -0.0330    0.6580   -0.4240 O   0  0  0  0  0  0  0  0  0  0  0  0
   -0.9860    0.3740    0.5060 C   0  0  1  0  0  0  0  0  0  0  0  0
   -1.5260    1.5790    1.2370 C   0  0  0  0  0  0  0  0  0  0  0  0
   -2.0910    2.4260    0.2640 O   0  0  0  0  0  0  0  0  0  0  0  0
   -2.0180   -0.3470   -0.0840 O   0  0  0  0  0  0  0  0  0  0  0  0
   -2.1240   -1.5930    0.5060 C   0  0  0  0  0  0  0  0  0  0  0  0
   -0.9920   -2.3670    0.4030 O   0  0  0  0  0  0  0  0  0  0  0  0
  1  2  2  0
  2  3  1  0
  2  4  1  0
  4  5  1  6
  4  7  1  0
  5  6  1  0
  7  8  1  0
  8  9  1  6
  8 11  1  0
  9 10  1  0
 11 12  1  0
 12 13  1  0
M  END
