
     RDKit          3D

 12 11  0  0  0  0  0  0  0  0999 V2000
    2.8600    1.6220    0.9680 O   0  0  0  0  0  0  0  0  0  0  0  0
    3.1300    0.8490   -0.1680 C   0  0  0  0  0  0  0  0  0  0  0  0
    2.5040   -0.5210   -0.0270 C   0  0  0  0  0  0  0  0  0  0  0  0
    1.1240   -0.3500    0.1180 O   0  0  0  0  0  0  0  0  0  0  0  0
    0.5610   -1.6000    0.2460 C   0  0  0  0  0  0  0  0  0  0  0  0
   -0.8070   -1.4920    0.3920 O   0  0  0  0  0  0  0  0  0  0  0  0
   -1.4430   -0.8800   -0.6640 C   0  0  1  0  0  0  0  0  0  0  0  0
   -2.3440   -1.8040   -1.2260 O   0  0  0  0  0  0  0  0  0  0  0  0
   -2.2550    0.2820   -0.1500 C   0  0  1  0  0  0  0  0  0  0  0  0
   -3.1940   -0.2200    0.7590 O   0  0  0  0  0  0  0  0  0  0  0  0
   -1.3940    1.2950    0.5680 C   0  0  0  0  0  0  0  0  0  0  0  0
   -2.2430    2.3190    1.0330 O   0  0  0  0  0  0  0  0  0  0  0  0
  1  2  1  0
  2  3  1  0
  3  4  1  0
  4  5  1  0
  5  6  1  0
  6  7  1  0
  7  8  1  1
  7  9  1  0
  9 10  1  1
  9 11  1  0
 11 12  1  0
M  END
