
     RDKit          3D

 13 12  0  0  0  0  0  0  0  0999 V2000
    1.1190   -2.0930   -0.9330 O   0  0  0  0  0  0  0  0  0  0  0  0
    1.6610   -1.1730   -0.3020 C   0  0  0  0  0  0  0  0  0  0  0  0
    2.8610   -1.5130    0.3540 O   0  0  0  0  0  0  0  0  0  0  0  0
    1.2190    0.2030   -0.1520 C   0  0  0  0  0  0  0  0  0  0  0  0
   -0.1260    0.5680   -0.6370 C   0  0  2  0  0  0  0  0  0  0  0  0
   -0.1970    2.0800   -0.3920 C   0  0  0  0  0  0  0  0  0  0  0  0
   -0.3930    2.8180   -1.3630 O   0  0  0  0  0  0  0  0  0  0  0  0
   -0.0470    2.6030    0.8720 O   0  0  0  0  0  0  0  0  0  0  0  0
   -1.3090    0.0810    0.1590 C   0  0  1  0  0  0  0  0  0  0  0  0
   -2.4260    0.5630   -0.5820 O   0  0  0  0  0  0  0  0  0  0  0  0
   -1.4320   -1.3120    0.4690 C   0  0  0  0  0  0  0  0  0  0  0  0
   -2.2850   -2.0320   -0.1110 O   0  0  0  0  0  0  0  0  0  0  0  0
   -0.6360   -1.9380    1.4170 O   0  0  0  0  0  0  0  0  0  0  0  0
  1  2  2  0
  2  3  1  0
  2  4  1  0
  5  4  1  1
  5  6  1  0
  5  9  1  0
  6  7  2  0
  6  8  1  0
  9 10  1  6
  9 11  1  0
 11 12  2  0
 11 13  1  0
M  END
