
     RDKit          3D

 12 11  0  0  0  0  0  0  0  0999 V2000
   -4.3150    0.4330   -0.8620 O   0  0  0  0  0  0  0  0  0  0  0  0
   -3.2040    0.4770   -0.0390 C   0  0  0  0  0  0  0  0  0  0  0  0
   -2.3000   -0.7370   -0.2490 C   0  0  2  0  0  0  0  0  0  0  0  0
   -2.9830   -1.8980    0.0260 O   0  0  0  0  0  0  0  0  0  0  0  0
   -1.1190   -0.5300    0.7110 C   0  0  0  0  0  0  0  0  0  0  0  0
   -0.5200    0.6440    0.3460 O   0  0  0  0  0  0  0  0  0  0  0  0
    0.5660    1.0120    1.0870 C   0  0  0  0  0  0  0  0  0  0  0  0
    1.6180    0.1080    1.0720 O   0  0  0  0  0  0  0  0  0  0  0  0
    2.1010   -0.0970   -0.2100 C   0  0  2  0  0  0  0  0  0  0  0  0
    1.9550   -1.4230   -0.5660 O   0  0  0  0  0  0  0  0  0  0  0  0
    3.5630    0.2800   -0.3340 C   0  0  0  0  0  0  0  0  0  0  0  0
    4.0420    0.0750   -1.6180 O   0  0  0  0  0  0  0  0  0  0  0  0
  1  2  1  0
  2  3  1  0
  3  4  1  1
  3  5  1  0
  5  6  1  0
  6  7  1  0
  7  8  1  0
  8  9  1  0
  9 10  1  1
  9 11  1  0
 11 12  1  0
M  END
