
     RDKit          3D

 13 12  0  0  0  0  0  0  0  0999 V2000
   -1.5420    0.2050   -2.5390 O   0  0  0  0  0  0  0  0  0  0  0  0
   -2.5170   -0.5160   -1.8380 C   0  0  0  0  0  0  0  0  0  0  0  0
   -2.5950    0.0420   -0.4210 C   0  0  1  0  0  0  0  0  0  0  0  0
   -3.5690   -0.6910    0.2510 O   0  0  0  0  0  0  0  0  0  0  0  0
   -1.2680   -0.1720    0.2800 C   0  0  1  0  0  0  0  0  0  0  0  0
   -1.0210   -1.5630    0.2120 O   0  0  0  0  0  0  0  0  0  0  0  0
   -0.2240    0.4480   -0.3550 O   0  0  0  0  0  0  0  0  0  0  0  0
    0.5260    1.2920    0.4430 C   0  0  0  0  0  0  0  0  0  0  0  0
    1.1590    0.6000    1.6070 C   0  0  0  0  0  0  0  0  0  0  0  0
    2.0280   -0.4240    1.2730 O   0  0  0  0  0  0  0  0  0  0  0  0
    3.1150   -0.0700    0.5270 C   0  0  1  0  0  0  0  0  0  0  0  0
    4.3200   -0.3920    1.1750 O   0  0  0  0  0  0  0  0  0  0  0  0
    3.1430   -0.7130   -0.7160 O   0  0  0  0  0  0  0  0  0  0  0  0
  1  2  1  0
  2  3  1  0
  3  4  1  1
  3  5  1  0
  5  6  1  6
  5  7  1  0
  7  8  1  0
  8  9  1  0
  9 10  1  0
 10 11  1  0
 11 12  1  1
 11 13  1  0
M  END
