
     RDKit          3D

 13 12  0  0  0  0  0  0  0  0999 V2000
    3.2060   -1.1410   -0.7180 O   0  0  0  0  0  0  0  0  0  0  0  0
    2.3710   -0.4170   -0.1310 C   0  0  0  0  0  0  0  0  0  0  0  0
    2.3400   -0.4610    1.2510 O   0  0  0  0  0  0  0  0  0  0  0  0
    1.4580    0.4450   -0.8750 C   0  0  2  0  0  0  0  0  0  0  0  0
    2.2780    1.2770   -1.8400 C   0  0  0  0  0  0  0  0  0  0  0  0
    1.4800    1.9790   -2.7400 O   0  0  0  0  0  0  0  0  0  0  0  0
    0.5990    1.1810   -0.1150 O   0  0  0  0  0  0  0  0  0  0  0  0
   -0.7420    0.9100   -0.3420 C   0  0  2  0  0  0  0  0  0  0  0  0
   -1.3740    2.0480   -0.8440 O   0  0  0  0  0  0  0  0  0  0  0  0
   -1.3560    0.4180    0.8010 O   0  0  0  0  0  0  0  0  0  0  0  0
   -1.8750   -0.8590    0.6120 C   0  0  0  0  0  0  0  0  0  0  0  0
   -2.5380   -1.3840    1.8570 C   0  0  0  0  0  0  0  0  0  0  0  0
   -1.6550   -1.4620    2.9270 O   0  0  0  0  0  0  0  0  0  0  0  0
  1  2  2  0
  2  3  1  0
  2  4  1  0
  4  5  1  1
  4  7  1  0
  5  6  1  0
  7  8  1  0
  8  9  1  1
  8 10  1  0
 10 11  1  0
 11 12  1  0
 12 13  1  0
M  END
