
     RDKit          3D

 12 11  0  0  0  0  0  0  0  0999 V2000
   -3.6130    1.5880    1.5850 O   0  0  0  0  0  0  0  0  0  0  0  0
   -2.9100    0.4220    1.3300 C   0  0  0  0  0  0  0  0  0  0  0  0
   -1.7770    0.6640    0.3450 C   0  0  0  0  0  0  0  0  0  0  0  0
   -1.1470   -0.5580    0.1640 O   0  0  0  0  0  0  0  0  0  0  0  0
   -0.0780   -0.4990   -0.7180 C   0  0  2  0  0  0  0  0  0  0  0  0
   -0.4030   -1.4360   -1.8760 C   0  0  0  0  0  0  0  0  0  0  0  0
   -1.5970   -0.9480   -2.4500 O   0  0  0  0  0  0  0  0  0  0  0  0
    1.0290   -1.0370   -0.0630 O   0  0  0  0  0  0  0  0  0  0  0  0
    2.0770   -0.1540   -0.1070 C   0  0  2  0  0  0  0  0  0  0  0  0
    3.1270   -0.7620   -0.7930 O   0  0  0  0  0  0  0  0  0  0  0  0
    2.5500    0.2320    1.2800 C   0  0  0  0  0  0  0  0  0  0  0  0
    3.6080    1.1230    1.2010 O   0  0  0  0  0  0  0  0  0  0  0  0
  1  2  1  0
  2  3  1  0
  3  4  1  0
  4  5  1  0
  5  6  1  6
  5  8  1  0
  6  7  1  0
  8  9  1  0
  9 10  1  6
  9 11  1  0
 11 12  1  0
M  END
