
     RDKit          3D

 13 12  0  0  0  0  0  0  0  0999 V2000
    1.5180    0.9590   -1.0170 O   0  0  0  0  0  0  0  0  0  0  0  0
    1.6730    1.1190    0.2000 C   0  0  0  0  0  0  0  0  0  0  0  0
    2.5840    2.1030    0.6080 O   0  0  0  0  0  0  0  0  0  0  0  0
    0.9230    0.2980    1.1800 C   0  0  0  0  0  0  0  0  0  0  0  0
    0.0010   -0.6870    0.5750 C   0  0  2  0  0  0  0  0  0  0  0  0
    0.7340   -1.6400   -0.2830 C   0  0  0  0  0  0  0  0  0  0  0  0
    1.9700   -1.5620   -0.4190 O   0  0  0  0  0  0  0  0  0  0  0  0
    0.0530   -2.6350   -0.9480 O   0  0  0  0  0  0  0  0  0  0  0  0
   -1.1260   -0.1160   -0.2340 C   0  0  1  0  0  0  0  0  0  0  0  0
   -1.8500   -1.2460   -0.6950 O   0  0  0  0  0  0  0  0  0  0  0  0
   -1.9890    0.8100    0.4770 C   0  0  0  0  0  0  0  0  0  0  0  0
   -3.2030    0.5660    0.6200 O   0  0  0  0  0  0  0  0  0  0  0  0
   -1.4980    1.9780    1.0120 O   0  0  0  0  0  0  0  0  0  0  0  0
  1  2  2  0
  2  3  1  0
  2  4  1  0
  5  4  1  6
  5  6  1  0
  5  9  1  0
  6  7  2  0
  6  8  1  0
  9 10  1  1
  9 11  1  0
 11 12  2  0
 11 13  1  0
M  END
