
     RDKit          3D

 12 11  0  0  0  0  0  0  0  0999 V2000
    3.6910    1.3940    0.3910 C   0  0  0  0  0  0  0  0  0  0  0  0
    3.9040   -0.0470    0.8450 C   0  0  0  0  0  0  0  0  0  0  0  0
    3.5070   -1.0020   -0.2510 C   0  0  0  0  0  0  0  0  0  0  0  0
    2.0600   -0.8640   -0.6570 C   0  0  0  0  0  0  0  0  0  0  0  0
    1.1310   -1.1290    0.4740 C   0  0  0  0  0  0  0  0  0  0  0  0
   -0.3240   -1.0070    0.0960 C   0  0  0  0  0  0  0  0  0  0  0  0
   -0.7190    0.3240   -0.4050 C   0  0  0  0  0  0  0  0  0  0  0  0
   -2.1780    0.3500   -0.7750 C   0  0  0  0  0  0  0  0  0  0  0  0
   -3.0380    0.0350    0.4140 C   0  0  0  0  0  0  0  0  0  0  0  0
   -4.4960    0.0970   -0.0220 C   0  0  0  0  0  0  0  0  0  0  0  0
   -4.8050    1.4540   -0.5280 C   0  0  0  0  0  0  0  0  0  0  0  0
   -4.9440    2.3650    0.2660 O   0  0  0  0  0  0  0  0  0  0  0  0
  1  2  1  0
  2  3  1  0
  3  4  1  0
  4  5  1  0
  5  6  1  0
  6  7  1  0
  7  8  1  0
  8  9  1  0
  9 10  1  0
 10 11  1  0
 11 12  2  0
M  END
