
     RDKit          3D

  6  6  0  0  0  0  0  0  0  0999 V2000
   -0.8490    1.3220   -0.1240 C   0  0  0  0  0  0  0  0  0  0  0  0
    0.4460    1.4330    0.0320 C   0  0  0  0  0  0  0  0  0  0  0  0
    1.4290    0.3310    0.0270 C   0  0  0  0  0  0  0  0  0  0  0  0
    0.8530   -1.0280    0.0910 C   0  0  0  0  0  0  0  0  0  0  0  0
   -0.6220   -1.1270    0.2410 C   0  0  0  0  0  0  0  0  0  0  0  0
   -1.4210   -0.0180   -0.3280 C   0  0  0  0  0  0  0  0  0  0  0  0
  1  2  2  0
  1  6  1  0
  2  3  1  0
  3  4  1  0
  4  5  1  0
  5  6  1  0
M  END
