
     RDKit          3D

 12 11  0  0  0  0  0  0  0  0999 V2000
   -3.4390   -0.4590    2.0760 C   0  0  0  0  0  0  0  0  0  0  0  0
   -3.4620    0.3420    1.0610 C   0  0  0  0  0  0  0  0  0  0  0  0
   -2.4520    0.8740    0.2060 C   0  0  0  0  0  0  0  0  0  0  0  0
   -3.0400    1.7210   -0.7670 C   0  0  0  0  0  0  0  0  0  0  0  0
   -1.0360    0.7460    0.1120 C   0  0  0  0  0  0  0  0  0  0  0  0
   -0.0380    0.1860    0.6460 C   0  0  0  0  0  0  0  0  0  0  0  0
   -0.0110   -0.7190    1.7990 C   0  0  0  0  0  0  0  0  0  0  0  0
    1.3560    0.4560    0.0510 C   0  0  0  0  0  0  0  0  0  0  0  0
    1.9840   -0.8130   -0.4290 C   0  0  0  0  0  0  0  0  0  0  0  0
    3.3110   -0.4920   -0.9800 C   0  0  0  0  0  0  0  0  0  0  0  0
    3.5780   -0.6360   -2.4270 C   0  0  0  0  0  0  0  0  0  0  0  0
    4.1900   -0.1050   -0.2320 O   0  0  0  0  0  0  0  0  0  0  0  0
  1  2  2  0
  2  3  1  0
  3  4  2  0
  3  5  1  0
  5  6  2  3
  6  7  1  0
  6  8  1  0
  8  9  1  0
  9 10  1  0
 10 11  1  0
 10 12  2  0
M  END
