
     RDKit          3D

 12 11  0  0  0  0  0  0  0  0999 V2000
    4.4160    0.8030    0.1780 C   0  0  0  0  0  0  0  0  0  0  0  0
    3.6280   -0.1150    0.0040 C   0  0  0  0  0  0  0  0  0  0  0  0
    2.6860   -1.1790   -0.1870 C   0  0  0  0  0  0  0  0  0  0  0  0
    1.3400   -0.7570   -0.7410 C   0  0  0  0  0  0  0  0  0  0  0  0
    0.6650    0.2190    0.1560 C   0  0  0  0  0  0  0  0  0  0  0  0
    1.3410    1.2200    0.5060 O   0  0  0  0  0  0  0  0  0  0  0  0
   -0.7070    0.1300    0.6740 C   0  0  1  0  0  0  0  0  0  0  0  0
   -0.8740    1.3400    1.6340 C   0  0  0  0  0  0  0  0  0  0  0  0
   -0.6510    2.6190    0.8970 C   0  0  0  0  0  0  0  0  0  0  0  0
   -1.8130    0.1790   -0.3090 C   0  0  0  0  0  0  0  0  0  0  0  0
   -1.8680   -0.8690   -1.3560 C   0  0  0  0  0  0  0  0  0  0  0  0
   -1.9930   -2.2660   -0.7450 C   0  0  0  0  0  0  0  0  0  0  0  0
  1  2  3  0
  2  3  1  0
  3  4  1  0
  4  5  1  0
  5  6  2  0
  5  7  1  0
  7  8  1  1
  7 10  1  0
  8  9  1  0
 10 11  1  0
 11 12  1  0
M  END
