
     RDKit          3D

 12 12  0  0  0  0  0  0  0  0999 V2000
    4.3010    0.9090   -0.5810 C   0  0  0  0  0  0  0  0  0  0  0  0
    3.6270   -0.3070    0.0640 C   0  0  0  0  0  0  0  0  0  0  0  0
    2.1380   -0.1650   -0.1280 C   0  0  0  0  0  0  0  0  0  0  0  0
    1.3470   -1.2870    0.4820 C   0  0  0  0  0  0  0  0  0  0  0  0
   -0.0990   -1.0030    0.2060 C   0  0  0  0  0  0  0  0  0  0  0  0
   -0.7680   -1.6950   -0.5400 O   0  0  0  0  0  0  0  0  0  0  0  0
   -0.7310    0.1640    0.8620 C   0  0  0  0  0  0  0  0  0  0  0  0
   -2.1940    0.2070    0.4950 C   0  0  0  0  0  0  0  0  0  0  0  0
   -2.7760    1.2020   -0.1510 C   0  0  0  0  0  0  0  0  0  0  0  0
   -4.2070    0.9000   -0.3360 C   0  0  0  0  0  0  0  0  0  0  0  0
   -4.3850   -0.4180    0.3030 C   0  0  0  0  0  0  0  0  0  0  0  0
   -3.2090   -0.7920    0.7710 C   0  0  0  0  0  0  0  0  0  0  0  0
  1  2  1  0
  2  3  1  0
  3  4  1  0
  4  5  1  0
  5  6  2  0
  5  7  1  0
  7  8  1  0
  8  9  2  0
  8 12  1  0
  9 10  1  0
 10 11  1  0
 11 12  2  0
M  END
