
     RDKit          3D

 33 34  0  0  0  0  0  0  0  0999 V2000
   -0.3530   -4.2950    2.0170 C   0  0  0  0  0  0  0  0  0  0  0  0
   -0.2480   -3.3480    0.9740 O   0  0  0  0  0  0  0  0  0  0  0  0
   -1.0570   -2.2530    0.9650 C   0  0  0  0  0  0  0  0  0  0  0  0
   -1.8810   -2.1570    1.9340 O   0  0  0  0  0  0  0  0  0  0  0  0
   -1.0370   -1.2250   -0.0590 C   0  0  2  0  0  0  0  0  0  0  0  0
    0.1650   -0.4010   -0.2680 C   0  0  0  0  0  0  0  0  0  0  0  0
    1.4260   -1.0090   -0.6630 C   0  0  1  0  0  0  0  0  0  0  0  0
    1.2480   -1.7670   -1.9490 C   0  0  0  0  0  0  0  0  0  0  0  0
    1.4580   -3.0000   -2.0330 O   0  0  0  0  0  0  0  0  0  0  0  0
    0.8350   -1.1140   -3.1150 O   0  0  0  0  0  0  0  0  0  0  0  0
    2.2950    0.1880   -1.1510 C   0  0  0  0  0  0  0  0  0  0  0  0
    3.1520    0.8590   -0.5000 N   0  0  0  0  0  0  0  0  0  0  0  0
    3.5700    0.7300    0.8400 C   0  0  0  0  0  0  0  0  0  0  0  0
    4.5920    1.4730    1.2000 C   0  0  0  0  0  0  0  0  0  0  0  0
    5.2090    2.3530    0.2360 C   0  0  0  0  0  0  0  0  0  0  0  0
    6.2330    3.0970    0.5980 C   0  0  0  0  0  0  0  0  0  0  0  0
    6.8750    3.9950   -0.3580 C   0  0  0  0  0  0  0  0  0  0  0  0
    7.8540    4.7060   -0.0180 O   0  0  0  0  0  0  0  0  0  0  0  0
    3.0180   -0.1200    1.8700 C   0  0  0  0  0  0  0  0  0  0  0  0
    3.1570    0.2640    3.0430 O   0  0  0  0  0  0  0  0  0  0  0  0
    2.3000   -1.4060    1.6850 C   0  0  0  0  0  0  0  0  0  0  0  0
    2.2470   -1.8140    0.2450 C   0  0  0  0  0  0  0  0  0  0  0  0
   -2.1900   -0.3350    0.2530 N   0  0  0  0  0  0  0  0  0  0  0  0
   -3.2670   -0.2260   -0.6430 C   0  0  0  0  0  0  0  0  0  0  0  0
   -3.2350   -0.8970   -1.7140 O   0  0  0  0  0  0  0  0  0  0  0  0
   -4.4310    0.6260   -0.4080 C   0  0  0  0  0  0  0  0  0  0  0  0
   -4.5960    1.3510    0.7540 C   0  0  0  0  0  0  0  0  0  0  0  0
   -5.7010    2.1620    0.9690 C   0  0  0  0  0  0  0  0  0  0  0  0
   -6.6920    2.2690    0.0030 C   0  0  0  0  0  0  0  0  0  0  0  0
   -8.1570    3.3370    0.2690 P   0  0  0  0  0  0  0  0  0  0  0  0
   -9.5900    2.7590    0.3780 O   0  0  0  0  0  0  0  0  0  0  0  0
   -6.5200    1.5430   -1.1560 C   0  0  0  0  0  0  0  0  0  0  0  0
   -5.4190    0.7380   -1.3650 C   0  0  0  0  0  0  0  0  0  0  0  0
  1  2  1  0
  2  3  1  0
  3  4  2  0
  3  5  1  0
  5  6  1  1
  5 23  1  0
  7  6  1  1
  7  8  1  0
  7 11  1  0
  7 22  1  0
  8  9  2  0
  8 10  1  0
 11 12  2  0
 12 13  1  0
 13 14  2  3
 13 19  1  0
 14 15  1  0
 15 16  2  3
 16 17  1  0
 17 18  2  0
 19 20  2  0
 19 21  1  0
 21 22  1  0
 23 24  1  0
 24 25  2  0
 24 26  1  0
 26 27  2  0
 26 33  1  0
 27 28  1  0
 28 29  2  0
 29 30  1  0
 29 32  1  0
 30 31  2  0
 32 33  2  0
M  END
