
     RDKit          3D

 33 34  0  0  0  0  0  0  0  0999 V2000
    7.2610   -0.3020    3.1760 C   0  0  0  0  0  0  0  0  0  0  0  0
    6.1420   -0.9750    2.3780 C   0  0  0  0  0  0  0  0  0  0  0  0
    6.7330   -1.5340    1.2570 O   0  0  0  0  0  0  0  0  0  0  0  0
    5.5990   -2.3000    0.1880 P   0  0  0  0  0  0  0  0  0  0  0  0
    6.2280   -3.9750   -0.2800 C   0  0  0  0  0  0  0  0  0  0  0  0
    5.3350   -1.2600   -1.3370 C   0  0  0  0  0  0  0  0  0  0  0  0
    4.5050   -0.0880   -1.0090 N   0  0  0  0  0  0  0  0  0  0  0  0
    5.2130    1.0880   -0.5870 C   0  0  0  0  0  0  0  0  0  0  0  0
    3.1210   -0.2280   -1.1640 C   0  0  0  0  0  0  0  0  0  0  0  0
    2.7120   -1.3480   -1.6770 O   0  0  0  0  0  0  0  0  0  0  0  0
    2.0400    0.7040   -0.8320 C   0  0  1  0  0  0  0  0  0  0  0  0
    2.3060    2.1440   -1.1460 C   0  0  0  0  0  0  0  0  0  0  0  0
    2.4410    2.3500   -2.5150 O   0  0  0  0  0  0  0  0  0  0  0  0
    0.7730    0.2580   -1.4080 N   0  0  0  0  0  0  0  0  0  0  0  0
   -0.2220   -0.3950   -0.6350 C   0  0  0  0  0  0  0  0  0  0  0  0
   -0.0240   -0.6150    0.5770 O   0  0  0  0  0  0  0  0  0  0  0  0
   -1.4210   -0.8040   -1.1890 O   0  0  0  0  0  0  0  0  0  0  0  0
   -2.3740   -1.4680   -0.4050 C   0  0  2  0  0  0  0  0  0  0  0  0
   -2.4800   -2.8530   -0.9720 C   0  0  0  0  0  0  0  0  0  0  0  0
   -3.7190   -3.0430   -1.3200 C   0  0  0  0  0  0  0  0  0  0  0  0
   -4.4750   -1.8470   -1.0150 C   0  0  0  0  0  0  0  0  0  0  0  0
   -3.7130   -0.9190   -0.4810 C   0  0  0  0  0  0  0  0  0  0  0  0
   -4.1860    0.4110   -0.0150 C   0  0  2  0  0  0  0  0  0  0  0  0
   -5.5940    0.6320   -0.3900 C   0  0  0  0  0  0  0  0  0  0  0  0
   -5.9240    1.4860   -1.2120 O   0  0  0  0  0  0  0  0  0  0  0  0
   -6.6120   -0.1440    0.1940 O   0  0  0  0  0  0  0  0  0  0  0  0
   -7.9710    0.0770   -0.1800 C   0  0  0  0  0  0  0  0  0  0  0  0
   -3.3450    1.5650   -0.3980 C   0  0  0  0  0  0  0  0  0  0  0  0
   -3.8950    2.8590    0.1140 C   0  0  0  0  0  0  0  0  0  0  0  0
   -4.2180    2.8580    1.5850 C   0  0  2  0  0  0  0  0  0  0  0  0
   -3.0830    3.0880    2.3620 O   0  0  0  0  0  0  0  0  0  0  0  0
   -4.9190    1.5760    1.9980 C   0  0  0  0  0  0  0  0  0  0  0  0
   -4.1610    0.3750    1.5530 C   0  0  0  0  0  0  0  0  0  0  0  0
  1  2  1  0
  2  3  1  0
  3  4  1  0
  4  5  1  0
  4  6  1  0
  6  7  1  0
  7  8  1  0
  7  9  1  0
  9 10  2  0
  9 11  1  0
 11 12  1  6
 11 14  1  0
 12 13  1  0
 14 15  1  0
 15 16  2  0
 15 17  1  0
 18 17  1  6
 18 19  1  0
 18 22  1  0
 19 20  2  0
 20 21  1  0
 21 22  2  0
 22 23  1  0
 23 24  1  1
 23 28  1  0
 23 33  1  0
 24 25  2  0
 24 26  1  0
 26 27  1  0
 28 29  1  0
 29 30  1  0
 30 31  1  1
 30 32  1  0
 32 33  1  0
M  END
