
     RDKit          3D

 33 35  0  0  0  0  0  0  0  0999 V2000
    6.8170    0.8200    0.9640 C   0  0  0  0  0  0  0  0  0  0  0  0
    6.6070    1.3750   -0.1790 C   0  0  0  0  0  0  0  0  0  0  0  0
    7.8050    1.8360   -0.8800 O   0  0  0  0  0  0  0  0  0  0  0  0
    8.8350    0.5630   -1.5510 P   0  0  0  0  0  0  0  0  0  0  0  0
    8.9040   -0.7810   -0.4240 O   0  0  0  0  0  0  0  0  0  0  0  0
   10.4520    1.1360   -1.7650 O   0  0  0  0  0  0  0  0  0  0  0  0
    5.3980    1.6110   -0.8690 C   0  0  0  0  0  0  0  0  0  0  0  0
    5.4890    2.2300   -2.0870 C   0  0  0  0  0  0  0  0  0  0  0  0
    4.0660    1.3300   -0.5340 C   0  0  0  0  0  0  0  0  0  0  0  0
    3.1000    1.6520   -1.3590 O   0  0  0  0  0  0  0  0  0  0  0  0
    3.5230    0.7410    0.5770 N   0  0  0  0  0  0  0  0  0  0  0  0
    2.1120    0.5360    0.6480 C   0  0  0  0  0  0  0  0  0  0  0  0
    1.7200    0.2550    1.8380 N   0  0  0  0  0  0  0  0  0  0  0  0
    0.3240    0.1040    1.7890 C   0  0  0  0  0  0  0  0  0  0  0  0
   -0.8700    0.2140    2.2210 C   0  0  0  0  0  0  0  0  0  0  0  0
   -1.1120    0.8020    3.4550 O   0  0  0  0  0  0  0  0  0  0  0  0
   -1.1320    2.2310    3.5250 C   0  0  0  0  0  0  0  0  0  0  0  0
   -1.8300   -0.3330    1.2280 C   0  0  0  0  0  0  0  0  0  0  0  0
   -1.1450   -0.7640    0.1820 C   0  0  0  0  0  0  0  0  0  0  0  0
   -1.7280   -1.3870   -1.0510 C   0  0  1  0  0  0  0  0  0  0  0  0
   -1.4580   -2.7770   -1.0140 O   0  0  0  0  0  0  0  0  0  0  0  0
   -3.2010   -1.2650   -1.0480 C   0  0  0  0  0  0  0  0  0  0  0  0
   -3.9950   -2.3540   -1.3460 C   0  0  0  0  0  0  0  0  0  0  0  0
   -5.3680   -2.2750   -1.3770 C   0  0  0  0  0  0  0  0  0  0  0  0
   -6.0360   -1.0740   -1.1060 C   0  0  0  0  0  0  0  0  0  0  0  0
   -7.4170   -1.0620   -1.1540 O   0  0  0  0  0  0  0  0  0  0  0  0
   -8.1690    0.0910   -0.8880 C   0  0  0  0  0  0  0  0  0  0  0  0
   -7.9960    0.6500    0.4920 C   0  0  0  0  0  0  0  0  0  0  0  0
   -5.2420    0.0100   -0.8100 C   0  0  0  0  0  0  0  0  0  0  0  0
   -3.8500   -0.0830   -0.7820 C   0  0  0  0  0  0  0  0  0  0  0  0
    0.2250   -0.5980    0.4380 C   0  0  2  0  0  0  0  0  0  0  0  0
    1.0880   -1.8070    0.3590 C   0  0  0  0  0  0  0  0  0  0  0  0
    0.9490    0.5080   -0.1490 O   0  0  0  0  0  0  0  0  0  0  0  0
  1  2  2  0
  2  3  1  0
  2  7  1  0
  3  4  1  0
  4  5  1  0
  4  6  1  0
  7  8  2  0
  7  9  1  0
  9 10  2  0
  9 11  1  0
 11 12  1  0
 12 13  2  0
 12 33  1  0
 13 14  1  0
 14 15  2  0
 14 31  1  0
 15 16  1  0
 15 18  1  0
 16 17  1  0
 18 19  2  0
 19 20  1  0
 19 31  1  0
 20 21  1  1
 20 22  1  0
 22 23  2  0
 22 30  1  0
 23 24  1  0
 24 25  2  0
 25 26  1  0
 25 29  1  0
 26 27  1  0
 27 28  1  0
 29 30  2  0
 31 32  1  1
 31 33  1  0
M  END
