
     RDKit          3D

 33 34  0  0  0  0  0  0  0  0999 V2000
   -1.0090   -2.1620    4.1850 C   0  0  0  0  0  0  0  0  0  0  0  0
   -1.3680   -1.6210    2.9530 O   0  0  0  0  0  0  0  0  0  0  0  0
   -1.0330   -2.1610    1.7210 C   0  0  0  0  0  0  0  0  0  0  0  0
   -0.3490   -3.2260    1.8060 O   0  0  0  0  0  0  0  0  0  0  0  0
   -1.3740   -1.6520    0.4270 C   0  0  0  0  0  0  0  0  0  0  0  0
   -1.1260   -0.2960   -0.0210 C   0  0  2  0  0  0  0  0  0  0  0  0
    0.2190    0.3000   -0.1340 C   0  0  0  0  0  0  0  0  0  0  0  0
    1.1640    0.4940    0.9270 C   0  0  2  0  0  0  0  0  0  0  0  0
    1.6840   -0.7580    1.6380 C   0  0  0  0  0  0  0  0  0  0  0  0
    0.6000    1.3550    2.0930 C   0  0  0  0  0  0  0  0  0  0  0  0
    2.3910    1.2790    0.5620 C   0  0  0  0  0  0  0  0  0  0  0  0
    3.2990    0.8950   -0.4030 N   0  0  0  0  0  0  0  0  0  0  0  0
    3.1700    0.8270   -1.7960 C   0  0  0  0  0  0  0  0  0  0  0  0
    2.0880    1.1830   -2.3300 O   0  0  0  0  0  0  0  0  0  0  0  0
    4.2700    0.3480   -2.6710 C   0  0  0  0  0  0  0  0  0  0  0  0
    4.1640    0.2740   -4.0410 C   0  0  0  0  0  0  0  0  0  0  0  0
    5.3020   -0.1860   -4.5230 O   0  0  0  0  0  0  0  0  0  0  0  0
    6.1690   -0.4300   -3.5820 C   0  0  0  0  0  0  0  0  0  0  0  0
    5.5240   -0.0930   -2.3870 C   0  0  0  0  0  0  0  0  0  0  0  0
    6.0870   -0.1980   -1.1330 O   0  0  0  0  0  0  0  0  0  0  0  0
    7.7160   -0.7780   -0.8490 P   0  0  0  0  0  0  0  0  0  0  0  0
    8.9020    0.1620   -1.6760 O   0  0  0  0  0  0  0  0  0  0  0  0
    8.0200   -0.6880    0.8480 O   0  0  0  0  0  0  0  0  0  0  0  0
   -2.1070    0.6870    0.4580 N   0  0  0  0  0  0  0  0  0  0  0  0
   -3.4640    0.6740    0.0960 C   0  0  0  0  0  0  0  0  0  0  0  0
   -3.9760   -0.0970   -0.9080 C   0  0  0  0  0  0  0  0  0  0  0  0
   -5.3380   -0.0410   -1.1680 C   0  0  0  0  0  0  0  0  0  0  0  0
   -6.1820    0.7680   -0.4450 C   0  0  0  0  0  0  0  0  0  0  0  0
   -7.6050    0.8390   -0.7030 C   0  0  0  0  0  0  0  0  0  0  0  0
   -8.2540    0.0300   -1.7800 C   0  0  0  0  0  0  0  0  0  0  0  0
   -8.3600    1.5860   -0.0300 O   0  0  0  0  0  0  0  0  0  0  0  0
   -5.6410    1.5370    0.5630 C   0  0  0  0  0  0  0  0  0  0  0  0
   -4.3030    1.4880    0.8260 C   0  0  0  0  0  0  0  0  0  0  0  0
  1  2  1  0
  2  3  1  0
  3  4  2  0
  3  5  1  0
  6  5  1  1
  6  7  1  0
  6 24  1  0
  7  8  1  0
  8  9  1  1
  8 10  1  0
  8 11  1  0
 11 12  1  0
 12 13  1  0
 13 14  2  0
 13 15  1  0
 15 16  2  0
 15 19  1  0
 16 17  1  0
 17 18  1  0
 18 19  2  0
 19 20  1  0
 20 21  1  0
 21 22  1  0
 21 23  1  0
 24 25  1  0
 25 26  2  0
 25 33  1  0
 26 27  1  0
 27 28  2  0
 28 29  1  0
 28 32  1  0
 29 30  1  0
 29 31  2  0
 32 33  2  0
M  END
