
     RDKit          3D

 33 35  0  0  0  0  0  0  0  0999 V2000
    7.0420    2.1300    1.4880 C   0  0  0  0  0  0  0  0  0  0  0  0
    5.7540    1.3430    1.2830 C   0  0  0  0  0  0  0  0  0  0  0  0
    5.9510    0.5500    0.1370 O   0  0  0  0  0  0  0  0  0  0  0  0
    5.0860   -0.9510    0.3430 P   0  0  0  0  0  0  0  0  0  0  0  0
    5.3000   -1.8500   -1.1540 O   0  0  0  0  0  0  0  0  0  0  0  0
    6.5430   -1.6300   -1.6870 C   0  0  0  0  0  0  0  0  0  0  0  0
    6.3610   -0.8550   -3.0220 C   0  0  0  0  0  0  0  0  0  0  0  0
    3.3010   -0.6410    0.3340 C   0  0  0  0  0  0  0  0  0  0  0  0
    2.7960    0.4510   -0.3360 C   0  0  0  0  0  0  0  0  0  0  0  0
    1.4200    0.3280   -0.6450 C   0  0  0  0  0  0  0  0  0  0  0  0
    0.7210   -0.6150   -0.3530 C   0  0  0  0  0  0  0  0  0  0  0  0
   -0.7810   -0.5600   -0.5220 N   0  0  0  0  0  0  0  0  0  0  0  0
   -1.5830    0.5320    0.0410 C   0  0  0  0  0  0  0  0  0  0  0  0
   -1.1080    1.8100    0.2360 C   0  0  0  0  0  0  0  0  0  0  0  0
   -1.9290    2.7430    0.7130 C   0  0  0  0  0  0  0  0  0  0  0  0
   -3.2820    2.4970    0.9930 C   0  0  0  0  0  0  0  0  0  0  0  0
   -4.2330    3.5900    1.2060 C   0  0  0  0  0  0  0  0  0  0  0  0
   -4.4000    4.1100   -0.1500 O   0  0  0  0  0  0  0  0  0  0  0  0
   -5.4220    4.8740   -0.5540 C   0  0  0  0  0  0  0  0  0  0  0  0
   -6.3390    5.1970    0.2480 O   0  0  0  0  0  0  0  0  0  0  0  0
   -5.4840    5.3950   -1.8300 O   0  0  0  0  0  0  0  0  0  0  0  0
   -3.7050    1.2170    0.8020 C   0  0  0  0  0  0  0  0  0  0  0  0
   -2.8590    0.2050    0.3350 C   0  0  0  0  0  0  0  0  0  0  0  0
   -3.2160   -1.2600    0.4010 C   0  0  1  0  0  0  0  0  0  0  0  0
   -2.1130   -1.8100    1.0820 O   0  0  0  0  0  0  0  0  0  0  0  0
   -4.2570   -1.3770    1.3960 O   0  0  0  0  0  0  0  0  0  0  0  0
   -4.8400   -2.6120    1.3200 C   0  0  0  0  0  0  0  0  0  0  0  0
   -3.9530   -3.6730    0.7060 C   0  0  0  0  0  0  0  0  0  0  0  0
   -3.6490   -3.2060   -0.7060 C   0  0  1  0  0  0  0  0  0  0  0  0
   -4.8050   -3.5250   -1.5080 N   0  0  0  0  0  0  0  0  0  0  0  0
   -3.5740   -1.7770   -0.7440 O   0  0  0  0  0  0  0  0  0  0  0  0
    1.0960   -1.8070    0.3520 C   0  0  0  0  0  0  0  0  0  0  0  0
    2.4910   -1.7110    0.6680 C   0  0  0  0  0  0  0  0  0  0  0  0
  1  2  1  0
  2  3  1  0
  3  4  1  0
  4  5  1  0
  4  8  1  0
  5  6  1  0
  6  7  1  0
  8  9  2  0
  8 33  1  0
  9 10  1  0
 10 11  2  0
 11 12  1  0
 11 32  1  0
 12 13  1  0
 13 14  2  0
 13 23  1  0
 14 15  1  0
 15 16  2  0
 16 17  1  0
 16 22  1  0
 17 18  1  0
 18 19  1  0
 19 20  2  0
 19 21  1  0
 22 23  2  0
 23 24  1  0
 24 25  1  1
 24 26  1  0
 24 31  1  0
 26 27  1  0
 27 28  1  0
 28 29  1  0
 29 30  1  6
 29 31  1  0
 32 33  2  0
M  END
