
     RDKit          3D

 22 22  0  0  0  0  0  0  0  0999 V2000
   -4.5640   -1.2100    0.1970 O   0  0  0  0  0  0  0  0  0  0  0  0
   -4.4640   -0.1680    0.9070 C   0  0  0  0  0  0  0  0  0  0  0  0
   -5.6560    0.5580    1.0750 O   0  0  0  0  0  0  0  0  0  0  0  0
   -3.1850    0.2640    1.5220 C   0  0  0  0  0  0  0  0  0  0  0  0
   -2.2070    0.7870    0.4930 C   0  0  1  0  0  0  0  0  0  0  0  0
   -2.8560    1.8860   -0.1240 O   0  0  0  0  0  0  0  0  0  0  0  0
   -1.0090    1.4440    1.2030 C   0  0  0  0  0  0  0  0  0  0  0  0
   -0.1260    1.7410    0.1720 O   0  0  0  0  0  0  0  0  0  0  0  0
    0.6130    0.5440   -0.0410 C   0  0  2  0  0  0  0  0  0  0  0  0
    1.6200    0.7900   -0.9600 O   0  0  0  0  0  0  0  0  0  0  0  0
    2.8950    0.8180   -0.5090 C   0  0  0  0  0  0  0  0  0  0  0  0
    3.3450   -0.4840    0.0610 C   0  0  1  0  0  0  0  0  0  0  0  0
    3.2910   -1.4850   -0.9170 O   0  0  0  0  0  0  0  0  0  0  0  0
    4.8170   -0.4260    0.4800 C   0  0  2  0  0  0  0  0  0  0  0  0
    5.0240    0.5410    1.4380 O   0  0  0  0  0  0  0  0  0  0  0  0
    5.6570   -0.3660   -0.6080 O   0  0  0  0  0  0  0  0  0  0  0  0
   -0.2910   -0.5610   -0.4210 C   0  0  1  0  0  0  0  0  0  0  0  0
   -0.0380   -1.8050    0.4010 C   0  0  0  0  0  0  0  0  0  0  0  0
   -0.9060   -2.8390    0.0300 O   0  0  0  0  0  0  0  0  0  0  0  0
   -1.7590   -0.2290   -0.4860 C   0  0  2  0  0  0  0  0  0  0  0  0
   -2.1740    0.1260   -1.8870 C   0  0  0  0  0  0  0  0  0  0  0  0
   -1.6100    1.3500   -2.2290 O   0  0  0  0  0  0  0  0  0  0  0  0
  1  2  2  0
  2  3  1  0
  2  4  1  0
  4  5  1  0
  5  6  1  6
  5  7  1  0
  5 20  1  0
  7  8  1  0
  8  9  1  0
  9 10  1  6
  9 17  1  0
 10 11  1  0
 11 12  1  0
 12 13  1  6
 12 14  1  0
 14 15  1  1
 14 16  1  0
 17 18  1  1
 17 20  1  0
 18 19  1  0
 20 21  1  6
 21 22  1  0
M  END
