
     RDKit          3D

 22 22  0  0  0  0  0  0  0  0999 V2000
    0.6980   -0.1460    1.6600 C   0  0  0  0  0  0  0  0  0  0  0  0
    1.1170   -0.5170    0.2540 C   0  0  1  0  0  0  0  0  0  0  0  0
    1.7610   -1.8880    0.3550 C   0  0  0  0  0  0  0  0  0  0  0  0
    2.1790   -2.3940   -0.8510 O   0  0  0  0  0  0  0  0  0  0  0  0
    0.0070   -0.6900   -0.5770 O   0  0  0  0  0  0  0  0  0  0  0  0
   -0.7730    0.4610   -0.4490 C   0  0  2  0  0  0  0  0  0  0  0  0
   -1.9660    0.2050   -1.1220 O   0  0  0  0  0  0  0  0  0  0  0  0
   -3.0430    0.2540   -0.2760 C   0  0  0  0  0  0  0  0  0  0  0  0
   -4.3340   -0.0250   -1.0140 C   0  0  1  0  0  0  0  0  0  0  0  0
   -4.2970   -1.2920   -1.5950 O   0  0  0  0  0  0  0  0  0  0  0  0
   -5.4270   -0.0950    0.0610 C   0  0  0  0  0  0  0  0  0  0  0  0
   -6.6590   -0.4160   -0.5180 O   0  0  0  0  0  0  0  0  0  0  0  0
   -0.0640    1.6700   -1.0050 C   0  0  1  0  0  0  0  0  0  0  0  0
   -0.1830    2.7260   -0.1050 O   0  0  0  0  0  0  0  0  0  0  0  0
    1.3850    1.4400   -1.2810 C   0  0  0  0  0  0  0  0  0  0  0  0
    2.0560    0.5260   -0.2600 C   0  0  1  0  0  0  0  0  0  0  0  0
    2.4650    1.2960    0.8260 O   0  0  0  0  0  0  0  0  0  0  0  0
    3.3010   -0.0270   -0.9110 C   0  0  0  0  0  0  0  0  0  0  0  0
    4.1360   -0.7990   -0.1380 O   0  0  0  0  0  0  0  0  0  0  0  0
    4.8780   -0.4510    0.9580 C   0  0  0  0  0  0  0  0  0  0  0  0
    4.8500    0.7270    1.3730 O   0  0  0  0  0  0  0  0  0  0  0  0
    5.6840   -1.3460    1.6630 O   0  0  0  0  0  0  0  0  0  0  0  0
  2  1  1  1
  2  3  1  0
  2  5  1  0
  2 16  1  0
  3  4  1  0
  5  6  1  0
  6  7  1  6
  6 13  1  0
  7  8  1  0
  8  9  1  0
  9 10  1  1
  9 11  1  0
 11 12  1  0
 13 14  1  1
 13 15  1  0
 15 16  1  0
 16 17  1  1
 16 18  1  0
 18 19  1  0
 19 20  1  0
 20 21  2  0
 20 22  1  0
M  END
