
     RDKit          3D

 22 22  0  0  0  0  0  0  0  0999 V2000
    1.8570   -2.5950    0.5390 O   0  0  0  0  0  0  0  0  0  0  0  0
    2.0440   -1.5670   -0.1640 C   0  0  0  0  0  0  0  0  0  0  0  0
    0.9760   -0.7340   -0.3990 O   0  0  0  0  0  0  0  0  0  0  0  0
   -0.3340   -0.9770    0.1140 C   0  0  2  0  0  0  0  0  0  0  0  0
   -1.1600   -1.1840   -0.9310 O   0  0  0  0  0  0  0  0  0  0  0  0
   -2.4260   -0.7990   -0.9230 C   0  0  2  0  0  0  0  0  0  0  0  0
   -2.7780   -0.3290   -2.2120 O   0  0  0  0  0  0  0  0  0  0  0  0
   -2.8520    0.2570    0.0450 C   0  0  2  0  0  0  0  0  0  0  0  0
   -3.3370   -0.3960    1.2000 O   0  0  0  0  0  0  0  0  0  0  0  0
   -3.9870    1.0800   -0.5080 C   0  0  0  0  0  0  0  0  0  0  0  0
   -4.3710    2.1170    0.4990 C   0  0  0  0  0  0  0  0  0  0  0  0
   -5.4380    2.9200    0.0330 O   0  0  0  0  0  0  0  0  0  0  0  0
   -1.6410    1.0940    0.3810 C   0  0  0  0  0  0  0  0  0  0  0  0
   -0.6800    0.1100    1.0570 C   0  0  1  0  0  0  0  0  0  0  0  0
   -1.3270   -0.4070    2.1910 O   0  0  0  0  0  0  0  0  0  0  0  0
    3.4150   -1.3150   -0.6990 C   0  0  1  0  0  0  0  0  0  0  0  0
    3.6990   -2.5180   -1.6080 C   0  0  0  0  0  0  0  0  0  0  0  0
    3.7150   -3.6760   -0.8450 O   0  0  0  0  0  0  0  0  0  0  0  0
    3.3940   -0.1730   -1.4170 O   0  0  0  0  0  0  0  0  0  0  0  0
    4.1580    0.8640   -1.0450 C   0  0  0  0  0  0  0  0  0  0  0  0
    3.9430    1.4520    0.3010 C   0  0  0  0  0  0  0  0  0  0  0  0
    2.6340    1.9270    0.4190 O   0  0  0  0  0  0  0  0  0  0  0  0
  1  2  2  0
  2  3  1  0
  2 16  1  0
  4  3  1  6
  4  5  1  0
  4 14  1  0
  5  6  1  0
  6  7  1  6
  6  8  1  0
  8  9  1  1
  8 10  1  0
  8 13  1  0
 10 11  1  0
 11 12  1  0
 13 14  1  0
 14 15  1  1
 16 17  1  6
 16 19  1  0
 17 18  1  0
 19 20  1  0
 20 21  1  0
 21 22  1  0
M  END
