
     RDKit          3D

 22 22  0  0  0  0  0  0  0  0999 V2000
    3.7450   -0.7890    2.2160 C   0  0  0  0  0  0  0  0  0  0  0  0
    2.8900   -0.8410    1.1070 O   0  0  0  0  0  0  0  0  0  0  0  0
    3.3520   -1.2170   -0.1500 C   0  0  0  0  0  0  0  0  0  0  0  0
    4.5730   -1.5090   -0.2450 O   0  0  0  0  0  0  0  0  0  0  0  0
    2.4280   -1.2650   -1.3130 C   0  0  2  0  0  0  0  0  0  0  0  0
    3.1210   -1.6650   -2.4430 O   0  0  0  0  0  0  0  0  0  0  0  0
    1.7540    0.0980   -1.5190 C   0  0  2  0  0  0  0  0  0  0  0  0
    2.7810    1.0770   -1.9880 C   0  0  0  0  0  0  0  0  0  0  0  0
    2.1400    2.3090   -2.2170 O   0  0  0  0  0  0  0  0  0  0  0  0
    1.1020    0.4160   -0.3790 O   0  0  0  0  0  0  0  0  0  0  0  0
   -0.3050    0.4890   -0.5170 C   0  0  2  0  0  0  0  0  0  0  0  0
   -0.6520    1.7480   -0.1110 O   0  0  0  0  0  0  0  0  0  0  0  0
   -1.7400    1.8330    0.7190 C   0  0  2  0  0  0  0  0  0  0  0  0
   -1.2560    1.7390    2.1330 C   0  0  0  0  0  0  0  0  0  0  0  0
   -2.2400    1.8090    3.0850 O   0  0  0  0  0  0  0  0  0  0  0  0
   -2.7500    0.7990    0.3380 C   0  0  1  0  0  0  0  0  0  0  0  0
   -3.1400    1.0530   -0.9780 O   0  0  0  0  0  0  0  0  0  0  0  0
   -2.1560   -0.5890    0.3680 C   0  0  1  0  0  0  0  0  0  0  0  0
   -2.4810   -1.2870    1.6940 C   0  0  0  0  0  0  0  0  0  0  0  0
   -2.8380   -1.4010   -0.7060 C   0  0  0  0  0  0  0  0  0  0  0  0
   -2.5950   -0.9030   -1.9810 O   0  0  0  0  0  0  0  0  0  0  0  0
   -0.8000   -0.5340    0.2580 O   0  0  0  0  0  0  0  0  0  0  0  0
  1  2  1  0
  2  3  1  0
  3  4  2  0
  3  5  1  0
  5  6  1  6
  5  7  1  0
  7  8  1  1
  7 10  1  0
  8  9  1  0
 11 10  1  1
 11 12  1  0
 11 22  1  0
 12 13  1  0
 13 14  1  1
 13 16  1  0
 14 15  1  0
 16 17  1  6
 16 18  1  0
 18 19  1  1
 18 20  1  0
 18 22  1  0
 20 21  1  0
M  END
