
     RDKit          3D

 20 20  0  0  0  0  0  0  0  0999 V2000
   -0.0750   -2.0050   -2.8460 C   0  0  0  0  0  0  0  0  0  0  0  0
    1.0140   -1.5140   -2.0250 C   0  0  0  0  0  0  0  0  0  0  0  0
    1.0130   -0.9120   -0.8780 C   0  0  0  0  0  0  0  0  0  0  0  0
    2.4420   -0.5880   -0.4000 C   0  0  0  0  0  0  0  0  0  0  0  0
    2.7170    0.8660   -0.3740 C   0  0  0  0  0  0  0  0  0  0  0  0
    4.1360    1.1210    0.1560 C   0  0  1  0  0  0  0  0  0  0  0  0
    4.3890    2.6320    0.1700 C   0  0  0  0  0  0  0  0  0  0  0  0
    4.2790    0.6110    1.5580 C   0  0  0  0  0  0  0  0  0  0  0  0
   -0.0920   -0.4660   -0.0910 C   0  0  0  0  0  0  0  0  0  0  0  0
    0.2370    0.0420    1.1270 C   0  0  0  0  0  0  0  0  0  0  0  0
   -0.6680    0.5810    2.1330 C   0  0  2  0  0  0  0  0  0  0  0  0
   -0.1200    1.9900    2.5320 C   0  0  0  0  0  0  0  0  0  0  0  0
   -0.5120   -0.3130    3.3770 C   0  0  0  0  0  0  0  0  0  0  0  0
   -1.5170   -0.3950   -0.3770 C   0  0  1  0  0  0  0  0  0  0  0  0
   -1.9070    0.6710   -1.3700 C   0  0  0  0  0  0  0  0  0  0  0  0
   -3.3180    0.2610   -1.7120 C   0  0  0  0  0  0  0  0  0  0  0  0
   -3.4210   -1.1190   -1.0870 C   0  0  1  0  0  0  0  0  0  0  0  0
   -4.1360   -1.0480    0.2640 C   0  0  0  0  0  0  0  0  0  0  0  0
   -4.1940   -2.0370   -1.9850 C   0  0  0  0  0  0  0  0  0  0  0  0
   -2.0980   -1.5330   -0.9130 O   0  0  0  0  0  0  0  0  0  0  0  0
  1  2  1  0
  2  3  2  3
  3  4  1  0
  3  9  1  0
  4  5  1  0
  5  6  1  0
  6  7  1  1
  6  8  1  0
  9 10  2  3
 14  9  1  6
 10 11  1  0
 11 12  1  1
 11 13  1  0
 14 15  1  0
 14 20  1  0
 15 16  1  0
 16 17  1  0
 17 18  1  1
 17 19  1  0
 17 20  1  0
M  END
