
     RDKit          3D

 21 21  0  0  0  0  0  0  0  0999 V2000
    4.1100   -3.1180    0.0210 C   0  0  0  0  0  0  0  0  0  0  0  0
    4.9230   -2.2440   -0.4990 C   0  0  0  0  0  0  0  0  0  0  0  0
    4.9730   -0.8240   -0.3020 C   0  0  0  0  0  0  0  0  0  0  0  0
    5.9190   -0.1430   -0.9340 C   0  0  0  0  0  0  0  0  0  0  0  0
    6.0890    1.3170   -0.8250 C   0  0  0  0  0  0  0  0  0  0  0  0
    4.0800   -0.0540    0.5500 C   0  0  0  0  0  0  0  0  0  0  0  0
    2.6480   -0.0010    0.2290 C   0  0  1  0  0  0  0  0  0  0  0  0
    1.8550    0.8530    1.2300 C   0  0  0  0  0  0  0  0  0  0  0  0
    0.3910    0.4320    1.0130 C   0  0  0  0  0  0  0  0  0  0  0  0
   -0.0550    0.9260   -0.3140 C   0  0  2  0  0  0  0  0  0  0  0  0
   -1.3670    0.2900   -0.7040 C   0  0  0  0  0  0  0  0  0  0  0  0
   -2.5130    0.5260    0.1960 C   0  0  2  0  0  0  0  0  0  0  0  0
   -2.8830    1.9560    0.3870 C   0  0  0  0  0  0  0  0  0  0  0  0
   -2.2220   -0.0310    1.4560 O   0  0  0  0  0  0  0  0  0  0  0  0
   -3.7710   -0.1890   -0.3040 C   0  0  1  0  0  0  0  0  0  0  0  0
   -4.1920    0.2650   -1.6780 C   0  0  0  0  0  0  0  0  0  0  0  0
   -3.5850   -1.6820   -0.3420 C   0  0  0  0  0  0  0  0  0  0  0  0
   -4.8700    0.1300    0.6700 C   0  0  0  0  0  0  0  0  0  0  0  0
   -6.1800   -0.5220    0.2870 C   0  0  0  0  0  0  0  0  0  0  0  0
    0.8940    0.5580   -1.4210 C   0  0  0  0  0  0  0  0  0  0  0  0
    2.3370    0.6090   -1.1180 C   0  0  0  0  0  0  0  0  0  0  0  0
  1  2  2  0
  2  3  1  0
  3  4  2  3
  3  6  1  0
  4  5  1  0
  7  6  1  1
  7  8  1  0
  7 21  1  0
  8  9  1  0
  9 10  1  0
 10 11  1  6
 10 20  1  0
 11 12  1  0
 12 13  1  1
 12 14  1  0
 12 15  1  0
 15 16  1  6
 15 17  1  0
 15 18  1  0
 18 19  1  0
 20 21  1  0
M  END
