
     RDKit          3D

 21 22  0  0  0  0  0  0  0  0999 V2000
   -3.7620   -0.8440   -2.7610 C   0  0  0  0  0  0  0  0  0  0  0  0
   -4.0610   -0.7290   -1.5000 C   0  0  0  0  0  0  0  0  0  0  0  0
   -3.3870    0.0470   -0.4860 C   0  0  0  0  0  0  0  0  0  0  0  0
   -3.8880   -0.0130    0.7190 C   0  0  0  0  0  0  0  0  0  0  0  0
   -3.4690    0.6350    1.9780 C   0  0  0  0  0  0  0  0  0  0  0  0
   -3.4180    2.1440    1.8600 C   0  0  0  0  0  0  0  0  0  0  0  0
   -2.2400    2.5630    0.9850 C   0  0  0  0  0  0  0  0  0  0  0  0
   -2.4330    2.2290   -0.4370 C   0  0  0  0  0  0  0  0  0  0  0  0
   -2.1680    0.8620   -0.9120 C   0  0  1  0  0  0  0  0  0  0  0  0
   -0.9420    0.1370   -0.5710 C   0  0  0  0  0  0  0  0  0  0  0  0
    0.4050    0.6330   -0.9160 C   0  0  2  0  0  0  0  0  0  0  0  0
    0.7800    1.9320   -0.3030 C   0  0  0  0  0  0  0  0  0  0  0  0
    0.5830    0.6970   -2.3270 O   0  0  0  0  0  0  0  0  0  0  0  0
    1.3760   -0.4540   -0.3850 C   0  0  0  0  0  0  0  0  0  0  0  0
    2.8020   -0.1240   -0.6470 C   0  0  0  0  0  0  0  0  0  0  0  0
    3.6880   -1.2180   -0.1320 C   0  0  0  0  0  0  0  0  0  0  0  0
    4.4690   -1.8560   -0.9550 C   0  0  0  0  0  0  0  0  0  0  0  0
    5.3860   -2.9530   -0.5610 C   0  0  0  0  0  0  0  0  0  0  0  0
    3.6620   -1.5500    1.2780 C   0  0  0  0  0  0  0  0  0  0  0  0
    3.1220   -1.2850    2.5350 C   0  0  0  0  0  0  0  0  0  0  0  0
    4.1190   -2.3430    2.4490 C   0  0  0  0  0  0  0  0  0  0  0  0
  1  2  2  0
  2  3  1  0
  3  4  2  0
  3  9  1  0
  4  5  1  0
  5  6  1  0
  6  7  1  0
  7  8  1  0
  8  9  1  0
  9 10  1  1
 10 11  1  0
 11 12  1  1
 11 13  1  0
 11 14  1  0
 14 15  1  0
 15 16  1  0
 16 17  2  3
 16 19  1  0
 17 18  1  0
 19 20  2  0
 19 21  1  0
 20 21  1  0
M  END
