
     RDKit          3D

 21 21  0  0  0  0  0  0  0  0999 V2000
   -4.4960    3.0830   -0.5360 C   0  0  0  0  0  0  0  0  0  0  0  0
   -3.2280    2.7940    0.1240 C   0  0  0  0  0  0  0  0  0  0  0  0
   -2.6220    1.6990    0.4040 C   0  0  0  0  0  0  0  0  0  0  0  0
   -2.8950    0.3070    0.2070 C   0  0  0  0  0  0  0  0  0  0  0  0
   -1.9940   -0.5770    0.6700 C   0  0  0  0  0  0  0  0  0  0  0  0
   -0.7430   -0.2380    1.3710 C   0  0  0  0  0  0  0  0  0  0  0  0
    0.4000   -0.7190    0.4650 C   0  0  0  0  0  0  0  0  0  0  0  0
    1.7330   -0.3890    1.1510 C   0  0  2  0  0  0  0  0  0  0  0  0
    1.7860    1.0900    1.3340 C   0  0  0  0  0  0  0  0  0  0  0  0
    2.8910   -0.9940    0.4270 C   0  0  1  0  0  0  0  0  0  0  0  0
    2.6680   -2.5180    0.4160 C   0  0  0  0  0  0  0  0  0  0  0  0
    3.0700   -0.6060   -0.9900 C   0  0  0  0  0  0  0  0  0  0  0  0
    3.9140    0.6030   -1.2310 C   0  0  0  0  0  0  0  0  0  0  0  0
    5.0760    0.7910   -0.3280 C   0  0  0  0  0  0  0  0  0  0  0  0
    5.3400   -0.4560    0.4390 C   0  0  2  0  0  0  0  0  0  0  0  0
    5.7060   -1.5330   -0.3590 O   0  0  0  0  0  0  0  0  0  0  0  0
    4.1360   -0.7980    1.2670 C   0  0  0  0  0  0  0  0  0  0  0  0
   -4.0640   -0.2870   -0.4890 C   0  0  1  0  0  0  0  0  0  0  0  0
   -5.3910    0.1580    0.0310 C   0  0  0  0  0  0  0  0  0  0  0  0
   -3.9810   -0.0200   -1.9760 C   0  0  0  0  0  0  0  0  0  0  0  0
   -4.0800   -1.8260   -0.3490 C   0  0  0  0  0  0  0  0  0  0  0  0
  1  2  1  0
  2  3  2  3
  3  4  1  0
  4  5  2  3
  4 18  1  0
  5  6  1  0
  6  7  1  0
  7  8  1  0
  8  9  1  6
  8 10  1  0
 10 11  1  6
 10 12  1  0
 10 17  1  0
 12 13  1  0
 13 14  1  0
 14 15  1  0
 15 16  1  6
 15 17  1  0
 18 19  1  1
 18 20  1  0
 18 21  1  0
M  END
