
     RDKit          3D

 21 22  0  0  0  0  0  0  0  0999 V2000
    4.2920    2.3460    0.1560 C   0  0  0  0  0  0  0  0  0  0  0  0
    2.8960    2.0160   -0.0750 C   0  0  0  0  0  0  0  0  0  0  0  0
    2.5420    0.6580   -0.7070 C   0  0  2  0  0  0  0  0  0  0  0  0
    1.0440    0.7210   -0.8310 C   0  0  0  0  0  0  0  0  0  0  0  0
    0.3690   -0.3900   -1.4930 C   0  0  0  0  0  0  0  0  0  0  0  0
    0.8850   -1.3290   -2.1240 O   0  0  0  0  0  0  0  0  0  0  0  0
   -1.1290   -0.4460   -1.4400 C   0  0  0  0  0  0  0  0  0  0  0  0
   -1.8900   -1.3510   -2.0040 C   0  0  0  0  0  0  0  0  0  0  0  0
   -3.2930   -1.0790   -1.7490 C   0  0  0  0  0  0  0  0  0  0  0  0
   -4.4340   -1.9350   -2.2610 C   0  0  0  0  0  0  0  0  0  0  0  0
   -3.3740    0.0000   -1.0240 C   0  0  0  0  0  0  0  0  0  0  0  0
   -4.6660    0.5990   -0.5630 C   0  0  0  0  0  0  0  0  0  0  0  0
   -2.0100    0.4780   -0.7050 C   0  0  1  0  0  0  0  0  0  0  0  0
   -1.8850    0.2290    0.7910 C   0  0  0  0  0  0  0  0  0  0  0  0
   -1.1630   -0.6840    1.4010 C   0  0  0  0  0  0  0  0  0  0  0  0
   -1.3370   -0.5680    2.8810 C   0  0  0  0  0  0  0  0  0  0  0  0
   -2.2700    0.5530    3.0120 C   0  0  0  0  0  0  0  0  0  0  0  0
   -2.5810    1.0080    1.8080 C   0  0  0  0  0  0  0  0  0  0  0  0
    3.1050   -0.4280    0.1060 C   0  0  2  0  0  0  0  0  0  0  0  0
    4.6090   -0.4910    0.2250 C   0  0  0  0  0  0  0  0  0  0  0  0
    2.6330   -1.8280   -0.0560 C   0  0  0  0  0  0  0  0  0  0  0  0
  1  2  1  0
  3  2  1  1
  3  4  1  0
  3 19  1  0
  4  5  1  0
  5  6  2  0
  5  7  1  0
  7  8  2  0
  7 13  1  0
  8  9  1  0
  9 10  1  0
  9 11  2  0
 11 12  1  0
 11 13  1  0
 13 14  1  1
 14 15  2  0
 14 18  1  0
 15 16  1  0
 16 17  1  0
 17 18  2  0
 19 20  1  6
 19 21  1  0
M  END
