
     RDKit          3D

 21 22  0  0  0  0  0  0  0  0999 V2000
   -4.7920    0.8900   -1.2070 C   0  0  0  0  0  0  0  0  0  0  0  0
   -3.3350    0.7480   -1.5530 C   0  0  0  0  0  0  0  0  0  0  0  0
   -2.4450    0.4730   -0.3640 C   0  0  2  0  0  0  0  0  0  0  0  0
   -0.9890    0.3380   -0.7780 C   0  0  0  0  0  0  0  0  0  0  0  0
   -0.7080   -0.7390   -1.7410 C   0  0  0  0  0  0  0  0  0  0  0  0
    0.7210   -0.7920   -2.1000 C   0  0  0  0  0  0  0  0  0  0  0  0
    1.7480   -1.0370   -1.0750 C   0  0  2  0  0  0  0  0  0  0  0  0
    1.6510   -2.3210   -0.3210 C   0  0  0  0  0  0  0  0  0  0  0  0
    1.8400   -0.0080   -0.1440 O   0  0  0  0  0  0  0  0  0  0  0  0
    3.0910   -1.0670   -1.8000 C   0  0  0  0  0  0  0  0  0  0  0  0
    4.2610   -1.3130   -0.9220 C   0  0  0  0  0  0  0  0  0  0  0  0
    4.4740   -0.3020    0.1360 C   0  0  0  0  0  0  0  0  0  0  0  0
    4.5060   -0.4650    1.4510 C   0  0  0  0  0  0  0  0  0  0  0  0
    4.7460    0.8190    2.1220 C   0  0  0  0  0  0  0  0  0  0  0  0
    4.8550    1.7820    1.0180 C   0  0  0  0  0  0  0  0  0  0  0  0
    4.6970    1.1270   -0.1120 C   0  0  0  0  0  0  0  0  0  0  0  0
   -2.8180   -0.7630    0.3900 C   0  0  0  0  0  0  0  0  0  0  0  0
   -2.8260   -0.5220    1.8960 C   0  0  0  0  0  0  0  0  0  0  0  0
   -3.8160    0.5340    2.2670 C   0  0  0  0  0  0  0  0  0  0  0  0
   -3.5730    1.7820    1.4890 C   0  0  0  0  0  0  0  0  0  0  0  0
   -2.4640    1.7250    0.4980 C   0  0  0  0  0  0  0  0  0  0  0  0
  1  2  1  0
  3  2  1  6
  3  4  1  0
  3 17  1  0
  3 21  1  0
  4  5  1  0
  5  6  1  0
  6  7  1  0
  7  8  1  1
  7  9  1  0
  7 10  1  0
 10 11  1  0
 11 12  1  0
 12 13  2  0
 12 16  1  0
 13 14  1  0
 14 15  1  0
 15 16  2  0
 17 18  1  0
 18 19  1  0
 19 20  1  0
 20 21  1  0
M  END
