
     RDKit          3D

 27 29  0  0  0  0  0  0  0  0999 V2000
   -4.0630   -3.7020   -0.0140 C   0  0  0  0  0  0  0  0  0  0  0  0
   -4.3230   -2.2510   -0.3230 C   0  0  0  0  0  0  0  0  0  0  0  0
   -3.4810   -1.3860    0.5690 C   0  0  0  0  0  0  0  0  0  0  0  0
   -2.3350   -0.7710    0.0640 C   0  0  0  0  0  0  0  0  0  0  0  0
   -1.5380    0.0190    0.8430 C   0  0  0  0  0  0  0  0  0  0  0  0
   -0.2940    0.6940    0.3340 C   0  0  1  0  0  0  0  0  0  0  0  0
    0.7910   -0.3130    0.3670 C   0  0  0  0  0  0  0  0  0  0  0  0
   -0.6250    1.2930   -0.9020 N   0  0  0  0  0  0  0  0  0  0  0  0
    0.2600    1.2060   -1.9980 C   0  0  0  0  0  0  0  0  0  0  0  0
    1.4170    2.1340   -2.0590 C   0  0  0  0  0  0  0  0  0  0  0  0
    2.3880    2.0460   -0.9990 N   0  0  0  0  0  0  0  0  0  0  0  0
    2.3020    2.8340    0.1030 C   0  0  0  0  0  0  0  0  0  0  0  0
    1.3520    3.6620    0.1990 O   0  0  0  0  0  0  0  0  0  0  0  0
    3.1970    2.7960    1.1450 C   0  0  0  0  0  0  0  0  0  0  0  0
    3.0710    3.5580    2.1610 O   0  0  0  0  0  0  0  0  0  0  0  0
    4.2160    1.9500    1.1010 N   0  0  0  0  0  0  0  0  0  0  0  0
    4.3510    1.1320    0.0130 C   0  0  0  0  0  0  0  0  0  0  0  0
    5.4240    0.2490   -0.0120 C   0  0  0  0  0  0  0  0  0  0  0  0
    5.5840   -0.5900   -1.0890 C   0  0  0  0  0  0  0  0  0  0  0  0
    4.6700   -0.5250   -2.1120 C   0  0  0  0  0  0  0  0  0  0  0  0
    3.5940    0.3540   -2.0980 C   0  0  0  0  0  0  0  0  0  0  0  0
    3.4440    1.1850   -1.0200 C   0  0  0  0  0  0  0  0  0  0  0  0
   -1.9000    0.1960    2.1520 C   0  0  0  0  0  0  0  0  0  0  0  0
   -3.0450   -0.4110    2.6760 C   0  0  0  0  0  0  0  0  0  0  0  0
   -3.8430   -1.2070    1.8840 C   0  0  0  0  0  0  0  0  0  0  0  0
   -5.0750   -1.8560    2.4530 C   0  0  0  0  0  0  0  0  0  0  0  0
   -6.4920   -0.9260    1.8620 Cl  0  0  0  0  0  0  0  0  0  0  0  0
  1  2  1  0
  2  3  1  0
  3  4  2  0
  3 25  1  0
  4  5  1  0
  5  6  1  0
  5 23  2  0
  6  7  1  6
  6  8  1  0
  8  9  1  0
  9 10  1  0
 10 11  1  0
 11 12  1  0
 11 22  1  0
 12 13  2  0
 12 14  1  0
 14 15  2  0
 14 16  1  0
 16 17  1  0
 17 18  2  0
 17 22  1  0
 18 19  1  0
 19 20  2  0
 20 21  1  0
 21 22  2  0
 23 24  1  0
 24 25  2  0
 25 26  1  0
 26 27  1  0
M  CHG  1   8   1
M  END
