
     RDKit          3D

 27 29  0  0  0  0  0  0  0  0999 V2000
   -2.8540   -2.4660   -0.1120 C   0  0  0  0  0  0  0  0  0  0  0  0
   -2.0860   -1.1980   -0.0200 C   0  0  1  0  0  0  0  0  0  0  0  0
   -1.5670   -0.8520   -1.4300 C   0  0  0  0  0  0  0  0  0  0  0  0
   -2.8210   -0.0120    0.5550 C   0  0  1  0  0  0  0  0  0  0  0  0
   -1.7280    1.0800    0.5460 C   0  0  0  0  0  0  0  0  0  0  0  0
   -1.7670    1.9500   -0.3410 O   0  0  0  0  0  0  0  0  0  0  0  0
   -0.7060    1.1050    1.5120 N   0  0  0  0  0  0  0  0  0  0  0  0
    0.3110    2.1150    1.5050 C   0  0  0  0  0  0  0  0  0  0  0  0
    1.4220    1.8860    0.5470 C   0  0  0  0  0  0  0  0  0  0  0  0
    1.4160    2.3410   -0.7500 C   0  0  0  0  0  0  0  0  0  0  0  0
    2.4760    2.1090   -1.6150 C   0  0  0  0  0  0  0  0  0  0  0  0
    3.5950    1.4060   -1.2080 C   0  0  0  0  0  0  0  0  0  0  0  0
    4.9530    1.1480   -2.2890 Cl  0  0  0  0  0  0  0  0  0  0  0  0
    3.6310    0.9400    0.0820 C   0  0  0  0  0  0  0  0  0  0  0  0
    4.7730    0.1740    0.5560 C   0  0  0  0  0  0  0  0  0  0  0  0
    5.2740   -0.8760   -0.0320 C   0  0  0  0  0  0  0  0  0  0  0  0
    4.8770   -1.5610   -1.2530 C   0  0  0  0  0  0  0  0  0  0  0  0
    5.9450   -2.1830   -1.7190 C   0  0  0  0  0  0  0  0  0  0  0  0
    7.0560   -1.9610   -0.8830 N   0  0  0  0  0  0  0  0  0  0  0  0
    6.4700   -1.6930    0.4130 C   0  0  0  0  0  0  0  0  0  0  0  0
    2.5460    1.1880    0.9320 C   0  0  0  0  0  0  0  0  0  0  0  0
   -3.9110    0.4640   -0.2190 N   0  0  0  0  0  0  0  0  0  0  0  0
   -5.0230   -0.3740   -0.4700 C   0  0  0  0  0  0  0  0  0  0  0  0
   -5.9000   -0.5920    0.7530 C   0  0  0  0  0  0  0  0  0  0  0  0
   -6.3840    0.6640    1.2010 O   0  0  0  0  0  0  0  0  0  0  0  0
   -5.2360    1.3930    1.5570 C   0  0  0  0  0  0  0  0  0  0  0  0
   -4.4700    1.7080    0.3180 C   0  0  0  0  0  0  0  0  0  0  0  0
  2  1  1  6
  2  3  1  0
  2  4  1  0
  4  5  1  0
  4 22  1  6
  5  6  2  0
  5  7  1  0
  7  8  1  0
  8  9  1  0
  9 10  2  0
  9 21  1  0
 10 11  1  0
 11 12  2  0
 12 13  1  0
 12 14  1  0
 14 15  1  0
 14 21  2  0
 15 16  2  3
 16 17  1  0
 16 20  1  0
 17 18  2  0
 18 19  1  0
 19 20  1  0
 22 23  1  0
 22 27  1  0
 23 24  1  0
 24 25  1  0
 25 26  1  0
 26 27  1  0
M  CHG  1  19   1
M  END
