
     RDKit          3D

 27 29  0  0  0  0  0  0  0  0999 V2000
   -5.7950   -1.9690   -3.2440 C   0  0  0  0  0  0  0  0  0  0  0  0
   -4.7240   -1.6700   -2.3840 O   0  0  0  0  0  0  0  0  0  0  0  0
   -4.8610   -0.8530   -1.2730 C   0  0  0  0  0  0  0  0  0  0  0  0
   -6.0590   -0.2750   -0.9330 C   0  0  0  0  0  0  0  0  0  0  0  0
   -6.1380    0.5330    0.1880 C   0  0  0  0  0  0  0  0  0  0  0  0
   -5.0440    0.7710    0.9710 C   0  0  0  0  0  0  0  0  0  0  0  0
   -5.1260    1.6230    2.1540 C   0  0  0  0  0  0  0  0  0  0  0  0
   -3.8050    0.1950    0.6510 C   0  0  0  0  0  0  0  0  0  0  0  0
   -2.6880    0.4490    1.4660 N   0  0  0  0  0  0  0  0  0  0  0  0
   -1.3780   -0.0080    1.3440 C   0  0  0  0  0  0  0  0  0  0  0  0
   -1.0690   -0.7570    0.3990 O   0  0  0  0  0  0  0  0  0  0  0  0
   -0.2860    0.3490    2.2960 C   0  0  0  0  0  0  0  0  0  0  0  0
    0.9690   -0.2720    1.9180 N   0  0  2  0  0  0  0  0  0  0  0  0
    1.9450   -0.1560    2.9440 C   0  0  0  0  0  0  0  0  0  0  0  0
    2.8550    1.0160    2.8620 C   0  0  0  0  0  0  0  0  0  0  0  0
    2.7290    1.7780    1.6340 N   0  0  0  0  0  0  0  0  0  0  0  0
    2.7710    0.7430    0.5810 C   0  0  2  0  0  0  0  0  0  0  0  0
    3.0140    1.4540   -0.6960 C   0  0  0  0  0  0  0  0  0  0  0  0
    3.1120    0.6400   -1.9240 C   0  0  0  0  0  0  0  0  0  0  0  0
    4.2680   -0.2790   -1.9690 C   0  0  0  0  0  0  0  0  0  0  0  0
    5.2400   -0.4300   -1.1040 C   0  0  0  0  0  0  0  0  0  0  0  0
    6.1790   -1.4890   -1.5870 C   0  0  0  0  0  0  0  0  0  0  0  0
    5.6070   -1.9250   -2.8580 C   0  0  0  0  0  0  0  0  0  0  0  0
    4.5160   -1.2280   -3.0660 C   0  0  0  0  0  0  0  0  0  0  0  0
    3.4970   -1.4220   -4.4840 Cl  0  0  0  0  0  0  0  0  0  0  0  0
    1.3790    0.1330    0.6100 C   0  0  0  0  0  0  0  0  0  0  0  0
   -3.7560   -0.5990   -0.4630 C   0  0  0  0  0  0  0  0  0  0  0  0
  1  2  1  0
  2  3  1  0
  3  4  2  0
  3 27  1  0
  4  5  1  0
  5  6  2  0
  6  7  1  0
  6  8  1  0
  8  9  1  0
  8 27  2  0
  9 10  1  0
 10 11  2  0
 10 12  1  0
 13 12  1  1
 13 14  1  0
 13 26  1  0
 14 15  1  0
 15 16  1  0
 16 17  1  0
 17 18  1  6
 17 26  1  0
 18 19  1  0
 19 20  1  0
 20 21  2  0
 20 24  1  0
 21 22  1  0
 22 23  1  0
 23 24  2  0
 24 25  1  0
M  CHG  1  13   1
M  END
