
     RDKit          3D

 27 29  0  0  0  0  0  0  0  0999 V2000
   -2.1850   -1.1660    1.4520 C   0  0  0  0  0  0  0  0  0  0  0  0
   -1.9680   -2.4750    0.9250 N   0  0  0  0  0  0  0  0  0  0  0  0
   -2.9920   -2.8890   -0.0140 C   0  0  1  0  0  0  0  0  0  0  0  0
   -4.1380   -3.4750    0.7640 C   0  0  0  0  0  0  0  0  0  0  0  0
   -3.4850   -1.7410   -0.8180 C   0  0  0  0  0  0  0  0  0  0  0  0
   -4.8190   -1.5110   -1.0570 C   0  0  0  0  0  0  0  0  0  0  0  0
   -5.2310   -0.4330   -1.8100 C   0  0  0  0  0  0  0  0  0  0  0  0
   -4.3630    0.4700   -2.3630 C   0  0  0  0  0  0  0  0  0  0  0  0
   -4.9300    1.8320   -3.3170 Cl  0  0  0  0  0  0  0  0  0  0  0  0
   -2.9960    0.2570   -2.1340 C   0  0  0  0  0  0  0  0  0  0  0  0
   -2.0990    1.1860   -2.7030 N   0  0  0  0  0  0  0  0  0  0  0  0
   -0.7070    1.1820   -2.6120 C   0  0  0  0  0  0  0  0  0  0  0  0
   -0.1020    0.3160   -1.9890 O   0  0  0  0  0  0  0  0  0  0  0  0
    0.1040    2.2020   -3.2490 N   0  0  0  0  0  0  0  0  0  0  0  0
    1.5260    2.1360   -3.1140 C   0  0  0  0  0  0  0  0  0  0  0  0
    1.9870    2.2040   -1.7020 C   0  0  0  0  0  0  0  0  0  0  0  0
    2.6730    1.2520   -1.1450 C   0  0  0  0  0  0  0  0  0  0  0  0
    3.1120    1.3290    0.2180 C   0  0  0  0  0  0  0  0  0  0  0  0
    2.8800    2.3680    1.0830 C   0  0  0  0  0  0  0  0  0  0  0  0
    3.3490    2.3590    2.4050 C   0  0  0  0  0  0  0  0  0  0  0  0
    4.0670    1.2810    2.8710 C   0  0  0  0  0  0  0  0  0  0  0  0
    4.3170    0.2220    2.0280 C   0  0  0  0  0  0  0  0  0  0  0  0
    3.8470    0.2590    0.7410 C   0  0  0  0  0  0  0  0  0  0  0  0
    5.1090   -0.7860    2.8050 C   0  0  0  0  0  0  0  0  0  0  0  0
    5.7040    0.1000    3.8800 C   0  0  0  0  0  0  0  0  0  0  0  0
    4.6510    0.9990    4.1220 O   0  0  0  0  0  0  0  0  0  0  0  0
   -2.5920   -0.8160   -1.3850 C   0  0  0  0  0  0  0  0  0  0  0  0
  1  2  1  0
  2  3  1  0
  3  4  1  1
  3  5  1  0
  5  6  2  0
  5 27  1  0
  6  7  1  0
  7  8  2  0
  8  9  1  0
  8 10  1  0
 10 11  1  0
 10 27  2  0
 11 12  1  0
 12 13  2  0
 12 14  1  0
 14 15  1  0
 15 16  1  0
 16 17  2  3
 17 18  1  0
 18 19  2  0
 18 23  1  0
 19 20  1  0
 20 21  2  0
 21 22  1  0
 21 26  1  0
 22 23  2  0
 22 24  1  0
 24 25  1  0
 25 26  1  0
M  CHG  1   2   1
M  END
