
     RDKit          3D

 27 29  0  0  0  0  0  0  0  0999 V2000
    4.4680   -1.0390    2.8820 C   0  0  0  0  0  0  0  0  0  0  0  0
    3.6620   -0.4960    1.8830 O   0  0  0  0  0  0  0  0  0  0  0  0
    4.1000   -0.0350    0.6690 C   0  0  0  0  0  0  0  0  0  0  0  0
    5.4420   -0.0950    0.3710 C   0  0  0  0  0  0  0  0  0  0  0  0
    5.9270    0.3560   -0.8380 C   0  0  0  0  0  0  0  0  0  0  0  0
    5.0180    0.8700   -1.7340 C   0  0  0  0  0  0  0  0  0  0  0  0
    3.6500    0.9300   -1.4280 C   0  0  0  0  0  0  0  0  0  0  0  0
    3.1580    0.4840   -0.2300 C   0  0  0  0  0  0  0  0  0  0  0  0
    1.8260    0.5310    0.0970 O   0  0  0  0  0  0  0  0  0  0  0  0
    0.7550    1.0040   -0.6530 C   0  0  2  0  0  0  0  0  0  0  0  0
    0.0950    2.1060    0.1210 C   0  0  0  0  0  0  0  0  0  0  0  0
   -1.3180    2.3500   -0.1870 C   0  0  0  0  0  0  0  0  0  0  0  0
   -1.9680    1.4950   -1.1710 C   0  0  0  0  0  0  0  0  0  0  0  0
   -3.2500    1.6810   -1.4400 C   0  0  0  0  0  0  0  0  0  0  0  0
   -4.0690    0.6680   -2.6230 Cl  0  0  0  0  0  0  0  0  0  0  0  0
   -4.0720    2.7500   -0.7650 C   0  0  0  0  0  0  0  0  0  0  0  0
   -4.5820    3.6460   -1.7530 N   0  0  0  0  0  0  0  0  0  0  0  0
   -1.2510    0.4160   -1.8920 C   0  0  0  0  0  0  0  0  0  0  0  0
   -0.1960   -0.1410   -0.9550 C   0  0  2  0  0  0  0  0  0  0  0  0
   -0.7540   -0.7030    0.2440 N   0  0  0  0  0  0  0  0  0  0  0  0
   -1.4710   -1.9200    0.3010 C   0  0  0  0  0  0  0  0  0  0  0  0
   -1.6870   -2.7410   -0.7380 N   0  0  0  0  0  0  0  0  0  0  0  0
   -2.3740   -3.9050   -0.5810 C   0  0  0  0  0  0  0  0  0  0  0  0
   -2.8850   -4.3140    0.6280 C   0  0  0  0  0  0  0  0  0  0  0  0
   -2.6720   -3.4830    1.7050 C   0  0  0  0  0  0  0  0  0  0  0  0
   -1.9760   -2.3020    1.5500 C   0  0  0  0  0  0  0  0  0  0  0  0
   -1.7630   -1.4350    2.7100 C   0  0  0  0  0  0  0  0  0  0  0  0
  1  2  1  0
  2  3  1  0
  3  4  2  0
  3  8  1  0
  4  5  1  0
  5  6  2  0
  6  7  1  0
  7  8  2  0
  8  9  1  0
 10  9  1  1
 10 11  1  0
 10 19  1  0
 11 12  1  0
 12 13  1  0
 13 14  2  3
 13 18  1  0
 14 15  1  0
 14 16  1  0
 16 17  1  0
 18 19  1  0
 19 20  1  1
 20 21  1  0
 21 22  2  0
 21 26  1  0
 22 23  1  0
 23 24  2  0
 24 25  1  0
 25 26  2  0
 26 27  1  0
M  CHG  1  22   1
M  END
