
     RDKit          3D

 13 13  0  0  0  0  0  0  0  0999 V2000
   -3.3610    1.7350   -0.2010 O   0  0  0  0  0  0  0  0  0  0  0  0
   -2.5340    0.6860   -0.6650 C   0  0  0  0  0  0  0  0  0  0  0  0
   -1.2690    0.7590    0.1330 C   0  0  2  0  0  0  0  0  0  0  0  0
   -0.6960    2.0080   -0.0950 O   0  0  0  0  0  0  0  0  0  0  0  0
   -0.3160   -0.3640   -0.1090 C   0  0  1  0  0  0  0  0  0  0  0  0
   -0.9360   -1.7010    0.2250 C   0  0  0  0  0  0  0  0  0  0  0  0
   -1.3820   -1.7460    1.5470 O   0  0  0  0  0  0  0  0  0  0  0  0
    0.3250   -0.3910   -1.4420 C   0  0  0  0  0  0  0  0  0  0  0  0
    1.5520    0.2610   -1.1980 O   0  0  0  0  0  0  0  0  0  0  0  0
    1.9080   -0.3350    0.0210 C   0  0  1  0  0  0  0  0  0  0  0  0
    3.0730    0.4280    0.6040 C   0  0  0  0  0  0  0  0  0  0  0  0
    3.4800   -0.1010    1.8080 O   0  0  0  0  0  0  0  0  0  0  0  0
    0.7640   -0.1940    0.7650 O   0  0  0  0  0  0  0  0  0  0  0  0
  1  2  1  0
  2  3  1  0
  3  4  1  6
  3  5  1  0
  5  6  1  1
  5  8  1  0
  5 13  1  0
  6  7  1  0
  8  9  1  0
  9 10  1  0
 10 11  1  1
 10 13  1  0
 11 12  1  0
M  END
