
     RDKit          3D

  9  9  0  0  0  0  0  0  0  0999 V2000
    2.5940   -1.3480   -0.1870 O   0  0  0  0  0  0  0  0  0  0  0  0
    2.0570   -0.2110   -0.1910 C   0  0  0  0  0  0  0  0  0  0  0  0
    2.8540    0.9120   -0.2800 O   0  0  0  0  0  0  0  0  0  0  0  0
    0.5950   -0.1260   -0.1000 C   0  0  0  0  0  0  0  0  0  0  0  0
   -0.0360    1.1010   -0.1000 C   0  0  0  0  0  0  0  0  0  0  0  0
   -1.4240    1.2040   -0.0140 C   0  0  0  0  0  0  0  0  0  0  0  0
   -2.1840    0.0560    0.0730 C   0  0  0  0  0  0  0  0  0  0  0  0
   -1.5730   -1.1790    0.0750 C   0  0  0  0  0  0  0  0  0  0  0  0
   -0.1950   -1.2510   -0.0110 C   0  0  0  0  0  0  0  0  0  0  0  0
  1  2  2  0
  2  3  1  0
  2  4  1  0
  4  5  2  0
  4  9  1  0
  5  6  1  0
  6  7  2  0
  7  8  1  0
  8  9  2  0
M  END
