
     RDKit          3D

 13 13  0  0  0  0  0  0  0  0999 V2000
    3.0310   -0.5650   -1.3770 O   0  0  0  0  0  0  0  0  0  0  0  0
    3.0160    0.1420   -0.1930 C   0  0  2  0  0  0  0  0  0  0  0  0
    3.6810   -0.6130    0.7690 O   0  0  0  0  0  0  0  0  0  0  0  0
    1.5510    0.3430    0.2200 C   0  0  2  0  0  0  0  0  0  0  0  0
    1.5150    1.0600    1.4220 O   0  0  0  0  0  0  0  0  0  0  0  0
    0.9610   -1.0200    0.3500 C   0  0  0  0  0  0  0  0  0  0  0  0
   -0.3620   -1.0620    0.7350 O   0  0  0  0  0  0  0  0  0  0  0  0
   -1.1340   -0.4180   -0.1900 C   0  0  1  0  0  0  0  0  0  0  0  0
   -2.2590   -1.3260   -0.7180 C   0  0  0  0  0  0  0  0  0  0  0  0
   -3.2370   -0.4950   -1.2000 O   0  0  0  0  0  0  0  0  0  0  0  0
   -3.0670    0.7600   -0.6840 C   0  0  0  0  0  0  0  0  0  0  0  0
   -1.9910    0.6930    0.3830 C   0  0  2  0  0  0  0  0  0  0  0  0
   -1.3260    1.8880    0.5280 O   0  0  0  0  0  0  0  0  0  0  0  0
  2  1  1  6
  2  3  1  0
  2  4  1  0
  4  5  1  1
  4  6  1  0
  6  7  1  0
  8  7  1  1
  8  9  1  0
  8 12  1  0
  9 10  1  0
 10 11  1  0
 11 12  1  0
 12 13  1  6
M  END
