
     RDKit          3D

 15 15  0  0  0  0  0  0  0  0999 V2000
    4.3550    0.0460    1.0950 C   0  0  0  0  0  0  0  0  0  0  0  0
    3.2110    0.7520    0.6600 O   0  0  0  0  0  0  0  0  0  0  0  0
    2.0830    0.0470    0.1980 C   0  0  0  0  0  0  0  0  0  0  0  0
    2.1630   -1.1910    0.2010 O   0  0  0  0  0  0  0  0  0  0  0  0
    0.9180    0.7020   -0.2470 N   0  0  0  0  0  0  0  0  0  0  0  0
   -0.2800    0.1220   -0.7250 C   0  0  1  0  0  0  0  0  0  0  0  0
   -1.2510    1.1960   -1.1940 C   0  0  0  0  0  0  0  0  0  0  0  0
   -1.6040    2.1330   -0.1780 N   0  0  0  0  0  0  0  0  0  0  0  0
   -0.0250   -0.6910   -1.9920 C   0  0  0  0  0  0  0  0  0  0  0  0
    0.9850   -0.6080   -2.6930 O   0  0  0  0  0  0  0  0  0  0  0  0
   -1.1370   -1.4850   -2.1420 O   0  0  0  0  0  0  0  0  0  0  0  0
   -1.9180   -1.5190   -0.9460 C   0  0  0  0  0  0  0  0  0  0  0  0
   -0.9870   -0.8810    0.0860 C   0  0  2  0  0  0  0  0  0  0  0  0
   -1.7590   -0.4180    1.2710 C   0  0  0  0  0  0  0  0  0  0  0  0
   -0.1920   -1.9510    0.5390 O   0  0  0  0  0  0  0  0  0  0  0  0
  1  2  1  0
  2  3  1  0
  3  4  2  0
  3  5  1  0
  5  6  1  0
  6  7  1  6
  6  9  1  0
  6 13  1  0
  7  8  1  0
  9 10  2  0
  9 11  1  0
 11 12  1  0
 12 13  1  0
 13 14  1  1
 13 15  1  0
M  CHG  1   8   1
M  END
