
     RDKit          3D

 27 27  0  0  0  0  0  0  0  0999 V2000
    3.8310    3.7160   -1.0630 C   0  0  0  0  0  0  0  0  0  0  0  0
    3.3840    2.3670   -0.9200 O   0  0  0  0  0  0  0  0  0  0  0  0
    3.1340    1.9190    0.3750 C   0  0  0  0  0  0  0  0  0  0  0  0
    3.3060    2.6930    1.3400 O   0  0  0  0  0  0  0  0  0  0  0  0
    2.6680    0.5050    0.5110 C   0  0  0  0  0  0  0  0  0  0  0  0
    2.5280   -0.2610   -0.5960 C   0  0  0  0  0  0  0  0  0  0  0  0
    2.1170   -1.6150   -0.8320 C   0  0  0  0  0  0  0  0  0  0  0  0
    3.2630   -2.5520   -0.7190 O   0  0  0  0  0  0  0  0  0  0  0  0
    4.0110   -2.5420   -1.8380 O   0  0  0  0  0  0  0  0  0  0  0  0
    0.9960   -2.2350   -1.1360 C   0  0  0  0  0  0  0  0  0  0  0  0
   -0.3640   -1.9520   -1.3960 C   0  0  0  0  0  0  0  0  0  0  0  0
   -1.5190   -1.7050   -0.8450 C   0  0  0  0  0  0  0  0  0  0  0  0
   -2.0560   -1.5750    0.5050 C   0  0  0  0  0  0  0  0  0  0  0  0
   -2.8120   -2.5720    1.0360 C   0  0  0  0  0  0  0  0  0  0  0  0
   -3.1670   -3.8340    0.3630 C   0  0  0  0  0  0  0  0  0  0  0  0
   -2.6430   -4.8740    1.1600 O   0  0  0  0  0  0  0  0  0  0  0  0
   -1.9590   -0.4700    1.3970 N   0  0  0  0  0  0  0  0  0  0  0  0
   -0.8560    0.4490    1.6020 C   0  0  0  0  0  0  0  0  0  0  0  0
   -1.1680    1.8870    1.2300 C   0  0  2  0  0  0  0  0  0  0  0  0
   -2.4820    2.1510    1.8660 N   0  0  0  0  0  0  0  0  0  0  0  0
   -1.3180    2.1380   -0.1960 C   0  0  0  0  0  0  0  0  0  0  0  0
   -0.3350    1.9890   -0.9990 O   0  0  0  0  0  0  0  0  0  0  0  0
   -2.5110    2.5400   -0.7190 O   0  0  0  0  0  0  0  0  0  0  0  0
   -2.6290    2.7790   -2.1220 C   0  0  0  0  0  0  0  0  0  0  0  0
    0.1420   -0.0710    2.0820 N   0  0  0  0  0  0  0  0  0  0  0  0
    1.3760   -0.2170    2.5690 C   0  0  0  0  0  0  0  0  0  0  0  0
    2.4660    0.0410    1.8780 C   0  0  0  0  0  0  0  0  0  0  0  0
  1  2  1  0
  2  3  1  0
  3  4  2  0
  3  5  1  0
  5  6  2  0
  5 27  1  0
  6  7  1  0
  7  8  1  0
  7 10  2  0
  8  9  1  0
 10 11  1  0
 11 12  2  0
 12 13  1  0
 13 14  2  3
 13 17  1  0
 14 15  1  0
 15 16  1  0
 17 18  1  0
 18 19  1  0
 18 25  2  0
 19 20  1  1
 19 21  1  0
 21 22  2  0
 21 23  1  0
 23 24  1  0
 25 26  1  0
 26 27  2  0
M  END
