
     RDKit          3D

 27 28  0  0  0  0  0  0  0  0999 V2000
    5.8020   -1.7290   -0.7230 O   0  0  0  0  0  0  0  0  0  0  0  0
    5.4650   -2.8820   -1.0140 C   0  0  0  0  0  0  0  0  0  0  0  0
    4.5950   -3.5700   -0.2320 O   0  0  0  0  0  0  0  0  0  0  0  0
    3.9210   -3.2340    0.9170 C   0  0  0  0  0  0  0  0  0  0  0  0
    2.8090   -2.2530    0.8620 C   0  0  0  0  0  0  0  0  0  0  0  0
    3.1010   -0.8880    0.3410 C   0  0  0  0  0  0  0  0  0  0  0  0
    1.9560   -0.0180    0.4020 N   0  0  0  0  0  0  0  0  0  0  0  0
    1.7680    0.7630    1.6160 C   0  0  0  0  0  0  0  0  0  0  0  0
    2.5490    0.5930    2.5670 O   0  0  0  0  0  0  0  0  0  0  0  0
    0.6760    1.7300    1.7140 N   0  0  0  0  0  0  0  0  0  0  0  0
    0.3800    2.7680    0.7690 C   0  0  0  0  0  0  0  0  0  0  0  0
   -1.1020    2.9870    0.5180 C   0  0  0  0  0  0  0  0  0  0  0  0
   -1.4650    2.8180   -0.8250 O   0  0  0  0  0  0  0  0  0  0  0  0
   -2.7830    2.4740   -1.0800 C   0  0  0  0  0  0  0  0  0  0  0  0
   -2.8330    1.7910   -2.4860 C   0  0  0  0  0  0  0  0  0  0  0  0
   -1.4100    1.5700   -2.7570 C   0  0  0  0  0  0  0  0  0  0  0  0
   -0.4780    0.9830   -2.0040 C   0  0  0  0  0  0  0  0  0  0  0  0
    0.7450    1.0420   -2.6320 O   0  0  0  0  0  0  0  0  0  0  0  0
    1.5910    0.5630   -1.8770 N   0  0  0  0  0  0  0  0  0  0  0  0
    1.0210    0.1520   -0.7140 C   0  0  0  0  0  0  0  0  0  0  0  0
   -0.3800    0.3830   -0.7780 C   0  0  0  0  0  0  0  0  0  0  0  0
   -1.2720   -0.2980    0.0160 C   0  0  0  0  0  0  0  0  0  0  0  0
   -2.5690   -0.7990    0.1750 C   0  0  0  0  0  0  0  0  0  0  0  0
   -2.8020   -1.4520    1.3950 C   0  0  0  0  0  0  0  0  0  0  0  0
   -1.7780   -1.5360    2.2810 O   0  0  0  0  0  0  0  0  0  0  0  0
   -3.7440   -0.9250   -0.6970 C   0  0  0  0  0  0  0  0  0  0  0  0
   -4.7380   -1.7050   -0.0220 O   0  0  0  0  0  0  0  0  0  0  0  0
  1  2  2  0
  2  3  1  0
  3  4  1  0
  4  5  1  0
  5  6  1  0
  6  7  1  0
  7  8  1  0
  7 20  1  0
  8  9  2  0
  8 10  1  0
 10 11  1  0
 11 12  1  0
 12 13  1  0
 13 14  1  0
 14 15  1  0
 15 16  1  0
 16 17  2  0
 17 18  1  0
 17 21  1  0
 18 19  1  0
 19 20  2  0
 20 21  1  0
 21 22  2  3
 22 23  1  0
 23 24  2  3
 23 26  1  0
 24 25  1  0
 26 27  1  0
M  END
