
     RDKit          3D

 27 28  0  0  0  0  0  0  0  0999 V2000
    3.2600    0.7060    2.7660 C   0  0  0  0  0  0  0  0  0  0  0  0
    4.1220    0.4350    1.5480 C   0  0  1  0  0  0  0  0  0  0  0  0
    4.6800   -0.9700    1.6190 C   0  0  0  0  0  0  0  0  0  0  0  0
    5.4960   -1.3070    0.5220 O   0  0  0  0  0  0  0  0  0  0  0  0
    6.6410   -0.5670    0.2820 C   0  0  0  0  0  0  0  0  0  0  0  0
    7.0270    0.4010    0.9730 O   0  0  0  0  0  0  0  0  0  0  0  0
    7.4770   -0.8810   -0.8100 O   0  0  0  0  0  0  0  0  0  0  0  0
    3.2390    0.5880    0.3560 C   0  0  0  0  0  0  0  0  0  0  0  0
    3.1090   -0.4220   -0.4050 O   0  0  0  0  0  0  0  0  0  0  0  0
    2.5800    1.7700    0.0740 O   0  0  0  0  0  0  0  0  0  0  0  0
    1.7440    1.9260   -1.0470 C   0  0  0  0  0  0  0  0  0  0  0  0
    0.5650    1.0020   -1.0760 C   0  0  0  0  0  0  0  0  0  0  0  0
   -0.2850    1.1590    0.0330 O   0  0  0  0  0  0  0  0  0  0  0  0
   -1.4070    0.3450    0.0910 C   0  0  0  0  0  0  0  0  0  0  0  0
   -1.3090   -0.8170   -0.4530 N   0  0  0  0  0  0  0  0  0  0  0  0
   -2.3580   -1.7820   -0.4880 C   0  0  0  0  0  0  0  0  0  0  0  0
   -2.2110   -3.1600   -0.3660 C   0  0  0  0  0  0  0  0  0  0  0  0
   -3.4270   -3.6800   -0.4530 N   0  0  0  0  0  0  0  0  0  0  0  0
   -4.3060   -2.6840   -0.6230 C   0  0  0  0  0  0  0  0  0  0  0  0
   -5.5530   -2.8190   -0.7440 O   0  0  0  0  0  0  0  0  0  0  0  0
   -3.6600   -1.5080   -0.6470 N   0  0  0  0  0  0  0  0  0  0  0  0
   -4.2470   -0.1980   -0.8100 C   0  0  0  0  0  0  0  0  0  0  0  0
   -5.1710    0.2730    0.1000 C   0  0  0  0  0  0  0  0  0  0  0  0
   -5.7550    1.5180   -0.0200 C   0  0  0  0  0  0  0  0  0  0  0  0
   -5.4320    2.3490   -1.0710 C   0  0  0  0  0  0  0  0  0  0  0  0
   -4.5100    1.8900   -1.9870 C   0  0  0  0  0  0  0  0  0  0  0  0
   -3.9270    0.6360   -1.8580 C   0  0  0  0  0  0  0  0  0  0  0  0
  2  1  1  1
  2  3  1  0
  2  8  1  0
  3  4  1  0
  4  5  1  0
  5  6  2  0
  5  7  1  0
  8  9  2  0
  8 10  1  0
 10 11  1  0
 11 12  1  0
 12 13  1  0
 13 14  1  0
 14 15  2  3
 15 16  1  0
 16 17  2  0
 16 21  1  0
 17 18  1  0
 18 19  1  0
 19 20  2  0
 19 21  1  0
 21 22  1  0
 22 23  2  0
 22 27  1  0
 23 24  1  0
 24 25  2  0
 25 26  1  0
 26 27  2  0
M  END
