
     RDKit          3D

  9  8  0  0  0  0  0  0  0  0999 V2000
   -2.9440   -1.2610   -0.6290 O   0  0  0  0  0  0  0  0  0  0  0  0
   -3.0330   -1.1780    0.6750 O   0  0  0  0  0  0  0  0  0  0  0  0
   -1.6740   -0.3320    1.2980 P   0  0  0  0  0  0  0  0  0  0  0  0
   -1.8510    1.3640    0.8860 O   0  0  0  0  0  0  0  0  0  0  0  0
   -0.1340   -0.8500    0.5050 N   0  0  0  0  0  0  0  0  0  0  0  0
    0.8130    0.0410    0.9160 O   0  0  0  0  0  0  0  0  0  0  0  0
    1.9800    0.3650   -0.3110 P   0  0  0  0  0  0  0  0  0  0  0  0
    3.0290   -1.0220   -0.4160 O   0  0  0  0  0  0  0  0  0  0  0  0
    2.8740    1.7790    0.1060 O   0  0  0  0  0  0  0  0  0  0  0  0
  1  2  1  0
  2  3  1  0
  3  4  1  0
  3  5  1  0
  5  6  1  0
  6  7  1  0
  7  8  1  0
  7  9  1  0
M  END
