
     RDKit          3D

  9  8  0  0  0  0  0  0  0  0999 V2000
   -2.4500    2.1960    0.0070 O   0  0  0  0  0  0  0  0  0  0  0  0
   -2.9430    0.9850   -0.2120 O   0  0  0  0  0  0  0  0  0  0  0  0
   -1.8640   -0.2430    0.4240 P   0  0  0  0  0  0  0  0  0  0  0  0
   -2.1910   -1.6950   -0.4590 O   0  0  0  0  0  0  0  0  0  0  0  0
   -0.2710    0.3230    0.2490 O   0  0  0  0  0  0  0  0  0  0  0  0
    0.6760   -0.4390    0.7950 N   0  0  0  0  0  0  0  0  0  0  0  0
    2.1510   -0.1430   -0.2220 P   0  0  0  0  0  0  0  0  0  0  0  0
    2.6770    1.4650    0.1230 O   0  0  0  0  0  0  0  0  0  0  0  0
    3.3580   -1.3260    0.0470 O   0  0  0  0  0  0  0  0  0  0  0  0
  1  2  1  0
  2  3  1  0
  3  4  1  0
  3  5  1  0
  5  6  1  0
  6  7  1  0
  7  8  1  0
  7  9  1  0
M  END
