
     RDKit          3D

  9  8  0  0  0  0  0  0  0  0999 V2000
   -3.0470   -0.7850   -0.8530 O   0  0  0  0  0  0  0  0  0  0  0  0
   -2.7110    0.8130   -0.2690 P   0  0  0  0  0  0  0  0  0  0  0  0
   -1.4920    0.8620    0.9920 N   0  0  0  0  0  0  0  0  0  0  0  0
   -0.3870    0.1790    0.7620 O   0  0  0  0  0  0  0  0  0  0  0  0
   -0.2410   -0.2710   -0.4480 O   0  0  0  0  0  0  0  0  0  0  0  0
    0.9270   -0.8590   -0.5380 O   0  0  0  0  0  0  0  0  0  0  0  0
    2.2510    0.2270   -0.3970 P   0  0  0  0  0  0  0  0  0  0  0  0
    3.4110   -0.2890    0.7880 O   0  0  0  0  0  0  0  0  0  0  0  0
    3.0820    0.3550   -1.9250 O   0  0  0  0  0  0  0  0  0  0  0  0
  1  2  1  0
  2  3  1  0
  3  4  1  0
  4  5  1  0
  5  6  1  0
  6  7  1  0
  7  8  1  0
  7  9  1  0
M  END
