
     RDKit          3D

  9  8  0  0  0  0  0  0  0  0999 V2000
   -2.6270    1.5100    0.1260 N   0  0  0  0  0  0  0  0  0  0  0  0
   -1.9190    1.7140   -1.0070 O   0  0  0  0  0  0  0  0  0  0  0  0
   -1.1720    0.6450   -1.2600 O   0  0  0  0  0  0  0  0  0  0  0  0
   -0.9520   -0.1700    0.2460 P   0  0  0  0  0  0  0  0  0  0  0  0
   -1.6980   -1.7040    0.3090 O   0  0  0  0  0  0  0  0  0  0  0  0
    0.6750   -0.1500    0.7540 O   0  0  0  0  0  0  0  0  0  0  0  0
    1.4890    0.0820   -0.2700 O   0  0  0  0  0  0  0  0  0  0  0  0
    2.8080   -1.0520   -0.2720 P   0  0  0  0  0  0  0  0  0  0  0  0
    4.1020   -0.5050    0.7210 O   0  0  0  0  0  0  0  0  0  0  0  0
  1  2  1  0
  2  3  1  0
  3  4  1  0
  4  5  1  0
  4  6  1  0
  6  7  1  0
  7  8  1  0
  8  9  1  0
M  END
