
     RDKit          3D

  9  8  0  0  0  0  0  0  0  0999 V2000
   -3.7010    0.9160    0.3840 O   0  0  0  0  0  0  0  0  0  0  0  0
   -3.2650   -0.1750   -0.2060 O   0  0  0  0  0  0  0  0  0  0  0  0
   -2.2290   -0.6570    0.4210 O   0  0  0  0  0  0  0  0  0  0  0  0
   -0.8640   -0.8900   -0.6440 P   0  0  0  0  0  0  0  0  0  0  0  0
   -0.7110   -2.6140   -0.9430 O   0  0  0  0  0  0  0  0  0  0  0  0
    0.6120   -0.3630    0.1880 N   0  0  0  0  0  0  0  0  0  0  0  0
    1.4330    0.3780   -0.6130 O   0  0  0  0  0  0  0  0  0  0  0  0
    2.4910    1.2170    0.4840 P   0  0  0  0  0  0  0  0  0  0  0  0
    4.1210    0.7610    0.3250 O   0  0  0  0  0  0  0  0  0  0  0  0
  1  2  1  0
  2  3  1  0
  3  4  1  0
  4  5  1  0
  4  6  1  0
  6  7  1  0
  7  8  1  0
  8  9  1  0
M  END
