
     RDKit          3D

  9  8  0  0  0  0  0  0  0  0999 V2000
    4.3010    0.0070    0.3400 O   0  0  0  0  0  0  0  0  0  0  0  0
    2.7910    0.5550   -0.2780 P   0  0  0  0  0  0  0  0  0  0  0  0
    1.5380   -0.6040    0.0270 O   0  0  0  0  0  0  0  0  0  0  0  0
    0.5360   -0.4950   -0.8130 O   0  0  0  0  0  0  0  0  0  0  0  0
   -0.2640    0.4370   -0.3210 O   0  0  0  0  0  0  0  0  0  0  0  0
   -0.9430   -0.0870    0.7350 N   0  0  0  0  0  0  0  0  0  0  0  0
   -2.6170   -0.4890    0.3490 P   0  0  0  0  0  0  0  0  0  0  0  0
   -3.7380    0.7640    0.6380 O   0  0  0  0  0  0  0  0  0  0  0  0
   -2.8210   -1.2630   -1.1710 O   0  0  0  0  0  0  0  0  0  0  0  0
  1  2  1  0
  2  3  1  0
  3  4  1  0
  4  5  1  0
  5  6  1  0
  6  7  1  0
  7  8  1  0
  7  9  1  0
M  END
