
     RDKit          3D

 44 47  0  0  0  0  0  0  0  0999 V2000
    9.9510    3.8830   -0.5810 C   0  0  0  0  0  0  0  0  0  0  0  0
   10.9380    2.8830   -0.5580 O   0  0  0  0  0  0  0  0  0  0  0  0
   10.4770    1.7440    0.6690 P   0  0  0  0  0  0  0  0  0  0  0  0
   11.8570    0.7470    1.0810 O   0  0  0  0  0  0  0  0  0  0  0  0
    9.2300    0.6050   -0.0410 C   0  0  0  0  0  0  0  0  0  0  0  0
    8.0420    0.3270    0.5670 C   0  0  0  0  0  0  0  0  0  0  0  0
    7.1400   -0.5450    0.0160 C   0  0  0  0  0  0  0  0  0  0  0  0
    7.4300   -1.1610   -1.1830 C   0  0  0  0  0  0  0  0  0  0  0  0
    6.5250   -2.0840   -1.7280 N   0  0  0  0  0  0  0  0  0  0  0  0
    5.2570   -2.2920   -1.1310 C   0  0  0  0  0  0  0  0  0  0  0  0
    4.9050   -3.5890   -0.7170 C   0  0  0  0  0  0  0  0  0  0  0  0
    3.6940   -3.8850   -0.1410 C   0  0  0  0  0  0  0  0  0  0  0  0
    2.7590   -2.8810    0.0500 C   0  0  0  0  0  0  0  0  0  0  0  0
    3.0800   -1.6090   -0.3500 C   0  0  0  0  0  0  0  0  0  0  0  0
    4.3160   -1.3110   -0.9340 C   0  0  0  0  0  0  0  0  0  0  0  0
    2.0990   -0.5110   -0.2370 C   0  0  0  0  0  0  0  0  0  0  0  0
    0.9450   -0.8420    0.5410 N   0  0  0  0  0  0  0  0  0  0  0  0
    0.0330    0.1850    0.9030 C   0  0  0  0  0  0  0  0  0  0  0  0
   -0.9450   -0.0780    1.6410 O   0  0  0  0  0  0  0  0  0  0  0  0
    0.2350    1.4670    0.4280 O   0  0  0  0  0  0  0  0  0  0  0  0
   -0.6600    2.5280    0.7670 C   0  0  1  0  0  0  0  0  0  0  0  0
   -0.6070    2.7720    2.2600 C   0  0  0  0  0  0  0  0  0  0  0  0
   -0.2970    3.7360   -0.0160 C   0  0  0  0  0  0  0  0  0  0  0  0
   -2.0240    1.9680    0.4130 C   0  0  0  0  0  0  0  0  0  0  0  0
   -3.1080    2.1560    1.2170 C   0  0  0  0  0  0  0  0  0  0  0  0
   -4.3480    1.5710    0.9010 C   0  0  0  0  0  0  0  0  0  0  0  0
   -4.5330    0.7970   -0.2090 C   0  0  0  0  0  0  0  0  0  0  0  0
   -5.7250    0.1290   -0.5630 N   0  0  0  0  0  0  0  0  0  0  0  0
   -6.8650   -0.0170    0.2560 C   0  0  0  0  0  0  0  0  0  0  0  0
   -6.9140    0.4680    1.4110 O   0  0  0  0  0  0  0  0  0  0  0  0
   -8.0280   -0.7890   -0.3140 C   0  0  2  0  0  0  0  0  0  0  0  0
   -7.4790   -2.1650   -0.6270 C   0  0  0  0  0  0  0  0  0  0  0  0
   -8.6240   -0.1580   -1.5160 C   0  0  0  0  0  0  0  0  0  0  0  0
   -9.1270    1.1130   -1.3150 O   0  0  0  0  0  0  0  0  0  0  0  0
  -10.1320    1.1690   -0.3690 C   0  0  0  0  0  0  0  0  0  0  0  0
  -11.3270    0.3230   -0.7300 C   0  0  0  0  0  0  0  0  0  0  0  0
  -12.2850    0.4360    0.2800 O   0  0  0  0  0  0  0  0  0  0  0  0
   -3.3950    0.6310   -1.0120 C   0  0  0  0  0  0  0  0  0  0  0  0
   -2.1790    1.1900   -0.7250 C   0  0  0  0  0  0  0  0  0  0  0  0
    0.6690   -2.2050    0.9360 C   0  0  0  0  0  0  0  0  0  0  0  0
    1.5030   -3.1960    0.7190 C   0  0  0  0  0  0  0  0  0  0  0  0
    1.1830   -4.5940    1.1510 C   0  0  0  0  0  0  0  0  0  0  0  0
    8.6370   -0.8900   -1.8230 C   0  0  0  0  0  0  0  0  0  0  0  0
    9.5070   -0.0180   -1.2410 C   0  0  0  0  0  0  0  0  0  0  0  0
  1  2  1  0
  2  3  1  0
  3  4  1  0
  3  5  1  0
  5  6  2  0
  5 44  1  0
  6  7  1  0
  7  8  2  0
  8  9  1  0
  8 43  1  0
  9 10  1  0
 10 11  2  0
 10 15  1  0
 11 12  1  0
 12 13  2  0
 13 14  1  0
 13 41  1  0
 14 15  2  0
 14 16  1  0
 16 17  1  0
 17 18  1  0
 17 40  1  0
 18 19  2  0
 18 20  1  0
 20 21  1  0
 21 22  1  1
 21 23  1  0
 21 24  1  0
 24 25  2  0
 24 39  1  0
 25 26  1  0
 26 27  2  0
 27 28  1  0
 27 38  1  0
 28 29  1  0
 29 30  2  0
 29 31  1  0
 31 32  1  6
 31 33  1  0
 33 34  1  0
 34 35  1  0
 35 36  1  0
 36 37  1  0
 38 39  2  0
 40 41  2  0
 41 42  1  0
 43 44  2  0
M  END
