
     RDKit          3D

 44 48  0  0  0  0  0  0  0  0999 V2000
   -3.9200    2.7530   -4.2390 C   0  0  0  0  0  0  0  0  0  0  0  0
   -4.0880    1.3420   -3.6530 C   0  0  0  0  0  0  0  0  0  0  0  0
   -4.1150    1.3800   -2.2550 O   0  0  0  0  0  0  0  0  0  0  0  0
   -3.1090    1.8560   -1.4660 C   0  0  0  0  0  0  0  0  0  0  0  0
   -2.0580    2.2950   -1.9840 O   0  0  0  0  0  0  0  0  0  0  0  0
   -3.2090    1.8820    0.0180 C   0  0  1  0  0  0  0  0  0  0  0  0
   -4.5740    1.4440    0.4910 C   0  0  0  0  0  0  0  0  0  0  0  0
   -2.0520    1.5150    0.7900 C   0  0  0  0  0  0  0  0  0  0  0  0
   -1.3520    0.2220    0.7620 C   0  0  2  0  0  0  0  0  0  0  0  0
   -0.2480    0.3180    1.8060 C   0  0  0  0  0  0  0  0  0  0  0  0
   -0.2700   -0.4030    2.8170 O   0  0  0  0  0  0  0  0  0  0  0  0
    0.7860    1.2500    1.5760 N   0  0  0  0  0  0  0  0  0  0  0  0
    1.2760    1.5590    0.2610 C   0  0  1  0  0  0  0  0  0  0  0  0
    2.6520    1.4330    0.0120 N   0  0  0  0  0  0  0  0  0  0  0  0
    3.3510    0.2450    0.1840 C   0  0  0  0  0  0  0  0  0  0  0  0
    3.4960   -0.1370    1.6270 C   0  0  0  0  0  0  0  0  0  0  0  0
    4.2420    0.9700    2.3520 C   0  0  0  0  0  0  0  0  0  0  0  0
    5.9190    1.2660    1.6650 P   0  0  0  0  0  0  0  0  0  0  0  0
    7.0260    1.7620    2.9030 O   0  0  0  0  0  0  0  0  0  0  0  0
    7.7450    2.8610    2.3930 C   0  0  0  0  0  0  0  0  0  0  0  0
    6.5290   -0.0140    0.7070 O   0  0  0  0  0  0  0  0  0  0  0  0
    7.8050   -0.4190    1.0990 C   0  0  0  0  0  0  0  0  0  0  0  0
    8.3370   -1.5370    0.2610 C   0  0  0  0  0  0  0  0  0  0  0  0
    0.5640    0.6230   -0.6880 C   0  0  0  0  0  0  0  0  0  0  0  0
   -0.5810    0.0360   -0.4840 C   0  0  0  0  0  0  0  0  0  0  0  0
   -1.1740   -0.8320   -1.5470 C   0  0  0  0  0  0  0  0  0  0  0  0
   -1.9190   -1.9110   -1.1490 C   0  0  0  0  0  0  0  0  0  0  0  0
   -2.3180   -2.4870   -2.2540 O   0  0  0  0  0  0  0  0  0  0  0  0
   -1.8770   -1.8480   -3.3250 C   0  0  0  0  0  0  0  0  0  0  0  0
   -2.0170   -2.0540   -4.6870 C   0  0  0  0  0  0  0  0  0  0  0  0
   -1.4210   -1.1920   -5.5930 C   0  0  0  0  0  0  0  0  0  0  0  0
   -0.6810   -0.1180   -5.1320 C   0  0  0  0  0  0  0  0  0  0  0  0
   -0.5160    0.1230   -3.7880 C   0  0  0  0  0  0  0  0  0  0  0  0
   -1.1150   -0.7460   -2.9100 C   0  0  0  0  0  0  0  0  0  0  0  0
   -2.0770   -2.1500    0.3100 C   0  0  0  0  0  0  0  0  0  0  0  0
   -2.0970   -0.9720    1.0610 N   0  0  0  0  0  0  0  0  0  0  0  0
   -2.8680   -0.9760    2.2510 C   0  0  0  0  0  0  0  0  0  0  0  0
   -2.9520    0.1420    2.9260 O   0  0  0  0  0  0  0  0  0  0  0  0
   -3.5970   -2.0510    2.8440 C   0  0  0  0  0  0  0  0  0  0  0  0
   -3.4730   -3.4010    2.6530 C   0  0  0  0  0  0  0  0  0  0  0  0
   -4.3110   -4.3470    3.2230 C   0  0  0  0  0  0  0  0  0  0  0  0
   -5.3230   -3.9320    4.0270 C   0  0  0  0  0  0  0  0  0  0  0  0
   -5.5210   -2.5980    4.2770 C   0  0  0  0  0  0  0  0  0  0  0  0
   -4.6750   -1.6920    3.6960 C   0  0  0  0  0  0  0  0  0  0  0  0
  1  2  1  0
  2  3  1  0
  3  4  1  0
  4  5  2  0
  4  6  1  0
  6  7  1  6
  6  8  1  0
  9  8  1  6
  9 10  1  0
  9 25  1  0
  9 36  1  0
 10 11  2  0
 10 12  1  0
 12 13  1  0
 13 14  1  1
 13 24  1  0
 14 15  1  0
 15 16  1  0
 16 17  1  0
 17 18  1  0
 18 19  1  0
 18 21  1  0
 19 20  1  0
 21 22  1  0
 22 23  1  0
 24 25  2  0
 25 26  1  0
 26 27  2  0
 26 34  1  0
 27 28  1  0
 27 35  1  0
 28 29  1  0
 29 30  2  0
 29 34  1  0
 30 31  1  0
 31 32  2  0
 32 33  1  0
 33 34  2  0
 35 36  1  0
 36 37  1  0
 37 38  2  0
 37 39  1  0
 39 40  2  0
 39 44  1  0
 40 41  1  0
 41 42  2  0
 42 43  1  0
 43 44  2  0
M  END
