
     RDKit          3D

 18 20  0  0  0  0  0  0  0  0999 V2000
    3.2470    2.3480   -0.9010 N   0  0  0  0  0  0  0  0  0  0  0  0
    3.0180    1.0360   -0.4270 C   0  0  0  0  0  0  0  0  0  0  0  0
    1.8650    0.6730    0.1600 N   0  0  0  0  0  0  0  0  0  0  0  0
    1.6250   -0.5780    0.6210 C   0  0  0  0  0  0  0  0  0  0  0  0
    0.4110   -0.8230    1.2000 O   0  0  0  0  0  0  0  0  0  0  0  0
   -0.6180    0.0970    1.3640 C   0  0  0  0  0  0  0  0  0  0  0  0
   -1.1470    0.6880    0.0790 C   0  0  1  0  0  0  0  0  0  0  0  0
   -1.6710   -0.4640   -0.7570 C   0  0  0  0  0  0  0  0  0  0  0  0
   -3.0500   -0.8010   -0.2260 C   0  0  0  0  0  0  0  0  0  0  0  0
   -3.9930    0.2610   -0.7930 C   0  0  0  0  0  0  0  0  0  0  0  0
   -3.3670    1.6230   -0.6310 C   0  0  0  0  0  0  0  0  0  0  0  0
   -2.2790    1.6320    0.4170 C   0  0  0  0  0  0  0  0  0  0  0  0
    2.6120   -1.5210    0.4810 C   0  0  0  0  0  0  0  0  0  0  0  0
    2.6770   -2.8020    0.8240 N   0  0  0  0  0  0  0  0  0  0  0  0
    3.8900   -3.3200    0.4660 C   0  0  0  0  0  0  0  0  0  0  0  0
    4.5580   -2.2870   -0.1110 N   0  0  0  0  0  0  0  0  0  0  0  0
    3.8040   -1.1750   -0.1170 C   0  0  0  0  0  0  0  0  0  0  0  0
    3.9830    0.0830   -0.5550 N   0  0  0  0  0  0  0  0  0  0  0  0
  1  2  1  0
  2  3  2  0
  2 18  1  0
  3  4  1  0
  4  5  1  0
  4 13  2  0
  5  6  1  0
  7  6  1  1
  7  8  1  0
  7 12  1  0
  8  9  1  0
  9 10  1  0
 10 11  1  0
 11 12  1  0
 13 14  1  0
 13 17  1  0
 14 15  2  0
 15 16  1  0
 16 17  1  0
 17 18  2  0
M  END
