
     RDKit          3D

 21 22  0  0  0  0  0  0  0  0999 V2000
    7.5920   -0.3080   -0.9760 C   0  0  0  0  0  0  0  0  0  0  0  0
    6.5960    0.5030   -1.2830 C   0  0  0  0  0  0  0  0  0  0  0  0
    5.9110    1.3520   -0.2740 C   0  0  0  0  0  0  0  0  0  0  0  0
    4.4690    0.9950   -0.2240 C   0  0  0  0  0  0  0  0  0  0  0  0
    4.0510    0.0050    0.6550 C   0  0  0  0  0  0  0  0  0  0  0  0
    2.7200   -0.3500    0.7270 C   0  0  0  0  0  0  0  0  0  0  0  0
    1.8450    0.3110   -0.0990 C   0  0  0  0  0  0  0  0  0  0  0  0
    0.5070   -0.0180   -0.0540 O   0  0  0  0  0  0  0  0  0  0  0  0
    0.0470   -1.0190    0.8270 C   0  0  0  0  0  0  0  0  0  0  0  0
   -1.4470   -1.1460    0.6420 C   0  0  0  0  0  0  0  0  0  0  0  0
   -2.1840    0.4750    1.0380 S   0  0  0  0  0  0  0  0  0  0  0  0
   -3.9500    0.3160    0.8170 C   0  0  0  0  0  0  0  0  0  0  0  0
   -4.4930    0.5830   -0.3880 N   0  0  0  0  0  0  0  0  0  0  0  0
   -5.8100    0.4850   -0.6280 C   0  0  0  0  0  0  0  0  0  0  0  0
   -6.4190    0.7760   -1.9530 C   0  0  0  0  0  0  0  0  0  0  0  0
   -6.6330    0.0950    0.4080 C   0  0  0  0  0  0  0  0  0  0  0  0
   -6.0680   -0.1770    1.6430 C   0  0  0  0  0  0  0  0  0  0  0  0
   -6.8040   -0.5310    2.5900 O   0  0  0  0  0  0  0  0  0  0  0  0
   -4.7260   -0.0660    1.8470 N   0  0  0  0  0  0  0  0  0  0  0  0
    2.2640    1.2920   -0.9690 C   0  0  0  0  0  0  0  0  0  0  0  0
    3.5590    1.6070   -1.0080 N   0  0  0  0  0  0  0  0  0  0  0  0
  1  2  2  0
  2  3  1  0
  3  4  1  0
  4  5  2  0
  4 21  1  0
  5  6  1  0
  6  7  2  0
  7  8  1  0
  7 20  1  0
  8  9  1  0
  9 10  1  0
 10 11  1  0
 11 12  1  0
 12 13  2  0
 12 19  1  0
 13 14  1  0
 14 15  1  0
 14 16  2  0
 16 17  1  0
 17 18  2  0
 17 19  1  0
 20 21  2  0
M  END
