
     RDKit          3D

 25 27  0  0  0  0  0  0  0  0999 V2000
   -3.7240   -0.0950   -0.5670 O   0  0  0  0  0  0  0  0  0  0  0  0
   -4.2250    0.9520   -0.1370 C   0  0  0  0  0  0  0  0  0  0  0  0
   -3.4020    2.1350    0.2810 C   0  0  0  0  0  0  0  0  0  0  0  0
   -2.0290    1.8860    0.1340 O   0  0  0  0  0  0  0  0  0  0  0  0
   -1.3420    0.8780    0.7520 C   0  0  0  0  0  0  0  0  0  0  0  0
   -2.0920    0.1040    1.4910 O   0  0  0  0  0  0  0  0  0  0  0  0
    0.0740    0.6080    0.6900 C   0  0  0  0  0  0  0  0  0  0  0  0
    1.0160    1.3980    1.3900 C   0  0  0  0  0  0  0  0  0  0  0  0
    2.2230    0.8980    1.2620 N   0  0  0  0  0  0  0  0  0  0  0  0
    2.1550   -0.2320    0.4790 C   0  0  0  0  0  0  0  0  0  0  0  0
    3.3590   -1.0150    0.1410 C   0  0  2  0  0  0  0  0  0  0  0  0
    4.4040   -0.8290    1.2720 C   0  0  0  0  0  0  0  0  0  0  0  0
    5.5250    0.0920    0.9120 C   0  0  0  0  0  0  0  0  0  0  0  0
    6.2040   -0.2740   -0.3690 C   0  0  0  0  0  0  0  0  0  0  0  0
    5.2890   -1.1610   -1.1540 C   0  0  0  0  0  0  0  0  0  0  0  0
    3.9380   -0.5700   -1.1020 N   0  0  0  0  0  0  0  0  0  0  0  0
    0.8390   -0.3850    0.1410 C   0  0  0  0  0  0  0  0  0  0  0  0
    0.2180   -1.6710   -0.8530 Cl  0  0  0  0  0  0  0  0  0  0  0  0
   -5.6380    1.0370   -0.0330 N   0  0  0  0  0  0  0  0  0  0  0  0
   -6.5610    0.0430   -0.3270 N   0  0  0  0  0  0  0  0  0  0  0  0
   -7.9250    0.2750   -0.3270 C   0  0  0  0  0  0  0  0  0  0  0  0
   -8.5450   -0.8730   -0.5960 N   0  0  0  0  0  0  0  0  0  0  0  0
   -7.6540   -1.8570   -0.7700 N   0  0  0  0  0  0  0  0  0  0  0  0
   -6.4420   -1.2620   -0.5980 C   0  0  0  0  0  0  0  0  0  0  0  0
   -5.3750   -1.9060   -0.6900 O   0  0  0  0  0  0  0  0  0  0  0  0
  1  2  2  0
  2  3  1  0
  2 19  1  0
  3  4  1  0
  4  5  1  0
  5  6  2  0
  5  7  1  0
  7  8  2  0
  7 17  1  0
  8  9  1  0
  9 10  1  0
 11 10  1  1
 10 17  2  0
 11 12  1  0
 11 16  1  0
 12 13  1  0
 13 14  1  0
 14 15  1  0
 15 16  1  0
 17 18  1  0
 19 20  1  0
 20 21  1  0
 20 24  1  0
 21 22  2  0
 22 23  1  0
 23 24  1  0
 24 25  2  0
M  CHG  1  16   1
M  END
