
     RDKit          3D

 28 31  0  0  0  0  0  0  0  0999 V2000
    1.1370    2.5070    1.1280 C   0  0  0  0  0  0  0  0  0  0  0  0
    1.1620    1.0750    0.8000 C   0  0  0  0  0  0  0  0  0  0  0  0
    0.0980    0.2330    0.7120 C   0  0  0  0  0  0  0  0  0  0  0  0
   -1.3110    0.5270    0.8190 C   0  0  0  0  0  0  0  0  0  0  0  0
   -1.7610    1.6460    1.0990 O   0  0  0  0  0  0  0  0  0  0  0  0
   -2.2540   -0.5300    0.5640 N   0  0  0  0  0  0  0  0  0  0  0  0
   -3.7140   -0.3220    0.5910 C   0  0  1  0  0  0  0  0  0  0  0  0
   -3.9590    0.1060   -0.9200 C   0  0  0  0  0  0  0  0  0  0  0  0
   -4.3750   -1.6170    0.6890 C   0  0  0  0  0  0  0  0  0  0  0  0
   -5.6440   -1.8530    0.4310 C   0  0  0  0  0  0  0  0  0  0  0  0
   -6.5120   -0.7610    0.0280 C   0  0  0  0  0  0  0  0  0  0  0  0
   -7.6930   -0.9170   -0.7400 C   0  0  0  0  0  0  0  0  0  0  0  0
   -8.1900    0.3880   -0.8600 C   0  0  0  0  0  0  0  0  0  0  0  0
   -7.3210    1.2140   -0.1890 C   0  0  0  0  0  0  0  0  0  0  0  0
   -6.3420    0.5140    0.3200 O   0  0  0  0  0  0  0  0  0  0  0  0
    0.6080   -0.9700    0.4120 N   0  0  0  0  0  0  0  0  0  0  0  0
    1.9390   -0.8820    0.3100 C   0  0  0  0  0  0  0  0  0  0  0  0
    2.9270   -1.7830   -0.0110 N   0  0  0  0  0  0  0  0  0  0  0  0
    4.1900   -1.3010   -0.0710 C   0  0  0  0  0  0  0  0  0  0  0  0
    5.6850   -2.1610   -0.4360 S   0  0  0  0  0  0  0  0  0  0  0  0
    6.7960   -0.6620   -0.2780 C   0  0  0  0  0  0  0  0  0  0  0  0
    8.2070   -0.7540   -0.6510 C   0  0  0  0  0  0  0  0  0  0  0  0
    9.0050   -0.2470    0.4820 N   0  0  0  0  0  0  0  0  0  0  0  0
    5.9090    0.2720    0.0400 C   0  0  0  0  0  0  0  0  0  0  0  0
    6.3630    1.6230    0.2790 O   0  0  0  0  0  0  0  0  0  0  0  0
    4.5900   -0.0220    0.1550 C   0  0  0  0  0  0  0  0  0  0  0  0
    3.5510    0.8460    0.4830 N   0  0  0  0  0  0  0  0  0  0  0  0
    2.3270    0.3870    0.5410 N   0  0  0  0  0  0  0  0  0  0  0  0
  1  2  1  0
  2  3  2  0
  2 28  1  0
  3  4  1  0
  3 16  1  0
  4  5  2  0
  4  6  1  0
  6  7  1  0
  7  8  1  6
  7  9  1  0
  9 10  2  3
 10 11  1  0
 11 12  2  0
 11 15  1  0
 12 13  1  0
 13 14  2  0
 14 15  1  0
 16 17  2  0
 17 18  1  0
 17 28  1  0
 18 19  2  0
 19 20  1  0
 19 26  1  0
 20 21  1  0
 21 22  1  0
 21 24  2  0
 22 23  1  0
 24 25  1  0
 24 26  1  0
 26 27  2  0
 27 28  1  0
M  END
