
     RDKit          3D

 28 30  0  0  0  0  0  0  0  0999 V2000
    4.1080    0.7160    1.4050 C   0  0  0  0  0  0  0  0  0  0  0  0
    4.8750    0.4150    0.2560 O   0  0  0  0  0  0  0  0  0  0  0  0
    4.2110    0.0980   -0.9170 C   0  0  0  0  0  0  0  0  0  0  0  0
    2.8240    0.0580   -1.0150 C   0  0  0  0  0  0  0  0  0  0  0  0
    2.1420   -0.2510   -2.1630 C   0  0  0  0  0  0  0  0  0  0  0  0
    0.7240   -0.2820   -2.2400 N   0  0  0  0  0  0  0  0  0  0  0  0
   -0.0990    0.1500   -1.1370 C   0  0  0  0  0  0  0  0  0  0  0  0
    0.2600    1.2440   -0.6120 N   0  0  0  0  0  0  0  0  0  0  0  0
   -0.4790    1.8280    0.5340 C   0  0  0  0  0  0  0  0  0  0  0  0
   -1.4130    2.3640    0.8560 N   0  0  0  0  0  0  0  0  0  0  0  0
   -1.8330    2.7870    2.0230 C   0  0  0  0  0  0  0  0  0  0  0  0
   -3.1340    3.5070    2.3390 C   0  0  0  0  0  0  0  0  0  0  0  0
   -0.9630    2.5270    3.0680 C   0  0  0  0  0  0  0  0  0  0  0  0
    0.4190    1.6660    2.2080 S   0  0  0  0  0  0  0  0  0  0  0  0
   -1.2430   -0.6570   -0.7210 C   0  0  0  0  0  0  0  0  0  0  0  0
   -1.9220   -0.1880    0.2800 N   0  0  0  0  0  0  0  0  0  0  0  0
   -3.0770   -0.8720    0.8050 C   0  0  0  0  0  0  0  0  0  0  0  0
   -2.9600   -1.7720    1.7650 C   0  0  0  0  0  0  0  0  0  0  0  0
   -4.3190   -2.2730    2.0640 C   0  0  0  0  0  0  0  0  0  0  0  0
   -5.1700   -1.5070    1.1230 C   0  0  0  0  0  0  0  0  0  0  0  0
   -4.4330   -0.7180    0.4190 N   0  0  0  0  0  0  0  0  0  0  0  0
   -1.6540   -1.8970   -1.3260 C   0  0  0  0  0  0  0  0  0  0  0  0
   -0.9720   -2.4860   -2.4190 N   0  0  0  0  0  0  0  0  0  0  0  0
   -2.6740   -2.5090   -0.8730 O   0  0  0  0  0  0  0  0  0  0  0  0
    2.8910   -0.5470   -3.3110 C   0  0  0  0  0  0  0  0  0  0  0  0
    4.2580   -0.5110   -3.2240 C   0  0  0  0  0  0  0  0  0  0  0  0
    4.9250   -0.1950   -2.0510 C   0  0  0  0  0  0  0  0  0  0  0  0
    6.3130   -0.1630   -1.9780 O   0  0  0  0  0  0  0  0  0  0  0  0
  1  2  1  0
  2  3  1  0
  3  4  2  0
  3 27  1  0
  4  5  1  0
  5  6  1  0
  5 25  2  0
  6  7  1  0
  7  8  2  3
  7 15  1  0
  8  9  1  0
  9 10  2  0
  9 14  1  0
 10 11  1  0
 11 12  1  0
 11 13  2  0
 13 14  1  0
 15 16  2  3
 15 22  1  0
 16 17  1  0
 17 18  2  0
 17 21  1  0
 18 19  1  0
 19 20  1  0
 20 21  2  0
 22 23  1  0
 22 24  2  0
 25 26  1  0
 26 27  2  0
 27 28  1  0
M  END
