
     RDKit          3D

 28 30  0  0  0  0  0  0  0  0999 V2000
    8.3770   -0.9190   -0.6270 C   0  0  0  0  0  0  0  0  0  0  0  0
    7.9500   -2.1710   -1.2820 C   0  0  0  0  0  0  0  0  0  0  0  0
    6.6730   -2.3850   -1.5920 C   0  0  0  0  0  0  0  0  0  0  0  0
    5.6700   -1.3710   -1.2830 C   0  0  0  0  0  0  0  0  0  0  0  0
    4.3550   -1.4810   -1.5500 N   0  0  0  0  0  0  0  0  0  0  0  0
    3.7360   -0.3750   -1.1350 N   0  0  0  0  0  0  0  0  0  0  0  0
    4.6480    0.4660   -0.5930 C   0  0  0  0  0  0  0  0  0  0  0  0
    4.4070    1.8230    0.0010 C   0  0  0  0  0  0  0  0  0  0  0  0
    4.1140    1.6930    1.4800 C   0  0  0  0  0  0  0  0  0  0  0  0
    2.9520    0.8810    1.6550 N   0  0  0  0  0  0  0  0  0  0  0  0
    1.6580    1.1850    1.1390 C   0  0  0  0  0  0  0  0  0  0  0  0
    1.5110    2.2390    0.4800 O   0  0  0  0  0  0  0  0  0  0  0  0
    0.4980    0.2870    1.3640 C   0  0  0  0  0  0  0  0  0  0  0  0
   -0.6650    0.8370    0.7370 N   0  0  0  0  0  0  0  0  0  0  0  0
   -1.9310    0.1570    0.8060 C   0  0  0  0  0  0  0  0  0  0  0  0
   -2.0640   -0.9200    1.4050 O   0  0  0  0  0  0  0  0  0  0  0  0
   -3.0410    0.7390    0.1740 N   0  0  0  0  0  0  0  0  0  0  0  0
   -4.3240    0.0950    0.2180 C   0  0  0  0  0  0  0  0  0  0  0  0
   -4.6880   -1.4170    1.0130 S   0  0  0  0  0  0  0  0  0  0  0  0
   -6.3890   -1.5090    0.6210 C   0  0  0  0  0  0  0  0  0  0  0  0
   -7.3710   -2.5520    0.9740 C   0  0  0  0  0  0  0  0  0  0  0  0
   -6.5850   -0.3220   -0.1290 C   0  0  0  0  0  0  0  0  0  0  0  0
   -5.5290    0.4620   -0.3130 C   0  0  0  0  0  0  0  0  0  0  0  0
   -5.9630    1.6490   -1.1230 C   0  0  0  0  0  0  0  0  0  0  0  0
   -5.2690    2.3870   -1.8390 O   0  0  0  0  0  0  0  0  0  0  0  0
   -7.4230    1.7390   -0.8710 C   0  0  0  0  0  0  0  0  0  0  0  0
   -7.8120    0.2890   -0.8150 C   0  0  0  0  0  0  0  0  0  0  0  0
    5.8220   -0.1820   -0.7020 N   0  0  0  0  0  0  0  0  0  0  0  0
  1  2  1  0
  2  3  2  3
  3  4  1  0
  4  5  2  0
  4 28  1  0
  5  6  1  0
  6  7  1  0
  7  8  1  0
  7 28  2  0
  8  9  1  0
  9 10  1  0
 10 11  1  0
 11 12  2  0
 11 13  1  0
 13 14  1  0
 14 15  1  0
 15 16  2  0
 15 17  1  0
 17 18  1  0
 18 19  1  0
 18 23  2  0
 19 20  1  0
 20 21  1  0
 20 22  2  0
 22 23  1  0
 22 27  1  0
 23 24  1  0
 24 25  2  0
 24 26  1  0
 26 27  1  0
M  END
