
     RDKit          3D

 27 30  0  0  0  0  0  0  0  0999 V2000
   -3.7090   -3.9620   -0.2190 C   0  0  0  0  0  0  0  0  0  0  0  0
   -3.5690   -2.4770   -0.2150 C   0  0  0  0  0  0  0  0  0  0  0  0
   -4.5640   -1.5710   -0.4050 C   0  0  0  0  0  0  0  0  0  0  0  0
   -3.9750   -0.3390   -0.3150 C   0  0  0  0  0  0  0  0  0  0  0  0
   -2.5870   -0.4770   -0.0640 C   0  0  0  0  0  0  0  0  0  0  0  0
   -1.7710    0.6870    0.1410 C   0  0  0  0  0  0  0  0  0  0  0  0
   -2.2140    1.8960   -0.4340 C   0  0  0  0  0  0  0  0  0  0  0  0
   -1.4800    3.0350   -0.2340 C   0  0  0  0  0  0  0  0  0  0  0  0
   -1.9600    4.2990   -0.8470 C   0  0  0  0  0  0  0  0  0  0  0  0
   -0.3540    3.0680    0.4830 N   0  0  0  0  0  0  0  0  0  0  0  0
    0.0880    1.9390    1.0410 C   0  0  0  0  0  0  0  0  0  0  0  0
    1.1570    1.9330    1.7320 O   0  0  0  0  0  0  0  0  0  0  0  0
   -0.6300    0.7260    0.8710 C   0  0  0  0  0  0  0  0  0  0  0  0
   -0.0190   -0.6680    1.7120 S   0  0  2  0  0  0  0  0  0  0  0  0
   -1.0900   -1.4360    2.4470 O   0  0  0  0  0  0  0  0  0  0  0  0
    0.8450   -0.1060    2.8810 O   0  0  0  0  0  0  0  0  0  0  0  0
    1.0140   -1.6560    0.7760 N   0  0  0  0  0  0  0  0  0  0  0  0
    2.2290   -1.1500    0.2540 C   0  0  0  0  0  0  0  0  0  0  0  0
    2.5300   -1.3690   -1.1000 C   0  0  0  0  0  0  0  0  0  0  0  0
    3.6930   -0.8980   -1.6600 C   0  0  0  0  0  0  0  0  0  0  0  0
    4.6280   -0.1870   -0.9360 C   0  0  0  0  0  0  0  0  0  0  0  0
    5.8200    0.3770   -1.2240 N   0  0  0  0  0  0  0  0  0  0  0  0
    6.2720    0.9340   -0.1160 N   0  0  0  0  0  0  0  0  0  0  0  0
    5.3850    0.7410    0.9020 C   0  0  0  0  0  0  0  0  0  0  0  0
    4.3320    0.0270    0.3920 C   0  0  0  0  0  0  0  0  0  0  0  0
    3.1700   -0.4400    0.9660 C   0  0  0  0  0  0  0  0  0  0  0  0
   -2.4020   -1.7860   -0.0150 N   0  0  0  0  0  0  0  0  0  0  0  0
  1  2  1  0
  2  3  2  0
  2 27  1  0
  3  4  1  0
  4  5  2  0
  5  6  1  0
  5 27  1  0
  6  7  1  0
  6 13  2  0
  7  8  2  0
  8  9  1  0
  8 10  1  0
 10 11  1  0
 11 12  2  0
 11 13  1  0
 13 14  1  0
 14 15  2  0
 14 16  2  0
 14 17  1  6
 17 18  1  0
 18 19  2  0
 18 26  1  0
 19 20  1  0
 20 21  2  0
 21 22  1  0
 21 25  1  0
 22 23  1  0
 23 24  2  0
 24 25  1  0
 25 26  2  0
M  END
