
     RDKit          3D

 28 31  0  0  0  0  0  0  0  0999 V2000
    8.5650    1.5310   -1.3410 N   0  0  0  0  0  0  0  0  0  0  0  0
    7.9940   -0.0950   -1.3700 S   0  0  2  0  0  0  0  0  0  0  0  0
    8.5810   -0.7990   -0.1690 O   0  0  0  0  0  0  0  0  0  0  0  0
    8.5570   -0.7610   -2.5850 O   0  0  0  0  0  0  0  0  0  0  0  0
    6.2570   -0.1770   -1.2990 C   0  0  0  0  0  0  0  0  0  0  0  0
    5.4640   -0.1740   -2.4250 C   0  0  0  0  0  0  0  0  0  0  0  0
    4.0950   -0.2400   -2.3370 C   0  0  0  0  0  0  0  0  0  0  0  0
    3.4160   -0.3140   -1.1110 C   0  0  0  0  0  0  0  0  0  0  0  0
    2.0270   -0.3800   -1.0620 N   0  0  0  0  0  0  0  0  0  0  0  0
    1.2020   -0.4420    0.0810 C   0  0  0  0  0  0  0  0  0  0  0  0
   -0.1500   -0.5030   -0.0790 N   0  0  0  0  0  0  0  0  0  0  0  0
   -1.0180   -0.5640    0.9370 C   0  0  0  0  0  0  0  0  0  0  0  0
   -2.3810   -0.6250    0.7830 O   0  0  0  0  0  0  0  0  0  0  0  0
   -3.0390   -0.6310   -0.4680 C   0  0  0  0  0  0  0  0  0  0  0  0
   -4.5500   -0.7070   -0.2040 C   0  0  2  0  0  0  0  0  0  0  0  0
   -5.3330   -0.7190   -1.4700 C   0  0  0  0  0  0  0  0  0  0  0  0
   -5.6170    0.6450   -2.0330 C   0  0  0  0  0  0  0  0  0  0  0  0
   -6.1090    1.6250   -1.0290 C   0  0  0  0  0  0  0  0  0  0  0  0
   -6.1620    1.1340    0.3730 C   0  0  0  0  0  0  0  0  0  0  0  0
   -4.9680    0.3160    0.7890 C   0  0  0  0  0  0  0  0  0  0  0  0
   -0.5460   -0.5680    2.2530 C   0  0  0  0  0  0  0  0  0  0  0  0
   -1.1380   -0.6200    3.4530 N   0  0  0  0  0  0  0  0  0  0  0  0
   -0.1550   -0.5920    4.3650 C   0  0  0  0  0  0  0  0  0  0  0  0
    1.0400   -0.5240    3.7610 N   0  0  0  0  0  0  0  0  0  0  0  0
    0.8170   -0.5070    2.4240 C   0  0  0  0  0  0  0  0  0  0  0  0
    1.6210   -0.4480    1.3470 N   0  0  0  0  0  0  0  0  0  0  0  0
    4.2270   -0.3150   -0.0020 C   0  0  0  0  0  0  0  0  0  0  0  0
    5.6270   -0.2480   -0.0880 C   0  0  0  0  0  0  0  0  0  0  0  0
  2  1  1  1
  2  3  2  0
  2  4  2  0
  2  5  1  0
  5  6  2  0
  5 28  1  0
  6  7  1  0
  7  8  2  0
  8  9  1  0
  8 27  1  0
  9 10  1  0
 10 11  2  0
 10 26  1  0
 11 12  1  0
 12 13  1  0
 12 21  2  0
 13 14  1  0
 15 14  1  6
 15 16  1  0
 15 20  1  0
 16 17  1  0
 17 18  1  0
 18 19  1  0
 19 20  1  0
 21 22  1  0
 21 25  1  0
 22 23  2  0
 23 24  1  0
 24 25  1  0
 25 26  2  0
 27 28  2  0
M  END
