
     RDKit          3D

 32 34  0  0  0  0  0  0  0  0999 V2000
    4.8440   -1.5080   -0.6010 O   0  0  0  0  0  0  0  0  0  0  0  0
    5.4500   -0.8790    0.2900 C   0  0  0  0  0  0  0  0  0  0  0  0
    4.7370   -0.1720    1.2300 O   0  0  0  0  0  0  0  0  0  0  0  0
    3.3250   -0.1030    1.2610 C   0  0  0  0  0  0  0  0  0  0  0  0
    2.7680    0.5010   -0.0160 C   0  0  2  0  0  0  0  0  0  0  0  0
    3.2480    1.7790   -0.1990 O   0  0  0  0  0  0  0  0  0  0  0  0
    1.2690    0.5990    0.1690 C   0  0  2  0  0  0  0  0  0  0  0  0
    0.6470   -0.7570    0.4090 C   0  0  0  0  0  0  0  0  0  0  0  0
   -0.6940   -0.6770    0.1350 O   0  0  0  0  0  0  0  0  0  0  0  0
   -1.2560    0.5630    0.4410 C   0  0  2  0  0  0  0  0  0  0  0  0
   -2.6230    0.3870    0.5030 O   0  0  0  0  0  0  0  0  0  0  0  0
   -3.1640    0.7230    1.7370 C   0  0  0  0  0  0  0  0  0  0  0  0
   -4.6650    0.4800    1.6590 C   0  0  2  0  0  0  0  0  0  0  0  0
   -4.9710   -0.8280    1.3760 O   0  0  0  0  0  0  0  0  0  0  0  0
   -6.2000   -0.7830    0.7430 C   0  0  2  0  0  0  0  0  0  0  0  0
   -6.2710   -1.4930   -0.5910 C   0  0  1  0  0  0  0  0  0  0  0  0
   -7.6070   -1.6830   -0.9480 O   0  0  0  0  0  0  0  0  0  0  0  0
   -5.6710   -0.2500   -1.2130 C   0  0  1  0  0  0  0  0  0  0  0  0
   -6.2530    0.1180   -2.4270 O   0  0  0  0  0  0  0  0  0  0  0  0
   -6.1410    0.5120   -0.0220 C   0  0  1  0  0  0  0  0  0  0  0  0
   -7.4610    1.1920   -0.2710 C   0  0  0  0  0  0  0  0  0  0  0  0
   -8.1180    1.5800    0.8690 O   0  0  0  0  0  0  0  0  0  0  0  0
   -5.2020    1.2640    0.6520 O   0  0  0  0  0  0  0  0  0  0  0  0
   -0.8380    1.5220   -0.6520 C   0  0  2  0  0  0  0  0  0  0  0  0
   -1.6180    1.4230   -1.7840 O   0  0  0  0  0  0  0  0  0  0  0  0
    0.5950    1.1930   -1.0500 C   0  0  0  0  0  0  0  0  0  0  0  0
    6.9310   -0.8830    0.3510 C   0  0  1  0  0  0  0  0  0  0  0  0
    7.3360   -1.4580    1.6990 C   0  0  0  0  0  0  0  0  0  0  0  0
    8.7240   -1.4960    1.7690 O   0  0  0  0  0  0  0  0  0  0  0  0
    7.4120   -1.6550   -0.6910 O   0  0  0  0  0  0  0  0  0  0  0  0
    8.2280   -0.8610   -1.4990 C   0  0  0  0  0  0  0  0  0  0  0  0
    8.7100   -1.6550   -2.5530 O   0  0  0  0  0  0  0  0  0  0  0  0
  1  2  2  0
  2  3  1  0
  2 27  1  0
  3  4  1  0
  4  5  1  0
  5  6  1  1
  5  7  1  0
  7  8  1  6
  7 26  1  0
  8  9  1  0
  9 10  1  0
 10 11  1  6
 10 24  1  0
 11 12  1  0
 13 12  1  6
 13 14  1  0
 13 23  1  0
 15 14  1  6
 15 16  1  0
 15 20  1  0
 16 17  1  6
 16 18  1  0
 18 19  1  6
 18 20  1  0
 20 21  1  6
 20 23  1  0
 21 22  1  0
 24 25  1  6
 24 26  1  0
 27 28  1  1
 27 30  1  0
 28 29  1  0
 30 31  1  0
 31 32  1  0
M  END
