
     RDKit          3D

 34 36  0  0  0  0  0  0  0  0999 V2000
    2.8070    1.6710   -3.8470 C   0  0  0  0  0  0  0  0  0  0  0  0
    1.9680    2.0600   -2.5940 C   0  0  2  0  0  0  0  0  0  0  0  0
    2.4610    1.2400   -1.5850 O   0  0  0  0  0  0  0  0  0  0  0  0
    3.2430    1.7130   -0.5330 C   0  0  0  0  0  0  0  0  0  0  0  0
    3.4310    2.9820   -0.5840 O   0  0  0  0  0  0  0  0  0  0  0  0
    3.8110    0.9130    0.5100 C   0  0  0  0  0  0  0  0  0  0  0  0
    3.7570   -0.4930    0.5950 C   0  0  0  0  0  0  0  0  0  0  0  0
    4.3840   -1.1690    1.5830 C   0  0  0  0  0  0  0  0  0  0  0  0
    4.3230   -2.5800    1.6490 C   0  0  0  0  0  0  0  0  0  0  0  0
    4.9610   -3.2290    2.6440 C   0  0  0  0  0  0  0  0  0  0  0  0
    5.6930   -2.6430    3.6410 C   0  0  0  0  0  0  0  0  0  0  0  0
    5.7430   -1.2240    3.5590 C   0  0  0  0  0  0  0  0  0  0  0  0
    5.1150   -0.5880    2.5810 C   0  0  0  0  0  0  0  0  0  0  0  0
    5.1570    0.8470    2.4790 C   0  0  0  0  0  0  0  0  0  0  0  0
    5.8210    1.3960    3.3850 O   0  0  0  0  0  0  0  0  0  0  0  0
    4.5380    1.4570    1.5110 N   0  0  0  0  0  0  0  0  0  0  0  0
    0.5790    1.9440   -2.9950 C   0  0  0  0  0  0  0  0  0  0  0  0
    0.2520    2.5900   -4.0430 O   0  0  0  0  0  0  0  0  0  0  0  0
   -0.4800    1.1990   -2.3810 N   0  0  0  0  0  0  0  0  0  0  0  0
   -1.8090    1.1010   -2.8680 C   0  0  0  0  0  0  0  0  0  0  0  0
   -2.1100    1.4370   -4.1940 C   0  0  0  0  0  0  0  0  0  0  0  0
   -3.3990    1.2240   -4.6970 C   0  0  0  0  0  0  0  0  0  0  0  0
   -4.3580    0.6850   -3.8760 C   0  0  0  0  0  0  0  0  0  0  0  0
   -4.0570    0.3510   -2.5510 C   0  0  0  0  0  0  0  0  0  0  0  0
   -2.7880    0.5630   -2.0630 C   0  0  0  0  0  0  0  0  0  0  0  0
   -2.5390    0.3320   -0.6930 N   0  0  0  0  0  0  0  0  0  0  0  0
   -3.3660   -0.4550    0.1500 C   0  0  0  0  0  0  0  0  0  0  0  0
   -4.3720   -1.0510   -0.3170 O   0  0  0  0  0  0  0  0  0  0  0  0
   -3.1770   -0.6550    1.6250 C   0  0  2  0  0  0  0  0  0  0  0  0
   -2.0620   -1.1240    2.1420 C   0  0  0  0  0  0  0  0  0  0  0  0
   -0.9390   -1.6080    2.6420 N   0  0  0  0  0  0  0  0  0  0  0  0
   -4.5920   -1.6240    2.1920 S   0  0  1  0  0  0  0  0  0  0  0  0
   -4.5620   -1.2880    3.9370 C   0  0  0  0  0  0  0  0  0  0  0  0
   -5.9940   -0.8580    1.5960 C   0  0  0  0  0  0  0  0  0  0  0  0
  2  1  1  6
  2  3  1  0
  2 17  1  0
  3  4  1  0
  4  5  2  0
  4  6  1  0
  6  7  2  0
  6 16  1  0
  7  8  1  0
  8  9  2  0
  8 13  1  0
  9 10  1  0
 10 11  2  0
 11 12  1  0
 12 13  2  0
 13 14  1  0
 14 15  2  0
 14 16  1  0
 17 18  2  0
 17 19  1  0
 19 20  1  0
 20 21  2  0
 20 25  1  0
 21 22  1  0
 22 23  2  0
 23 24  1  0
 24 25  2  0
 25 26  1  0
 26 27  1  0
 27 28  2  0
 27 29  1  0
 29 30  1  6
 29 32  1  0
 30 31  3  0
 32 33  1  1
 32 34  1  0
M  END
