
     RDKit          3D

 34 37  0  0  0  0  0  0  0  0999 V2000
    8.8120    0.8480   -3.8520 O   0  0  0  0  0  0  0  0  0  0  0  0
    7.9820    0.5180   -2.9680 C   0  0  0  0  0  0  0  0  0  0  0  0
    6.6370    0.3880   -3.2820 C   0  0  0  0  0  0  0  0  0  0  0  0
    5.6860    0.0230   -2.3260 C   0  0  0  0  0  0  0  0  0  0  0  0
    6.0820   -0.2130   -1.0430 C   0  0  0  0  0  0  0  0  0  0  0  0
    7.4390   -0.0750   -0.7540 C   0  0  0  0  0  0  0  0  0  0  0  0
    8.3340    0.2770   -1.6920 N   0  0  0  0  0  0  0  0  0  0  0  0
    7.8260   -0.3440    0.6600 C   0  0  0  0  0  0  0  0  0  0  0  0
    7.2610   -1.6870    1.0400 C   0  0  0  0  0  0  0  0  0  0  0  0
    5.8160   -1.8480    0.7070 C   0  0  0  0  0  0  0  0  0  0  0  0
    5.2210   -0.6020    0.0760 C   0  0  2  0  0  0  0  0  0  0  0  0
    3.8480   -0.8750   -0.3090 N   0  0  0  0  0  0  0  0  0  0  0  0
    3.1660    0.3780   -0.3850 C   0  0  0  0  0  0  0  0  0  0  0  0
    2.5690    0.7850    0.9230 C   0  0  0  0  0  0  0  0  0  0  0  0
    1.5380   -0.2290    1.3700 C   0  0  0  0  0  0  0  0  0  0  0  0
    0.9000    0.1450    2.6360 C   0  0  0  0  0  0  0  0  0  0  0  0
    0.1860    1.3680    2.9050 C   0  0  0  0  0  0  0  0  0  0  0  0
   -1.0210    1.7830    2.2480 C   0  0  0  0  0  0  0  0  0  0  0  0
   -1.1060    2.1680    0.8550 C   0  0  0  0  0  0  0  0  0  0  0  0
   -0.8340    1.3020   -0.2870 C   0  0  0  0  0  0  0  0  0  0  0  0
   -1.7100    0.0680   -0.2580 C   0  0  0  0  0  0  0  0  0  0  0  0
   -3.1490    0.5000   -0.3030 C   0  0  0  0  0  0  0  0  0  0  0  0
   -4.0580   -0.6340   -0.2900 N   0  0  0  0  0  0  0  0  0  0  0  0
   -5.1500   -0.4960   -1.2230 C   0  0  1  0  0  0  0  0  0  0  0  0
   -5.4350   -1.8400   -1.8190 C   0  0  0  0  0  0  0  0  0  0  0  0
   -6.9000   -2.0970   -2.0710 C   0  0  0  0  0  0  0  0  0  0  0  0
   -7.5860   -1.9930   -0.7020 C   0  0  0  0  0  0  0  0  0  0  0  0
   -7.5010   -0.5570   -0.3130 C   0  0  0  0  0  0  0  0  0  0  0  0
   -8.5680    0.0110    0.2740 N   0  0  0  0  0  0  0  0  0  0  0  0
   -8.5220    1.3240    0.6390 C   0  0  0  0  0  0  0  0  0  0  0  0
   -9.5380    1.8350    1.1900 O   0  0  0  0  0  0  0  0  0  0  0  0
   -7.3640    2.0170    0.3850 C   0  0  0  0  0  0  0  0  0  0  0  0
   -6.2520    1.4530   -0.2190 C   0  0  0  0  0  0  0  0  0  0  0  0
   -6.3230    0.1270   -0.5780 C   0  0  0  0  0  0  0  0  0  0  0  0
  1  2  2  0
  2  3  1  0
  2  7  1  0
  3  4  2  0
  4  5  1  0
  5  6  2  0
  5 11  1  0
  6  7  1  0
  6  8  1  0
  8  9  1  0
  9 10  1  0
 10 11  1  0
 11 12  1  6
 12 13  1  0
 13 14  1  0
 14 15  1  0
 15 16  1  0
 16 17  1  0
 17 18  1  0
 18 19  1  0
 19 20  1  0
 20 21  1  0
 21 22  1  0
 22 23  1  0
 24 23  1  1
 24 25  1  0
 24 34  1  0
 25 26  1  0
 26 27  1  0
 27 28  1  0
 28 29  1  0
 28 34  2  0
 29 30  1  0
 30 31  2  0
 30 32  1  0
 32 33  2  0
 33 34  1  0
M  CHG  2  12   1  23   1
M  END
