
     RDKit          3D

 37 41  0  0  0  0  0  0  0  0999 V2000
    6.0040    2.6390   -0.8850 C   0  0  0  0  0  0  0  0  0  0  0  0
    5.8480    1.2410   -1.3600 C   0  0  0  0  0  0  0  0  0  0  0  0
    6.4860    0.8410   -2.5010 C   0  0  0  0  0  0  0  0  0  0  0  0
    6.3240   -0.4600   -2.9180 C   0  0  0  0  0  0  0  0  0  0  0  0
    5.5410   -1.3490   -2.2150 C   0  0  0  0  0  0  0  0  0  0  0  0
    5.4170   -2.7370   -2.7290 C   0  0  0  0  0  0  0  0  0  0  0  0
    4.8720   -0.9700   -1.0410 C   0  0  0  0  0  0  0  0  0  0  0  0
    4.1150   -1.9150   -0.3430 N   0  0  0  0  0  0  0  0  0  0  0  0
    3.2360   -1.6930    0.7460 C   0  0  0  0  0  0  0  0  0  0  0  0
    3.2020   -2.7010    1.7130 C   0  0  0  0  0  0  0  0  0  0  0  0
    2.3460   -2.5510    2.7670 C   0  0  0  0  0  0  0  0  0  0  0  0
    1.5400   -1.4340    2.8700 C   0  0  0  0  0  0  0  0  0  0  0  0
    1.5520   -0.4280    1.9350 C   0  0  0  0  0  0  0  0  0  0  0  0
    0.6900    0.7310    2.0790 C   0  0  0  0  0  0  0  0  0  0  0  0
   -0.6690    0.5830    1.4380 C   0  0  2  0  0  0  0  0  0  0  0  0
   -1.4120    1.8790    1.6930 C   0  0  0  0  0  0  0  0  0  0  0  0
   -2.0260    2.3970    0.4340 C   0  0  0  0  0  0  0  0  0  0  0  0
   -3.3700    2.8390    0.6970 N   0  0  0  0  0  0  0  0  0  0  0  0
   -4.1130    2.5550   -0.5000 C   0  0  0  0  0  0  0  0  0  0  0  0
   -3.8270    3.3800   -1.5760 C   0  0  0  0  0  0  0  0  0  0  0  0
   -4.4430    3.2530   -2.8080 C   0  0  0  0  0  0  0  0  0  0  0  0
   -5.3850    2.2610   -2.9780 C   0  0  0  0  0  0  0  0  0  0  0  0
   -5.6580    1.4540   -1.9090 C   0  0  0  0  0  0  0  0  0  0  0  0
   -5.0360    1.5790   -0.6560 C   0  0  0  0  0  0  0  0  0  0  0  0
   -5.4750    0.6190    0.3600 C   0  0  0  0  0  0  0  0  0  0  0  0
   -4.4780   -0.3000    0.9280 C   0  0  0  0  0  0  0  0  0  0  0  0
   -3.8610   -1.2290   -0.0440 C   0  0  0  0  0  0  0  0  0  0  0  0
   -4.3150   -1.6410   -1.2400 N   0  0  0  0  0  0  0  0  0  0  0  0
   -3.4440   -2.4880   -1.7590 N   0  0  0  0  0  0  0  0  0  0  0  0
   -2.4130   -2.6590   -0.9440 C   0  0  0  0  0  0  0  0  0  0  0  0
   -1.2580   -3.5610   -1.2230 C   0  0  0  0  0  0  0  0  0  0  0  0
   -2.6550   -1.8540    0.1780 C   0  0  0  0  0  0  0  0  0  0  0  0
   -1.8190   -1.6890    1.3530 C   0  0  0  0  0  0  0  0  0  0  0  0
   -1.3790   -2.7850    1.8740 O   0  0  0  0  0  0  0  0  0  0  0  0
   -1.4330   -0.4990    1.9890 N   0  0  0  0  0  0  0  0  0  0  0  0
    2.4270   -0.5870    0.8610 C   0  0  0  0  0  0  0  0  0  0  0  0
    5.0630    0.3350   -0.6620 C   0  0  0  0  0  0  0  0  0  0  0  0
  1  2  1  0
  2  3  2  0
  2 37  1  0
  3  4  1  0
  4  5  2  0
  5  6  1  0
  5  7  1  0
  7  8  1  0
  7 37  2  0
  8  9  1  0
  9 10  2  0
  9 36  1  0
 10 11  1  0
 11 12  2  0
 12 13  1  0
 13 14  1  0
 13 36  2  0
 15 14  1  1
 15 16  1  0
 15 35  1  0
 16 17  1  0
 17 18  1  0
 18 19  1  0
 19 20  2  0
 19 24  1  0
 20 21  1  0
 21 22  2  0
 22 23  1  0
 23 24  2  0
 24 25  1  0
 25 26  1  0
 26 27  1  0
 27 28  1  0
 27 32  2  0
 28 29  1  0
 29 30  2  0
 30 31  1  0
 30 32  1  0
 32 33  1  0
 33 34  2  0
 33 35  1  0
M  CHG  1  18   1
M  END
