
     RDKit          3D

 37 40  0  0  0  0  0  0  0  0999 V2000
    3.3940    1.5730   -0.4250 O   0  0  0  0  0  0  0  0  0  0  0  0
    2.7800    0.5120   -0.2750 C   0  0  0  0  0  0  0  0  0  0  0  0
    1.5630    0.3630   -1.0150 N   0  0  0  0  0  0  0  0  0  0  0  0
    1.0830    1.4170   -1.8940 C   0  0  0  0  0  0  0  0  0  0  0  0
   -0.2440    0.9760   -2.5530 C   0  0  0  0  0  0  0  0  0  0  0  0
    0.1130   -0.2250   -3.2880 N   0  0  0  0  0  0  0  0  0  0  0  0
    1.0290   -0.1960   -4.4030 C   0  0  0  0  0  0  0  0  0  0  0  0
    1.1950   -1.4260   -4.8150 C   0  0  0  0  0  0  0  0  0  0  0  0
    0.4700   -2.3440   -4.0630 N   0  0  0  0  0  0  0  0  0  0  0  0
   -0.2640   -1.5550   -3.0890 C   0  0  0  0  0  0  0  0  0  0  0  0
   -1.1700   -2.1090   -2.2960 C   0  0  0  0  0  0  0  0  0  0  0  0
   -2.0710   -1.4880   -1.3830 C   0  0  0  0  0  0  0  0  0  0  0  0
   -3.0390   -0.6200   -1.8300 C   0  0  0  0  0  0  0  0  0  0  0  0
   -3.9440   -0.0010   -0.9630 C   0  0  0  0  0  0  0  0  0  0  0  0
   -3.9220   -0.2240    0.3900 C   0  0  0  0  0  0  0  0  0  0  0  0
   -4.8580    0.4170    1.3010 C   0  0  0  0  0  0  0  0  0  0  0  0
   -5.7670    1.2710    0.9010 C   0  0  0  0  0  0  0  0  0  0  0  0
   -6.7360    1.9530    1.7530 C   0  0  1  0  0  0  0  0  0  0  0  0
   -6.4460    3.3310    1.6790 F   0  0  0  0  0  0  0  0  0  0  0  0
   -8.0280    1.7810    1.2110 F   0  0  0  0  0  0  0  0  0  0  0  0
   -6.7230    1.5960    3.1770 C   0  0  0  0  0  0  0  0  0  0  0  0
   -5.6930    0.6460    3.5770 C   0  0  0  0  0  0  0  0  0  0  0  0
   -5.6260    0.3110    4.9210 F   0  0  0  0  0  0  0  0  0  0  0  0
   -4.8480    0.1120    2.7290 C   0  0  0  0  0  0  0  0  0  0  0  0
   -2.9390   -1.1020    0.8280 C   0  0  0  0  0  0  0  0  0  0  0  0
   -2.0400   -1.7200   -0.0130 C   0  0  0  0  0  0  0  0  0  0  0  0
    3.2690   -0.4910    0.5870 N   0  0  0  0  0  0  0  0  0  0  0  0
    4.4430   -0.4540    1.3570 C   0  0  0  0  0  0  0  0  0  0  0  0
    5.3530    0.5760    1.3910 C   0  0  0  0  0  0  0  0  0  0  0  0
    6.5120    0.5430    2.1890 C   0  0  0  0  0  0  0  0  0  0  0  0
    7.6100    1.9150    2.1570 S   0  0  2  0  0  0  0  0  0  0  0  0
    7.2130    2.8780    3.2440 O   0  0  0  0  0  0  0  0  0  0  0  0
    7.4830    2.6600    0.8480 O   0  0  0  0  0  0  0  0  0  0  0  0
    6.7710   -0.5570    2.9830 C   0  0  0  0  0  0  0  0  0  0  0  0
    5.8720   -1.6000    2.9630 C   0  0  0  0  0  0  0  0  0  0  0  0
    4.7420   -1.5430    2.1710 C   0  0  0  0  0  0  0  0  0  0  0  0
    3.8550   -2.5920    2.1650 F   0  0  0  0  0  0  0  0  0  0  0  0
  1  2  2  0
  2  3  1  0
  2 27  1  0
  3  4  1  0
  4  5  1  0
  5  6  1  0
  6  7  1  0
  6 10  1  0
  7  8  2  0
  8  9  1  0
  9 10  1  0
 10 11  2  3
 11 12  1  0
 12 13  2  0
 12 26  1  0
 13 14  1  0
 14 15  2  0
 15 16  1  0
 15 25  1  0
 16 17  2  0
 16 24  1  0
 17 18  1  0
 18 19  1  1
 18 20  1  0
 18 21  1  0
 21 22  1  0
 22 23  1  0
 22 24  2  0
 25 26  2  0
 27 28  1  0
 28 29  2  0
 28 36  1  0
 29 30  1  0
 31 30  1  6
 30 34  2  0
 31 32  2  0
 31 33  2  0
 34 35  1  0
 35 36  2  0
 36 37  1  0
M  CHG  1   9   1
M  END
