
     RDKit          3D

 10  9  0  0  0  0  0  0  0  0999 V2000
   -2.2020    0.9020    1.3360 O   0  0  0  0  0  0  0  0  0  0  0  0
   -2.3500    0.0990    0.3890 C   0  0  0  0  0  0  0  0  0  0  0  0
   -3.6390   -0.2010   -0.0150 O   0  0  0  0  0  0  0  0  0  0  0  0
   -1.1470   -0.4800   -0.2410 C   0  0  0  0  0  0  0  0  0  0  0  0
    0.0340    0.0360    0.4110 N   0  0  0  0  0  0  0  0  0  0  0  0
    1.3550   -0.3300    0.0350 C   0  0  0  0  0  0  0  0  0  0  0  0
    1.4840   -1.1450   -0.9140 O   0  0  0  0  0  0  0  0  0  0  0  0
    2.5220    0.2220    0.7290 C   0  0  0  0  0  0  0  0  0  0  0  0
    2.3860    1.0340    1.6750 O   0  0  0  0  0  0  0  0  0  0  0  0
    3.8080   -0.1380    0.3590 O   0  0  0  0  0  0  0  0  0  0  0  0
  1  2  2  0
  2  3  1  0
  2  4  1  0
  4  5  1  0
  5  6  1  0
  6  7  2  0
  6  8  1  0
  8  9  2  0
  8 10  1  0
M  END
