
     RDKit          3D

 22 24  0  0  0  0  0  0  0  0999 V2000
    0.4000    4.1260    1.2850 C   0  0  0  0  0  0  0  0  0  0  0  0
   -0.4730    3.1700    0.8980 C   0  0  0  0  0  0  0  0  0  0  0  0
    0.0600    1.9740    0.3160 C   0  0  0  0  0  0  0  0  0  0  0  0
   -0.5450    0.9170   -0.1350 C   0  0  0  0  0  0  0  0  0  0  0  0
   -2.0050    0.5230   -0.2340 C   0  0  2  0  0  0  0  0  0  0  0  0
   -2.9510    1.5060    0.1120 N   0  0  0  0  0  0  0  0  0  0  0  0
   -1.9660   -0.6850    0.6070 C   0  0  2  0  0  0  0  0  0  0  0  0
   -0.7800   -1.3110   -0.0440 C   0  0  0  0  0  0  0  0  0  0  0  0
   -0.7380   -2.5740    0.0040 C   0  0  0  0  0  0  0  0  0  0  0  0
   -1.9460   -3.0600    0.7060 C   0  0  0  0  0  0  0  0  0  0  0  0
   -2.8840   -1.8140    0.4930 C   0  0  2  0  0  0  0  0  0  0  0  0
   -3.6880   -1.9280   -0.7370 C   0  0  0  0  0  0  0  0  0  0  0  0
   -3.7390   -1.8380    1.5940 O   0  0  0  0  0  0  0  0  0  0  0  0
    0.4290   -3.0740   -0.6110 O   0  0  0  0  0  0  0  0  0  0  0  0
    1.3450   -2.2040   -1.1560 C   0  0  0  0  0  0  0  0  0  0  0  0
    2.0990   -2.4870   -2.0630 O   0  0  0  0  0  0  0  0  0  0  0  0
    1.4190   -0.7420   -0.5620 C   0  0  1  0  0  0  0  0  0  0  0  0
    2.3260   -0.0570   -1.2930 O   0  0  0  0  0  0  0  0  0  0  0  0
    3.5740    0.1620   -0.8430 C   0  0  0  0  0  0  0  0  0  0  0  0
    3.7770    0.9150    0.4340 C   0  0  0  0  0  0  0  0  0  0  0  0
    5.3060    0.9480    0.6490 C   0  0  0  0  0  0  0  0  0  0  0  0
    0.0660   -0.2960   -0.7130 C   0  0  2  0  0  0  0  0  0  0  0  0
  1  2  2  0
  2  3  1  0
  3  4  2  3
  4  5  1  0
 22  4  1  1
  5  6  1  1
  5  7  1  0
  7  8  1  6
  7 11  1  0
  8  9  2  0
  8 22  1  0
  9 10  1  0
  9 14  1  0
 10 11  1  0
 11 12  1  6
 11 13  1  0
 14 15  1  0
 15 16  2  0
 15 17  1  0
 17 18  1  6
 17 22  1  0
 18 19  1  0
 19 20  1  0
 20 21  1  0
M  CHG  1   6   1
M  END
