
     RDKit          3D

 15 15  0  0  0  0  0  0  0  0999 V2000
    3.9020   -1.4310    0.3670 O   0  0  0  0  0  0  0  0  0  0  0  0
    2.6020   -1.1590    0.7410 C   0  0  0  0  0  0  0  0  0  0  0  0
    1.9840   -0.0610   -0.0870 C   0  0  2  0  0  0  0  0  0  0  0  0
    2.7590    1.2220    0.0990 C   0  0  0  0  0  0  0  0  0  0  0  0
    4.0770    1.0980   -0.3200 O   0  0  0  0  0  0  0  0  0  0  0  0
    0.6850    0.1470    0.3530 O   0  0  0  0  0  0  0  0  0  0  0  0
   -0.2300   -0.0790   -0.6460 C   0  0  0  0  0  0  0  0  0  0  0  0
   -1.6290    0.1570   -0.1300 C   0  0  1  0  0  0  0  0  0  0  0  0
   -1.7400    1.5040    0.5120 C   0  0  0  0  0  0  0  0  0  0  0  0
   -1.5700    2.5350   -0.3870 O   0  0  0  0  0  0  0  0  0  0  0  0
   -2.5580   -0.0670   -1.1250 O   0  0  0  0  0  0  0  0  0  0  0  0
   -2.9620   -1.3870   -1.0320 C   0  0  0  0  0  0  0  0  0  0  0  0
   -2.2680   -1.9770    0.0030 O   0  0  0  0  0  0  0  0  0  0  0  0
   -2.0410   -0.9070    0.8720 C   0  0  2  0  0  0  0  0  0  0  0  0
   -3.2830   -0.5340    1.3770 O   0  0  0  0  0  0  0  0  0  0  0  0
  1  2  1  0
  3  2  1  1
  3  4  1  0
  3  6  1  0
  4  5  1  0
  6  7  1  0
  8  7  1  6
  8  9  1  0
  8 11  1  0
  8 14  1  0
  9 10  1  0
 11 12  1  0
 12 13  1  0
 13 14  1  0
 14 15  1  6
M  END
