
     RDKit          3D

 22 24  0  0  0  0  0  0  0  0999 V2000
   -0.1480   -2.6010    1.9410 C   0  0  0  0  0  0  0  0  0  0  0  0
    0.5310   -1.9490    0.7240 C   0  0  1  0  0  0  0  0  0  0  0  0
    0.3460   -2.9370   -0.3990 C   0  0  0  0  0  0  0  0  0  0  0  0
   -1.0470   -3.1360   -0.7270 N   0  0  0  0  0  0  0  0  0  0  0  0
   -1.8320   -1.9320   -0.5010 C   0  0  0  0  0  0  0  0  0  0  0  0
   -0.9530   -0.7200   -0.7390 C   0  0  1  0  0  0  0  0  0  0  0  0
   -1.7100    0.4190   -1.2720 C   0  0  0  0  0  0  0  0  0  0  0  0
   -2.8660    1.0060   -0.5960 C   0  0  1  0  0  0  0  0  0  0  0  0
   -2.7710    1.6110    0.7460 C   0  0  0  0  0  0  0  0  0  0  0  0
   -3.8920    2.6810    0.6930 C   0  0  0  0  0  0  0  0  0  0  0  0
   -4.3840    2.6670   -0.5830 O   0  0  0  0  0  0  0  0  0  0  0  0
   -3.4010    2.2150   -1.4220 C   0  0  0  0  0  0  0  0  0  0  0  0
   -0.0410   -0.5750    0.4110 C   0  0  1  0  0  0  0  0  0  0  0  0
   -0.8690   -0.3170    1.5130 O   0  0  0  0  0  0  0  0  0  0  0  0
    0.9190    0.5290    0.3790 C   0  0  0  0  0  0  0  0  0  0  0  0
    2.0590    0.7020   -0.4860 C   0  0  2  0  0  0  0  0  0  0  0  0
    1.8430    0.7610   -1.9760 C   0  0  0  0  0  0  0  0  0  0  0  0
    3.1560   -0.2970   -0.2740 C   0  0  0  0  0  0  0  0  0  0  0  0
    4.3250    0.1930   -0.8830 O   0  0  0  0  0  0  0  0  0  0  0  0
    4.8230    1.1110    0.0480 C   0  0  0  0  0  0  0  0  0  0  0  0
    3.7240    2.0160    0.5390 C   0  0  0  0  0  0  0  0  0  0  0  0
    2.5950    1.9850   -0.2240 O   0  0  0  0  0  0  0  0  0  0  0  0
  2  1  1  1
  2  3  1  0
  2 13  1  0
  3  4  1  0
  4  5  1  0
  5  6  1  0
  6  7  1  1
  6 13  1  0
  8  7  1  6
  8  9  1  0
  8 12  1  0
  9 10  1  0
 10 11  1  0
 11 12  1  0
 13 14  1  1
 13 15  1  0
 15 16  1  0
 16 17  1  6
 16 18  1  0
 16 22  1  0
 18 19  1  0
 19 20  1  0
 20 21  1  0
 21 22  1  0
M  CHG  1   4   1
M  END
