
     RDKit          3D

 15 15  0  0  0  0  0  0  0  0999 V2000
    2.6970    2.1380   -1.3740 O   0  0  0  0  0  0  0  0  0  0  0  0
    3.2250    0.8870   -1.1360 C   0  0  0  0  0  0  0  0  0  0  0  0
    2.6440    0.2360    0.1140 C   0  0  1  0  0  0  0  0  0  0  0  0
    2.9480    1.0810    1.1890 O   0  0  0  0  0  0  0  0  0  0  0  0
    1.2620    0.0930   -0.0030 O   0  0  0  0  0  0  0  0  0  0  0  0
    0.9960   -1.2840    0.0570 C   0  0  0  0  0  0  0  0  0  0  0  0
   -0.4860   -1.5640   -0.0600 C   0  0  2  0  0  0  0  0  0  0  0  0
   -0.6790   -2.9220    0.0050 O   0  0  0  0  0  0  0  0  0  0  0  0
   -1.0770   -0.9480   -1.3030 C   0  0  0  0  0  0  0  0  0  0  0  0
   -2.3130   -0.3740   -0.9490 O   0  0  0  0  0  0  0  0  0  0  0  0
   -2.1180    0.7390   -0.1260 C   0  0  1  0  0  0  0  0  0  0  0  0
   -3.4000    1.0060    0.6690 C   0  0  0  0  0  0  0  0  0  0  0  0
   -3.1620    2.1160    1.4700 O   0  0  0  0  0  0  0  0  0  0  0  0
   -1.1130    0.5120    0.8140 O   0  0  0  0  0  0  0  0  0  0  0  0
   -1.1450   -0.8470    1.1250 C   0  0  0  0  0  0  0  0  0  0  0  0
  1  2  1  0
  2  3  1  0
  3  4  1  1
  3  5  1  0
  5  6  1  0
  6  7  1  0
  7  8  1  1
  7  9  1  0
  7 15  1  0
  9 10  1  0
 10 11  1  0
 11 12  1  1
 11 14  1  0
 12 13  1  0
 14 15  1  0
M  END
