
     RDKit          3D

 22 24  0  0  0  0  0  0  0  0999 V2000
    4.1630    3.2230   -0.8670 C   0  0  0  0  0  0  0  0  0  0  0  0
    3.4900    2.0880   -1.2970 O   0  0  0  0  0  0  0  0  0  0  0  0
    2.9220    1.4710   -0.1800 C   0  0  1  0  0  0  0  0  0  0  0  0
    1.4520    1.4910   -0.2270 C   0  0  0  0  0  0  0  0  0  0  0  0
    0.7130    0.3530   -0.1220 C   0  0  0  0  0  0  0  0  0  0  0  0
    1.3960   -0.8990    0.0390 C   0  0  0  0  0  0  0  0  0  0  0  0
    2.7330   -0.9580    0.0870 C   0  0  0  0  0  0  0  0  0  0  0  0
    3.3510   -2.2850    0.2540 C   0  0  0  0  0  0  0  0  0  0  0  0
    3.4540    0.1790   -0.0190 O   0  0  0  0  0  0  0  0  0  0  0  0
    0.6790   -2.1880    0.1630 C   0  0  0  0  0  0  0  0  0  0  0  0
   -0.6530   -1.8430    0.7780 C   0  0  0  0  0  0  0  0  0  0  0  0
   -1.4190   -0.9030   -0.1010 C   0  0  1  0  0  0  0  0  0  0  0  0
   -1.5910   -1.5330   -1.4580 C   0  0  0  0  0  0  0  0  0  0  0  0
   -2.3190   -2.8240   -1.4460 C   0  0  0  0  0  0  0  0  0  0  0  0
   -3.6080   -2.7100   -0.9320 O   0  0  0  0  0  0  0  0  0  0  0  0
   -2.7220   -0.6260    0.4830 N   0  0  0  0  0  0  0  0  0  0  0  0
   -2.5450    0.5170    1.3240 C   0  0  0  0  0  0  0  0  0  0  0  0
   -1.4200    1.3150    0.7700 C   0  0  1  0  0  0  0  0  0  0  0  0
   -2.0380    2.4790    0.0170 C   0  0  0  0  0  0  0  0  0  0  0  0
   -0.5440    1.9400    1.8310 C   0  0  0  0  0  0  0  0  0  0  0  0
   -0.7390    0.4260   -0.1750 C   0  0  1  0  0  0  0  0  0  0  0  0
   -1.0230    0.8990   -1.4930 O   0  0  0  0  0  0  0  0  0  0  0  0
  1  2  1  0
  3  2  1  6
  3  4  1  0
  3  9  1  0
  4  5  2  0
  5  6  1  0
  5 21  1  0
  6  7  2  0
  6 10  1  0
  7  8  1  0
  7  9  1  0
 10 11  1  0
 11 12  1  0
 12 13  1  6
 12 16  1  0
 12 21  1  0
 13 14  1  0
 14 15  1  0
 16 17  1  0
 17 18  1  0
 18 19  1  6
 18 20  1  0
 18 21  1  0
 21 22  1  6
M  CHG  1  16   1
M  END
