
     RDKit          3D

 19 20  0  0  0  0  0  0  0  0999 V2000
   -3.9690    0.3090    0.2910 C   0  0  0  0  0  0  0  0  0  0  0  0
   -2.7910    0.0880    0.8190 C   0  0  0  0  0  0  0  0  0  0  0  0
   -2.6850   -0.2120    2.2950 C   0  0  0  0  0  0  0  0  0  0  0  0
   -1.4820    0.4540    2.8700 C   0  0  0  0  0  0  0  0  0  0  0  0
   -0.8280    1.4230    1.9130 C   0  0  0  0  0  0  0  0  0  0  0  0
   -0.3830    0.7570    0.6290 C   0  0  1  0  0  0  0  0  0  0  0  0
    0.6620   -0.1960    0.9500 N   0  0  0  0  0  0  0  0  0  0  0  0
    1.3060   -0.9970   -0.0070 C   0  0  0  0  0  0  0  0  0  0  0  0
    0.8890   -2.3970   -0.1960 C   0  0  0  0  0  0  0  0  0  0  0  0
    2.2780   -0.5200   -0.7400 C   0  0  0  0  0  0  0  0  0  0  0  0
    2.7950    0.8440   -0.6610 C   0  0  0  0  0  0  0  0  0  0  0  0
    3.7730    0.9910   -1.5400 C   0  0  0  0  0  0  0  0  0  0  0  0
    4.5250    2.2590   -1.7280 C   0  0  0  0  0  0  0  0  0  0  0  0
    3.9620   -0.2000   -2.2250 O   0  0  0  0  0  0  0  0  0  0  0  0
    3.0740   -1.1640   -1.7780 C   0  0  0  0  0  0  0  0  0  0  0  0
    2.9170   -2.3570   -2.1310 O   0  0  0  0  0  0  0  0  0  0  0  0
   -1.5670    0.1100    0.0340 C   0  0  0  0  0  0  0  0  0  0  0  0
   -1.5120   -0.4340   -1.1550 C   0  0  0  0  0  0  0  0  0  0  0  0
   -2.5770   -1.1250   -1.8860 C   0  0  0  0  0  0  0  0  0  0  0  0
  1  2  2  0
  2  3  1  0
  2 17  1  0
  3  4  1  0
  4  5  1  0
  5  6  1  0
  6  7  1  1
  6 17  1  0
  7  8  1  0
  8  9  1  0
  8 10  2  3
 10 11  1  0
 10 15  1  0
 11 12  2  0
 12 13  1  0
 12 14  1  0
 14 15  1  0
 15 16  2  0
 17 18  2  3
 18 19  1  0
M  END
