
     RDKit          3D

 19 20  0  0  0  0  0  0  0  0999 V2000
    3.6330    0.3050    1.9950 C   0  0  0  0  0  0  0  0  0  0  0  0
    3.8090   -0.5850    0.8720 C   0  0  0  0  0  0  0  0  0  0  0  0
    3.3130   -0.6280   -0.3270 C   0  0  0  0  0  0  0  0  0  0  0  0
    3.7830   -1.7540   -1.2150 C   0  0  0  0  0  0  0  0  0  0  0  0
    3.4530   -1.5330   -2.6330 C   0  0  0  0  0  0  0  0  0  0  0  0
    2.7070   -0.5350   -3.0510 C   0  0  0  0  0  0  0  0  0  0  0  0
    2.1530    0.4560   -2.1570 C   0  0  0  0  0  0  0  0  0  0  0  0
    1.3590    1.5860   -2.6820 C   0  0  0  0  0  0  0  0  0  0  0  0
    2.4330    0.3850   -0.8540 C   0  0  0  0  0  0  0  0  0  0  0  0
    1.8410    1.3030   -0.0550 O   0  0  0  0  0  0  0  0  0  0  0  0
    0.7530    1.0930    0.7680 C   0  0  0  0  0  0  0  0  0  0  0  0
   -0.5160    0.6410    0.2290 C   0  0  0  0  0  0  0  0  0  0  0  0
   -0.7060    0.3330   -0.9470 O   0  0  0  0  0  0  0  0  0  0  0  0
   -1.6860    0.5240    1.0930 N   0  0  0  0  0  0  0  0  0  0  0  0
   -2.9370    0.0840    0.5820 C   0  0  2  0  0  0  0  0  0  0  0  0
   -4.0850    1.0460    0.9190 C   0  0  0  0  0  0  0  0  0  0  0  0
   -5.2650    0.2170    0.4560 C   0  0  0  0  0  0  0  0  0  0  0  0
   -4.9340   -1.1480    0.9950 C   0  0  0  0  0  0  0  0  0  0  0  0
   -3.4580   -1.1730    1.2870 C   0  0  0  0  0  0  0  0  0  0  0  0
  1  2  1  0
  2  3  2  3
  3  4  1  0
  3  9  1  0
  4  5  1  0
  5  6  2  0
  6  7  1  0
  7  8  1  0
  7  9  2  0
  9 10  1  0
 10 11  1  0
 11 12  1  0
 12 13  2  0
 12 14  1  0
 15 14  1  1
 15 16  1  0
 15 19  1  0
 16 17  1  0
 17 18  1  0
 18 19  1  0
M  END
