
     RDKit          3D

 19 20  0  0  0  0  0  0  0  0999 V2000
   -1.7270   -1.7320    1.6650 C   0  0  0  0  0  0  0  0  0  0  0  0
   -2.0640   -1.2610    0.3120 C   0  0  0  0  0  0  0  0  0  0  0  0
   -1.2520   -0.6690   -0.5300 C   0  0  0  0  0  0  0  0  0  0  0  0
    0.1610   -0.4430   -0.1160 C   0  0  0  0  0  0  0  0  0  0  0  0
    0.9020   -1.4230    0.2470 C   0  0  0  0  0  0  0  0  0  0  0  0
    2.3310   -1.3870    0.7240 C   0  0  0  0  0  0  0  0  0  0  0  0
    0.5250   -2.8670   -0.0410 C   0  0  0  0  0  0  0  0  0  0  0  0
   -0.6060   -3.0920   -0.7210 O   0  0  0  0  0  0  0  0  0  0  0  0
    0.6340    0.9070   -0.3590 N   0  0  0  0  0  0  0  0  0  0  0  0
    1.9210    1.3930   -0.0420 C   0  0  0  0  0  0  0  0  0  0  0  0
    1.9590    2.0610    1.3270 C   0  0  0  0  0  0  0  0  0  0  0  0
    3.3070    2.5640    1.7060 C   0  0  0  0  0  0  0  0  0  0  0  0
   -0.2980    1.8200   -0.9760 C   0  0  0  0  0  0  0  0  0  0  0  0
    0.0230    3.0370   -1.2190 O   0  0  0  0  0  0  0  0  0  0  0  0
   -1.6440    1.4440   -1.3610 C   0  0  0  0  0  0  0  0  0  0  0  0
   -2.8230    1.9960   -1.4710 C   0  0  0  0  0  0  0  0  0  0  0  0
   -3.7860    0.9960   -1.9260 C   0  0  0  0  0  0  0  0  0  0  0  0
   -3.1480   -0.1790   -2.0920 C   0  0  0  0  0  0  0  0  0  0  0  0
   -1.7490   -0.0480   -1.7770 C   0  0  2  0  0  0  0  0  0  0  0  0
  1  2  1  0
  2  3  2  3
  3  4  1  0
  3 19  1  0
  4  5  2  3
  4  9  1  0
  5  6  1  0
  5  7  1  0
  7  8  1  0
  9 10  1  0
  9 13  1  0
 10 11  1  0
 11 12  1  0
 13 14  2  0
 13 15  1  0
 15 16  2  0
 15 19  1  0
 16 17  1  0
 17 18  2  0
 19 18  1  1
M  END
