
     RDKit          3D

 19 20  0  0  0  0  0  0  0  0999 V2000
    6.2030    0.3800    0.2380 C   0  0  0  0  0  0  0  0  0  0  0  0
    5.1030   -0.2400    0.9960 C   0  0  0  0  0  0  0  0  0  0  0  0
    4.0390   -0.7150    0.3670 C   0  0  0  0  0  0  0  0  0  0  0  0
    3.9800   -0.6090   -1.1020 C   0  0  0  0  0  0  0  0  0  0  0  0
    2.9900   -1.3450    1.1870 C   0  0  0  0  0  0  0  0  0  0  0  0
    1.6920   -0.7330    1.1720 N   0  0  0  0  0  0  0  0  0  0  0  0
    0.8420   -0.6180    0.0640 C   0  0  0  0  0  0  0  0  0  0  0  0
    1.1510   -1.0670   -1.0430 O   0  0  0  0  0  0  0  0  0  0  0  0
   -0.4520    0.0520    0.2150 C   0  0  0  0  0  0  0  0  0  0  0  0
   -0.9440    0.5840    1.2990 C   0  0  0  0  0  0  0  0  0  0  0  0
   -2.2570    1.1600    1.0660 C   0  0  0  0  0  0  0  0  0  0  0  0
   -3.0010    1.7880    2.0500 O   0  0  0  0  0  0  0  0  0  0  0  0
   -4.1050    1.1830    2.6910 C   0  0  0  0  0  0  0  0  0  0  0  0
   -2.5630    0.9710   -0.1880 C   0  0  0  0  0  0  0  0  0  0  0  0
   -3.7460    1.3220   -1.0200 C   0  0  0  0  0  0  0  0  0  0  0  0
   -4.2290    0.0510   -1.6870 C   0  0  0  0  0  0  0  0  0  0  0  0
   -3.1160   -0.7180   -2.3410 C   0  0  0  0  0  0  0  0  0  0  0  0
   -2.0280   -1.0700   -1.3490 C   0  0  0  0  0  0  0  0  0  0  0  0
   -1.4630    0.2580   -0.8450 C   0  0  2  0  0  0  0  0  0  0  0  0
  1  2  1  0
  2  3  2  3
  3  4  1  0
  3  5  1  0
  5  6  1  0
  6  7  1  0
  7  8  2  0
  7  9  1  0
  9 10  2  0
  9 19  1  0
 10 11  1  0
 11 12  1  0
 11 14  2  0
 12 13  1  0
 14 15  1  0
 14 19  1  0
 15 16  1  0
 16 17  1  0
 17 18  1  0
 19 18  1  1
M  END
