
     RDKit          3D

 19 21  0  0  0  0  0  0  0  0999 V2000
   -2.0970    1.9480   -0.4070 N   0  0  0  0  0  0  0  0  0  0  0  0
   -1.2570    0.9640   -0.8910 C   0  0  0  0  0  0  0  0  0  0  0  0
   -0.9750    0.8270   -2.1050 O   0  0  0  0  0  0  0  0  0  0  0  0
   -0.6210   -0.0800    0.1180 C   0  0  1  0  0  0  0  0  0  0  0  0
   -1.5370   -0.1270    1.1630 N   0  0  0  0  0  0  0  0  0  0  0  0
   -2.5700   -1.0290    1.3670 C   0  0  0  0  0  0  0  0  0  0  0  0
   -2.6750   -2.0940    0.5650 C   0  0  0  0  0  0  0  0  0  0  0  0
   -1.7050   -2.2470   -0.4960 C   0  0  0  0  0  0  0  0  0  0  0  0
   -0.7660   -1.3650   -0.7050 C   0  0  0  0  0  0  0  0  0  0  0  0
    0.1660   -1.5710   -1.7020 O   0  0  0  0  0  0  0  0  0  0  0  0
    1.5190   -1.1560   -1.5810 C   0  0  0  0  0  0  0  0  0  0  0  0
    1.7330   -0.1270   -0.5880 C   0  0  0  0  0  0  0  0  0  0  0  0
    0.7470    0.3170    0.2650 C   0  0  0  0  0  0  0  0  0  0  0  0
    1.0790    1.2350    1.1850 N   0  0  0  0  0  0  0  0  0  0  0  0
    2.3480    1.7330    1.2930 C   0  0  0  0  0  0  0  0  0  0  0  0
    2.6360    2.5830    2.1370 O   0  0  0  0  0  0  0  0  0  0  0  0
    3.3100    1.2910    0.4470 N   0  0  0  0  0  0  0  0  0  0  0  0
    3.0470    0.3700   -0.5000 C   0  0  0  0  0  0  0  0  0  0  0  0
    3.9380   -0.0250   -1.2900 O   0  0  0  0  0  0  0  0  0  0  0  0
  1  2  1  0
  2  3  2  0
  4  2  1  6
  4  5  1  0
  4  9  1  0
  4 13  1  0
  5  6  1  0
  6  7  2  0
  7  8  1  0
  8  9  2  0
  9 10  1  0
 10 11  1  0
 11 12  1  0
 12 13  2  0
 12 18  1  0
 13 14  1  0
 14 15  1  0
 15 16  2  0
 15 17  1  0
 17 18  1  0
 18 19  2  0
M  END
