
     RDKit          3D

  9  9  0  0  0  0  0  0  0  0999 V2000
    2.7970   -0.3610   -0.1340 C   0  0  0  0  0  0  0  0  0  0  0  0
    1.8590   -0.7540    0.8730 N   0  0  0  0  0  0  0  0  0  0  0  0
    0.5000   -0.9650    0.5310 C   0  0  0  0  0  0  0  0  0  0  0  0
   -0.3130    0.0100    0.1850 C   0  0  0  0  0  0  0  0  0  0  0  0
   -0.0100    1.4260    0.0860 C   0  0  0  0  0  0  0  0  0  0  0  0
   -1.1310    2.0260   -0.2960 C   0  0  0  0  0  0  0  0  0  0  0  0
   -2.1940    1.0660   -0.4610 C   0  0  0  0  0  0  0  0  0  0  0  0
   -1.7140   -0.1320   -0.1780 C   0  0  0  0  0  0  0  0  0  0  0  0
   -2.4400   -1.3550   -0.2180 N   0  0  0  0  0  0  0  0  0  0  0  0
  1  2  1  0
  2  3  1  0
  3  4  2  3
  4  5  1  0
  4  8  1  0
  5  6  2  0
  6  7  1  0
  7  8  2  0
  8  9  1  0
M  END
