
     RDKit          3D

  9  9  0  0  0  0  0  0  0  0999 V2000
   -3.0910   -0.1350   -0.9070 N   0  0  0  0  0  0  0  0  0  0  0  0
   -2.2240    0.3790    0.0920 C   0  0  0  0  0  0  0  0  0  0  0  0
   -1.1280   -0.5610    0.3260 C   0  0  0  0  0  0  0  0  0  0  0  0
    0.1300   -0.2470    0.1400 C   0  0  0  0  0  0  0  0  0  0  0  0
    0.6390    1.0310   -0.3120 C   0  0  0  0  0  0  0  0  0  0  0  0
    1.9400    1.2610   -0.4710 C   0  0  0  0  0  0  0  0  0  0  0  0
    2.9400    0.2430   -0.2000 C   0  0  0  0  0  0  0  0  0  0  0  0
    2.4980   -0.9270    0.2120 C   0  0  0  0  0  0  0  0  0  0  0  0
    1.1470   -1.2480    0.4040 N   0  0  0  0  0  0  0  0  0  0  0  0
  1  2  1  0
  2  3  1  0
  3  4  2  3
  4  5  1  0
  4  9  1  0
  5  6  2  0
  6  7  1  0
  7  8  2  0
  8  9  1  0
M  END
