
     RDKit          3D

  9  9  0  0  0  0  0  0  0  0999 V2000
   -3.3050    0.0980    0.5650 C   0  0  0  0  0  0  0  0  0  0  0  0
   -2.3540   -0.0730   -0.5120 N   0  0  0  0  0  0  0  0  0  0  0  0
   -0.9470   -0.0550   -0.3380 C   0  0  0  0  0  0  0  0  0  0  0  0
   -0.0910   -0.2240   -1.4060 C   0  0  0  0  0  0  0  0  0  0  0  0
    1.2870   -0.2090   -1.2540 C   0  0  0  0  0  0  0  0  0  0  0  0
    1.8720   -0.0230   -0.0210 C   0  0  0  0  0  0  0  0  0  0  0  0
    3.2970   -0.0100    0.1180 N   0  0  0  0  0  0  0  0  0  0  0  0
    1.0230    0.1470    1.0510 C   0  0  0  0  0  0  0  0  0  0  0  0
   -0.3560    0.1320    0.8970 C   0  0  0  0  0  0  0  0  0  0  0  0
  1  2  1  0
  2  3  1  0
  3  4  2  0
  3  9  1  0
  4  5  1  0
  5  6  2  0
  6  7  1  0
  6  8  1  0
  8  9  2  0
M  CHG  1   7   1
M  END
