
     RDKit          3D

  9  9  0  0  0  0  0  0  0  0999 V2000
   -2.8430    0.2110   -0.8830 C   0  0  0  0  0  0  0  0  0  0  0  0
   -2.0590    0.2080    0.3000 N   0  0  0  0  0  0  0  0  0  0  0  0
   -0.6810    0.0960    0.1300 C   0  0  0  0  0  0  0  0  0  0  0  0
    0.0080    0.2530   -1.0360 C   0  0  0  0  0  0  0  0  0  0  0  0
    1.3710    0.1280   -1.1270 C   0  0  0  0  0  0  0  0  0  0  0  0
    2.1060   -0.1720    0.0110 C   0  0  0  0  0  0  0  0  0  0  0  0
    3.5140   -0.3120   -0.0300 N   0  0  0  0  0  0  0  0  0  0  0  0
    1.4470   -0.3400    1.2160 C   0  0  0  0  0  0  0  0  0  0  0  0
    0.0770   -0.2060    1.2670 C   0  0  0  0  0  0  0  0  0  0  0  0
  1  2  1  0
  2  3  1  0
  3  4  2  0
  3  9  1  0
  4  5  1  0
  5  6  2  0
  6  7  1  0
  6  8  1  0
  8  9  2  0
M  CHG  1   2   1
M  END
