
     RDKit          3D

 33 34  0  0  0  0  0  0  0  0999 V2000
   -2.8960   -1.7830    0.2860 C   0  0  0  0  0  0  0  0  0  0  0  0
   -3.6650   -0.6120   -0.1190 N   0  0  0  0  0  0  0  0  0  0  0  0
   -3.4030    0.6760    0.3580 C   0  0  0  0  0  0  0  0  0  0  0  0
   -4.1810    1.1770    1.4120 C   0  0  0  0  0  0  0  0  0  0  0  0
   -3.9140    2.4040    1.9030 N   0  0  0  0  0  0  0  0  0  0  0  0
   -2.9220    3.1710    1.4170 C   0  0  0  0  0  0  0  0  0  0  0  0
   -2.1300    2.7300    0.3860 C   0  0  0  0  0  0  0  0  0  0  0  0
   -2.3970    1.4480   -0.1390 C   0  0  0  0  0  0  0  0  0  0  0  0
   -1.3650    0.8670   -1.5130 P   0  0  0  0  0  0  0  0  0  0  0  0
   -1.5880   -0.7880   -1.9240 O   0  0  0  0  0  0  0  0  0  0  0  0
    0.3010    1.0760   -1.0780 O   0  0  0  0  0  0  0  0  0  0  0  0
    0.5700    0.6120    0.4990 P   0  0  0  0  0  0  0  0  0  0  0  0
    2.1470    0.6530    1.0950 O   0  0  0  0  0  0  0  0  0  0  0  0
    3.0570    0.0800    0.2090 C   0  0  0  0  0  0  0  0  0  0  0  0
    4.4260    0.1880    0.8750 C   0  0  0  0  0  0  0  0  0  0  0  0
    5.4290   -0.3930    0.0030 N   0  0  0  0  0  0  0  0  0  0  0  0
    6.1310    0.3930   -0.9880 C   0  0  0  0  0  0  0  0  0  0  0  0
    7.5240   -0.0660   -1.1880 C   0  0  0  0  0  0  0  0  0  0  0  0
    8.4300    0.7930   -1.4630 N   0  0  0  0  0  0  0  0  0  0  0  0
    8.0980    2.1140   -1.5670 O   0  0  0  0  0  0  0  0  0  0  0  0
    7.8510   -1.4650   -1.0730 N   0  0  0  0  0  0  0  0  0  0  0  0
    6.9570   -2.3450   -0.4100 C   0  0  0  0  0  0  0  0  0  0  0  0
    7.2490   -3.5670   -0.3130 O   0  0  0  0  0  0  0  0  0  0  0  0
    5.7280   -1.7790    0.1310 C   0  0  0  0  0  0  0  0  0  0  0  0
    4.9160   -2.5340    0.7240 O   0  0  0  0  0  0  0  0  0  0  0  0
   -0.6910    0.7170    1.6080 O   0  0  0  0  0  0  0  0  0  0  0  0
   -0.4540   -0.1390    3.0690 P   0  0  0  0  0  0  0  0  0  0  0  0
    0.3260   -1.4760    3.1500 O   0  0  0  0  0  0  0  0  0  0  0  0
   -4.7290   -0.8450   -1.0600 C   0  0  2  0  0  0  0  0  0  0  0  0
   -5.4280    0.3620   -1.5710 C   0  0  0  0  0  0  0  0  0  0  0  0
   -6.0820    1.1900   -0.6240 N   0  0  0  0  0  0  0  0  0  0  0  0
   -5.7170   -1.8800   -0.5490 C   0  0  0  0  0  0  0  0  0  0  0  0
   -6.3270   -1.5290    0.6320 O   0  0  0  0  0  0  0  0  0  0  0  0
  1  2  1  0
  2  3  1  0
  2 29  1  0
  3  4  2  0
  3  8  1  0
  4  5  1  0
  5  6  2  0
  6  7  1  0
  7  8  2  0
  8  9  1  0
  9 10  1  0
  9 11  1  0
 11 12  1  0
 12 13  1  0
 12 26  1  0
 13 14  1  0
 14 15  1  0
 15 16  1  0
 16 17  1  0
 16 24  1  0
 17 18  1  0
 18 19  2  3
 18 21  1  0
 19 20  1  0
 21 22  1  0
 22 23  2  0
 22 24  1  0
 24 25  2  0
 26 27  1  0
 27 28  2  0
 29 30  1  1
 29 32  1  0
 30 31  1  0
 32 33  1  0
M  END
