
     RDKit          3D

 33 33  0  0  0  0  0  0  0  0999 V2000
    2.0560   -2.5380   -0.3020 C   0  0  0  0  0  0  0  0  0  0  0  0
    3.2020   -1.6720   -0.2460 N   0  0  0  0  0  0  0  0  0  0  0  0
    4.1390   -1.7680    0.8390 C   0  0  0  0  0  0  0  0  0  0  0  0
    3.5850   -1.3320    2.1750 C   0  0  0  0  0  0  0  0  0  0  0  0
    4.6050   -1.4820    3.1190 O   0  0  0  0  0  0  0  0  0  0  0  0
    3.4120   -0.7280   -1.2790 C   0  0  0  0  0  0  0  0  0  0  0  0
    4.5280   -0.6400   -2.0440 N   0  0  0  0  0  0  0  0  0  0  0  0
    4.4390    0.3400   -2.9180 N   0  0  0  0  0  0  0  0  0  0  0  0
    5.4610    0.7260   -3.9070 C   0  0  0  0  0  0  0  0  0  0  0  0
    3.2630    0.9030   -2.7330 N   0  0  0  0  0  0  0  0  0  0  0  0
    2.5860    0.2790   -1.7290 C   0  0  0  0  0  0  0  0  0  0  0  0
    1.2900    0.6130   -1.2570 N   0  0  0  0  0  0  0  0  0  0  0  0
    0.8460    0.4790   -0.0860 C   0  0  0  0  0  0  0  0  0  0  0  0
   -0.5230    0.8880    0.1680 N   0  0  0  0  0  0  0  0  0  0  0  0
   -1.5210    0.0210   -0.3350 C   0  0  0  0  0  0  0  0  0  0  0  0
   -2.2320   -0.7040    0.7800 C   0  0  0  0  0  0  0  0  0  0  0  0
   -3.2950   -1.6210    0.2050 C   0  0  0  0  0  0  0  0  0  0  0  0
   -2.7620   -2.6640   -0.7200 C   0  0  0  0  0  0  0  0  0  0  0  0
   -4.2330   -3.6720   -1.3040 P   0  0  0  0  0  0  0  0  0  0  0  0
   -3.7950   -4.6290   -2.6900 O   0  0  0  0  0  0  0  0  0  0  0  0
   -4.7900   -4.7350   -0.0520 O   0  0  0  0  0  0  0  0  0  0  0  0
   -6.2790   -4.0870    0.5500 P   0  0  0  0  0  0  0  0  0  0  0  0
   -6.9330   -4.6150    1.8510 O   0  0  0  0  0  0  0  0  0  0  0  0
   -0.6060    2.0990    0.8920 C   0  0  1  0  0  0  0  0  0  0  0  0
    0.1230    1.8600    2.2280 C   0  0  0  0  0  0  0  0  0  0  0  0
   -0.4430    0.8470    2.9630 O   0  0  0  0  0  0  0  0  0  0  0  0
    0.2950    3.1070    0.1560 C   0  0  0  0  0  0  0  0  0  0  0  0
   -0.2130    3.2300   -1.1320 O   0  0  0  0  0  0  0  0  0  0  0  0
   -1.9010    2.7020    1.2000 C   0  0  0  0  0  0  0  0  0  0  0  0
   -2.6010    2.9640   -0.0010 O   0  0  0  0  0  0  0  0  0  0  0  0
   -4.1310    3.6760    0.3020 P   0  0  0  0  0  0  0  0  0  0  0  0
   -4.2050    4.4710    1.8360 O   0  0  0  0  0  0  0  0  0  0  0  0
   -4.5290    4.7730   -0.9940 O   0  0  0  0  0  0  0  0  0  0  0  0
  1  2  1  0
  2  3  1  0
  2  6  1  0
  3  4  1  0
  4  5  1  0
  6  7  2  0
  6 11  1  0
  7  8  1  0
  8  9  1  0
  8 10  1  0
 10 11  2  0
 11 12  1  0
 12 13  2  3
 13 14  1  0
 14 15  1  0
 14 24  1  0
 15 16  1  0
 16 17  1  0
 17 18  1  0
 18 19  1  0
 19 20  1  0
 19 21  1  0
 21 22  1  0
 22 23  2  0
 24 25  1  1
 24 27  1  0
 24 29  1  0
 25 26  1  0
 27 28  1  0
 29 30  1  0
 30 31  1  0
 31 32  1  0
 31 33  1  0
M  END
