
     RDKit          3D

 34 36  0  0  0  0  0  0  0  0999 V2000
   -8.0860   -0.4100   -0.8770 N   0  0  0  0  0  0  0  0  0  0  0  0
   -6.8160   -0.4740   -0.5920 C   0  0  0  0  0  0  0  0  0  0  0  0
   -5.9410   -0.2390   -1.6920 N   0  0  0  0  0  0  0  0  0  0  0  0
   -6.5720   -0.0860   -3.3650 P   0  0  0  0  0  0  0  0  0  0  0  0
   -5.6740   -0.3640   -4.5840 O   0  0  0  0  0  0  0  0  0  0  0  0
   -6.3700   -0.7520    0.7190 N   0  0  0  0  0  0  0  0  0  0  0  0
   -7.3650   -0.2060    2.1000 P   0  0  0  0  0  0  0  0  0  0  0  0
   -6.6050    1.0750    2.9860 O   0  0  0  0  0  0  0  0  0  0  0  0
   -8.9670    0.2360    1.5950 O   0  0  0  0  0  0  0  0  0  0  0  0
   -4.8480   -1.6160    1.0360 P   0  0  0  0  0  0  0  0  0  0  0  0
   -4.4140   -1.6230    2.7150 O   0  0  0  0  0  0  0  0  0  0  0  0
   -3.5420   -1.0170    0.1180 O   0  0  0  0  0  0  0  0  0  0  0  0
   -2.3590   -1.1310    0.5510 O   0  0  0  0  0  0  0  0  0  0  0  0
   -1.9630   -0.2900    1.5590 C   0  0  2  0  0  0  0  0  0  0  0  0
   -1.7330    1.0700    0.7880 C   0  0  0  0  0  0  0  0  0  0  0  0
   -0.6690    0.7770   -0.2580 C   0  0  0  0  0  0  0  0  0  0  0  0
    0.5910    0.7410    0.5510 N   0  0  0  0  0  0  0  0  0  0  0  0
    1.6910    1.3780   -0.0890 C   0  0  0  0  0  0  0  0  0  0  0  0
    2.6110    0.5880   -0.9190 C   0  0  1  0  0  0  0  0  0  0  0  0
    2.0140   -0.2010   -2.0320 C   0  0  0  0  0  0  0  0  0  0  0  0
    1.3410    0.5780   -2.9670 O   0  0  0  0  0  0  0  0  0  0  0  0
    3.4100    1.7110   -1.7890 C   0  0  0  0  0  0  0  0  0  0  0  0
    4.2810    0.9990   -2.5730 O   0  0  0  0  0  0  0  0  0  0  0  0
    3.7350   -0.0780   -0.2720 C   0  0  0  0  0  0  0  0  0  0  0  0
    4.0170   -0.2300    1.0210 N   0  0  0  0  0  0  0  0  0  0  0  0
    5.1450   -0.8210    1.1620 O   0  0  0  0  0  0  0  0  0  0  0  0
    5.6510   -1.0820   -0.0120 C   0  0  0  0  0  0  0  0  0  0  0  0
    6.9750   -1.7640   -0.2170 C   0  0  1  0  0  0  0  0  0  0  0  0
    8.1400   -0.8010   -0.4350 C   0  0  0  0  0  0  0  0  0  0  0  0
    8.0340   -1.6450    0.8190 C   0  0  0  0  0  0  0  0  0  0  0  0
    4.7910   -0.6290   -0.9150 N   0  0  0  0  0  0  0  0  0  0  0  0
    0.4660    0.1320    1.7920 C   0  0  0  0  0  0  0  0  0  0  0  0
    1.4290    0.2270    2.5880 O   0  0  0  0  0  0  0  0  0  0  0  0
   -0.7250   -0.6360    2.2850 C   0  0  0  0  0  0  0  0  0  0  0  0
  1  2  2  0
  2  3  1  0
  2  6  1  0
  3  4  1  0
  4  5  2  0
  6  7  1  0
  6 10  1  0
  7  8  1  0
  7  9  1  0
 10 11  1  0
 10 12  1  0
 12 13  1  0
 14 13  1  6
 14 15  1  0
 14 34  1  0
 15 16  1  0
 16 17  1  0
 17 18  1  0
 17 32  1  0
 19 18  1  1
 19 20  1  0
 19 22  1  0
 19 24  1  0
 20 21  1  0
 22 23  1  0
 24 25  2  0
 24 31  1  0
 25 26  1  0
 26 27  1  0
 28 27  1  1
 27 31  2  0
 28 29  1  0
 28 30  1  0
 29 30  1  0
 32 33  2  0
 32 34  1  0
M  END
