
     RDKit          3D

 35 38  0  0  0  0  0  0  0  0999 V2000
   -0.6580   -5.1000    1.5290 N   0  0  0  0  0  0  0  0  0  0  0  0
   -1.0090   -4.3160    0.5410 C   0  0  0  0  0  0  0  0  0  0  0  0
   -0.9290   -4.8620   -0.7640 N   0  0  0  0  0  0  0  0  0  0  0  0
   -1.3140   -4.1030   -1.7370 N   0  0  0  0  0  0  0  0  0  0  0  0
   -1.7880   -2.7840   -1.4660 C   0  0  0  0  0  0  0  0  0  0  0  0
   -2.7610   -2.1850   -2.0830 C   0  0  0  0  0  0  0  0  0  0  0  0
   -3.2260   -0.8110   -1.7700 C   0  0  0  0  0  0  0  0  0  0  0  0
   -2.5300   -0.1510   -0.7620 N   0  0  0  0  0  0  0  0  0  0  0  0
   -2.5600    1.2900   -0.9220 C   0  0  0  0  0  0  0  0  0  0  0  0
   -3.8980    1.8650   -0.6950 C   0  0  0  0  0  0  0  0  0  0  0  0
   -5.2530    1.3360   -1.7950 S   0  0  0  0  0  0  0  0  0  0  0  0
   -7.0690    2.2030   -1.2940 Cl  0  0  0  0  0  0  0  0  0  0  0  0
   -4.1590    2.7310    0.2390 C   0  0  0  0  0  0  0  0  0  0  0  0
   -5.5270    3.2250    0.3610 N   0  0  0  0  0  0  0  0  0  0  0  0
   -3.1670    3.2520    1.1980 C   0  0  0  0  0  0  0  0  0  0  0  0
   -3.0370    4.6430    1.0930 O   0  0  0  0  0  0  0  0  0  0  0  0
   -1.3520   -0.6660   -0.2080 C   0  0  2  0  0  0  0  0  0  0  0  0
   -0.3180    0.2160   -0.6120 O   0  0  0  0  0  0  0  0  0  0  0  0
    0.9730   -0.0640    0.5580 P   0  0  0  0  0  0  0  0  0  0  0  0
    2.3920    0.8210    0.1130 O   0  0  0  0  0  0  0  0  0  0  0  0
    3.4570   -0.0510    0.0930 C   0  0  0  0  0  0  0  0  0  0  0  0
    4.7460    0.5970   -0.2750 C   0  0  0  0  0  0  0  0  0  0  0  0
    5.1630    0.6860   -1.5940 C   0  0  0  0  0  0  0  0  0  0  0  0
    6.3360    1.2700   -1.9290 N   0  0  0  0  0  0  0  0  0  0  0  0
    7.1790    1.8040   -1.0280 C   0  0  0  0  0  0  0  0  0  0  0  0
    8.3910    2.4040   -1.4130 O   0  0  0  0  0  0  0  0  0  0  0  0
    6.8000    1.7360    0.2960 C   0  0  0  0  0  0  0  0  0  0  0  0
    7.6710    2.2910    1.2400 O   0  0  0  0  0  0  0  0  0  0  0  0
    5.6000    1.1410    0.6640 C   0  0  0  0  0  0  0  0  0  0  0  0
    1.2980   -1.8720    0.2610 C   0  0  0  0  0  0  0  0  0  0  0  0
    2.2720   -2.4750    0.7410 O   0  0  0  0  0  0  0  0  0  0  0  0
    0.3160   -2.4210   -0.5530 O   0  0  0  0  0  0  0  0  0  0  0  0
   -1.0630   -2.0930   -0.3650 C   0  0  2  0  0  0  0  0  0  0  0  0
   -1.4540   -2.9380    0.8720 C   0  0  2  0  0  0  0  0  0  0  0  0
   -0.8080   -2.4190    2.0620 N   0  0  0  0  0  0  0  0  0  0  0  0
  1  2  2  0
  2  3  1  0
  2 34  1  0
  3  4  2  0
  4  5  1  0
  5  6  2  0
  5 33  1  0
  6  7  1  0
  7  8  1  0
  8  9  1  0
  8 17  1  0
  9 10  1  0
 10 11  1  0
 10 13  2  3
 11 12  1  0
 13 14  1  0
 13 15  1  0
 15 16  1  0
 17 18  1  6
 17 33  1  0
 18 19  1  0
 19 20  1  0
 19 30  1  0
 20 21  1  0
 21 22  1  0
 22 23  2  0
 22 29  1  0
 23 24  1  0
 24 25  2  0
 25 26  1  0
 25 27  1  0
 27 28  1  0
 27 29  2  0
 30 31  2  0
 30 32  1  0
 33 32  1  6
 33 34  1  0
 34 35  1  1
M  END
