
     RDKit          3D

 42 43  0  0  0  0  0  0  0  0999 V2000
   -9.8990    1.3010    2.0140 C   0  0  0  0  0  0  0  0  0  0  0  0
   -8.7870    1.8170    1.2740 O   0  0  0  0  0  0  0  0  0  0  0  0
   -7.7670    0.9870    0.8340 C   0  0  0  0  0  0  0  0  0  0  0  0
   -7.8300   -0.2250    1.0930 O   0  0  0  0  0  0  0  0  0  0  0  0
   -6.6350    1.5480    0.0730 C   0  0  1  0  0  0  0  0  0  0  0  0
   -5.7640    0.4490   -0.2560 N   0  0  0  0  0  0  0  0  0  0  0  0
   -4.4440    0.3910    0.2840 C   0  0  0  0  0  0  0  0  0  0  0  0
   -4.1110    1.3460    1.0320 O   0  0  0  0  0  0  0  0  0  0  0  0
   -3.5010   -0.6760    0.0220 C   0  0  1  0  0  0  0  0  0  0  0  0
   -2.2520   -0.3790    0.7280 N   0  0  0  0  0  0  0  0  0  0  0  0
   -0.9830   -0.4180    0.0860 C   0  0  0  0  0  0  0  0  0  0  0  0
   -0.9840   -0.7250   -1.1400 O   0  0  0  0  0  0  0  0  0  0  0  0
    0.2680   -0.1160    0.8280 C   0  0  2  0  0  0  0  0  0  0  0  0
    0.1940    1.2860    1.4430 C   0  0  0  0  0  0  0  0  0  0  0  0
    1.4560   -0.2390    0.0120 N   0  0  2  0  0  0  0  0  0  0  0  0
    1.6290    0.9340   -0.7960 C   0  0  0  0  0  0  0  0  0  0  0  0
    2.5360    0.7950   -1.9560 C   0  0  0  0  0  0  0  0  0  0  0  0
    3.7270   -0.0480   -1.7970 C   0  0  0  0  0  0  0  0  0  0  0  0
    5.0540    0.5650   -2.1870 C   0  0  2  0  0  0  0  0  0  0  0  0
    5.9500   -0.4970   -2.7020 C   0  0  0  0  0  0  0  0  0  0  0  0
    5.6170    1.2250   -1.0100 N   0  0  0  0  0  0  0  0  0  0  0  0
    5.5430    2.6080   -0.7470 C   0  0  0  0  0  0  0  0  0  0  0  0
    4.9440    3.3510   -1.5720 O   0  0  0  0  0  0  0  0  0  0  0  0
    6.1500    3.2320    0.4840 C   0  0  2  0  0  0  0  0  0  0  0  0
    5.9710    2.2750    1.6270 C   0  0  0  0  0  0  0  0  0  0  0  0
    5.5750    4.5070    0.7820 N   0  0  0  0  0  0  0  0  0  0  0  0
    3.8340   -1.2580   -1.2950 C   0  0  0  0  0  0  0  0  0  0  0  0
    2.7960   -2.1670   -0.7270 C   0  0  1  0  0  0  0  0  0  0  0  0
    3.2090   -2.6580    0.6190 C   0  0  0  0  0  0  0  0  0  0  0  0
    4.4950   -3.4010    0.5090 C   0  0  0  0  0  0  0  0  0  0  0  0
    5.7260   -2.8130    0.6530 C   0  0  0  0  0  0  0  0  0  0  0  0
    6.8820   -3.5800    0.5420 C   0  0  0  0  0  0  0  0  0  0  0  0
    6.8640   -4.9240    0.2920 C   0  0  0  0  0  0  0  0  0  0  0  0
    5.6250   -5.5130    0.1490 C   0  0  0  0  0  0  0  0  0  0  0  0
    4.4790   -4.7670    0.2560 C   0  0  0  0  0  0  0  0  0  0  0  0
    1.4400   -1.4790   -0.7000 C   0  0  0  0  0  0  0  0  0  0  0  0
   -3.9150   -2.0320    0.5390 C   0  0  1  0  0  0  0  0  0  0  0  0
   -4.1140   -2.1140    2.0160 C   0  0  0  0  0  0  0  0  0  0  0  0
   -5.0770   -2.6330   -0.2330 C   0  0  0  0  0  0  0  0  0  0  0  0
   -7.1490    2.2860   -1.1390 C   0  0  2  0  0  0  0  0  0  0  0  0
   -6.0630    2.8950   -1.9570 C   0  0  0  0  0  0  0  0  0  0  0  0
   -8.0700    3.3840   -0.6460 C   0  0  0  0  0  0  0  0  0  0  0  0
  1  2  1  0
  2  3  1  0
  3  4  2  0
  3  5  1  0
  5  6  1  6
  5 40  1  0
  6  7  1  0
  7  8  2  0
  7  9  1  0
  9 10  1  1
  9 37  1  0
 10 11  1  0
 11 12  2  0
 11 13  1  0
 13 14  1  6
 13 15  1  0
 15 16  1  6
 15 36  1  0
 16 17  1  0
 17 18  1  0
 18 19  1  0
 18 27  2  0
 19 20  1  1
 19 21  1  0
 21 22  1  0
 22 23  2  0
 22 24  1  0
 24 25  1  1
 24 26  1  0
 27 28  1  0
 28 29  1  1
 28 36  1  0
 29 30  1  0
 30 31  2  0
 30 35  1  0
 31 32  1  0
 32 33  2  0
 33 34  1  0
 34 35  2  0
 37 38  1  1
 37 39  1  0
 40 41  1  1
 40 42  1  0
M  CHG  2  15   1  26   1
M  END
