
     RDKit          3D

 42 46  0  0  0  0  0  0  0  0999 V2000
   -5.3950   -3.6690    1.4320 C   0  0  0  0  0  0  0  0  0  0  0  0
   -4.8150   -2.4710    0.9710 O   0  0  0  0  0  0  0  0  0  0  0  0
   -5.5440   -1.6380    0.1400 C   0  0  0  0  0  0  0  0  0  0  0  0
   -6.8390   -1.9780   -0.2370 C   0  0  0  0  0  0  0  0  0  0  0  0
   -7.5080   -1.1050   -1.0640 C   0  0  0  0  0  0  0  0  0  0  0  0
   -6.9350    0.0660   -1.5120 C   0  0  0  0  0  0  0  0  0  0  0  0
   -7.6680    1.0160   -2.4120 C   0  0  0  0  0  0  0  0  0  0  0  0
   -5.6570    0.3980   -1.1380 C   0  0  0  0  0  0  0  0  0  0  0  0
   -4.9410   -0.4680   -0.2940 C   0  0  0  0  0  0  0  0  0  0  0  0
   -3.6600    0.0870   -0.0560 N   0  0  0  0  0  0  0  0  0  0  0  0
   -2.4860   -0.5600    0.3760 C   0  0  0  0  0  0  0  0  0  0  0  0
   -2.3660   -1.7850    0.6180 O   0  0  0  0  0  0  0  0  0  0  0  0
   -1.2600    0.1850    0.5840 N   0  0  0  0  0  0  0  0  0  0  0  0
   -0.0360   -0.4530    1.0280 C   0  0  2  0  0  0  0  0  0  0  0  0
    0.4200    0.1170    2.3550 C   0  0  0  0  0  0  0  0  0  0  0  0
    0.9880   -0.2520   -0.0530 C   0  0  1  0  0  0  0  0  0  0  0  0
    1.1990    1.1090   -0.2610 O   0  0  0  0  0  0  0  0  0  0  0  0
    0.9440    1.7400   -1.4480 C   0  0  0  0  0  0  0  0  0  0  0  0
    0.4950    1.0550   -2.4050 O   0  0  0  0  0  0  0  0  0  0  0  0
    1.1690    3.1670   -1.6530 C   0  0  0  0  0  0  0  0  0  0  0  0
    0.8990    3.7620   -2.8610 C   0  0  0  0  0  0  0  0  0  0  0  0
    1.0940    5.1090   -3.1110 C   0  0  0  0  0  0  0  0  0  0  0  0
    1.5930    5.8570   -2.0440 C   0  0  0  0  0  0  0  0  0  0  0  0
    1.8660    5.2710   -0.8330 C   0  0  0  0  0  0  0  0  0  0  0  0
    2.3570    6.0600    0.1800 O   0  0  0  0  0  0  0  0  0  0  0  0
    1.6570    3.9220   -0.6260 C   0  0  0  0  0  0  0  0  0  0  0  0
    2.2710   -0.9880    0.2610 C   0  0  0  0  0  0  0  0  0  0  0  0
    2.1190   -2.2070    0.4440 O   0  0  0  0  0  0  0  0  0  0  0  0
    3.4920   -0.3260    0.3290 N   0  0  0  0  0  0  0  0  0  0  0  0
    4.7490   -0.9100    0.6100 C   0  0  0  0  0  0  0  0  0  0  0  0
    4.8710   -2.2570    0.7730 C   0  0  0  0  0  0  0  0  0  0  0  0
    6.0350   -2.9810    1.0410 C   0  0  0  0  0  0  0  0  0  0  0  0
    5.9650   -4.3690    1.1770 C   0  0  0  0  0  0  0  0  0  0  0  0
    7.0740   -5.1290    1.4390 C   0  0  0  0  0  0  0  0  0  0  0  0
    8.3120   -4.5610    1.5810 C   0  0  0  0  0  0  0  0  0  0  0  0
    8.4100   -3.1990    1.4520 C   0  0  0  0  0  0  0  0  0  0  0  0
    7.2770   -2.4220    1.1840 C   0  0  0  0  0  0  0  0  0  0  0  0
    7.3350   -0.7380    1.0150 S   0  0  0  0  0  0  0  0  0  0  0  0
    5.8110   -0.0160    0.6890 C   0  0  0  0  0  0  0  0  0  0  0  0
    5.7490    1.2440    0.5490 N   0  0  0  0  0  0  0  0  0  0  0  0
   -3.7470    1.5300   -0.3610 C   0  0  0  0  0  0  0  0  0  0  0  0
   -4.8010    1.5760   -1.4510 C   0  0  0  0  0  0  0  0  0  0  0  0
  1  2  1  0
  2  3  1  0
  3  4  2  0
  3  9  1  0
  4  5  1  0
  5  6  2  0
  6  7  1  0
  6  8  1  0
  8  9  2  0
  8 42  1  0
  9 10  1  0
 10 11  1  0
 10 41  1  0
 11 12  2  0
 11 13  1  0
 13 14  1  0
 14 15  1  1
 14 16  1  0
 16 17  1  1
 16 27  1  0
 17 18  1  0
 18 19  2  0
 18 20  1  0
 20 21  2  0
 20 26  1  0
 21 22  1  0
 22 23  2  0
 23 24  1  0
 24 25  1  0
 24 26  2  0
 27 28  2  0
 27 29  1  0
 29 30  1  0
 30 31  2  0
 30 39  1  0
 31 32  1  0
 32 33  2  0
 32 37  1  0
 33 34  1  0
 34 35  2  0
 35 36  1  0
 36 37  2  0
 37 38  1  0
 38 39  1  0
 39 40  2  0
 41 42  1  0
M  END
