
     RDKit          3D

 42 44  0  0  0  0  0  0  0  0999 V2000
   -4.4430    3.0600    2.1500 C   0  0  0  0  0  0  0  0  0  0  0  0
   -3.1520    2.6040    2.7250 C   0  0  0  0  0  0  0  0  0  0  0  0
   -3.0440    1.1450    2.9950 C   0  0  0  0  0  0  0  0  0  0  0  0
   -3.1850    0.2260    1.8530 C   0  0  1  0  0  0  0  0  0  0  0  0
   -2.2000    0.3910    0.7550 C   0  0  0  0  0  0  0  0  0  0  0  0
   -2.6340    0.2340   -0.4150 O   0  0  0  0  0  0  0  0  0  0  0  0
   -0.8450    0.7030    0.9280 N   0  0  0  0  0  0  0  0  0  0  0  0
    0.1100    0.8440   -0.1620 C   0  0  1  0  0  0  0  0  0  0  0  0
    0.2970    2.2410   -0.6140 C   0  0  0  0  0  0  0  0  0  0  0  0
    1.1140    3.1810    0.1150 C   0  0  0  0  0  0  0  0  0  0  0  0
    2.0450    2.7080    1.1540 C   0  0  0  0  0  0  0  0  0  0  0  0
    3.2490    1.9600    0.7400 C   0  0  0  0  0  0  0  0  0  0  0  0
    3.2530    1.4380   -0.6850 C   0  0  1  0  0  0  0  0  0  0  0  0
    4.6950    1.2630   -1.0500 C   0  0  0  0  0  0  0  0  0  0  0  0
    5.0190    0.6780   -2.6690 S   0  0  2  0  0  0  0  0  0  0  0  0
    6.5270    0.7560   -2.9630 O   0  0  0  0  0  0  0  0  0  0  0  0
    4.4150    1.6040   -3.7160 O   0  0  0  0  0  0  0  0  0  0  0  0
    4.4800   -0.9330   -3.0570 C   0  0  0  0  0  0  0  0  0  0  0  0
    5.1530   -1.9470   -2.2360 C   0  0  0  0  0  0  0  0  0  0  0  0
    4.8500   -3.1710   -2.2600 O   0  0  0  0  0  0  0  0  0  0  0  0
    6.1860   -1.6010   -1.3790 O   0  0  0  0  0  0  0  0  0  0  0  0
    6.8470   -2.5670   -0.6020 C   0  0  1  0  0  0  0  0  0  0  0  0
    8.3250   -2.5940   -0.9510 C   0  0  0  0  0  0  0  0  0  0  0  0
    8.9340   -2.9660    0.3760 C   0  0  0  0  0  0  0  0  0  0  0  0
    7.9080   -2.9850    1.3260 O   0  0  0  0  0  0  0  0  0  0  0  0
    6.9030   -2.1320    0.8340 C   0  0  1  0  0  0  0  0  0  0  0  0
    7.3870   -0.7220    0.9090 C   0  0  0  0  0  0  0  0  0  0  0  0
    2.4550    0.2240   -0.8780 C   0  0  0  0  0  0  0  0  0  0  0  0
    1.3160    0.0230    0.1020 C   0  0  0  0  0  0  0  0  0  0  0  0
   -2.8250   -1.1810    2.4210 C   0  0  0  0  0  0  0  0  0  0  0  0
   -2.8880   -2.1780    1.3720 N   0  0  0  0  0  0  0  0  0  0  0  0
   -4.0090   -2.1620    0.5060 C   0  0  0  0  0  0  0  0  0  0  0  0
   -4.2860   -3.1420   -0.2670 O   0  0  0  0  0  0  0  0  0  0  0  0
   -4.8600   -0.9690    0.5180 C   0  0  0  0  0  0  0  0  0  0  0  0
   -5.9290   -0.9170   -0.2860 C   0  0  0  0  0  0  0  0  0  0  0  0
   -6.7720    0.2490   -0.2830 C   0  0  0  0  0  0  0  0  0  0  0  0
   -6.5170    1.2380    0.4770 O   0  0  0  0  0  0  0  0  0  0  0  0
   -7.9530    0.3500   -1.1490 C   0  0  0  0  0  0  0  0  0  0  0  0
   -8.2620   -0.9630   -1.7830 C   0  0  1  0  0  0  0  0  0  0  0  0
   -8.5490   -1.9920   -0.7320 C   0  0  0  0  0  0  0  0  0  0  0  0
   -9.4730   -0.7640   -2.6980 C   0  0  0  0  0  0  0  0  0  0  0  0
   -4.5060    0.0530    1.3720 O   0  0  0  0  0  0  0  0  0  0  0  0
  1  2  1  0
  2  3  1  0
  4  3  1  1
  4  5  1  0
  4 30  1  0
  4 42  1  0
  5  6  2  0
  5  7  1  0
  8  7  1  1
  8  9  1  0
  8 29  1  0
  9 10  1  0
 10 11  1  0
 11 12  1  0
 12 13  1  0
 13 14  1  1
 13 28  1  0
 15 14  1  1
 15 16  2  0
 15 17  2  0
 15 18  1  0
 18 19  1  0
 19 20  2  0
 19 21  1  0
 22 21  1  6
 22 23  1  0
 22 26  1  0
 23 24  1  0
 24 25  1  0
 25 26  1  0
 26 27  1  6
 28 29  1  0
 30 31  1  0
 31 32  1  0
 32 33  2  0
 32 34  1  0
 34 35  2  3
 34 42  1  0
 35 36  1  0
 36 37  2  0
 36 38  1  0
 38 39  1  0
 39 40  1  1
 39 41  1  0
M  END
