
     RDKit          3D

 42 46  0  0  0  0  0  0  0  0999 V2000
   -7.4020    3.0060    1.2160 C   0  0  0  0  0  0  0  0  0  0  0  0
   -6.4240    1.8560    1.4680 C   0  0  0  0  0  0  0  0  0  0  0  0
   -7.0820    0.6090    0.9290 C   0  0  0  0  0  0  0  0  0  0  0  0
   -6.4090    0.0190   -0.0060 N   0  0  0  0  0  0  0  0  0  0  0  0
   -6.6520   -1.1310   -0.7540 C   0  0  0  0  0  0  0  0  0  0  0  0
   -5.5610   -1.8530   -1.4390 C   0  0  0  0  0  0  0  0  0  0  0  0
   -5.8330   -3.3170   -2.3970 S   0  0  0  0  0  0  0  0  0  0  0  0
   -4.1370   -3.5640   -2.8610 C   0  0  0  0  0  0  0  0  0  0  0  0
   -3.5800   -4.6690   -3.7180 C   0  0  0  0  0  0  0  0  0  0  0  0
   -3.4920   -2.5100   -2.2480 C   0  0  0  0  0  0  0  0  0  0  0  0
   -4.2340   -1.6480   -1.5280 C   0  0  0  0  0  0  0  0  0  0  0  0
   -3.6340   -0.5120   -0.8500 N   0  0  0  0  0  0  0  0  0  0  0  0
   -2.2660   -0.1750   -0.8610 C   0  0  0  0  0  0  0  0  0  0  0  0
   -1.4410   -0.8410   -1.4700 O   0  0  0  0  0  0  0  0  0  0  0  0
   -1.7690    1.0420   -0.1070 C   0  0  0  0  0  0  0  0  0  0  0  0
   -0.3740    1.1560   -0.2780 O   0  0  0  0  0  0  0  0  0  0  0  0
    0.5340    0.1810    0.1130 C   0  0  0  0  0  0  0  0  0  0  0  0
    0.1210   -0.8660    0.6490 O   0  0  0  0  0  0  0  0  0  0  0  0
    1.9820    0.3410   -0.0840 C   0  0  0  0  0  0  0  0  0  0  0  0
    2.7630   -0.0210   -1.1560 C   0  0  0  0  0  0  0  0  0  0  0  0
    2.2730   -0.6810   -2.3930 C   0  0  0  0  0  0  0  0  0  0  0  0
    4.0400    0.3190   -0.9020 N   0  0  0  0  0  0  0  0  0  0  0  0
    4.1180    0.9030    0.3290 C   0  0  0  0  0  0  0  0  0  0  0  0
    5.3080    1.4180    0.9900 C   0  0  0  0  0  0  0  0  0  0  0  0
    5.2210    1.9220    2.1120 O   0  0  0  0  0  0  0  0  0  0  0  0
    6.5190    1.3210    0.3230 O   0  0  0  0  0  0  0  0  0  0  0  0
    7.6750    1.8110    0.9440 C   0  0  2  0  0  0  0  0  0  0  0  0
    8.3920    2.7710    0.0660 C   0  0  0  0  0  0  0  0  0  0  0  0
    7.9530    3.8930   -0.3340 O   0  0  0  0  0  0  0  0  0  0  0  0
    9.6700    2.2550   -0.2790 N   0  0  0  0  0  0  0  0  0  0  0  0
    9.7950    0.9890    0.3520 C   0  0  0  0  0  0  0  0  0  0  0  0
   10.8100    0.0490    0.3680 C   0  0  0  0  0  0  0  0  0  0  0  0
   10.6950   -1.1320    1.0710 C   0  0  0  0  0  0  0  0  0  0  0  0
    9.5320   -1.3780    1.7760 C   0  0  0  0  0  0  0  0  0  0  0  0
    8.4950   -0.4770    1.7920 C   0  0  0  0  0  0  0  0  0  0  0  0
    8.6530    0.6980    1.0720 C   0  0  0  0  0  0  0  0  0  0  0  0
    2.8280    0.9170    0.8400 C   0  0  0  0  0  0  0  0  0  0  0  0
    2.4330    1.4640    2.1670 C   0  0  0  0  0  0  0  0  0  0  0  0
   -7.8670   -1.6920   -0.9300 C   0  0  0  0  0  0  0  0  0  0  0  0
   -9.1480   -1.2120   -0.3800 C   0  0  0  0  0  0  0  0  0  0  0  0
   -9.3320   -0.4010    0.6480 C   0  0  0  0  0  0  0  0  0  0  0  0
   -8.3640    0.2660    1.5480 C   0  0  0  0  0  0  0  0  0  0  0  0
  1  2  1  0
  2  3  1  0
  3  4  2  0
  3 42  1  0
  4  5  1  0
  5  6  1  0
  5 39  2  0
  6  7  1  0
  6 11  2  0
  7  8  1  0
  8  9  1  0
  8 10  2  0
 10 11  1  0
 11 12  1  0
 12 13  1  0
 13 14  2  0
 13 15  1  0
 15 16  1  0
 16 17  1  0
 17 18  2  0
 17 19  1  0
 19 20  2  0
 19 37  1  0
 20 21  1  0
 20 22  1  0
 22 23  1  0
 23 24  1  0
 23 37  2  0
 24 25  2  0
 24 26  1  0
 27 26  1  6
 27 28  1  0
 27 36  1  0
 28 29  2  0
 28 30  1  0
 30 31  1  0
 31 32  2  0
 31 36  1  0
 32 33  1  0
 33 34  2  0
 34 35  1  0
 35 36  2  0
 37 38  1  0
 39 40  1  0
 40 41  2  0
 41 42  1  0
M  END
