
     RDKit          3D

 42 45  0  0  0  0  0  0  0  0999 V2000
   -2.2410    2.5050   -2.9590 C   0  0  0  0  0  0  0  0  0  0  0  0
   -1.1110    2.6140   -1.9520 C   0  0  0  0  0  0  0  0  0  0  0  0
   -1.0750    1.3660   -1.0640 C   0  0  1  0  0  0  0  0  0  0  0  0
   -0.0340    1.5280   -0.1780 O   0  0  0  0  0  0  0  0  0  0  0  0
    1.1860    0.9050   -0.2870 C   0  0  0  0  0  0  0  0  0  0  0  0
    1.5820    0.0560   -1.2950 C   0  0  0  0  0  0  0  0  0  0  0  0
    2.8220   -0.5380   -1.3440 C   0  0  0  0  0  0  0  0  0  0  0  0
    3.7560   -0.2890   -0.3310 C   0  0  0  0  0  0  0  0  0  0  0  0
    5.0040   -0.8820   -0.3630 O   0  0  0  0  0  0  0  0  0  0  0  0
    5.3610   -1.7470   -1.4270 C   0  0  0  0  0  0  0  0  0  0  0  0
    3.4140    0.5490    0.6970 C   0  0  0  0  0  0  0  0  0  0  0  0
    4.3790    0.8720    1.7740 C   0  0  0  0  0  0  0  0  0  0  0  0
    5.3370    1.9590    1.5100 C   0  0  2  0  0  0  0  0  0  0  0  0
    4.7050    3.1880    1.2340 O   0  0  0  0  0  0  0  0  0  0  0  0
    6.4880    1.7110    0.6060 C   0  0  0  0  0  0  0  0  0  0  0  0
    7.4170    0.6440    1.0560 C   0  0  0  0  0  0  0  0  0  0  0  0
    7.2170    0.0630    2.1320 O   0  0  0  0  0  0  0  0  0  0  0  0
    8.5290    0.2840    0.2660 N   0  0  0  0  0  0  0  0  0  0  0  0
    9.5190   -0.6890    0.4810 C   0  0  0  0  0  0  0  0  0  0  0  0
    9.1260   -2.1160    0.5050 C   0  0  2  0  0  0  0  0  0  0  0  0
    8.3460   -2.5340    1.7060 C   0  0  0  0  0  0  0  0  0  0  0  0
    8.6870   -3.9040    1.8770 O   0  0  0  0  0  0  0  0  0  0  0  0
    9.6800   -4.1850    0.9690 C   0  0  0  0  0  0  0  0  0  0  0  0
   10.2740   -2.9450    0.6690 O   0  0  0  0  0  0  0  0  0  0  0  0
    2.1550    1.1230    0.7040 C   0  0  0  0  0  0  0  0  0  0  0  0
   -2.3940    1.1740   -0.3990 C   0  0  0  0  0  0  0  0  0  0  0  0
   -2.4120    1.1910    0.8590 O   0  0  0  0  0  0  0  0  0  0  0  0
   -3.5820    0.9820   -1.0410 O   0  0  0  0  0  0  0  0  0  0  0  0
   -4.8320    0.8070   -0.3880 C   0  0  1  0  0  0  0  0  0  0  0  0
   -5.7550    1.9810   -0.6810 C   0  0  0  0  0  0  0  0  0  0  0  0
   -6.9090    1.5450   -1.5740 C   0  0  0  0  0  0  0  0  0  0  0  0
   -7.6580    0.5460   -0.7180 C   0  0  0  0  0  0  0  0  0  0  0  0
   -6.8780   -0.4840   -0.2370 C   0  0  0  0  0  0  0  0  0  0  0  0
   -7.7050   -1.6150    0.7540 S   0  0  0  0  0  0  0  0  0  0  0  0
   -9.3520   -1.2310    0.9480 C   0  0  0  0  0  0  0  0  0  0  0  0
  -10.2760   -2.0060    1.7300 N   0  0  0  0  0  0  0  0  0  0  0  0
   -9.7600   -3.1830    2.3980 C   0  0  0  0  0  0  0  0  0  0  0  0
   -9.7720   -0.0890    0.2920 C   0  0  0  0  0  0  0  0  0  0  0  0
  -11.2290    0.2610    0.4510 C   0  0  0  0  0  0  0  0  0  0  0  0
   -8.9830    0.7230   -0.4740 C   0  0  0  0  0  0  0  0  0  0  0  0
   -9.5370    1.7430   -1.0110 O   0  0  0  0  0  0  0  0  0  0  0  0
   -5.4490   -0.5260   -0.6110 C   0  0  0  0  0  0  0  0  0  0  0  0
  1  2  1  0
  3  2  1  6
  3  4  1  0
  3 26  1  0
  4  5  1  0
  5  6  2  0
  5 25  1  0
  6  7  1  0
  7  8  2  0
  8  9  1  0
  8 11  1  0
  9 10  1  0
 11 12  1  0
 11 25  2  0
 12 13  1  0
 13 14  1  6
 13 15  1  0
 15 16  1  0
 16 17  2  0
 16 18  1  0
 18 19  1  0
 20 19  1  1
 20 21  1  0
 20 24  1  0
 21 22  1  0
 22 23  1  0
 23 24  1  0
 26 27  2  0
 26 28  1  0
 29 28  1  6
 29 30  1  0
 29 42  1  0
 30 31  1  0
 31 32  1  0
 32 33  2  0
 32 40  1  0
 33 34  1  0
 33 42  1  0
 34 35  1  0
 35 36  1  0
 35 38  2  0
 36 37  1  0
 38 39  1  0
 38 40  1  0
 40 41  2  0
M  END
