
     RDKit          3D

 42 46  0  0  0  0  0  0  0  0999 V2000
   -3.5210    4.3680   -0.5200 C   0  0  0  0  0  0  0  0  0  0  0  0
   -3.9810    3.3020   -1.5090 C   0  0  0  0  0  0  0  0  0  0  0  0
   -4.6910    2.1940   -0.7710 C   0  0  0  0  0  0  0  0  0  0  0  0
   -6.0380    2.2260   -0.5550 C   0  0  0  0  0  0  0  0  0  0  0  0
   -6.6600    1.1780    0.1360 C   0  0  0  0  0  0  0  0  0  0  0  0
   -5.9540    0.0820    0.6240 C   0  0  0  0  0  0  0  0  0  0  0  0
   -6.5880   -0.9220    1.3840 N   0  0  0  0  0  0  0  0  0  0  0  0
   -7.9850   -1.1280    1.4910 C   0  0  0  0  0  0  0  0  0  0  0  0
   -8.5440   -2.2240    2.3360 C   0  0  0  0  0  0  0  0  0  0  0  0
   -8.7990   -0.4180    0.8970 O   0  0  0  0  0  0  0  0  0  0  0  0
   -4.6050    0.0560    0.4030 C   0  0  0  0  0  0  0  0  0  0  0  0
   -3.7710   -1.0620    0.7810 C   0  0  0  0  0  0  0  0  0  0  0  0
   -4.2420   -2.1330    1.2610 O   0  0  0  0  0  0  0  0  0  0  0  0
   -2.3590   -1.0140    0.6330 C   0  0  0  0  0  0  0  0  0  0  0  0
   -1.2430    0.3800    1.0590 S   0  0  0  0  0  0  0  0  0  0  0  0
    0.2540   -0.5550    0.5090 C   0  0  0  0  0  0  0  0  0  0  0  0
    1.5580    0.1240    0.6280 N   0  0  0  0  0  0  0  0  0  0  0  0
    2.6720   -0.5970    0.2080 C   0  0  0  0  0  0  0  0  0  0  0  0
    2.5330   -1.7690   -0.2470 O   0  0  0  0  0  0  0  0  0  0  0  0
    4.0430   -0.0820    0.2550 C   0  0  0  0  0  0  0  0  0  0  0  0
    4.3700    1.2170    0.0000 C   0  0  0  0  0  0  0  0  0  0  0  0
    5.6900    1.6040    0.0710 C   0  0  0  0  0  0  0  0  0  0  0  0
    6.6760    0.7030    0.3930 C   0  0  0  0  0  0  0  0  0  0  0  0
    6.3440   -0.5960    0.6460 N   0  0  0  0  0  0  0  0  0  0  0  0
    5.0590   -0.9610    0.5750 C   0  0  0  0  0  0  0  0  0  0  0  0
    4.7970   -2.1700    0.8160 O   0  0  0  0  0  0  0  0  0  0  0  0
    8.1090    1.0650    0.4830 C   0  0  0  0  0  0  0  0  0  0  0  0
    8.4110    2.4770    0.1030 C   0  0  1  0  0  0  0  0  0  0  0  0
    9.8090    2.6370   -0.4130 C   0  0  0  0  0  0  0  0  0  0  0  0
    7.4170    2.9650   -0.9300 C   0  0  0  0  0  0  0  0  0  0  0  0
    6.0670    3.0080   -0.2010 C   0  0  1  0  0  0  0  0  0  0  0  0
    5.1250    3.6570   -0.9940 O   0  0  0  0  0  0  0  0  0  0  0  0
   -0.2110   -1.5630    0.1610 N   0  0  0  0  0  0  0  0  0  0  0  0
   -1.4580   -1.9620    0.1480 C   0  0  0  0  0  0  0  0  0  0  0  0
   -1.9870   -3.2760   -0.3110 C   0  0  0  0  0  0  0  0  0  0  0  0
   -1.3600   -4.4510    0.0660 C   0  0  0  0  0  0  0  0  0  0  0  0
   -1.7960   -5.6960   -0.3230 C   0  0  0  0  0  0  0  0  0  0  0  0
   -2.9110   -5.7960   -1.1290 C   0  0  0  0  0  0  0  0  0  0  0  0
   -3.3530   -7.0530   -1.5220 O   0  0  0  0  0  0  0  0  0  0  0  0
   -3.5430   -4.6320   -1.5110 C   0  0  0  0  0  0  0  0  0  0  0  0
   -3.0910   -3.3730   -1.1090 C   0  0  0  0  0  0  0  0  0  0  0  0
   -3.9960    1.1180   -0.2930 C   0  0  0  0  0  0  0  0  0  0  0  0
  1  2  1  0
  2  3  1  0
  3  4  2  0
  3 42  1  0
  4  5  1  0
  5  6  2  0
  6  7  1  0
  6 11  1  0
  7  8  1  0
  8  9  1  0
  8 10  2  0
 11 12  1  0
 11 42  2  0
 12 13  2  0
 12 14  1  0
 14 15  1  0
 14 34  2  0
 15 16  1  0
 16 17  1  0
 16 33  2  0
 17 18  1  0
 18 19  2  0
 18 20  1  0
 20 21  2  0
 20 25  1  0
 21 22  1  0
 22 23  2  0
 22 31  1  0
 23 24  1  0
 23 27  1  0
 24 25  1  0
 25 26  2  0
 27 28  1  0
 28 29  1  6
 28 30  1  0
 30 31  1  0
 31 32  1  6
 33 34  1  0
 34 35  1  0
 35 36  2  0
 35 41  1  0
 36 37  1  0
 37 38  2  0
 38 39  1  0
 38 40  1  0
 40 41  2  0
M  END
