
     RDKit          3D

 47 50  0  0  0  0  0  0  0  0999 V2000
   -7.6900    3.4710   -1.2170 C   0  0  0  0  0  0  0  0  0  0  0  0
   -7.9670    2.5140   -2.2010 N   0  0  0  0  0  0  0  0  0  0  0  0
   -8.0860    1.1360   -1.8930 C   0  0  0  0  0  0  0  0  0  0  0  0
   -6.9100    0.4080   -1.4880 C   0  0  2  0  0  0  0  0  0  0  0  0
   -7.1710   -1.1020   -1.2520 C   0  0  0  0  0  0  0  0  0  0  0  0
   -5.6770   -1.5320   -1.2640 C   0  0  0  0  0  0  0  0  0  0  0  0
   -4.9950   -0.4540   -0.6520 N   0  0  0  0  0  0  0  0  0  0  0  0
   -3.6560   -0.3270   -0.2550 C   0  0  0  0  0  0  0  0  0  0  0  0
   -3.3320    0.8250    0.2940 O   0  0  0  0  0  0  0  0  0  0  0  0
   -2.5950   -1.3080   -0.3720 C   0  0  0  0  0  0  0  0  0  0  0  0
   -2.7310   -2.4920   -1.0220 C   0  0  0  0  0  0  0  0  0  0  0  0
   -1.6630   -3.4120   -1.0430 C   0  0  0  0  0  0  0  0  0  0  0  0
   -0.4960   -3.1010   -0.4060 C   0  0  0  0  0  0  0  0  0  0  0  0
   -0.3190   -1.8880    0.2740 C   0  0  0  0  0  0  0  0  0  0  0  0
    0.9200   -1.7180    0.9200 N   0  0  0  0  0  0  0  0  0  0  0  0
    1.4420   -0.5540    1.5120 C   0  0  0  0  0  0  0  0  0  0  0  0
    0.7500    0.4910    1.4640 O   0  0  0  0  0  0  0  0  0  0  0  0
    2.7370   -0.5100    2.1770 N   0  0  0  0  0  0  0  0  0  0  0  0
    3.5320   -1.6780    2.2400 C   0  0  0  0  0  0  0  0  0  0  0  0
    4.3050   -2.0480    1.0570 C   0  0  0  0  0  0  0  0  0  0  0  0
    4.0480   -1.6480   -0.2310 C   0  0  0  0  0  0  0  0  0  0  0  0
    4.8250   -2.0290   -1.3040 C   0  0  0  0  0  0  0  0  0  0  0  0
    5.9330   -2.8580   -1.1210 C   0  0  0  0  0  0  0  0  0  0  0  0
    6.2130   -3.2750    0.1740 C   0  0  0  0  0  0  0  0  0  0  0  0
    7.3220   -4.1010    0.3350 O   0  0  0  0  0  0  0  0  0  0  0  0
    8.1400   -4.5140   -0.7150 C   0  0  0  0  0  0  0  0  0  0  0  0
    5.4170   -2.8760    1.2190 C   0  0  0  0  0  0  0  0  0  0  0  0
    3.1140    0.7030    2.8030 C   0  0  1  0  0  0  0  0  0  0  0  0
    2.8960    0.4040    4.3330 C   0  0  0  0  0  0  0  0  0  0  0  0
    4.4090    1.3390    2.6300 C   0  0  0  0  0  0  0  0  0  0  0  0
    4.8460    1.7430    1.2890 C   0  0  0  0  0  0  0  0  0  0  0  0
    4.4010    2.8810    0.6500 C   0  0  0  0  0  0  0  0  0  0  0  0
    4.9190    3.2180   -0.5910 C   0  0  0  0  0  0  0  0  0  0  0  0
    5.8720    2.4510   -1.2180 C   0  0  0  0  0  0  0  0  0  0  0  0
    6.4120    2.7960   -2.5170 C   0  0  0  0  0  0  0  0  0  0  0  0
    7.2930    2.0330   -3.0270 O   0  0  0  0  0  0  0  0  0  0  0  0
    6.0490    3.8920   -3.2560 O   0  0  0  0  0  0  0  0  0  0  0  0
    6.5980    4.1980   -4.5260 C   0  0  0  0  0  0  0  0  0  0  0  0
    6.2950    1.3250   -0.5570 C   0  0  0  0  0  0  0  0  0  0  0  0
    5.8100    0.9630    0.6620 C   0  0  0  0  0  0  0  0  0  0  0  0
   -1.3540   -1.0340    0.2750 C   0  0  0  0  0  0  0  0  0  0  0  0
   -5.9970    0.7100   -0.4170 C   0  0  2  0  0  0  0  0  0  0  0  0
   -6.2420    0.6800    1.0080 C   0  0  0  0  0  0  0  0  0  0  0  0
   -7.2570    1.4850    1.7150 C   0  0  0  0  0  0  0  0  0  0  0  0
   -8.6680    1.2800    1.5170 C   0  0  0  0  0  0  0  0  0  0  0  0
   -9.5480    2.2100    1.6040 O   0  0  0  0  0  0  0  0  0  0  0  0
   -9.1990    0.0410    1.2190 O   0  0  0  0  0  0  0  0  0  0  0  0
  1  2  1  0
  2  3  1  0
  4  3  1  1
  4  5  1  0
  4 42  1  0
  5  6  1  0
  6  7  1  0
  7  8  1  0
  7 42  1  0
  8  9  2  0
  8 10  1  0
 10 11  2  0
 10 41  1  0
 11 12  1  0
 12 13  2  0
 13 14  1  0
 14 15  1  0
 14 41  2  0
 15 16  1  0
 16 17  2  0
 16 18  1  0
 18 19  1  0
 18 28  1  0
 19 20  1  0
 20 21  2  0
 20 27  1  0
 21 22  1  0
 22 23  2  0
 23 24  1  0
 24 25  1  0
 24 27  2  0
 25 26  1  0
 28 29  1  1
 28 30  1  0
 30 31  1  0
 31 32  2  0
 31 40  1  0
 32 33  1  0
 33 34  2  0
 34 35  1  0
 34 39  1  0
 35 36  2  0
 35 37  1  0
 37 38  1  0
 39 40  2  0
 42 43  1  1
 43 44  1  0
 44 45  1  0
 45 46  2  0
 45 47  1  0
M  END
