
     RDKit          3D

 47 50  0  0  0  0  0  0  0  0999 V2000
    8.2180    0.5080   -0.6440 C   0  0  0  0  0  0  0  0  0  0  0  0
    8.3500   -0.4130    0.2990 O   0  0  0  0  0  0  0  0  0  0  0  0
    8.9870   -1.3730    0.8950 C   0  0  0  0  0  0  0  0  0  0  0  0
    8.4450   -2.3070    1.8610 C   0  0  0  0  0  0  0  0  0  0  0  0
    7.3360   -2.5070    2.3920 C   0  0  0  0  0  0  0  0  0  0  0  0
    6.0250   -1.9960    2.3850 C   0  0  0  0  0  0  0  0  0  0  0  0
    5.1370   -2.5410    3.1870 O   0  0  0  0  0  0  0  0  0  0  0  0
    5.4850   -0.9510    1.6240 N   0  0  0  0  0  0  0  0  0  0  0  0
    4.1120   -0.5320    1.7670 C   0  0  0  0  0  0  0  0  0  0  0  0
    3.3760   -1.0770    2.6110 O   0  0  0  0  0  0  0  0  0  0  0  0
    3.6380    0.5660    0.8610 C   0  0  2  0  0  0  0  0  0  0  0  0
    4.5750    1.7320    0.8690 C   0  0  0  0  0  0  0  0  0  0  0  0
    2.3330    0.8870    1.1780 O   0  0  0  0  0  0  0  0  0  0  0  0
    1.1640    0.5570    0.5680 C   0  0  0  0  0  0  0  0  0  0  0  0
   -0.0360    1.0630    1.1000 C   0  0  0  0  0  0  0  0  0  0  0  0
   -1.2530    0.7500    0.5120 C   0  0  0  0  0  0  0  0  0  0  0  0
   -1.3190   -0.0520   -0.5910 C   0  0  0  0  0  0  0  0  0  0  0  0
   -2.6360   -0.3860   -1.2350 C   0  0  0  0  0  0  0  0  0  0  0  0
   -3.2130   -1.6070   -0.5600 C   0  0  0  0  0  0  0  0  0  0  0  0
   -4.4180   -2.1050   -1.0420 N   0  0  0  0  0  0  0  0  0  0  0  0
   -5.6440   -1.4140   -0.8990 C   0  0  1  0  0  0  0  0  0  0  0  0
   -6.0610   -1.1850    0.4970 C   0  0  0  0  0  0  0  0  0  0  0  0
   -5.3000   -1.2730    1.4830 O   0  0  0  0  0  0  0  0  0  0  0  0
   -7.4400   -0.8440    0.7500 N   0  0  0  0  0  0  0  0  0  0  0  0
   -8.4210   -0.7540   -0.2990 C   0  0  0  0  0  0  0  0  0  0  0  0
   -9.2110    0.4990   -0.1740 C   0  0  0  0  0  0  0  0  0  0  0  0
   -9.9340    0.4680    1.1620 C   0  0  0  0  0  0  0  0  0  0  0  0
   -8.9370    0.4090    2.2980 C   0  0  2  0  0  0  0  0  0  0  0  0
   -8.4120    1.7950    2.6010 C   0  0  0  0  0  0  0  0  0  0  0  0
   -7.4930    1.7860    3.6310 O   0  0  0  0  0  0  0  0  0  0  0  0
   -7.8810   -0.6030    2.1150 C   0  0  0  0  0  0  0  0  0  0  0  0
   -5.6920   -0.1600   -1.7060 C   0  0  0  0  0  0  0  0  0  0  0  0
   -6.0320    1.0760   -1.2090 C   0  0  0  0  0  0  0  0  0  0  0  0
   -6.0600    2.2060   -2.0110 C   0  0  0  0  0  0  0  0  0  0  0  0
   -5.7470    2.1320   -3.3490 C   0  0  0  0  0  0  0  0  0  0  0  0
   -5.7740    3.2740   -4.1680 O   0  0  0  0  0  0  0  0  0  0  0  0
   -5.4060    0.9000   -3.8600 C   0  0  0  0  0  0  0  0  0  0  0  0
   -5.3820   -0.2180   -3.0440 C   0  0  0  0  0  0  0  0  0  0  0  0
   -0.1550   -0.5550   -1.1250 C   0  0  0  0  0  0  0  0  0  0  0  0
    1.0860   -0.2470   -0.5410 C   0  0  0  0  0  0  0  0  0  0  0  0
   10.2990   -1.5660    0.6250 C   0  0  0  0  0  0  0  0  0  0  0  0
   11.0480   -0.7630   -0.3010 C   0  0  0  0  0  0  0  0  0  0  0  0
   12.1660   -0.0340    0.1510 C   0  0  0  0  0  0  0  0  0  0  0  0
   12.9550    0.7020   -0.6890 C   0  0  0  0  0  0  0  0  0  0  0  0
   12.6560    0.7420   -2.0310 C   0  0  0  0  0  0  0  0  0  0  0  0
   11.5710    0.0470   -2.5330 C   0  0  0  0  0  0  0  0  0  0  0  0
   10.8070   -0.6800   -1.6490 C   0  0  0  0  0  0  0  0  0  0  0  0
  1  2  1  0
  2  3  1  0
  3  4  1  0
  3 41  2  3
  4  5  2  3
  5  6  1  0
  6  7  2  0
  6  8  1  0
  8  9  1  0
  9 10  2  0
  9 11  1  0
 11 12  1  1
 11 13  1  0
 13 14  1  0
 14 15  2  0
 14 40  1  0
 15 16  1  0
 16 17  2  0
 17 18  1  0
 17 39  1  0
 18 19  1  0
 19 20  1  0
 21 20  1  1
 21 22  1  0
 21 32  1  0
 22 23  2  0
 22 24  1  0
 24 25  1  0
 24 31  1  0
 25 26  1  0
 26 27  1  0
 27 28  1  0
 28 29  1  6
 28 31  1  0
 29 30  1  0
 32 33  2  0
 32 38  1  0
 33 34  1  0
 34 35  2  0
 35 36  1  0
 35 37  1  0
 37 38  2  0
 39 40  2  0
 41 42  1  0
 42 43  2  0
 42 47  1  0
 43 44  1  0
 44 45  2  0
 45 46  1  0
 46 47  2  0
M  END
