
     RDKit          3D

 47 51  0  0  0  0  0  0  0  0999 V2000
    3.5220   -4.1480   -3.3120 C   0  0  0  0  0  0  0  0  0  0  0  0
    4.4360   -3.1410   -2.6840 C   0  0  0  0  0  0  0  0  0  0  0  0
    3.8530   -2.5720   -1.5440 O   0  0  0  0  0  0  0  0  0  0  0  0
    3.4970   -3.3140   -0.4280 C   0  0  0  0  0  0  0  0  0  0  0  0
    3.7150   -4.6760   -0.3760 C   0  0  0  0  0  0  0  0  0  0  0  0
    3.3590   -5.4030    0.7380 C   0  0  0  0  0  0  0  0  0  0  0  0
    2.7780   -4.7690    1.8160 C   0  0  0  0  0  0  0  0  0  0  0  0
    2.5630   -3.3870    1.7520 C   0  0  0  0  0  0  0  0  0  0  0  0
    2.9120   -2.6560    0.6530 C   0  0  0  0  0  0  0  0  0  0  0  0
    2.7200   -1.2410    0.5930 C   0  0  0  0  0  0  0  0  0  0  0  0
    3.7600   -0.4180    0.3860 N   0  0  0  0  0  0  0  0  0  0  0  0
    3.6600    0.9040    0.3280 C   0  0  0  0  0  0  0  0  0  0  0  0
    4.7990    1.7850    0.1090 C   0  0  0  0  0  0  0  0  0  0  0  0
    4.6420    3.0220    0.0390 O   0  0  0  0  0  0  0  0  0  0  0  0
    6.1230    1.2890   -0.0310 N   0  0  0  0  0  0  0  0  0  0  0  0
    7.2900    2.1530   -0.2510 C   0  0  2  0  0  0  0  0  0  0  0  0
    7.9140    1.8680   -1.5670 C   0  0  0  0  0  0  0  0  0  0  0  0
    8.1320    2.0930    0.9580 C   0  0  1  0  0  0  0  0  0  0  0  0
    8.6250    0.8530    1.2640 O   0  0  0  0  0  0  0  0  0  0  0  0
    8.9420    3.2690    1.3540 C   0  0  0  0  0  0  0  0  0  0  0  0
   10.2140    3.2710    0.9490 O   0  0  0  0  0  0  0  0  0  0  0  0
   10.6590    3.2320   -0.2970 C   0  0  0  0  0  0  0  0  0  0  0  0
    2.4400    1.4260    0.4860 N   0  0  0  0  0  0  0  0  0  0  0  0
    1.3290    0.6510    0.7010 C   0  0  0  0  0  0  0  0  0  0  0  0
    1.4320   -0.7130    0.7620 C   0  0  0  0  0  0  0  0  0  0  0  0
    0.3490   -1.5660    0.9470 N   0  0  0  0  0  0  0  0  0  0  0  0
   -0.9910   -1.2270    1.2630 C   0  0  0  0  0  0  0  0  0  0  0  0
   -1.3000   -0.0280    1.4080 O   0  0  0  0  0  0  0  0  0  0  0  0
   -2.0190   -2.2910    1.4210 C   0  0  0  0  0  0  0  0  0  0  0  0
   -3.3690   -1.7400    1.6850 C   0  0  0  0  0  0  0  0  0  0  0  0
   -3.8790   -0.9320    0.5330 C   0  0  0  0  0  0  0  0  0  0  0  0
   -5.2570   -0.3730    0.8020 C   0  0  0  0  0  0  0  0  0  0  0  0
   -5.8160    0.4470   -0.3220 C   0  0  1  0  0  0  0  0  0  0  0  0
   -5.9610   -0.3370   -1.5970 C   0  0  0  0  0  0  0  0  0  0  0  0
   -7.1490    0.9880    0.0520 C   0  0  0  0  0  0  0  0  0  0  0  0
   -7.8330    0.5390    1.1640 C   0  0  0  0  0  0  0  0  0  0  0  0
   -9.0690    1.0510    1.4660 C   0  0  0  0  0  0  0  0  0  0  0  0
   -9.6690    2.0180    0.6870 C   0  0  0  0  0  0  0  0  0  0  0  0
   -8.9740    2.4530   -0.4160 C   0  0  0  0  0  0  0  0  0  0  0  0
   -9.5390    3.4380   -1.2310 C   0  0  0  0  0  0  0  0  0  0  0  0
   -8.8750    3.9110   -2.3420 C   0  0  0  0  0  0  0  0  0  0  0  0
   -7.6280    3.4280   -2.6890 C   0  0  0  0  0  0  0  0  0  0  0  0
   -7.0550    2.4460   -1.8830 C   0  0  0  0  0  0  0  0  0  0  0  0
   -7.7100    1.9690   -0.7760 C   0  0  0  0  0  0  0  0  0  0  0  0
  -10.9030    2.3350    1.2370 O   0  0  0  0  0  0  0  0  0  0  0  0
  -11.2560    1.1980    2.0150 C   0  0  0  0  0  0  0  0  0  0  0  0
   -9.9790    0.7920    2.5090 O   0  0  0  0  0  0  0  0  0  0  0  0
  1  2  1  0
  2  3  1  0
  3  4  1  0
  4  5  2  0
  4  9  1  0
  5  6  1  0
  6  7  2  0
  7  8  1  0
  8  9  2  0
  9 10  1  0
 10 11  2  0
 10 25  1  0
 11 12  1  0
 12 13  1  0
 12 23  2  0
 13 14  2  0
 13 15  1  0
 15 16  1  0
 16 17  1  6
 16 18  1  0
 18 19  1  6
 18 20  1  0
 20 21  1  0
 21 22  1  0
 23 24  1  0
 24 25  2  0
 25 26  1  0
 26 27  1  0
 27 28  2  0
 27 29  1  0
 29 30  1  0
 30 31  1  0
 31 32  1  0
 32 33  1  0
 33 34  1  6
 33 35  1  0
 35 36  2  0
 35 44  1  0
 36 37  1  0
 37 38  2  0
 37 47  1  0
 38 39  1  0
 38 45  1  0
 39 40  2  0
 39 44  1  0
 40 41  1  0
 41 42  2  0
 42 43  1  0
 43 44  2  0
 45 46  1  0
 46 47  1  0
M  END
