
     RDKit          3D

 47 49  0  0  0  0  0  0  0  0999 V2000
    1.4390   -2.1480    6.6310 C   0  0  0  0  0  0  0  0  0  0  0  0
    1.5750   -0.6410    6.5320 C   0  0  0  0  0  0  0  0  0  0  0  0
    0.8180   -0.1030    5.4310 N   0  0  0  0  0  0  0  0  0  0  0  0
    1.0790   -0.5190    4.0660 C   0  0  0  0  0  0  0  0  0  0  0  0
    2.0090   -1.3820    3.9170 O   0  0  0  0  0  0  0  0  0  0  0  0
    0.3170    0.0300    2.9830 C   0  0  0  0  0  0  0  0  0  0  0  0
   -0.5670    0.9040    3.3260 O   0  0  0  0  0  0  0  0  0  0  0  0
    0.3780   -0.2290    1.6060 N   0  0  0  0  0  0  0  0  0  0  0  0
   -0.4920    0.4810    0.6610 C   0  0  0  0  0  0  0  0  0  0  0  0
   -1.8090   -0.1570    0.5050 C   0  0  0  0  0  0  0  0  0  0  0  0
   -2.0630   -1.1720    1.2310 O   0  0  0  0  0  0  0  0  0  0  0  0
   -2.7420    0.3460   -0.4400 N   0  0  0  0  0  0  0  0  0  0  0  0
   -2.4820    1.5480   -1.1330 C   0  0  0  0  0  0  0  0  0  0  0  0
   -3.0450    2.8100   -0.6340 C   0  0  0  0  0  0  0  0  0  0  0  0
   -3.3650    3.7870   -1.6060 C   0  0  0  0  0  0  0  0  0  0  0  0
   -3.8360    4.9960   -1.2240 C   0  0  0  0  0  0  0  0  0  0  0  0
   -4.0220    5.3230    0.1000 C   0  0  0  0  0  0  0  0  0  0  0  0
   -3.7080    4.3710    0.9820 N   0  0  0  0  0  0  0  0  0  0  0  0
   -3.2360    3.1480    0.6650 C   0  0  0  0  0  0  0  0  0  0  0  0
   -2.9490    2.2260    1.6890 O   0  0  0  0  0  0  0  0  0  0  0  0
   -3.1850    2.6670    3.0130 C   0  0  0  0  0  0  0  0  0  0  0  0
   -3.9430   -0.4830   -0.6350 C   0  0  1  0  0  0  0  0  0  0  0  0
   -5.1780    0.2330   -0.2120 C   0  0  0  0  0  0  0  0  0  0  0  0
   -5.4470    1.4060   -0.9040 O   0  0  0  0  0  0  0  0  0  0  0  0
   -3.9870   -1.0210   -2.0160 C   0  0  0  0  0  0  0  0  0  0  0  0
   -5.0680   -1.9070   -2.4500 C   0  0  2  0  0  0  0  0  0  0  0  0
   -4.7220   -2.2600   -3.9330 C   0  0  0  0  0  0  0  0  0  0  0  0
   -6.4630   -1.4130   -2.4990 C   0  0  0  0  0  0  0  0  0  0  0  0
   -5.0740   -3.2610   -1.7680 C   0  0  0  0  0  0  0  0  0  0  0  0
    1.2840   -1.2230    1.0820 C   0  0  1  0  0  0  0  0  0  0  0  0
    0.6180   -2.1050    0.0590 C   0  0  0  0  0  0  0  0  0  0  0  0
    2.3790   -0.4550    0.3000 C   0  0  1  0  0  0  0  0  0  0  0  0
    2.9700    0.4810    1.1700 O   0  0  0  0  0  0  0  0  0  0  0  0
    3.4070   -1.3640   -0.2360 C   0  0  0  0  0  0  0  0  0  0  0  0
    3.5710   -2.6720    0.1640 C   0  0  0  0  0  0  0  0  0  0  0  0
    4.5850   -3.4840   -0.3580 C   0  0  0  0  0  0  0  0  0  0  0  0
    5.4360   -2.9480   -1.2980 C   0  0  0  0  0  0  0  0  0  0  0  0
    5.2730   -1.6150   -1.7090 C   0  0  0  0  0  0  0  0  0  0  0  0
    4.2790   -0.8290   -1.1930 C   0  0  0  0  0  0  0  0  0  0  0  0
    4.0750    0.5400   -1.6300 C   0  0  0  0  0  0  0  0  0  0  0  0
    4.9840    1.0560   -2.5370 O   0  0  0  0  0  0  0  0  0  0  0  0
    6.3390    1.2760   -2.3570 C   0  0  0  0  0  0  0  0  0  0  0  0
    7.0320    1.0240   -1.1930 C   0  0  0  0  0  0  0  0  0  0  0  0
    8.3840    1.2550   -1.0530 C   0  0  0  0  0  0  0  0  0  0  0  0
    9.1120    1.7640   -2.1070 C   0  0  0  0  0  0  0  0  0  0  0  0
    8.4260    2.0220   -3.2800 C   0  0  0  0  0  0  0  0  0  0  0  0
    7.0790    1.7920   -3.4240 C   0  0  0  0  0  0  0  0  0  0  0  0
  1  2  1  0
  2  3  1  0
  3  4  1  0
  4  5  2  0
  4  6  1  0
  6  7  2  0
  6  8  1  0
  8  9  1  0
  8 30  1  0
  9 10  1  0
 10 11  2  0
 10 12  1  0
 12 13  1  0
 12 22  1  0
 13 14  1  0
 14 15  2  0
 14 19  1  0
 15 16  1  0
 16 17  2  0
 17 18  1  0
 18 19  2  0
 19 20  1  0
 20 21  1  0
 22 23  1  6
 22 25  1  0
 23 24  1  0
 25 26  1  0
 26 27  1  6
 26 28  1  0
 26 29  1  0
 30 31  1  6
 30 32  1  0
 32 33  1  1
 32 34  1  0
 34 35  2  0
 34 39  1  0
 35 36  1  0
 36 37  2  0
 37 38  1  0
 38 39  2  0
 39 40  1  0
 40 41  1  0
 41 42  1  0
 42 43  2  0
 42 47  1  0
 43 44  1  0
 44 45  2  0
 45 46  1  0
 46 47  2  0
M  END
