
     RDKit          3D

 16 16  0  0  0  0  0  0  0  0999 V2000
    2.0420    0.9360   -1.2930 O   0  0  0  0  0  0  0  0  0  0  0  0
    2.0540    0.6860   -0.0460 C   0  0  0  0  0  0  0  0  0  0  0  0
    2.7430    1.5920    0.7980 N   0  0  0  0  0  0  0  0  0  0  0  0
    3.3590    2.6780    0.2730 O   0  0  0  0  0  0  0  0  0  0  0  0
    1.3890   -0.4730    0.4580 N   0  0  0  0  0  0  0  0  0  0  0  0
    0.6930   -1.3790   -0.4330 C   0  0  2  0  0  0  0  0  0  0  0  0
   -0.7400   -1.5130    0.0360 C   0  0  0  0  0  0  0  0  0  0  0  0
   -1.4480   -0.2140    0.0350 C   0  0  0  0  0  0  0  0  0  0  0  0
   -1.4390    0.5940    1.1480 C   0  0  0  0  0  0  0  0  0  0  0  0
   -2.1020    1.8230    1.1630 C   0  0  0  0  0  0  0  0  0  0  0  0
   -2.7750    2.2300    0.0460 C   0  0  0  0  0  0  0  0  0  0  0  0
   -2.8010    1.4430   -1.0820 C   0  0  0  0  0  0  0  0  0  0  0  0
   -2.1350    0.2240   -1.0750 C   0  0  0  0  0  0  0  0  0  0  0  0
    1.3080   -2.7210   -0.3460 C   0  0  0  0  0  0  0  0  0  0  0  0
    2.2720   -2.9050    0.4160 O   0  0  0  0  0  0  0  0  0  0  0  0
    0.7970   -3.7510   -1.1190 O   0  0  0  0  0  0  0  0  0  0  0  0
  1  2  2  0
  2  3  1  0
  2  5  1  0
  3  4  1  0
  5  6  1  0
  6  7  1  1
  6 14  1  0
  7  8  1  0
  8  9  2  0
  8 13  1  0
  9 10  1  0
 10 11  2  0
 11 12  1  0
 12 13  2  0
 14 15  2  0
 14 16  1  0
M  END
