
     RDKit          3D

 28 31  0  0  0  0  0  0  0  0999 V2000
    7.6900   -0.6990   -1.2990 C   0  0  0  0  0  0  0  0  0  0  0  0
    6.3430   -0.1450   -0.9020 C   0  0  0  0  0  0  0  0  0  0  0  0
    5.4200    0.1320   -1.8750 C   0  0  0  0  0  0  0  0  0  0  0  0
    4.1880    0.5890   -1.4910 C   0  0  0  0  0  0  0  0  0  0  0  0
    3.8530    0.7700   -0.1510 C   0  0  0  0  0  0  0  0  0  0  0  0
    2.5420    1.3900    0.2690 C   0  0  0  0  0  0  0  0  0  0  0  0
    1.5290    0.4770    0.0280 N   0  0  0  0  0  0  0  0  0  0  0  0
    1.3640   -0.3340   -1.0510 C   0  0  0  0  0  0  0  0  0  0  0  0
   -0.2270   -0.5270   -1.0180 C   0  0  0  0  0  0  0  0  0  0  0  0
   -0.5030   -0.7530    0.3560 C   0  0  2  0  0  0  0  0  0  0  0  0
   -1.6930   -0.2600    1.0840 C   0  0  0  0  0  0  0  0  0  0  0  0
   -1.3760    0.3140    2.2170 O   0  0  0  0  0  0  0  0  0  0  0  0
   -3.1030   -0.2850    0.8290 C   0  0  0  0  0  0  0  0  0  0  0  0
   -3.8980   -0.0230    1.9470 N   0  0  0  0  0  0  0  0  0  0  0  0
   -5.2140    0.1520    1.9040 C   0  0  0  0  0  0  0  0  0  0  0  0
   -5.8690    0.3990    2.9970 O   0  0  0  0  0  0  0  0  0  0  0  0
   -5.9030    0.0840    0.7300 C   0  0  0  0  0  0  0  0  0  0  0  0
   -7.2580    0.3100    0.6660 C   0  0  0  0  0  0  0  0  0  0  0  0
   -7.9250    0.2850   -0.5360 C   0  0  0  0  0  0  0  0  0  0  0  0
   -7.2430    0.0310   -1.7030 C   0  0  0  0  0  0  0  0  0  0  0  0
   -5.8610   -0.2040   -1.6380 C   0  0  0  0  0  0  0  0  0  0  0  0
   -5.1950   -0.1830   -0.4540 C   0  0  0  0  0  0  0  0  0  0  0  0
   -3.8120   -0.3520   -0.3250 C   0  0  0  0  0  0  0  0  0  0  0  0
   -3.1170   -0.6350   -1.5830 C   0  0  0  0  0  0  0  0  0  0  0  0
    0.6700    0.0530    1.0730 C   0  0  0  0  0  0  0  0  0  0  0  0
    4.8120    0.4790    0.7760 C   0  0  0  0  0  0  0  0  0  0  0  0
    4.4660    0.5630    2.2180 C   0  0  0  0  0  0  0  0  0  0  0  0
    6.0580    0.0250    0.4350 C   0  0  0  0  0  0  0  0  0  0  0  0
  1  2  1  0
  2  3  2  0
  2 28  1  0
  3  4  1  0
  4  5  2  0
  5  6  1  0
  5 26  1  0
  6  7  1  0
  7  8  1  0
  7 25  1  0
  8  9  1  0
  9 10  1  0
 10 11  1  1
 10 25  1  0
 11 12  2  0
 11 13  1  0
 13 14  1  0
 13 23  2  0
 14 15  1  0
 15 16  2  0
 15 17  1  0
 17 18  2  0
 17 22  1  0
 18 19  1  0
 19 20  2  0
 20 21  1  0
 21 22  2  0
 22 23  1  0
 23 24  1  0
 26 27  1  0
 26 28  2  0
M  END
