
     RDKit          3D

 28 31  0  0  0  0  0  0  0  0999 V2000
   -4.4450   -3.3840   -1.2860 C   0  0  0  0  0  0  0  0  0  0  0  0
   -3.6610   -2.2650   -0.6750 C   0  0  0  0  0  0  0  0  0  0  0  0
   -2.2580   -2.2770   -0.8300 C   0  0  0  0  0  0  0  0  0  0  0  0
   -1.5030   -1.2620   -0.2800 C   0  0  0  0  0  0  0  0  0  0  0  0
   -0.0730   -1.1090   -0.4650 C   0  0  0  0  0  0  0  0  0  0  0  0
    0.4050    0.0190   -0.0810 O   0  0  0  0  0  0  0  0  0  0  0  0
    0.8880   -1.9810   -0.9880 N   0  0  0  0  0  0  0  0  0  0  0  0
    0.5620   -3.2940   -1.5960 C   0  0  0  0  0  0  0  0  0  0  0  0
    2.2540   -1.6460   -1.0580 C   0  0  0  0  0  0  0  0  0  0  0  0
    2.9040   -2.4490   -1.8850 O   0  0  0  0  0  0  0  0  0  0  0  0
    3.0730   -0.6540   -0.4440 C   0  0  0  0  0  0  0  0  0  0  0  0
    2.8940   -0.0480    0.7500 C   0  0  0  0  0  0  0  0  0  0  0  0
    3.7250    0.9890    1.1890 C   0  0  0  0  0  0  0  0  0  0  0  0
    4.7720    1.4390    0.4190 C   0  0  0  0  0  0  0  0  0  0  0  0
    4.9740    0.8330   -0.8010 C   0  0  0  0  0  0  0  0  0  0  0  0
    4.1490   -0.1720   -1.2010 C   0  0  0  0  0  0  0  0  0  0  0  0
    6.1440    1.4730   -1.4450 C   0  0  0  0  0  0  0  0  0  0  0  0
    6.1280    2.8530   -0.8210 C   0  0  0  0  0  0  0  0  0  0  0  0
    5.7880    2.4980    0.6330 C   0  0  0  0  0  0  0  0  0  0  0  0
   -2.1890   -0.2620    0.4170 C   0  0  0  0  0  0  0  0  0  0  0  0
   -3.5850   -0.2560    0.5650 C   0  0  0  0  0  0  0  0  0  0  0  0
   -4.3060   -1.2720    0.0090 C   0  0  0  0  0  0  0  0  0  0  0  0
   -5.7670   -1.3280    0.1260 C   0  0  0  0  0  0  0  0  0  0  0  0
   -4.3050    0.8020    1.2780 C   0  0  0  0  0  0  0  0  0  0  0  0
   -3.4230    1.8250    1.9270 C   0  0  0  0  0  0  0  0  0  0  0  0
   -2.1690    2.0740    1.1410 C   0  0  1  0  0  0  0  0  0  0  0  0
   -1.2930    3.1030    1.8070 C   0  0  0  0  0  0  0  0  0  0  0  0
   -1.4880    0.7700    1.0840 N   0  0  0  0  0  0  0  0  0  0  0  0
  1  2  1  0
  2  3  2  0
  2 22  1  0
  3  4  1  0
  4  5  1  0
  4 20  2  0
  5  6  2  0
  5  7  1  0
  7  8  1  0
  7  9  1  0
  9 10  2  0
  9 11  1  0
 11 12  2  0
 11 16  1  0
 12 13  1  0
 13 14  2  0
 14 15  1  0
 14 19  1  0
 15 16  2  0
 15 17  1  0
 17 18  1  0
 18 19  1  0
 20 21  1  0
 20 28  1  0
 21 22  2  0
 21 24  1  0
 22 23  1  0
 24 25  1  0
 25 26  1  0
 26 27  1  1
 26 28  1  0
M  END
