
     RDKit          3D

 28 31  0  0  0  0  0  0  0  0999 V2000
    7.6990    1.6640   -0.8200 C   0  0  0  0  0  0  0  0  0  0  0  0
    6.7190    1.4870    0.0790 C   0  0  0  0  0  0  0  0  0  0  0  0
    6.4300    0.1260    0.5730 C   0  0  0  0  0  0  0  0  0  0  0  0
    5.0550   -0.2160    0.2430 N   0  0  0  0  0  0  0  0  0  0  0  0
    4.0330    0.5710    0.7870 C   0  0  0  0  0  0  0  0  0  0  0  0
    4.3480    1.5660    1.5420 O   0  0  0  0  0  0  0  0  0  0  0  0
    2.6240    0.3490    0.5540 C   0  0  0  0  0  0  0  0  0  0  0  0
    1.8470    1.5150    0.4820 C   0  0  0  0  0  0  0  0  0  0  0  0
    0.4940    1.4640    0.2100 C   0  0  0  0  0  0  0  0  0  0  0  0
   -0.1400    2.5400    0.1600 O   0  0  0  0  0  0  0  0  0  0  0  0
   -0.0840    0.2800    0.0130 N   0  0  0  0  0  0  0  0  0  0  0  0
    0.6440   -0.8900    0.0760 C   0  0  0  0  0  0  0  0  0  0  0  0
    0.0840   -2.1250   -0.1170 C   0  0  0  0  0  0  0  0  0  0  0  0
   -1.2820   -2.2110   -0.3900 C   0  0  0  0  0  0  0  0  0  0  0  0
   -2.0190   -1.0670   -0.4570 C   0  0  0  0  0  0  0  0  0  0  0  0
   -3.3580   -1.1590   -0.7270 C   0  0  0  0  0  0  0  0  0  0  0  0
   -4.1390   -0.0220   -0.8050 C   0  0  0  0  0  0  0  0  0  0  0  0
   -5.5820   -0.2140   -1.0880 C   0  0  0  0  0  0  0  0  0  0  0  0
   -6.4260   -0.1430    0.1530 C   0  0  0  0  0  0  0  0  0  0  0  0
   -3.5470    1.1960   -0.6070 C   0  0  0  0  0  0  0  0  0  0  0  0
   -4.3250    2.4310   -0.6930 C   0  0  0  0  0  0  0  0  0  0  0  0
   -5.1500    2.7900    0.4870 C   0  0  0  0  0  0  0  0  0  0  0  0
   -2.1760    1.3080   -0.3300 C   0  0  0  0  0  0  0  0  0  0  0  0
   -1.4080    0.1810   -0.2530 C   0  0  0  0  0  0  0  0  0  0  0  0
    0.8550   -3.3810   -0.0530 C   0  0  0  0  0  0  0  0  0  0  0  0
    1.9340   -3.2160    0.9930 C   0  0  0  0  0  0  0  0  0  0  0  0
    2.8480   -2.0800    0.4950 C   0  0  0  0  0  0  0  0  0  0  0  0
    2.0200   -0.8410    0.3530 C   0  0  0  0  0  0  0  0  0  0  0  0
  1  2  2  0
  2  3  1  0
  3  4  1  0
  4  5  1  0
  5  6  2  0
  5  7  1  0
  7  8  2  0
  7 28  1  0
  8  9  1  0
  9 10  2  0
  9 11  1  0
 11 12  1  0
 11 24  1  0
 12 13  1  0
 12 28  2  0
 13 14  2  0
 13 25  1  0
 14 15  1  0
 15 16  2  0
 15 24  1  0
 16 17  1  0
 17 18  1  0
 17 20  2  0
 18 19  1  0
 20 21  1  0
 20 23  1  0
 21 22  1  0
 23 24  2  0
 25 26  1  0
 26 27  1  0
 27 28  1  0
M  END
