
     RDKit          3D

 43 45  0  0  0  0  0  0  0  0999 V2000
   -1.8850    0.2420    1.3850 C   0  0  0  0  0  0  0  0  0  0  0  0
   -0.9120    0.9630    0.4380 C   0  0  1  0  0  0  0  0  0  0  0  0
   -1.7370    1.9190   -0.3550 C   0  0  0  0  0  0  0  0  0  0  0  0
   -3.1760    1.4770   -0.5870 C   0  0  0  0  0  0  0  0  0  0  0  0
   -3.2820    0.5140   -1.6860 N   0  0  0  0  0  0  0  0  0  0  0  0
   -4.1450    0.8180   -2.7880 C   0  0  0  0  0  0  0  0  0  0  0  0
   -5.5210    0.2990   -2.7860 C   0  0  0  0  0  0  0  0  0  0  0  0
   -6.4280    0.7110   -1.6860 C   0  0  0  0  0  0  0  0  0  0  0  0
   -6.0480    0.3390   -0.4120 O   0  0  0  0  0  0  0  0  0  0  0  0
   -6.9510    0.7760    0.4360 O   0  0  0  0  0  0  0  0  0  0  0  0
   -2.5110   -0.7150   -1.7430 C   0  0  0  0  0  0  0  0  0  0  0  0
   -3.0260   -1.5880   -2.4600 O   0  0  0  0  0  0  0  0  0  0  0  0
   -1.2290   -1.0500   -1.0750 N   0  0  0  0  0  0  0  0  0  0  0  0
   -1.1850   -2.4780   -1.0760 C   0  0  0  0  0  0  0  0  0  0  0  0
   -0.8380   -3.2450    0.1070 C   0  0  2  0  0  0  0  0  0  0  0  0
   -2.0600   -3.4650    0.8860 N   0  0  0  0  0  0  0  0  0  0  0  0
   -2.1910   -4.7420    1.5380 C   0  0  0  0  0  0  0  0  0  0  0  0
   -1.3270   -5.6470    1.4720 O   0  0  0  0  0  0  0  0  0  0  0  0
   -3.3300   -5.0500    2.3060 O   0  0  0  0  0  0  0  0  0  0  0  0
    0.1790   -2.7500    1.0640 C   0  0  0  0  0  0  0  0  0  0  0  0
    1.4240   -3.6340    0.9450 C   0  0  0  0  0  0  0  0  0  0  0  0
    2.5440   -2.8520    0.2990 C   0  0  0  0  0  0  0  0  0  0  0  0
    3.4030   -2.2850    1.2630 O   0  0  0  0  0  0  0  0  0  0  0  0
    3.8010   -1.0050    0.8620 C   0  0  0  0  0  0  0  0  0  0  0  0
    5.2070   -0.6810    1.2550 C   0  0  0  0  0  0  0  0  0  0  0  0
    5.3680    0.4820    2.0670 N   0  0  0  0  0  0  0  0  0  0  0  0
    5.4620    1.8280    1.6500 C   0  0  0  0  0  0  0  0  0  0  0  0
    6.5110    2.5040    1.9830 O   0  0  0  0  0  0  0  0  0  0  0  0
    4.4780    2.5560    0.8620 C   0  0  0  0  0  0  0  0  0  0  0  0
    3.1840    2.5530    1.0840 O   0  0  0  0  0  0  0  0  0  0  0  0
    2.5800    3.2900    0.2260 N   0  0  0  0  0  0  0  0  0  0  0  0
    3.4430    3.8400   -0.6350 C   0  0  0  0  0  0  0  0  0  0  0  0
    3.2530    4.6050   -1.5970 O   0  0  0  0  0  0  0  0  0  0  0  0
    4.6960    3.3850   -0.2530 C   0  0  0  0  0  0  0  0  0  0  0  0
    5.9250    3.7080   -0.8850 N   0  0  0  0  0  0  0  0  0  0  0  0
    6.3790    2.8830   -1.9460 C   0  0  0  0  0  0  0  0  0  0  0  0
    5.6650    1.8820   -2.2940 O   0  0  0  0  0  0  0  0  0  0  0  0
    1.1460    3.4500    0.2720 C   0  0  0  0  0  0  0  0  0  0  0  0
    0.6070    2.6920    1.4240 C   0  0  0  0  0  0  0  0  0  0  0  0
    0.6750    3.2810    2.5420 O   0  0  0  0  0  0  0  0  0  0  0  0
    0.0940    1.4610    1.2180 O   0  0  0  0  0  0  0  0  0  0  0  0
   -0.4010   -0.0440   -0.5990 C   0  0  0  0  0  0  0  0  0  0  0  0
    0.7870    0.2680   -0.8480 O   0  0  0  0  0  0  0  0  0  0  0  0
  2  1  1  1
  2  3  1  0
  2 41  1  0
  2 42  1  0
  3  4  1  0
  4  5  1  0
  5  6  1  0
  5 11  1  0
  6  7  1  0
  7  8  1  0
  8  9  1  0
  9 10  1  0
 11 12  2  0
 11 13  1  0
 13 14  1  0
 13 42  1  0
 14 15  1  0
 15 16  1  1
 15 20  1  0
 16 17  1  0
 17 18  2  0
 17 19  1  0
 20 21  1  0
 21 22  1  0
 22 23  1  0
 23 24  1  0
 24 25  1  0
 25 26  1  0
 26 27  1  0
 27 28  2  0
 27 29  1  0
 29 30  1  0
 29 34  2  0
 30 31  1  0
 31 32  1  0
 31 38  1  0
 32 33  2  0
 32 34  1  0
 34 35  1  0
 35 36  1  0
 36 37  2  0
 38 39  1  0
 39 40  2  0
 39 41  1  0
 42 43  2  0
M  END
