
     RDKit          3D

 43 47  0  0  0  0  0  0  0  0999 V2000
   -5.9310   -0.1060   -2.6180 O   0  0  0  0  0  0  0  0  0  0  0  0
   -6.3620   -1.1860   -2.2530 C   0  0  0  0  0  0  0  0  0  0  0  0
   -5.5970   -2.1130   -1.4010 C   0  0  0  0  0  0  0  0  0  0  0  0
   -5.3460   -1.4570   -0.0280 C   0  0  1  0  0  0  0  0  0  0  0  0
   -4.6040   -0.3050   -0.1910 O   0  0  0  0  0  0  0  0  0  0  0  0
   -3.2900   -0.0450    0.0530 C   0  0  0  0  0  0  0  0  0  0  0  0
   -2.5360    0.5930   -0.9100 C   0  0  0  0  0  0  0  0  0  0  0  0
   -1.2070    0.8750   -0.7850 C   0  0  0  0  0  0  0  0  0  0  0  0
   -0.5490    0.5210    0.3830 C   0  0  0  0  0  0  0  0  0  0  0  0
    0.7900    0.7480    0.5980 N   0  0  0  0  0  0  0  0  0  0  0  0
    1.7930   -0.0740   -0.1850 C   0  0  0  0  0  0  0  0  0  0  0  0
    1.4600   -0.9260   -0.9390 O   0  0  0  0  0  0  0  0  0  0  0  0
    3.0440    0.3530    0.1920 N   0  0  0  0  0  0  0  0  0  0  0  0
    3.9000    0.2380   -1.3380 C   0  0  0  0  0  0  0  0  0  0  0  0
    3.3010   -0.2640   -2.1650 O   0  0  0  0  0  0  0  0  0  0  0  0
    5.1720    0.8420   -1.1630 C   0  0  0  0  0  0  0  0  0  0  0  0
    5.2130    2.2890   -1.0370 C   0  0  0  0  0  0  0  0  0  0  0  0
    6.4510    2.6620   -0.6990 N   0  0  0  0  0  0  0  0  0  0  0  0
    7.1620    1.5620   -0.6090 N   0  0  0  0  0  0  0  0  0  0  0  0
    8.3860    1.1040   -0.3410 C   0  0  0  0  0  0  0  0  0  0  0  0
    8.4520   -0.2620   -0.4760 C   0  0  0  0  0  0  0  0  0  0  0  0
    9.6460   -1.1240   -0.3300 C   0  0  2  0  0  0  0  0  0  0  0  0
   10.2640   -1.2820    0.9700 C   0  0  0  0  0  0  0  0  0  0  0  0
   11.5900   -0.7320    0.8940 O   0  0  0  0  0  0  0  0  0  0  0  0
   11.5840    0.0250   -0.2770 C   0  0  0  0  0  0  0  0  0  0  0  0
   10.6780   -0.5200   -1.1360 O   0  0  0  0  0  0  0  0  0  0  0  0
    7.2140   -0.6210   -0.8120 O   0  0  0  0  0  0  0  0  0  0  0  0
    6.4420    0.4940   -0.8860 C   0  0  0  0  0  0  0  0  0  0  0  0
   -1.3320   -0.1210    1.3730 C   0  0  0  0  0  0  0  0  0  0  0  0
   -2.6550   -0.3970    1.2070 C   0  0  0  0  0  0  0  0  0  0  0  0
   -3.3230   -1.0090    2.3880 C   0  0  0  0  0  0  0  0  0  0  0  0
   -4.5820   -0.4620    2.6270 O   0  0  0  0  0  0  0  0  0  0  0  0
   -4.5550    0.8670    3.0470 C   0  0  0  0  0  0  0  0  0  0  0  0
   -5.7860    1.5700    2.4930 C   0  0  0  0  0  0  0  0  0  0  0  0
   -5.6660    1.8270    1.0910 O   0  0  0  0  0  0  0  0  0  0  0  0
   -6.6860    1.4190    0.2150 C   0  0  0  0  0  0  0  0  0  0  0  0
   -6.9930    2.2770   -0.6680 O   0  0  0  0  0  0  0  0  0  0  0  0
   -7.3310    0.1820    0.2900 N   0  0  0  0  0  0  0  0  0  0  0  0
   -6.7610   -1.0830    0.3640 C   0  0  0  0  0  0  0  0  0  0  0  0
   -7.4250   -2.0790    0.8440 O   0  0  0  0  0  0  0  0  0  0  0  0
   -7.6910   -1.6400   -2.6680 N   0  0  0  0  0  0  0  0  0  0  0  0
   -8.4080   -0.8260   -3.4520 O   0  0  0  0  0  0  0  0  0  0  0  0
   -8.8910    0.1560   -2.6570 O   0  0  0  0  0  0  0  0  0  0  0  0
  1  2  2  0
  2  3  1  0
  2 41  1  0
  4  3  1  6
  4  5  1  0
  4 39  1  0
  5  6  1  0
  6  7  2  0
  6 30  1  0
  7  8  1  0
  8  9  2  0
  9 10  1  0
  9 29  1  0
 10 11  1  0
 11 12  2  0
 11 13  1  0
 13 14  1  0
 14 15  2  0
 14 16  1  0
 16 17  1  0
 16 28  2  0
 17 18  2  0
 18 19  1  0
 19 20  1  0
 19 28  1  0
 20 21  2  0
 22 21  1  1
 21 27  1  0
 22 23  1  0
 22 26  1  0
 23 24  1  0
 24 25  1  0
 25 26  1  0
 27 28  1  0
 29 30  2  0
 30 31  1  0
 31 32  1  0
 32 33  1  0
 33 34  1  0
 34 35  1  0
 35 36  1  0
 36 37  2  0
 36 38  1  0
 38 39  1  0
 39 40  2  0
 41 42  1  0
 42 43  1  0
M  END
