
     RDKit          3D

 43 46  0  0  0  0  0  0  0  0999 V2000
   -9.0980    0.5520    4.6730 C   0  0  0  0  0  0  0  0  0  0  0  0
   -9.6230   -0.0870    3.4000 C   0  0  0  0  0  0  0  0  0  0  0  0
   -8.7850   -1.1960    3.1210 O   0  0  0  0  0  0  0  0  0  0  0  0
   -7.4250   -1.0650    2.9010 C   0  0  0  0  0  0  0  0  0  0  0  0
   -6.9050    0.0730    2.9490 O   0  0  0  0  0  0  0  0  0  0  0  0
   -6.5850   -2.1360    2.6250 O   0  0  0  0  0  0  0  0  0  0  0  0
   -5.2000   -1.9870    2.4030 C   0  0  0  0  0  0  0  0  0  0  0  0
   -4.9270   -1.1050    1.2420 C   0  0  0  0  0  0  0  0  0  0  0  0
   -5.7150   -0.4790    0.4370 O   0  0  0  0  0  0  0  0  0  0  0  0
   -4.9950    0.2070   -0.4760 C   0  0  0  0  0  0  0  0  0  0  0  0
   -5.5500    0.9210   -1.3940 N   0  0  0  0  0  0  0  0  0  0  0  0
   -3.6930    0.0260   -0.2670 N   0  0  0  0  0  0  0  0  0  0  0  0
   -2.5440    0.4980   -0.9000 C   0  0  0  0  0  0  0  0  0  0  0  0
   -2.7320    1.0480   -2.0550 C   0  0  0  0  0  0  0  0  0  0  0  0
   -1.9410    1.6530   -3.0720 C   0  0  0  0  0  0  0  0  0  0  0  0
   -1.0120    1.0490   -3.9370 C   0  0  0  0  0  0  0  0  0  0  0  0
   -0.5160    1.9920   -4.7300 N   0  0  0  0  0  0  0  0  0  0  0  0
   -1.0960    3.1520   -4.3930 C   0  0  0  0  0  0  0  0  0  0  0  0
   -1.9230    2.9390   -3.4270 O   0  0  0  0  0  0  0  0  0  0  0  0
   -1.3400    0.1450   -0.4250 C   0  0  0  0  0  0  0  0  0  0  0  0
   -0.2010    0.7350   -0.6000 C   0  0  0  0  0  0  0  0  0  0  0  0
    0.3410    1.8730   -1.2270 C   0  0  0  0  0  0  0  0  0  0  0  0
    1.6980    2.1040   -1.2310 C   0  0  0  0  0  0  0  0  0  0  0  0
    2.7020    1.2900   -0.6460 N   0  0  0  0  0  0  0  0  0  0  0  0
    3.8660    1.8110   -0.8440 C   0  0  0  0  0  0  0  0  0  0  0  0
    5.0720    1.2220   -0.3740 N   0  0  0  0  0  0  0  0  0  0  0  0
    5.2450   -0.2100   -0.2630 C   0  0  2  0  0  0  0  0  0  0  0  0
    6.6490   -0.5340    0.2530 C   0  0  0  0  0  0  0  0  0  0  0  0
    6.7220   -1.9010    0.3230 O   0  0  0  0  0  0  0  0  0  0  0  0
    7.8620   -2.4620    0.8030 C   0  0  0  0  0  0  0  0  0  0  0  0
    9.1110   -2.1560    0.0340 C   0  0  0  0  0  0  0  0  0  0  0  0
    9.3610   -0.8000    0.0220 O   0  0  0  0  0  0  0  0  0  0  0  0
   10.4610   -0.5920   -0.6620 O   0  0  0  0  0  0  0  0  0  0  0  0
    5.0240   -0.8100   -1.5890 C   0  0  0  0  0  0  0  0  0  0  0  0
    4.7410   -0.0830   -2.5630 O   0  0  0  0  0  0  0  0  0  0  0  0
    5.1270   -2.1740   -1.7720 O   0  0  0  0  0  0  0  0  0  0  0  0
    3.7390    3.0100   -1.5740 O   0  0  0  0  0  0  0  0  0  0  0  0
    2.3940    3.2250   -1.8350 C   0  0  0  0  0  0  0  0  0  0  0  0
    1.8320    4.1670   -2.4540 O   0  0  0  0  0  0  0  0  0  0  0  0
   -1.3360   -0.7390    0.7200 C   0  0  0  0  0  0  0  0  0  0  0  0
   -0.2990   -1.1740    1.2730 N   0  0  0  0  0  0  0  0  0  0  0  0
   -2.4750   -1.1250    1.2280 O   0  0  0  0  0  0  0  0  0  0  0  0
   -3.6380   -0.7840    0.7960 C   0  0  0  0  0  0  0  0  0  0  0  0
  1  2  1  0
  2  3  1  0
  3  4  1  0
  4  5  2  0
  4  6  1  0
  6  7  1  0
  7  8  1  0
  8  9  1  0
  8 43  2  0
  9 10  1  0
 10 11  2  0
 10 12  1  0
 12 13  1  0
 12 43  1  0
 13 14  2  3
 13 20  1  0
 14 15  1  0
 15 16  2  0
 15 19  1  0
 16 17  1  0
 17 18  2  0
 18 19  1  0
 20 21  2  3
 20 40  1  0
 21 22  1  0
 22 23  2  3
 23 24  1  0
 23 38  1  0
 24 25  2  0
 25 26  1  0
 25 37  1  0
 26 27  1  0
 27 28  1  6
 27 34  1  0
 28 29  1  0
 29 30  1  0
 30 31  1  0
 31 32  1  0
 32 33  1  0
 34 35  2  0
 34 36  1  0
 37 38  1  0
 38 39  2  0
 40 41  2  0
 40 42  1  0
 42 43  1  0
M  END
