
     RDKit          3D

 44 48  0  0  0  0  0  0  0  0999 V2000
   10.9070   -0.4880    0.6870 N   0  0  0  0  0  0  0  0  0  0  0  0
   10.7160   -0.0880   -0.6530 C   0  0  0  0  0  0  0  0  0  0  0  0
   11.7020    0.2380   -1.3440 O   0  0  0  0  0  0  0  0  0  0  0  0
    9.3890   -0.0500   -1.2360 C   0  0  0  0  0  0  0  0  0  0  0  0
    9.1780    0.3400   -2.5460 C   0  0  0  0  0  0  0  0  0  0  0  0
    7.9010    0.3630   -3.0660 C   0  0  0  0  0  0  0  0  0  0  0  0
    6.8010   -0.0010   -2.2950 C   0  0  0  0  0  0  0  0  0  0  0  0
    7.0170   -0.3730   -1.0390 N   0  0  0  0  0  0  0  0  0  0  0  0
    5.9060   -0.7620   -0.1930 C   0  0  2  0  0  0  0  0  0  0  0  0
    4.6960   -0.5300   -0.8180 O   0  0  0  0  0  0  0  0  0  0  0  0
    3.7280   -0.4530    0.1530 C   0  0  2  0  0  0  0  0  0  0  0  0
    2.6360    0.5390   -0.1790 C   0  0  0  0  0  0  0  0  0  0  0  0
    1.7180    0.5210    0.8840 O   0  0  0  0  0  0  0  0  0  0  0  0
    0.4540    1.6220    0.5760 P   0  0  1  0  0  0  0  0  0  0  0  0
    0.9520    3.0390    0.7610 O   0  0  0  0  0  0  0  0  0  0  0  0
   -0.1330    1.4000   -0.9980 O   0  0  0  0  0  0  0  0  0  0  0  0
   -0.8040    1.3680    1.6470 O   0  0  0  0  0  0  0  0  0  0  0  0
   -0.9420   -0.2780    2.0410 P   0  0  1  0  0  0  0  0  0  0  0  0
    0.2010   -1.0090    1.3910 O   0  0  0  0  0  0  0  0  0  0  0  0
   -0.9300   -0.4840    3.7330 O   0  0  0  0  0  0  0  0  0  0  0  0
   -2.4410   -0.8170    1.4860 O   0  0  0  0  0  0  0  0  0  0  0  0
   -2.6630   -0.4400    0.1630 C   0  0  0  0  0  0  0  0  0  0  0  0
   -3.9820   -0.9020   -0.3580 C   0  0  1  0  0  0  0  0  0  0  0  0
   -5.0650   -0.4160    0.3430 O   0  0  0  0  0  0  0  0  0  0  0  0
   -6.1380   -0.7350   -0.4970 C   0  0  1  0  0  0  0  0  0  0  0  0
   -7.3000    0.0590   -0.1680 N   0  0  0  0  0  0  0  0  0  0  0  0
   -7.5430    1.3470   -0.4620 C   0  0  0  0  0  0  0  0  0  0  0  0
   -8.7400    1.7160    0.0220 N   0  0  0  0  0  0  0  0  0  0  0  0
   -9.2790    0.6490    0.6380 C   0  0  0  0  0  0  0  0  0  0  0  0
  -10.4760    0.4860    1.2940 C   0  0  0  0  0  0  0  0  0  0  0  0
  -11.4200    1.5310    1.4310 N   0  0  0  0  0  0  0  0  0  0  0  0
  -10.7600   -0.7110    1.8230 N   0  0  0  0  0  0  0  0  0  0  0  0
   -9.8660   -1.7260    1.7010 C   0  0  0  0  0  0  0  0  0  0  0  0
   -8.6960   -1.5650    1.0600 N   0  0  0  0  0  0  0  0  0  0  0  0
   -8.3660   -0.3770    0.5100 C   0  0  0  0  0  0  0  0  0  0  0  0
   -5.6640   -0.3730   -1.9060 C   0  0  2  0  0  0  0  0  0  0  0  0
   -5.8850   -1.4370   -2.7950 O   0  0  0  0  0  0  0  0  0  0  0  0
   -4.1850   -0.2320   -1.7230 C   0  0  2  0  0  0  0  0  0  0  0  0
   -3.4420   -0.8680   -2.6960 O   0  0  0  0  0  0  0  0  0  0  0  0
    4.3760   -0.0210    1.4290 C   0  0  1  0  0  0  0  0  0  0  0  0
    4.2930   -1.0320    2.3880 O   0  0  0  0  0  0  0  0  0  0  0  0
    5.8250    0.1420    1.0190 C   0  0  1  0  0  0  0  0  0  0  0  0
    6.6860   -0.2740    2.0310 O   0  0  0  0  0  0  0  0  0  0  0  0
    8.2520   -0.4010   -0.5190 C   0  0  0  0  0  0  0  0  0  0  0  0
  1  2  1  0
  2  3  2  0
  2  4  1  0
  4  5  2  0
  4 44  1  0
  5  6  1  0
  6  7  2  0
  7  8  1  0
  9  8  1  6
  8 44  2  0
  9 10  1  0
  9 42  1  0
 10 11  1  0
 11 12  1  6
 11 40  1  0
 12 13  1  0
 13 14  1  0
 14 15  2  0
 14 16  1  6
 14 17  1  0
 17 18  1  0
 18 19  2  0
 18 20  1  1
 18 21  1  0
 21 22  1  0
 23 22  1  1
 23 24  1  0
 23 38  1  0
 24 25  1  0
 25 26  1  1
 25 36  1  0
 26 27  1  0
 26 35  1  0
 27 28  2  0
 28 29  1  0
 29 30  2  0
 29 35  1  0
 30 31  1  0
 30 32  1  0
 32 33  2  0
 33 34  1  0
 34 35  2  0
 36 37  1  6
 36 38  1  0
 38 39  1  6
 40 41  1  1
 40 42  1  0
 42 43  1  1
M  CHG  2   8   1  16  -1
M  END
