
     RDKit          3D

 43 46  0  0  0  0  0  0  0  0999 V2000
    6.8840    1.7930   -1.6940 C   0  0  0  0  0  0  0  0  0  0  0  0
    6.8260    0.5380   -1.0860 O   0  0  0  0  0  0  0  0  0  0  0  0
    5.8790    0.1680   -0.1420 C   0  0  0  0  0  0  0  0  0  0  0  0
    5.9230   -1.1000    0.3870 C   0  0  0  0  0  0  0  0  0  0  0  0
    4.9950   -1.4970    1.3270 C   0  0  0  0  0  0  0  0  0  0  0  0
    3.9910   -0.6370    1.7690 C   0  0  0  0  0  0  0  0  0  0  0  0
    3.9460    0.6270    1.2410 C   0  0  0  0  0  0  0  0  0  0  0  0
    2.9060    1.5600    1.6790 C   0  0  0  0  0  0  0  0  0  0  0  0
    1.6460    1.4830    0.8370 C   0  0  2  0  0  0  0  0  0  0  0  0
    0.7290    2.5700    1.5240 C   0  0  0  0  0  0  0  0  0  0  0  0
    0.3070    3.5340    0.8510 N   0  0  0  0  0  0  0  0  0  0  0  0
    0.5260    3.8450   -0.5650 C   0  0  0  0  0  0  0  0  0  0  0  0
    0.2930    3.0910   -1.5000 N   0  0  0  0  0  0  0  0  0  0  0  0
   -0.0920    1.9910   -2.2030 C   0  0  0  0  0  0  0  0  0  0  0  0
    0.2750    1.8260   -3.4700 O   0  0  0  0  0  0  0  0  0  0  0  0
   -0.8470    0.8940   -1.8830 O   0  0  0  0  0  0  0  0  0  0  0  0
   -1.9690    0.5830   -1.1540 C   0  0  0  0  0  0  0  0  0  0  0  0
   -2.6660   -0.7140   -1.3720 C   0  0  1  0  0  0  0  0  0  0  0  0
   -3.2820   -1.1690   -0.2650 O   0  0  0  0  0  0  0  0  0  0  0  0
   -4.2620   -0.6110    0.4100 C   0  0  0  0  0  0  0  0  0  0  0  0
   -4.1080    0.7320    1.0620 C   0  0  0  0  0  0  0  0  0  0  0  0
   -5.3360    1.0620    1.7380 O   0  0  0  0  0  0  0  0  0  0  0  0
   -5.1890    2.2340    2.3030 O   0  0  0  0  0  0  0  0  0  0  0  0
   -6.3680    2.7250    2.5760 O   0  0  0  0  0  0  0  0  0  0  0  0
   -3.6320   -0.5310   -2.4450 O   0  0  0  0  0  0  0  0  0  0  0  0
   -4.4310   -1.5550   -2.8680 C   0  0  0  0  0  0  0  0  0  0  0  0
   -4.3550   -2.6820   -2.3440 O   0  0  0  0  0  0  0  0  0  0  0  0
   -5.3400   -1.3600   -3.8890 O   0  0  0  0  0  0  0  0  0  0  0  0
   -1.7970   -1.8550   -1.8540 C   0  0  0  0  0  0  0  0  0  0  0  0
   -1.4110   -1.7340   -3.0460 O   0  0  0  0  0  0  0  0  0  0  0  0
   -1.3660   -3.0190   -1.1570 N   0  0  0  0  0  0  0  0  0  0  0  0
   -1.4350   -4.3030   -1.8030 C   0  0  0  0  0  0  0  0  0  0  0  0
   -0.8320   -2.9740    0.1940 C   0  0  0  0  0  0  0  0  0  0  0  0
   -0.8860   -4.0920    0.8180 O   0  0  0  0  0  0  0  0  0  0  0  0
   -0.2510   -1.7730    0.9010 C   0  0  0  0  0  0  0  0  0  0  0  0
    0.5760   -0.8670    0.4130 C   0  0  0  0  0  0  0  0  0  0  0  0
    0.8730    0.3070    1.1260 N   0  0  0  0  0  0  0  0  0  0  0  0
    0.3140    0.5670    2.4150 C   0  0  0  0  0  0  0  0  0  0  0  0
    0.7560    1.7990    2.7570 N   0  0  0  0  0  0  0  0  0  0  0  0
   -0.5750   -0.3710    3.0350 N   0  0  0  0  0  0  0  0  0  0  0  0
   -0.8330   -1.5370    2.2350 C   0  0  0  0  0  0  0  0  0  0  0  0
   -1.6080   -2.4410    2.6870 O   0  0  0  0  0  0  0  0  0  0  0  0
    4.8760    1.0070    0.3070 C   0  0  0  0  0  0  0  0  0  0  0  0
  1  2  1  0
  2  3  1  0
  3  4  2  0
  3 43  1  0
  4  5  1  0
  5  6  2  0
  6  7  1  0
  7  8  1  0
  7 43  2  0
  9  8  1  1
  9 10  1  0
  9 37  1  0
 10 11  2  0
 10 39  1  0
 11 12  1  0
 12 13  2  0
 13 14  1  0
 14 15  2  0
 14 16  1  0
 16 17  1  0
 17 18  1  0
 18 19  1  1
 18 25  1  0
 18 29  1  0
 19 20  1  0
 20 21  1  0
 21 22  1  0
 22 23  1  0
 23 24  1  0
 25 26  1  0
 26 27  2  0
 26 28  1  0
 29 30  2  0
 29 31  1  0
 31 32  1  0
 31 33  1  0
 33 34  2  0
 33 35  1  0
 35 36  2  0
 35 41  1  0
 36 37  1  0
 37 38  1  0
 38 39  2  0
 38 40  1  0
 40 41  1  0
 41 42  2  0
M  END
