
     RDKit          3D

  8  8  0  0  0  0  0  0  0  0999 V2000
    2.6300   -0.3860    0.3320 C   0  0  0  0  0  0  0  0  0  0  0  0
    1.2810    0.0900   -0.0920 C   0  0  0  0  0  0  0  0  0  0  0  0
    1.0080    1.3740    0.1140 C   0  0  0  0  0  0  0  0  0  0  0  0
   -0.4910    2.2750   -0.2650 S   0  0  0  0  0  0  0  0  0  0  0  0
   -1.8790    1.2690    0.3850 C   0  0  0  0  0  0  0  0  0  0  0  0
   -1.9760   -0.0410   -0.3530 C   0  0  0  0  0  0  0  0  0  0  0  0
   -0.9330   -1.0340    0.0520 C   0  0  0  0  0  0  0  0  0  0  0  0
    0.3510   -0.9060   -0.7100 C   0  0  0  0  0  0  0  0  0  0  0  0
  1  2  1  0
  2  3  2  0
  2  8  1  0
  3  4  1  0
  4  5  1  0
  5  6  1  0
  6  7  1  0
  7  8  1  0
M  END
