
     RDKit          3D

  8  8  0  0  0  0  0  0  0  0999 V2000
    2.7520    0.5820    0.5220 C   0  0  0  0  0  0  0  0  0  0  0  0
    2.1550   -1.1100    0.4490 S   0  0  0  0  0  0  0  0  0  0  0  0
    0.8550   -1.3090   -0.7760 C   0  0  0  0  0  0  0  0  0  0  0  0
   -0.3910   -0.5540   -0.4050 C   0  0  0  0  0  0  0  0  0  0  0  0
   -0.9230    0.3990   -1.1440 C   0  0  0  0  0  0  0  0  0  0  0  0
   -2.1270    0.9010   -0.4600 C   0  0  0  0  0  0  0  0  0  0  0  0
   -2.2070    0.1020    0.7710 C   0  0  0  0  0  0  0  0  0  0  0  0
   -1.1950   -0.7400    0.7960 C   0  0  0  0  0  0  0  0  0  0  0  0
  1  2  1  0
  2  3  1  0
  3  4  1  0
  4  5  2  0
  4  8  1  0
  5  6  1  0
  6  7  1  0
  7  8  2  0
M  END
