
     RDKit          3D

  7  7  0  0  0  0  0  0  0  0999 V2000
    2.3520   -0.2700    0.3530 C   0  0  0  0  0  0  0  0  0  0  0  0
    0.8780    0.0550    0.4110 C   0  0  0  0  0  0  0  0  0  0  0  0
   -0.0000   -0.8210    0.8440 C   0  0  0  0  0  0  0  0  0  0  0  0
   -1.4470   -0.6720    0.9650 C   0  0  0  0  0  0  0  0  0  0  0  0
   -2.1330   -0.0490   -0.2220 C   0  0  0  0  0  0  0  0  0  0  0  0
   -1.1170    1.2750   -0.9460 S   0  0  0  0  0  0  0  0  0  0  0  0
    0.4510    1.4030   -0.0400 C   0  0  0  0  0  0  0  0  0  0  0  0
  1  2  1  0
  2  3  2  0
  2  7  1  0
  3  4  1  0
  4  5  1  0
  5  6  1  0
  6  7  1  0
M  END
