
     RDKit          3D

 16 17  0  0  0  0  0  0  0  0999 V2000
    4.8290   -1.1020   -0.7930 C   0  0  0  0  0  0  0  0  0  0  0  0
    3.5250   -0.7750   -0.5090 O   0  0  0  0  0  0  0  0  0  0  0  0
    3.3610   -0.1190    0.6860 C   0  0  0  0  0  0  0  0  0  0  0  0
    1.8920    0.1720    0.8590 C   0  0  0  0  0  0  0  0  0  0  0  0
    1.5200    0.7690    1.8900 O   0  0  0  0  0  0  0  0  0  0  0  0
    0.9470   -0.2120   -0.1070 N   0  0  0  0  0  0  0  0  0  0  0  0
   -0.4420   -0.0090   -0.0780 C   0  0  0  0  0  0  0  0  0  0  0  0
   -1.2500   -0.4550   -1.1250 C   0  0  0  0  0  0  0  0  0  0  0  0
   -2.5970   -0.3010   -1.1790 C   0  0  0  0  0  0  0  0  0  0  0  0
   -3.3130    0.3510   -0.1320 C   0  0  0  0  0  0  0  0  0  0  0  0
   -4.5970    0.5580   -0.0710 N   0  0  0  0  0  0  0  0  0  0  0  0
   -5.0900    1.2090    1.0310 C   0  0  0  0  0  0  0  0  0  0  0  0
   -6.3130    1.5290    1.3220 O   0  0  0  0  0  0  0  0  0  0  0  0
   -3.6140    1.5270    2.0070 S   0  0  0  0  0  0  0  0  0  0  0  0
   -2.4970    0.7710    0.8670 C   0  0  0  0  0  0  0  0  0  0  0  0
   -1.1240    0.6180    0.9290 C   0  0  0  0  0  0  0  0  0  0  0  0
  1  2  1  0
  2  3  1  0
  3  4  1  0
  4  5  2  0
  4  6  1  0
  6  7  1  0
  7  8  2  0
  7 16  1  0
  8  9  1  0
  9 10  2  0
 10 11  1  0
 10 15  1  0
 11 12  1  0
 12 13  2  0
 12 14  1  0
 14 15  1  0
 15 16  2  0
M  END
