
     RDKit          3D

  8  8  0  0  0  0  0  0  0  0999 V2000
    3.8440   -0.9410   -0.0180 S   0  0  0  0  0  0  0  0  0  0  0  0
    2.1490   -0.5260   -0.4760 C   0  0  0  0  0  0  0  0  0  0  0  0
    1.3070   -0.2530    0.7770 C   0  0  0  0  0  0  0  0  0  0  0  0
   -0.0850    0.0870    0.3840 C   0  0  0  0  0  0  0  0  0  0  0  0
   -0.7180    1.2300    0.6570 C   0  0  0  0  0  0  0  0  0  0  0  0
   -2.1040    1.1720    0.0840 C   0  0  0  0  0  0  0  0  0  0  0  0
   -2.3540   -0.3120    0.0820 C   0  0  0  0  0  0  0  0  0  0  0  0
   -0.9830   -0.8180   -0.3850 C   0  0  0  0  0  0  0  0  0  0  0  0
  1  2  1  0
  2  3  1  0
  3  4  1  0
  4  5  2  0
  4  8  1  0
  5  6  1  0
  6  7  1  0
  7  8  1  0
M  END
