
     RDKit          3D

 23 25  0  0  0  0  0  0  0  0999 V2000
   -3.9680    2.6570   -0.0170 N   0  0  0  0  0  0  0  0  0  0  0  0
   -4.6070    1.4310   -0.3650 C   0  0  0  0  0  0  0  0  0  0  0  0
   -5.9090    1.3180   -0.4060 C   0  0  0  0  0  0  0  0  0  0  0  0
   -6.6060    0.1470   -0.7390 N   0  0  0  0  0  0  0  0  0  0  0  0
   -5.8410   -1.0040   -1.0580 C   0  0  0  0  0  0  0  0  0  0  0  0
   -4.3750   -0.8430   -1.0010 C   0  0  0  0  0  0  0  0  0  0  0  0
   -3.7770    0.2850   -0.6800 C   0  0  0  0  0  0  0  0  0  0  0  0
   -2.3640    0.3560   -0.6490 N   0  0  0  0  0  0  0  0  0  0  0  0
   -1.6540   -0.3640    0.3590 C   0  0  0  0  0  0  0  0  0  0  0  0
   -2.3260   -1.1200    1.2910 C   0  0  0  0  0  0  0  0  0  0  0  0
   -1.6620   -1.8190    2.2670 C   0  0  0  0  0  0  0  0  0  0  0  0
   -0.2980   -1.7590    2.3100 C   0  0  0  0  0  0  0  0  0  0  0  0
    0.4280   -1.0030    1.3810 C   0  0  0  0  0  0  0  0  0  0  0  0
    1.8250   -1.0360    1.5190 N   0  0  0  0  0  0  0  0  0  0  0  0
    2.7070   -0.1340    0.9170 C   0  0  0  0  0  0  0  0  0  0  0  0
    2.2910    0.7950    0.1960 O   0  0  0  0  0  0  0  0  0  0  0  0
    4.2090   -0.2620    1.1250 C   0  0  0  0  0  0  0  0  0  0  0  0
    4.9200    0.8380    0.3630 C   0  0  1  0  0  0  0  0  0  0  0  0
    6.3990    0.7500    0.5400 C   0  0  0  0  0  0  0  0  0  0  0  0
    6.8810    0.6310   -0.9080 C   0  0  0  0  0  0  0  0  0  0  0  0
    5.6610   -0.0040   -1.5420 C   0  0  0  0  0  0  0  0  0  0  0  0
    4.6360    0.7860   -0.9770 O   0  0  0  0  0  0  0  0  0  0  0  0
   -0.2620   -0.3040    0.4020 C   0  0  0  0  0  0  0  0  0  0  0  0
  1  2  1  0
  2  3  2  0
  2  7  1  0
  3  4  1  0
  4  5  1  0
  5  6  1  0
  6  7  2  0
  7  8  1  0
  8  9  1  0
  9 10  2  0
  9 23  1  0
 10 11  1  0
 11 12  2  0
 12 13  1  0
 13 14  1  0
 13 23  2  0
 14 15  1  0
 15 16  2  0
 15 17  1  0
 18 17  1  1
 18 19  1  0
 18 22  1  0
 19 20  1  0
 20 21  1  0
 21 22  1  0
M  CHG  1   4   1
M  END
