
     RDKit          3D

 23 26  0  0  0  0  0  0  0  0999 V2000
   -4.5470    1.7270    0.0850 N   0  0  0  0  0  0  0  0  0  0  0  0
   -4.3270    0.2990    0.1620 C   0  0  0  0  0  0  0  0  0  0  0  0
   -3.1800   -0.3300    0.0650 C   0  0  0  0  0  0  0  0  0  0  0  0
   -1.8620    0.2480   -0.1440 C   0  0  0  0  0  0  0  0  0  0  0  0
   -0.7860   -0.2280    0.6100 C   0  0  0  0  0  0  0  0  0  0  0  0
    0.4650    0.3070    0.3970 C   0  0  0  0  0  0  0  0  0  0  0  0
    1.5670   -0.1530    1.1890 N   0  0  0  0  0  0  0  0  0  0  0  0
    2.8630   -0.2340    0.6520 C   0  0  0  0  0  0  0  0  0  0  0  0
    3.0690   -0.3420   -0.7100 C   0  0  0  0  0  0  0  0  0  0  0  0
    4.3740   -0.4000   -1.1650 C   0  0  0  0  0  0  0  0  0  0  0  0
    5.4490   -0.3510   -0.2890 C   0  0  0  0  0  0  0  0  0  0  0  0
    5.2020   -0.2440    1.0620 C   0  0  0  0  0  0  0  0  0  0  0  0
    3.9200   -0.1850    1.5360 C   0  0  0  0  0  0  0  0  0  0  0  0
    6.4490   -0.2160    1.7040 O   0  0  0  0  0  0  0  0  0  0  0  0
    7.4850   -0.3400    0.7630 C   0  0  0  0  0  0  0  0  0  0  0  0
    6.8250   -0.3880   -0.4620 O   0  0  0  0  0  0  0  0  0  0  0  0
    0.6990    1.2990   -0.5330 C   0  0  0  0  0  0  0  0  0  0  0  0
   -0.3700    1.7550   -1.2660 C   0  0  0  0  0  0  0  0  0  0  0  0
   -1.6520    1.2390   -1.0810 C   0  0  0  0  0  0  0  0  0  0  0  0
   -2.7330    1.7260   -1.8650 N   0  0  0  0  0  0  0  0  0  0  0  0
   -3.4600   -1.7820    0.2080 C   0  0  0  0  0  0  0  0  0  0  0  0
   -4.7880   -1.8540    0.7970 N   0  0  0  0  0  0  0  0  0  0  0  0
   -5.4250   -0.6510    0.3620 C   0  0  0  0  0  0  0  0  0  0  0  0
  1  2  1  0
  2  3  2  0
  2 23  1  0
  3  4  1  0
  3 21  1  0
  4  5  2  0
  4 19  1  0
  5  6  1  0
  6  7  1  0
  6 17  2  0
  7  8  1  0
  8  9  2  0
  8 13  1  0
  9 10  1  0
 10 11  2  0
 11 12  1  0
 11 16  1  0
 12 13  2  0
 12 14  1  0
 14 15  1  0
 15 16  1  0
 17 18  1  0
 18 19  2  0
 19 20  1  0
 21 22  1  0
 22 23  1  0
M  CHG  1  22   1
M  END
