
     RDKit          3D

 18 19  0  0  0  0  0  0  0  0999 V2000
   -3.1960   -2.1290   -2.4250 C   0  0  0  0  0  0  0  0  0  0  0  0
   -2.1990   -1.5090   -1.5580 C   0  0  0  0  0  0  0  0  0  0  0  0
   -2.2710   -0.5980   -0.6570 C   0  0  0  0  0  0  0  0  0  0  0  0
   -3.3650    0.1920   -0.1270 C   0  0  0  0  0  0  0  0  0  0  0  0
   -4.6430    0.2480   -0.3910 C   0  0  0  0  0  0  0  0  0  0  0  0
   -5.5740   -0.6340   -1.5240 Cl  0  0  0  0  0  0  0  0  0  0  0  0
   -2.7860    1.0880    0.9240 C   0  0  0  0  0  0  0  0  0  0  0  0
   -3.5330    2.0940    1.7600 C   0  0  0  0  0  0  0  0  0  0  0  0
   -1.4940    0.8840    1.0360 C   0  0  0  0  0  0  0  0  0  0  0  0
   -0.6540    1.6010    1.9700 N   0  0  0  0  0  0  0  0  0  0  0  0
   -1.0590   -0.1340    0.1110 C   0  0  0  0  0  0  0  0  0  0  0  0
    0.1570   -0.5970   -0.0580 C   0  0  0  0  0  0  0  0  0  0  0  0
    1.3230   -0.1620    0.6710 C   0  0  0  0  0  0  0  0  0  0  0  0
    2.5180   -0.7210    0.4000 C   0  0  0  0  0  0  0  0  0  0  0  0
    3.6830   -0.2490    1.1640 C   0  0  0  0  0  0  0  0  0  0  0  0
    4.7560    0.3410    0.2740 C   0  0  1  0  0  0  0  0  0  0  0  0
    5.3170   -0.5950   -0.7430 C   0  0  0  0  0  0  0  0  0  0  0  0
    4.5220    0.5850   -1.1570 C   0  0  0  0  0  0  0  0  0  0  0  0
  1  2  1  0
  2  3  2  3
  3  4  1  0
  3 11  1  0
  4  5  2  3
  4  7  1  0
  5  6  1  0
  7  8  1  0
  7  9  2  0
  9 10  1  0
  9 11  1  0
 11 12  2  3
 12 13  1  0
 13 14  2  3
 14 15  1  0
 16 15  1  1
 16 17  1  0
 16 18  1  0
 17 18  1  0
M  END
