
     RDKit          3D

 23 25  0  0  0  0  0  0  0  0999 V2000
    7.1660    0.5230   -1.0500 N   0  0  0  0  0  0  0  0  0  0  0  0
    5.8520    0.1810   -0.6030 C   0  0  0  0  0  0  0  0  0  0  0  0
    5.0480   -0.7180   -1.2790 C   0  0  0  0  0  0  0  0  0  0  0  0
    3.7840   -1.0640   -0.8740 C   0  0  0  0  0  0  0  0  0  0  0  0
    3.2750   -0.4860    0.2760 C   0  0  0  0  0  0  0  0  0  0  0  0
    1.9210   -0.8020    0.7860 C   0  0  0  0  0  0  0  0  0  0  0  0
    0.9380    0.1600    0.1780 C   0  0  0  0  0  0  0  0  0  0  0  0
    1.3780    1.0210   -0.6100 O   0  0  0  0  0  0  0  0  0  0  0  0
   -0.4190    0.0320    0.5360 N   0  0  0  0  0  0  0  0  0  0  0  0
   -1.4580    0.8650    0.0550 C   0  0  0  0  0  0  0  0  0  0  0  0
   -1.1470    2.1610   -0.3410 C   0  0  0  0  0  0  0  0  0  0  0  0
   -2.1380    3.0670   -0.6500 C   0  0  0  0  0  0  0  0  0  0  0  0
   -3.4420    2.6640   -0.5580 C   0  0  0  0  0  0  0  0  0  0  0  0
   -3.7720    1.3670   -0.1640 C   0  0  0  0  0  0  0  0  0  0  0  0
   -5.1250    0.9760   -0.0850 N   0  0  0  0  0  0  0  0  0  0  0  0
   -2.7780    0.4660    0.1400 C   0  0  0  0  0  0  0  0  0  0  0  0
   -3.1650   -0.9290    0.3800 C   0  0  0  0  0  0  0  0  0  0  0  0
   -2.4230   -2.0040    0.2270 C   0  0  0  0  0  0  0  0  0  0  0  0
   -3.1990   -3.1460    0.5820 O   0  0  0  0  0  0  0  0  0  0  0  0
   -4.0970   -2.6700    1.5440 N   0  0  0  0  0  0  0  0  0  0  0  0
   -4.4900   -1.4180    0.8640 C   0  0  0  0  0  0  0  0  0  0  0  0
    4.0520    0.4100    0.9660 C   0  0  0  0  0  0  0  0  0  0  0  0
    5.3180    0.7360    0.5330 C   0  0  0  0  0  0  0  0  0  0  0  0
  1  2  1  0
  2  3  2  0
  2 23  1  0
  3  4  1  0
  4  5  2  0
  5  6  1  0
  5 22  1  0
  6  7  1  0
  7  8  2  0
  7  9  1  0
  9 10  1  0
 10 11  2  0
 10 16  1  0
 11 12  1  0
 12 13  2  0
 13 14  1  0
 14 15  1  0
 14 16  2  0
 16 17  1  0
 17 18  2  0
 17 21  1  0
 18 19  1  0
 19 20  1  0
 20 21  1  0
 22 23  2  0
M  CHG  1  20   1
M  END
