
     RDKit          3D

 22 22  0  0  0  0  0  0  0  0999 V2000
   -2.0950   -3.2650   -1.7300 C   0  0  0  0  0  0  0  0  0  0  0  0
   -1.1290   -2.3020   -1.6840 O   0  0  0  0  0  0  0  0  0  0  0  0
   -0.9520   -1.7080   -0.4190 C   0  0  2  0  0  0  0  0  0  0  0  0
   -0.3260   -2.7180    0.4690 C   0  0  0  0  0  0  0  0  0  0  0  0
   -0.1190   -2.5320    1.6990 O   0  0  0  0  0  0  0  0  0  0  0  0
    0.0580   -3.9300   -0.0640 O   0  0  0  0  0  0  0  0  0  0  0  0
   -2.2490   -1.1840    0.0560 C   0  0  0  0  0  0  0  0  0  0  0  0
   -2.1310   -0.0320    1.0040 C   0  0  2  0  0  0  0  0  0  0  0  0
   -3.3260    0.5370    1.3370 O   0  0  0  0  0  0  0  0  0  0  0  0
   -1.1680    0.9520    0.3530 C   0  0  1  0  0  0  0  0  0  0  0  0
   -1.1040    2.1950    1.0530 N   0  0  0  0  0  0  0  0  0  0  0  0
   -1.4240    3.4640    0.5030 C   0  0  0  0  0  0  0  0  0  0  0  0
   -1.3460    4.7340    1.2600 C   0  0  0  0  0  0  0  0  0  0  0  0
   -1.7950    3.4970   -0.7050 O   0  0  0  0  0  0  0  0  0  0  0  0
    0.1580    0.2190    0.3130 C   0  0  2  0  0  0  0  0  0  0  0  0
    1.3130    1.1150    0.0630 C   0  0  2  0  0  0  0  0  0  0  0  0
    1.2690    1.7450   -1.1750 O   0  0  0  0  0  0  0  0  0  0  0  0
    2.6100    0.3550    0.1650 C   0  0  2  0  0  0  0  0  0  0  0  0
    3.6960    1.2800    0.0870 O   0  0  0  0  0  0  0  0  0  0  0  0
    2.8500   -0.5560   -1.0310 C   0  0  0  0  0  0  0  0  0  0  0  0
    4.1760   -1.1490   -0.8430 N   0  0  0  0  0  0  0  0  0  0  0  0
    0.0500   -0.7610   -0.6450 O   0  0  0  0  0  0  0  0  0  0  0  0
  1  2  1  0
  3  2  1  6
  3  4  1  0
  3  7  1  0
  3 22  1  0
  4  5  2  0
  4  6  1  0
  7  8  1  0
  8  9  1  6
  8 10  1  0
 10 11  1  1
 10 15  1  0
 11 12  1  0
 12 13  1  0
 12 14  2  0
 15 16  1  0
 15 22  1  6
 16 17  1  6
 16 18  1  0
 18 19  1  6
 18 20  1  0
 20 21  1  0
M  CHG  1  21   1
M  END
