
     RDKit          3D

 10 10  0  0  0  0  0  0  0  0999 V2000
    2.4620   -0.5120    0.4320 N   0  0  0  0  0  0  0  0  0  0  0  0
    1.6630    0.6100    0.0150 C   0  0  0  0  0  0  0  0  0  0  0  0
    0.2170    0.2920   -0.0060 C   0  0  0  0  0  0  0  0  0  0  0  0
   -0.2510   -0.8970    0.3260 C   0  0  0  0  0  0  0  0  0  0  0  0
   -1.6750   -1.2760    0.3260 C   0  0  0  0  0  0  0  0  0  0  0  0
   -2.5410   -0.2610   -0.0630 O   0  0  0  0  0  0  0  0  0  0  0  0
   -2.1460    1.0060   -0.4260 C   0  0  0  0  0  0  0  0  0  0  0  0
   -3.0040    1.8690   -0.7660 O   0  0  0  0  0  0  0  0  0  0  0  0
   -0.7260    1.3250   -0.4070 C   0  0  0  0  0  0  0  0  0  0  0  0
   -0.3780    2.4840   -0.7390 O   0  0  0  0  0  0  0  0  0  0  0  0
  1  2  1  0
  2  3  1  0
  3  4  2  0
  3  9  1  0
  4  5  1  0
  5  6  1  0
  6  7  1  0
  7  8  2  0
  7  9  1  0
  9 10  2  0
M  END
