
     RDKit          3D

 11 11  0  0  0  0  0  0  0  0999 V2000
   -2.6660    0.2700   -0.5350 N   0  0  0  0  0  0  0  0  0  0  0  0
   -1.6550    0.9880   -0.2450 C   0  0  0  0  0  0  0  0  0  0  0  0
   -1.9270    2.3740   -0.2490 O   0  0  0  0  0  0  0  0  0  0  0  0
   -0.3350    0.4940    0.0650 C   0  0  0  0  0  0  0  0  0  0  0  0
    0.0460   -0.7630    0.0970 C   0  0  0  0  0  0  0  0  0  0  0  0
   -0.8540   -1.8770   -0.1900 C   0  0  0  0  0  0  0  0  0  0  0  0
   -0.9580   -2.7470    0.9310 O   0  0  0  0  0  0  0  0  0  0  0  0
    1.3880   -1.0360    0.4270 O   0  0  0  0  0  0  0  0  0  0  0  0
    2.4440   -0.1470    0.2880 C   0  0  0  0  0  0  0  0  0  0  0  0
    2.0240    1.2760    0.0900 C   0  0  0  0  0  0  0  0  0  0  0  0
    0.6440    1.4360    0.3610 O   0  0  0  0  0  0  0  0  0  0  0  0
  1  2  2  0
  2  3  1  0
  2  4  1  0
  4  5  2  0
  4 11  1  0
  5  6  1  0
  5  8  1  0
  6  7  1  0
  8  9  1  0
  9 10  1  0
 10 11  1  0
M  END
