
     RDKit          3D

 11 11  0  0  0  0  0  0  0  0999 V2000
   -2.5790    0.1510   -2.7230 O   0  0  0  0  0  0  0  0  0  0  0  0
   -1.8590   -0.4140   -1.8750 C   0  0  0  0  0  0  0  0  0  0  0  0
   -1.7420   -1.7970   -1.5960 N   0  0  0  0  0  0  0  0  0  0  0  0
   -0.7950   -1.9350   -0.5470 C   0  0  0  0  0  0  0  0  0  0  0  0
   -0.4290   -3.0180   -0.0280 O   0  0  0  0  0  0  0  0  0  0  0  0
   -0.3280   -0.6120   -0.1810 C   0  0  0  0  0  0  0  0  0  0  0  0
    0.5550   -0.2820    0.7470 C   0  0  0  0  0  0  0  0  0  0  0  0
    0.9040    1.0980    0.9770 C   0  0  0  0  0  0  0  0  0  0  0  0
    1.7790    1.4270    1.8950 C   0  0  0  0  0  0  0  0  0  0  0  0
    2.1550    2.7260    2.1640 O   0  0  0  0  0  0  0  0  0  0  0  0
   -1.0070    0.2540   -1.0180 O   0  0  0  0  0  0  0  0  0  0  0  0
  1  2  2  0
  2  3  1  0
  2 11  1  0
  3  4  1  0
  4  5  2  0
  4  6  1  0
  6  7  2  3
  6 11  1  0
  7  8  1  0
  8  9  2  3
  9 10  1  0
M  END
