
     RDKit          3D

 27 28  0  0  0  0  0  0  0  0999 V2000
    6.0240   -2.5330   -0.2510 C   0  0  0  0  0  0  0  0  0  0  0  0
    5.0950   -1.3940    0.0330 C   0  0  0  0  0  0  0  0  0  0  0  0
    5.5180   -0.1300    0.5410 C   0  0  0  0  0  0  0  0  0  0  0  0
    6.7160    0.2450    0.8370 C   0  0  0  0  0  0  0  0  0  0  0  0
    7.9080   -0.4860    0.7370 N   0  0  0  0  0  0  0  0  0  0  0  0
    3.7880   -1.6020   -0.2150 C   0  0  0  0  0  0  0  0  0  0  0  0
    2.8070   -0.5900    0.0170 C   0  0  0  0  0  0  0  0  0  0  0  0
    1.5010   -0.9000   -0.2670 C   0  0  0  0  0  0  0  0  0  0  0  0
    1.2660   -2.5080   -0.8740 Cl  0  0  0  0  0  0  0  0  0  0  0  0
    0.5140    0.1120   -0.0360 C   0  0  0  0  0  0  0  0  0  0  0  0
   -0.7800    0.0060   -0.2440 C   0  0  0  0  0  0  0  0  0  0  0  0
   -1.4560   -1.1690   -0.7540 C   0  0  0  0  0  0  0  0  0  0  0  0
   -2.7880   -1.2280   -0.9500 C   0  0  0  0  0  0  0  0  0  0  0  0
   -3.4160   -2.4670   -1.4760 C   0  0  1  0  0  0  0  0  0  0  0  0
   -4.3750   -2.9920   -0.5550 N   0  0  0  0  0  0  0  0  0  0  0  0
   -5.5830   -3.2820   -1.2570 C   0  0  0  0  0  0  0  0  0  0  0  0
   -5.2820   -3.0790   -2.7080 C   0  0  0  0  0  0  0  0  0  0  0  0
   -4.0840   -2.2570   -2.7420 N   0  0  0  0  0  0  0  0  0  0  0  0
   -3.5430   -0.0310   -0.6200 C   0  0  0  0  0  0  0  0  0  0  0  0
   -4.8020   -0.0890   -0.8060 O   0  0  0  0  0  0  0  0  0  0  0  0
   -2.8830    1.1640   -0.1060 C   0  0  0  0  0  0  0  0  0  0  0  0
   -1.5890    1.2200    0.0840 C   0  0  0  0  0  0  0  0  0  0  0  0
   -0.9500    2.3520    0.5730 O   0  0  0  0  0  0  0  0  0  0  0  0
   -1.5730    3.5180    1.0050 C   0  0  2  0  0  0  0  0  0  0  0  0
   -2.5260    3.2960    2.1580 C   0  0  0  0  0  0  0  0  0  0  0  0
   -2.3200    4.2450   -0.0850 C   0  0  0  0  0  0  0  0  0  0  0  0
   -0.4670    4.4440    1.5280 C   0  0  0  0  0  0  0  0  0  0  0  0
  1  2  1  0
  2  3  1  0
  2  6  2  3
  3  4  2  3
  4  5  1  0
  6  7  1  0
  7  8  2  3
  8  9  1  0
  8 10  1  0
 10 11  2  3
 11 12  1  0
 11 22  1  0
 12 13  2  0
 14 13  1  1
 13 19  1  0
 14 15  1  0
 14 18  1  0
 15 16  1  0
 16 17  1  0
 17 18  1  0
 19 20  2  0
 19 21  1  0
 21 22  2  0
 22 23  1  0
 23 24  1  0
 24 25  1  1
 24 26  1  0
 24 27  1  0
M  CHG  1   5   1
M  END
