
     RDKit          3D

 24 24  0  0  0  0  0  0  0  0999 V2000
   -5.7570   -3.4020   -0.0440 C   0  0  0  0  0  0  0  0  0  0  0  0
   -5.0670   -2.0930   -0.3750 C   0  0  0  0  0  0  0  0  0  0  0  0
   -4.6950   -1.4370    0.8040 O   0  0  0  0  0  0  0  0  0  0  0  0
   -3.9180    0.0390    0.3560 P   0  0  0  0  0  0  0  0  0  0  0  0
   -4.6140    1.5070    1.1990 C   0  0  0  0  0  0  0  0  0  0  0  0
   -5.4490    2.2820    0.3250 O   0  0  0  0  0  0  0  0  0  0  0  0
   -6.0360    3.4230    0.8490 C   0  0  0  0  0  0  0  0  0  0  0  0
   -5.8260    3.7320    2.0340 O   0  0  0  0  0  0  0  0  0  0  0  0
   -6.8620    4.2480    0.0960 O   0  0  0  0  0  0  0  0  0  0  0  0
   -2.2030   -0.0300    0.6350 O   0  0  0  0  0  0  0  0  0  0  0  0
   -1.6220   -0.1320   -0.6260 C   0  0  0  0  0  0  0  0  0  0  0  0
   -0.1020   -0.2030   -0.5440 C   0  0  2  0  0  0  0  0  0  0  0  0
    0.3390    1.0420    0.1990 C   0  0  0  0  0  0  0  0  0  0  0  0
    0.3890   -0.2170   -1.9760 C   0  0  0  0  0  0  0  0  0  0  0  0
    0.3210   -1.2870    0.1810 O   0  0  0  0  0  0  0  0  0  0  0  0
    1.9770   -1.4910    0.3540 P   0  0  0  0  0  0  0  0  0  0  0  0
    2.4280   -3.2770    0.1620 C   0  0  0  0  0  0  0  0  0  0  0  0
    3.0670   -0.3600   -0.5390 C   0  0  0  0  0  0  0  0  0  0  0  0
    4.2970    0.0670    0.2620 C   0  0  1  0  0  0  0  0  0  0  0  0
    5.1390   -1.1440    0.6380 C   0  0  0  0  0  0  0  0  0  0  0  0
    5.1470    0.9330   -0.6300 C   0  0  0  0  0  0  0  0  0  0  0  0
    5.5750    2.0310    0.3530 C   0  0  0  0  0  0  0  0  0  0  0  0
    4.2940    2.1000    1.1940 C   0  0  0  0  0  0  0  0  0  0  0  0
    3.9810    0.7790    1.3810 O   0  0  0  0  0  0  0  0  0  0  0  0
  1  2  1  0
  2  3  1  0
  3  4  1  0
  4  5  1  0
  4 10  1  0
  5  6  1  0
  6  7  1  0
  7  8  2  0
  7  9  1  0
 10 11  1  0
 11 12  1  0
 12 13  1  1
 12 14  1  0
 12 15  1  0
 15 16  1  0
 16 17  1  0
 16 18  1  0
 18 19  1  0
 19 20  1  1
 19 21  1  0
 19 24  1  0
 21 22  1  0
 22 23  1  0
 23 24  1  0
M  END
