
     RDKit          3D

 24 23  0  0  0  0  0  0  0  0999 V2000
   -6.4420    3.0310    0.1880 C   0  0  0  0  0  0  0  0  0  0  0  0
   -5.5520    1.9590   -0.4090 C   0  0  0  0  0  0  0  0  0  0  0  0
   -5.6870    0.8050    0.3610 O   0  0  0  0  0  0  0  0  0  0  0  0
   -4.6760   -0.4290   -0.3100 P   0  0  0  0  0  0  0  0  0  0  0  0
   -5.6490   -1.8380   -0.9820 C   0  0  0  0  0  0  0  0  0  0  0  0
   -3.5600   -1.0170    0.8910 O   0  0  0  0  0  0  0  0  0  0  0  0
   -2.3770   -0.4250    1.2310 C   0  0  0  0  0  0  0  0  0  0  0  0
   -2.2650    0.5820    2.3140 C   0  0  0  0  0  0  0  0  0  0  0  0
   -1.2710   -0.7640    0.5590 C   0  0  0  0  0  0  0  0  0  0  0  0
   -0.0020   -0.1480    0.9010 C   0  0  0  0  0  0  0  0  0  0  0  0
    1.0820   -0.4790    0.2380 C   0  0  0  0  0  0  0  0  0  0  0  0
    2.3710    0.1160    0.5530 C   0  0  0  0  0  0  0  0  0  0  0  0
    2.4430    0.9600    1.4750 O   0  0  0  0  0  0  0  0  0  0  0  0
    3.8420   -0.3690   -0.3880 P   0  0  0  0  0  0  0  0  0  0  0  0
    3.7600    0.3330   -2.0870 C   0  0  0  0  0  0  0  0  0  0  0  0
    5.4110    0.1530    0.4790 C   0  0  0  0  0  0  0  0  0  0  0  0
    5.5060    1.6350    0.6040 C   0  0  0  0  0  0  0  0  0  0  0  0
    6.6520    2.0170    1.2620 O   0  0  0  0  0  0  0  0  0  0  0  0
    7.7860    1.5970    0.5950 C   0  0  0  0  0  0  0  0  0  0  0  0
   -1.3690   -1.7720   -0.5330 C   0  0  0  0  0  0  0  0  0  0  0  0
   -0.5500   -2.8590   -0.2160 O   0  0  0  0  0  0  0  0  0  0  0  0
   -0.3880   -3.9840   -0.9950 C   0  0  0  0  0  0  0  0  0  0  0  0
   -1.0280   -4.0390   -2.0810 O   0  0  0  0  0  0  0  0  0  0  0  0
    0.4520   -5.0280   -0.6040 O   0  0  0  0  0  0  0  0  0  0  0  0
  1  2  1  0
  2  3  1  0
  3  4  1  0
  4  5  1  0
  4  6  1  0
  6  7  1  0
  7  8  1  0
  7  9  2  3
  9 10  1  0
  9 20  1  0
 10 11  2  3
 11 12  1  0
 12 13  2  0
 12 14  1  0
 14 15  1  0
 14 16  1  0
 16 17  1  0
 17 18  1  0
 18 19  1  0
 20 21  1  0
 21 22  1  0
 22 23  2  0
 22 24  1  0
M  END
