
     RDKit          3D

 20 20  0  0  0  0  0  0  0  0999 V2000
    4.0130    1.7170    0.6610 C   0  0  0  0  0  0  0  0  0  0  0  0
    2.9880    1.1040   -0.2630 C   0  0  1  0  0  0  0  0  0  0  0  0
    3.4300   -0.3090   -0.6670 C   0  0  0  0  0  0  0  0  0  0  0  0
    3.6080   -1.3940    0.8140 P   0  0  0  0  0  0  0  0  0  0  0  0
    4.5120   -2.6700    0.6720 O   0  0  0  0  0  0  0  0  0  0  0  0
    1.6730    1.0140    0.4410 C   0  0  0  0  0  0  0  0  0  0  0  0
    1.5730    1.4260    1.6310 O   0  0  0  0  0  0  0  0  0  0  0  0
    0.5330    0.4700   -0.2100 N   0  0  0  0  0  0  0  0  0  0  0  0
   -0.7110    0.3910    0.4720 C   0  0  0  0  0  0  0  0  0  0  0  0
   -0.7570    0.8150    1.6540 O   0  0  0  0  0  0  0  0  0  0  0  0
   -1.9450   -0.1840   -0.1980 C   0  0  1  0  0  0  0  0  0  0  0  0
   -3.0110   -0.1260    0.7340 N   0  0  0  0  0  0  0  0  0  0  0  0
   -4.3280   -0.5800    0.4740 C   0  0  0  0  0  0  0  0  0  0  0  0
   -4.5760   -1.0610   -0.6360 O   0  0  0  0  0  0  0  0  0  0  0  0
   -5.3140   -0.4820    1.4510 O   0  0  0  0  0  0  0  0  0  0  0  0
   -2.1770    0.4510   -1.5070 C   0  0  0  0  0  0  0  0  0  0  0  0
   -2.6750   -0.5370   -2.3390 O   0  0  0  0  0  0  0  0  0  0  0  0
   -2.1940   -1.7430   -1.8480 C   0  0  0  0  0  0  0  0  0  0  0  0
   -2.2320   -2.8510   -2.4620 O   0  0  0  0  0  0  0  0  0  0  0  0
   -1.6480   -1.5590   -0.5500 N   0  0  0  0  0  0  0  0  0  0  0  0
  2  1  1  1
  2  3  1  0
  2  6  1  0
  3  4  1  0
  4  5  2  0
  6  7  2  0
  6  8  1  0
  8  9  1  0
  9 10  2  0
  9 11  1  0
 11 12  1  1
 11 16  1  0
 11 20  1  0
 12 13  1  0
 13 14  2  0
 13 15  1  0
 16 17  1  0
 17 18  1  0
 18 19  2  0
 18 20  1  0
M  END
