
     RDKit          3D

 20 20  0  0  0  0  0  0  0  0999 V2000
   -5.7140    0.5610    1.6260 C   0  0  0  0  0  0  0  0  0  0  0  0
   -5.0830   -0.1480    0.6110 O   0  0  0  0  0  0  0  0  0  0  0  0
   -3.8550    0.4670    0.3610 C   0  0  2  0  0  0  0  0  0  0  0  0
   -3.8720    0.8960   -0.9480 O   0  0  0  0  0  0  0  0  0  0  0  0
   -2.7220   -0.4270    0.6000 C   0  0  0  0  0  0  0  0  0  0  0  0
   -2.4570   -0.8230    1.7950 O   0  0  0  0  0  0  0  0  0  0  0  0
   -1.8860   -0.8890   -0.4200 N   0  0  0  0  0  0  0  0  0  0  0  0
   -0.7060   -1.7590   -0.1630 C   0  0  0  0  0  0  0  0  0  0  0  0
    0.2610   -1.3320   -1.2550 C   0  0  2  0  0  0  0  0  0  0  0  0
    1.2550   -0.3530   -0.6940 C   0  0  0  0  0  0  0  0  0  0  0  0
    1.2780    0.8290   -1.1250 O   0  0  0  0  0  0  0  0  0  0  0  0
    2.1280   -0.8290    0.3100 N   0  0  0  0  0  0  0  0  0  0  0  0
    3.1170    0.0210    0.9110 C   0  0  0  0  0  0  0  0  0  0  0  0
    4.0640    0.4990   -0.1710 C   0  0  0  0  0  0  0  0  0  0  0  0
    5.3680    1.6020    0.5790 P   0  0  0  0  0  0  0  0  0  0  0  0
    5.9780    2.6240   -0.6820 O   0  0  0  0  0  0  0  0  0  0  0  0
    6.6710    0.6410    1.2130 O   0  0  0  0  0  0  0  0  0  0  0  0
   -0.5240   -0.6580   -2.2520 N   0  0  0  0  0  0  0  0  0  0  0  0
   -1.8820   -0.7430   -1.8260 C   0  0  0  0  0  0  0  0  0  0  0  0
   -2.9010   -0.6990   -2.5570 O   0  0  0  0  0  0  0  0  0  0  0  0
  1  2  1  0
  2  3  1  0
  3  4  1  6
  3  5  1  0
  5  6  2  0
  5  7  1  0
  7  8  1  0
  7 19  1  0
  8  9  1  0
  9 10  1  1
  9 18  1  0
 10 11  2  0
 10 12  1  0
 12 13  1  0
 13 14  1  0
 14 15  1  0
 15 16  1  0
 15 17  1  0
 18 19  1  0
 19 20  2  0
M  END
