
     RDKit          3D

 20 21  0  0  0  0  0  0  0  0999 V2000
    1.2080   -2.6070    0.2480 O   0  0  0  0  0  0  0  0  0  0  0  0
    0.3420   -1.6690    0.2610 C   0  0  0  0  0  0  0  0  0  0  0  0
   -0.8100   -1.7590    1.0030 O   0  0  0  0  0  0  0  0  0  0  0  0
   -1.8300   -0.8060    1.0550 C   0  0  0  0  0  0  0  0  0  0  0  0
   -1.8260    0.1280   -0.1330 C   0  0  2  0  0  0  0  0  0  0  0  0
   -2.5080    1.2980    0.1990 O   0  0  0  0  0  0  0  0  0  0  0  0
   -3.8020    1.0450    0.6350 C   0  0  0  0  0  0  0  0  0  0  0  0
   -4.6500    0.3390   -0.3670 C   0  0  0  0  0  0  0  0  0  0  0  0
   -3.8920   -0.2230   -1.4720 N   0  0  0  0  0  0  0  0  0  0  0  0
   -2.5070   -0.4570   -1.3070 C   0  0  0  0  0  0  0  0  0  0  0  0
   -1.9020   -1.1470   -2.1530 O   0  0  0  0  0  0  0  0  0  0  0  0
   -0.4330    0.5200   -0.4610 C   0  0  0  0  0  0  0  0  0  0  0  0
   -0.0940    1.7070   -0.6980 O   0  0  0  0  0  0  0  0  0  0  0  0
    0.5580   -0.4940   -0.5070 N   0  0  0  0  0  0  0  0  0  0  0  0
    1.7660   -0.3700   -1.3010 C   0  0  0  0  0  0  0  0  0  0  0  0
    2.8120    0.2770   -0.4250 C   0  0  0  0  0  0  0  0  0  0  0  0
    4.0680    0.4510   -1.1210 N   0  0  0  0  0  0  0  0  0  0  0  0
    5.2320    1.2230    0.0040 P   0  0  0  0  0  0  0  0  0  0  0  0
    6.8460    0.6370   -0.2420 O   0  0  0  0  0  0  0  0  0  0  0  0
    4.7730    1.0360    1.6530 O   0  0  0  0  0  0  0  0  0  0  0  0
  1  2  2  0
  2  3  1  0
  2 14  1  0
  3  4  1  0
  5  4  1  1
  5  6  1  0
  5 10  1  0
  5 12  1  0
  6  7  1  0
  7  8  1  0
  8  9  1  0
  9 10  1  0
 10 11  2  0
 12 13  2  0
 12 14  1  0
 14 15  1  0
 15 16  1  0
 16 17  1  0
 17 18  1  0
 18 19  1  0
 18 20  1  0
M  END
