
     RDKit          3D

 20 21  0  0  0  0  0  0  0  0999 V2000
    6.9710    2.4750    0.7280 O   0  0  0  0  0  0  0  0  0  0  0  0
    6.2210    1.3570    1.5160 P   0  0  0  0  0  0  0  0  0  0  0  0
    4.5320    1.0950    1.1100 O   0  0  0  0  0  0  0  0  0  0  0  0
    4.0570   -0.1270    0.6400 C   0  0  0  0  0  0  0  0  0  0  0  0
    4.9160   -1.0490    0.5190 O   0  0  0  0  0  0  0  0  0  0  0  0
    2.7210   -0.3300    0.3200 O   0  0  0  0  0  0  0  0  0  0  0  0
    2.3530   -1.6020   -0.1450 C   0  0  0  0  0  0  0  0  0  0  0  0
    0.9170   -1.7150   -0.4550 C   0  0  0  0  0  0  0  0  0  0  0  0
    0.5000   -2.8230   -0.8790 O   0  0  0  0  0  0  0  0  0  0  0  0
   -0.0170   -0.6500   -0.3050 N   0  0  0  0  0  0  0  0  0  0  0  0
   -1.3750   -0.8720   -0.6340 C   0  0  2  0  0  0  0  0  0  0  0  0
   -1.7940    0.0720   -1.8730 C   0  0  0  0  0  0  0  0  0  0  0  0
   -2.3880    0.9880   -0.9810 N   0  0  0  0  0  0  0  0  0  0  0  0
   -3.4750    0.1110   -0.4530 C   0  0  0  0  0  0  0  0  0  0  0  0
   -2.3640   -0.5190    0.4850 C   0  0  2  0  0  0  0  0  0  0  0  0
   -1.9510    0.5470    1.4150 C   0  0  0  0  0  0  0  0  0  0  0  0
   -1.5030    0.2300    2.5920 O   0  0  0  0  0  0  0  0  0  0  0  0
   -1.9910    1.9490    1.1570 N   0  0  0  0  0  0  0  0  0  0  0  0
   -2.2510    2.1820   -0.3070 C   0  0  0  0  0  0  0  0  0  0  0  0
   -2.3210    3.2920   -0.8140 O   0  0  0  0  0  0  0  0  0  0  0  0
  1  2  2  0
  2  3  1  0
  3  4  1  0
  4  5  2  0
  4  6  1  0
  6  7  1  0
  7  8  1  0
  8  9  2  0
  8 10  1  0
 11 10  1  1
 11 12  1  0
 11 15  1  0
 12 13  1  0
 13 14  1  0
 13 19  1  0
 14 15  1  0
 15 16  1  1
 16 17  2  0
 16 18  1  0
 18 19  1  0
 19 20  2  0
M  END
