
     RDKit          3D

 24 23  0  0  0  0  0  0  0  0999 V2000
   -4.1550    0.6580   -2.8110 C   0  0  0  0  0  0  0  0  0  0  0  0
   -4.4860   -0.3290   -2.0000 C   0  0  0  0  0  0  0  0  0  0  0  0
   -3.6020   -0.7990   -0.9670 C   0  0  0  0  0  0  0  0  0  0  0  0
   -3.9750   -1.7820   -0.1860 C   0  0  0  0  0  0  0  0  0  0  0  0
   -5.2980   -2.4590   -0.3070 C   0  0  0  0  0  0  0  0  0  0  0  0
   -2.2920   -0.1740   -0.7990 C   0  0  0  0  0  0  0  0  0  0  0  0
   -1.3060   -0.9270    0.5880 P   0  0  0  0  0  0  0  0  0  0  0  0
   -1.4900    0.0160    2.0350 O   0  0  0  0  0  0  0  0  0  0  0  0
   -2.7990   -0.0090    2.5030 C   0  0  0  0  0  0  0  0  0  0  0  0
   -2.8060    0.8580    3.7690 C   0  0  0  0  0  0  0  0  0  0  0  0
    0.3640   -0.7610    0.1170 O   0  0  0  0  0  0  0  0  0  0  0  0
    0.6620    0.5990    0.2560 C   0  0  0  0  0  0  0  0  0  0  0  0
    2.1260    0.8540   -0.1390 C   0  0  2  0  0  0  0  0  0  0  0  0
    2.3200    2.3390    0.0530 C   0  0  0  0  0  0  0  0  0  0  0  0
    4.0200    2.9220   -0.3590 P   0  0  0  0  0  0  0  0  0  0  0  0
    5.2150    2.8700    0.6000 O   0  0  0  0  0  0  0  0  0  0  0  0
    2.3130    0.3800   -1.4980 C   0  0  0  0  0  0  0  0  0  0  0  0
    1.2700    0.0350   -2.1090 O   0  0  0  0  0  0  0  0  0  0  0  0
    3.5270    0.2390   -2.2990 C   0  0  0  0  0  0  0  0  0  0  0  0
    4.7510    0.3820   -1.6520 O   0  0  0  0  0  0  0  0  0  0  0  0
    5.2270   -0.4490   -0.6700 C   0  0  0  0  0  0  0  0  0  0  0  0
    4.5550   -1.4200   -0.3000 O   0  0  0  0  0  0  0  0  0  0  0  0
    6.4610   -0.2310   -0.0690 O   0  0  0  0  0  0  0  0  0  0  0  0
    6.9020   -1.1270    0.9440 C   0  0  0  0  0  0  0  0  0  0  0  0
  1  2  2  0
  2  3  1  0
  3  4  2  3
  3  6  1  0
  4  5  1  0
  6  7  1  0
  7  8  1  0
  7 11  1  0
  8  9  1  0
  9 10  1  0
 11 12  1  0
 13 12  1  6
 13 14  1  0
 13 17  1  0
 14 15  1  0
 15 16  2  0
 17 18  2  0
 17 19  1  0
 19 20  1  0
 20 21  1  0
 21 22  2  0
 21 23  1  0
 23 24  1  0
M  END
