
     RDKit          3D

 20 20  0  0  0  0  0  0  0  0999 V2000
   -2.9280   -1.3930   -0.4460 N   0  0  0  0  0  0  0  0  0  0  0  0
   -3.5530   -0.1280   -0.6750 C   0  0  1  0  0  0  0  0  0  0  0  0
   -4.6900    0.0800    0.3190 C   0  0  0  0  0  0  0  0  0  0  0  0
   -5.6110   -0.9470    0.1340 O   0  0  0  0  0  0  0  0  0  0  0  0
   -2.6710    1.0420   -0.5470 C   0  0  0  0  0  0  0  0  0  0  0  0
   -3.2120    2.1870   -0.7390 O   0  0  0  0  0  0  0  0  0  0  0  0
   -1.2700    0.9860   -0.2270 N   0  0  0  0  0  0  0  0  0  0  0  0
   -0.5980   -0.2480   -0.0020 C   0  0  0  0  0  0  0  0  0  0  0  0
    0.8730   -0.1740    0.3070 C   0  0  1  0  0  0  0  0  0  0  0  0
    1.6100   -0.3250   -1.0060 C   0  0  0  0  0  0  0  0  0  0  0  0
    2.9770   -0.2760   -0.8760 O   0  0  0  0  0  0  0  0  0  0  0  0
    3.5130   -1.2450   -0.0720 C   0  0  0  0  0  0  0  0  0  0  0  0
    5.3710   -0.9790   -0.0470 P   0  0  0  0  0  0  0  0  0  0  0  0
    6.0290   -1.3260    1.4980 O   0  0  0  0  0  0  0  0  0  0  0  0
    5.7210    0.6870   -0.4260 O   0  0  0  0  0  0  0  0  0  0  0  0
    1.2100    1.1080    0.9750 C   0  0  0  0  0  0  0  0  0  0  0  0
    1.9570    1.1530    1.9760 O   0  0  0  0  0  0  0  0  0  0  0  0
    0.6700    2.3220    0.4650 N   0  0  0  0  0  0  0  0  0  0  0  0
   -0.6030    2.2410   -0.1490 C   0  0  0  0  0  0  0  0  0  0  0  0
   -1.1530    3.2950   -0.6340 O   0  0  0  0  0  0  0  0  0  0  0  0
  2  1  1  1
  2  3  1  0
  2  5  1  0
  3  4  1  0
  5  6  2  0
  5  7  1  0
  7  8  1  0
  7 19  1  0
  8  9  1  0
  9 10  1  6
  9 16  1  0
 10 11  1  0
 11 12  1  0
 12 13  1  0
 13 14  1  0
 13 15  1  0
 16 17  2  0
 16 18  1  0
 18 19  1  0
 19 20  2  0
M  END
