
     RDKit          3D

 21 22  0  0  0  0  0  0  0  0999 V2000
    6.1460    0.2160    2.8720 O   0  0  0  0  0  0  0  0  0  0  0  0
    5.2060    0.1920    2.0280 C   0  0  0  0  0  0  0  0  0  0  0  0
    5.2690   -0.2790    0.7200 O   0  0  0  0  0  0  0  0  0  0  0  0
    3.9880   -0.1250    0.0940 C   0  0  0  0  0  0  0  0  0  0  0  0
    3.3430    0.8850    1.0160 C   0  0  1  0  0  0  0  0  0  0  0  0
    1.9570    0.7400    1.0700 O   0  0  0  0  0  0  0  0  0  0  0  0
    1.4260    1.8790    0.6810 O   0  0  0  0  0  0  0  0  0  0  0  0
    0.1880    1.6900    0.3400 O   0  0  0  0  0  0  0  0  0  0  0  0
    0.0580    0.6130   -0.5060 C   0  0  2  0  0  0  0  0  0  0  0  0
   -0.5160    1.0520   -1.8360 C   0  0  0  0  0  0  0  0  0  0  0  0
   -1.2630   -0.0100   -2.3980 O   0  0  0  0  0  0  0  0  0  0  0  0
   -2.2700   -0.7710   -1.8430 C   0  0  0  0  0  0  0  0  0  0  0  0
   -2.6410   -1.8280   -2.4150 O   0  0  0  0  0  0  0  0  0  0  0  0
   -3.0140   -0.4680   -0.5700 C   0  0  2  0  0  0  0  0  0  0  0  0
   -3.9940    0.4570   -0.9120 O   0  0  0  0  0  0  0  0  0  0  0  0
   -5.1630   -0.0700   -0.6230 O   0  0  0  0  0  0  0  0  0  0  0  0
   -5.1150   -0.4340    0.6610 O   0  0  0  0  0  0  0  0  0  0  0  0
   -5.5150    0.5790    1.3970 O   0  0  0  0  0  0  0  0  0  0  0  0
   -2.0810    0.0990    0.3110 O   0  0  0  0  0  0  0  0  0  0  0  0
   -0.8300   -0.4490    0.1340 C   0  0  0  0  0  0  0  0  0  0  0  0
    3.9080    0.6500    2.2780 O   0  0  0  0  0  0  0  0  0  0  0  0
  1  2  2  0
  2  3  1  0
  2 21  1  0
  3  4  1  0
  4  5  1  0
  5  6  1  1
  5 21  1  0
  6  7  1  0
  7  8  1  0
  9  8  1  1
  9 10  1  0
  9 20  1  0
 10 11  1  0
 11 12  1  0
 12 13  2  0
 12 14  1  0
 14 15  1  6
 14 19  1  0
 15 16  1  0
 16 17  1  0
 17 18  1  0
 19 20  1  0
M  END
