
     RDKit          3D

 20 21  0  0  0  0  0  0  0  0999 V2000
    5.4690    2.0810   -0.3140 C   0  0  0  0  0  0  0  0  0  0  0  0
    4.5510    2.0370    0.7740 O   0  0  0  0  0  0  0  0  0  0  0  0
    3.9070    0.8270    0.9880 C   0  0  0  0  0  0  0  0  0  0  0  0
    4.3200   -0.2560    1.6760 N   0  0  0  0  0  0  0  0  0  0  0  0
    3.3630   -1.1960    1.6120 N   0  0  0  0  0  0  0  0  0  0  0  0
    2.3440   -0.7200    0.8890 C   0  0  0  0  0  0  0  0  0  0  0  0
    2.6540    0.5430    0.4840 C   0  0  0  0  0  0  0  0  0  0  0  0
    1.7180    1.2240   -0.2880 O   0  0  0  0  0  0  0  0  0  0  0  0
    0.7470    0.6370   -0.9460 O   0  0  0  0  0  0  0  0  0  0  0  0
    0.8550   -0.7290   -0.9520 C   0  0  0  0  0  0  0  0  0  0  0  0
    0.9940   -1.2500    0.4490 C   0  0  2  0  0  0  0  0  0  0  0  0
    0.0250   -0.7150    1.4620 C   0  0  0  0  0  0  0  0  0  0  0  0
   -1.2800   -1.0700    1.3670 O   0  0  0  0  0  0  0  0  0  0  0  0
   -2.2880   -0.8660    0.4840 C   0  0  0  0  0  0  0  0  0  0  0  0
   -2.0390   -0.1750   -0.5200 O   0  0  0  0  0  0  0  0  0  0  0  0
   -3.5960   -1.4160    0.6830 N   0  0  0  0  0  0  0  0  0  0  0  0
   -4.6880   -1.2290   -0.1880 C   0  0  0  0  0  0  0  0  0  0  0  0
   -5.1280    0.2050   -0.2670 C   0  0  0  0  0  0  0  0  0  0  0  0
   -4.1480    1.0230   -0.7210 O   0  0  0  0  0  0  0  0  0  0  0  0
   -4.5040    2.2770   -0.8000 O   0  0  0  0  0  0  0  0  0  0  0  0
  1  2  1  0
  2  3  1  0
  3  4  1  0
  3  7  2  0
  4  5  1  0
  5  6  2  0
  6  7  1  0
  6 11  1  0
  7  8  1  0
  8  9  1  0
  9 10  1  0
 10 11  1  0
 11 12  1  1
 12 13  1  0
 13 14  1  0
 14 15  2  0
 14 16  1  0
 16 17  1  0
 17 18  1  0
 18 19  1  0
 19 20  1  0
M  END
