
     RDKit          3D

 20 21  0  0  0  0  0  0  0  0999 V2000
   -0.2070    0.3560   -0.2940 O   0  0  0  0  0  0  0  0  0  0  0  0
    0.0770   -0.0760    0.8250 C   0  0  0  0  0  0  0  0  0  0  0  0
    1.2120   -0.7610    1.1950 N   0  0  0  0  0  0  0  0  0  0  0  0
    2.2020   -1.0770    0.3010 C   0  0  0  0  0  0  0  0  0  0  0  0
    2.2880   -0.7420   -0.9560 C   0  0  0  0  0  0  0  0  0  0  0  0
    3.4120   -1.1360   -1.8600 C   0  0  0  0  0  0  0  0  0  0  0  0
    4.3480   -1.9830   -1.2480 O   0  0  0  0  0  0  0  0  0  0  0  0
    4.2540   -2.3360    0.0920 C   0  0  0  0  0  0  0  0  0  0  0  0
    3.2730   -1.9370    0.8480 C   0  0  0  0  0  0  0  0  0  0  0  0
   -0.9310    0.2100    1.7280 N   0  0  0  0  0  0  0  0  0  0  0  0
   -2.1090    0.9270    1.3350 C   0  0  0  0  0  0  0  0  0  0  0  0
   -2.8790    0.9290    2.3280 N   0  0  0  0  0  0  0  0  0  0  0  0
   -4.0670    1.5960    2.0630 C   0  0  0  0  0  0  0  0  0  0  0  0
   -4.9790    1.7250    2.8880 O   0  0  0  0  0  0  0  0  0  0  0  0
   -4.0270    2.0470    0.7970 O   0  0  0  0  0  0  0  0  0  0  0  0
   -2.7720    1.6840    0.3110 C   0  0  2  0  0  0  0  0  0  0  0  0
   -3.0990    0.9350   -0.8810 O   0  0  0  0  0  0  0  0  0  0  0  0
   -2.7300    1.3670   -2.1230 C   0  0  0  0  0  0  0  0  0  0  0  0
   -2.0910    2.4490   -2.1920 O   0  0  0  0  0  0  0  0  0  0  0  0
   -3.0640    0.6190   -3.2420 O   0  0  0  0  0  0  0  0  0  0  0  0
  1  2  2  0
  2  3  1  0
  2 10  1  0
  3  4  1  0
  4  5  2  0
  4  9  1  0
  5  6  1  0
  6  7  1  0
  7  8  1  0
  8  9  2  0
 10 11  1  0
 11 12  2  0
 11 16  1  0
 12 13  1  0
 13 14  2  0
 13 15  1  0
 15 16  1  0
 16 17  1  6
 17 18  1  0
 18 19  2  0
 18 20  1  0
M  END
