
     RDKit          3D

 20 21  0  0  0  0  0  0  0  0999 V2000
   -1.7100   -2.2250    1.6890 O   0  0  0  0  0  0  0  0  0  0  0  0
   -2.1770   -2.2140    0.5370 C   0  0  0  0  0  0  0  0  0  0  0  0
   -2.0090   -1.1110   -0.3060 N   0  0  0  0  0  0  0  0  0  0  0  0
   -1.3010    0.0770    0.0890 C   0  0  2  0  0  0  0  0  0  0  0  0
   -2.0220    0.7160    1.2470 C   0  0  0  0  0  0  0  0  0  0  0  0
   -3.1340    1.4900    0.8820 O   0  0  0  0  0  0  0  0  0  0  0  0
   -3.0120    2.3730   -0.1750 C   0  0  0  0  0  0  0  0  0  0  0  0
   -3.7640    3.3870   -0.2930 O   0  0  0  0  0  0  0  0  0  0  0  0
   -1.9790    2.1020   -1.1640 C   0  0  0  0  0  0  0  0  0  0  0  0
   -1.1810    1.0260   -1.0360 C   0  0  0  0  0  0  0  0  0  0  0  0
   -0.1900    0.7840   -2.0250 N   0  0  0  0  0  0  0  0  0  0  0  0
    0.9440   -0.0280   -1.7710 C   0  0  0  0  0  0  0  0  0  0  0  0
    1.7830   -0.2120   -2.6620 O   0  0  0  0  0  0  0  0  0  0  0  0
    1.0530   -0.5960   -0.4770 N   0  0  0  0  0  0  0  0  0  0  0  0
    2.1870   -1.4350   -0.1480 C   0  0  0  0  0  0  0  0  0  0  0  0
    3.3370   -0.6700    0.4110 C   0  0  0  0  0  0  0  0  0  0  0  0
    3.0160    0.0080    1.5820 O   0  0  0  0  0  0  0  0  0  0  0  0
    4.0840    0.6530    2.0030 O   0  0  0  0  0  0  0  0  0  0  0  0
    0.0740   -0.3590    0.5070 C   0  0  0  0  0  0  0  0  0  0  0  0
    0.3590   -0.5150    1.7350 O   0  0  0  0  0  0  0  0  0  0  0  0
  1  2  2  0
  2  3  1  0
  4  3  1  6
  4  5  1  0
  4 10  1  0
  4 19  1  0
  5  6  1  0
  6  7  1  0
  7  8  2  0
  7  9  1  0
  9 10  2  0
 10 11  1  0
 11 12  1  0
 12 13  2  0
 12 14  1  0
 14 15  1  0
 14 19  1  0
 15 16  1  0
 16 17  1  0
 17 18  1  0
 19 20  2  0
M  END
