
     RDKit          3D

 20 21  0  0  0  0  0  0  0  0999 V2000
    2.8840   -1.9280   -0.1190 N   0  0  0  0  0  0  0  0  0  0  0  0
    1.5580   -1.5070    0.1810 C   0  0  0  0  0  0  0  0  0  0  0  0
    0.8900   -2.2510    1.0210 N   0  0  0  0  0  0  0  0  0  0  0  0
   -0.4370   -1.8750    1.3530 C   0  0  0  0  0  0  0  0  0  0  0  0
   -1.1190   -2.6160    2.1980 C   0  0  0  0  0  0  0  0  0  0  0  0
   -2.4800   -2.2210    2.5320 C   0  0  0  0  0  0  0  0  0  0  0  0
   -3.4650   -2.6800    3.3110 C   0  0  0  0  0  0  0  0  0  0  0  0
   -4.3620   -1.6170    2.9530 C   0  0  0  0  0  0  0  0  0  0  0  0
   -5.5430   -1.3080    3.2670 O   0  0  0  0  0  0  0  0  0  0  0  0
   -3.3280   -1.1830    2.1690 O   0  0  0  0  0  0  0  0  0  0  0  0
   -0.9400   -0.7310    0.7580 O   0  0  0  0  0  0  0  0  0  0  0  0
   -0.2200    0.0500   -0.1330 C   0  0  0  0  0  0  0  0  0  0  0  0
   -0.8240    1.2490   -0.7220 C   0  0  0  0  0  0  0  0  0  0  0  0
    0.0180    1.9370   -1.6060 O   0  0  0  0  0  0  0  0  0  0  0  0
    1.2320    2.4690   -1.2510 C   0  0  0  0  0  0  0  0  0  0  0  0
    1.5860    2.3130   -0.0460 O   0  0  0  0  0  0  0  0  0  0  0  0
    2.0500    3.1760   -2.2460 C   0  0  0  0  0  0  0  0  0  0  0  0
    1.4170    3.1910   -3.4650 O   0  0  0  0  0  0  0  0  0  0  0  0
    2.1180    3.8150   -4.3880 O   0  0  0  0  0  0  0  0  0  0  0  0
    0.9780   -0.3290   -0.4040 N   0  0  0  0  0  0  0  0  0  0  0  0
  1  2  1  0
  2  3  2  0
  2 20  1  0
  3  4  1  0
  4  5  2  3
  4 11  1  0
  5  6  1  0
  6  7  2  0
  6 10  1  0
  7  8  1  0
  8  9  2  0
  8 10  1  0
 11 12  1  0
 12 13  1  0
 12 20  2  0
 13 14  1  0
 14 15  1  0
 15 16  2  0
 15 17  1  0
 17 18  1  0
 18 19  1  0
M  END
