
     RDKit          3D

 20 21  0  0  0  0  0  0  0  0999 V2000
   -5.3440   -0.9080   -0.4280 N   0  0  0  0  0  0  0  0  0  0  0  0
   -5.2640    0.3370    0.2880 C   0  0  0  0  0  0  0  0  0  0  0  0
   -6.3160    0.8240    0.7430 O   0  0  0  0  0  0  0  0  0  0  0  0
   -3.9870    0.9840    0.4610 C   0  0  0  0  0  0  0  0  0  0  0  0
   -2.8820    0.4370   -0.0380 C   0  0  0  0  0  0  0  0  0  0  0  0
   -1.6290    1.0810    0.1380 N   0  0  0  0  0  0  0  0  0  0  0  0
   -0.3880    0.3720   -0.0430 C   0  0  2  0  0  0  0  0  0  0  0  0
    0.0320   -0.1980    1.2920 C   0  0  0  0  0  0  0  0  0  0  0  0
    1.3570   -0.8000    1.1830 N   0  0  0  0  0  0  0  0  0  0  0  0
    2.2780   -0.3760    0.1740 C   0  0  0  0  0  0  0  0  0  0  0  0
    3.4360   -1.0000    0.0360 C   0  0  0  0  0  0  0  0  0  0  0  0
    4.3670   -0.5540   -1.0000 C   0  0  0  0  0  0  0  0  0  0  0  0
    5.5930   -0.1390   -0.4920 O   0  0  0  0  0  0  0  0  0  0  0  0
    6.3180    0.2310   -1.5500 O   0  0  0  0  0  0  0  0  0  0  0  0
    1.9020    0.6810   -0.6140 O   0  0  0  0  0  0  0  0  0  0  0  0
    0.6570    1.3490   -0.5190 C   0  0  0  0  0  0  0  0  0  0  0  0
   -0.5510   -0.6970   -1.0770 C   0  0  0  0  0  0  0  0  0  0  0  0
    0.4380   -1.0230   -1.7820 O   0  0  0  0  0  0  0  0  0  0  0  0
   -1.7900   -1.2980   -1.2300 O   0  0  0  0  0  0  0  0  0  0  0  0
   -2.9250   -0.7520   -0.7270 O   0  0  0  0  0  0  0  0  0  0  0  0
  1  2  1  0
  2  3  2  0
  2  4  1  0
  4  5  2  3
  5  6  1  0
  5 20  1  0
  6  7  1  0
  7  8  1  1
  7 16  1  0
  7 17  1  0
  8  9  1  0
  9 10  1  0
 10 11  2  3
 10 15  1  0
 11 12  1  0
 12 13  1  0
 13 14  1  0
 15 16  1  0
 17 18  2  0
 17 19  1  0
 19 20  1  0
M  END
