
     RDKit          3D

 20 20  0  0  0  0  0  0  0  0999 V2000
   -2.6210   -2.2340   -0.7940 N   0  0  0  0  0  0  0  0  0  0  0  0
   -2.5280   -1.2440    0.2470 C   0  0  2  0  0  0  0  0  0  0  0  0
   -3.8880   -0.6830    0.5130 C   0  0  0  0  0  0  0  0  0  0  0  0
   -3.8850    0.7010    0.6100 O   0  0  0  0  0  0  0  0  0  0  0  0
   -3.8240    1.4630   -0.9220 P   0  0  0  0  0  0  0  0  0  0  0  0
   -4.3010    3.1380   -0.7010 O   0  0  0  0  0  0  0  0  0  0  0  0
   -2.2640    1.4690   -1.6310 O   0  0  0  0  0  0  0  0  0  0  0  0
   -1.5670    0.3000   -1.4760 C   0  0  0  0  0  0  0  0  0  0  0  0
   -1.4900   -0.1810   -0.0460 C   0  0  1  0  0  0  0  0  0  0  0  0
   -1.7310    0.9070    0.7810 O   0  0  0  0  0  0  0  0  0  0  0  0
   -0.1490   -0.7570    0.2590 C   0  0  0  0  0  0  0  0  0  0  0  0
    0.3050   -1.7430   -0.3470 O   0  0  0  0  0  0  0  0  0  0  0  0
    0.6480   -0.1540    1.2860 N   0  0  0  0  0  0  0  0  0  0  0  0
    1.9550   -0.6500    1.6400 C   0  0  0  0  0  0  0  0  0  0  0  0
    2.9090   -0.5940    0.4630 C   0  0  0  0  0  0  0  0  0  0  0  0
    3.0000    0.8540    0.0510 C   0  0  0  0  0  0  0  0  0  0  0  0
    3.8670    1.0060   -1.0470 O   0  0  0  0  0  0  0  0  0  0  0  0
    5.1930    0.6610   -0.9790 C   0  0  0  0  0  0  0  0  0  0  0  0
    5.7220    0.1900    0.0610 O   0  0  0  0  0  0  0  0  0  0  0  0
    6.0220    0.8280   -2.1040 O   0  0  0  0  0  0  0  0  0  0  0  0
  2  1  1  6
  2  3  1  0
  2  9  1  0
  3  4  1  0
  4  5  1  0
  5  6  1  0
  5  7  1  0
  7  8  1  0
  8  9  1  0
  9 10  1  1
  9 11  1  0
 11 12  2  0
 11 13  1  0
 13 14  1  0
 14 15  1  0
 15 16  1  0
 16 17  1  0
 17 18  1  0
 18 19  2  0
 18 20  1  0
M  END
