
     RDKit          3D

 20 21  0  0  0  0  0  0  0  0999 V2000
   -1.4270   -1.6950    0.3750 N   0  0  0  0  0  0  0  0  0  0  0  0
   -2.1430   -0.4820    0.2040 C   0  0  2  0  0  0  0  0  0  0  0  0
   -1.3780    0.7330   -0.1000 C   0  0  0  0  0  0  0  0  0  0  0  0
   -0.1330    1.0250    0.1110 C   0  0  0  0  0  0  0  0  0  0  0  0
    0.8960    0.1950    0.7380 C   0  0  0  0  0  0  0  0  0  0  0  0
    0.7470   -0.9520    1.1920 O   0  0  0  0  0  0  0  0  0  0  0  0
    2.2460    0.7200    0.8660 N   0  0  0  0  0  0  0  0  0  0  0  0
    3.2610   -0.0820    1.4780 C   0  0  0  0  0  0  0  0  0  0  0  0
    3.4080   -1.2530    0.7450 O   0  0  0  0  0  0  0  0  0  0  0  0
    3.8650   -0.9050   -0.8790 P   0  0  0  0  0  0  0  0  0  0  0  0
    5.0960   -1.9520   -1.4570 O   0  0  0  0  0  0  0  0  0  0  0  0
    4.2420    0.7690   -1.1120 O   0  0  0  0  0  0  0  0  0  0  0  0
    0.1360    2.4210   -0.4130 C   0  0  0  0  0  0  0  0  0  0  0  0
   -1.0840    2.8930   -0.8310 O   0  0  0  0  0  0  0  0  0  0  0  0
   -2.0320    1.9200   -0.7120 C   0  0  0  0  0  0  0  0  0  0  0  0
   -3.2630    1.9740   -1.0490 O   0  0  0  0  0  0  0  0  0  0  0  0
   -3.1780   -0.2470    1.2880 C   0  0  0  0  0  0  0  0  0  0  0  0
   -4.1420   -1.1780    0.9730 O   0  0  0  0  0  0  0  0  0  0  0  0
   -4.0940   -1.3810   -0.3830 C   0  0  0  0  0  0  0  0  0  0  0  0
   -3.0130   -0.7030   -0.9020 O   0  0  0  0  0  0  0  0  0  0  0  0
  2  1  1  1
  2  3  1  0
  2 17  1  0
  2 20  1  0
  3  4  2  0
  3 15  1  0
  4  5  1  0
  4 13  1  0
  5  6  2  0
  5  7  1  0
  7  8  1  0
  8  9  1  0
  9 10  1  0
 10 11  1  0
 10 12  1  0
 13 14  1  0
 14 15  1  0
 15 16  2  0
 17 18  1  0
 18 19  1  0
 19 20  1  0
M  END
