
     RDKit          3D

 20 21  0  0  0  0  0  0  0  0999 V2000
   -6.0360   -1.0510    0.2540 O   0  0  0  0  0  0  0  0  0  0  0  0
   -5.0670   -0.2440    0.4390 C   0  0  0  0  0  0  0  0  0  0  0  0
   -4.3030   -0.1320    1.6250 N   0  0  0  0  0  0  0  0  0  0  0  0
   -3.3410    0.9400    1.3970 C   0  0  0  0  0  0  0  0  0  0  0  0
   -3.3630    1.1530   -0.1110 C   0  0  1  0  0  0  0  0  0  0  0  0
   -2.3010    0.3510   -0.7600 C   0  0  0  0  0  0  0  0  0  0  0  0
   -2.6070   -0.5920   -1.5280 O   0  0  0  0  0  0  0  0  0  0  0  0
   -0.9490    0.5880   -0.5610 O   0  0  0  0  0  0  0  0  0  0  0  0
    0.0680   -0.1650   -1.1690 C   0  0  1  0  0  0  0  0  0  0  0  0
    1.0810    0.6370   -1.8600 C   0  0  0  0  0  0  0  0  0  0  0  0
    0.8610    1.5170   -2.6660 O   0  0  0  0  0  0  0  0  0  0  0  0
    2.4210    0.1820   -1.4000 C   0  0  0  0  0  0  0  0  0  0  0  0
    2.1780   -0.7230   -0.3040 N   0  0  0  0  0  0  0  0  0  0  0  0
    3.1910   -1.3930    0.4680 C   0  0  0  0  0  0  0  0  0  0  0  0
    3.7260   -0.4150    1.9400 P   0  0  0  0  0  0  0  0  0  0  0  0
    5.3760   -0.8210    2.3620 O   0  0  0  0  0  0  0  0  0  0  0  0
    3.5670    1.2880    1.6950 O   0  0  0  0  0  0  0  0  0  0  0  0
    0.7900   -0.8820   -0.0690 C   0  0  0  0  0  0  0  0  0  0  0  0
    0.2230   -1.4970    0.8670 O   0  0  0  0  0  0  0  0  0  0  0  0
   -4.6050    0.6670   -0.5120 O   0  0  0  0  0  0  0  0  0  0  0  0
  1  2  2  0
  2  3  1  0
  2 20  1  0
  3  4  1  0
  4  5  1  0
  5  6  1  6
  5 20  1  0
  6  7  2  0
  6  8  1  0
  9  8  1  1
  9 10  1  0
  9 18  1  0
 10 11  2  0
 10 12  1  0
 12 13  1  0
 13 14  1  0
 13 18  1  0
 14 15  1  0
 15 16  1  0
 15 17  1  0
 18 19  2  0
M  END
