
     RDKit          3D

 21 21  0  0  0  0  0  0  0  0999 V2000
    0.2480   -0.2110    1.4720 O   0  0  0  0  0  0  0  0  0  0  0  0
    0.7570   -0.2540    0.3270 C   0  0  0  0  0  0  0  0  0  0  0  0
    2.1660   -0.1900    0.2210 N   0  0  0  0  0  0  0  0  0  0  0  0
    2.9670   -0.0800    1.4280 C   0  0  0  0  0  0  0  0  0  0  0  0
    4.4250   -0.0270    1.1010 C   0  0  0  0  0  0  0  0  0  0  0  0
    4.6420    1.0930    0.2900 O   0  0  0  0  0  0  0  0  0  0  0  0
    6.3260    1.1690   -0.0990 P   0  0  0  0  0  0  0  0  0  0  0  0
    6.8850   -0.4390   -0.4430 O   0  0  0  0  0  0  0  0  0  0  0  0
    6.5450    2.1770   -1.4900 O   0  0  0  0  0  0  0  0  0  0  0  0
   -0.1130   -0.3610   -0.7770 N   0  0  0  0  0  0  0  0  0  0  0  0
   -1.5430   -0.4220   -0.6030 C   0  0  2  0  0  0  0  0  0  0  0  0
   -2.1500   -1.6030   -1.2990 C   0  0  0  0  0  0  0  0  0  0  0  0
   -3.4800   -1.7460   -1.1780 O   0  0  0  0  0  0  0  0  0  0  0  0
   -4.1110   -1.2130   -0.1110 C   0  0  0  0  0  0  0  0  0  0  0  0
   -4.5380    0.2340   -0.2960 C   0  0  1  0  0  0  0  0  0  0  0  0
   -5.5210    0.3840   -1.2440 O   0  0  0  0  0  0  0  0  0  0  0  0
   -5.1070    0.6180    0.9420 O   0  0  0  0  0  0  0  0  0  0  0  0
   -4.1290    0.4650    1.8380 O   0  0  0  0  0  0  0  0  0  0  0  0
   -3.3900    1.1270   -0.5270 C   0  0  0  0  0  0  0  0  0  0  0  0
   -3.5250    2.2550   -0.0850 O   0  0  0  0  0  0  0  0  0  0  0  0
   -2.0950    0.8760   -1.2100 C   0  0  0  0  0  0  0  0  0  0  0  0
  1  2  2  0
  2  3  1  0
  2 10  1  0
  3  4  1  0
  4  5  1  0
  5  6  1  0
  6  7  1  0
  7  8  1  0
  7  9  1  0
 11 10  1  6
 11 12  1  0
 11 21  1  0
 12 13  1  0
 13 14  1  0
 14 15  1  0
 15 16  1  6
 15 17  1  0
 15 19  1  0
 17 18  1  0
 19 20  2  0
 19 21  1  0
M  END
