
     RDKit          3D

 21 22  0  0  0  0  0  0  0  0999 V2000
    1.1590   -1.4510   -0.3740 O   0  0  0  0  0  0  0  0  0  0  0  0
    0.7190   -0.5500    0.3750 C   0  0  0  0  0  0  0  0  0  0  0  0
    1.4320   -0.2180    1.4950 O   0  0  0  0  0  0  0  0  0  0  0  0
    2.6400   -0.7490    1.9520 C   0  0  0  0  0  0  0  0  0  0  0  0
    3.8290   -0.5670    1.0840 C   0  0  0  0  0  0  0  0  0  0  0  0
    3.6710   -1.1470   -0.1590 O   0  0  0  0  0  0  0  0  0  0  0  0
    5.0920   -0.8820   -1.0820 P   0  0  0  0  0  0  0  0  0  0  0  0
    4.8700    0.5100   -2.0950 O   0  0  0  0  0  0  0  0  0  0  0  0
    6.4060   -0.5640   -0.0080 O   0  0  0  0  0  0  0  0  0  0  0  0
   -0.5170    0.0970    0.0270 N   0  0  0  0  0  0  0  0  0  0  0  0
   -1.0800    1.1470    0.8520 C   0  0  0  0  0  0  0  0  0  0  0  0
   -2.4300    0.7260    1.3500 C   0  0  0  0  0  0  0  0  0  0  0  0
   -3.1470   -0.1790    0.3630 C   0  0  1  0  0  0  0  0  0  0  0  0
   -4.4880   -0.0990    0.5700 O   0  0  0  0  0  0  0  0  0  0  0  0
   -5.2630   -0.0480   -0.4520 O   0  0  0  0  0  0  0  0  0  0  0  0
   -4.8900   -0.8040   -1.5030 N   0  0  0  0  0  0  0  0  0  0  0  0
   -3.5510   -0.6080   -1.9660 C   0  0  0  0  0  0  0  0  0  0  0  0
   -3.1650   -1.0360   -3.0760 O   0  0  0  0  0  0  0  0  0  0  0  0
   -2.6720    0.1390   -1.0220 C   0  0  1  0  0  0  0  0  0  0  0  0
   -2.8300    1.4910   -1.3160 O   0  0  0  0  0  0  0  0  0  0  0  0
   -1.2330   -0.2830   -1.1570 C   0  0  0  0  0  0  0  0  0  0  0  0
  1  2  2  0
  2  3  1  0
  2 10  1  0
  3  4  1  0
  4  5  1  0
  5  6  1  0
  6  7  1  0
  7  8  1  0
  7  9  1  0
 10 11  1  0
 10 21  1  0
 11 12  1  0
 13 12  1  1
 13 14  1  0
 13 19  1  0
 14 15  1  0
 15 16  1  0
 16 17  1  0
 17 18  2  0
 17 19  1  0
 19 20  1  6
 19 21  1  0
M  END
