
     RDKit          3D

 41 45  0  0  0  0  0  0  0  0999 V2000
   -0.5560    3.5090    3.0780 C   0  0  0  0  0  0  0  0  0  0  0  0
   -1.0030    2.7040    2.0310 O   0  0  0  0  0  0  0  0  0  0  0  0
   -0.2880    1.6270    1.5350 C   0  0  0  0  0  0  0  0  0  0  0  0
    0.9530    1.3440    2.1300 C   0  0  0  0  0  0  0  0  0  0  0  0
    1.7090    0.2890    1.6820 C   0  0  0  0  0  0  0  0  0  0  0  0
    1.2520   -0.4960    0.6490 C   0  0  0  0  0  0  0  0  0  0  0  0
    2.0680   -1.6460    0.1490 C   0  0  0  0  0  0  0  0  0  0  0  0
    2.7170   -1.2390   -1.0810 N   0  0  0  0  0  0  0  0  0  0  0  0
    3.8580   -0.3950   -1.1410 C   0  0  0  0  0  0  0  0  0  0  0  0
    4.3310    0.0230   -0.0560 O   0  0  0  0  0  0  0  0  0  0  0  0
    4.4940    0.0000   -2.4270 C   0  0  0  0  0  0  0  0  0  0  0  0
    5.7650   -1.1790   -2.9540 S   0  0  0  0  0  0  0  0  0  0  0  0
    7.1500   -1.2060   -1.8650 C   0  0  0  0  0  0  0  0  0  0  0  0
    8.2710   -0.4090   -1.9880 C   0  0  0  0  0  0  0  0  0  0  0  0
    9.3160   -0.4830   -1.1010 C   0  0  0  0  0  0  0  0  0  0  0  0
    9.2620   -1.3700   -0.0550 C   0  0  0  0  0  0  0  0  0  0  0  0
    8.1570   -2.1870    0.1040 C   0  0  0  0  0  0  0  0  0  0  0  0
    7.1290   -2.0950   -0.7920 C   0  0  0  0  0  0  0  0  0  0  0  0
    0.0360   -0.1930    0.0900 C   0  0  0  0  0  0  0  0  0  0  0  0
   -0.7750    0.8710    0.5080 C   0  0  0  0  0  0  0  0  0  0  0  0
   -1.9830    1.1170   -0.0960 O   0  0  0  0  0  0  0  0  0  0  0  0
   -3.2310    1.1400    0.4420 C   0  0  0  0  0  0  0  0  0  0  0  0
   -3.8480   -0.1070    0.6230 C   0  0  0  0  0  0  0  0  0  0  0  0
   -3.1960   -1.3310    0.2640 N   0  0  0  0  0  0  0  0  0  0  0  0
   -3.3570   -1.8510   -1.0340 C   0  0  0  0  0  0  0  0  0  0  0  0
   -4.1080   -1.2260   -1.9480 N   0  0  0  0  0  0  0  0  0  0  0  0
   -4.2650   -1.7230   -3.2020 C   0  0  0  0  0  0  0  0  0  0  0  0
   -3.6590   -2.8940   -3.5920 C   0  0  0  0  0  0  0  0  0  0  0  0
   -2.8810   -3.5590   -2.6720 C   0  0  0  0  0  0  0  0  0  0  0  0
   -2.7350   -3.0230   -1.3840 C   0  0  0  0  0  0  0  0  0  0  0  0
   -1.9260   -3.7090   -0.4180 C   0  0  0  0  0  0  0  0  0  0  0  0
   -2.4530   -5.0760    0.2870 S   0  0  0  0  0  0  0  0  0  0  0  0
   -5.1100   -0.1370    1.1620 C   0  0  0  0  0  0  0  0  0  0  0  0
   -5.7580   -1.4700    1.3500 C   0  0  0  0  0  0  0  0  0  0  0  0
   -5.7430    1.0120    1.5090 N   0  0  0  0  0  0  0  0  0  0  0  0
   -5.1580    2.2140    1.3380 C   0  0  0  0  0  0  0  0  0  0  0  0
   -5.6120    3.5060    1.6160 C   0  0  0  0  0  0  0  0  0  0  0  0
   -4.5640    4.3160    1.2190 C   0  0  0  0  0  0  0  0  0  0  0  0
   -4.6050    5.8050    1.3330 C   0  0  0  0  0  0  0  0  0  0  0  0
   -3.5870    3.5780    0.7530 O   0  0  0  0  0  0  0  0  0  0  0  0
   -3.8870    2.3030    0.8000 C   0  0  0  0  0  0  0  0  0  0  0  0
  1  2  1  0
  2  3  1  0
  3  4  2  0
  3 20  1  0
  4  5  1  0
  5  6  2  0
  6  7  1  0
  6 19  1  0
  7  8  1  0
  8  9  1  0
  9 10  2  0
  9 11  1  0
 11 12  1  0
 12 13  1  0
 13 14  2  0
 13 18  1  0
 14 15  1  0
 15 16  2  0
 16 17  1  0
 17 18  2  0
 19 20  2  0
 20 21  1  0
 21 22  1  0
 22 23  1  0
 22 41  2  0
 23 24  1  0
 23 33  2  0
 24 25  1  0
 25 26  2  0
 25 30  1  0
 26 27  1  0
 27 28  2  0
 28 29  1  0
 29 30  2  0
 30 31  1  0
 31 32  2  0
 33 34  1  0
 33 35  1  0
 35 36  2  0
 36 37  1  0
 36 41  1  0
 37 38  2  0
 38 39  1  0
 38 40  1  0
 40 41  1  0
M  END
