
     RDKit          3D

 41 45  0  0  0  0  0  0  0  0999 V2000
   -5.7990    6.1930    2.0010 C   0  0  0  0  0  0  0  0  0  0  0  0
   -5.3520    4.7430    1.8610 C   0  0  0  0  0  0  0  0  0  0  0  0
   -4.0630    4.7010    1.2390 N   0  0  0  0  0  0  0  0  0  0  0  0
   -3.3640    3.4950    1.0110 C   0  0  0  0  0  0  0  0  0  0  0  0
   -2.1070    3.5720    0.4000 C   0  0  0  0  0  0  0  0  0  0  0  0
   -1.3920    2.4300    0.1660 C   0  0  0  0  0  0  0  0  0  0  0  0
   -1.8640    1.1820    0.5110 C   0  0  0  0  0  0  0  0  0  0  0  0
   -1.0330    0.0120    0.2170 N   0  0  0  0  0  0  0  0  0  0  0  0
   -1.1840   -0.5560   -1.0970 C   0  0  0  0  0  0  0  0  0  0  0  0
   -2.5870   -1.0500   -1.3100 C   0  0  0  0  0  0  0  0  0  0  0  0
   -3.4630   -0.2530   -2.0090 C   0  0  0  0  0  0  0  0  0  0  0  0
   -4.7530   -0.6220   -2.2590 C   0  0  0  0  0  0  0  0  0  0  0  0
   -5.1730   -1.8450   -1.7830 C   0  0  0  0  0  0  0  0  0  0  0  0
   -6.4920   -2.2960   -2.0000 O   0  0  0  0  0  0  0  0  0  0  0  0
   -4.3320   -2.6860   -1.0720 C   0  0  0  0  0  0  0  0  0  0  0  0
   -4.8170   -3.8880   -0.6280 O   0  0  0  0  0  0  0  0  0  0  0  0
   -4.1390   -4.8700    0.1000 C   0  0  0  0  0  0  0  0  0  0  0  0
   -5.0450   -6.0560    0.3940 C   0  0  0  0  0  0  0  0  0  0  0  0
   -3.0170   -2.2590   -0.8420 C   0  0  0  0  0  0  0  0  0  0  0  0
    0.0540   -0.5320    1.3830 S   0  0  2  0  0  0  0  0  0  0  0  0
   -0.3120   -1.9890    1.7170 O   0  0  0  0  0  0  0  0  0  0  0  0
   -0.3070    0.1930    2.6880 O   0  0  0  0  0  0  0  0  0  0  0  0
    1.7390   -0.3900    1.0810 C   0  0  0  0  0  0  0  0  0  0  0  0
    2.5930    0.3360    1.9680 C   0  0  0  0  0  0  0  0  0  0  0  0
    3.8640    0.2690    1.4730 C   0  0  0  0  0  0  0  0  0  0  0  0
    5.0700    0.9100    2.1110 C   0  0  0  0  0  0  0  0  0  0  0  0
    3.8610   -0.4520    0.3330 N   0  0  0  0  0  0  0  0  0  0  0  0
    5.0440   -0.6830   -0.4370 C   0  0  0  0  0  0  0  0  0  0  0  0
    5.4960   -1.9080   -0.8350 C   0  0  0  0  0  0  0  0  0  0  0  0
    6.6570   -2.0330   -1.5810 C   0  0  0  0  0  0  0  0  0  0  0  0
    7.4150   -0.9270   -1.9590 C   0  0  0  0  0  0  0  0  0  0  0  0
    6.9770    0.3140   -1.5660 C   0  0  0  0  0  0  0  0  0  0  0  0
    5.8180    0.4230   -0.8250 C   0  0  0  0  0  0  0  0  0  0  0  0
    7.6320    1.4400   -1.8280 C   0  0  0  0  0  0  0  0  0  0  0  0
    9.1560    1.3710   -2.7280 S   0  0  0  0  0  0  0  0  0  0  0  0
    9.4310   -0.3510   -3.2060 C   0  0  0  0  0  0  0  0  0  0  0  0
    8.4380   -1.1920   -2.6470 N   0  0  0  0  0  0  0  0  0  0  0  0
    2.5890   -0.8380    0.1120 C   0  0  0  0  0  0  0  0  0  0  0  0
    2.2050   -1.6460   -1.0620 C   0  0  0  0  0  0  0  0  0  0  0  0
   -3.0930    1.0870    1.1090 C   0  0  0  0  0  0  0  0  0  0  0  0
   -3.8270    2.2470    1.3520 C   0  0  0  0  0  0  0  0  0  0  0  0
  1  2  1  0
  2  3  1  0
  3  4  1  0
  4  5  2  0
  4 41  1  0
  5  6  1  0
  6  7  2  0
  7  8  1  0
  7 40  1  0
  8  9  1  0
 20  8  1  6
  9 10  1  0
 10 11  2  0
 10 19  1  0
 11 12  1  0
 12 13  2  0
 13 14  1  0
 13 15  1  0
 15 16  1  0
 15 19  2  0
 16 17  1  0
 17 18  1  0
 20 21  2  0
 20 22  2  0
 20 23  1  0
 23 24  1  0
 23 38  2  0
 24 25  2  0
 25 26  1  0
 25 27  1  0
 27 28  1  0
 27 38  1  0
 28 29  1  0
 28 33  2  0
 29 30  2  0
 30 31  1  0
 31 32  1  0
 31 37  2  0
 32 33  1  0
 32 34  2  0
 34 35  1  0
 35 36  1  0
 36 37  1  0
 38 39  1  0
 40 41  2  0
M  END
