
     RDKit          3D

 41 45  0  0  0  0  0  0  0  0999 V2000
   -4.3090   -0.3420   -1.9390 C   0  0  0  0  0  0  0  0  0  0  0  0
   -5.3960    0.1960   -1.4110 C   0  0  0  0  0  0  0  0  0  0  0  0
   -5.8930   -0.2390   -0.1010 C   0  0  0  0  0  0  0  0  0  0  0  0
   -4.9790   -1.3220    0.4760 C   0  0  0  0  0  0  0  0  0  0  0  0
   -5.3280   -2.6180    0.4540 C   0  0  0  0  0  0  0  0  0  0  0  0
   -4.4570   -3.5420    0.9820 C   0  0  0  0  0  0  0  0  0  0  0  0
   -4.5910   -5.0340    1.0880 C   0  0  0  0  0  0  0  0  0  0  0  0
   -3.1130   -2.5400    1.5210 S   0  0  0  0  0  0  0  0  0  0  0  0
   -3.7870   -0.9660    1.0140 C   0  0  0  0  0  0  0  0  0  0  0  0
   -3.0890    0.2940    1.2170 C   0  0  0  0  0  0  0  0  0  0  0  0
   -3.4120    1.5800    0.9510 C   0  0  0  0  0  0  0  0  0  0  0  0
   -2.3620    2.3950    1.3570 C   0  0  0  0  0  0  0  0  0  0  0  0
   -1.4260    1.5400    1.8640 C   0  0  0  0  0  0  0  0  0  0  0  0
   -0.1110    1.9750    2.4270 C   0  0  0  0  0  0  0  0  0  0  0  0
    0.9580    1.9670    1.4650 N   0  0  0  0  0  0  0  0  0  0  0  0
    1.2910    3.1530    0.7130 C   0  0  0  0  0  0  0  0  0  0  0  0
    0.5910    3.1690   -0.5790 C   0  0  0  0  0  0  0  0  0  0  0  0
   -0.1690    2.2550   -0.9580 O   0  0  0  0  0  0  0  0  0  0  0  0
    0.7670    4.2750   -1.4720 N   0  0  0  0  0  0  0  0  0  0  0  0
    0.1110    4.3650   -2.7600 C   0  0  0  0  0  0  0  0  0  0  0  0
    0.4750    5.6290   -3.4470 C   0  0  0  0  0  0  0  0  0  0  0  0
    1.3570    6.0380   -4.2620 N   0  0  0  0  0  0  0  0  0  0  0  0
    1.4490    7.2430   -4.7130 C   0  0  0  0  0  0  0  0  0  0  0  0
    0.5570    8.1830   -4.3150 C   0  0  0  0  0  0  0  0  0  0  0  0
   -0.4830    7.1540   -3.1830 S   0  0  0  0  0  0  0  0  0  0  0  0
    1.7800    0.7930    1.2170 C   0  0  0  0  0  0  0  0  0  0  0  0
    2.7100    0.8830    0.3820 O   0  0  0  0  0  0  0  0  0  0  0  0
    1.5150   -0.4310    1.9220 C   0  0  0  0  0  0  0  0  0  0  0  0
    2.0120   -1.6010    1.8870 C   0  0  0  0  0  0  0  0  0  0  0  0
    1.3890   -2.6130    2.8810 C   0  0  0  0  0  0  0  0  0  0  0  0
    2.9380   -2.2030    0.9660 C   0  0  0  0  0  0  0  0  0  0  0  0
    3.1960   -1.8400   -0.3180 C   0  0  0  0  0  0  0  0  0  0  0  0
    4.1940   -2.4310   -1.0660 C   0  0  0  0  0  0  0  0  0  0  0  0
    4.9540   -3.4310   -0.4890 C   0  0  0  0  0  0  0  0  0  0  0  0
    4.7190   -3.8260    0.8080 C   0  0  0  0  0  0  0  0  0  0  0  0
    3.7320   -3.2290    1.5260 C   0  0  0  0  0  0  0  0  0  0  0  0
    5.5030   -4.8320    1.3470 O   0  0  0  0  0  0  0  0  0  0  0  0
    6.5130   -5.4860    0.6380 C   0  0  0  0  0  0  0  0  0  0  0  0
    6.6830   -4.9860   -0.7350 C   0  0  0  0  0  0  0  0  0  0  0  0
    5.9730   -4.0600   -1.2270 N   0  0  0  0  0  0  0  0  0  0  0  0
   -1.8700    0.3230    1.7720 O   0  0  0  0  0  0  0  0  0  0  0  0
  1  2  2  0
  2  3  1  0
  3  4  1  0
  4  5  1  0
  4  9  2  0
  5  6  2  0
  6  7  1  0
  6  8  1  0
  8  9  1  0
  9 10  1  0
 10 11  2  0
 10 41  1  0
 11 12  1  0
 12 13  2  0
 13 14  1  0
 13 41  1  0
 14 15  1  0
 15 16  1  0
 15 26  1  0
 16 17  1  0
 17 18  2  0
 17 19  1  0
 19 20  1  0
 20 21  1  0
 21 22  2  0
 21 25  1  0
 22 23  1  0
 23 24  2  0
 24 25  1  0
 26 27  2  0
 26 28  1  0
 28 29  2  3
 29 30  1  0
 29 31  1  0
 31 32  2  0
 31 36  1  0
 32 33  1  0
 33 34  2  0
 34 35  1  0
 34 40  1  0
 35 36  2  0
 35 37  1  0
 37 38  1  0
 38 39  1  0
 39 40  2  0
M  END
