
     RDKit          3D

 41 45  0  0  0  0  0  0  0  0999 V2000
   -7.4790    2.3040   -0.9740 C   0  0  0  0  0  0  0  0  0  0  0  0
   -7.4910    2.2490    0.5440 C   0  0  0  0  0  0  0  0  0  0  0  0
   -8.2410    1.1130    0.9970 N   0  0  0  0  0  0  0  0  0  0  0  0
   -7.8800   -0.2260    0.7310 C   0  0  0  0  0  0  0  0  0  0  0  0
   -6.7620   -0.6270    0.0370 C   0  0  0  0  0  0  0  0  0  0  0  0
   -6.7790   -2.0230   -0.0040 C   0  0  0  0  0  0  0  0  0  0  0  0
   -5.7440   -2.8970   -0.6610 C   0  0  1  0  0  0  0  0  0  0  0  0
   -5.5160   -2.4950   -2.0770 C   0  0  0  0  0  0  0  0  0  0  0  0
   -4.2570   -2.9860    0.3530 S   0  0  0  0  0  0  0  0  0  0  0  0
   -3.4790   -1.3970    0.4260 C   0  0  0  0  0  0  0  0  0  0  0  0
   -3.8740   -0.4590    1.3450 N   0  0  0  0  0  0  0  0  0  0  0  0
   -3.2610    0.7310    1.4120 C   0  0  0  0  0  0  0  0  0  0  0  0
   -3.6670    1.7760    2.3950 C   0  0  0  0  0  0  0  0  0  0  0  0
   -2.2230    1.0380    0.5620 C   0  0  0  0  0  0  0  0  0  0  0  0
   -1.7860    0.1340   -0.3780 C   0  0  0  0  0  0  0  0  0  0  0  0
   -2.4480   -1.0970   -0.4190 C   0  0  0  0  0  0  0  0  0  0  0  0
   -1.9680   -2.0970   -1.3940 C   0  0  0  0  0  0  0  0  0  0  0  0
   -1.1230   -3.1070   -0.6430 C   0  0  0  0  0  0  0  0  0  0  0  0
    0.0450   -2.5400   -0.0110 N   0  0  0  0  0  0  0  0  0  0  0  0
    1.0770   -1.8960   -0.7170 C   0  0  0  0  0  0  0  0  0  0  0  0
    0.9790   -1.7990   -1.9740 O   0  0  0  0  0  0  0  0  0  0  0  0
    2.2490   -1.3440   -0.0380 C   0  0  0  0  0  0  0  0  0  0  0  0
    2.6110   -1.3090    1.2370 C   0  0  0  0  0  0  0  0  0  0  0  0
    3.7750   -0.7360    1.5930 C   0  0  0  0  0  0  0  0  0  0  0  0
    4.5610   -0.1990    0.6150 C   0  0  0  0  0  0  0  0  0  0  0  0
    5.8800    0.3580    0.6620 C   0  0  0  0  0  0  0  0  0  0  0  0
    6.6070    0.1720    1.7590 C   0  0  0  0  0  0  0  0  0  0  0  0
    7.9700    0.6170    2.0710 C   0  0  0  0  0  0  0  0  0  0  0  0
    8.9100    0.9110    1.1920 C   0  0  0  0  0  0  0  0  0  0  0  0
   10.2400    1.3410    1.6760 C   0  0  0  0  0  0  0  0  0  0  0  0
   11.1950    0.4200    1.1900 O   0  0  0  0  0  0  0  0  0  0  0  0
    8.7970    0.8640   -0.2280 O   0  0  0  0  0  0  0  0  0  0  0  0
    7.6410    1.3460   -0.9070 C   0  0  0  0  0  0  0  0  0  0  0  0
    7.8980    2.0700   -2.0360 C   0  0  0  0  0  0  0  0  0  0  0  0
    6.8540    2.6050   -2.7790 C   0  0  0  0  0  0  0  0  0  0  0  0
    5.5650    2.4050   -2.3760 C   0  0  0  0  0  0  0  0  0  0  0  0
    5.2950    1.6680   -1.2270 C   0  0  0  0  0  0  0  0  0  0  0  0
    6.3210    1.1290   -0.4830 C   0  0  0  0  0  0  0  0  0  0  0  0
    3.5570   -0.5490   -0.8540 S   0  0  0  0  0  0  0  0  0  0  0  0
   -7.8920   -2.3650    0.6590 N   0  0  0  0  0  0  0  0  0  0  0  0
   -8.5250   -1.3080    1.0830 O   0  0  0  0  0  0  0  0  0  0  0  0
  1  2  1  0
  2  3  1  0
  3  4  1  0
  4  5  2  0
  4 41  1  0
  5  6  1  0
  6  7  1  0
  6 40  2  0
  7  8  1  6
  7  9  1  0
  9 10  1  0
 10 11  2  0
 10 16  1  0
 11 12  1  0
 12 13  1  0
 12 14  2  0
 14 15  1  0
 15 16  2  0
 16 17  1  0
 17 18  1  0
 18 19  1  0
 19 20  1  0
 20 21  2  0
 20 22  1  0
 22 23  2  0
 22 39  1  0
 23 24  1  0
 24 25  2  0
 25 26  1  0
 25 39  1  0
 26 27  2  0
 26 38  1  0
 27 28  1  0
 28 29  2  0
 29 30  1  0
 29 32  1  0
 30 31  1  0
 32 33  1  0
 33 34  2  0
 33 38  1  0
 34 35  1  0
 35 36  2  0
 36 37  1  0
 37 38  2  0
 40 41  1  0
M  END
