
     RDKit          3D

 41 45  0  0  0  0  0  0  0  0999 V2000
    7.6310    4.4320   -0.5120 C   0  0  0  0  0  0  0  0  0  0  0  0
    7.6860    3.2500   -1.4700 C   0  0  0  0  0  0  0  0  0  0  0  0
    6.6390    2.3180   -1.0890 N   0  0  0  0  0  0  0  0  0  0  0  0
    6.7590    1.2390   -0.1650 C   0  0  0  0  0  0  0  0  0  0  0  0
    5.3960    0.5980   -0.1380 C   0  0  0  0  0  0  0  0  0  0  0  0
    4.5980    1.2280   -0.9420 C   0  0  0  0  0  0  0  0  0  0  0  0
    3.1760    0.9370   -1.2250 C   0  0  0  0  0  0  0  0  0  0  0  0
    2.1740    1.9840   -2.2690 S   0  0  0  0  0  0  0  0  0  0  0  0
    0.6710    0.9990   -2.1000 C   0  0  0  0  0  0  0  0  0  0  0  0
   -0.6170    1.2950   -2.7470 C   0  0  0  0  0  0  0  0  0  0  0  0
   -1.5860    2.3680   -1.7000 S   0  0  0  0  0  0  0  0  0  0  0  0
   -2.1010    1.6190   -0.1660 C   0  0  0  0  0  0  0  0  0  0  0  0
   -1.4290    1.6490    0.9840 N   0  0  0  0  0  0  0  0  0  0  0  0
   -2.1040    0.9830    1.9350 C   0  0  0  0  0  0  0  0  0  0  0  0
   -3.2850    0.4940    1.3510 C   0  0  0  0  0  0  0  0  0  0  0  0
   -4.2670   -0.2450    2.1130 C   0  0  0  0  0  0  0  0  0  0  0  0
   -4.1580   -0.3080    3.5050 C   0  0  0  0  0  0  0  0  0  0  0  0
   -5.0180   -1.0140    4.3110 C   0  0  0  0  0  0  0  0  0  0  0  0
   -6.0660   -1.7180    3.7570 C   0  0  0  0  0  0  0  0  0  0  0  0
   -6.2090   -1.6840    2.4000 C   0  0  0  0  0  0  0  0  0  0  0  0
   -5.3130   -0.9520    1.5880 C   0  0  0  0  0  0  0  0  0  0  0  0
   -3.2370    0.9050    0.0850 N   0  0  0  0  0  0  0  0  0  0  0  0
   -4.2080    0.7100   -0.9630 C   0  0  0  0  0  0  0  0  0  0  0  0
   -3.9810   -0.5390   -1.7360 C   0  0  0  0  0  0  0  0  0  0  0  0
   -3.0230   -1.3230   -1.4560 O   0  0  0  0  0  0  0  0  0  0  0  0
   -4.8780   -0.8650   -2.8360 C   0  0  0  0  0  0  0  0  0  0  0  0
   -5.9510   -0.1290   -3.2650 C   0  0  0  0  0  0  0  0  0  0  0  0
   -6.5320   -0.7980   -4.3380 C   0  0  0  0  0  0  0  0  0  0  0  0
   -5.8300   -1.9160   -4.5600 N   0  0  0  0  0  0  0  0  0  0  0  0
   -4.8260   -1.9830   -3.6690 C   0  0  0  0  0  0  0  0  0  0  0  0
    1.0640   -0.0130   -1.2830 C   0  0  0  0  0  0  0  0  0  0  0  0
    2.3440   -0.0310   -0.8470 C   0  0  0  0  0  0  0  0  0  0  0  0
    2.8250   -1.1760   -0.0040 C   0  0  0  0  0  0  0  0  0  0  0  0
    2.1850   -1.5620    1.0610 C   0  0  0  0  0  0  0  0  0  0  0  0
    0.9290   -0.9220    1.5540 C   0  0  0  0  0  0  0  0  0  0  0  0
    2.7310   -2.6960    1.8210 C   0  0  0  0  0  0  0  0  0  0  0  0
    3.7820   -3.2740    1.4560 O   0  0  0  0  0  0  0  0  0  0  0  0
    2.1040   -3.1590    2.9610 O   0  0  0  0  0  0  0  0  0  0  0  0
    2.6410   -4.2390    3.6700 C   0  0  0  0  0  0  0  0  0  0  0  0
    5.3130    2.3290   -1.5800 C   0  0  0  0  0  0  0  0  0  0  0  0
    4.8910    3.1820   -2.4280 O   0  0  0  0  0  0  0  0  0  0  0  0
  1  2  1  0
  2  3  1  0
  3  4  1  0
  3 40  1  0
  4  5  1  0
  5  6  2  0
  6  7  1  0
  6 40  1  0
  7  8  1  0
  7 32  2  0
  8  9  1  0
  9 10  1  0
  9 31  2  0
 10 11  1  0
 11 12  1  0
 12 13  2  0
 12 22  1  0
 13 14  1  0
 14 15  2  0
 15 16  1  0
 15 22  1  0
 16 17  2  0
 16 21  1  0
 17 18  1  0
 18 19  2  0
 19 20  1  0
 20 21  2  0
 22 23  1  0
 23 24  1  0
 24 25  2  0
 24 26  1  0
 26 27  1  0
 26 30  2  0
 27 28  2  0
 28 29  1  0
 29 30  1  0
 31 32  1  0
 32 33  1  0
 33 34  2  3
 34 35  1  0
 34 36  1  0
 36 37  2  0
 36 38  1  0
 38 39  1  0
 40 41  2  0
M  END
