
     RDKit          3D

 41 45  0  0  0  0  0  0  0  0999 V2000
   -7.5610   -5.2720    2.4430 C   0  0  0  0  0  0  0  0  0  0  0  0
   -7.5700   -4.3590    1.3730 O   0  0  0  0  0  0  0  0  0  0  0  0
   -6.4650   -3.6750    0.9350 C   0  0  0  0  0  0  0  0  0  0  0  0
   -5.2490   -3.8680    1.5580 C   0  0  0  0  0  0  0  0  0  0  0  0
   -4.1290   -3.1610    1.0980 C   0  0  0  0  0  0  0  0  0  0  0  0
   -4.2650   -2.2970    0.0430 C   0  0  0  0  0  0  0  0  0  0  0  0
   -2.9330   -1.3640   -0.6130 S   0  0  0  0  0  0  0  0  0  0  0  0
   -1.3760   -1.6330    0.2100 C   0  0  0  0  0  0  0  0  0  0  0  0
   -1.0880   -2.4260    1.2310 N   0  0  0  0  0  0  0  0  0  0  0  0
    0.1860   -2.3360    1.5420 N   0  0  0  0  0  0  0  0  0  0  0  0
    0.7590   -1.4580    0.7030 C   0  0  0  0  0  0  0  0  0  0  0  0
    2.4900   -0.9490    0.6750 S   0  0  0  0  0  0  0  0  0  0  0  0
    3.4390   -2.0590   -0.4190 C   0  0  0  0  0  0  0  0  0  0  0  0
    4.8570   -1.6140   -0.4190 C   0  0  0  0  0  0  0  0  0  0  0  0
    5.6980   -2.2540   -1.1200 O   0  0  0  0  0  0  0  0  0  0  0  0
    5.3060   -0.4970    0.3410 N   0  0  0  0  0  0  0  0  0  0  0  0
    6.6900   -0.1060    0.3080 C   0  0  0  0  0  0  0  0  0  0  0  0
    7.4290   -0.0870    1.4230 C   0  0  0  0  0  0  0  0  0  0  0  0
    8.7920    0.3530    1.0590 C   0  0  0  0  0  0  0  0  0  0  0  0
    8.7230    0.5770   -0.3960 C   0  0  0  0  0  0  0  0  0  0  0  0
    7.4900    0.3060   -0.8270 C   0  0  0  0  0  0  0  0  0  0  0  0
   -0.1980   -1.0160   -0.1270 N   0  0  0  0  0  0  0  0  0  0  0  0
   -0.1030   -0.0860   -1.1820 C   0  0  0  0  0  0  0  0  0  0  0  0
    0.1780   -0.4710   -2.4490 C   0  0  0  0  0  0  0  0  0  0  0  0
    0.2740    0.4490   -3.4970 C   0  0  0  0  0  0  0  0  0  0  0  0
    0.0720    1.7790   -3.2140 C   0  0  0  0  0  0  0  0  0  0  0  0
   -0.2130    2.1480   -1.9230 C   0  0  0  0  0  0  0  0  0  0  0  0
   -0.3090    1.2640   -0.8820 C   0  0  0  0  0  0  0  0  0  0  0  0
   -0.7550    1.6460    0.4240 C   0  0  0  0  0  0  0  0  0  0  0  0
   -0.6840    2.6380    1.2180 C   0  0  0  0  0  0  0  0  0  0  0  0
   -0.1710    3.9320    1.4110 C   0  0  0  0  0  0  0  0  0  0  0  0
   -0.6640    4.5610    2.4890 O   0  0  0  0  0  0  0  0  0  0  0  0
    0.8060    4.7700    0.7420 C   0  0  0  0  0  0  0  0  0  0  0  0
    1.5680    4.4820   -0.2760 C   0  0  0  0  0  0  0  0  0  0  0  0
    2.4140    5.6280   -0.6470 C   0  0  0  0  0  0  0  0  0  0  0  0
    2.0320    6.6570    0.3200 C   0  0  0  0  0  0  0  0  0  0  0  0
    1.1100    6.1760    1.1230 C   0  0  0  0  0  0  0  0  0  0  0  0
   -5.5090   -2.1140   -0.5780 C   0  0  0  0  0  0  0  0  0  0  0  0
   -6.6070   -2.8040   -0.1310 C   0  0  0  0  0  0  0  0  0  0  0  0
   -7.8580   -2.6570   -0.7130 O   0  0  0  0  0  0  0  0  0  0  0  0
   -7.9910   -1.7630   -1.8020 C   0  0  0  0  0  0  0  0  0  0  0  0
  1  2  1  0
  2  3  1  0
  3  4  2  0
  3 39  1  0
  4  5  1  0
  5  6  2  0
  6  7  1  0
  6 38  1  0
  7  8  1  0
  8  9  2  0
  8 22  1  0
  9 10  1  0
 10 11  2  0
 11 12  1  0
 11 22  1  0
 12 13  1  0
 13 14  1  0
 14 15  2  0
 14 16  1  0
 16 17  1  0
 17 18  2  0
 17 21  1  0
 18 19  1  0
 19 20  1  0
 20 21  2  0
 22 23  1  0
 23 24  2  0
 23 28  1  0
 24 25  1  0
 25 26  2  0
 26 27  1  0
 27 28  2  0
 28 29  1  0
 29 30  2  3
 30 31  1  0
 31 32  2  0
 31 33  1  0
 33 34  2  0
 33 37  1  0
 34 35  1  0
 35 36  1  0
 36 37  2  0
 38 39  2  0
 39 40  1  0
 40 41  1  0
M  END
