
     RDKit          3D

 41 45  0  0  0  0  0  0  0  0999 V2000
    0.7950    3.1460   -0.4060 C   0  0  0  0  0  0  0  0  0  0  0  0
    2.1500    2.6030   -0.6490 C   0  0  0  0  0  0  0  0  0  0  0  0
    3.1910    3.3850   -1.0900 C   0  0  0  0  0  0  0  0  0  0  0  0
    4.4360    2.8350   -1.3030 C   0  0  0  0  0  0  0  0  0  0  0  0
    4.7020    1.5070   -1.0940 C   0  0  0  0  0  0  0  0  0  0  0  0
    6.0160    0.9170   -1.3180 C   0  0  0  0  0  0  0  0  0  0  0  0
    7.0800    1.5650   -1.7350 C   0  0  0  0  0  0  0  0  0  0  0  0
    8.1980    0.7200   -1.8530 N   0  0  0  0  0  0  0  0  0  0  0  0
    7.8740   -0.5170   -1.1600 C   0  0  0  0  0  0  0  0  0  0  0  0
    6.3560   -0.5110   -1.1080 C   0  0  0  0  0  0  0  0  0  0  0  0
    3.6320    0.7100   -0.6430 C   0  0  0  0  0  0  0  0  0  0  0  0
    2.3880    1.2360   -0.4250 C   0  0  0  0  0  0  0  0  0  0  0  0
    1.2540    0.4760    0.0350 N   0  0  0  0  0  0  0  0  0  0  0  0
    1.2550   -0.8860    0.3240 C   0  0  0  0  0  0  0  0  0  0  0  0
    2.4070   -1.5130    0.1910 O   0  0  0  0  0  0  0  0  0  0  0  0
    0.2020   -1.7830    0.7430 C   0  0  0  0  0  0  0  0  0  0  0  0
   -1.1620   -1.6110    0.9460 N   0  0  0  0  0  0  0  0  0  0  0  0
   -2.0470   -0.5860    0.5700 C   0  0  0  0  0  0  0  0  0  0  0  0
   -1.6230    0.3570   -0.0850 O   0  0  0  0  0  0  0  0  0  0  0  0
   -3.4900   -0.6300    0.9570 C   0  0  0  0  0  0  0  0  0  0  0  0
   -4.3680    0.3200    0.6230 C   0  0  0  0  0  0  0  0  0  0  0  0
   -4.1960    1.5780   -0.1550 C   0  0  0  0  0  0  0  0  0  0  0  0
   -5.4880    1.9440   -0.7990 C   0  0  2  0  0  0  0  0  0  0  0  0
   -5.7920    1.0390   -1.9610 C   0  0  0  0  0  0  0  0  0  0  0  0
   -5.3270    3.3580   -1.3690 C   0  0  0  0  0  0  0  0  0  0  0  0
   -6.6150    2.0130    0.1920 C   0  0  0  0  0  0  0  0  0  0  0  0
   -6.7170    0.7270    0.9730 C   0  0  0  0  0  0  0  0  0  0  0  0
   -8.2950    0.3270    1.6070 S   0  0  0  0  0  0  0  0  0  0  0  0
   -8.5030   -1.0580    2.4740 F   0  0  0  0  0  0  0  0  0  0  0  0
   -5.6630   -0.0350    1.1550 C   0  0  0  0  0  0  0  0  0  0  0  0
   -5.4570   -1.3260    1.8580 C   0  0  0  0  0  0  0  0  0  0  0  0
   -6.3160   -1.9830    2.4570 O   0  0  0  0  0  0  0  0  0  0  0  0
   -4.1090   -1.6060    1.6830 O   0  0  0  0  0  0  0  0  0  0  0  0
    0.6950   -2.9720    1.2230 C   0  0  0  0  0  0  0  0  0  0  0  0
   -0.2110   -3.9880    1.6770 C   0  0  0  0  0  0  0  0  0  0  0  0
    0.3330   -5.1300    2.1430 C   0  0  0  0  0  0  0  0  0  0  0  0
    1.7780   -5.3140    2.1780 C   0  0  0  0  0  0  0  0  0  0  0  0
    2.5830   -4.3540    1.7490 C   0  0  0  0  0  0  0  0  0  0  0  0
    4.0390   -4.5830    1.8030 C   0  0  0  0  0  0  0  0  0  0  0  0
    4.8020   -3.6740    1.3970 O   0  0  0  0  0  0  0  0  0  0  0  0
    2.0560   -3.1810    1.2710 O   0  0  0  0  0  0  0  0  0  0  0  0
  1  2  1  0
  2  3  2  0
  2 12  1  0
  3  4  1  0
  4  5  2  0
  5  6  1  0
  5 11  1  0
  6  7  2  0
  6 10  1  0
  7  8  1  0
  8  9  1  0
  9 10  1  0
 11 12  2  0
 12 13  1  0
 13 14  1  0
 14 15  2  0
 14 16  1  0
 16 17  1  0
 16 34  2  3
 17 18  1  0
 18 19  2  0
 18 20  1  0
 20 21  2  0
 20 33  1  0
 21 22  1  0
 21 30  1  0
 22 23  1  0
 23 24  1  6
 23 25  1  0
 23 26  1  0
 26 27  1  0
 27 28  1  0
 27 30  2  0
 28 29  1  0
 30 31  1  0
 31 32  2  0
 31 33  1  0
 34 35  1  0
 34 41  1  0
 35 36  2  0
 36 37  1  0
 37 38  2  0
 38 39  1  0
 38 41  1  0
 39 40  2  0
M  END
