
     RDKit          3D

 41 45  0  0  0  0  0  0  0  0999 V2000
   -6.7760    2.5770   -1.5770 C   0  0  0  0  0  0  0  0  0  0  0  0
   -7.4750    2.4490   -0.2880 C   0  0  0  0  0  0  0  0  0  0  0  0
   -8.7140    1.6720   -0.1880 C   0  0  0  0  0  0  0  0  0  0  0  0
   -8.9120    0.3160   -0.4710 C   0  0  0  0  0  0  0  0  0  0  0  0
  -10.1020   -0.3070   -1.6960 S   0  0  0  0  0  0  0  0  0  0  0  0
   -9.9930   -2.0860   -1.1810 C   0  0  0  0  0  0  0  0  0  0  0  0
  -10.8990   -3.0130   -1.9670 C   0  0  0  0  0  0  0  0  0  0  0  0
  -11.5520   -3.6570   -2.5150 N   0  0  0  0  0  0  0  0  0  0  0  0
   -9.1830   -1.9550   -0.2880 C   0  0  0  0  0  0  0  0  0  0  0  0
   -8.5510   -0.9370    0.2170 C   0  0  0  0  0  0  0  0  0  0  0  0
   -7.4860   -0.9140    1.2570 C   0  0  0  0  0  0  0  0  0  0  0  0
   -6.1040   -1.1330    0.7690 C   0  0  1  0  0  0  0  0  0  0  0  0
   -5.5400   -0.2170   -0.2470 C   0  0  0  0  0  0  0  0  0  0  0  0
   -4.8870   -1.1010    2.1750 S   0  0  0  0  0  0  0  0  0  0  0  0
   -3.2760   -0.7290    1.5230 C   0  0  0  0  0  0  0  0  0  0  0  0
   -2.5130   -1.9460    0.9600 C   0  0  0  0  0  0  0  0  0  0  0  0
   -1.2740   -1.4800    0.5490 C   0  0  0  0  0  0  0  0  0  0  0  0
   -0.6850   -0.2670    0.5600 C   0  0  0  0  0  0  0  0  0  0  0  0
    0.6430   -0.0880    0.2460 N   0  0  0  0  0  0  0  0  0  0  0  0
    1.2040    0.4370   -0.9760 C   0  0  0  0  0  0  0  0  0  0  0  0
    0.7600    0.8080   -1.9430 O   0  0  0  0  0  0  0  0  0  0  0  0
    2.7860    0.4480   -0.8030 C   0  0  0  0  0  0  0  0  0  0  0  0
    3.1330   -0.6280   -0.0890 O   0  0  0  0  0  0  0  0  0  0  0  0
    4.2210   -1.1560    0.3970 C   0  0  0  0  0  0  0  0  0  0  0  0
    4.2200   -2.4180    1.1110 C   0  0  0  0  0  0  0  0  0  0  0  0
    5.2200   -2.9640    1.5750 C   0  0  0  0  0  0  0  0  0  0  0  0
    6.5190   -2.4350    1.4780 N   0  0  0  0  0  0  0  0  0  0  0  0
    6.6310   -1.2720    0.8400 C   0  0  0  0  0  0  0  0  0  0  0  0
    7.8890   -0.6540    0.4520 C   0  0  0  0  0  0  0  0  0  0  0  0
    9.0110   -1.4510    0.1680 C   0  0  0  0  0  0  0  0  0  0  0  0
   10.2400   -0.8990   -0.2150 C   0  0  0  0  0  0  0  0  0  0  0  0
   10.2810    0.5650   -0.3050 C   0  0  0  0  0  0  0  0  0  0  0  0
    9.2490    1.1510   -0.0310 C   0  0  0  0  0  0  0  0  0  0  0  0
    7.9360    0.7550    0.3700 C   0  0  0  0  0  0  0  0  0  0  0  0
    9.2340    2.6630   -0.0760 O   0  0  0  0  0  0  0  0  0  0  0  0
   10.5940    3.1530    0.0340 C   0  0  0  0  0  0  0  0  0  0  0  0
   11.3680    2.5170   -1.1130 C   0  0  0  0  0  0  0  0  0  0  0  0
   11.5240    1.1320   -0.7080 O   0  0  0  0  0  0  0  0  0  0  0  0
    5.4820   -0.6520    0.3140 C   0  0  0  0  0  0  0  0  0  0  0  0
   -1.4940    0.7790    1.1100 C   0  0  0  0  0  0  0  0  0  0  0  0
   -2.7190    0.3130    1.5120 N   0  0  0  0  0  0  0  0  0  0  0  0
  1  2  1  0
  2  3  1  0
  3  4  1  0
  4  5  1  0
  4 10  2  0
  5  6  1  0
  6  7  1  0
  6  9  2  0
  7  8  3  0
  9 10  1  0
 10 11  1  0
 11 12  1  0
 12 13  1  6
 12 14  1  0
 14 15  1  0
 15 16  2  0
 15 41  1  0
 16 17  1  0
 17 18  2  0
 18 19  1  0
 18 40  1  0
 19 20  1  0
 20 21  2  0
 20 22  1  0
 22 23  1  0
 23 24  1  0
 24 25  2  0
 24 39  1  0
 25 26  1  0
 26 27  2  0
 27 28  1  0
 28 29  1  0
 28 39  2  0
 29 30  2  0
 29 34  1  0
 30 31  1  0
 31 32  2  0
 32 33  1  0
 32 38  1  0
 33 34  2  0
 33 35  1  0
 35 36  1  0
 36 37  1  0
 37 38  1  0
 40 41  2  0
M  END
