
     RDKit          3D

 41 45  0  0  0  0  0  0  0  0999 V2000
   -6.5660   -1.6670   -2.8960 C   0  0  0  0  0  0  0  0  0  0  0  0
   -5.6800   -1.4420   -1.9120 C   0  0  0  0  0  0  0  0  0  0  0  0
   -5.9580   -0.3650   -0.9470 C   0  0  0  0  0  0  0  0  0  0  0  0
   -6.0450   -0.8850    0.4810 C   0  0  0  0  0  0  0  0  0  0  0  0
   -7.2190   -1.0710    1.0970 C   0  0  0  0  0  0  0  0  0  0  0  0
   -7.1910   -1.5580    2.3890 C   0  0  0  0  0  0  0  0  0  0  0  0
   -8.3390   -1.8600    3.3130 C   0  0  0  0  0  0  0  0  0  0  0  0
   -5.4890   -1.7420    2.7010 S   0  0  0  0  0  0  0  0  0  0  0  0
   -4.9020   -1.1820    1.1490 C   0  0  0  0  0  0  0  0  0  0  0  0
   -3.5050   -1.0670    0.7270 C   0  0  0  0  0  0  0  0  0  0  0  0
   -2.4310   -1.4100    1.5070 C   0  0  0  0  0  0  0  0  0  0  0  0
   -1.2710   -1.1600    0.7630 C   0  0  0  0  0  0  0  0  0  0  0  0
   -1.7370   -0.6740   -0.4380 C   0  0  0  0  0  0  0  0  0  0  0  0
   -0.9690   -0.2340   -1.6310 C   0  0  0  0  0  0  0  0  0  0  0  0
    0.2710    0.4430   -1.2910 N   0  0  0  0  0  0  0  0  0  0  0  0
    0.4050    1.8340   -1.1230 C   0  0  0  0  0  0  0  0  0  0  0  0
    0.2810    2.3740    0.2230 C   0  0  0  0  0  0  0  0  0  0  0  0
    0.0690    1.7490    1.2790 O   0  0  0  0  0  0  0  0  0  0  0  0
    0.4200    3.8020    0.3610 N   0  0  0  0  0  0  0  0  0  0  0  0
    0.3200    4.4580    1.6290 C   0  0  0  0  0  0  0  0  0  0  0  0
    0.4960    5.9270    1.4550 C   0  0  0  0  0  0  0  0  0  0  0  0
    0.5540    6.9480    2.0580 N   0  0  0  0  0  0  0  0  0  0  0  0
    0.7190    8.1590    1.6480 C   0  0  0  0  0  0  0  0  0  0  0  0
    0.8560    8.3210    0.2660 C   0  0  0  0  0  0  0  0  0  0  0  0
    0.7210    6.6150   -0.2930 S   0  0  0  0  0  0  0  0  0  0  0  0
    1.4690   -0.3680   -1.1480 C   0  0  0  0  0  0  0  0  0  0  0  0
    1.3200   -1.6160   -1.3840 O   0  0  0  0  0  0  0  0  0  0  0  0
    2.6970    0.2550   -0.7650 C   0  0  0  0  0  0  0  0  0  0  0  0
    3.8950   -0.1380   -0.5210 C   0  0  0  0  0  0  0  0  0  0  0  0
    4.9290    0.9770   -0.1410 C   0  0  0  0  0  0  0  0  0  0  0  0
    4.4460   -1.4480   -0.3790 C   0  0  0  0  0  0  0  0  0  0  0  0
    3.7450   -2.5670   -0.0630 C   0  0  0  0  0  0  0  0  0  0  0  0
    4.3310   -3.8520   -0.0340 C   0  0  0  0  0  0  0  0  0  0  0  0
    5.6600   -4.0240   -0.3280 C   0  0  0  0  0  0  0  0  0  0  0  0
    6.3740   -2.8950   -0.6460 C   0  0  0  0  0  0  0  0  0  0  0  0
    5.8160   -1.6390   -0.6780 C   0  0  0  0  0  0  0  0  0  0  0  0
    7.7150   -3.0540   -0.9430 O   0  0  0  0  0  0  0  0  0  0  0  0
    8.3780   -4.2730   -0.9420 C   0  0  0  0  0  0  0  0  0  0  0  0
    7.5130   -5.4090   -0.5880 C   0  0  0  0  0  0  0  0  0  0  0  0
    6.2610   -5.3200   -0.3020 N   0  0  0  0  0  0  0  0  0  0  0  0
   -3.0660   -0.6410   -0.4020 O   0  0  0  0  0  0  0  0  0  0  0  0
  1  2  2  0
  2  3  1  0
  3  4  1  0
  4  5  1  0
  4  9  2  0
  5  6  2  0
  6  7  1  0
  6  8  1  0
  8  9  1  0
  9 10  1  0
 10 11  2  0
 10 41  1  0
 11 12  1  0
 12 13  2  0
 13 14  1  0
 13 41  1  0
 14 15  1  0
 15 16  1  0
 15 26  1  0
 16 17  1  0
 17 18  2  0
 17 19  1  0
 19 20  1  0
 20 21  1  0
 21 22  2  0
 21 25  1  0
 22 23  1  0
 23 24  2  0
 24 25  1  0
 26 27  2  0
 26 28  1  0
 28 29  2  3
 29 30  1  0
 29 31  1  0
 31 32  2  0
 31 36  1  0
 32 33  1  0
 33 34  2  0
 34 35  1  0
 34 40  1  0
 35 36  2  0
 35 37  1  0
 37 38  1  0
 38 39  1  0
 39 40  2  0
M  END
