
     RDKit          3D

 44 48  0  0  0  0  0  0  0  0999 V2000
    3.6260    0.7370    2.2920 C   0  0  0  0  0  0  0  0  0  0  0  0
    2.6600    0.2680    1.1730 C   0  0  1  0  0  0  0  0  0  0  0  0
    3.5400    0.1410   -0.0520 C   0  0  0  0  0  0  0  0  0  0  0  0
    4.5290   -0.7440   -0.1320 O   0  0  0  0  0  0  0  0  0  0  0  0
    5.7290   -1.0060    0.3870 C   0  0  0  0  0  0  0  0  0  0  0  0
    6.2210   -0.2420    1.2360 O   0  0  0  0  0  0  0  0  0  0  0  0
    6.5290   -2.1130    0.0520 O   0  0  0  0  0  0  0  0  0  0  0  0
    2.1940   -1.0640    1.5970 C   0  0  0  0  0  0  0  0  0  0  0  0
    2.2240   -2.2340    0.7510 C   0  0  0  0  0  0  0  0  0  0  0  0
    1.6480   -2.4290   -0.4900 N   0  0  0  0  0  0  0  0  0  0  0  0
    2.3750   -3.0670   -1.5530 C   0  0  0  0  0  0  0  0  0  0  0  0
    1.9050   -3.2620   -2.6900 O   0  0  0  0  0  0  0  0  0  0  0  0
    3.6880   -3.4770   -1.2430 O   0  0  0  0  0  0  0  0  0  0  0  0
    0.2750   -2.0770   -0.9270 C   0  0  2  0  0  0  0  0  0  0  0  0
    0.4370   -1.1480   -2.0600 C   0  0  0  0  0  0  0  0  0  0  0  0
   -0.1720    0.1930   -2.0150 C   0  0  0  0  0  0  0  0  0  0  0  0
    0.7310    1.2810   -2.0540 O   0  0  0  0  0  0  0  0  0  0  0  0
    0.3130    2.5760   -1.7600 C   0  0  0  0  0  0  0  0  0  0  0  0
    1.2140    3.4510   -2.0460 O   0  0  0  0  0  0  0  0  0  0  0  0
   -0.9770    2.9720   -1.1960 C   0  0  0  0  0  0  0  0  0  0  0  0
   -1.4660    2.5430   -0.0500 C   0  0  0  0  0  0  0  0  0  0  0  0
   -0.6620    2.0210    1.0530 N   0  0  0  0  0  0  0  0  0  0  0  0
    0.7330    2.0250    1.3130 C   0  0  0  0  0  0  0  0  0  0  0  0
    1.0130    3.0200    2.1860 O   0  0  0  0  0  0  0  0  0  0  0  0
    1.7270    1.2410    0.8510 O   0  0  0  0  0  0  0  0  0  0  0  0
   -2.9060    2.8290   -0.1010 C   0  0  2  0  0  0  0  0  0  0  0  0
   -3.8190    1.7650   -0.5970 C   0  0  0  0  0  0  0  0  0  0  0  0
   -4.1610    1.9330   -1.8440 O   0  0  0  0  0  0  0  0  0  0  0  0
   -4.3440    0.6850    0.0160 O   0  0  0  0  0  0  0  0  0  0  0  0
   -3.8720   -0.4940    0.4970 C   0  0  1  0  0  0  0  0  0  0  0  0
   -3.2840   -0.2870    1.8400 C   0  0  0  0  0  0  0  0  0  0  0  0
   -4.8360   -1.6660    0.6180 C   0  0  0  0  0  0  0  0  0  0  0  0
   -4.0790   -2.8580    0.8180 O   0  0  0  0  0  0  0  0  0  0  0  0
   -2.6810   -2.9250    0.9620 C   0  0  0  0  0  0  0  0  0  0  0  0
   -2.0870   -3.7530    1.6720 O   0  0  0  0  0  0  0  0  0  0  0  0
   -1.9660   -1.9050    0.1800 N   0  0  0  0  0  0  0  0  0  0  0  0
   -0.5610   -1.7410    0.2380 C   0  0  0  0  0  0  0  0  0  0  0  0
   -2.8860   -1.1290   -0.5120 C   0  0  0  0  0  0  0  0  0  0  0  0
   -3.1440   -0.8060   -1.6880 O   0  0  0  0  0  0  0  0  0  0  0  0
   -2.9770    3.9640   -1.0220 N   0  0  0  0  0  0  0  0  0  0  0  0
   -3.8340    4.9480   -1.4490 C   0  0  0  0  0  0  0  0  0  0  0  0
   -3.2840    5.4960   -2.5590 N   0  0  0  0  0  0  0  0  0  0  0  0
   -2.1440    4.8640   -2.7800 N   0  0  0  0  0  0  0  0  0  0  0  0
   -1.9510    3.9080   -1.8100 C   0  0  0  0  0  0  0  0  0  0  0  0
  2  1  1  1
  2  3  1  0
  2  8  1  0
  2 25  1  0
  3  4  1  0
  4  5  1  0
  5  6  2  0
  5  7  1  0
  8  9  1  0
  9 10  1  0
 10 11  1  0
 10 14  1  0
 11 12  2  0
 11 13  1  0
 14 15  1  0
 14 37  1  1
 15 16  1  0
 16 17  1  0
 17 18  1  0
 18 19  2  0
 18 20  1  0
 20 21  2  0
 20 44  1  0
 21 22  1  0
 21 26  1  0
 22 23  1  0
 23 24  2  0
 23 25  1  0
 26 27  1  0
 26 40  1  6
 27 28  2  0
 27 29  1  0
 29 30  1  0
 30 31  1  1
 30 32  1  0
 30 38  1  0
 32 33  1  0
 33 34  1  0
 34 35  2  0
 34 36  1  0
 36 37  1  0
 36 38  1  0
 38 39  2  0
 40 41  1  0
 40 44  1  0
 41 42  2  0
 42 43  1  0
 43 44  2  0
M  END
