
     RDKit          3D

 43 47  0  0  0  0  0  0  0  0999 V2000
   -3.8100    4.0470   -0.7960 O   0  0  0  0  0  0  0  0  0  0  0  0
   -2.8440    3.1190   -0.9250 C   0  0  0  0  0  0  0  0  0  0  0  0
   -2.9350    2.2110    0.1210 N   0  0  0  0  0  0  0  0  0  0  0  0
   -2.2110    1.9040    1.3780 C   0  0  0  0  0  0  0  0  0  0  0  0
   -1.2160    0.7960    1.2250 C   0  0  1  0  0  0  0  0  0  0  0  0
   -1.6570   -0.5530    1.5560 C   0  0  0  0  0  0  0  0  0  0  0  0
   -3.0630   -0.6200    1.2350 O   0  0  0  0  0  0  0  0  0  0  0  0
   -3.8080   -1.7480    1.4190 C   0  0  0  0  0  0  0  0  0  0  0  0
   -3.2150   -2.7570    1.8900 O   0  0  0  0  0  0  0  0  0  0  0  0
   -5.2390   -1.7420    1.0690 C   0  0  2  0  0  0  0  0  0  0  0  0
   -5.5580   -2.6970   -0.0600 C   0  0  0  0  0  0  0  0  0  0  0  0
   -6.6060   -2.0250   -0.6910 O   0  0  0  0  0  0  0  0  0  0  0  0
   -6.3170   -0.6860   -0.5590 C   0  0  0  0  0  0  0  0  0  0  0  0
   -5.5760   -0.4860    0.5820 O   0  0  0  0  0  0  0  0  0  0  0  0
   -1.0080    1.0240   -0.3230 C   0  0  0  0  0  0  0  0  0  0  0  0
   -0.3640    2.1970   -0.3260 O   0  0  0  0  0  0  0  0  0  0  0  0
    0.0300    3.0390    0.6490 C   0  0  0  0  0  0  0  0  0  0  0  0
    0.3970    2.3770    2.0090 C   0  0  0  0  0  0  0  0  0  0  0  0
    0.1940    0.9990    1.5050 N   0  0  0  0  0  0  0  0  0  0  0  0
    1.2920    0.2260    1.1890 C   0  0  0  0  0  0  0  0  0  0  0  0
    2.0640    0.0100    2.1620 O   0  0  0  0  0  0  0  0  0  0  0  0
    1.7260   -0.4000   -0.1320 C   0  0  2  0  0  0  0  0  0  0  0  0
    2.8760   -1.2990    0.1520 C   0  0  0  0  0  0  0  0  0  0  0  0
    3.9970   -1.3510   -0.6270 C   0  0  0  0  0  0  0  0  0  0  0  0
    5.0540   -2.2040   -0.3630 C   0  0  0  0  0  0  0  0  0  0  0  0
    4.9800   -3.0340    0.7250 C   0  0  0  0  0  0  0  0  0  0  0  0
    6.0310   -3.9200    1.0360 O   0  0  0  0  0  0  0  0  0  0  0  0
    7.1220   -3.9650    0.2730 O   0  0  0  0  0  0  0  0  0  0  0  0
    8.1560   -4.3100    1.0210 O   0  0  0  0  0  0  0  0  0  0  0  0
    7.7600   -4.6140    2.2260 O   0  0  0  0  0  0  0  0  0  0  0  0
    3.8730   -3.0050    1.5190 C   0  0  0  0  0  0  0  0  0  0  0  0
    2.8210   -2.1400    1.2350 C   0  0  0  0  0  0  0  0  0  0  0  0
    2.2280    0.7050   -1.0330 N   0  0  0  0  0  0  0  0  0  0  0  0
    3.3580    1.3890   -0.6460 C   0  0  0  0  0  0  0  0  0  0  0  0
    3.6340    2.3220   -1.5980 C   0  0  0  0  0  0  0  0  0  0  0  0
    2.7110    2.1810   -2.4810 N   0  0  0  0  0  0  0  0  0  0  0  0
    1.8010    1.1810   -2.1740 C   0  0  0  0  0  0  0  0  0  0  0  0
    0.6600    0.8910   -3.0460 N   0  0  0  0  0  0  0  0  0  0  0  0
   -0.6230    1.4000   -3.3380 C   0  0  0  0  0  0  0  0  0  0  0  0
   -1.3900    0.5400   -4.0350 O   0  0  0  0  0  0  0  0  0  0  0  0
   -1.4310    2.6010   -3.1280 C   0  0  0  0  0  0  0  0  0  0  0  0
   -1.6630    3.1770   -4.3010 O   0  0  0  0  0  0  0  0  0  0  0  0
   -2.0370    3.3380   -2.0700 N   0  0  0  0  0  0  0  0  0  0  0  0
  1  2  2  0
  2  3  1  0
  2 43  1  0
  3  4  1  0
  4  5  1  0
  5  6  1  6
  5 15  1  0
  5 19  1  0
  6  7  1  0
  7  8  1  0
  8  9  2  0
 10  8  1  6
 10 11  1  0
 10 14  1  0
 11 12  1  0
 12 13  1  0
 13 14  1  0
 15 16  1  0
 16 17  1  0
 17 18  1  0
 18 19  1  0
 19 20  1  0
 20 21  2  0
 20 22  1  0
 22 23  1  1
 22 33  1  0
 23 24  2  0
 23 32  1  0
 24 25  1  0
 25 26  2  0
 26 27  1  0
 26 31  1  0
 27 28  1  0
 28 29  1  0
 29 30  1  0
 31 32  2  0
 33 34  1  0
 33 37  1  0
 34 35  2  0
 35 36  1  0
 36 37  2  0
 37 38  1  0
 38 39  1  0
 39 40  2  0
 39 41  1  0
 41 42  2  0
 41 43  1  0
M  END
