
     RDKit          3D

 23 25  0  0  0  0  0  0  0  0999 V2000
   -2.5520    2.8430    1.3130 C   0  0  0  0  0  0  0  0  0  0  0  0
   -2.4760    1.4540    1.2180 O   0  0  0  0  0  0  0  0  0  0  0  0
   -2.0370    1.0330   -0.0230 C   0  0  2  0  0  0  0  0  0  0  0  0
   -2.9740    0.2690   -0.6990 O   0  0  0  0  0  0  0  0  0  0  0  0
   -3.3660   -0.8650   -0.0530 C   0  0  1  0  0  0  0  0  0  0  0  0
   -4.0930   -1.7520   -1.0730 C   0  0  0  0  0  0  0  0  0  0  0  0
   -2.2840   -1.6710    0.5670 C   0  0  0  0  0  0  0  0  0  0  0  0
   -0.9290   -1.1050    0.3690 C   0  0  0  0  0  0  0  0  0  0  0  0
    0.1610   -1.8150    0.4580 O   0  0  0  0  0  0  0  0  0  0  0  0
    1.3500   -1.3380    0.2890 C   0  0  0  0  0  0  0  0  0  0  0  0
    2.4000   -2.2020    0.4130 C   0  0  0  0  0  0  0  0  0  0  0  0
    3.6690   -1.7570    0.2460 C   0  0  0  0  0  0  0  0  0  0  0  0
    4.7650   -2.6190    0.3670 O   0  0  0  0  0  0  0  0  0  0  0  0
    3.9320   -0.4080   -0.0570 C   0  0  0  0  0  0  0  0  0  0  0  0
    5.2040   -0.0330   -0.2090 O   0  0  0  0  0  0  0  0  0  0  0  0
    2.8480    0.4760   -0.1830 C   0  0  0  0  0  0  0  0  0  0  0  0
    3.0880    1.8630   -0.4920 C   0  0  0  0  0  0  0  0  0  0  0  0
    4.3340    2.1950   -0.6340 O   0  0  0  0  0  0  0  0  0  0  0  0
    2.2680    2.9180   -0.6710 O   0  0  0  0  0  0  0  0  0  0  0  0
    1.5670   -0.0050   -0.0080 C   0  0  0  0  0  0  0  0  0  0  0  0
    0.4570    0.7810   -0.1120 C   0  0  0  0  0  0  0  0  0  0  0  0
    0.4790    1.9960   -0.3720 O   0  0  0  0  0  0  0  0  0  0  0  0
   -0.7990    0.2130    0.0810 C   0  0  0  0  0  0  0  0  0  0  0  0
  1  2  1  0
  3  2  1  1
  3  4  1  0
  3 23  1  0
  4  5  1  0
  5  6  1  6
  5  7  1  0
  7  8  1  0
  8  9  1  0
  8 23  2  0
  9 10  1  0
 10 11  2  0
 10 20  1  0
 11 12  1  0
 12 13  1  0
 12 14  2  0
 14 15  1  0
 14 16  1  0
 16 17  1  0
 16 20  2  0
 17 18  2  0
 17 19  1  0
 20 21  1  0
 21 22  2  0
 21 23  1  0
M  END
