
     RDKit          3D

 23 24  0  0  0  0  0  0  0  0999 V2000
    2.7190    2.9160    0.7510 C   0  0  0  0  0  0  0  0  0  0  0  0
    2.8030    2.2400   -0.5980 C   0  0  0  0  0  0  0  0  0  0  0  0
    2.1390    0.9880   -0.6030 O   0  0  0  0  0  0  0  0  0  0  0  0
    0.8090    0.8660   -0.3320 C   0  0  0  0  0  0  0  0  0  0  0  0
    0.2730    2.0110   -0.0810 O   0  0  0  0  0  0  0  0  0  0  0  0
   -0.0090   -0.3630   -0.3010 C   0  0  0  0  0  0  0  0  0  0  0  0
    0.5490   -1.5140   -0.5740 C   0  0  0  0  0  0  0  0  0  0  0  0
   -0.2590   -2.7050   -0.5370 O   0  0  0  0  0  0  0  0  0  0  0  0
    1.9000   -1.8290   -0.9250 C   0  0  0  0  0  0  0  0  0  0  0  0
    2.9240   -0.9330   -1.0240 O   0  0  0  0  0  0  0  0  0  0  0  0
    2.2860   -3.0970   -1.1970 C   0  0  0  0  0  0  0  0  0  0  0  0
    1.4140   -4.1440   -1.1570 O   0  0  0  0  0  0  0  0  0  0  0  0
   -1.4700   -0.1720    0.0350 C   0  0  2  0  0  0  0  0  0  0  0  0
   -2.0380    0.8580   -0.9240 C   0  0  0  0  0  0  0  0  0  0  0  0
   -2.8370    1.9360   -0.2900 C   0  0  0  0  0  0  0  0  0  0  0  0
   -2.3050    2.5670    0.8410 O   0  0  0  0  0  0  0  0  0  0  0  0
   -1.6280    1.6960    1.7410 C   0  0  0  0  0  0  0  0  0  0  0  0
   -0.9950    2.0720    2.7330 O   0  0  0  0  0  0  0  0  0  0  0  0
   -1.7140    0.2730    1.4430 C   0  0  0  0  0  0  0  0  0  0  0  0
   -2.1090   -0.7710    2.2030 C   0  0  0  0  0  0  0  0  0  0  0  0
   -2.1850   -1.9800    1.3860 C   0  0  0  0  0  0  0  0  0  0  0  0
   -2.1820   -3.1620    1.7450 O   0  0  0  0  0  0  0  0  0  0  0  0
   -2.2740   -1.4340   -0.0090 C   0  0  0  0  0  0  0  0  0  0  0  0
  1  2  1  0
  2  3  1  0
  3  4  1  0
  4  5  2  0
  4  6  1  0
  6  7  2  3
 13  6  1  6
  7  8  1  0
  7  9  1  0
  9 10  1  0
  9 11  2  3
 11 12  1  0
 13 14  1  0
 13 19  1  0
 13 23  1  0
 14 15  1  0
 15 16  1  0
 16 17  1  0
 17 18  2  0
 17 19  1  0
 19 20  2  0
 20 21  1  0
 21 22  2  0
 21 23  1  0
M  END
