
     RDKit          3D

 22 23  0  0  0  0  0  0  0  0999 V2000
    2.5270    3.0820    1.9770 C   0  0  0  0  0  0  0  0  0  0  0  0
    2.3950    2.5470    0.6750 O   0  0  0  0  0  0  0  0  0  0  0  0
    2.0500    1.2110    0.5530 C   0  0  0  0  0  0  0  0  0  0  0  0
    1.8700    0.5340    1.5910 O   0  0  0  0  0  0  0  0  0  0  0  0
    1.8870    0.5300   -0.7750 C   0  0  1  0  0  0  0  0  0  0  0  0
    1.2840    1.4400   -1.8170 C   0  0  0  0  0  0  0  0  0  0  0  0
    3.2780    0.1120   -1.1780 C   0  0  0  0  0  0  0  0  0  0  0  0
    3.1810   -1.3080   -1.4210 C   0  0  0  0  0  0  0  0  0  0  0  0
    4.0740   -2.0230   -1.9640 O   0  0  0  0  0  0  0  0  0  0  0  0
    1.8620   -1.7450   -0.9190 C   0  0  0  0  0  0  0  0  0  0  0  0
    1.5940   -3.1250   -0.9030 O   0  0  0  0  0  0  0  0  0  0  0  0
    1.1280   -0.7180   -0.5570 C   0  0  0  0  0  0  0  0  0  0  0  0
   -0.2640   -0.8170    0.0040 C   0  0  0  0  0  0  0  0  0  0  0  0
   -0.9640    0.2450    0.3320 C   0  0  0  0  0  0  0  0  0  0  0  0
   -0.4730    1.5310    0.1820 O   0  0  0  0  0  0  0  0  0  0  0  0
   -2.3680    0.1830    0.9040 C   0  0  0  0  0  0  0  0  0  0  0  0
   -3.0710   -1.0300    0.3650 C   0  0  1  0  0  0  0  0  0  0  0  0
   -4.4220   -1.1830    1.0260 C   0  0  0  0  0  0  0  0  0  0  0  0
   -3.2460   -0.9730   -1.1350 C   0  0  0  0  0  0  0  0  0  0  0  0
   -2.2300   -2.1240    0.7370 O   0  0  0  0  0  0  0  0  0  0  0  0
   -0.9210   -2.1000    0.2130 C   0  0  0  0  0  0  0  0  0  0  0  0
   -0.3750   -3.1840   -0.0510 O   0  0  0  0  0  0  0  0  0  0  0  0
  1  2  1  0
  2  3  1  0
  3  4  2  0
  3  5  1  0
  5  6  1  6
  5  7  1  0
  5 12  1  0
  7  8  1  0
  8  9  2  0
  8 10  1  0
 10 11  1  0
 10 12  2  0
 12 13  1  0
 13 14  2  0
 13 21  1  0
 14 15  1  0
 14 16  1  0
 16 17  1  0
 17 18  1  1
 17 19  1  0
 17 20  1  0
 20 21  1  0
 21 22  2  0
M  END
