
     RDKit          3D

 26 29  0  0  0  0  0  0  0  0999 V2000
   -4.7870    0.7820   -1.3740 C   0  0  0  0  0  0  0  0  0  0  0  0
   -5.2030    0.6250    0.0630 C   0  0  2  0  0  0  0  0  0  0  0  0
   -6.7260    0.6910    0.1040 C   0  0  0  0  0  0  0  0  0  0  0  0
   -4.6530    1.7910    0.8580 C   0  0  0  0  0  0  0  0  0  0  0  0
   -4.8140   -0.6710    0.6310 C   0  0  0  0  0  0  0  0  0  0  0  0
   -5.5890   -1.6430    1.1430 N   0  0  0  0  0  0  0  0  0  0  0  0
   -4.8390   -2.6500    1.5440 N   0  0  0  0  0  0  0  0  0  0  0  0
   -3.5270   -2.3760    1.3070 C   0  0  0  0  0  0  0  0  0  0  0  0
   -2.4430   -3.2080    1.5990 O   0  0  0  0  0  0  0  0  0  0  0  0
   -3.4940   -1.1280    0.7300 C   0  0  0  0  0  0  0  0  0  0  0  0
   -2.3300   -0.3790    0.2920 C   0  0  0  0  0  0  0  0  0  0  0  0
   -1.1030   -0.8090    0.3820 C   0  0  0  0  0  0  0  0  0  0  0  0
    0.0450    0.0010   -0.0830 C   0  0  0  0  0  0  0  0  0  0  0  0
    0.0110    1.2190   -0.6320 N   0  0  0  0  0  0  0  0  0  0  0  0
    1.2520    1.6010   -0.9110 N   0  0  0  0  0  0  0  0  0  0  0  0
    2.1110    0.6340   -0.5460 C   0  0  0  0  0  0  0  0  0  0  0  0
    1.3560   -0.3500   -0.0350 N   0  0  0  0  0  0  0  0  0  0  0  0
    1.9970   -1.5380    0.4530 C   0  0  0  0  0  0  0  0  0  0  0  0
    3.2460   -1.9420   -0.2440 C   0  0  0  0  0  0  0  0  0  0  0  0
    3.8070   -0.8980   -1.0140 N   0  0  0  0  0  0  0  0  0  0  0  0
    3.5900    0.4370   -0.5860 C   0  0  1  0  0  0  0  0  0  0  0  0
    4.1050    1.3580   -1.6670 C   0  0  0  0  0  0  0  0  0  0  0  0
    5.5800    1.5770   -1.6110 C   0  0  0  0  0  0  0  0  0  0  0  0
    6.3320    0.6750   -0.7030 C   0  0  0  0  0  0  0  0  0  0  0  0
    5.7020    0.4500    0.6360 C   0  0  0  0  0  0  0  0  0  0  0  0
    4.2480    0.8350    0.6870 C   0  0  0  0  0  0  0  0  0  0  0  0
  2  1  1  6
  2  3  1  0
  2  4  1  0
  2  5  1  0
  5  6  1  0
  5 10  2  0
  6  7  1  0
  7  8  2  0
  8  9  1  0
  8 10  1  0
 10 11  1  0
 11 12  2  3
 12 13  1  0
 13 14  2  0
 13 17  1  0
 14 15  1  0
 15 16  2  0
 16 17  1  0
 16 21  1  0
 17 18  1  0
 18 19  1  0
 19 20  1  0
 20 21  1  0
 21 22  1  6
 21 26  1  0
 22 23  1  0
 23 24  1  0
 24 25  1  0
 25 26  1  0
M  END
