
     RDKit          3D

 20 19  0  0  0  0  0  0  0  0999 V2000
   -7.0650    2.8910    0.6670 C   0  0  0  0  0  0  0  0  0  0  0  0
   -6.5480    1.5610    1.1490 C   0  0  0  0  0  0  0  0  0  0  0  0
   -5.7320    0.8410    0.0750 C   0  0  0  0  0  0  0  0  0  0  0  0
   -5.3000   -0.4590    0.7080 C   0  0  0  0  0  0  0  0  0  0  0  0
   -4.5020   -1.2920   -0.2290 C   0  0  0  0  0  0  0  0  0  0  0  0
   -3.2600   -0.5530   -0.6460 C   0  0  0  0  0  0  0  0  0  0  0  0
   -2.4300   -1.4150   -1.5860 C   0  0  0  0  0  0  0  0  0  0  0  0
   -1.1910   -0.6410   -1.9910 C   0  0  0  0  0  0  0  0  0  0  0  0
   -0.3490   -0.2760   -0.8210 C   0  0  0  0  0  0  0  0  0  0  0  0
    0.1680   -1.4120   -0.0240 C   0  0  0  0  0  0  0  0  0  0  0  0
    1.0360   -2.3760   -0.7420 C   0  0  0  0  0  0  0  0  0  0  0  0
    2.2840   -1.7580   -1.3160 C   0  0  0  0  0  0  0  0  0  0  0  0
    3.1490   -1.1390   -0.2530 C   0  0  0  0  0  0  0  0  0  0  0  0
    4.4100   -0.5210   -0.8430 C   0  0  0  0  0  0  0  0  0  0  0  0
    5.2610    0.0900    0.2450 C   0  0  0  0  0  0  0  0  0  0  0  0
    6.5080    0.6820   -0.3930 C   0  0  0  0  0  0  0  0  0  0  0  0
    7.3940    1.2980    0.6770 C   0  0  0  0  0  0  0  0  0  0  0  0
    6.6310    2.3710    1.3410 C   0  0  0  0  0  0  0  0  0  0  0  0
    6.1510    3.2980    0.6540 O   0  0  0  0  0  0  0  0  0  0  0  0
    6.4530    2.3440    2.7030 O   0  0  0  0  0  0  0  0  0  0  0  0
  1  2  1  0
  2  3  1  0
  3  4  1  0
  4  5  1  0
  5  6  1  0
  6  7  1  0
  7  8  1  0
  8  9  1  0
  9 10  1  0
 10 11  1  0
 11 12  1  0
 12 13  1  0
 13 14  1  0
 14 15  1  0
 15 16  1  0
 16 17  1  0
 17 18  1  0
 18 19  2  0
 18 20  1  0
M  END
