
     RDKit          3D

 20 20  0  0  0  0  0  0  0  0999 V2000
    5.6670   -0.3700    2.9260 C   0  0  0  0  0  0  0  0  0  0  0  0
    4.2940    0.0480    2.3830 C   0  0  0  0  0  0  0  0  0  0  0  0
    3.9770   -0.8940    1.2760 C   0  0  0  0  0  0  0  0  0  0  0  0
    2.6640   -0.6210    0.6100 C   0  0  0  0  0  0  0  0  0  0  0  0
    1.5370   -0.7250    1.5790 C   0  0  0  0  0  0  0  0  0  0  0  0
    0.3240   -0.4940    0.9930 O   0  0  0  0  0  0  0  0  0  0  0  0
   -0.2570    0.5480    0.3920 C   0  0  0  0  0  0  0  0  0  0  0  0
    0.3660    1.7790    0.2530 C   0  0  0  0  0  0  0  0  0  0  0  0
   -0.2840    2.8340   -0.3790 C   0  0  0  0  0  0  0  0  0  0  0  0
   -1.5560    2.6300   -0.8630 C   0  0  0  0  0  0  0  0  0  0  0  0
   -2.2740    3.7180   -1.5340 C   0  0  1  0  0  0  0  0  0  0  0  0
   -1.4250    4.9030   -1.8600 C   0  0  0  0  0  0  0  0  0  0  0  0
   -2.9220    3.2930   -2.7080 O   0  0  0  0  0  0  0  0  0  0  0  0
   -2.1890    1.3960   -0.7270 C   0  0  0  0  0  0  0  0  0  0  0  0
   -1.5530    0.3510   -0.1040 C   0  0  0  0  0  0  0  0  0  0  0  0
   -2.1790   -0.9540    0.0520 C   0  0  1  0  0  0  0  0  0  0  0  0
   -3.6510   -0.8810   -0.3080 C   0  0  0  0  0  0  0  0  0  0  0  0
   -1.5080   -2.1080   -0.6210 C   0  0  0  0  0  0  0  0  0  0  0  0
   -2.3230   -3.3560   -0.3360 C   0  0  0  0  0  0  0  0  0  0  0  0
   -1.6940   -4.5800   -0.9730 C   0  0  0  0  0  0  0  0  0  0  0  0
  1  2  1  0
  2  3  1  0
  3  4  1  0
  4  5  1  0
  5  6  1  0
  6  7  1  0
  7  8  2  0
  7 15  1  0
  8  9  1  0
  9 10  2  0
 10 11  1  0
 10 14  1  0
 11 12  1  6
 11 13  1  0
 14 15  2  0
 15 16  1  0
 16 17  1  6
 16 18  1  0
 18 19  1  0
 19 20  1  0
M  END
