
     RDKit          3D

 20 20  0  0  0  0  0  0  0  0999 V2000
   -0.2630    5.9200    0.6000 C   0  0  0  0  0  0  0  0  0  0  0  0
   -0.2840    4.5860   -0.1090 C   0  0  0  0  0  0  0  0  0  0  0  0
   -0.1390    3.4400    0.8410 C   0  0  0  0  0  0  0  0  0  0  0  0
   -0.1710    2.1330    0.1410 C   0  0  0  0  0  0  0  0  0  0  0  0
    1.0090    1.4620   -0.1490 C   0  0  0  0  0  0  0  0  0  0  0  0
    1.0690    0.2590   -0.8140 C   0  0  0  0  0  0  0  0  0  0  0  0
    2.3680   -0.4020   -1.0920 C   0  0  0  0  0  0  0  0  0  0  0  0
    2.7940   -1.3430    0.0190 C   0  0  0  0  0  0  0  0  0  0  0  0
    4.0160   -1.8770   -0.3820 O   0  0  0  0  0  0  0  0  0  0  0  0
    4.5230   -2.7690    0.5640 C   0  0  0  0  0  0  0  0  0  0  0  0
    5.8460   -3.3320    0.1060 C   0  0  0  0  0  0  0  0  0  0  0  0
   -0.1360   -0.2960   -1.2080 C   0  0  0  0  0  0  0  0  0  0  0  0
   -1.3490    0.3150   -0.9550 C   0  0  0  0  0  0  0  0  0  0  0  0
   -2.6500   -0.2580   -1.3760 C   0  0  0  0  0  0  0  0  0  0  0  0
   -3.4470   -0.8650   -0.2720 C   0  0  0  0  0  0  0  0  0  0  0  0
   -2.7800   -1.9980    0.4480 C   0  0  2  0  0  0  0  0  0  0  0  0
   -2.4350   -3.1650   -0.4220 C   0  0  0  0  0  0  0  0  0  0  0  0
   -3.7730   -2.4750    1.5130 C   0  0  0  0  0  0  0  0  0  0  0  0
   -1.3450    1.5330   -0.2760 C   0  0  0  0  0  0  0  0  0  0  0  0
   -2.5780    2.1120   -0.0360 O   0  0  0  0  0  0  0  0  0  0  0  0
  1  2  1  0
  2  3  1  0
  3  4  1  0
  4  5  2  0
  4 19  1  0
  5  6  1  0
  6  7  1  0
  6 12  2  0
  7  8  1  0
  8  9  1  0
  9 10  1  0
 10 11  1  0
 12 13  1  0
 13 14  1  0
 13 19  2  0
 14 15  1  0
 15 16  1  0
 16 17  1  6
 16 18  1  0
 19 20  1  0
M  END
