
     RDKit          3D

 20 19  0  0  0  0  0  0  0  0999 V2000
   -5.5800    3.1790   -0.9020 C   0  0  0  0  0  0  0  0  0  0  0  0
   -6.4660    1.9870   -0.6030 C   0  0  0  0  0  0  0  0  0  0  0  0
   -5.9040    0.7070   -1.1400 C   0  0  0  0  0  0  0  0  0  0  0  0
   -4.5560    0.3630   -0.5980 C   0  0  0  0  0  0  0  0  0  0  0  0
   -4.6310    0.2100    0.8900 C   0  0  0  0  0  0  0  0  0  0  0  0
   -3.2910   -0.1230    1.4470 C   0  0  0  0  0  0  0  0  0  0  0  0
   -2.7790   -1.4160    0.8710 C   0  0  0  0  0  0  0  0  0  0  0  0
   -1.4210   -1.6620    1.5310 C   0  0  0  0  0  0  0  0  0  0  0  0
   -0.7970   -2.8930    1.0670 C   0  0  0  0  0  0  0  0  0  0  0  0
    0.3400   -3.0300    0.4700 C   0  0  0  0  0  0  0  0  0  0  0  0
    1.2670   -1.9440    0.1240 C   0  0  0  0  0  0  0  0  0  0  0  0
    2.6090   -2.1270    0.7850 C   0  0  0  0  0  0  0  0  0  0  0  0
    3.5040   -0.9690    0.4060 C   0  0  0  0  0  0  0  0  0  0  0  0
    3.7440   -0.8550   -1.0700 C   0  0  0  0  0  0  0  0  0  0  0  0
    4.6400    0.3190   -1.3560 C   0  0  0  0  0  0  0  0  0  0  0  0
    5.9580    0.1520   -0.7000 C   0  0  0  0  0  0  0  0  0  0  0  0
    6.9090    1.3000   -0.9770 C   0  0  0  0  0  0  0  0  0  0  0  0
    6.4360    2.6020   -0.5170 C   0  0  0  0  0  0  0  0  0  0  0  0
    7.1720    3.5970   -0.7650 O   0  0  0  0  0  0  0  0  0  0  0  0
    5.2620    2.8640    0.1640 O   0  0  0  0  0  0  0  0  0  0  0  0
  1  2  1  0
  2  3  1  0
  3  4  1  0
  4  5  1  0
  5  6  1  0
  6  7  1  0
  7  8  1  0
  8  9  1  0
  9 10  2  3
 10 11  1  0
 11 12  1  0
 12 13  1  0
 13 14  1  0
 14 15  1  0
 15 16  1  0
 16 17  1  0
 17 18  1  0
 18 19  2  0
 18 20  1  0
M  END
