
     RDKit          3D

 20 19  0  0  0  0  0  0  0  0999 V2000
   -0.0410    2.7880   -1.6230 C   0  0  0  0  0  0  0  0  0  0  0  0
    0.5050    1.6520   -0.9390 C   0  0  0  0  0  0  0  0  0  0  0  0
    0.0670    0.4490   -0.6130 C   0  0  0  0  0  0  0  0  0  0  0  0
    1.0950   -0.3690    0.1070 C   0  0  0  0  0  0  0  0  0  0  0  0
    0.9810   -1.4860    0.5670 O   0  0  0  0  0  0  0  0  0  0  0  0
    2.3890    0.2130    0.2940 O   0  0  0  0  0  0  0  0  0  0  0  0
    3.3820   -0.5560    0.9800 C   0  0  0  0  0  0  0  0  0  0  0  0
    4.6510    0.2200    1.0700 C   0  0  2  0  0  0  0  0  0  0  0  0
    5.6770   -0.6270    1.8030 C   0  0  0  0  0  0  0  0  0  0  0  0
    4.4370    1.4810    1.9070 C   0  0  0  0  0  0  0  0  0  0  0  0
   -1.2900    0.0310   -0.6650 C   0  0  0  0  0  0  0  0  0  0  0  0
   -1.8280   -1.1500   -0.5370 C   0  0  0  0  0  0  0  0  0  0  0  0
   -1.3610   -2.4990   -0.3170 C   0  0  0  0  0  0  0  0  0  0  0  0
   -2.2350   -3.4870   -1.1750 C   0  0  2  0  0  0  0  0  0  0  0  0
   -1.7160   -4.8840   -0.9190 C   0  0  0  0  0  0  0  0  0  0  0  0
   -2.0150   -3.1200   -2.6140 C   0  0  0  0  0  0  0  0  0  0  0  0
   -2.4070    1.1150   -0.7810 C   0  0  0  0  0  0  0  0  0  0  0  0
   -2.3010    1.9160    0.4870 C   0  0  0  0  0  0  0  0  0  0  0  0
   -3.3180    3.0400    0.4430 C   0  0  0  0  0  0  0  0  0  0  0  0
   -3.2350    3.8570    1.6960 C   0  0  0  0  0  0  0  0  0  0  0  0
  1  2  1  0
  2  3  2  3
  3  4  1  0
  3 11  1  0
  4  5  2  0
  4  6  1  0
  6  7  1  0
  7  8  1  0
  8  9  1  1
  8 10  1  0
 11 12  2  3
 11 17  1  0
 12 13  1  0
 13 14  1  0
 14 15  1  6
 14 16  1  0
 17 18  1  0
 18 19  1  0
 19 20  1  0
M  END
