
     RDKit          3D

 20 20  0  0  0  0  0  0  0  0999 V2000
   -1.8910    4.2450   -2.8380 C   0  0  0  0  0  0  0  0  0  0  0  0
   -1.1400    3.0120   -2.6440 C   0  0  0  0  0  0  0  0  0  0  0  0
   -1.3160    2.2690   -1.5670 C   0  0  0  0  0  0  0  0  0  0  0  0
   -2.2580    2.6700   -0.5650 C   0  0  0  0  0  0  0  0  0  0  0  0
   -2.9460    3.7450   -0.6860 O   0  0  0  0  0  0  0  0  0  0  0  0
   -0.5300    1.0600   -1.4510 C   0  0  0  0  0  0  0  0  0  0  0  0
   -0.5280    0.1760   -0.4910 C   0  0  0  0  0  0  0  0  0  0  0  0
    0.4120   -1.0040   -0.6430 C   0  0  0  0  0  0  0  0  0  0  0  0
    1.3920   -1.0450    0.4950 C   0  0  2  0  0  0  0  0  0  0  0  0
    2.2450    0.1800    0.5910 C   0  0  0  0  0  0  0  0  0  0  0  0
    3.2880    0.3010   -0.4660 C   0  0  0  0  0  0  0  0  0  0  0  0
    4.2110   -0.8670   -0.5720 C   0  0  0  0  0  0  0  0  0  0  0  0
    3.6150   -1.8640   -1.5330 C   0  0  0  0  0  0  0  0  0  0  0  0
    2.5820   -2.7470   -0.9230 C   0  0  0  0  0  0  0  0  0  0  0  0
    2.1510   -2.3290    0.4530 C   0  0  0  0  0  0  0  0  0  0  0  0
   -1.3310    0.2920    0.6080 O   0  0  0  0  0  0  0  0  0  0  0  0
   -2.2840   -0.6900    0.9650 C   0  0  0  0  0  0  0  0  0  0  0  0
   -3.0010   -0.2530    2.2270 C   0  0  1  0  0  0  0  0  0  0  0  0
   -4.0340   -1.2700    2.6530 C   0  0  0  0  0  0  0  0  0  0  0  0
   -2.0000   -0.1190    3.3810 C   0  0  0  0  0  0  0  0  0  0  0  0
  1  2  1  0
  2  3  2  3
  3  4  1  0
  3  6  1  0
  4  5  2  0
  6  7  2  3
  7  8  1  0
  7 16  1  0
  9  8  1  6
  9 10  1  0
  9 15  1  0
 10 11  1  0
 11 12  1  0
 12 13  1  0
 13 14  1  0
 14 15  1  0
 16 17  1  0
 17 18  1  0
 18 19  1  1
 18 20  1  0
M  END
