
     RDKit          3D

 20 19  0  0  0  0  0  0  0  0999 V2000
    6.1840    2.1150   -0.1250 C   0  0  0  0  0  0  0  0  0  0  0  0
    6.1060    0.6040    0.0050 C   0  0  0  0  0  0  0  0  0  0  0  0
    5.5390    0.2970    1.3640 C   0  0  0  0  0  0  0  0  0  0  0  0
    5.3840   -1.1290    1.6830 C   0  0  0  0  0  0  0  0  0  0  0  0
    4.5960   -2.0340    0.8550 C   0  0  0  0  0  0  0  0  0  0  0  0
    3.1420   -1.8010    0.6430 C   0  0  0  0  0  0  0  0  0  0  0  0
    2.7100   -0.5900   -0.0600 C   0  0  0  0  0  0  0  0  0  0  0  0
    1.1690   -0.5110   -0.1690 C   0  0  0  0  0  0  0  0  0  0  0  0
    0.6120   -1.6280   -0.9360 C   0  0  0  0  0  0  0  0  0  0  0  0
   -0.8500   -1.7340   -1.1500 C   0  0  0  0  0  0  0  0  0  0  0  0
   -1.5930   -0.7470   -1.9180 C   0  0  0  0  0  0  0  0  0  0  0  0
   -1.6200    0.6490   -1.4540 C   0  0  0  0  0  0  0  0  0  0  0  0
   -2.1190    0.8740   -0.0640 C   0  0  0  0  0  0  0  0  0  0  0  0
   -3.5140    0.4190    0.1870 C   0  0  0  0  0  0  0  0  0  0  0  0
   -4.5260    1.1130   -0.7020 C   0  0  0  0  0  0  0  0  0  0  0  0
   -5.9230    0.6530   -0.4450 C   0  0  0  0  0  0  0  0  0  0  0  0
   -6.3600    0.9110    0.9850 C   0  0  0  0  0  0  0  0  0  0  0  0
   -7.7620    0.4360    1.1980 C   0  0  0  0  0  0  0  0  0  0  0  0
   -8.3290    0.5510    2.3120 O   0  0  0  0  0  0  0  0  0  0  0  0
   -8.4880   -0.1510    0.1630 O   0  0  0  0  0  0  0  0  0  0  0  0
  1  2  1  0
  2  3  1  0
  3  4  1  0
  4  5  1  0
  5  6  1  0
  6  7  1  0
  7  8  1  0
  8  9  1  0
  9 10  1  0
 10 11  1  0
 11 12  1  0
 12 13  1  0
 13 14  1  0
 14 15  1  0
 15 16  1  0
 16 17  1  0
 17 18  1  0
 18 19  2  0
 18 20  1  0
M  END
