
     RDKit          3D

 20 20  0  0  0  0  0  0  0  0999 V2000
    3.6010   -2.5580    1.2860 C   0  0  0  0  0  0  0  0  0  0  0  0
    2.6370   -1.7830    0.8290 C   0  0  0  0  0  0  0  0  0  0  0  0
    2.8980   -0.3850    0.4810 C   0  0  0  0  0  0  0  0  0  0  0  0
    2.5940   -0.0690   -0.9910 C   0  0  2  0  0  0  0  0  0  0  0  0
    2.8930    1.3740   -1.2350 C   0  0  0  0  0  0  0  0  0  0  0  0
    4.3040    1.7320   -0.9690 C   0  0  0  0  0  0  0  0  0  0  0  0
    4.5940    2.6430   -0.0550 C   0  0  0  0  0  0  0  0  0  0  0  0
    1.2230   -0.4780   -1.2910 C   0  0  0  0  0  0  0  0  0  0  0  0
    1.0620   -1.3080   -2.1700 O   0  0  0  0  0  0  0  0  0  0  0  0
    0.0080    0.0220   -0.6260 C   0  0  0  0  0  0  0  0  0  0  0  0
   -1.1970   -0.6280   -1.2190 C   0  0  0  0  0  0  0  0  0  0  0  0
   -2.4760   -0.1880   -0.6080 C   0  0  0  0  0  0  0  0  0  0  0  0
   -3.2460    0.6940   -1.3350 C   0  0  0  0  0  0  0  0  0  0  0  0
   -4.4370    1.1290   -0.8150 C   0  0  0  0  0  0  0  0  0  0  0  0
   -4.8280    0.6640    0.4290 C   0  0  0  0  0  0  0  0  0  0  0  0
   -6.1000    1.1370    0.9670 C   0  0  0  0  0  0  0  0  0  0  0  0
   -6.4940    0.7390    2.1020 O   0  0  0  0  0  0  0  0  0  0  0  0
   -4.0640   -0.2160    1.1580 C   0  0  0  0  0  0  0  0  0  0  0  0
   -2.8700   -0.6390    0.6140 C   0  0  0  0  0  0  0  0  0  0  0  0
   -2.0410   -1.5890    1.3990 C   0  0  0  0  0  0  0  0  0  0  0  0
  1  2  2  0
  2  3  1  0
  4  3  1  1
  4  5  1  0
  4  8  1  0
  5  6  1  0
  6  7  2  0
  8  9  2  0
  8 10  1  0
 10 11  1  0
 11 12  1  0
 12 13  2  0
 12 19  1  0
 13 14  1  0
 14 15  2  0
 15 16  1  0
 15 18  1  0
 16 17  2  0
 18 19  2  0
 19 20  1  0
M  END
