
     RDKit          3D

 20 20  0  0  0  0  0  0  0  0999 V2000
   -5.6460    2.4690   -0.3910 C   0  0  0  0  0  0  0  0  0  0  0  0
   -5.6220    1.1610   -0.2860 C   0  0  0  0  0  0  0  0  0  0  0  0
   -4.3710    0.4250    0.0130 C   0  0  0  0  0  0  0  0  0  0  0  0
   -4.4090   -0.8870    0.1060 C   0  0  0  0  0  0  0  0  0  0  0  0
   -5.6690   -1.6630   -0.0820 C   0  0  0  0  0  0  0  0  0  0  0  0
   -3.1580    1.2240    0.1520 C   0  0  0  0  0  0  0  0  0  0  0  0
   -1.8810    0.4750    0.3420 C   0  0  2  0  0  0  0  0  0  0  0  0
   -0.8230    1.4270    0.5230 O   0  0  0  0  0  0  0  0  0  0  0  0
   -1.5170   -0.1710   -0.9860 C   0  0  0  0  0  0  0  0  0  0  0  0
   -0.2760   -0.9950   -0.9610 C   0  0  0  0  0  0  0  0  0  0  0  0
    0.9820   -0.2720   -0.5800 C   0  0  0  0  0  0  0  0  0  0  0  0
    2.0850   -1.2040   -0.6360 O   0  0  0  0  0  0  0  0  0  0  0  0
    3.3460   -0.7540   -0.3220 C   0  0  0  0  0  0  0  0  0  0  0  0
    3.5640    0.5520    0.0380 C   0  0  0  0  0  0  0  0  0  0  0  0
    4.8410    1.0150    0.3570 C   0  0  0  0  0  0  0  0  0  0  0  0
    5.0580    2.4280    0.7430 C   0  0  0  0  0  0  0  0  0  0  0  0
    5.8890    0.1230    0.3030 C   0  0  0  0  0  0  0  0  0  0  0  0
    5.6890   -1.1840   -0.0550 C   0  0  0  0  0  0  0  0  0  0  0  0
    4.4140   -1.6140   -0.3650 C   0  0  0  0  0  0  0  0  0  0  0  0
    4.2110   -3.0420   -0.7530 C   0  0  0  0  0  0  0  0  0  0  0  0
  1  2  2  0
  2  3  1  0
  3  4  2  3
  3  6  1  0
  4  5  1  0
  6  7  1  0
  7  8  1  6
  7  9  1  0
  9 10  1  0
 10 11  1  0
 11 12  1  0
 12 13  1  0
 13 14  2  0
 13 19  1  0
 14 15  1  0
 15 16  1  0
 15 17  2  0
 17 18  1  0
 18 19  2  0
 19 20  1  0
M  END
