
     RDKit          3D

 14 15  0  0  0  0  0  0  0  0999 V2000
    3.7990    0.6600    0.9730 C   0  0  0  0  0  0  0  0  0  0  0  0
    2.6570   -0.0880    0.4260 C   0  0  0  0  0  0  0  0  0  0  0  0
    1.9270    0.0800   -0.5840 N   0  0  0  0  0  0  0  0  0  0  0  0
    0.9000   -0.8210   -0.8470 C   0  0  1  0  0  0  0  0  0  0  0  0
    0.3300   -1.3640    0.4460 C   0  0  2  0  0  0  0  0  0  0  0  0
   -0.3150   -0.4700    1.2190 O   0  0  0  0  0  0  0  0  0  0  0  0
   -1.2340    0.3460    0.6790 C   0  0  2  0  0  0  0  0  0  0  0  0
   -2.6280   -0.2070    1.0080 C   0  0  0  0  0  0  0  0  0  0  0  0
   -3.6200    0.6160    0.4620 O   0  0  0  0  0  0  0  0  0  0  0  0
   -1.1060    0.6950   -0.7550 C   0  0  1  0  0  0  0  0  0  0  0  0
   -0.6840    2.0320   -0.9510 O   0  0  0  0  0  0  0  0  0  0  0  0
   -0.2480   -0.1850   -1.5760 C   0  0  2  0  0  0  0  0  0  0  0  0
   -0.9710   -1.2070   -2.1910 O   0  0  0  0  0  0  0  0  0  0  0  0
    1.9960   -1.5740    1.2460 S   0  0  0  0  0  0  0  0  0  0  0  0
  1  2  1  0
  2  3  2  0
  2 14  1  0
  4  3  1  1
  4  5  1  0
  4 12  1  0
  5  6  1  1
  5 14  1  0
  6  7  1  0
  7  8  1  6
  7 10  1  0
  8  9  1  0
 10 11  1  1
 10 12  1  0
 12 13  1  1
M  END
