
     RDKit          3D

 25 27  0  0  0  0  0  0  0  0999 V2000
    4.6610    0.2790    2.6250 C   0  0  0  0  0  0  0  0  0  0  0  0
    4.0630    0.2820    1.2470 C   0  0  0  0  0  0  0  0  0  0  0  0
    4.8030    0.3900    0.1280 C   0  0  0  0  0  0  0  0  0  0  0  0
    4.2020    0.3880   -1.1080 C   0  0  0  0  0  0  0  0  0  0  0  0
    5.0150    0.5080   -2.3640 C   0  0  0  0  0  0  0  0  0  0  0  0
    2.8400    0.2730   -1.1760 C   0  0  0  0  0  0  0  0  0  0  0  0
    2.2070    0.2730   -2.5290 C   0  0  0  0  0  0  0  0  0  0  0  0
    2.0360    0.1590   -0.0440 C   0  0  0  0  0  0  0  0  0  0  0  0
    0.6380    0.0460   -0.2200 N   0  0  0  0  0  0  0  0  0  0  0  0
   -0.3390   -0.0780    0.7960 C   0  0  0  0  0  0  0  0  0  0  0  0
    0.0090   -0.0950    1.9890 O   0  0  0  0  0  0  0  0  0  0  0  0
   -1.7480   -0.1870    0.4930 C   0  0  0  0  0  0  0  0  0  0  0  0
   -2.3100   -0.1860   -0.7600 C   0  0  0  0  0  0  0  0  0  0  0  0
   -3.6580   -0.2920   -1.0220 C   0  0  0  0  0  0  0  0  0  0  0  0
   -4.0700   -0.2730   -2.4110 C   0  0  0  0  0  0  0  0  0  0  0  0
   -3.1700   -0.1610   -3.3120 O   0  0  0  0  0  0  0  0  0  0  0  0
   -5.3470   -0.3630   -2.8970 O   0  0  0  0  0  0  0  0  0  0  0  0
   -4.5770   -0.4140    0.0570 C   0  0  0  0  0  0  0  0  0  0  0  0
   -5.9070   -0.5240   -0.0460 C   0  0  0  0  0  0  0  0  0  0  0  0
   -6.6440   -0.6340    1.1530 C   0  0  0  0  0  0  0  0  0  0  0  0
   -5.3510   -0.5720    2.3990 S   0  0  0  0  0  0  0  0  0  0  0  0
   -3.9910   -0.4110    1.2780 C   0  0  0  0  0  0  0  0  0  0  0  0
   -2.6480   -0.3060    1.5400 C   0  0  0  0  0  0  0  0  0  0  0  0
   -2.2230   -0.3220    2.8940 N   0  0  0  0  0  0  0  0  0  0  0  0
    2.6660    0.1660    1.1560 C   0  0  0  0  0  0  0  0  0  0  0  0
  1  2  1  0
  2  3  2  0
  2 25  1  0
  3  4  1  0
  4  5  1  0
  4  6  2  0
  6  7  1  0
  6  8  1  0
  8  9  1  0
  8 25  2  0
  9 10  1  0
 10 11  2  0
 10 12  1  0
 12 13  2  0
 12 23  1  0
 13 14  1  0
 14 15  1  0
 14 18  2  0
 15 16  2  0
 15 17  1  0
 18 19  1  0
 18 22  1  0
 19 20  2  0
 20 21  1  0
 21 22  1  0
 22 23  2  0
 23 24  1  0
M  END
