
     RDKit          3D

 25 27  0  0  0  0  0  0  0  0999 V2000
   -5.6090   -0.7490    1.0180 C   0  0  0  0  0  0  0  0  0  0  0  0
   -4.6820    0.1790    0.8090 C   0  0  0  0  0  0  0  0  0  0  0  0
   -5.0440    1.6110    0.8190 C   0  0  0  0  0  0  0  0  0  0  0  0
   -3.8540    2.4770    0.5700 C   0  0  0  0  0  0  0  0  0  0  0  0
   -2.6370    1.9930    1.3710 C   0  0  0  0  0  0  0  0  0  0  0  0
   -2.2860    0.6220    0.8560 C   0  0  0  0  0  0  0  0  0  0  0  0
   -1.0030    0.1970    0.6400 C   0  0  0  0  0  0  0  0  0  0  0  0
   -0.6810   -1.0760    0.1540 C   0  0  0  0  0  0  0  0  0  0  0  0
    1.0010   -1.5230   -0.0940 S   0  0  2  0  0  0  0  0  0  0  0  0
    1.1490   -1.8440   -1.5530 O   0  0  0  0  0  0  0  0  0  0  0  0
    1.3440   -2.6910    0.7650 O   0  0  0  0  0  0  0  0  0  0  0  0
    1.9600   -0.1830    0.3720 N   0  0  0  0  0  0  0  0  0  0  0  0
    2.6930    0.4630   -0.6610 C   0  0  1  0  0  0  0  0  0  0  0  0
    1.7250    0.8800   -1.7490 C   0  0  0  0  0  0  0  0  0  0  0  0
    3.2210    1.7620   -0.0680 C   0  0  0  0  0  0  0  0  0  0  0  0
    4.7070    1.8290    0.0180 C   0  0  0  0  0  0  0  0  0  0  0  0
    5.2230    0.5300    0.5670 C   0  0  0  0  0  0  0  0  0  0  0  0
    4.9800   -0.5670   -0.4290 C   0  0  0  0  0  0  0  0  0  0  0  0
    3.7820   -0.3430   -1.2960 C   0  0  0  0  0  0  0  0  0  0  0  0
   -1.6980   -1.9650   -0.1270 C   0  0  0  0  0  0  0  0  0  0  0  0
   -1.4920   -3.3100   -0.6270 C   0  0  0  0  0  0  0  0  0  0  0  0
   -2.6080   -4.1280   -0.8990 N   0  0  0  0  0  0  0  0  0  0  0  0
   -0.3610   -3.7620   -0.8220 O   0  0  0  0  0  0  0  0  0  0  0  0
   -3.0150   -1.5230    0.0960 C   0  0  0  0  0  0  0  0  0  0  0  0
   -3.3010   -0.2720    0.5730 C   0  0  0  0  0  0  0  0  0  0  0  0
  1  2  2  0
  2  3  1  0
  2 25  1  0
  3  4  1  0
  4  5  1  0
  5  6  1  0
  6  7  2  0
  6 25  1  0
  7  8  1  0
  8  9  1  0
  8 20  2  0
  9 10  2  0
  9 11  2  0
  9 12  1  1
 12 13  1  0
 13 14  1  6
 13 15  1  0
 13 19  1  0
 15 16  1  0
 16 17  1  0
 17 18  1  0
 18 19  1  0
 20 21  1  0
 20 24  1  0
 21 22  1  0
 21 23  2  0
 24 25  2  0
M  END
