
     RDKit          3D

 37 40  0  0  0  0  0  0  0  0999 V2000
    5.1470   -2.5490   -0.8610 C   0  0  0  0  0  0  0  0  0  0  0  0
    4.1990   -1.4570   -0.6290 C   0  0  0  0  0  0  0  0  0  0  0  0
    2.5080   -1.6150   -1.1460 S   0  0  0  0  0  0  0  0  0  0  0  0
    2.0680    0.1200   -0.4570 C   0  0  0  0  0  0  0  0  0  0  0  0
    0.5660    0.4740   -0.5920 C   0  0  1  0  0  0  0  0  0  0  0  0
    0.2990    1.1200   -1.8960 C   0  0  0  0  0  0  0  0  0  0  0  0
   -0.1200   -0.7400   -0.3280 N   0  0  0  0  0  0  0  0  0  0  0  0
   -1.4390   -0.9070    0.0440 C   0  0  0  0  0  0  0  0  0  0  0  0
   -2.3850    0.2030    0.0790 C   0  0  0  0  0  0  0  0  0  0  0  0
   -3.4510    0.0400   -0.8580 C   0  0  0  0  0  0  0  0  0  0  0  0
   -3.6440   -1.3450   -1.3630 C   0  0  0  0  0  0  0  0  0  0  0  0
   -4.1200   -2.1820   -0.2850 C   0  0  0  0  0  0  0  0  0  0  0  0
   -4.4040   -3.4950   -0.4960 C   0  0  0  0  0  0  0  0  0  0  0  0
   -4.2240   -4.0240   -1.7250 C   0  0  0  0  0  0  0  0  0  0  0  0
   -4.5160   -5.3210   -1.9170 F   0  0  0  0  0  0  0  0  0  0  0  0
   -3.7590   -3.2160   -2.7810 C   0  0  0  0  0  0  0  0  0  0  0  0
   -3.6060   -3.7740   -4.0020 F   0  0  0  0  0  0  0  0  0  0  0  0
   -3.4890   -1.8860   -2.5480 C   0  0  0  0  0  0  0  0  0  0  0  0
   -4.3370    0.9790   -1.0030 N   0  0  0  0  0  0  0  0  0  0  0  0
   -4.2650    2.1350   -0.2340 C   0  0  0  0  0  0  0  0  0  0  0  0
   -5.1160    3.0260   -0.3990 O   0  0  0  0  0  0  0  0  0  0  0  0
   -3.2950    2.2790    0.6510 N   0  0  0  0  0  0  0  0  0  0  0  0
   -3.3560    3.3860    1.6530 C   0  0  0  0  0  0  0  0  0  0  0  0
   -4.3950    2.8460    2.7190 C   0  0  0  0  0  0  0  0  0  0  0  0
   -5.5910    2.7700    2.0050 O   0  0  0  0  0  0  0  0  0  0  0  0
   -2.3300    1.3260    0.8270 C   0  0  0  0  0  0  0  0  0  0  0  0
   -1.4680    1.5850    1.6830 O   0  0  0  0  0  0  0  0  0  0  0  0
    3.1010    0.4400   -0.0420 N   0  0  0  0  0  0  0  0  0  0  0  0
    4.2380   -0.2320   -0.0560 C   0  0  0  0  0  0  0  0  0  0  0  0
    5.4650    0.2990    0.5740 C   0  0  0  0  0  0  0  0  0  0  0  0
    6.7130    0.2600    0.0240 C   0  0  0  0  0  0  0  0  0  0  0  0
    7.8330    0.7750    0.6510 C   0  0  0  0  0  0  0  0  0  0  0  0
    7.7080    1.3480    1.8860 C   0  0  0  0  0  0  0  0  0  0  0  0
    8.7800    1.8570    2.5400 F   0  0  0  0  0  0  0  0  0  0  0  0
    6.4300    1.4000    2.4970 C   0  0  0  0  0  0  0  0  0  0  0  0
    6.2890    1.9940    3.7400 F   0  0  0  0  0  0  0  0  0  0  0  0
    5.3810    0.8910    1.8380 C   0  0  0  0  0  0  0  0  0  0  0  0
  1  2  1  0
  2  3  1  0
  2 29  2  0
  3  4  1  0
  4  5  1  0
  4 28  2  0
  5  6  1  6
  5  7  1  0
  7  8  1  0
  8  9  1  0
  9 10  2  0
  9 26  1  0
 10 11  1  0
 10 19  1  0
 11 12  2  0
 11 18  1  0
 12 13  1  0
 13 14  2  0
 14 15  1  0
 14 16  1  0
 16 17  1  0
 16 18  2  0
 19 20  1  0
 20 21  2  0
 20 22  1  0
 22 23  1  0
 22 26  1  0
 23 24  1  0
 24 25  1  0
 26 27  2  0
 28 29  1  0
 29 30  1  0
 30 31  2  0
 30 37  1  0
 31 32  1  0
 32 33  2  0
 33 34  1  0
 33 35  1  0
 35 36  1  0
 35 37  2  0
M  CHG  1   7   1
M  END
