
     RDKit          3D

 36 39  0  0  0  0  0  0  0  0999 V2000
    1.4190   -2.4940   -2.2180 N   0  0  0  0  0  0  0  0  0  0  0  0
    1.7230   -1.3990   -1.3410 C   0  0  0  0  0  0  0  0  0  0  0  0
    0.5280   -0.7830   -0.7430 C   0  0  0  0  0  0  0  0  0  0  0  0
   -0.7410   -1.2230   -1.0110 C   0  0  0  0  0  0  0  0  0  0  0  0
   -1.8980   -0.6530   -0.4560 C   0  0  0  0  0  0  0  0  0  0  0  0
   -3.1920   -1.1900   -0.8020 C   0  0  0  0  0  0  0  0  0  0  0  0
   -4.2990   -0.6910   -0.3090 C   0  0  0  0  0  0  0  0  0  0  0  0
   -5.5890   -1.2770   -0.6950 C   0  0  0  0  0  0  0  0  0  0  0  0
   -5.6030   -2.2440   -1.4910 O   0  0  0  0  0  0  0  0  0  0  0  0
   -6.8080   -0.7410   -0.1640 C   0  0  0  0  0  0  0  0  0  0  0  0
   -7.9910   -1.3340   -0.5640 C   0  0  0  0  0  0  0  0  0  0  0  0
   -9.1900   -0.8930   -0.1110 C   0  0  0  0  0  0  0  0  0  0  0  0
   -9.2660    0.1670    0.7680 C   0  0  0  0  0  0  0  0  0  0  0  0
  -10.4680    0.5850    1.2010 F   0  0  0  0  0  0  0  0  0  0  0  0
   -8.1070    0.7650    1.1740 C   0  0  0  0  0  0  0  0  0  0  0  0
   -6.8590    0.3170    0.7120 C   0  0  0  0  0  0  0  0  0  0  0  0
   -1.6970    0.4010    0.3970 C   0  0  0  0  0  0  0  0  0  0  0  0
   -0.4020    0.8630    0.6820 C   0  0  0  0  0  0  0  0  0  0  0  0
    0.7130    0.2930    0.1290 C   0  0  0  0  0  0  0  0  0  0  0  0
    2.0110    0.7310    0.3940 N   0  0  0  0  0  0  0  0  0  0  0  0
    2.3490    1.7980    1.2470 C   0  0  0  0  0  0  0  0  0  0  0  0
    1.5540    2.6030    1.9650 N   0  0  0  0  0  0  0  0  0  0  0  0
    2.2510    3.5090    2.6590 C   0  0  0  0  0  0  0  0  0  0  0  0
    3.5620    3.2560    2.3560 C   0  0  0  0  0  0  0  0  0  0  0  0
    3.6300    2.2190    1.4990 N   0  0  0  0  0  0  0  0  0  0  0  0
    4.7980    1.6350    0.9340 C   0  0  0  0  0  0  0  0  0  0  0  0
    5.7030    2.3710    0.1950 C   0  0  0  0  0  0  0  0  0  0  0  0
    6.8310    1.7960   -0.3480 C   0  0  0  0  0  0  0  0  0  0  0  0
    7.6780    2.5630   -1.0580 F   0  0  0  0  0  0  0  0  0  0  0  0
    7.0780    0.4660   -0.1620 C   0  0  0  0  0  0  0  0  0  0  0  0
    8.1820   -0.0850   -0.6960 F   0  0  0  0  0  0  0  0  0  0  0  0
    6.2030   -0.3030    0.5670 C   0  0  0  0  0  0  0  0  0  0  0  0
    6.5080   -2.0080    0.8120 S   0  0  1  0  0  0  0  0  0  0  0  0
    6.2750   -2.7580   -0.4640 O   0  0  0  0  0  0  0  0  0  0  0  0
    7.9650   -2.2140    1.2000 O   0  0  0  0  0  0  0  0  0  0  0  0
    5.0620    0.2930    1.1120 C   0  0  0  0  0  0  0  0  0  0  0  0
  1  2  1  0
  2  3  1  0
  3  4  2  0
  3 19  1  0
  4  5  1  0
  5  6  1  0
  5 17  2  0
  6  7  2  3
  7  8  1  0
  8  9  2  0
  8 10  1  0
 10 11  2  0
 10 16  1  0
 11 12  1  0
 12 13  2  0
 13 14  1  0
 13 15  1  0
 15 16  2  0
 17 18  1  0
 18 19  2  0
 19 20  1  0
 20 21  1  0
 21 22  2  0
 21 25  1  0
 22 23  1  0
 23 24  2  0
 24 25  1  0
 25 26  1  0
 26 27  2  0
 26 36  1  0
 27 28  1  0
 28 29  1  0
 28 30  2  0
 30 31  1  0
 30 32  1  0
 33 32  1  6
 32 36  2  0
 33 34  2  0
 33 35  2  0
M  CHG  1   1   1
M  END
