
     RDKit          3D

 42 45  0  0  0  0  0  0  0  0999 V2000
   -5.2450   -5.6900    0.7990 C   0  0  0  0  0  0  0  0  0  0  0  0
   -5.4640   -4.7080    1.6850 C   0  0  0  0  0  0  0  0  0  0  0  0
   -6.7360   -4.1700    1.9430 O   0  0  0  0  0  0  0  0  0  0  0  0
   -6.6220   -3.1650    2.9160 C   0  0  0  0  0  0  0  0  0  0  0  0
   -5.1950   -3.1130    3.2500 C   0  0  0  0  0  0  0  0  0  0  0  0
   -4.5330   -4.0050    2.5320 C   0  0  0  0  0  0  0  0  0  0  0  0
   -3.1520   -4.2220    2.5950 O   0  0  0  0  0  0  0  0  0  0  0  0
   -2.3160   -3.9050    1.5270 C   0  0  0  0  0  0  0  0  0  0  0  0
   -2.4270   -2.4430    1.2080 C   0  0  0  0  0  0  0  0  0  0  0  0
   -3.1780   -1.7240    1.9090 O   0  0  0  0  0  0  0  0  0  0  0  0
   -1.6880   -1.8900    0.1200 N   0  0  0  0  0  0  0  0  0  0  0  0
   -1.8400   -0.5010   -0.1390 C   0  0  0  0  0  0  0  0  0  0  0  0
   -2.8500    0.5820    0.8120 S   0  0  0  0  0  0  0  0  0  0  0  0
   -2.5410    2.0730   -0.1360 C   0  0  0  0  0  0  0  0  0  0  0  0
   -3.1480    3.3280    0.1970 C   0  0  0  0  0  0  0  0  0  0  0  0
   -2.9480    4.4860   -0.3270 C   0  0  0  0  0  0  0  0  0  0  0  0
   -3.7160    5.6660    0.1980 C   0  0  0  0  0  0  0  0  0  0  0  0
   -3.5390    6.7910   -0.2730 O   0  0  0  0  0  0  0  0  0  0  0  0
   -4.6280    5.4800    1.2210 O   0  0  0  0  0  0  0  0  0  0  0  0
   -5.3490    6.5800    1.7200 C   0  0  0  0  0  0  0  0  0  0  0  0
   -1.6890    1.6170   -1.1000 C   0  0  0  0  0  0  0  0  0  0  0  0
   -1.1810    2.6340   -2.1220 C   0  0  0  0  0  0  0  0  0  0  0  0
   -1.3280    0.3210   -1.1130 C   0  0  0  0  0  0  0  0  0  0  0  0
   -0.3800   -0.2910   -2.0990 C   0  0  0  0  0  0  0  0  0  0  0  0
   -0.0280   -1.5070   -1.9960 O   0  0  0  0  0  0  0  0  0  0  0  0
    0.1770    0.3560   -3.1680 O   0  0  0  0  0  0  0  0  0  0  0  0
    1.0670   -0.2100   -4.0880 C   0  0  0  0  0  0  0  0  0  0  0  0
    2.3840   -0.5300   -3.5620 C   0  0  0  0  0  0  0  0  0  0  0  0
    3.1600   -1.2400   -4.2370 O   0  0  0  0  0  0  0  0  0  0  0  0
    2.8240   -0.0440   -2.2990 N   0  0  0  0  0  0  0  0  0  0  0  0
    4.1460   -0.3120   -1.8280 C   0  0  0  0  0  0  0  0  0  0  0  0
    4.9040    0.0000   -0.8870 N   0  0  0  0  0  0  0  0  0  0  0  0
    6.1160   -0.3850   -0.6720 C   0  0  0  0  0  0  0  0  0  0  0  0
    6.8710    0.0890    0.5230 C   0  0  0  0  0  0  0  0  0  0  0  0
    7.9650   -0.3720    1.0580 C   0  0  0  0  0  0  0  0  0  0  0  0
    8.3870    0.4140    2.2580 C   0  0  0  0  0  0  0  0  0  0  0  0
    7.3270    1.4390    2.3410 C   0  0  0  0  0  0  0  0  0  0  0  0
    6.4980    1.2410    1.3690 C   0  0  0  0  0  0  0  0  0  0  0  0
    6.6700   -1.2480   -1.5890 C   0  0  0  0  0  0  0  0  0  0  0  0
    7.9360   -1.7610   -1.9440 C   0  0  0  0  0  0  0  0  0  0  0  0
    9.0230   -1.3100   -1.5800 O   0  0  0  0  0  0  0  0  0  0  0  0
    5.2490   -1.4550   -2.7880 S   0  0  0  0  0  0  0  0  0  0  0  0
  1  2  2  0
  2  3  1  0
  2  6  1  0
  3  4  1  0
  4  5  1  0
  5  6  2  0
  6  7  1  0
  7  8  1  0
  8  9  1  0
  9 10  2  0
  9 11  1  0
 11 12  1  0
 12 13  1  0
 12 23  2  0
 13 14  1  0
 14 15  1  0
 14 21  2  0
 15 16  2  3
 16 17  1  0
 17 18  2  0
 17 19  1  0
 19 20  1  0
 21 22  1  0
 21 23  1  0
 23 24  1  0
 24 25  2  0
 24 26  1  0
 26 27  1  0
 27 28  1  0
 28 29  2  0
 28 30  1  0
 30 31  1  0
 31 32  2  0
 31 42  1  0
 32 33  1  0
 33 34  1  0
 33 39  2  0
 34 35  2  0
 34 38  1  0
 35 36  1  0
 36 37  1  0
 37 38  2  0
 39 40  1  0
 39 42  1  0
 40 41  2  0
M  END
