
     RDKit          3D

 42 45  0  0  0  0  0  0  0  0999 V2000
   -5.4270   -6.5860   -0.6850 C   0  0  0  0  0  0  0  0  0  0  0  0
   -4.8130   -6.6070    0.7190 C   0  0  0  0  0  0  0  0  0  0  0  0
   -3.7470   -5.6490    0.8490 N   0  0  0  0  0  0  0  0  0  0  0  0
   -3.8690   -4.2580    0.6670 C   0  0  0  0  0  0  0  0  0  0  0  0
   -4.9960   -3.7840    0.3590 O   0  0  0  0  0  0  0  0  0  0  0  0
   -2.7250   -3.3440    0.8230 C   0  0  0  0  0  0  0  0  0  0  0  0
   -3.0580   -1.9320    0.3960 C   0  0  0  0  0  0  0  0  0  0  0  0
   -1.9240   -1.0930    0.5930 O   0  0  0  0  0  0  0  0  0  0  0  0
   -1.9920    0.2300    0.2240 C   0  0  0  0  0  0  0  0  0  0  0  0
   -3.1210    0.7700   -0.3490 C   0  0  0  0  0  0  0  0  0  0  0  0
   -3.1860    2.1140   -0.7270 C   0  0  0  0  0  0  0  0  0  0  0  0
   -2.1150    2.9510   -0.5380 C   0  0  0  0  0  0  0  0  0  0  0  0
   -2.0940    4.3170   -0.9010 N   0  0  0  0  0  0  0  0  0  0  0  0
   -3.1450    5.0630   -1.4540 C   0  0  0  0  0  0  0  0  0  0  0  0
   -4.2500    4.5080   -1.6800 O   0  0  0  0  0  0  0  0  0  0  0  0
   -2.9610    6.5140   -1.7810 C   0  0  0  0  0  0  0  0  0  0  0  0
   -1.4900    7.2340   -1.0480 S   0  0  0  0  0  0  0  0  0  0  0  0
   -1.7330    7.4290    0.7280 C   0  0  0  0  0  0  0  0  0  0  0  0
   -1.8390    6.2120    1.3580 O   0  0  0  0  0  0  0  0  0  0  0  0
   -0.9820    2.3710    0.0480 C   0  0  0  0  0  0  0  0  0  0  0  0
    0.1110    3.2010    0.2490 O   0  0  0  0  0  0  0  0  0  0  0  0
   -0.9080    1.0590    0.4210 C   0  0  0  0  0  0  0  0  0  0  0  0
    0.2230    0.5390    0.9920 O   0  0  0  0  0  0  0  0  0  0  0  0
    1.1570   -0.2870    0.3920 C   0  0  0  0  0  0  0  0  0  0  0  0
    0.9830   -0.6060   -0.7930 O   0  0  0  0  0  0  0  0  0  0  0  0
    2.2730   -0.7060    1.2510 C   0  0  0  0  0  0  0  0  0  0  0  0
    1.8750   -1.1310    2.5250 C   0  0  0  0  0  0  0  0  0  0  0  0
    2.6760   -1.8080    3.3970 C   0  0  0  0  0  0  0  0  0  0  0  0
    2.2170   -2.2480    4.7470 C   0  0  0  0  0  0  0  0  0  0  0  0
    3.9140   -2.0620    2.9600 N   0  0  0  0  0  0  0  0  0  0  0  0
    4.3130   -1.6620    1.7540 C   0  0  0  0  0  0  0  0  0  0  0  0
    5.8490   -1.9440    0.9500 S   0  0  0  0  0  0  0  0  0  0  0  0
    5.4690   -1.1350   -0.5660 C   0  0  0  0  0  0  0  0  0  0  0  0
    6.3620   -1.0150   -1.7060 C   0  0  0  0  0  0  0  0  0  0  0  0
    7.5210   -1.5130   -1.6760 O   0  0  0  0  0  0  0  0  0  0  0  0
    5.9850   -0.3640   -2.8450 O   0  0  0  0  0  0  0  0  0  0  0  0
    6.8540   -0.2390   -3.9730 C   0  0  0  0  0  0  0  0  0  0  0  0
    4.1640   -0.6880   -0.3570 C   0  0  0  0  0  0  0  0  0  0  0  0
    3.6320    0.1600   -1.5310 C   0  0  2  0  0  0  0  0  0  0  0  0
    4.2420    1.5160   -1.7300 C   0  0  0  0  0  0  0  0  0  0  0  0
    2.9590    1.4170   -1.0570 C   0  0  0  0  0  0  0  0  0  0  0  0
    3.5820   -0.9690    0.8120 C   0  0  0  0  0  0  0  0  0  0  0  0
  1  2  1  0
  2  3  1  0
  3  4  1  0
  4  5  2  0
  4  6  1  0
  6  7  1  0
  7  8  1  0
  8  9  1  0
  9 10  2  0
  9 22  1  0
 10 11  1  0
 11 12  2  0
 12 13  1  0
 12 20  1  0
 13 14  1  0
 14 15  2  0
 14 16  1  0
 16 17  1  0
 17 18  1  0
 18 19  1  0
 20 21  1  0
 20 22  2  0
 22 23  1  0
 23 24  1  0
 24 25  2  0
 24 26  1  0
 26 27  2  0
 26 42  1  0
 27 28  1  0
 28 29  1  0
 28 30  2  0
 30 31  1  0
 31 32  1  0
 31 42  2  0
 32 33  1  0
 33 34  1  0
 33 38  2  0
 34 35  2  0
 34 36  1  0
 36 37  1  0
 39 38  1  1
 38 42  1  0
 39 40  1  0
 39 41  1  0
 40 41  1  0
M  END
