
     RDKit          3D

 35 37  0  0  0  0  0  0  0  0999 V2000
   -4.0600   -2.3570    0.2040 C   0  0  0  0  0  0  0  0  0  0  0  0
   -4.2490   -0.9910    0.8350 C   0  0  2  0  0  0  0  0  0  0  0  0
   -5.2590   -0.2650    0.0250 C   0  0  0  0  0  0  0  0  0  0  0  0
   -2.9780   -0.3060    1.1440 C   0  0  0  0  0  0  0  0  0  0  0  0
   -2.0910   -0.0300    0.0660 N   0  0  0  0  0  0  0  0  0  0  0  0
   -0.7900   -0.5930    0.3680 C   0  0  0  0  0  0  0  0  0  0  0  0
   -0.1340   -1.2760   -0.7810 C   0  0  1  0  0  0  0  0  0  0  0  0
    0.0470   -0.3800   -1.8710 O   0  0  0  0  0  0  0  0  0  0  0  0
    1.2390   -1.7900   -0.4090 C   0  0  2  0  0  0  0  0  0  0  0  0
    1.1380   -2.8440    0.6280 C   0  0  0  0  0  0  0  0  0  0  0  0
    2.4300   -3.4130    1.0390 C   0  0  0  0  0  0  0  0  0  0  0  0
    2.9510   -4.4980    0.4030 C   0  0  0  0  0  0  0  0  0  0  0  0
    4.1720   -5.0640    0.7650 C   0  0  0  0  0  0  0  0  0  0  0  0
    4.8850   -4.5200    1.7980 C   0  0  0  0  0  0  0  0  0  0  0  0
    4.3730   -3.4110    2.4650 C   0  0  0  0  0  0  0  0  0  0  0  0
    3.1440   -2.8680    2.0750 C   0  0  0  0  0  0  0  0  0  0  0  0
    2.1180   -0.7130   -0.0000 N   0  0  0  0  0  0  0  0  0  0  0  0
    3.2570   -0.3100   -0.7510 C   0  0  0  0  0  0  0  0  0  0  0  0
    3.5480   -0.9040   -1.8430 O   0  0  0  0  0  0  0  0  0  0  0  0
    4.0530    0.7150   -0.3170 O   0  0  0  0  0  0  0  0  0  0  0  0
    5.2000    1.1740   -1.0050 C   0  0  1  0  0  0  0  0  0  0  0  0
    5.0250    2.6500   -1.3530 C   0  0  0  0  0  0  0  0  0  0  0  0
    5.8260    3.3160   -0.2630 C   0  0  0  0  0  0  0  0  0  0  0  0
    6.7990    2.4330    0.1330 O   0  0  0  0  0  0  0  0  0  0  0  0
    6.3560    1.1460   -0.0370 C   0  0  0  0  0  0  0  0  0  0  0  0
   -1.9490    1.6320   -0.2350 S   0  0  1  0  0  0  0  0  0  0  0  0
   -1.3280    2.3370    0.9840 O   0  0  0  0  0  0  0  0  0  0  0  0
   -0.9420    1.9310   -1.3450 O   0  0  0  0  0  0  0  0  0  0  0  0
   -3.4040    2.4500   -0.6920 C   0  0  0  0  0  0  0  0  0  0  0  0
   -3.9100    2.5320   -1.9530 C   0  0  0  0  0  0  0  0  0  0  0  0
   -5.0700    3.2270   -2.2170 C   0  0  0  0  0  0  0  0  0  0  0  0
   -5.7890    3.8820   -1.2270 C   0  0  0  0  0  0  0  0  0  0  0  0
   -6.9800    4.5930   -1.5100 N   0  0  0  0  0  0  0  0  0  0  0  0
   -5.2720    3.7970    0.0550 C   0  0  0  0  0  0  0  0  0  0  0  0
   -4.1110    3.1010    0.3210 C   0  0  0  0  0  0  0  0  0  0  0  0
  2  1  1  6
  2  3  1  0
  2  4  1  0
  4  5  1  0
  5  6  1  0
 26  5  1  1
  6  7  1  0
  7  8  1  6
  7  9  1  0
  9 10  1  1
  9 17  1  0
 10 11  1  0
 11 12  2  0
 11 16  1  0
 12 13  1  0
 13 14  2  0
 14 15  1  0
 15 16  2  0
 17 18  1  0
 18 19  2  0
 18 20  1  0
 21 20  1  1
 21 22  1  0
 21 25  1  0
 22 23  1  0
 23 24  1  0
 24 25  1  0
 26 27  2  0
 26 28  2  0
 26 29  1  0
 29 30  2  0
 29 35  1  0
 30 31  1  0
 31 32  2  0
 32 33  1  0
 32 34  1  0
 34 35  2  0
M  END
