
     RDKit          3D

 34 37  0  0  0  0  0  0  0  0999 V2000
    6.5200   -2.4960   -0.6740 C   0  0  0  0  0  0  0  0  0  0  0  0
    6.4130   -1.5350    0.4610 C   0  0  0  0  0  0  0  0  0  0  0  0
    5.3740   -0.6910    0.5220 N   0  0  0  0  0  0  0  0  0  0  0  0
    5.2630    0.1950    1.5560 C   0  0  0  0  0  0  0  0  0  0  0  0
    4.1190    1.1370    1.6410 C   0  0  0  0  0  0  0  0  0  0  0  0
    3.1890    0.9150    0.5230 N   0  0  0  0  0  0  0  0  0  0  0  0
    3.4980    1.3700   -0.7730 C   0  0  0  0  0  0  0  0  0  0  0  0
    4.6650    1.9880   -0.8560 O   0  0  0  0  0  0  0  0  0  0  0  0
    2.7780    1.2800   -1.9920 C   0  0  0  0  0  0  0  0  0  0  0  0
    1.7120    0.8440   -2.4690 C   0  0  0  0  0  0  0  0  0  0  0  0
    0.5150    0.1350   -2.0540 C   0  0  0  0  0  0  0  0  0  0  0  0
    0.0750   -0.3650   -0.8740 C   0  0  0  0  0  0  0  0  0  0  0  0
   -1.1760   -0.9640   -1.0460 C   0  0  0  0  0  0  0  0  0  0  0  0
   -1.9690   -1.6080   -0.0200 C   0  0  0  0  0  0  0  0  0  0  0  0
   -2.6130   -2.1280    0.7960 N   0  0  0  0  0  0  0  0  0  0  0  0
   -1.4490   -0.7950   -2.3700 C   0  0  0  0  0  0  0  0  0  0  0  0
   -2.9600   -1.3810   -3.1750 S   0  0  0  0  0  0  0  0  0  0  0  0
   -4.2220   -0.0810   -3.0790 C   0  0  0  0  0  0  0  0  0  0  0  0
   -4.6320    0.1470   -1.6630 C   0  0  0  0  0  0  0  0  0  0  0  0
   -3.9360    1.0870   -0.9200 C   0  0  0  0  0  0  0  0  0  0  0  0
   -4.2410    1.3680    0.3940 C   0  0  0  0  0  0  0  0  0  0  0  0
   -5.2860    0.6720    0.9740 C   0  0  0  0  0  0  0  0  0  0  0  0
   -5.6240    0.9240    2.2860 C   0  0  0  0  0  0  0  0  0  0  0  0
   -6.6680    0.2230    2.8500 C   0  0  0  0  0  0  0  0  0  0  0  0
   -7.3720   -0.7140    2.1340 C   0  0  0  0  0  0  0  0  0  0  0  0
   -8.7040   -1.5920    2.8880 Cl  0  0  0  0  0  0  0  0  0  0  0  0
   -7.0040   -0.9360    0.8250 C   0  0  0  0  0  0  0  0  0  0  0  0
   -5.9600   -0.2550    0.2130 C   0  0  0  0  0  0  0  0  0  0  0  0
   -5.6340   -0.5110   -1.0860 N   0  0  0  0  0  0  0  0  0  0  0  0
   -0.4800   -0.1710   -2.9240 O   0  0  0  0  0  0  0  0  0  0  0  0
    6.2580    0.1610    2.4980 C   0  0  0  0  0  0  0  0  0  0  0  0
    7.3030   -0.7240    2.3890 C   0  0  0  0  0  0  0  0  0  0  0  0
    8.2290   -0.7730    3.2430 O   0  0  0  0  0  0  0  0  0  0  0  0
    7.3790   -1.5750    1.3650 O   0  0  0  0  0  0  0  0  0  0  0  0
  1  2  1  0
  2  3  2  0
  2 34  1  0
  3  4  1  0
  4  5  1  0
  4 31  2  0
  5  6  1  0
  6  7  1  0
  7  8  2  0
  7  9  1  0
  9 10  2  3
 10 11  1  0
 11 12  2  0
 11 30  1  0
 12 13  1  0
 13 14  1  0
 13 16  2  0
 14 15  3  0
 16 17  1  0
 16 30  1  0
 17 18  1  0
 18 19  1  0
 19 20  2  0
 19 29  1  0
 20 21  1  0
 21 22  2  0
 22 23  1  0
 22 28  1  0
 23 24  2  0
 24 25  1  0
 25 26  1  0
 25 27  2  0
 27 28  1  0
 28 29  2  0
 31 32  1  0
 32 33  2  0
 32 34  1  0
M  END
