
     RDKit          3D

 34 37  0  0  0  0  0  0  0  0999 V2000
    7.6060   -0.6010   -0.2700 C   0  0  0  0  0  0  0  0  0  0  0  0
    6.7970   -0.4830    0.7480 C   0  0  0  0  0  0  0  0  0  0  0  0
    7.1840    0.4200    1.8720 C   0  0  0  0  0  0  0  0  0  0  0  0
    6.5230    0.1070    3.0720 O   0  0  0  0  0  0  0  0  0  0  0  0
    5.3320   -0.5890    3.1120 C   0  0  0  0  0  0  0  0  0  0  0  0
    4.6930   -0.6180    4.1920 O   0  0  0  0  0  0  0  0  0  0  0  0
    4.8690   -1.2550    1.9060 C   0  0  0  0  0  0  0  0  0  0  0  0
    5.5460   -1.2170    0.7810 C   0  0  0  0  0  0  0  0  0  0  0  0
    5.0850   -1.8940   -0.4480 C   0  0  0  0  0  0  0  0  0  0  0  0
    4.8420   -0.6710   -1.7930 S   0  0  0  0  0  0  0  0  0  0  0  0
    3.4720    0.4150   -1.3890 C   0  0  0  0  0  0  0  0  0  0  0  0
    2.1950    0.0390   -1.8200 C   0  0  0  0  0  0  0  0  0  0  0  0
    1.0630    0.7690   -1.5810 C   0  0  0  0  0  0  0  0  0  0  0  0
   -0.2800    0.4140   -2.0220 C   0  0  0  0  0  0  0  0  0  0  0  0
   -0.4760   -0.7290   -2.7570 C   0  0  0  0  0  0  0  0  0  0  0  0
   -1.7580   -1.0770   -3.1980 C   0  0  0  0  0  0  0  0  0  0  0  0
   -2.7730   -0.2060   -2.8440 C   0  0  0  0  0  0  0  0  0  0  0  0
   -3.9620   -0.4770   -3.2220 O   0  0  0  0  0  0  0  0  0  0  0  0
   -2.5640    0.9000   -2.1280 N   0  0  0  0  0  0  0  0  0  0  0  0
   -3.6640    1.7850   -1.7880 C   0  0  0  0  0  0  0  0  0  0  0  0
   -4.2930    1.3590   -0.4930 C   0  0  0  0  0  0  0  0  0  0  0  0
   -3.7450    1.7360    0.5430 O   0  0  0  0  0  0  0  0  0  0  0  0
   -5.4560    0.5630   -0.4640 N   0  0  0  0  0  0  0  0  0  0  0  0
   -6.1400    0.0880    0.6810 C   0  0  0  0  0  0  0  0  0  0  0  0
   -7.4160   -0.4510    0.4940 C   0  0  0  0  0  0  0  0  0  0  0  0
   -8.1200   -0.9370    1.5590 C   0  0  0  0  0  0  0  0  0  0  0  0
   -7.5810   -0.9030    2.8440 C   0  0  0  0  0  0  0  0  0  0  0  0
   -8.4570   -1.5150    4.2150 Cl  0  0  0  0  0  0  0  0  0  0  0  0
   -6.3360   -0.3740    3.0030 C   0  0  0  0  0  0  0  0  0  0  0  0
   -5.6320    0.1100    1.9480 C   0  0  0  0  0  0  0  0  0  0  0  0
   -1.3300    1.2030   -1.7240 N   0  0  0  0  0  0  0  0  0  0  0  0
    1.2380    1.9570   -0.8560 C   0  0  0  0  0  0  0  0  0  0  0  0
    2.5040    2.2850   -0.4560 C   0  0  0  0  0  0  0  0  0  0  0  0
    3.6070    1.5560   -0.7000 N   0  0  0  0  0  0  0  0  0  0  0  0
  1  2  2  0
  2  3  1  0
  2  8  1  0
  3  4  1  0
  4  5  1  0
  5  6  2  0
  5  7  1  0
  7  8  2  0
  8  9  1  0
  9 10  1  0
 10 11  1  0
 11 12  2  0
 11 34  1  0
 12 13  1  0
 13 14  1  0
 13 32  2  0
 14 15  1  0
 14 31  2  0
 15 16  2  0
 16 17  1  0
 17 18  2  0
 17 19  1  0
 19 20  1  0
 19 31  1  0
 20 21  1  0
 21 22  2  0
 21 23  1  0
 23 24  1  0
 24 25  2  0
 24 30  1  0
 25 26  1  0
 26 27  2  0
 27 28  1  0
 27 29  1  0
 29 30  2  0
 32 33  1  0
 33 34  2  0
M  END
