
     RDKit          3D

 34 37  0  0  0  0  0  0  0  0999 V2000
   -6.8650    1.7260   -1.0480 C   0  0  0  0  0  0  0  0  0  0  0  0
   -6.9400    0.6420   -1.8050 C   0  0  0  0  0  0  0  0  0  0  0  0
   -5.7880    0.1250   -2.5860 C   0  0  0  0  0  0  0  0  0  0  0  0
   -5.5060   -1.2490   -2.1040 C   0  0  0  0  0  0  0  0  0  0  0  0
   -6.0990   -2.3520   -2.6730 C   0  0  0  0  0  0  0  0  0  0  0  0
   -5.8130   -3.6110   -2.2000 C   0  0  0  0  0  0  0  0  0  0  0  0
   -4.9120   -3.7270   -1.1350 C   0  0  0  0  0  0  0  0  0  0  0  0
   -4.6200   -4.9870   -0.6400 C   0  0  0  0  0  0  0  0  0  0  0  0
   -5.3600   -6.3920   -1.3470 Cl  0  0  0  0  0  0  0  0  0  0  0  0
   -3.7460   -5.1310    0.4080 C   0  0  0  0  0  0  0  0  0  0  0  0
   -3.1450   -4.0430    0.9880 C   0  0  0  0  0  0  0  0  0  0  0  0
   -3.4110   -2.7430    0.5190 C   0  0  0  0  0  0  0  0  0  0  0  0
   -2.7400   -1.6130    1.1350 C   0  0  0  0  0  0  0  0  0  0  0  0
   -2.0960   -1.8720    2.2220 O   0  0  0  0  0  0  0  0  0  0  0  0
   -2.6690   -0.3220    0.7640 O   0  0  0  0  0  0  0  0  0  0  0  0
   -2.0180    0.7450    1.3770 C   0  0  0  0  0  0  0  0  0  0  0  0
   -0.5590    0.5740    1.5130 C   0  0  0  0  0  0  0  0  0  0  0  0
    0.1350    0.0740    2.5420 N   0  0  0  0  0  0  0  0  0  0  0  0
    1.4380    0.0980    2.2500 N   0  0  0  0  0  0  0  0  0  0  0  0
    1.5730    0.6220    1.0150 C   0  0  0  0  0  0  0  0  0  0  0  0
    3.1460    0.8500    0.1970 S   0  0  0  0  0  0  0  0  0  0  0  0
    3.7450    2.5280    0.6410 C   0  0  1  0  0  0  0  0  0  0  0  0
    4.0370    2.5420    2.1150 C   0  0  0  0  0  0  0  0  0  0  0  0
    4.8600    2.9370   -0.2130 C   0  0  0  0  0  0  0  0  0  0  0  0
    4.7620    3.9940   -0.9210 O   0  0  0  0  0  0  0  0  0  0  0  0
    6.0830    2.2230   -0.3180 N   0  0  0  0  0  0  0  0  0  0  0  0
    6.3580    1.0040    0.4170 C   0  0  0  0  0  0  0  0  0  0  0  0
    7.8860    0.9270    0.5460 C   0  0  0  0  0  0  0  0  0  0  0  0
    8.4320    0.6750   -0.7110 O   0  0  0  0  0  0  0  0  0  0  0  0
    7.8310    1.4010   -1.7090 C   0  0  0  0  0  0  0  0  0  0  0  0
    7.1670    2.6760   -1.1890 C   0  0  0  0  0  0  0  0  0  0  0  0
    0.3410    0.9100    0.5730 N   0  0  0  0  0  0  0  0  0  0  0  0
   -4.3000   -2.6260   -0.5440 C   0  0  0  0  0  0  0  0  0  0  0  0
   -4.6160   -1.3770   -1.0500 C   0  0  0  0  0  0  0  0  0  0  0  0
  1  2  2  0
  2  3  1  0
  3  4  1  0
  4  5  2  0
  4 34  1  0
  5  6  1  0
  6  7  2  0
  7  8  1  0
  7 33  1  0
  8  9  1  0
  8 10  2  0
 10 11  1  0
 11 12  2  0
 12 13  1  0
 12 33  1  0
 13 14  2  0
 13 15  1  0
 15 16  1  0
 16 17  1  0
 17 18  2  0
 17 32  1  0
 18 19  1  0
 19 20  2  0
 20 21  1  0
 20 32  1  0
 21 22  1  0
 22 23  1  1
 22 24  1  0
 24 25  2  0
 24 26  1  0
 26 27  1  0
 26 31  1  0
 27 28  1  0
 28 29  1  0
 29 30  1  0
 30 31  1  0
 33 34  2  0
M  END
