
     RDKit          3D

 34 37  0  0  0  0  0  0  0  0999 V2000
   -4.5190   -3.5300    0.5530 C   0  0  0  0  0  0  0  0  0  0  0  0
   -5.2250   -2.2010    0.1980 C   0  0  0  0  0  0  0  0  0  0  0  0
   -4.2550   -1.3800   -0.5870 C   0  0  2  0  0  0  0  0  0  0  0  0
   -3.0440   -1.1230    0.2650 C   0  0  0  0  0  0  0  0  0  0  0  0
   -1.9140   -1.5400   -0.0910 O   0  0  0  0  0  0  0  0  0  0  0  0
   -3.1390   -0.4110    1.4850 N   0  0  0  0  0  0  0  0  0  0  0  0
   -2.0110   -0.1460    2.3270 C   0  0  0  0  0  0  0  0  0  0  0  0
   -0.9710    0.6600    1.6250 C   0  0  0  0  0  0  0  0  0  0  0  0
   -0.3970    0.6600    0.6070 N   0  0  0  0  0  0  0  0  0  0  0  0
    0.5160    1.4460    0.1310 C   0  0  0  0  0  0  0  0  0  0  0  0
    1.1940    1.3070   -1.1960 C   0  0  0  0  0  0  0  0  0  0  0  0
    2.4950    0.6490   -1.0790 C   0  0  0  0  0  0  0  0  0  0  0  0
    2.4790   -0.5770   -0.7480 O   0  0  0  0  0  0  0  0  0  0  0  0
    3.7410    1.1910   -1.2820 O   0  0  0  0  0  0  0  0  0  0  0  0
    4.9030    0.4010   -1.1310 C   0  0  0  0  0  0  0  0  0  0  0  0
    5.7410    0.1520   -2.2120 C   0  0  0  0  0  0  0  0  0  0  0  0
    5.3220    0.8500   -3.7620 Cl  0  0  0  0  0  0  0  0  0  0  0  0
    6.8720   -0.6070   -2.1180 C   0  0  0  0  0  0  0  0  0  0  0  0
    7.2210   -1.1630   -0.9080 C   0  0  0  0  0  0  0  0  0  0  0  0
    6.3920   -0.9250    0.1930 C   0  0  0  0  0  0  0  0  0  0  0  0
    5.2590   -0.1620    0.0880 C   0  0  0  0  0  0  0  0  0  0  0  0
    4.6220   -0.1160    1.3850 C   0  0  0  0  0  0  0  0  0  0  0  0
    5.3230   -0.8140    2.2590 C   0  0  0  0  0  0  0  0  0  0  0  0
    6.5040   -1.3860    1.5900 C   0  0  0  0  0  0  0  0  0  0  0  0
    0.8740    2.4760    0.9940 C   0  0  0  0  0  0  0  0  0  0  0  0
    1.8160    3.5770    0.9060 C   0  0  0  0  0  0  0  0  0  0  0  0
   -0.2150    2.1660    2.4760 S   0  0  0  0  0  0  0  0  0  0  0  0
   -4.8110   -0.1520   -1.1050 N   0  0  0  0  0  0  0  0  0  0  0  0
   -4.0740    0.5440   -2.0310 C   0  0  0  0  0  0  0  0  0  0  0  0
   -4.5580    1.6730   -2.5250 N   0  0  0  0  0  0  0  0  0  0  0  0
   -5.7460    2.1720   -2.1600 C   0  0  0  0  0  0  0  0  0  0  0  0
   -6.4800    1.4840   -1.2410 C   0  0  0  0  0  0  0  0  0  0  0  0
   -5.9890    0.2960   -0.7090 C   0  0  0  0  0  0  0  0  0  0  0  0
   -6.7430   -0.2820    0.1440 O   0  0  0  0  0  0  0  0  0  0  0  0
  1  2  1  0
  3  2  1  1
  3  4  1  0
  3 28  1  0
  4  5  2  0
  4  6  1  0
  6  7  1  0
  7  8  1  0
  8  9  2  0
  8 27  1  0
  9 10  1  0
 10 11  1  0
 10 25  2  0
 11 12  1  0
 12 13  2  0
 12 14  1  0
 14 15  1  0
 15 16  2  0
 15 21  1  0
 16 17  1  0
 16 18  1  0
 18 19  2  0
 19 20  1  0
 20 21  2  0
 20 24  1  0
 21 22  1  0
 22 23  2  0
 23 24  1  0
 25 26  1  0
 25 27  1  0
 28 29  1  0
 28 33  1  0
 29 30  2  0
 30 31  1  0
 31 32  2  0
 32 33  1  0
 33 34  2  0
M  END
