
     RDKit          3D

 46 49  0  0  0  0  0  0  0  0999 V2000
    2.5610   -2.2520    1.7510 C   0  0  0  0  0  0  0  0  0  0  0  0
    2.7620   -0.6560    2.6050 S   0  0  0  0  0  0  0  0  0  0  0  0
    1.5970    0.5090    1.8510 C   0  0  0  0  0  0  0  0  0  0  0  0
    1.9920    0.8790    0.4230 C   0  0  2  0  0  0  0  0  0  0  0  0
    3.2710    1.5300    0.3770 N   0  0  0  0  0  0  0  0  0  0  0  0
    4.4980    0.9390   -0.0020 C   0  0  0  0  0  0  0  0  0  0  0  0
    4.4860   -0.2700   -0.3150 O   0  0  0  0  0  0  0  0  0  0  0  0
    5.8030    1.6510   -0.0560 C   0  0  0  0  0  0  0  0  0  0  0  0
    6.8750    0.7530   -0.2820 O   0  0  0  0  0  0  0  0  0  0  0  0
    7.2230   -0.2310    0.6060 C   0  0  0  0  0  0  0  0  0  0  0  0
    6.5560   -0.3820    1.7820 C   0  0  0  0  0  0  0  0  0  0  0  0
    6.8680   -1.3520    2.7170 C   0  0  0  0  0  0  0  0  0  0  0  0
    7.9070   -2.2160    2.4560 C   0  0  0  0  0  0  0  0  0  0  0  0
    8.6040   -2.0890    1.2690 C   0  0  0  0  0  0  0  0  0  0  0  0
    9.6290   -2.9870    1.0630 C   0  0  0  0  0  0  0  0  0  0  0  0
   10.3040   -2.8640   -0.0990 N   0  0  0  0  0  0  0  0  0  0  0  0
   10.0010   -1.9250   -1.0050 C   0  0  0  0  0  0  0  0  0  0  0  0
    8.9850   -1.0060   -0.8420 C   0  0  0  0  0  0  0  0  0  0  0  0
    8.2630   -1.0980    0.3460 C   0  0  0  0  0  0  0  0  0  0  0  0
    0.8650    1.6390   -0.1150 C   0  0  0  0  0  0  0  0  0  0  0  0
    0.8050    2.8790    0.0710 O   0  0  0  0  0  0  0  0  0  0  0  0
   -0.2210    1.0680   -0.8650 N   0  0  0  0  0  0  0  0  0  0  0  0
   -1.3150    1.8630   -1.3480 C   0  0  1  0  0  0  0  0  0  0  0  0
   -1.2600    2.3770   -2.7240 C   0  0  0  0  0  0  0  0  0  0  0  0
   -1.2040    1.4770   -3.8700 C   0  0  0  0  0  0  0  0  0  0  0  0
   -2.3350    1.1740   -4.6410 C   0  0  0  0  0  0  0  0  0  0  0  0
   -2.3170    0.3440   -5.7290 C   0  0  0  0  0  0  0  0  0  0  0  0
   -1.1160   -0.2300   -6.0880 C   0  0  0  0  0  0  0  0  0  0  0  0
    0.0290    0.0510   -5.3420 C   0  0  0  0  0  0  0  0  0  0  0  0
   -0.0050    0.8890   -4.2490 C   0  0  0  0  0  0  0  0  0  0  0  0
   -2.6080    1.2760   -0.9140 C   0  0  2  0  0  0  0  0  0  0  0  0
   -2.7290    1.3570    0.5140 O   0  0  0  0  0  0  0  0  0  0  0  0
   -2.7490   -0.1590   -1.2460 C   0  0  0  0  0  0  0  0  0  0  0  0
   -2.0420   -0.5940   -2.2250 O   0  0  0  0  0  0  0  0  0  0  0  0
   -3.5610   -1.1150   -0.6190 N   0  0  0  0  0  0  0  0  0  0  0  0
   -3.4440   -2.5630   -1.0710 C   0  0  0  0  0  0  0  0  0  0  0  0
   -3.0880   -3.2500    0.6070 S   0  0  0  0  0  0  0  0  0  0  0  0
   -3.8820   -1.8830    1.5820 C   0  0  0  0  0  0  0  0  0  0  0  0
   -4.5530   -1.1960    0.3860 C   0  0  1  0  0  0  0  0  0  0  0  0
   -5.4350   -0.1070    0.6780 C   0  0  0  0  0  0  0  0  0  0  0  0
   -5.5980    0.9790    0.0920 O   0  0  0  0  0  0  0  0  0  0  0  0
   -6.2910   -0.2700    1.8430 N   0  0  0  0  0  0  0  0  0  0  0  0
   -7.2120    0.7810    2.2160 C   0  0  2  0  0  0  0  0  0  0  0  0
   -8.1900    1.1240    1.1130 C   0  0  0  0  0  0  0  0  0  0  0  0
   -6.4760    2.0060    2.7180 C   0  0  0  0  0  0  0  0  0  0  0  0
   -8.0600    0.2960    3.3830 C   0  0  0  0  0  0  0  0  0  0  0  0
  1  2  1  0
  2  3  1  0
  4  3  1  1
  4  5  1  0
  4 20  1  0
  5  6  1  0
  6  7  2  0
  6  8  1  0
  8  9  1  0
  9 10  1  0
 10 11  2  0
 10 19  1  0
 11 12  1  0
 12 13  2  0
 13 14  1  0
 14 15  2  0
 14 19  1  0
 15 16  1  0
 16 17  2  0
 17 18  1  0
 18 19  2  0
 20 21  2  0
 20 22  1  0
 22 23  1  0
 23 24  1  6
 23 31  1  0
 24 25  1  0
 25 26  2  0
 25 30  1  0
 26 27  1  0
 27 28  2  0
 28 29  1  0
 29 30  2  0
 31 32  1  1
 31 33  1  0
 33 34  2  0
 33 35  1  0
 35 36  1  0
 35 39  1  0
 36 37  1  0
 37 38  1  0
 38 39  1  0
 39 40  1  1
 40 41  2  0
 40 42  1  0
 42 43  1  0
 43 44  1  6
 43 45  1  0
 43 46  1  0
M  END
