
     RDKit          3D

 45 49  0  0  0  0  0  0  0  0999 V2000
   10.0060   -2.4760   -0.1880 C   0  0  0  0  0  0  0  0  0  0  0  0
    8.6330   -2.6000   -0.7630 C   0  0  0  0  0  0  0  0  0  0  0  0
    8.4460   -3.4140   -1.8770 C   0  0  0  0  0  0  0  0  0  0  0  0
    7.1640   -3.4870   -2.3580 C   0  0  0  0  0  0  0  0  0  0  0  0
    6.1150   -2.7820   -1.7610 C   0  0  0  0  0  0  0  0  0  0  0  0
    6.3270   -1.9940   -0.6760 N   0  0  0  0  0  0  0  0  0  0  0  0
    5.3220   -1.3330   -0.1070 C   0  0  0  0  0  0  0  0  0  0  0  0
    3.9620   -1.3560   -0.6070 C   0  0  0  0  0  0  0  0  0  0  0  0
    3.5100   -1.9050   -1.6210 O   0  0  0  0  0  0  0  0  0  0  0  0
    2.9500   -0.6680    0.1360 O   0  0  0  0  0  0  0  0  0  0  0  0
    1.5900   -0.6640   -0.3230 C   0  0  1  0  0  0  0  0  0  0  0  0
    0.7890   -1.5950    0.5990 C   0  0  0  0  0  0  0  0  0  0  0  0
    1.0240    0.7040   -0.4230 C   0  0  0  0  0  0  0  0  0  0  0  0
   -0.2940    0.7280   -0.9390 N   0  0  1  0  0  0  0  0  0  0  0  0
   -1.3120    0.5830    0.0680 C   0  0  0  0  0  0  0  0  0  0  0  0
   -2.4560   -0.2840   -0.4660 C   0  0  0  0  0  0  0  0  0  0  0  0
   -3.5270   -0.4420    0.5870 C   0  0  0  0  0  0  0  0  0  0  0  0
   -3.3970    0.1470    1.6760 O   0  0  0  0  0  0  0  0  0  0  0  0
   -4.6560   -1.2490    0.3300 N   0  0  0  0  0  0  0  0  0  0  0  0
   -5.7340   -1.4850    1.2070 C   0  0  0  0  0  0  0  0  0  0  0  0
   -5.8940   -0.9090    2.4320 C   0  0  0  0  0  0  0  0  0  0  0  0
   -7.0020   -1.1670    3.2570 C   0  0  0  0  0  0  0  0  0  0  0  0
   -7.9460   -2.0450    2.7790 C   0  0  0  0  0  0  0  0  0  0  0  0
   -7.8280   -2.6530    1.5470 C   0  0  0  0  0  0  0  0  0  0  0  0
   -6.7240   -2.3680    0.7720 C   0  0  0  0  0  0  0  0  0  0  0  0
   -6.8350   -3.1500   -0.4950 C   0  0  0  0  0  0  0  0  0  0  0  0
   -7.7990   -4.2520   -0.1520 C   0  0  0  0  0  0  0  0  0  0  0  0
   -8.7120   -3.6140    0.8520 C   0  0  0  0  0  0  0  0  0  0  0  0
   -0.5780    1.9090   -1.7450 C   0  0  0  0  0  0  0  0  0  0  0  0
   -0.4630    3.1760   -0.9600 C   0  0  0  0  0  0  0  0  0  0  0  0
   -0.1400    3.1810    0.2450 O   0  0  0  0  0  0  0  0  0  0  0  0
   -0.7340    4.3820   -1.6200 N   0  0  0  0  0  0  0  0  0  0  0  0
   -0.6920    5.6740   -1.0490 C   0  0  0  0  0  0  0  0  0  0  0  0
   -0.8770    6.7660   -1.9070 C   0  0  0  0  0  0  0  0  0  0  0  0
   -0.8710    8.0650   -1.4510 C   0  0  0  0  0  0  0  0  0  0  0  0
   -1.0480    9.1250   -2.2830 F   0  0  0  0  0  0  0  0  0  0  0  0
   -0.6830    8.3590   -0.1190 C   0  0  0  0  0  0  0  0  0  0  0  0
   -0.5010    7.3040    0.7360 C   0  0  0  0  0  0  0  0  0  0  0  0
   -0.3110    7.5360    2.0670 F   0  0  0  0  0  0  0  0  0  0  0  0
   -0.5070    5.9860    0.2640 C   0  0  0  0  0  0  0  0  0  0  0  0
    5.6270   -0.5500    1.0180 C   0  0  0  0  0  0  0  0  0  0  0  0
    6.8940   -0.4430    1.5400 C   0  0  0  0  0  0  0  0  0  0  0  0
    7.1300    0.2830    2.5680 O   0  0  0  0  0  0  0  0  0  0  0  0
    7.8900   -1.1470    0.9110 C   0  0  0  0  0  0  0  0  0  0  0  0
    7.6020   -1.9110   -0.1830 C   0  0  0  0  0  0  0  0  0  0  0  0
  1  2  1  0
  2  3  2  0
  2 45  1  0
  3  4  1  0
  4  5  2  0
  5  6  1  0
  6  7  1  0
  6 45  1  0
  7  8  1  0
  7 41  2  0
  8  9  2  0
  8 10  1  0
 10 11  1  0
 11 12  1  1
 11 13  1  0
 14 13  1  1
 14 15  1  0
 14 29  1  0
 15 16  1  0
 16 17  1  0
 17 18  2  0
 17 19  1  0
 19 20  1  0
 20 21  2  0
 20 25  1  0
 21 22  1  0
 22 23  2  0
 23 24  1  0
 24 25  2  0
 24 28  1  0
 25 26  1  0
 26 27  1  0
 27 28  1  0
 29 30  1  0
 30 31  2  0
 30 32  1  0
 32 33  1  0
 33 34  2  0
 33 40  1  0
 34 35  1  0
 35 36  1  0
 35 37  2  0
 37 38  1  0
 38 39  1  0
 38 40  2  0
 41 42  1  0
 42 43  2  0
 42 44  1  0
 44 45  2  0
M  CHG  1  14   1
M  END
