
     RDKit          3D

 45 48  0  0  0  0  0  0  0  0999 V2000
    3.5420   -5.1650   -1.2660 C   0  0  0  0  0  0  0  0  0  0  0  0
    2.9800   -3.8780   -1.2730 O   0  0  0  0  0  0  0  0  0  0  0  0
    2.7940   -3.1740   -0.0870 C   0  0  0  0  0  0  0  0  0  0  0  0
    3.1630   -3.7450    1.0970 C   0  0  0  0  0  0  0  0  0  0  0  0
    2.9870   -3.0630    2.2870 C   0  0  0  0  0  0  0  0  0  0  0  0
    3.3520   -3.6280    3.4620 F   0  0  0  0  0  0  0  0  0  0  0  0
    2.4320   -1.7960    2.2710 C   0  0  0  0  0  0  0  0  0  0  0  0
    2.0560   -1.2110    1.0860 C   0  0  0  0  0  0  0  0  0  0  0  0
    1.4920    0.0800    1.1000 N   0  0  0  0  0  0  0  0  0  0  0  0
    0.0740    0.2310    1.3130 C   0  0  0  0  0  0  0  0  0  0  0  0
   -0.7090    0.2160    0.0100 C   0  0  0  0  0  0  0  0  0  0  0  0
   -2.0760    0.3630    0.2460 O   0  0  0  0  0  0  0  0  0  0  0  0
   -3.0770    0.3960   -0.6800 C   0  0  0  0  0  0  0  0  0  0  0  0
   -2.8210    0.2830   -2.0160 C   0  0  0  0  0  0  0  0  0  0  0  0
   -3.8600    0.3190   -2.9550 C   0  0  0  0  0  0  0  0  0  0  0  0
   -3.5360    0.1910   -4.3770 C   0  0  0  0  0  0  0  0  0  0  0  0
   -5.1350    0.4710   -2.5050 C   0  0  0  0  0  0  0  0  0  0  0  0
   -6.2570    0.5110   -3.4500 C   0  0  0  0  0  0  0  0  0  0  0  0
   -6.5130   -0.9290   -3.9200 C   0  0  0  0  0  0  0  0  0  0  0  0
   -7.5730   -0.9680   -4.8270 O   0  0  0  0  0  0  0  0  0  0  0  0
   -5.4110    0.5890   -1.1490 C   0  0  0  0  0  0  0  0  0  0  0  0
   -6.7870    0.7650   -0.6830 C   0  0  0  0  0  0  0  0  0  0  0  0
   -4.3840    0.5510   -0.2370 C   0  0  0  0  0  0  0  0  0  0  0  0
   -4.5990    0.6630    1.1490 O   0  0  0  0  0  0  0  0  0  0  0  0
   -4.7980   -0.4860    1.9410 C   0  0  1  0  0  0  0  0  0  0  0  0
   -3.5610   -0.6320    2.8490 C   0  0  0  0  0  0  0  0  0  0  0  0
   -5.9660   -0.2910    2.8520 C   0  0  0  0  0  0  0  0  0  0  0  0
   -5.6480    0.9190    3.7340 C   0  0  0  0  0  0  0  0  0  0  0  0
   -6.7740    1.1220    4.6260 N   0  0  0  0  0  0  0  0  0  0  0  0
    2.2920    1.2140    0.9120 C   0  0  0  0  0  0  0  0  0  0  0  0
    1.8270    2.3870    0.9080 O   0  0  0  0  0  0  0  0  0  0  0  0
    3.7450    1.0210    0.7100 C   0  0  0  0  0  0  0  0  0  0  0  0
    4.2340   -0.1290    0.7120 O   0  0  0  0  0  0  0  0  0  0  0  0
    4.5720    2.1350    0.5180 N   0  0  0  0  0  0  0  0  0  0  0  0
    5.9670    2.1340    0.3140 C   0  0  0  0  0  0  0  0  0  0  0  0
    6.7060    0.9770    0.2890 C   0  0  0  0  0  0  0  0  0  0  0  0
    8.0900    0.9910    0.0880 C   0  0  0  0  0  0  0  0  0  0  0  0
    8.7840    2.1530   -0.0940 C   0  0  0  0  0  0  0  0  0  0  0  0
    8.0130    3.3200   -0.0660 C   0  0  0  0  0  0  0  0  0  0  0  0
    6.6570    3.3420    0.1280 C   0  0  0  0  0  0  0  0  0  0  0  0
    5.9800    4.5530    0.1390 O   0  0  0  0  0  0  0  0  0  0  0  0
   10.2320    2.0170   -0.2780 C   0  0  0  0  0  0  0  0  0  0  0  0
   10.5450    0.7040   -0.9580 C   0  0  0  0  0  0  0  0  0  0  0  0
    9.3090   -0.3250   -0.0300 S   0  0  0  0  0  0  0  0  0  0  0  0
    2.2360   -1.8970   -0.0900 C   0  0  0  0  0  0  0  0  0  0  0  0
  1  2  1  0
  2  3  1  0
  3  4  2  0
  3 45  1  0
  4  5  1  0
  5  6  1  0
  5  7  2  0
  7  8  1  0
  8  9  1  0
  8 45  2  0
  9 10  1  0
  9 30  1  0
 10 11  1  0
 11 12  1  0
 12 13  1  0
 13 14  2  0
 13 23  1  0
 14 15  1  0
 15 16  1  0
 15 17  2  0
 17 18  1  0
 17 21  1  0
 18 19  1  0
 19 20  1  0
 21 22  1  0
 21 23  2  0
 23 24  1  0
 24 25  1  0
 25 26  1  1
 25 27  1  0
 27 28  1  0
 28 29  1  0
 30 31  2  0
 30 32  1  0
 32 33  2  0
 32 34  1  0
 34 35  1  0
 35 36  2  0
 35 40  1  0
 36 37  1  0
 37 38  2  0
 37 44  1  0
 38 39  1  0
 38 42  1  0
 39 40  2  0
 40 41  1  0
 42 43  1  0
 43 44  1  0
M  END
