
     RDKit          3D

 45 49  0  0  0  0  0  0  0  0999 V2000
   -6.4090    4.3110    2.5260 C   0  0  0  0  0  0  0  0  0  0  0  0
   -5.2920    5.0360    2.2250 O   0  0  0  0  0  0  0  0  0  0  0  0
   -5.2250    5.5530    0.9770 C   0  0  0  0  0  0  0  0  0  0  0  0
   -5.2480    4.5340   -0.1330 C   0  0  0  0  0  0  0  0  0  0  0  0
   -4.1030    3.6400    0.0790 N   0  0  0  0  0  0  0  0  0  0  0  0
   -3.7450    2.6090   -0.8140 C   0  0  0  0  0  0  0  0  0  0  0  0
   -4.4000    2.4470   -1.8660 O   0  0  0  0  0  0  0  0  0  0  0  0
   -2.5690    1.7050   -0.5000 C   0  0  0  0  0  0  0  0  0  0  0  0
   -2.0770    1.1660   -1.7750 C   0  0  0  0  0  0  0  0  0  0  0  0
   -0.9710    0.1340   -1.7300 C   0  0  2  0  0  0  0  0  0  0  0  0
   -1.4530   -1.1220   -1.1480 C   0  0  0  0  0  0  0  0  0  0  0  0
   -2.0870   -1.2560    0.1610 C   0  0  0  0  0  0  0  0  0  0  0  0
   -2.2670   -2.7800    0.3580 C   0  0  0  0  0  0  0  0  0  0  0  0
   -1.8400   -3.5940   -0.4630 O   0  0  0  0  0  0  0  0  0  0  0  0
   -2.9370   -3.2080    1.5090 N   0  0  0  0  0  0  0  0  0  0  0  0
   -3.4670   -2.2940    2.4830 C   0  0  0  0  0  0  0  0  0  0  0  0
   -4.9230   -2.6430    2.6860 C   0  0  0  0  0  0  0  0  0  0  0  0
   -5.1900   -3.9860    2.7620 O   0  0  0  0  0  0  0  0  0  0  0  0
   -4.1070   -4.8170    2.8780 C   0  0  1  0  0  0  0  0  0  0  0  0
   -4.5330   -6.1400    2.8250 O   0  0  0  0  0  0  0  0  0  0  0  0
   -3.1030   -4.6230    1.7540 C   0  0  0  0  0  0  0  0  0  0  0  0
    0.2950    0.7240   -1.1960 C   0  0  0  0  0  0  0  0  0  0  0  0
    1.4730   -0.0420   -1.1270 N   0  0  2  0  0  0  0  0  0  0  0  0
    1.8440   -0.6510   -2.3910 C   0  0  0  0  0  0  0  0  0  0  0  0
    3.1230   -0.1150   -2.8960 C   0  0  0  0  0  0  0  0  0  0  0  0
    3.4690    1.2300   -2.8920 C   0  0  0  0  0  0  0  0  0  0  0  0
    4.6650    1.7120   -3.3770 C   0  0  0  0  0  0  0  0  0  0  0  0
    5.0200    3.0020   -3.3810 F   0  0  0  0  0  0  0  0  0  0  0  0
    5.6060    0.7780   -3.9150 C   0  0  0  0  0  0  0  0  0  0  0  0
    6.8130    1.2310   -4.4120 C   0  0  0  0  0  0  0  0  0  0  0  0
    7.7030    0.3630   -4.9250 C   0  0  0  0  0  0  0  0  0  0  0  0
    7.3930   -0.9700   -4.9450 N   0  0  0  0  0  0  0  0  0  0  0  0
    6.2200   -1.4140   -4.4630 C   0  0  0  0  0  0  0  0  0  0  0  0
    5.2650   -0.5390   -3.9200 C   0  0  0  0  0  0  0  0  0  0  0  0
    4.0730   -0.9440   -3.4280 C   0  0  0  0  0  0  0  0  0  0  0  0
    1.6110   -1.0080   -0.1010 C   0  0  0  0  0  0  0  0  0  0  0  0
    2.6610   -0.7850    0.8450 C   0  0  0  0  0  0  0  0  0  0  0  0
    3.6130    0.0950    1.1880 C   0  0  0  0  0  0  0  0  0  0  0  0
    4.4270   -0.1170    2.2350 C   0  0  0  0  0  0  0  0  0  0  0  0
    5.4790    0.7450    2.7030 C   0  0  0  0  0  0  0  0  0  0  0  0
    6.2080    0.3580    3.7980 C   0  0  0  0  0  0  0  0  0  0  0  0
    6.0250   -0.8040    4.5100 C   0  0  0  0  0  0  0  0  0  0  0  0
    5.0210   -1.6430    4.0740 C   0  0  0  0  0  0  0  0  0  0  0  0
    4.2910   -1.2570    2.9790 C   0  0  0  0  0  0  0  0  0  0  0  0
    2.9000   -2.0570    2.0960 S   0  0  0  0  0  0  0  0  0  0  0  0
  1  2  1  0
  2  3  1  0
  3  4  1  0
  4  5  1  0
  5  6  1  0
  6  7  2  0
  6  8  1  0
  8  9  1  0
 10  9  1  1
 10 11  1  0
 10 22  1  0
 11 12  1  0
 12 13  1  0
 13 14  2  0
 13 15  1  0
 15 16  1  0
 15 21  1  0
 16 17  1  0
 17 18  1  0
 18 19  1  0
 19 20  1  6
 19 21  1  0
 23 22  1  6
 23 24  1  0
 23 36  1  0
 24 25  1  0
 25 26  2  0
 25 35  1  0
 26 27  1  0
 27 28  1  0
 27 29  2  0
 29 30  1  0
 29 34  1  0
 30 31  2  0
 31 32  1  0
 32 33  2  0
 33 34  1  0
 34 35  2  0
 36 37  1  0
 37 38  2  0
 37 45  1  0
 38 39  1  0
 39 40  2  0
 39 44  1  0
 40 41  1  0
 41 42  2  0
 42 43  1  0
 43 44  2  0
 44 45  1  0
M  CHG  1  23   1
M  END
