
     RDKit          3D

 46 49  0  0  0  0  0  0  0  0999 V2000
  -12.7290   -1.8680    0.3410 C   0  0  0  0  0  0  0  0  0  0  0  0
  -11.7550   -2.2350   -0.4490 C   0  0  0  0  0  0  0  0  0  0  0  0
  -10.4180   -1.6610   -0.2460 C   0  0  0  0  0  0  0  0  0  0  0  0
  -10.2610   -0.8370    0.6800 O   0  0  0  0  0  0  0  0  0  0  0  0
   -9.3160   -2.0040   -1.0560 N   0  0  0  0  0  0  0  0  0  0  0  0
   -7.9970   -1.5140   -0.9650 C   0  0  0  0  0  0  0  0  0  0  0  0
   -6.9880   -2.1200   -1.7310 C   0  0  0  0  0  0  0  0  0  0  0  0
   -5.6770   -1.6780   -1.7120 C   0  0  0  0  0  0  0  0  0  0  0  0
   -4.7400   -2.2920   -2.4620 F   0  0  0  0  0  0  0  0  0  0  0  0
   -5.3290   -0.6130   -0.9240 C   0  0  0  0  0  0  0  0  0  0  0  0
   -4.0240   -0.1010   -0.8660 C   0  0  0  0  0  0  0  0  0  0  0  0
   -3.0010   -0.7430   -1.7110 C   0  0  1  0  0  0  0  0  0  0  0  0
   -3.1410   -0.4430   -3.0660 O   0  0  0  0  0  0  0  0  0  0  0  0
   -1.6400   -0.1110   -1.3360 C   0  0  0  0  0  0  0  0  0  0  0  0
   -1.3260   -0.4710    0.3760 S   0  0  0  0  0  0  0  0  0  0  0  0
   -0.0490    0.4540    1.1740 C   0  0  0  0  0  0  0  0  0  0  0  0
    1.3310    0.2710    0.7430 C   0  0  0  0  0  0  0  0  0  0  0  0
    1.9640   -0.6750    1.3420 O   0  0  0  0  0  0  0  0  0  0  0  0
    1.9630    1.0830   -0.2740 C   0  0  0  0  0  0  0  0  0  0  0  0
    1.1190    2.0320   -0.8980 C   0  0  0  0  0  0  0  0  0  0  0  0
    1.5790    2.8610   -1.8590 C   0  0  0  0  0  0  0  0  0  0  0  0
    2.8940    2.7730   -2.2310 C   0  0  0  0  0  0  0  0  0  0  0  0
    3.7230    1.8400   -1.6160 C   0  0  0  0  0  0  0  0  0  0  0  0
    3.2880    0.9810   -0.6330 C   0  0  0  0  0  0  0  0  0  0  0  0
    4.1390    0.0330   -0.0200 N   0  0  0  0  0  0  0  0  0  0  0  0
    5.5710    0.0460   -0.0840 C   0  0  0  0  0  0  0  0  0  0  0  0
    6.1490    0.9450   -0.7260 O   0  0  0  0  0  0  0  0  0  0  0  0
    6.3740   -1.0000    0.6140 C   0  0  0  0  0  0  0  0  0  0  0  0
    5.8250   -1.9420    1.2100 O   0  0  0  0  0  0  0  0  0  0  0  0
    7.7870   -0.8900    0.5870 N   0  0  0  0  0  0  0  0  0  0  0  0
    8.7000   -1.8130    1.2300 C   0  0  0  0  0  0  0  0  0  0  0  0
   10.0540   -1.1840    1.2930 C   0  0  0  0  0  0  0  0  0  0  0  0
   10.5880   -0.6340    0.1660 C   0  0  0  0  0  0  0  0  0  0  0  0
   11.8270   -0.0230    0.1420 C   0  0  0  0  0  0  0  0  0  0  0  0
   12.5580    0.0350    1.3120 C   0  0  0  0  0  0  0  0  0  0  0  0
   13.8040    0.6540    1.2710 O   0  0  0  0  0  0  0  0  0  0  0  0
   12.0190   -0.5230    2.4620 C   0  0  0  0  0  0  0  0  0  0  0  0
   10.7720   -1.1340    2.4660 C   0  0  0  0  0  0  0  0  0  0  0  0
   -3.7370    0.9780   -0.0680 C   0  0  0  0  0  0  0  0  0  0  0  0
   -4.6950    1.5940    0.6960 C   0  0  0  0  0  0  0  0  0  0  0  0
   -5.9770    1.1090    0.6530 C   0  0  0  0  0  0  0  0  0  0  0  0
   -6.9710    1.6830    1.3930 O   0  0  0  0  0  0  0  0  0  0  0  0
   -6.8890    2.7670    2.2530 C   0  0  0  0  0  0  0  0  0  0  0  0
   -8.1660    2.9760    2.7630 F   0  0  0  0  0  0  0  0  0  0  0  0
   -6.2950    0.0300   -0.1380 C   0  0  0  0  0  0  0  0  0  0  0  0
   -7.5980   -0.4610   -0.1990 C   0  0  0  0  0  0  0  0  0  0  0  0
  1  2  2  0
  2  3  1  0
  3  4  2  0
  3  5  1  0
  5  6  1  0
  6  7  2  0
  6 46  1  0
  7  8  1  0
  8  9  1  0
  8 10  2  0
 10 11  1  0
 10 45  1  0
 11 12  1  0
 11 39  2  0
 12 13  1  6
 12 14  1  0
 14 15  1  0
 15 16  1  0
 16 17  1  0
 17 18  2  0
 17 19  1  0
 19 20  2  0
 19 24  1  0
 20 21  1  0
 21 22  2  0
 22 23  1  0
 23 24  2  0
 24 25  1  0
 25 26  1  0
 26 27  2  0
 26 28  1  0
 28 29  2  0
 28 30  1  0
 30 31  1  0
 31 32  1  0
 32 33  2  0
 32 38  1  0
 33 34  1  0
 34 35  2  0
 35 36  1  0
 35 37  1  0
 37 38  2  0
 39 40  1  0
 40 41  2  0
 41 42  1  0
 41 45  1  0
 42 43  1  0
 43 44  1  0
 45 46  2  0
M  END
