
     RDKit          3D

 45 48  0  0  0  0  0  0  0  0999 V2000
   -6.0730    5.3140    0.0630 C   0  0  0  0  0  0  0  0  0  0  0  0
   -4.5690    5.2930   -0.0410 C   0  0  0  0  0  0  0  0  0  0  0  0
   -4.1110    4.3150   -1.1000 C   0  0  0  0  0  0  0  0  0  0  0  0
   -4.5990    2.9190   -0.7270 C   0  0  0  0  0  0  0  0  0  0  0  0
   -4.1620    1.9040   -1.7600 C   0  0  0  0  0  0  0  0  0  0  0  0
   -4.6420    0.5600   -1.3560 C   0  0  0  0  0  0  0  0  0  0  0  0
   -5.8270    0.0840   -1.9360 C   0  0  0  0  0  0  0  0  0  0  0  0
   -6.3270   -1.1340   -1.5590 C   0  0  0  0  0  0  0  0  0  0  0  0
   -7.4830   -1.6030   -2.1250 F   0  0  0  0  0  0  0  0  0  0  0  0
   -5.6470   -1.8650   -0.6110 C   0  0  0  0  0  0  0  0  0  0  0  0
   -4.4740   -1.4040   -0.0310 C   0  0  0  0  0  0  0  0  0  0  0  0
   -3.7420   -2.1970    0.9910 C   0  0  0  0  0  0  0  0  0  0  0  0
   -4.4790   -3.3910    1.1700 O   0  0  0  0  0  0  0  0  0  0  0  0
   -3.9650   -0.1680   -0.4150 C   0  0  0  0  0  0  0  0  0  0  0  0
   -2.7180    0.3030    0.1320 N   0  0  0  0  0  0  0  0  0  0  0  0
   -1.4790   -0.1450   -0.3540 C   0  0  0  0  0  0  0  0  0  0  0  0
   -1.4040   -0.4350   -1.8120 C   0  0  0  0  0  0  0  0  0  0  0  0
   -0.4170   -0.3840    0.3860 C   0  0  0  0  0  0  0  0  0  0  0  0
   -0.4660   -0.1990    1.8170 C   0  0  0  0  0  0  0  0  0  0  0  0
   -1.6040    0.1260    2.3200 O   0  0  0  0  0  0  0  0  0  0  0  0
    0.6150   -0.3300    2.7960 C   0  0  0  0  0  0  0  0  0  0  0  0
    1.9390   -0.2990    2.3080 O   0  0  0  0  0  0  0  0  0  0  0  0
    2.4540    0.8660    1.7330 C   0  0  0  0  0  0  0  0  0  0  0  0
    1.6580    1.8530    1.6840 O   0  0  0  0  0  0  0  0  0  0  0  0
    3.7930    1.0210    1.2040 C   0  0  0  0  0  0  0  0  0  0  0  0
    4.1920    2.2360    0.6550 C   0  0  0  0  0  0  0  0  0  0  0  0
    5.4550    2.4170    0.1540 C   0  0  0  0  0  0  0  0  0  0  0  0
    6.4030    1.3850    0.1720 C   0  0  0  0  0  0  0  0  0  0  0  0
    6.0320    0.1840    0.7050 C   0  0  0  0  0  0  0  0  0  0  0  0
    4.7470    0.0300    1.2040 C   0  0  0  0  0  0  0  0  0  0  0  0
    7.1860   -0.7810    0.6300 C   0  0  1  0  0  0  0  0  0  0  0  0
    6.7560   -2.0450    0.2050 O   0  0  0  0  0  0  0  0  0  0  0  0
    8.0760   -0.1620   -0.4100 C   0  0  0  0  0  0  0  0  0  0  0  0
    7.8000    1.3070   -0.2780 C   0  0  0  0  0  0  0  0  0  0  0  0
    0.8290   -0.8540   -0.2570 C   0  0  0  0  0  0  0  0  0  0  0  0
    1.3170   -2.0810    0.1350 C   0  0  0  0  0  0  0  0  0  0  0  0
    0.3860   -3.0530    1.2910 S   0  0  0  0  0  0  0  0  0  0  0  0
    1.2730   -4.5850    1.6270 C   0  0  0  0  0  0  0  0  0  0  0  0
    1.3700   -5.4920    0.4270 C   0  0  0  0  0  0  0  0  0  0  0  0
    2.0640   -6.6440    0.7830 O   0  0  0  0  0  0  0  0  0  0  0  0
    2.4800   -2.5180   -0.4170 N   0  0  0  0  0  0  0  0  0  0  0  0
    3.1250   -1.7510   -1.3280 C   0  0  0  0  0  0  0  0  0  0  0  0
    2.6200   -0.5580   -1.6890 N   0  0  0  0  0  0  0  0  0  0  0  0
    1.4550   -0.0580   -1.1700 C   0  0  0  0  0  0  0  0  0  0  0  0
    1.0190    1.0610   -1.5290 O   0  0  0  0  0  0  0  0  0  0  0  0
  1  2  1  0
  2  3  1  0
  3  4  1  0
  4  5  1  0
  5  6  1  0
  6  7  2  0
  6 14  1  0
  7  8  1  0
  8  9  1  0
  8 10  2  0
 10 11  1  0
 11 12  1  0
 11 14  2  0
 12 13  1  0
 14 15  1  0
 15 16  1  0
 16 17  1  0
 16 18  2  3
 18 19  1  0
 18 35  1  0
 19 20  2  0
 19 21  1  0
 21 22  1  0
 22 23  1  0
 23 24  2  0
 23 25  1  0
 25 26  2  0
 25 30  1  0
 26 27  1  0
 27 28  2  0
 28 29  1  0
 28 34  1  0
 29 30  2  0
 29 31  1  0
 31 32  1  6
 31 33  1  0
 33 34  1  0
 35 36  2  0
 35 44  1  0
 36 37  1  0
 36 41  1  0
 37 38  1  0
 38 39  1  0
 39 40  1  0
 41 42  2  0
 42 43  1  0
 43 44  1  0
 44 45  2  0
M  END
