
     RDKit          3D

 39 40  0  0  0  0  0  0  0  0999 V2000
    6.4330    1.0960    2.4620 C   0  0  0  0  0  0  0  0  0  0  0  0
    5.9720   -0.1820    2.3660 O   0  0  0  0  0  0  0  0  0  0  0  0
    4.8440   -0.4010    1.6250 C   0  0  0  0  0  0  0  0  0  0  0  0
    4.9490   -0.0530    0.1980 C   0  0  0  0  0  0  0  0  0  0  0  0
    4.1970    0.8100   -0.3850 C   0  0  0  0  0  0  0  0  0  0  0  0
    3.1070    1.6620    0.0610 C   0  0  2  0  0  0  0  0  0  0  0  0
    3.4480    2.7880    0.9880 C   0  0  0  0  0  0  0  0  0  0  0  0
    4.4470    3.7000    0.2700 C   0  0  0  0  0  0  0  0  0  0  0  0
    4.7780    4.7680    1.1320 O   0  0  0  0  0  0  0  0  0  0  0  0
    1.8940    0.9670    0.4190 N   0  0  0  0  0  0  0  0  0  0  0  0
    0.7040    0.9530   -0.3750 C   0  0  0  0  0  0  0  0  0  0  0  0
    0.7600    1.5790   -1.4350 O   0  0  0  0  0  0  0  0  0  0  0  0
   -0.4760    0.2890   -0.0190 N   0  0  0  0  0  0  0  0  0  0  0  0
   -1.6600    0.2470   -0.8020 C   0  0  0  0  0  0  0  0  0  0  0  0
   -1.5520    0.2800   -2.1690 C   0  0  0  0  0  0  0  0  0  0  0  0
   -2.6890    0.2850   -2.9920 C   0  0  0  0  0  0  0  0  0  0  0  0
   -2.5810    0.3160   -4.3800 O   0  0  0  0  0  0  0  0  0  0  0  0
   -3.9450    0.2570   -2.4350 C   0  0  0  0  0  0  0  0  0  0  0  0
   -5.0570    0.2600   -3.2590 O   0  0  0  0  0  0  0  0  0  0  0  0
   -5.5300   -1.0370   -3.6530 C   0  0  0  0  0  0  0  0  0  0  0  0
   -4.0330    0.2260   -1.0600 C   0  0  0  0  0  0  0  0  0  0  0  0
   -5.3300    0.2090   -0.5410 O   0  0  0  0  0  0  0  0  0  0  0  0
   -5.4740    0.1880    0.8870 C   0  0  0  0  0  0  0  0  0  0  0  0
   -6.9260    0.2540    1.2430 C   0  0  0  0  0  0  0  0  0  0  0  0
   -7.5900    1.4920    1.1910 C   0  0  0  0  0  0  0  0  0  0  0  0
   -8.9200    1.6040    1.5150 C   0  0  0  0  0  0  0  0  0  0  0  0
   -9.6640    0.4970    1.9080 C   0  0  0  0  0  0  0  0  0  0  0  0
  -11.0970    0.6120    2.2610 C   0  0  0  0  0  0  0  0  0  0  0  0
   -8.9990   -0.7130    1.9540 C   0  0  0  0  0  0  0  0  0  0  0  0
   -9.7620   -1.8650    2.3740 N   0  0  0  0  0  0  0  0  0  0  0  0
   -7.6650   -0.8260    1.6280 C   0  0  0  0  0  0  0  0  0  0  0  0
   -2.9200    0.2190   -0.2450 C   0  0  0  0  0  0  0  0  0  0  0  0
    5.9290   -0.7070   -0.5750 O   0  0  0  0  0  0  0  0  0  0  0  0
    7.2790   -0.7930   -0.2380 C   0  0  0  0  0  0  0  0  0  0  0  0
    8.0290   -1.5220   -1.3030 C   0  0  0  0  0  0  0  0  0  0  0  0
    7.6790   -2.7570   -1.6050 O   0  0  0  0  0  0  0  0  0  0  0  0
    7.6390   -3.8230   -0.8260 C   0  0  0  0  0  0  0  0  0  0  0  0
    6.6770   -3.8830    0.3220 C   0  0  0  0  0  0  0  0  0  0  0  0
    6.8920   -5.1540    0.9310 O   0  0  0  0  0  0  0  0  0  0  0  0
  1  2  1  0
  2  3  1  0
  3  4  1  0
  4  5  2  3
  4 33  1  0
  5  6  1  0
  6  7  1  1
  6 10  1  0
  7  8  1  0
  8  9  1  0
 10 11  1  0
 11 12  2  0
 11 13  1  0
 13 14  1  0
 14 15  2  0
 14 32  1  0
 15 16  1  0
 16 17  1  0
 16 18  2  0
 18 19  1  0
 18 21  1  0
 19 20  1  0
 21 22  1  0
 21 32  2  0
 22 23  1  0
 23 24  1  0
 24 25  2  0
 24 31  1  0
 25 26  1  0
 26 27  2  0
 27 28  1  0
 27 29  1  0
 29 30  1  0
 29 31  2  0
 33 34  1  0
 34 35  1  0
 35 36  1  0
 36 37  1  0
 37 38  1  0
 38 39  1  0
M  END
