
     RDKit          3D

 39 39  0  0  0  0  0  0  0  0999 V2000
    4.0130    7.2600    0.2130 C   0  0  0  0  0  0  0  0  0  0  0  0
    3.6660    5.8840    0.1100 O   0  0  0  0  0  0  0  0  0  0  0  0
    4.7360    4.9900   -0.0650 C   0  0  0  0  0  0  0  0  0  0  0  0
    5.9150    5.3360   -0.1300 O   0  0  0  0  0  0  0  0  0  0  0  0
    4.3590    3.5760   -0.1690 N   0  0  0  0  0  0  0  0  0  0  0  0
    5.3300    2.6020   -0.3440 C   0  0  0  0  0  0  0  0  0  0  0  0
    6.5440    3.0900   -0.3930 O   0  0  0  0  0  0  0  0  0  0  0  0
    5.2230    1.2070   -0.4730 C   0  0  0  0  0  0  0  0  0  0  0  0
    6.4390    0.5690   -0.6270 C   0  0  0  0  0  0  0  0  0  0  0  0
    7.5970    1.2940   -0.6390 O   0  0  0  0  0  0  0  0  0  0  0  0
    4.0920    0.2740   -0.4520 C   0  0  0  0  0  0  0  0  0  0  0  0
    2.8590    0.5270   -0.3580 C   0  0  0  0  0  0  0  0  0  0  0  0
    1.7410   -0.4340   -0.3500 C   0  0  0  0  0  0  0  0  0  0  0  0
    1.9130   -1.8540   -0.6020 C   0  0  0  0  0  0  0  0  0  0  0  0
    0.5020    0.0420   -0.1940 C   0  0  0  0  0  0  0  0  0  0  0  0
   -0.7180   -0.6940   -0.1500 C   0  0  0  0  0  0  0  0  0  0  0  0
   -0.7880   -1.9250   -0.2390 O   0  0  0  0  0  0  0  0  0  0  0  0
   -1.9950   -0.0030    0.0090 N   0  0  0  0  0  0  0  0  0  0  0  0
   -3.2230   -0.7320    0.0550 C   0  0  0  0  0  0  0  0  0  0  0  0
   -4.3860    0.2390    0.2160 C   0  0  2  0  0  0  0  0  0  0  0  0
   -4.3110    1.0610    1.4270 C   0  0  0  0  0  0  0  0  0  0  0  0
   -4.2910    0.5110    2.7710 C   0  0  2  0  0  0  0  0  0  0  0  0
   -3.2180   -0.4130    3.1880 C   0  0  0  0  0  0  0  0  0  0  0  0
   -5.6310   -0.0820    3.1800 C   0  0  0  0  0  0  0  0  0  0  0  0
   -5.7040   -0.4640    0.0020 C   0  0  0  0  0  0  0  0  0  0  0  0
   -6.8160    0.4910   -0.3730 C   0  0  0  0  0  0  0  0  0  0  0  0
   -6.6130    0.8860   -1.8040 C   0  0  2  0  0  0  0  0  0  0  0  0
   -7.4580   -0.0430   -2.6620 C   0  0  0  0  0  0  0  0  0  0  0  0
   -8.7910    0.1220   -2.2750 O   0  0  0  0  0  0  0  0  0  0  0  0
   -5.1490    0.7600   -2.1370 C   0  0  0  0  0  0  0  0  0  0  0  0
   -4.2720    1.1890   -0.9700 C   0  0  0  0  0  0  0  0  0  0  0  0
    4.4640   -1.1020   -0.5330 O   0  0  0  0  0  0  0  0  0  0  0  0
    4.8240   -1.7660    0.6740 C   0  0  0  0  0  0  0  0  0  0  0  0
    5.1830   -3.1700    0.4250 C   0  0  0  0  0  0  0  0  0  0  0  0
    5.5120   -3.9080    1.4040 O   0  0  0  0  0  0  0  0  0  0  0  0
    5.1680   -3.7140   -0.8800 N   0  0  0  0  0  0  0  0  0  0  0  0
    5.5120   -5.0860   -1.1870 C   0  0  0  0  0  0  0  0  0  0  0  0
    6.9380   -5.3310   -0.7580 C   0  0  0  0  0  0  0  0  0  0  0  0
    7.2740   -6.6550   -1.0540 O   0  0  0  0  0  0  0  0  0  0  0  0
  1  2  1  0
  2  3  1  0
  3  4  2  0
  3  5  1  0
  5  6  1  0
  6  7  2  0
  6  8  1  0
  8  9  2  3
  8 11  1  0
  9 10  1  0
 11 12  2  3
 11 32  1  0
 12 13  1  0
 13 14  1  0
 13 15  2  3
 15 16  1  0
 16 17  2  0
 16 18  1  0
 18 19  1  0
 20 19  1  1
 20 21  1  0
 20 25  1  0
 20 31  1  0
 21 22  1  0
 22 23  1  6
 22 24  1  0
 25 26  1  0
 26 27  1  0
 27 28  1  6
 27 30  1  0
 28 29  1  0
 30 31  1  0
 32 33  1  0
 33 34  1  0
 34 35  2  0
 34 36  1  0
 36 37  1  0
 37 38  1  0
 38 39  1  0
M  END
