
     RDKit          3D

 39 40  0  0  0  0  0  0  0  0999 V2000
    4.9030    3.9030   -3.0290 C   0  0  0  0  0  0  0  0  0  0  0  0
    4.5460    2.8070   -2.0620 C   0  0  0  0  0  0  0  0  0  0  0  0
    5.5450    2.0360   -1.5240 C   0  0  0  0  0  0  0  0  0  0  0  0
    5.2020    1.0140   -0.6240 C   0  0  0  0  0  0  0  0  0  0  0  0
    6.2800    0.2750   -0.0910 N   0  0  0  0  0  0  0  0  0  0  0  0
    6.2050   -0.8710    0.7350 C   0  0  0  0  0  0  0  0  0  0  0  0
    5.0900   -1.3240    1.0550 O   0  0  0  0  0  0  0  0  0  0  0  0
    7.4760   -1.5350    1.2250 C   0  0  1  0  0  0  0  0  0  0  0  0
    8.1690   -0.4570    2.0500 C   0  0  0  0  0  0  0  0  0  0  0  0
    7.1140   -2.6030    1.9880 O   0  0  0  0  0  0  0  0  0  0  0  0
    7.5750   -3.8350    1.6390 C   0  0  0  0  0  0  0  0  0  0  0  0
    7.1630   -4.3630    0.3070 C   0  0  0  0  0  0  0  0  0  0  0  0
    7.5400   -3.6000   -0.7800 O   0  0  0  0  0  0  0  0  0  0  0  0
    3.8820    0.8040   -0.2990 C   0  0  0  0  0  0  0  0  0  0  0  0
    2.8570    1.5870   -0.8440 C   0  0  0  0  0  0  0  0  0  0  0  0
    1.4640    1.3310   -0.4840 C   0  0  0  0  0  0  0  0  0  0  0  0
    1.1790    0.1350   -0.2500 O   0  0  0  0  0  0  0  0  0  0  0  0
    0.4870    2.3320   -0.3950 N   0  0  0  0  0  0  0  0  0  0  0  0
   -0.9010    2.1450   -0.0530 C   0  0  0  0  0  0  0  0  0  0  0  0
   -1.6150    3.2370    0.4220 C   0  0  0  0  0  0  0  0  0  0  0  0
   -2.9190    3.0920    0.7360 C   0  0  0  0  0  0  0  0  0  0  0  0
   -3.6180    1.8820    0.6120 C   0  0  0  0  0  0  0  0  0  0  0  0
   -4.8950    1.9110    0.9660 O   0  0  0  0  0  0  0  0  0  0  0  0
   -5.9610    0.9900    1.0180 C   0  0  2  0  0  0  0  0  0  0  0  0
   -5.8220    0.1000    2.1410 C   0  0  0  0  0  0  0  0  0  0  0  0
   -6.7340   -0.9780    2.5060 C   0  0  0  0  0  0  0  0  0  0  0  0
   -6.9310   -2.0310    1.6760 O   0  0  0  0  0  0  0  0  0  0  0  0
   -6.4040    0.7280   -0.3310 C   0  0  0  0  0  0  0  0  0  0  0  0
   -7.5070   -0.2210   -0.6410 C   0  0  0  0  0  0  0  0  0  0  0  0
   -8.7710    0.0790    0.0230 C   0  0  0  0  0  0  0  0  0  0  0  0
   -9.9520   -0.7340   -0.1560 N   0  0  0  0  0  0  0  0  0  0  0  0
   -8.9210    1.0560    0.7930 O   0  0  0  0  0  0  0  0  0  0  0  0
   -2.9120    0.7900    0.1380 C   0  0  0  0  0  0  0  0  0  0  0  0
   -3.5210   -0.4350   -0.0230 O   0  0  0  0  0  0  0  0  0  0  0  0
   -3.0220   -1.6030   -0.5350 C   0  0  0  0  0  0  0  0  0  0  0  0
   -2.7060   -1.4810   -1.9930 C   0  0  0  0  0  0  0  0  0  0  0  0
   -2.2020   -2.7190   -2.4160 O   0  0  0  0  0  0  0  0  0  0  0  0
   -1.5700    0.9670   -0.1760 C   0  0  0  0  0  0  0  0  0  0  0  0
    3.2330    2.5760   -1.7190 C   0  0  0  0  0  0  0  0  0  0  0  0
  1  2  1  0
  2  3  2  0
  2 39  1  0
  3  4  1  0
  4  5  1  0
  4 14  2  0
  5  6  1  0
  6  7  2  0
  6  8  1  0
  8  9  1  1
  8 10  1  0
 10 11  1  0
 11 12  1  0
 12 13  1  0
 14 15  1  0
 15 16  1  0
 15 39  2  0
 16 17  2  0
 16 18  1  0
 18 19  1  0
 19 20  2  0
 19 38  1  0
 20 21  1  0
 21 22  2  0
 22 23  1  0
 22 33  1  0
 23 24  1  0
 24 25  1  6
 24 28  1  0
 25 26  1  0
 26 27  1  0
 28 29  1  0
 29 30  1  0
 30 31  1  0
 30 32  2  0
 33 34  1  0
 33 38  2  0
 34 35  1  0
 35 36  1  0
 36 37  1  0
M  END
