
     RDKit          3D

 39 43  0  0  0  0  0  0  0  0999 V2000
    0.0330    0.0680   -2.8070 C   0  0  0  0  0  0  0  0  0  0  0  0
   -0.6060    0.4000   -1.4970 C   0  0  0  0  0  0  0  0  0  0  0  0
   -0.9230   -0.8220   -0.6600 C   0  0  2  0  0  0  0  0  0  0  0  0
   -1.8350   -1.6440   -1.4260 N   0  0  0  0  0  0  0  0  0  0  0  0
   -2.6480   -2.5310   -0.7170 C   0  0  0  0  0  0  0  0  0  0  0  0
   -4.0100   -2.0730   -0.3220 C   0  0  0  0  0  0  0  0  0  0  0  0
   -4.6650   -2.9380    0.3000 O   0  0  0  0  0  0  0  0  0  0  0  0
   -4.5220   -0.8170   -0.6050 N   0  0  0  0  0  0  0  0  0  0  0  0
   -5.7950   -0.3260   -0.2630 C   0  0  0  0  0  0  0  0  0  0  0  0
   -6.0940    0.9920   -0.6490 C   0  0  0  0  0  0  0  0  0  0  0  0
   -7.2880    1.5770   -0.3780 C   0  0  0  0  0  0  0  0  0  0  0  0
   -7.5910    2.9800   -0.7920 C   0  0  0  0  0  0  0  0  0  0  0  0
   -8.2860    0.8730    0.3120 C   0  0  0  0  0  0  0  0  0  0  0  0
   -9.5570    1.5460    0.5810 C   0  0  0  0  0  0  0  0  0  0  0  0
  -10.4610    0.7750    1.2630 O   0  0  0  0  0  0  0  0  0  0  0  0
   -7.9810   -0.4100    0.6820 C   0  0  0  0  0  0  0  0  0  0  0  0
   -8.7530   -1.3350    1.3610 C   0  0  0  0  0  0  0  0  0  0  0  0
   -7.9590   -2.4770    1.4710 C   0  0  0  0  0  0  0  0  0  0  0  0
   -6.8220   -2.1730    0.8790 N   0  0  0  0  0  0  0  0  0  0  0  0
   -6.7660   -0.9640    0.3890 N   0  0  0  0  0  0  0  0  0  0  0  0
   -1.4770   -0.3340    0.6370 C   0  0  0  0  0  0  0  0  0  0  0  0
   -0.4790   -0.1590    1.7330 C   0  0  0  0  0  0  0  0  0  0  0  0
    0.9360    0.0460    1.3070 C   0  0  0  0  0  0  0  0  0  0  0  0
    1.3560   -0.7930    0.2290 N   0  0  0  0  0  0  0  0  0  0  0  0
    2.7020   -0.8630   -0.2090 C   0  0  0  0  0  0  0  0  0  0  0  0
    3.7020   -0.1210    0.3620 C   0  0  0  0  0  0  0  0  0  0  0  0
    5.0360   -0.1560   -0.0340 C   0  0  0  0  0  0  0  0  0  0  0  0
    5.9490    0.6550    0.6230 N   0  0  0  0  0  0  0  0  0  0  0  0
    7.3410    0.6080    0.4310 C   0  0  0  0  0  0  0  0  0  0  0  0
    7.8920   -0.1730   -0.3510 O   0  0  0  0  0  0  0  0  0  0  0  0
    8.2370    1.5470    1.2030 C   0  0  0  0  0  0  0  0  0  0  0  0
    9.6540    1.2780    0.8050 C   0  0  2  0  0  0  0  0  0  0  0  0
   10.0440    1.4510   -0.6470 C   0  0  0  0  0  0  0  0  0  0  0  0
   10.4040    0.2110    1.5870 C   0  0  0  0  0  0  0  0  0  0  0  0
   10.7120    1.6930    1.8040 C   0  0  0  0  0  0  0  0  0  0  0  0
    5.3360   -0.9990   -1.0660 C   0  0  0  0  0  0  0  0  0  0  0  0
    4.3280   -1.7590   -1.6550 C   0  0  0  0  0  0  0  0  0  0  0  0
    3.0660   -1.6750   -1.2230 N   0  0  0  0  0  0  0  0  0  0  0  0
    0.3530   -1.6090   -0.4460 C   0  0  0  0  0  0  0  0  0  0  0  0
  1  2  1  0
  3  2  1  6
  3  4  1  0
  3 21  1  0
  3 39  1  0
  4  5  1  0
  5  6  1  0
  6  7  2  0
  6  8  1  0
  8  9  1  0
  9 10  2  0
  9 20  1  0
 10 11  1  0
 11 12  1  0
 11 13  2  0
 13 14  1  0
 13 16  1  0
 14 15  1  0
 16 17  2  0
 16 20  1  0
 17 18  1  0
 18 19  2  0
 19 20  1  0
 21 22  1  0
 22 23  1  0
 23 24  1  0
 24 25  1  0
 24 39  1  0
 25 26  2  0
 25 38  1  0
 26 27  1  0
 27 28  1  0
 27 36  2  0
 28 29  1  0
 29 30  2  0
 29 31  1  0
 31 32  1  0
 32 33  1  6
 32 34  1  0
 32 35  1  0
 34 35  1  0
 36 37  1  0
 37 38  2  0
M  CHG  1   4   1
M  END
