
     RDKit          3D

 39 43  0  0  0  0  0  0  0  0999 V2000
   -5.5740   -3.7080    0.8410 C   0  0  0  0  0  0  0  0  0  0  0  0
   -5.6470   -2.8340   -0.3460 C   0  0  0  0  0  0  0  0  0  0  0  0
   -6.1020   -3.3540   -1.5330 C   0  0  0  0  0  0  0  0  0  0  0  0
   -6.1780   -2.5610   -2.6480 C   0  0  0  0  0  0  0  0  0  0  0  0
   -5.8010   -1.2470   -2.5870 C   0  0  0  0  0  0  0  0  0  0  0  0
   -5.8770   -0.4280   -3.7310 O   0  0  0  0  0  0  0  0  0  0  0  0
   -5.3380   -0.6890   -1.4140 C   0  0  0  0  0  0  0  0  0  0  0  0
   -4.9320    0.7450   -1.3700 C   0  0  0  0  0  0  0  0  0  0  0  0
   -4.4830    1.0860   -0.0260 N   0  0  0  0  0  0  0  0  0  0  0  0
   -5.3320    1.5850    0.9890 C   0  0  0  0  0  0  0  0  0  0  0  0
   -5.6300    3.0130    1.0990 C   0  0  0  0  0  0  0  0  0  0  0  0
   -4.4650    3.9240    1.2770 C   0  0  0  0  0  0  0  0  0  0  0  0
   -3.5220    3.9800    0.2110 N   0  0  0  0  0  0  0  0  0  0  0  0
   -3.1030    0.9090    0.2500 C   0  0  0  0  0  0  0  0  0  0  0  0
   -2.6660    1.1660    1.3910 O   0  0  0  0  0  0  0  0  0  0  0  0
   -2.2160    0.4290   -0.8020 C   0  0  0  0  0  0  0  0  0  0  0  0
   -0.8470    0.2620   -0.3790 N   0  0  0  0  0  0  0  0  0  0  0  0
   -0.3860   -0.9130    0.1300 C   0  0  0  0  0  0  0  0  0  0  0  0
    0.8920   -1.0670    0.5210 N   0  0  0  0  0  0  0  0  0  0  0  0
    1.7540   -0.0410    0.4130 C   0  0  0  0  0  0  0  0  0  0  0  0
    3.0960    0.0720    0.7320 C   0  0  0  0  0  0  0  0  0  0  0  0
    4.0140   -0.8070    1.2650 C   0  0  0  0  0  0  0  0  0  0  0  0
    5.3260   -0.4550    1.4980 C   0  0  0  0  0  0  0  0  0  0  0  0
    6.3190   -1.3680    2.0880 C   0  0  0  0  0  0  0  0  0  0  0  0
    7.0440   -2.2470    1.1140 C   0  0  0  0  0  0  0  0  0  0  0  0
    7.7820   -1.4680    0.0940 C   0  0  0  0  0  0  0  0  0  0  0  0
    9.1450   -1.1250    0.1530 C   0  0  0  0  0  0  0  0  0  0  0  0
    9.4950   -0.3730   -0.9420 C   0  0  0  0  0  0  0  0  0  0  0  0
    8.3860   -0.2390   -1.6810 N   0  0  0  0  0  0  0  0  0  0  0  0
    7.3520   -0.8880   -1.0780 C   0  0  0  0  0  0  0  0  0  0  0  0
    5.9660   -0.9840   -1.6230 C   0  0  0  0  0  0  0  0  0  0  0  0
    5.6780    0.8590    1.1600 C   0  0  0  0  0  0  0  0  0  0  0  0
    4.7590    1.7370    0.6270 C   0  0  0  0  0  0  0  0  0  0  0  0
    3.4480    1.3630    0.4020 C   0  0  0  0  0  0  0  0  0  0  0  0
    2.3600    1.9970   -0.0960 N   0  0  0  0  0  0  0  0  0  0  0  0
    1.3460    1.1470   -0.0870 N   0  0  0  0  0  0  0  0  0  0  0  0
    0.0430    1.2610   -0.4710 C   0  0  0  0  0  0  0  0  0  0  0  0
   -0.2970    2.3770   -0.9280 O   0  0  0  0  0  0  0  0  0  0  0  0
   -5.2720   -1.5090   -0.3060 C   0  0  0  0  0  0  0  0  0  0  0  0
  1  2  1  0
  2  3  2  0
  2 39  1  0
  3  4  1  0
  4  5  2  0
  5  6  1  0
  5  7  1  0
  7  8  1  0
  7 39  2  0
  8  9  1  0
  9 10  1  0
  9 14  1  0
 10 11  1  0
 11 12  1  0
 12 13  1  0
 14 15  2  0
 14 16  1  0
 16 17  1  0
 17 18  1  0
 17 37  1  0
 18 19  2  0
 19 20  1  0
 20 21  2  0
 20 36  1  0
 21 22  1  0
 21 34  1  0
 22 23  2  0
 23 24  1  0
 23 32  1  0
 24 25  1  0
 25 26  1  0
 26 27  1  0
 26 30  2  0
 27 28  2  0
 28 29  1  0
 29 30  1  0
 30 31  1  0
 32 33  2  0
 33 34  1  0
 34 35  2  0
 35 36  1  0
 36 37  1  0
 37 38  2  0
M  CHG  1  13   1
M  END
