
     RDKit          3D

 44 48  0  0  0  0  0  0  0  0999 V2000
    0.8140    0.4970   -4.2240 N   0  0  0  0  0  0  0  0  0  0  0  0
    0.0840    0.5080   -3.2770 C   0  0  0  0  0  0  0  0  0  0  0  0
   -0.7320    0.4960   -2.2210 N   0  0  0  0  0  0  0  0  0  0  0  0
   -0.4560    0.3500   -0.9860 C   0  0  0  0  0  0  0  0  0  0  0  0
    0.8520    0.1610   -0.4620 N   0  0  0  0  0  0  0  0  0  0  0  0
    1.8600    0.9310   -1.1010 C   0  0  0  0  0  0  0  0  0  0  0  0
    2.9730    0.3430   -1.7980 C   0  0  0  0  0  0  0  0  0  0  0  0
    3.0960   -0.8820   -2.3950 C   0  0  0  0  0  0  0  0  0  0  0  0
    4.2370   -1.3270   -3.0350 C   0  0  0  0  0  0  0  0  0  0  0  0
    5.3340   -0.5330   -3.1030 C   0  0  0  0  0  0  0  0  0  0  0  0
    6.5930   -0.9500   -3.7720 C   0  0  0  0  0  0  0  0  0  0  0  0
    6.5250   -0.5470   -5.1190 O   0  0  0  0  0  0  0  0  0  0  0  0
    5.2650    0.7180   -2.5170 C   0  0  0  0  0  0  0  0  0  0  0  0
    4.1310    1.1470   -1.8870 C   0  0  0  0  0  0  0  0  0  0  0  0
    1.2160   -0.6330    0.7210 C   0  0  2  0  0  0  0  0  0  0  0  0
    1.3880   -2.0690    0.4840 C   0  0  0  0  0  0  0  0  0  0  0  0
    1.6760   -2.7960    1.7400 C   0  0  0  0  0  0  0  0  0  0  0  0
    0.6370   -3.3460    2.4510 C   0  0  0  0  0  0  0  0  0  0  0  0
    0.8480   -4.0380    3.6520 C   0  0  0  0  0  0  0  0  0  0  0  0
    2.1210   -4.1780    4.1410 C   0  0  0  0  0  0  0  0  0  0  0  0
    3.1840   -3.6180    3.4170 C   0  0  0  0  0  0  0  0  0  0  0  0
    2.9400   -2.9310    2.2210 C   0  0  0  0  0  0  0  0  0  0  0  0
    0.5040   -0.1610    1.9320 C   0  0  2  0  0  0  0  0  0  0  0  0
    1.2230   -0.6020    3.0920 O   0  0  0  0  0  0  0  0  0  0  0  0
   -0.9450   -0.3320    2.1240 C   0  0  1  0  0  0  0  0  0  0  0  0
   -1.4780    0.8870    2.6170 O   0  0  0  0  0  0  0  0  0  0  0  0
   -1.7320   -0.7770    0.9120 C   0  0  1  0  0  0  0  0  0  0  0  0
   -3.0670   -1.2830    1.2670 C   0  0  0  0  0  0  0  0  0  0  0  0
   -3.8940   -1.8270    0.1970 C   0  0  0  0  0  0  0  0  0  0  0  0
   -3.6720   -3.1280   -0.2310 C   0  0  0  0  0  0  0  0  0  0  0  0
   -4.4220   -3.7070   -1.2110 C   0  0  0  0  0  0  0  0  0  0  0  0
   -5.4490   -3.0120   -1.8290 C   0  0  0  0  0  0  0  0  0  0  0  0
   -5.6730   -1.7430   -1.4170 C   0  0  0  0  0  0  0  0  0  0  0  0
   -4.9030   -1.1360   -0.4030 C   0  0  0  0  0  0  0  0  0  0  0  0
   -1.6350    0.2560   -0.1080 N   0  0  0  0  0  0  0  0  0  0  0  0
   -2.6620    1.2370   -0.2980 C   0  0  0  0  0  0  0  0  0  0  0  0
   -2.3080    2.6260    0.0030 C   0  0  0  0  0  0  0  0  0  0  0  0
   -1.0690    3.0940    0.3140 C   0  0  0  0  0  0  0  0  0  0  0  0
   -0.8530    4.4320    0.6180 C   0  0  0  0  0  0  0  0  0  0  0  0
   -1.9190    5.3250    0.6070 C   0  0  0  0  0  0  0  0  0  0  0  0
   -1.7710    6.7570    0.9290 C   0  0  0  0  0  0  0  0  0  0  0  0
   -2.5480    7.0310    2.0720 O   0  0  0  0  0  0  0  0  0  0  0  0
   -3.1660    4.8570    0.2920 C   0  0  0  0  0  0  0  0  0  0  0  0
   -3.3560    3.5340   -0.0040 C   0  0  0  0  0  0  0  0  0  0  0  0
  1  2  3  0
  2  3  1  0
  3  4  2  3
  4  5  1  0
  4 35  1  0
  5  6  1  0
  5 15  1  0
  6  7  1  0
  7  8  2  0
  7 14  1  0
  8  9  1  0
  9 10  2  0
 10 11  1  0
 10 13  1  0
 11 12  1  0
 13 14  2  0
 15 16  1  6
 15 23  1  0
 16 17  1  0
 17 18  2  0
 17 22  1  0
 18 19  1  0
 19 20  2  0
 20 21  1  0
 21 22  2  0
 23 24  1  1
 23 25  1  0
 25 26  1  6
 25 27  1  0
 27 28  1  1
 27 35  1  0
 28 29  1  0
 29 30  2  0
 29 34  1  0
 30 31  1  0
 31 32  2  0
 32 33  1  0
 33 34  2  0
 35 36  1  0
 36 37  1  0
 37 38  2  0
 37 44  1  0
 38 39  1  0
 39 40  2  0
 40 41  1  0
 40 43  1  0
 41 42  1  0
 43 44  2  0
M  CHG  1   3   1
M  END
