
     RDKit          3D

 39 43  0  0  0  0  0  0  0  0999 V2000
   -1.6120   -5.1070   -0.0090 C   0  0  0  0  0  0  0  0  0  0  0  0
   -1.4660   -3.8670   -0.8560 C   0  0  0  0  0  0  0  0  0  0  0  0
   -1.4940   -2.6600    0.0090 C   0  0  0  0  0  0  0  0  0  0  0  0
   -1.6320   -2.6680    1.3260 N   0  0  0  0  0  0  0  0  0  0  0  0
   -1.6040   -1.4160    1.7460 C   0  0  0  0  0  0  0  0  0  0  0  0
   -1.4390   -0.5550    0.6430 C   0  0  0  0  0  0  0  0  0  0  0  0
   -1.3460    0.8830    0.7960 C   0  0  2  0  0  0  0  0  0  0  0  0
   -2.6180    1.5100    1.3210 C   0  0  0  0  0  0  0  0  0  0  0  0
   -2.5870    2.5440    2.2380 C   0  0  0  0  0  0  0  0  0  0  0  0
   -3.7470    3.0840    2.7320 C   0  0  0  0  0  0  0  0  0  0  0  0
   -4.9800    2.6260    2.3440 C   0  0  0  0  0  0  0  0  0  0  0  0
   -5.0290    1.5920    1.4290 C   0  0  0  0  0  0  0  0  0  0  0  0
   -3.8670    1.0550    0.9360 C   0  0  0  0  0  0  0  0  0  0  0  0
   -6.4560    1.3240    1.2120 C   0  0  0  0  0  0  0  0  0  0  0  0
   -7.1410    1.9680    2.2370 O   0  0  0  0  0  0  0  0  0  0  0  0
   -6.3790    3.0080    2.7050 C   0  0  0  0  0  0  0  0  0  0  0  0
   -0.6160    1.6680   -0.1670 C   0  0  0  0  0  0  0  0  0  0  0  0
    0.8030    1.5770   -0.2700 C   0  0  0  0  0  0  0  0  0  0  0  0
    1.4150    0.6530    0.5780 N   0  0  0  0  0  0  0  0  0  0  0  0
    2.8280    0.4840    0.6920 C   0  0  0  0  0  0  0  0  0  0  0  0
    3.6040    1.1700    0.0270 O   0  0  0  0  0  0  0  0  0  0  0  0
    3.3870   -0.5210    1.6140 C   0  0  0  0  0  0  0  0  0  0  0  0
    4.8410   -0.6840    1.7000 C   0  0  0  0  0  0  0  0  0  0  0  0
    5.5380   -1.0650    0.5110 N   0  0  0  0  0  0  0  0  0  0  0  0
    5.5110   -2.3290    0.0580 N   0  0  0  0  0  0  0  0  0  0  0  0
    6.1890   -2.4180   -1.0890 C   0  0  0  0  0  0  0  0  0  0  0  0
    6.3940   -3.6590   -1.9160 C   0  0  0  0  0  0  0  0  0  0  0  0
    6.6570   -1.1730   -1.3660 C   0  0  0  0  0  0  0  0  0  0  0  0
    6.2320   -0.3320   -0.3350 C   0  0  0  0  0  0  0  0  0  0  0  0
    6.6110    1.1250   -0.2760 C   0  0  0  0  0  0  0  0  0  0  0  0
    1.4610    2.3610   -1.1870 C   0  0  0  0  0  0  0  0  0  0  0  0
    0.7890    3.2340   -2.0120 C   0  0  0  0  0  0  0  0  0  0  0  0
   -0.5360    3.3100   -1.9080 N   0  0  0  0  0  0  0  0  0  0  0  0
   -1.2220    2.5470   -1.0070 C   0  0  0  0  0  0  0  0  0  0  0  0
   -2.6180    2.7320   -1.0040 N   0  0  0  0  0  0  0  0  0  0  0  0
   -1.3760   -1.3570   -0.4060 N   0  0  0  0  0  0  0  0  0  0  0  0
   -1.2290   -1.0300   -1.7680 C   0  0  0  0  0  0  0  0  0  0  0  0
   -2.5770   -0.9130   -2.4330 C   0  0  0  0  0  0  0  0  0  0  0  0
   -2.4330   -0.5850   -3.8030 O   0  0  0  0  0  0  0  0  0  0  0  0
  1  2  1  0
  2  3  1  0
  3  4  2  0
  3 36  1  0
  4  5  1  0
  5  6  2  0
  7  6  1  6
  6 36  1  0
  7  8  1  0
  7 17  1  0
  8  9  2  0
  8 13  1  0
  9 10  1  0
 10 11  2  0
 11 12  1  0
 11 16  1  0
 12 13  2  0
 12 14  1  0
 14 15  1  0
 15 16  1  0
 17 18  1  0
 17 34  2  0
 18 19  1  0
 18 31  2  0
 19 20  1  0
 20 21  2  0
 20 22  1  0
 22 23  1  0
 23 24  1  0
 24 25  1  0
 24 29  1  0
 25 26  2  0
 26 27  1  0
 26 28  1  0
 28 29  2  0
 29 30  1  0
 31 32  1  0
 32 33  2  0
 33 34  1  0
 34 35  1  0
 36 37  1  0
 37 38  1  0
 38 39  1  0
M  CHG  1  33   1
M  END
