
     RDKit          3D

 39 43  0  0  0  0  0  0  0  0999 V2000
   -4.5200   -0.8380   -2.8420 C   0  0  0  0  0  0  0  0  0  0  0  0
   -3.6770   -1.0260   -1.6150 C   0  0  0  0  0  0  0  0  0  0  0  0
   -2.6960   -0.2070   -1.1700 N   0  0  0  0  0  0  0  0  0  0  0  0
   -2.1330   -0.6600   -0.0400 C   0  0  0  0  0  0  0  0  0  0  0  0
   -1.0720   -0.0900    0.7530 C   0  0  0  0  0  0  0  0  0  0  0  0
   -0.7220   -0.7940    1.8020 O   0  0  0  0  0  0  0  0  0  0  0  0
   -0.3340    1.0760    0.6200 N   0  0  0  0  0  0  0  0  0  0  0  0
   -0.5940    2.1380   -0.3010 C   0  0  0  0  0  0  0  0  0  0  0  0
    0.0520    2.0870   -1.6460 C   0  0  0  0  0  0  0  0  0  0  0  0
   -0.3180    3.3050   -2.4010 C   0  0  0  0  0  0  0  0  0  0  0  0
    0.4020    4.4560   -2.3050 N   0  0  0  0  0  0  0  0  0  0  0  0
   -0.1690    5.3610   -3.1080 N   0  0  0  0  0  0  0  0  0  0  0  0
   -1.2290    4.8200   -3.7110 C   0  0  0  0  0  0  0  0  0  0  0  0
   -1.2960    3.5370   -3.2500 N   0  0  0  0  0  0  0  0  0  0  0  0
   -2.3210    2.6360   -3.6940 C   0  0  0  0  0  0  0  0  0  0  0  0
    0.7420    1.3390    1.5520 C   0  0  0  0  0  0  0  0  0  0  0  0
    0.6840    2.5240    2.2660 N   0  0  0  0  0  0  0  0  0  0  0  0
    1.7050    2.5440    3.1200 C   0  0  0  0  0  0  0  0  0  0  0  0
    2.4200    1.4330    2.9940 N   0  0  0  0  0  0  0  0  0  0  0  0
    1.8110    0.6610    1.9920 C   0  0  0  0  0  0  0  0  0  0  0  0
    2.3970   -0.5730    1.5430 C   0  0  0  0  0  0  0  0  0  0  0  0
    3.3170   -1.0690    2.3820 O   0  0  0  0  0  0  0  0  0  0  0  0
    2.2390   -1.3770    0.4320 N   0  0  0  0  0  0  0  0  0  0  0  0
    1.4560   -1.2870   -0.7530 C   0  0  0  0  0  0  0  0  0  0  0  0
    2.2940   -1.9620   -1.8600 C   0  0  0  0  0  0  0  0  0  0  0  0
    3.1520   -2.9380   -1.1280 C   0  0  0  0  0  0  0  0  0  0  0  0
    2.9990   -2.6770    0.3220 C   0  0  2  0  0  0  0  0  0  0  0  0
    2.3010   -3.7740    1.0440 C   0  0  0  0  0  0  0  0  0  0  0  0
    0.6550   -4.0720    0.3950 S   0  0  0  0  0  0  0  0  0  0  0  0
    3.5880    1.1460    3.7790 C   0  0  0  0  0  0  0  0  0  0  0  0
    3.9810    2.1940    4.7350 C   0  0  0  0  0  0  0  0  0  0  0  0
    3.1580    3.3920    4.8330 C   0  0  0  0  0  0  0  0  0  0  0  0
    2.0990    3.5760    4.0940 C   0  0  0  0  0  0  0  0  0  0  0  0
   -2.7810   -1.8420    0.2750 C   0  0  0  0  0  0  0  0  0  0  0  0
   -2.6280   -2.7990    1.3790 C   0  0  0  0  0  0  0  0  0  0  0  0
   -3.7310   -2.0490   -0.7130 C   0  0  0  0  0  0  0  0  0  0  0  0
   -4.6730   -3.1850   -0.8140 C   0  0  0  0  0  0  0  0  0  0  0  0
   -4.6600   -4.0860    0.0520 O   0  0  0  0  0  0  0  0  0  0  0  0
   -5.5700   -3.2650   -1.8550 O   0  0  0  0  0  0  0  0  0  0  0  0
  1  2  1  0
  2  3  1  0
  2 36  2  0
  3  4  1  0
  4  5  1  0
  4 34  2  0
  5  6  2  0
  5  7  1  0
  7  8  1  0
  7 16  1  0
  8  9  1  0
  9 10  1  0
 10 11  2  0
 10 14  1  0
 11 12  1  0
 12 13  2  0
 13 14  1  0
 14 15  1  0
 16 17  1  0
 16 20  2  0
 17 18  2  0
 18 19  1  0
 18 33  1  0
 19 20  1  0
 19 30  1  0
 20 21  1  0
 21 22  2  0
 21 23  1  0
 23 24  1  0
 23 27  1  0
 24 25  1  0
 25 26  1  0
 26 27  1  0
 27 28  1  6
 28 29  1  0
 30 31  1  0
 31 32  1  0
 32 33  2  0
 34 35  1  0
 34 36  1  0
 36 37  1  0
 37 38  2  0
 37 39  1  0
M  END
