
     RDKit          3D

 46 49  0  0  0  0  0  0  0  0999 V2000
    1.8590   -5.7110    0.1170 C   0  0  0  0  0  0  0  0  0  0  0  0
    1.5840   -4.5240    0.8050 O   0  0  0  0  0  0  0  0  0  0  0  0
    2.5440   -3.5320    0.9390 C   0  0  0  0  0  0  0  0  0  0  0  0
    3.7870   -3.7270    0.3820 C   0  0  0  0  0  0  0  0  0  0  0  0
    4.8070   -2.7820    0.4690 C   0  0  0  0  0  0  0  0  0  0  0  0
    4.5480   -1.6150    1.1420 C   0  0  0  0  0  0  0  0  0  0  0  0
    5.5540   -0.5380    1.3110 C   0  0  1  0  0  0  0  0  0  0  0  0
    6.3300   -0.2810    0.1100 N   0  0  0  0  0  0  0  0  0  0  0  0
    7.7450   -0.3990    0.0890 C   0  0  0  0  0  0  0  0  0  0  0  0
    8.2850   -0.7420    1.1720 O   0  0  0  0  0  0  0  0  0  0  0  0
    8.5950   -0.1570   -1.0620 C   0  0  0  0  0  0  0  0  0  0  0  0
    8.1530    0.3110   -2.2750 C   0  0  0  0  0  0  0  0  0  0  0  0
    9.0320    0.5200   -3.3160 C   0  0  0  0  0  0  0  0  0  0  0  0
   10.3900    0.2790   -3.2140 C   0  0  0  0  0  0  0  0  0  0  0  0
   11.2520    0.5000   -4.2800 O   0  0  0  0  0  0  0  0  0  0  0  0
   10.8430   -0.1930   -1.9970 C   0  0  0  0  0  0  0  0  0  0  0  0
    9.9580   -0.4000   -0.9590 C   0  0  0  0  0  0  0  0  0  0  0  0
    4.8870    0.7440    1.7110 C   0  0  0  0  0  0  0  0  0  0  0  0
    4.2390    1.5170    0.7830 C   0  0  0  0  0  0  0  0  0  0  0  0
    3.6260    2.6940    1.1500 C   0  0  0  0  0  0  0  0  0  0  0  0
    3.6770    3.0860    2.4750 C   0  0  0  0  0  0  0  0  0  0  0  0
    4.3280    2.3100    3.4020 C   0  0  0  0  0  0  0  0  0  0  0  0
    4.9330    1.1390    3.0170 C   0  0  0  0  0  0  0  0  0  0  0  0
    3.2900   -1.4270    1.7040 C   0  0  0  0  0  0  0  0  0  0  0  0
    2.2750   -2.3400    1.6290 C   0  0  0  0  0  0  0  0  0  0  0  0
    0.9390   -2.2510    2.2290 C   0  0  0  0  0  0  0  0  0  0  0  0
    0.5790   -1.1120    2.8540 O   0  0  0  0  0  0  0  0  0  0  0  0
    0.3580    0.0190    2.1450 C   0  0  0  0  0  0  0  0  0  0  0  0
   -0.8210   -0.1040    1.1790 C   0  0  0  0  0  0  0  0  0  0  0  0
   -2.0320   -0.3920    1.8630 N   0  0  0  0  0  0  0  0  0  0  0  0
   -3.2140   -0.5110    1.0800 C   0  0  0  0  0  0  0  0  0  0  0  0
   -3.6250    0.7850    0.5420 C   0  0  0  0  0  0  0  0  0  0  0  0
   -2.9460    1.7910    0.7930 O   0  0  0  0  0  0  0  0  0  0  0  0
   -4.8140    0.9500   -0.2830 N   0  0  0  0  0  0  0  0  0  0  0  0
   -5.0860    2.2850   -0.7150 C   0  0  0  0  0  0  0  0  0  0  0  0
   -5.8620    3.1970    0.1430 C   0  0  2  0  0  0  0  0  0  0  0  0
   -5.2570    3.4410    1.5200 C   0  0  0  0  0  0  0  0  0  0  0  0
   -7.3200    3.0100    0.2760 C   0  0  0  0  0  0  0  0  0  0  0  0
   -5.7090    4.6040   -0.5480 C   0  0  0  0  0  0  0  0  0  0  0  0
   -5.5000   -0.2590   -0.6330 C   0  0  2  0  0  0  0  0  0  0  0  0
   -5.6070   -0.4770   -2.1080 C   0  0  0  0  0  0  0  0  0  0  0  0
   -6.8780   -1.2790   -2.2570 C   0  0  2  0  0  0  0  0  0  0  0  0
   -7.3670   -1.1630   -3.6680 C   0  0  0  0  0  0  0  0  0  0  0  0
   -7.7420   -0.5410   -1.3090 N   0  0  0  0  0  0  0  0  0  0  0  0
   -6.8800   -0.4430   -0.1180 C   0  0  1  0  0  0  0  0  0  0  0  0
   -7.0270   -1.8430    0.5260 C   0  0  0  0  0  0  0  0  0  0  0  0
  1  2  1  0
  2  3  1  0
  3  4  2  0
  3 25  1  0
  4  5  1  0
  5  6  2  0
  6  7  1  0
  6 24  1  0
  7  8  1  6
  7 18  1  0
  8  9  1  0
  9 10  2  0
  9 11  1  0
 11 12  2  0
 11 17  1  0
 12 13  1  0
 13 14  2  0
 14 15  1  0
 14 16  1  0
 16 17  2  0
 18 19  2  0
 18 23  1  0
 19 20  1  0
 20 21  2  0
 21 22  1  0
 22 23  2  0
 24 25  2  0
 25 26  1  0
 26 27  1  0
 27 28  1  0
 28 29  1  0
 29 30  1  0
 30 31  1  0
 31 32  1  0
 32 33  2  0
 32 34  1  0
 34 35  1  0
 40 34  1  6
 35 36  1  0
 36 37  1  1
 36 38  1  0
 36 39  1  0
 40 41  1  0
 40 45  1  0
 41 42  1  0
 42 43  1  6
 42 44  1  0
 44 45  1  0
 45 46  1  6
M  END
