
     RDKit          3D

 46 49  0  0  0  0  0  0  0  0999 V2000
   -7.1120   -3.2530    2.3750 C   0  0  0  0  0  0  0  0  0  0  0  0
   -5.9530   -3.8430    1.7500 N   0  0  0  0  0  0  0  0  0  0  0  0
   -5.1110   -2.7410    1.2680 C   0  0  2  0  0  0  0  0  0  0  0  0
   -4.6750   -1.9260    2.4670 C   0  0  0  0  0  0  0  0  0  0  0  0
   -5.8870   -1.9530    0.2990 C   0  0  0  0  0  0  0  0  0  0  0  0
   -7.0990   -2.2790    0.0580 O   0  0  0  0  0  0  0  0  0  0  0  0
   -5.3910   -0.8210   -0.4190 N   0  0  0  0  0  0  0  0  0  0  0  0
   -6.1090   -0.0240   -1.3650 C   0  0  0  0  0  0  0  0  0  0  0  0
   -5.2460    1.1410   -1.7070 C   0  0  1  0  0  0  0  0  0  0  0  0
   -6.0170    2.3940   -1.4910 C   0  0  0  0  0  0  0  0  0  0  0  0
   -6.1670    3.1520   -2.5290 O   0  0  0  0  0  0  0  0  0  0  0  0
   -6.5940    2.8390   -0.3040 N   0  0  0  0  0  0  0  0  0  0  0  0
   -7.3640    4.0940   -0.2080 C   0  0  0  0  0  0  0  0  0  0  0  0
   -8.4300    3.8170    0.8160 C   0  0  0  0  0  0  0  0  0  0  0  0
   -8.0280    2.5740    1.5630 C   0  0  0  0  0  0  0  0  0  0  0  0
   -6.6240    2.3050    1.0190 C   0  0  0  0  0  0  0  0  0  0  0  0
   -4.0260    1.0390   -0.8690 C   0  0  2  0  0  0  0  0  0  0  0  0
   -3.9500    2.0520    0.1080 O   0  0  0  0  0  0  0  0  0  0  0  0
   -2.7530    1.1990   -1.6920 C   0  0  0  0  0  0  0  0  0  0  0  0
   -1.5240    1.0560   -0.8140 C   0  0  0  0  0  0  0  0  0  0  0  0
   -0.3130    1.2300   -1.7010 C   0  0  0  0  0  0  0  0  0  0  0  0
    0.9980    1.0730   -1.0060 C   0  0  0  0  0  0  0  0  0  0  0  0
    1.1470   -0.3220   -0.3760 C   0  0  0  0  0  0  0  0  0  0  0  0
    1.0250   -1.3510   -1.4000 C   0  0  0  0  0  0  0  0  0  0  0  0
    1.1600   -2.7580   -1.0570 C   0  0  0  0  0  0  0  0  0  0  0  0
    0.1480   -3.6510   -0.9560 C   0  0  0  0  0  0  0  0  0  0  0  0
    0.3000   -4.9790   -0.6540 C   0  0  0  0  0  0  0  0  0  0  0  0
    1.5700   -5.4460   -0.4360 C   0  0  0  0  0  0  0  0  0  0  0  0
    2.6300   -4.6060   -0.5200 C   0  0  0  0  0  0  0  0  0  0  0  0
    2.4780   -3.2190   -0.8350 C   0  0  0  0  0  0  0  0  0  0  0  0
    3.5400   -2.5270   -0.8900 O   0  0  0  0  0  0  0  0  0  0  0  0
    4.5350   -1.7660   -0.8300 C   0  0  0  0  0  0  0  0  0  0  0  0
    4.6000   -0.5120   -1.4430 C   0  0  0  0  0  0  0  0  0  0  0  0
    5.7030    0.3100   -1.3740 C   0  0  0  0  0  0  0  0  0  0  0  0
    6.8060   -0.0930   -0.6790 C   0  0  0  0  0  0  0  0  0  0  0  0
    8.0040    0.7620   -0.6270 C   0  0  1  0  0  0  0  0  0  0  0  0
    7.7860    1.9840   -1.5330 C   0  0  0  0  0  0  0  0  0  0  0  0
    8.3190    1.3100    0.7350 C   0  0  0  0  0  0  0  0  0  0  0  0
    9.5260    2.1000    0.6660 N   0  0  0  0  0  0  0  0  0  0  0  0
   10.0740    2.7570    1.8100 C   0  0  0  0  0  0  0  0  0  0  0  0
   11.3220    3.5460    1.6110 C   0  0  0  0  0  0  0  0  0  0  0  0
    9.4870    2.6400    2.9070 O   0  0  0  0  0  0  0  0  0  0  0  0
    6.8140   -1.3080   -0.0510 C   0  0  0  0  0  0  0  0  0  0  0  0
    7.9770   -1.8240    0.7280 C   0  0  0  0  0  0  0  0  0  0  0  0
    5.7150   -2.1200   -0.1230 C   0  0  0  0  0  0  0  0  0  0  0  0
   -4.0500   -0.3320   -0.2870 C   0  0  0  0  0  0  0  0  0  0  0  0
  1  2  1  0
  2  3  1  0
  3  4  1  1
  3  5  1  0
  5  6  2  0
  5  7  1  0
  7  8  1  0
  7 46  1  0
  8  9  1  0
  9 10  1  1
  9 17  1  0
 10 11  2  0
 10 12  1  0
 12 13  1  0
 12 16  1  0
 13 14  1  0
 14 15  1  0
 15 16  1  0
 17 18  1  1
 17 19  1  0
 17 46  1  0
 19 20  1  0
 20 21  1  0
 21 22  1  0
 22 23  1  0
 23 24  1  0
 24 25  1  0
 25 26  2  0
 25 30  1  0
 26 27  1  0
 27 28  2  0
 28 29  1  0
 29 30  2  0
 30 31  1  0
 31 32  1  0
 32 33  2  0
 32 45  1  0
 33 34  1  0
 34 35  2  0
 35 36  1  0
 35 43  1  0
 36 37  1  6
 36 38  1  0
 38 39  1  0
 39 40  1  0
 40 41  1  0
 40 42  2  0
 43 44  1  0
 43 45  2  0
M  END
