
     RDKit          3D

 46 51  0  0  0  0  0  0  0  0999 V2000
    6.1580    2.0880    0.8090 O   0  0  0  0  0  0  0  0  0  0  0  0
    4.9690    2.2050    0.4060 C   0  0  0  0  0  0  0  0  0  0  0  0
    3.9310    2.9030    1.2160 C   0  0  0  0  0  0  0  0  0  0  0  0
    2.6810    2.9060    0.6040 O   0  0  0  0  0  0  0  0  0  0  0  0
    1.9450    1.7880    0.2810 C   0  0  0  0  0  0  0  0  0  0  0  0
    2.4040    0.6610    0.5470 O   0  0  0  0  0  0  0  0  0  0  0  0
    0.6330    1.9550   -0.3700 C   0  0  1  0  0  0  0  0  0  0  0  0
   -0.1880    2.8740    0.5120 C   0  0  0  0  0  0  0  0  0  0  0  0
   -0.5630    4.0600   -0.3140 C   0  0  0  0  0  0  0  0  0  0  0  0
   -0.1300    3.8180   -1.7250 C   0  0  0  0  0  0  0  0  0  0  0  0
    0.8010    2.6290   -1.6910 C   0  0  2  0  0  0  0  0  0  0  0  0
    0.4970    1.5110   -3.0870 S   0  0  0  0  0  0  0  0  0  0  0  0
   -0.9010    0.4100   -2.7370 C   0  0  0  0  0  0  0  0  0  0  0  0
   -1.2910    0.6530   -1.2950 C   0  0  1  0  0  0  0  0  0  0  0  0
   -2.2720   -0.3360   -0.8990 N   0  0  0  0  0  0  0  0  0  0  0  0
   -3.5740    0.0070   -0.4510 C   0  0  0  0  0  0  0  0  0  0  0  0
   -3.8350    1.2480   -0.4170 O   0  0  0  0  0  0  0  0  0  0  0  0
   -4.5970   -0.9360   -0.0430 C   0  0  0  0  0  0  0  0  0  0  0  0
   -4.4280   -2.3040   -0.0730 C   0  0  0  0  0  0  0  0  0  0  0  0
   -5.4250   -3.1640    0.3230 C   0  0  0  0  0  0  0  0  0  0  0  0
   -6.6570   -2.6870    0.7740 C   0  0  0  0  0  0  0  0  0  0  0  0
   -6.8540   -1.3450    0.8150 C   0  0  0  0  0  0  0  0  0  0  0  0
   -8.0670   -0.7570    1.2370 N   0  0  0  0  0  0  0  0  0  0  0  0
   -9.3030   -1.4010    1.4100 C   0  0  0  0  0  0  0  0  0  0  0  0
   -9.4140   -2.6160    1.1790 O   0  0  0  0  0  0  0  0  0  0  0  0
  -10.5240   -0.6680    1.8720 C   0  0  1  0  0  0  0  0  0  0  0  0
  -10.9690    0.3920    0.9200 C   0  0  0  0  0  0  0  0  0  0  0  0
  -12.0100   -0.2690    0.0590 C   0  0  0  0  0  0  0  0  0  0  0  0
  -12.0530   -1.6640    0.6310 C   0  0  0  0  0  0  0  0  0  0  0  0
  -11.5690   -1.5690    1.9380 O   0  0  0  0  0  0  0  0  0  0  0  0
   -5.8090   -0.4850    0.4010 C   0  0  0  0  0  0  0  0  0  0  0  0
   -0.0130    0.5900   -0.4880 C   0  0  0  0  0  0  0  0  0  0  0  0
    4.6750    1.6530   -0.8300 O   0  0  0  0  0  0  0  0  0  0  0  0
    5.6470    1.0030   -1.5850 C   0  0  0  0  0  0  0  0  0  0  0  0
    6.2410   -0.1760   -0.9020 C   0  0  0  0  0  0  0  0  0  0  0  0
    5.8210   -0.7310    0.2830 C   0  0  0  0  0  0  0  0  0  0  0  0
    6.6710   -1.8080    0.5270 C   0  0  0  0  0  0  0  0  0  0  0  0
    7.5550   -1.8380   -0.5270 C   0  0  0  0  0  0  0  0  0  0  0  0
    8.6350   -2.8520   -0.6430 C   0  0  0  0  0  0  0  0  0  0  0  0
    9.8920   -2.4240    0.0320 C   0  0  0  0  0  0  0  0  0  0  0  0
   10.8320   -1.7040   -0.6590 C   0  0  0  0  0  0  0  0  0  0  0  0
   11.9940   -1.3230    0.0070 C   0  0  0  0  0  0  0  0  0  0  0  0
   12.1830   -1.6680    1.3260 C   0  0  0  0  0  0  0  0  0  0  0  0
   11.2460   -2.3930    2.0400 C   0  0  0  0  0  0  0  0  0  0  0  0
   10.0930   -2.7650    1.3630 C   0  0  0  0  0  0  0  0  0  0  0  0
    7.2700   -0.8630   -1.3450 O   0  0  0  0  0  0  0  0  0  0  0  0
  1  2  2  0
  2  3  1  0
  2 33  1  0
  3  4  1  0
  4  5  1  0
  5  6  2  0
  7  5  1  1
  7  8  1  0
  7 11  1  0
  7 32  1  0
  8  9  1  0
  9 10  1  0
 11 10  1  1
 11 12  1  0
 12 13  1  0
 13 14  1  0
 14 15  1  1
 14 32  1  0
 15 16  1  0
 16 17  2  0
 16 18  1  0
 18 19  2  0
 18 31  1  0
 19 20  1  0
 20 21  2  0
 21 22  1  0
 22 23  1  0
 22 31  2  0
 23 24  1  0
 24 25  2  0
 26 24  1  6
 26 27  1  0
 26 30  1  0
 27 28  1  0
 28 29  1  0
 29 30  1  0
 33 34  1  0
 34 35  1  0
 35 36  2  0
 35 46  1  0
 36 37  1  0
 37 38  2  0
 38 39  1  0
 38 46  1  0
 39 40  1  0
 40 41  2  0
 40 45  1  0
 41 42  1  0
 42 43  2  0
 43 44  1  0
 44 45  2  0
M  END
