
     RDKit          3D

 46 52  0  0  0  0  0  0  0  0999 V2000
   -0.6490   -2.2640   -0.4690 O   0  0  0  0  0  0  0  0  0  0  0  0
   -0.1880   -1.1110   -0.1270 C   0  0  0  0  0  0  0  0  0  0  0  0
    1.0140   -0.7900   -0.8160 N   0  0  0  0  0  0  0  0  0  0  0  0
    1.8960   -1.9250   -1.1390 C   0  0  0  0  0  0  0  0  0  0  0  0
    2.8790   -2.1960   -0.0710 C   0  0  0  0  0  0  0  0  0  0  0  0
    2.5640   -2.0740    1.2550 C   0  0  0  0  0  0  0  0  0  0  0  0
    3.5210   -2.3320    2.2230 C   0  0  0  0  0  0  0  0  0  0  0  0
    4.8020   -2.7150    1.8710 C   0  0  0  0  0  0  0  0  0  0  0  0
    5.7600   -2.9710    2.8580 C   0  0  0  0  0  0  0  0  0  0  0  0
    7.0430   -3.3510    2.5200 C   0  0  0  0  0  0  0  0  0  0  0  0
    7.3410   -3.4690    1.1850 C   0  0  0  0  0  0  0  0  0  0  0  0
    6.4150   -3.2220    0.2060 C   0  0  0  0  0  0  0  0  0  0  0  0
    5.1310   -2.8410    0.5460 C   0  0  0  0  0  0  0  0  0  0  0  0
    4.1510   -2.5770   -0.4170 C   0  0  0  0  0  0  0  0  0  0  0  0
    1.4160    0.5420   -1.2090 C   0  0  2  0  0  0  0  0  0  0  0  0
    2.7140    0.6030   -1.9590 C   0  0  0  0  0  0  0  0  0  0  0  0
    3.1120    1.9720   -2.3390 C   0  0  0  0  0  0  0  0  0  0  0  0
    3.8900    2.7430   -1.5170 C   0  0  0  0  0  0  0  0  0  0  0  0
    4.2700    4.0220   -1.8630 C   0  0  0  0  0  0  0  0  0  0  0  0
    3.8580    4.5490   -3.0720 C   0  0  0  0  0  0  0  0  0  0  0  0
    3.0700    3.8030   -3.9330 C   0  0  0  0  0  0  0  0  0  0  0  0
    2.7130    2.5290   -3.5470 C   0  0  0  0  0  0  0  0  0  0  0  0
    1.3610    1.4820   -0.0290 C   0  0  2  0  0  0  0  0  0  0  0  0
    2.1100    1.1110    1.0520 O   0  0  0  0  0  0  0  0  0  0  0  0
   -0.1110    1.7780    0.3350 C   0  0  1  0  0  0  0  0  0  0  0  0
   -0.7660    1.8020   -0.8580 O   0  0  0  0  0  0  0  0  0  0  0  0
   -0.6380    0.8510    1.3900 C   0  0  1  0  0  0  0  0  0  0  0  0
   -1.3680    1.4420    2.5080 C   0  0  0  0  0  0  0  0  0  0  0  0
   -2.5810    2.2320    2.2710 C   0  0  0  0  0  0  0  0  0  0  0  0
   -2.5660    3.6070    1.9970 C   0  0  0  0  0  0  0  0  0  0  0  0
   -3.7230    4.3300    1.8050 C   0  0  0  0  0  0  0  0  0  0  0  0
   -4.9580    3.7310    1.8750 C   0  0  0  0  0  0  0  0  0  0  0  0
   -5.0150    2.3900    2.1410 C   0  0  0  0  0  0  0  0  0  0  0  0
   -3.8450    1.6920    2.3280 C   0  0  0  0  0  0  0  0  0  0  0  0
   -0.9830   -0.4160    0.8640 N   0  0  0  0  0  0  0  0  0  0  0  0
   -2.0800   -1.2320    1.2580 C   0  0  0  0  0  0  0  0  0  0  0  0
   -3.2520   -1.2680    0.3840 C   0  0  0  0  0  0  0  0  0  0  0  0
   -3.6570   -0.2020   -0.3640 C   0  0  0  0  0  0  0  0  0  0  0  0
   -4.7520   -0.2180   -1.2140 C   0  0  0  0  0  0  0  0  0  0  0  0
   -5.4930   -1.3590   -1.3310 C   0  0  0  0  0  0  0  0  0  0  0  0
   -6.5980   -1.3870   -2.1850 C   0  0  0  0  0  0  0  0  0  0  0  0
   -7.3510   -2.5230   -2.3150 C   0  0  0  0  0  0  0  0  0  0  0  0
   -7.0010   -3.6330   -1.5920 C   0  0  0  0  0  0  0  0  0  0  0  0
   -5.9070   -3.6020   -0.7480 C   0  0  0  0  0  0  0  0  0  0  0  0
   -5.1260   -2.4770   -0.5920 C   0  0  0  0  0  0  0  0  0  0  0  0
   -4.0330   -2.4280    0.2420 C   0  0  0  0  0  0  0  0  0  0  0  0
  1  2  2  0
  2  3  1  0
  2 35  1  0
  3  4  1  0
  3 15  1  0
  4  5  1  0
  5  6  2  0
  5 14  1  0
  6  7  1  0
  7  8  2  0
  8  9  1  0
  8 13  1  0
  9 10  2  0
 10 11  1  0
 11 12  2  0
 12 13  1  0
 13 14  2  0
 15 16  1  1
 15 23  1  0
 16 17  1  0
 17 18  2  0
 17 22  1  0
 18 19  1  0
 19 20  2  0
 20 21  1  0
 21 22  2  0
 23 24  1  1
 23 25  1  0
 25 26  1  6
 25 27  1  0
 27 28  1  6
 27 35  1  0
 28 29  1  0
 29 30  2  0
 29 34  1  0
 30 31  1  0
 31 32  2  0
 32 33  1  0
 33 34  2  0
 35 36  1  0
 36 37  1  0
 37 38  2  0
 37 46  1  0
 38 39  1  0
 39 40  2  0
 40 41  1  0
 40 45  1  0
 41 42  2  0
 42 43  1  0
 43 44  2  0
 44 45  1  0
 45 46  2  0
M  END
