
     RDKit          3D

 46 49  0  0  0  0  0  0  0  0999 V2000
   -3.9190    7.6670    1.9490 C   0  0  0  0  0  0  0  0  0  0  0  0
   -3.5310    6.4310    1.1750 C   0  0  0  0  0  0  0  0  0  0  0  0
   -3.0870    5.3670    2.1710 C   0  0  0  0  0  0  0  0  0  0  0  0
   -2.7060    4.1390    1.3350 C   0  0  0  0  0  0  0  0  0  0  0  0
   -2.2650    3.0850    2.2960 C   0  0  0  0  0  0  0  0  0  0  0  0
   -1.8530    1.8000    1.6180 C   0  0  1  0  0  0  0  0  0  0  0  0
   -2.9380    1.2500    0.8690 N   0  0  0  0  0  0  0  0  0  0  0  0
   -3.5010    0.0130    1.2140 C   0  0  0  0  0  0  0  0  0  0  0  0
   -3.0730   -0.6490    2.1890 O   0  0  0  0  0  0  0  0  0  0  0  0
   -4.6150   -0.5650    0.4510 C   0  0  0  0  0  0  0  0  0  0  0  0
   -5.6710    0.1350   -0.1270 C   0  0  0  0  0  0  0  0  0  0  0  0
   -6.4810   -0.7930   -0.7450 C   0  0  0  0  0  0  0  0  0  0  0  0
   -7.7360   -0.4560   -1.4920 C   0  0  0  0  0  0  0  0  0  0  0  0
   -5.9770   -2.0230   -0.5770 N   0  0  0  0  0  0  0  0  0  0  0  0
   -6.5460   -3.2240   -1.0800 C   0  0  0  0  0  0  0  0  0  0  0  0
   -6.1990   -3.6470   -2.3450 C   0  0  0  0  0  0  0  0  0  0  0  0
   -6.7480   -4.8250   -2.8550 C   0  0  0  0  0  0  0  0  0  0  0  0
   -7.6370   -5.5950   -2.1340 C   0  0  0  0  0  0  0  0  0  0  0  0
   -7.9770   -5.1620   -0.8720 C   0  0  0  0  0  0  0  0  0  0  0  0
   -7.4350   -3.9940   -0.3600 C   0  0  0  0  0  0  0  0  0  0  0  0
   -7.8040   -3.5280    1.0040 C   0  0  0  0  0  0  0  0  0  0  0  0
   -4.8430   -1.8990    0.1490 C   0  0  0  0  0  0  0  0  0  0  0  0
   -3.9850   -3.0470    0.5510 C   0  0  0  0  0  0  0  0  0  0  0  0
   -0.6750    1.9650    0.7560 C   0  0  0  0  0  0  0  0  0  0  0  0
   -0.7480    1.6230   -0.4480 O   0  0  0  0  0  0  0  0  0  0  0  0
    0.5820    2.4960    1.1810 N   0  0  0  0  0  0  0  0  0  0  0  0
    1.6980    2.6260    0.2640 C   0  0  0  0  0  0  0  0  0  0  0  0
    2.3330    1.3070    0.0160 C   0  0  0  0  0  0  0  0  0  0  0  0
    2.0040    0.2290    0.8160 C   0  0  0  0  0  0  0  0  0  0  0  0
    2.5850   -0.9900    0.5900 C   0  0  0  0  0  0  0  0  0  0  0  0
    3.5090   -1.1830   -0.4350 C   0  0  0  0  0  0  0  0  0  0  0  0
    3.8470   -0.1230   -1.2380 C   0  0  0  0  0  0  0  0  0  0  0  0
    4.8230   -0.3130   -2.3210 C   0  0  0  0  0  0  0  0  0  0  0  0
    6.2540   -0.0100   -1.9350 C   0  0  1  0  0  0  0  0  0  0  0  0
    6.3000    1.4330   -1.4930 C   0  0  0  0  0  0  0  0  0  0  0  0
    7.5580    1.8630   -1.1140 O   0  0  0  0  0  0  0  0  0  0  0  0
    6.7730   -0.8930   -0.8260 C   0  0  2  0  0  0  0  0  0  0  0  0
    8.1730   -0.5710   -0.4750 C   0  0  0  0  0  0  0  0  0  0  0  0
    8.9930   -1.6510   -0.0230 N   0  0  0  0  0  0  0  0  0  0  0  0
   10.2750   -1.4630    0.5590 C   0  0  0  0  0  0  0  0  0  0  0  0
   10.7050   -0.2920    0.6810 O   0  0  0  0  0  0  0  0  0  0  0  0
    8.5040   -3.0060   -0.1570 C   0  0  1  0  0  0  0  0  0  0  0  0
    7.5950   -3.2490    1.0480 C   0  0  0  0  0  0  0  0  0  0  0  0
    7.6260   -2.9810   -1.4130 C   0  0  0  0  0  0  0  0  0  0  0  0
    6.5320   -2.2360   -1.0780 O   0  0  0  0  0  0  0  0  0  0  0  0
    3.2390    1.1060   -0.9830 C   0  0  0  0  0  0  0  0  0  0  0  0
  1  2  1  0
  2  3  1  0
  3  4  1  0
  4  5  1  0
  6  5  1  6
  6  7  1  0
  6 24  1  0
  7  8  1  0
  8  9  2  0
  8 10  1  0
 10 11  1  0
 10 22  2  0
 11 12  2  0
 12 13  1  0
 12 14  1  0
 14 15  1  0
 14 22  1  0
 15 16  2  0
 15 20  1  0
 16 17  1  0
 17 18  2  0
 18 19  1  0
 19 20  2  0
 20 21  1  0
 22 23  1  0
 24 25  2  0
 24 26  1  0
 26 27  1  0
 27 28  1  0
 28 29  2  0
 28 46  1  0
 29 30  1  0
 30 31  2  0
 31 32  1  0
 32 33  1  0
 32 46  2  0
 34 33  1  1
 34 35  1  0
 34 37  1  0
 35 36  1  0
 37 38  1  6
 37 45  1  0
 38 39  1  0
 39 40  1  0
 39 42  1  0
 40 41  2  0
 42 43  1  1
 42 44  1  0
 44 45  1  0
M  END
