
     RDKit          3D

 46 49  0  0  0  0  0  0  0  0999 V2000
    2.4500   -5.7050   -2.2590 C   0  0  0  0  0  0  0  0  0  0  0  0
    2.2590   -4.4640   -1.8850 C   0  0  0  0  0  0  0  0  0  0  0  0
    2.3930   -3.2180   -2.6870 C   0  0  0  0  0  0  0  0  0  0  0  0
    1.6380   -2.2650   -1.9370 O   0  0  0  0  0  0  0  0  0  0  0  0
    2.1680   -2.4890   -0.6740 C   0  0  1  0  0  0  0  0  0  0  0  0
    1.5720   -1.6850    0.4340 C   0  0  0  0  0  0  0  0  0  0  0  0
    1.6910   -0.2050    0.2410 C   0  0  2  0  0  0  0  0  0  0  0  0
    0.9850    0.3040   -0.9850 C   0  0  0  0  0  0  0  0  0  0  0  0
   -0.4330    0.0910   -0.9890 N   0  0  0  0  0  0  0  0  0  0  0  0
   -1.2440    0.7380   -0.0250 C   0  0  0  0  0  0  0  0  0  0  0  0
   -0.6620    1.4980    0.8260 O   0  0  0  0  0  0  0  0  0  0  0  0
   -2.6990    0.6410    0.1040 C   0  0  2  0  0  0  0  0  0  0  0  0
   -3.4160   -0.3670   -0.6840 C   0  0  0  0  0  0  0  0  0  0  0  0
   -2.9960   -1.7740   -0.3350 C   0  0  0  0  0  0  0  0  0  0  0  0
   -2.1530   -1.9450    0.5790 O   0  0  0  0  0  0  0  0  0  0  0  0
   -3.5290   -2.8900   -1.0060 N   0  0  0  0  0  0  0  0  0  0  0  0
   -3.2260   -4.2490   -0.7760 C   0  0  0  0  0  0  0  0  0  0  0  0
   -2.1650   -4.6860   -0.0630 C   0  0  0  0  0  0  0  0  0  0  0  0
   -1.9130   -6.0510    0.1690 C   0  0  0  0  0  0  0  0  0  0  0  0
   -2.7580   -6.9990   -0.3340 C   0  0  0  0  0  0  0  0  0  0  0  0
   -2.5170   -8.4630   -0.1020 C   0  0  0  0  0  0  0  0  0  0  0  0
   -3.8470   -6.5810   -1.0650 C   0  0  0  0  0  0  0  0  0  0  0  0
   -4.7830   -7.6120   -1.6170 C   0  0  0  0  0  0  0  0  0  0  0  0
   -4.0800   -5.2430   -1.2840 C   0  0  0  0  0  0  0  0  0  0  0  0
   -3.3280    1.9230    0.2080 N   0  0  0  0  0  0  0  0  0  0  0  0
   -2.6840    3.1270   -0.0910 C   0  0  0  0  0  0  0  0  0  0  0  0
   -1.5060    3.2290   -0.5010 O   0  0  0  0  0  0  0  0  0  0  0  0
   -3.4880    4.4070    0.1020 C   0  0  0  0  0  0  0  0  0  0  0  0
   -2.6350    5.5360   -0.3640 C   0  0  0  0  0  0  0  0  0  0  0  0
   -3.2090    6.8740   -0.2620 C   0  0  0  0  0  0  0  0  0  0  0  0
   -3.9430    7.3700   -1.2890 C   0  0  0  0  0  0  0  0  0  0  0  0
   -4.5110    8.6450   -1.2810 C   0  0  0  0  0  0  0  0  0  0  0  0
   -4.3190    9.4400   -0.1810 C   0  0  0  0  0  0  0  0  0  0  0  0
   -3.5730    8.9450    0.8710 C   0  0  0  0  0  0  0  0  0  0  0  0
   -3.3840    9.8480    2.0510 C   0  0  0  0  0  0  0  0  0  0  0  0
   -3.0250    7.7020    0.8520 C   0  0  0  0  0  0  0  0  0  0  0  0
    3.1070    0.3140    0.2650 C   0  0  0  0  0  0  0  0  0  0  0  0
    3.8420    0.0930    1.5110 C   0  0  0  0  0  0  0  0  0  0  0  0
    3.2960   -0.4480    2.4930 O   0  0  0  0  0  0  0  0  0  0  0  0
    5.2040    0.5030    1.6020 N   0  0  0  0  0  0  0  0  0  0  0  0
    5.9330    1.1490    0.5030 C   0  0  0  0  0  0  0  0  0  0  0  0
    7.3710    1.1200    0.9260 C   0  0  0  0  0  0  0  0  0  0  0  0
    7.2380    1.2410    2.4340 C   0  0  2  0  0  0  0  0  0  0  0  0
    8.5160    0.8410    3.0980 C   0  0  0  0  0  0  0  0  0  0  0  0
    6.0810    0.3570    2.7440 C   0  0  0  0  0  0  0  0  0  0  0  0
    1.8650   -3.9910   -0.5350 C   0  0  0  0  0  0  0  0  0  0  0  0
  1  2  2  0
  2  3  1  0
  2 46  1  0
  3  4  1  0
  4  5  1  0
  5  6  1  1
  5 46  1  0
  7  6  1  6
  7  8  1  0
  7 37  1  0
  8  9  1  0
  9 10  1  0
 10 11  2  0
 10 12  1  0
 12 13  1  6
 12 25  1  0
 13 14  1  0
 14 15  2  0
 14 16  1  0
 16 17  1  0
 17 18  2  0
 17 24  1  0
 18 19  1  0
 19 20  2  0
 20 21  1  0
 20 22  1  0
 22 23  1  0
 22 24  2  0
 25 26  1  0
 26 27  2  0
 26 28  1  0
 28 29  1  0
 29 30  1  0
 30 31  2  0
 30 36  1  0
 31 32  1  0
 32 33  2  0
 33 34  1  0
 34 35  1  0
 34 36  2  0
 37 38  1  0
 38 39  2  0
 38 40  1  0
 40 41  1  0
 40 45  1  0
 41 42  1  0
 42 43  1  0
 43 44  1  1
 43 45  1  0
M  END
