
     RDKit          3D

 30 33  0  0  0  0  0  0  0  0999 V2000
   -4.7450    0.4810    0.4940 C   0  0  0  0  0  0  0  0  0  0  0  0
   -4.0490   -0.5480    0.1120 C   0  0  0  0  0  0  0  0  0  0  0  0
   -4.6540   -1.8100    0.1320 C   0  0  0  0  0  0  0  0  0  0  0  0
   -5.9370   -2.1450    0.2240 C   0  0  0  0  0  0  0  0  0  0  0  0
   -6.3950   -3.5440    0.2290 C   0  0  0  0  0  0  0  0  0  0  0  0
   -3.7350   -2.7290    0.0370 O   0  0  0  0  0  0  0  0  0  0  0  0
   -2.5500   -2.2120   -0.0480 C   0  0  0  0  0  0  0  0  0  0  0  0
   -1.2870   -2.7530   -0.1130 C   0  0  0  0  0  0  0  0  0  0  0  0
   -1.1440   -4.1110   -0.1410 O   0  0  0  0  0  0  0  0  0  0  0  0
    0.1200   -4.7050   -0.2070 C   0  0  0  0  0  0  0  0  0  0  0  0
   -0.1850   -1.9350   -0.1490 C   0  0  0  0  0  0  0  0  0  0  0  0
   -0.3250   -0.5750   -0.1350 C   0  0  0  0  0  0  0  0  0  0  0  0
    0.8160    0.2390   -0.1770 C   0  0  0  0  0  0  0  0  0  0  0  0
    2.1160   -0.4720   -0.1970 C   0  0  0  0  0  0  0  0  0  0  0  0
    3.2870    0.3350   -0.2920 N   0  0  0  0  0  0  0  0  0  0  0  0
    4.4550   -0.5630   -0.1770 C   0  0  0  0  0  0  0  0  0  0  0  0
    5.7010    0.2140   -0.2570 C   0  0  0  0  0  0  0  0  0  0  0  0
    5.8110    1.5520   -0.4200 N   0  0  0  0  0  0  0  0  0  0  0  0
    7.1180    1.8420   -0.4390 C   0  0  0  0  0  0  0  0  0  0  0  0
    7.8350    0.6640   -0.2850 C   0  0  0  0  0  0  0  0  0  0  0  0
    6.9230   -0.3350   -0.1740 N   0  0  0  0  0  0  0  0  0  0  0  0
    0.6770    1.5880   -0.1880 C   0  0  0  0  0  0  0  0  0  0  0  0
    1.8100    2.5030   -0.1820 C   0  0  0  0  0  0  0  0  0  0  0  0
   -0.5870    2.1700   -0.1740 C   0  0  0  0  0  0  0  0  0  0  0  0
   -0.7830    3.6410   -0.1470 C   0  0  0  0  0  0  0  0  0  0  0  0
   -0.5890    4.2450    1.2310 C   0  0  0  0  0  0  0  0  0  0  0  0
   -1.7250    1.3510   -0.1360 C   0  0  0  0  0  0  0  0  0  0  0  0
   -2.9600    1.9970   -0.7020 C   0  0  0  0  0  0  0  0  0  0  0  0
   -1.6040    0.0060   -0.0870 C   0  0  0  0  0  0  0  0  0  0  0  0
   -2.7110   -0.8160   -0.0260 C   0  0  0  0  0  0  0  0  0  0  0  0
  1  2  2  0
  2  3  1  0
  2 30  1  0
  3  4  2  3
  3  6  1  0
  4  5  1  0
  6  7  1  0
  7  8  2  0
  7 30  1  0
  8  9  1  0
  8 11  1  0
  9 10  1  0
 11 12  2  0
 12 13  1  0
 12 29  1  0
 13 14  1  0
 13 22  2  0
 14 15  1  0
 15 16  1  0
 16 17  1  0
 17 18  2  0
 17 21  1  0
 18 19  1  0
 19 20  2  0
 20 21  1  0
 22 23  1  0
 22 24  1  0
 24 25  1  0
 24 27  2  0
 25 26  1  0
 27 28  1  0
 27 29  1  0
 29 30  2  0
M  END
