
     RDKit          3D

 31 34  0  0  0  0  0  0  0  0999 V2000
   -5.4660    2.8670   -0.2790 C   0  0  0  0  0  0  0  0  0  0  0  0
   -5.2770    1.4140   -0.5880 C   0  0  1  0  0  0  0  0  0  0  0  0
   -4.0060    0.9150   -0.0880 N   0  0  0  0  0  0  0  0  0  0  0  0
   -3.0160    0.3360   -0.9240 C   0  0  0  0  0  0  0  0  0  0  0  0
   -3.2440    0.2500   -2.1550 O   0  0  0  0  0  0  0  0  0  0  0  0
   -1.7360   -0.1580   -0.3650 C   0  0  1  0  0  0  0  0  0  0  0  0
   -0.9660   -0.6710   -1.4260 O   0  0  0  0  0  0  0  0  0  0  0  0
    0.4110   -0.7590   -1.2920 C   0  0  0  0  0  0  0  0  0  0  0  0
    1.1470   -1.6170   -2.1230 C   0  0  0  0  0  0  0  0  0  0  0  0
    2.5110   -1.6930   -1.9780 C   0  0  0  0  0  0  0  0  0  0  0  0
    3.2110   -0.9610   -1.0470 C   0  0  0  0  0  0  0  0  0  0  0  0
    4.6470   -1.0590   -0.9150 N   0  0  0  0  0  0  0  0  0  0  0  0
    5.3140   -0.2830    0.0600 C   0  0  0  0  0  0  0  0  0  0  0  0
    4.5550    0.4710    0.7710 O   0  0  0  0  0  0  0  0  0  0  0  0
    6.7420   -0.2980    0.2830 C   0  0  0  0  0  0  0  0  0  0  0  0
    7.5410   -1.0540   -0.4240 C   0  0  0  0  0  0  0  0  0  0  0  0
    9.0140   -1.1280   -0.2590 C   0  0  0  0  0  0  0  0  0  0  0  0
    9.4970   -0.2670    0.7790 N   0  0  0  0  0  0  0  0  0  0  0  0
    8.6340    0.5250    1.5160 N   0  0  0  0  0  0  0  0  0  0  0  0
    7.3630    0.5330    1.3110 C   0  0  0  0  0  0  0  0  0  0  0  0
    2.4960   -0.1460   -0.2600 N   0  0  0  0  0  0  0  0  0  0  0  0
    1.1370   -0.0420   -0.3720 C   0  0  0  0  0  0  0  0  0  0  0  0
    0.4270    0.8500    0.5020 N   0  0  0  0  0  0  0  0  0  0  0  0
   -0.9770    0.9120    0.3370 C   0  0  0  0  0  0  0  0  0  0  0  0
   -1.6070    1.8940    0.7930 O   0  0  0  0  0  0  0  0  0  0  0  0
   -6.3420    0.5740    0.0460 C   0  0  0  0  0  0  0  0  0  0  0  0
   -7.3330    1.0140    0.7850 C   0  0  0  0  0  0  0  0  0  0  0  0
   -8.1750   -0.1170    1.2280 C   0  0  0  0  0  0  0  0  0  0  0  0
   -7.5090   -1.2920    0.6230 C   0  0  0  0  0  0  0  0  0  0  0  0
   -6.4370   -0.8760   -0.0670 C   0  0  0  0  0  0  0  0  0  0  0  0
   -5.4010   -1.9950   -0.9200 Cl  0  0  0  0  0  0  0  0  0  0  0  0
  2  1  1  1
  2  3  1  0
  2 26  1  0
  3  4  1  0
  4  5  2  0
  6  4  1  6
  6  7  1  0
  6 24  1  0
  7  8  1  0
  8  9  2  0
  8 22  1  0
  9 10  1  0
 10 11  2  0
 11 12  1  0
 11 21  1  0
 12 13  1  0
 13 14  2  0
 13 15  1  0
 15 16  2  0
 15 20  1  0
 16 17  1  0
 17 18  1  0
 18 19  1  0
 19 20  2  0
 21 22  2  0
 22 23  1  0
 23 24  1  0
 24 25  2  0
 26 27  2  0
 26 30  1  0
 27 28  1  0
 28 29  1  0
 29 30  2  0
 30 31  1  0
M  END
