
     RDKit          3D

 30 32  0  0  0  0  0  0  0  0999 V2000
   -1.8790    4.1730   -2.0990 C   0  0  0  0  0  0  0  0  0  0  0  0
   -2.1770    2.9610   -1.6950 C   0  0  0  0  0  0  0  0  0  0  0  0
   -2.3710    2.6810   -0.2540 C   0  0  0  0  0  0  0  0  0  0  0  0
   -1.4460    1.6980    0.2470 N   0  0  0  0  0  0  0  0  0  0  0  0
   -0.2240    2.2370    0.7480 C   0  0  0  0  0  0  0  0  0  0  0  0
   -0.3400    3.3900    1.2320 O   0  0  0  0  0  0  0  0  0  0  0  0
    1.0900    1.6580    0.7730 N   0  0  0  0  0  0  0  0  0  0  0  0
    2.1140    2.6680    1.0760 C   0  0  0  0  0  0  0  0  0  0  0  0
    2.6250    3.3270   -0.1310 C   0  0  0  0  0  0  0  0  0  0  0  0
    3.8590    3.3540   -0.5660 C   0  0  0  0  0  0  0  0  0  0  0  0
    1.5040    0.2980    0.5620 C   0  0  2  0  0  0  0  0  0  0  0  0
    2.8020    0.1740   -0.1580 C   0  0  0  0  0  0  0  0  0  0  0  0
    3.2550   -1.1980   -0.3990 C   0  0  0  0  0  0  0  0  0  0  0  0
    2.9930   -1.9310   -1.5200 C   0  0  0  0  0  0  0  0  0  0  0  0
    3.4660   -3.2210   -1.6390 C   0  0  0  0  0  0  0  0  0  0  0  0
    4.2160   -3.8400   -0.6600 C   0  0  0  0  0  0  0  0  0  0  0  0
    4.4810   -3.1000    0.4720 C   0  0  0  0  0  0  0  0  0  0  0  0
    4.0140   -1.8120    0.6020 C   0  0  0  0  0  0  0  0  0  0  0  0
    0.4360   -0.4130   -0.2350 C   0  0  2  0  0  0  0  0  0  0  0  0
    0.0660    0.2540   -1.3790 O   0  0  0  0  0  0  0  0  0  0  0  0
   -0.7550   -0.5780    0.6890 C   0  0  1  0  0  0  0  0  0  0  0  0
   -0.4100   -0.2500    1.9940 O   0  0  0  0  0  0  0  0  0  0  0  0
   -1.8520    0.3150    0.1780 C   0  0  1  0  0  0  0  0  0  0  0  0
   -3.0890    0.0670    0.9560 C   0  0  0  0  0  0  0  0  0  0  0  0
   -3.5640   -1.3470    0.9180 C   0  0  0  0  0  0  0  0  0  0  0  0
   -4.3920   -1.8160   -0.0490 C   0  0  0  0  0  0  0  0  0  0  0  0
   -4.8200   -3.1160   -0.0560 C   0  0  0  0  0  0  0  0  0  0  0  0
   -4.3910   -3.9570    0.9500 C   0  0  0  0  0  0  0  0  0  0  0  0
   -3.5510   -3.5060    1.9430 C   0  0  0  0  0  0  0  0  0  0  0  0
   -3.1350   -2.1810    1.9230 C   0  0  0  0  0  0  0  0  0  0  0  0
  1  2  2  0
  2  3  1  0
  3  4  1  0
  4  5  1  0
  4 23  1  0
  5  6  2  0
  5  7  1  0
  7  8  1  0
  7 11  1  0
  8  9  1  0
  9 10  2  0
 11 12  1  6
 11 19  1  0
 12 13  1  0
 13 14  2  0
 13 18  1  0
 14 15  1  0
 15 16  2  0
 16 17  1  0
 17 18  2  0
 19 20  1  6
 19 21  1  0
 21 22  1  1
 21 23  1  0
 23 24  1  1
 24 25  1  0
 25 26  2  0
 25 30  1  0
 26 27  1  0
 27 28  2  0
 28 29  1  0
 29 30  2  0
M  END
