
     RDKit          3D

 31 34  0  0  0  0  0  0  0  0999 V2000
   -6.0620   -4.5580   -1.4370 C   0  0  0  0  0  0  0  0  0  0  0  0
   -5.0070   -3.9950   -0.4970 C   0  0  0  0  0  0  0  0  0  0  0  0
   -4.9230   -2.6110   -0.5880 O   0  0  0  0  0  0  0  0  0  0  0  0
   -4.5860   -2.2800   -1.9020 C   0  0  0  0  0  0  0  0  0  0  0  0
   -4.4630   -0.7660   -2.0480 C   0  0  1  0  0  0  0  0  0  0  0  0
   -5.7830   -0.0990   -1.7030 C   0  0  0  0  0  0  0  0  0  0  0  0
   -5.5950    1.3740   -2.1020 C   0  0  0  0  0  0  0  0  0  0  0  0
   -4.5410    1.9980   -1.2430 C   0  0  1  0  0  0  0  0  0  0  0  0
   -4.7590    1.9580    0.0990 O   0  0  0  0  0  0  0  0  0  0  0  0
   -3.6170    1.7960    0.7800 N   0  0  0  0  0  0  0  0  0  0  0  0
   -2.5550    1.8910   -0.1800 C   0  0  1  0  0  0  0  0  0  0  0  0
   -1.3260    1.2890    0.1840 N   0  0  0  0  0  0  0  0  0  0  0  0
   -0.1900    1.9990    0.3280 C   0  0  0  0  0  0  0  0  0  0  0  0
   -0.2600    3.2950    0.1290 O   0  0  0  0  0  0  0  0  0  0  0  0
    1.0670    1.7110    0.6420 N   0  0  0  0  0  0  0  0  0  0  0  0
    2.3360    1.4680    0.9530 C   0  0  0  0  0  0  0  0  0  0  0  0
    2.9710    2.6160    0.9760 O   0  0  0  0  0  0  0  0  0  0  0  0
    3.0470    0.3590    1.2190 N   0  0  0  0  0  0  0  0  0  0  0  0
    4.4360    0.4550    1.5340 C   0  0  0  0  0  0  0  0  0  0  0  0
    5.2010    1.5560    1.8490 C   0  0  0  0  0  0  0  0  0  0  0  0
    6.4900    1.1460    1.9090 N   0  0  0  0  0  0  0  0  0  0  0  0
    7.6060    1.8150    2.1650 C   0  0  0  0  0  0  0  0  0  0  0  0
    8.8220    1.1290    2.1520 C   0  0  0  0  0  0  0  0  0  0  0  0
   10.2930    2.0210    2.4910 Cl  0  0  0  0  0  0  0  0  0  0  0  0
    8.9000   -0.2160    1.8790 C   0  0  0  0  0  0  0  0  0  0  0  0
   10.2120   -0.9010    1.8750 C   0  0  0  0  0  0  0  0  0  0  0  0
    7.7230   -0.8680    1.6220 C   0  0  0  0  0  0  0  0  0  0  0  0
    6.5290   -0.1790    1.6410 C   0  0  0  0  0  0  0  0  0  0  0  0
    5.2760   -0.5680    1.4200 N   0  0  0  0  0  0  0  0  0  0  0  0
   -3.2070    1.2390   -1.3820 C   0  0  1  0  0  0  0  0  0  0  0  0
   -3.4150   -0.2210   -1.1220 C   0  0  0  0  0  0  0  0  0  0  0  0
  1  2  1  0
  2  3  1  0
  3  4  1  0
  5  4  1  1
  5  6  1  0
  5 31  1  0
  6  7  1  0
  8  7  1  6
  8  9  1  0
  8 30  1  0
  9 10  1  0
 10 11  1  0
 11 12  1  1
 11 30  1  0
 12 13  1  0
 13 14  2  0
 13 15  1  0
 15 16  1  0
 16 17  2  0
 16 18  1  0
 18 19  1  0
 19 20  2  0
 19 29  1  0
 20 21  1  0
 21 22  1  0
 21 28  1  0
 22 23  2  0
 23 24  1  0
 23 25  1  0
 25 26  1  0
 25 27  2  0
 27 28  1  0
 28 29  2  0
 30 31  1  1
M  END
