
     RDKit          3D

 12 13  0  0  0  0  0  0  0  0999 V2000
    3.2090    0.4330    0.2800 N   0  0  0  0  0  0  0  0  0  0  0  0
    1.9760    0.0470   -0.3370 C   0  0  2  0  0  0  0  0  0  0  0  0
    0.7880    0.7750    0.2300 C   0  0  0  0  0  0  0  0  0  0  0  0
   -0.5020    0.1160   -0.1200 C   0  0  2  0  0  0  0  0  0  0  0  0
   -1.5570    1.1600   -0.3660 C   0  0  0  0  0  0  0  0  0  0  0  0
   -2.8340    0.3620   -0.2020 C   0  0  0  0  0  0  0  0  0  0  0  0
   -2.3580   -0.8650    0.5320 C   0  0  0  0  0  0  0  0  0  0  0  0
   -1.0490   -0.6270    0.9200 O   0  0  0  0  0  0  0  0  0  0  0  0
   -0.3450   -0.8210   -1.3100 C   0  0  0  0  0  0  0  0  0  0  0  0
    0.5450   -1.8560   -0.8580 O   0  0  0  0  0  0  0  0  0  0  0  0
    1.7000   -1.4090   -0.2270 C   0  0  0  0  0  0  0  0  0  0  0  0
    2.4850   -2.1620    0.4060 O   0  0  0  0  0  0  0  0  0  0  0  0
  2  1  1  1
  2  3  1  0
  2 11  1  0
  4  3  1  1
  4  5  1  0
  4  8  1  0
  4  9  1  0
  5  6  1  0
  6  7  1  0
  7  8  1  0
  9 10  1  0
 10 11  1  0
 11 12  2  0
M  CHG  1   1   1
M  END
