
     RDKit          3D

 12 13  0  0  0  0  0  0  0  0999 V2000
    0.4990    2.4860    0.3270 N   0  0  0  0  0  0  0  0  0  0  0  0
   -0.0740    1.3110   -0.2430 C   0  0  1  0  0  0  0  0  0  0  0  0
    0.7470    0.1220   -0.4770 C   0  0  1  0  0  0  0  0  0  0  0  0
    1.9390   -0.1340    0.3870 C   0  0  0  0  0  0  0  0  0  0  0  0
    2.6530   -1.4090   -0.0140 C   0  0  0  0  0  0  0  0  0  0  0  0
    3.0910   -1.3210   -1.3440 O   0  0  0  0  0  0  0  0  0  0  0  0
   -0.4440   -0.7220    0.0050 C   0  0  2  0  0  0  0  0  0  0  0  0
   -1.2830   -1.1050   -1.0440 O   0  0  0  0  0  0  0  0  0  0  0  0
   -2.5170   -1.3860   -0.4600 C   0  0  0  0  0  0  0  0  0  0  0  0
   -3.1000   -0.1330    0.0690 C   0  0  0  0  0  0  0  0  0  0  0  0
   -2.2510    0.7970    0.5450 O   0  0  0  0  0  0  0  0  0  0  0  0
   -0.9520    0.4890    0.7010 C   0  0  2  0  0  0  0  0  0  0  0  0
  2  1  1  1
  2  3  1  0
  2 12  1  0
  3  4  1  1
  3  7  1  0
  4  5  1  0
  5  6  1  0
  7  8  1  6
  7 12  1  0
  8  9  1  0
  9 10  1  0
 10 11  1  0
 12 11  1  6
M  CHG  1   1   1
M  END
