
     RDKit          3D

 12 13  0  0  0  0  0  0  0  0999 V2000
    1.9630    1.6740    0.2880 N   0  0  0  0  0  0  0  0  0  0  0  0
    1.8350    0.2610    0.4450 C   0  0  0  0  0  0  0  0  0  0  0  0
    0.7750   -0.3750   -0.3740 C   0  0  1  0  0  0  0  0  0  0  0  0
    1.0060   -0.1660   -1.7230 O   0  0  0  0  0  0  0  0  0  0  0  0
    0.8790   -1.8920   -0.1570 C   0  0  0  0  0  0  0  0  0  0  0  0
   -0.5700   -2.2870   -0.1290 C   0  0  0  0  0  0  0  0  0  0  0  0
   -1.3160   -1.1940   -0.5270 O   0  0  0  0  0  0  0  0  0  0  0  0
   -0.6090   -0.1000   -0.0290 C   0  0  2  0  0  0  0  0  0  0  0  0
   -1.2280    1.1390   -0.5810 C   0  0  0  0  0  0  0  0  0  0  0  0
   -2.4580    1.2310    0.3000 C   0  0  0  0  0  0  0  0  0  0  0  0
   -2.2630    0.4260    1.3870 O   0  0  0  0  0  0  0  0  0  0  0  0
   -0.9220    0.0570    1.4280 C   0  0  0  0  0  0  0  0  0  0  0  0
  1  2  1  0
  2  3  1  0
  3  4  1  6
  3  5  1  0
  3  8  1  0
  5  6  1  0
  6  7  1  0
  7  8  1  0
  8  9  1  6
  8 12  1  0
  9 10  1  0
 10 11  1  0
 11 12  1  0
M  CHG  1   1   1
M  END
