
     RDKit          3D

 47 50  0  0  0  0  0  0  0  0999 V2000
   -5.7110    3.4120   -1.6590 C   0  0  0  0  0  0  0  0  0  0  0  0
   -5.5730    1.9280   -1.5610 C   0  0  0  0  0  0  0  0  0  0  0  0
   -4.1160    1.4610   -1.5620 C   0  0  0  0  0  0  0  0  0  0  0  0
   -3.3210    1.9230   -0.4850 C   0  0  0  0  0  0  0  0  0  0  0  0
   -2.6540    1.1470    0.4590 C   0  0  0  0  0  0  0  0  0  0  0  0
   -2.7720   -0.2620    0.3550 C   0  0  0  0  0  0  0  0  0  0  0  0
   -2.3930   -1.4210    0.7350 C   0  0  0  0  0  0  0  0  0  0  0  0
   -1.4170   -1.9610    1.6410 C   0  0  0  0  0  0  0  0  0  0  0  0
   -1.5030   -3.2240    1.9020 O   0  0  0  0  0  0  0  0  0  0  0  0
   -0.3510   -1.3420    2.2980 N   0  0  0  0  0  0  0  0  0  0  0  0
    0.5560   -1.9090    3.2360 C   0  0  0  0  0  0  0  0  0  0  0  0
    0.1160   -2.8920    4.0900 C   0  0  0  0  0  0  0  0  0  0  0  0
    0.8600   -3.4050    5.1240 C   0  0  0  0  0  0  0  0  0  0  0  0
    2.1250   -2.9130    5.3260 C   0  0  0  0  0  0  0  0  0  0  0  0
    2.6160   -1.9230    4.4920 C   0  0  0  0  0  0  0  0  0  0  0  0
    1.8400   -1.4220    3.4500 C   0  0  0  0  0  0  0  0  0  0  0  0
    2.4040   -0.4910    2.5000 C   0  0  0  0  0  0  0  0  0  0  0  0
    1.7680   -0.1370    1.4940 O   0  0  0  0  0  0  0  0  0  0  0  0
    3.7140    0.0920    2.6130 N   0  0  0  0  0  0  0  0  0  0  0  0
    4.2210    0.9820    1.6420 C   0  0  0  0  0  0  0  0  0  0  0  0
    3.4570    1.8560    0.9270 C   0  0  0  0  0  0  0  0  0  0  0  0
    3.9860    2.6380   -0.0880 C   0  0  0  0  0  0  0  0  0  0  0  0
    5.3390    2.5440   -0.4050 C   0  0  0  0  0  0  0  0  0  0  0  0
    6.1280    1.6920    0.2830 C   0  0  0  0  0  0  0  0  0  0  0  0
    5.5530    0.9180    1.3050 C   0  0  0  0  0  0  0  0  0  0  0  0
    7.5680    1.5280    0.0040 C   0  0  2  0  0  0  0  0  0  0  0  0
    8.2440    1.5760    1.2880 N   0  0  0  0  0  0  0  0  0  0  0  0
    9.6480    1.8820    1.1730 C   0  0  0  0  0  0  0  0  0  0  0  0
    8.1220    2.6040   -0.8470 C   0  0  0  0  0  0  0  0  0  0  0  0
    7.2140    2.9700   -2.0010 C   0  0  0  0  0  0  0  0  0  0  0  0
    5.8580    3.3780   -1.5360 C   0  0  0  0  0  0  0  0  0  0  0  0
   -3.2170   -2.5790    0.1190 C   0  0  0  0  0  0  0  0  0  0  0  0
   -2.8690   -3.7200    0.3570 O   0  0  0  0  0  0  0  0  0  0  0  0
   -4.3070   -2.3070   -0.6540 O   0  0  0  0  0  0  0  0  0  0  0  0
   -5.1450   -3.2430   -1.2580 C   0  0  1  0  0  0  0  0  0  0  0  0
   -6.3320   -3.3420   -0.2170 C   0  0  0  0  0  0  0  0  0  0  0  0
   -5.7130   -2.8800   -2.5490 C   0  0  0  0  0  0  0  0  0  0  0  0
   -7.0890   -2.8910   -2.7920 C   0  0  0  0  0  0  0  0  0  0  0  0
   -7.6470   -2.5450   -3.9840 C   0  0  0  0  0  0  0  0  0  0  0  0
   -6.8620   -2.1510   -5.0560 C   0  0  0  0  0  0  0  0  0  0  0  0
   -5.4970   -2.1350   -4.8370 C   0  0  0  0  0  0  0  0  0  0  0  0
   -4.9600   -2.4830   -3.6410 C   0  0  0  0  0  0  0  0  0  0  0  0
   -3.5640   -2.4590   -3.4400 O   0  0  0  0  0  0  0  0  0  0  0  0
   -2.7730   -2.0410   -4.5670 C   0  0  0  0  0  0  0  0  0  0  0  0
   -2.1120    1.9930    1.4950 C   0  0  0  0  0  0  0  0  0  0  0  0
   -1.4440    1.7140    2.7570 C   0  0  0  0  0  0  0  0  0  0  0  0
   -2.2710    3.2940    1.2520 O   0  0  0  0  0  0  0  0  0  0  0  0
  1  2  1  0
  2  3  1  0
  3  4  1  0
  4  5  2  3
  5  6  1  0
  5 45  1  0
  6  7  2  3
  7  8  1  0
  7 32  1  0
  8  9  2  0
  8 10  1  0
 10 11  1  0
 11 12  2  0
 11 16  1  0
 12 13  1  0
 13 14  2  0
 14 15  1  0
 15 16  2  0
 16 17  1  0
 17 18  2  0
 17 19  1  0
 19 20  1  0
 20 21  2  0
 20 25  1  0
 21 22  1  0
 22 23  2  0
 23 24  1  0
 23 31  1  0
 24 25  2  0
 24 26  1  0
 26 27  1  1
 26 29  1  0
 27 28  1  0
 29 30  1  0
 30 31  1  0
 32 33  2  0
 32 34  1  0
 34 35  1  0
 35 36  1  1
 35 37  1  0
 37 38  2  0
 37 42  1  0
 38 39  1  0
 39 40  2  0
 40 41  1  0
 41 42  2  0
 42 43  1  0
 43 44  1  0
 45 46  1  0
 45 47  2  0
M  CHG  1  27   1
M  END
