
     RDKit          3D

 47 51  0  0  0  0  0  0  0  0999 V2000
    8.9280    2.4250   -0.1980 C   0  0  0  0  0  0  0  0  0  0  0  0
    7.6830    1.6600    0.0350 C   0  0  0  0  0  0  0  0  0  0  0  0
    6.5150    2.4050    0.1700 C   0  0  0  0  0  0  0  0  0  0  0  0
    5.3100    1.7480    0.3960 C   0  0  0  0  0  0  0  0  0  0  0  0
    5.2450    0.3750    0.4890 C   0  0  0  0  0  0  0  0  0  0  0  0
    3.9300   -0.2650    0.7340 C   0  0  0  0  0  0  0  0  0  0  0  0
    2.9010    0.2690   -0.1100 N   0  0  2  0  0  0  0  0  0  0  0  0
    1.7740    0.8330    0.6510 C   0  0  0  0  0  0  0  0  0  0  0  0
    0.8550    1.3510   -0.4200 C   0  0  0  0  0  0  0  0  0  0  0  0
   -0.3920    0.4930   -0.4570 C   0  0  2  0  0  0  0  0  0  0  0  0
   -0.1020   -0.9540   -0.1160 C   0  0  0  0  0  0  0  0  0  0  0  0
   -0.9640   -1.8610    0.4590 C   0  0  0  0  0  0  0  0  0  0  0  0
   -0.5430   -3.1620    0.6830 C   0  0  0  0  0  0  0  0  0  0  0  0
    0.7650   -3.5530    0.3240 C   0  0  0  0  0  0  0  0  0  0  0  0
    1.6520   -2.6830   -0.2500 C   0  0  0  0  0  0  0  0  0  0  0  0
    1.1960   -1.4110   -0.4540 C   0  0  0  0  0  0  0  0  0  0  0  0
    2.3690   -0.6790   -1.0760 C   0  0  0  0  0  0  0  0  0  0  0  0
   -1.2420   -4.2230    1.2440 O   0  0  0  0  0  0  0  0  0  0  0  0
   -2.3830   -4.9430    0.9930 C   0  0  0  0  0  0  0  0  0  0  0  0
   -3.4690   -4.2580    0.2490 C   0  0  1  0  0  0  0  0  0  0  0  0
   -4.2330   -5.2550   -0.3960 O   0  0  0  0  0  0  0  0  0  0  0  0
   -4.4030   -3.5430    1.2030 C   0  0  0  0  0  0  0  0  0  0  0  0
   -5.4570   -2.8730    0.4710 N   0  0  1  0  0  0  0  0  0  0  0  0
   -6.6740   -3.6530    0.4550 C   0  0  0  0  0  0  0  0  0  0  0  0
   -5.6770   -1.5450    1.0290 C   0  0  0  0  0  0  0  0  0  0  0  0
   -6.2860   -0.6460    0.0270 C   0  0  0  0  0  0  0  0  0  0  0  0
   -5.7080    0.4170   -0.4690 C   0  0  0  0  0  0  0  0  0  0  0  0
   -4.3580    0.9040   -0.1210 C   0  0  0  0  0  0  0  0  0  0  0  0
   -3.7490    1.3130   -1.3050 O   0  0  0  0  0  0  0  0  0  0  0  0
   -2.7390    2.2160   -1.1070 C   0  0  2  0  0  0  0  0  0  0  0  0
   -3.2040    3.6280   -1.5150 C   0  0  0  0  0  0  0  0  0  0  0  0
   -4.3790    4.0570   -0.7100 C   0  0  0  0  0  0  0  0  0  0  0  0
   -5.6810    3.8200   -1.0890 C   0  0  0  0  0  0  0  0  0  0  0  0
   -6.7790    4.2100   -0.3550 C   0  0  0  0  0  0  0  0  0  0  0  0
   -6.5860    4.8800    0.8380 C   0  0  0  0  0  0  0  0  0  0  0  0
   -7.6650    5.2980    1.6220 O   0  0  0  0  0  0  0  0  0  0  0  0
   -5.2960    5.1320    1.2450 C   0  0  0  0  0  0  0  0  0  0  0  0
   -4.2080    4.7330    0.4940 C   0  0  0  0  0  0  0  0  0  0  0  0
   -1.4970    1.9690   -1.8830 C   0  0  0  0  0  0  0  0  0  0  0  0
   -0.9320    0.6500   -1.7860 N   0  0  2  0  0  0  0  0  0  0  0  0
   -1.9110   -0.2920   -2.1930 C   0  0  0  0  0  0  0  0  0  0  0  0
    6.4110   -0.3440    0.3520 C   0  0  0  0  0  0  0  0  0  0  0  0
    7.6320    0.3020    0.1250 C   0  0  0  0  0  0  0  0  0  0  0  0
    8.8520   -0.5100   -0.0170 C   0  0  1  0  0  0  0  0  0  0  0  0
    9.8720   -0.1840    1.0680 C   0  0  0  0  0  0  0  0  0  0  0  0
    8.5520   -1.9970    0.1340 C   0  0  0  0  0  0  0  0  0  0  0  0
    9.4910   -0.3640   -1.2360 O   0  0  0  0  0  0  0  0  0  0  0  0
  1  2  1  0
  2  3  2  0
  2 43  1  0
  3  4  1  0
  4  5  2  0
  5  6  1  0
  5 42  1  0
  7  6  1  1
  7  8  1  0
  7 17  1  0
  8  9  1  0
 10  9  1  6
 10 11  1  0
 10 40  1  0
 11 12  2  0
 11 16  1  0
 12 13  1  0
 13 14  2  0
 13 18  1  0
 14 15  1  0
 15 16  2  0
 16 17  1  0
 18 19  1  0
 19 20  1  0
 20 21  1  1
 20 22  1  0
 22 23  1  0
 23 24  1  1
 23 25  1  0
 25 26  1  0
 26 27  2  0
 27 28  1  0
 28 29  1  0
 29 30  1  0
 30 31  1  6
 30 39  1  0
 31 32  1  0
 32 33  2  0
 32 38  1  0
 33 34  1  0
 34 35  2  0
 35 36  1  0
 35 37  1  0
 37 38  2  0
 39 40  1  0
 40 41  1  1
 42 43  2  0
 43 44  1  0
 44 45  1  1
 44 46  1  0
 44 47  1  0
M  CHG  3   7   1  23   1  40   1
M  END
