
     RDKit          3D

 47 52  0  0  0  0  0  0  0  0999 V2000
   -3.8310   -1.1230    2.3130 C   0  0  0  0  0  0  0  0  0  0  0  0
   -4.5110   -1.0580    0.9280 C   0  0  2  0  0  0  0  0  0  0  0  0
   -4.0760   -2.1700    0.1120 N   0  0  0  0  0  0  0  0  0  0  0  0
   -4.5600   -2.5250   -1.1640 C   0  0  0  0  0  0  0  0  0  0  0  0
   -4.9650   -3.7330   -1.3070 O   0  0  0  0  0  0  0  0  0  0  0  0
   -4.6480   -1.6540   -2.3500 C   0  0  1  0  0  0  0  0  0  0  0  0
   -5.5510   -2.1850   -3.4720 C   0  0  0  0  0  0  0  0  0  0  0  0
   -5.9490   -1.0490   -2.6470 C   0  0  1  0  0  0  0  0  0  0  0  0
   -6.9750   -1.1330   -1.5730 C   0  0  0  0  0  0  0  0  0  0  0  0
   -7.2820    0.2250   -0.9890 C   0  0  0  0  0  0  0  0  0  0  0  0
   -6.4830    1.2100   -1.6290 O   0  0  0  0  0  0  0  0  0  0  0  0
   -6.0900    2.4140   -1.0560 C   0  0  0  0  0  0  0  0  0  0  0  0
   -6.4010    3.5860   -1.7010 C   0  0  0  0  0  0  0  0  0  0  0  0
   -6.0570    4.8460   -1.2040 C   0  0  0  0  0  0  0  0  0  0  0  0
   -5.3820    4.9160   -0.0210 C   0  0  0  0  0  0  0  0  0  0  0  0
   -5.0720    3.7390    0.6200 C   0  0  0  0  0  0  0  0  0  0  0  0
   -5.4030    2.4780    0.1400 C   0  0  0  0  0  0  0  0  0  0  0  0
   -5.0650    1.2920    0.8160 O   0  0  0  0  0  0  0  0  0  0  0  0
   -4.2070    0.2910    0.2900 C   0  0  1  0  0  0  0  0  0  0  0  0
   -2.7920    0.6980    0.6590 C   0  0  0  0  0  0  0  0  0  0  0  0
   -2.6900    1.7520    1.3230 O   0  0  0  0  0  0  0  0  0  0  0  0
   -1.7070   -0.0980    0.2510 N   0  0  0  0  0  0  0  0  0  0  0  0
   -0.3540    0.1730    0.5590 C   0  0  0  0  0  0  0  0  0  0  0  0
    0.1380    0.0490    1.9270 C   0  0  2  0  0  0  0  0  0  0  0  0
   -0.5500    0.8740    2.9750 C   0  0  0  0  0  0  0  0  0  0  0  0
    0.2890    0.7870    4.2850 C   0  0  0  0  0  0  0  0  0  0  0  0
    1.1430   -0.4460    4.2580 C   0  0  0  0  0  0  0  0  0  0  0  0
    2.1470   -0.3550    3.0890 C   0  0  0  0  0  0  0  0  0  0  0  0
    1.5610    0.4350    2.0310 N   0  0  1  0  0  0  0  0  0  0  0  0
    2.3040    0.5640    0.8830 C   0  0  0  0  0  0  0  0  0  0  0  0
    3.6540   -0.0320    0.8810 C   0  0  0  0  0  0  0  0  0  0  0  0
    4.1730   -0.6380    1.8070 O   0  0  0  0  0  0  0  0  0  0  0  0
    4.4780    0.0960   -0.3170 N   0  0  0  0  0  0  0  0  0  0  0  0
    5.8040   -0.4560   -0.3900 C   0  0  1  0  0  0  0  0  0  0  0  0
    5.9390   -1.4790   -1.4690 C   0  0  0  0  0  0  0  0  0  0  0  0
    5.0340   -2.4960   -1.6200 C   0  0  0  0  0  0  0  0  0  0  0  0
    5.2030   -3.4110   -2.6370 C   0  0  0  0  0  0  0  0  0  0  0  0
    6.2610   -3.3380   -3.5170 C   0  0  0  0  0  0  0  0  0  0  0  0
    7.1600   -2.3080   -3.3500 C   0  0  0  0  0  0  0  0  0  0  0  0
    6.9980   -1.3860   -2.3310 C   0  0  0  0  0  0  0  0  0  0  0  0
    6.8510    0.5730   -0.4470 C   0  0  0  0  0  0  0  0  0  0  0  0
    6.4980    1.8430   -0.8790 C   0  0  0  0  0  0  0  0  0  0  0  0
    7.4320    2.8510   -0.9600 C   0  0  0  0  0  0  0  0  0  0  0  0
    8.7440    2.6210   -0.6120 C   0  0  0  0  0  0  0  0  0  0  0  0
    9.1030    1.3700   -0.1840 C   0  0  0  0  0  0  0  0  0  0  0  0
    8.1650    0.3480   -0.1010 C   0  0  0  0  0  0  0  0  0  0  0  0
    8.5560   -0.9070    0.3360 O   0  0  0  0  0  0  0  0  0  0  0  0
  2  1  1  1
  2  3  1  0
  2 19  1  0
  3  4  1  0
  4  5  2  0
  4  6  1  0
  6  7  1  6
  6  8  1  0
  8  7  1  6
  8  9  1  0
  9 10  1  0
 10 11  1  0
 11 12  1  0
 12 13  2  0
 12 17  1  0
 13 14  1  0
 14 15  2  0
 15 16  1  0
 16 17  2  0
 17 18  1  0
 18 19  1  0
 19 20  1  1
 20 21  2  0
 20 22  1  0
 22 23  1  0
 24 23  1  6
 24 25  1  0
 24 29  1  0
 25 26  1  0
 26 27  1  0
 27 28  1  0
 28 29  1  0
 29 30  1  6
 30 31  1  0
 31 32  2  0
 31 33  1  0
 34 33  1  6
 34 35  1  0
 34 41  1  0
 35 36  2  0
 35 40  1  0
 36 37  1  0
 37 38  2  0
 38 39  1  0
 39 40  2  0
 41 42  2  0
 41 46  1  0
 42 43  1  0
 43 44  2  0
 44 45  1  0
 45 46  2  0
 46 47  1  0
M  CHG  1  29   1
M  END
