
     RDKit          3D

 47 52  0  0  0  0  0  0  0  0999 V2000
   -8.5590   -3.0810    2.8790 C   0  0  0  0  0  0  0  0  0  0  0  0
   -7.7480   -3.0210    1.6210 C   0  0  0  0  0  0  0  0  0  0  0  0
   -8.2360   -3.5560    0.4370 C   0  0  0  0  0  0  0  0  0  0  0  0
   -7.4710   -3.4920   -0.7190 C   0  0  0  0  0  0  0  0  0  0  0  0
   -6.2310   -2.8980   -0.6910 C   0  0  0  0  0  0  0  0  0  0  0  0
   -5.7720   -2.3750    0.5010 C   0  0  0  0  0  0  0  0  0  0  0  0
   -4.4360   -1.7360    0.5320 C   0  0  1  0  0  0  0  0  0  0  0  0
   -3.4290   -2.7930    0.1280 C   0  0  0  0  0  0  0  0  0  0  0  0
   -2.8360   -3.5120    1.2750 C   0  0  0  0  0  0  0  0  0  0  0  0
   -3.3800   -4.6110    1.6140 O   0  0  0  0  0  0  0  0  0  0  0  0
   -1.7650   -3.0900    1.9880 O   0  0  0  0  0  0  0  0  0  0  0  0
   -0.4590   -2.8180    1.6840 C   0  0  0  0  0  0  0  0  0  0  0  0
   -0.1070   -2.5050    0.2990 C   0  0  0  0  0  0  0  0  0  0  0  0
   -0.1840   -3.4280   -0.5650 O   0  0  0  0  0  0  0  0  0  0  0  0
    0.3280   -1.2260   -0.1890 N   0  0  0  0  0  0  0  0  0  0  0  0
    1.0270   -1.2390   -1.4900 C   0  0  0  0  0  0  0  0  0  0  0  0
    2.4760   -1.4980   -1.3320 C   0  0  0  0  0  0  0  0  0  0  0  0
    2.9550   -2.7850   -1.4540 C   0  0  0  0  0  0  0  0  0  0  0  0
    4.2800   -3.0920   -1.3170 C   0  0  0  0  0  0  0  0  0  0  0  0
    5.2070   -2.1050   -1.0450 C   0  0  0  0  0  0  0  0  0  0  0  0
    4.7850   -0.8100   -0.9130 C   0  0  0  0  0  0  0  0  0  0  0  0
    5.6610    0.2690   -0.6130 N   0  0  0  0  0  0  0  0  0  0  0  0
    6.9950    0.1250   -0.2510 C   0  0  0  0  0  0  0  0  0  0  0  0
    7.5590   -0.9830   -0.1520 O   0  0  0  0  0  0  0  0  0  0  0  0
    7.8480    1.2580    0.0450 N   0  0  0  0  0  0  0  0  0  0  0  0
    9.2350    1.0600    0.4170 C   0  0  1  0  0  0  0  0  0  0  0  0
   10.2030    2.0770   -0.1060 C   0  0  0  0  0  0  0  0  0  0  0  0
    9.8850    2.0160    1.3560 C   0  0  0  0  0  0  0  0  0  0  0  0
    3.4090   -0.5330   -1.0620 C   0  0  0  0  0  0  0  0  0  0  0  0
    0.1640    0.0170    0.4660 C   0  0  0  0  0  0  0  0  0  0  0  0
   -0.9750    0.9000    0.0700 C   0  0  2  0  0  0  0  0  0  0  0  0
   -0.9490    1.4140   -1.3240 C   0  0  0  0  0  0  0  0  0  0  0  0
   -0.8980    2.0930    1.0170 C   0  0  0  0  0  0  0  0  0  0  0  0
    0.3520    2.8640    0.9570 C   0  0  0  0  0  0  0  0  0  0  0  0
    1.3430    2.5200    1.8950 C   0  0  0  0  0  0  0  0  0  0  0  0
    2.5370    3.1930    1.8630 C   0  0  0  0  0  0  0  0  0  0  0  0
    2.7710    4.1880    0.9380 C   0  0  0  0  0  0  0  0  0  0  0  0
    1.8090    4.5310    0.0180 C   0  0  0  0  0  0  0  0  0  0  0  0
    0.5910    3.8720    0.0220 C   0  0  0  0  0  0  0  0  0  0  0  0
   -0.1570    4.4330   -0.9990 O   0  0  0  0  0  0  0  0  0  0  0  0
    0.3040    5.7320   -1.2860 C   0  0  0  0  0  0  0  0  0  0  0  0
    1.8130    5.5450   -1.0540 C   0  0  0  0  0  0  0  0  0  0  0  0
   -2.3140    0.2500    0.4150 C   0  0  0  0  0  0  0  0  0  0  0  0
   -3.0860   -0.0920   -0.7470 N   0  0  0  0  0  0  0  0  0  0  0  0
   -4.3900   -0.5740   -0.4120 C   0  0  2  0  0  0  0  0  0  0  0  0
   -5.1600    0.6230    0.0980 C   0  0  0  0  0  0  0  0  0  0  0  0
   -6.5080   -2.4220    1.6700 C   0  0  0  0  0  0  0  0  0  0  0  0
  1  2  1  0
  2  3  2  0
  2 47  1  0
  3  4  1  0
  4  5  2  0
  5  6  1  0
  7  6  1  6
  6 47  2  0
  7  8  1  0
  7 45  1  0
  8  9  1  0
  9 10  2  0
  9 11  1  0
 11 12  1  0
 12 13  1  0
 13 14  2  0
 13 15  1  0
 15 16  1  0
 15 30  1  0
 16 17  1  0
 17 18  2  0
 17 29  1  0
 18 19  1  0
 19 20  2  0
 20 21  1  0
 21 22  1  0
 21 29  2  0
 22 23  1  0
 23 24  2  0
 23 25  1  0
 26 25  1  6
 26 27  1  0
 26 28  1  0
 27 28  1  0
 30 31  1  0
 31 32  1  6
 31 33  1  0
 31 43  1  0
 33 34  1  0
 34 35  2  0
 34 39  1  0
 35 36  1  0
 36 37  2  0
 37 38  1  0
 38 39  2  0
 38 42  1  0
 39 40  1  0
 40 41  1  0
 41 42  1  0
 43 44  1  0
 44 45  1  0
 45 46  1  1
M  CHG  1  44   1
M  END
