
     RDKit          3D

 48 53  0  0  0  0  0  0  0  0999 V2000
   -7.3590    3.3120    3.9580 C   0  0  0  0  0  0  0  0  0  0  0  0
   -6.3770    2.5020    4.4740 O   0  0  0  0  0  0  0  0  0  0  0  0
   -5.8150    1.6340    3.5790 C   0  0  0  0  0  0  0  0  0  0  0  0
   -6.7720    0.6580    2.9380 C   0  0  0  0  0  0  0  0  0  0  0  0
   -6.0030   -0.1840    2.0250 N   0  0  0  0  0  0  0  0  0  0  0  0
   -5.8160    0.4400    0.7570 C   0  0  2  0  0  0  0  0  0  0  0  0
   -7.0580    0.3100   -0.0870 C   0  0  0  0  0  0  0  0  0  0  0  0
   -7.0870   -0.9780   -0.8340 C   0  0  0  0  0  0  0  0  0  0  0  0
   -5.9740   -0.9520   -1.8420 C   0  0  0  0  0  0  0  0  0  0  0  0
   -4.8830    0.0480   -1.5100 C   0  0  0  0  0  0  0  0  0  0  0  0
   -4.5800    0.0450    0.0020 C   0  0  2  0  0  0  0  0  0  0  0  0
   -4.0080   -1.2660    0.3650 C   0  0  0  0  0  0  0  0  0  0  0  0
   -4.6330   -2.0500    1.1000 O   0  0  0  0  0  0  0  0  0  0  0  0
   -2.7210   -1.6560   -0.1390 C   0  0  0  0  0  0  0  0  0  0  0  0
   -2.2490   -2.9480    0.0080 C   0  0  0  0  0  0  0  0  0  0  0  0
   -1.0060   -3.3700   -0.4150 C   0  0  0  0  0  0  0  0  0  0  0  0
   -0.1710   -2.4460   -1.0260 C   0  0  0  0  0  0  0  0  0  0  0  0
    1.1450   -2.8280   -1.5050 C   0  0  0  0  0  0  0  0  0  0  0  0
    1.5930   -4.0130   -1.4370 O   0  0  0  0  0  0  0  0  0  0  0  0
    1.9840   -1.8960   -2.0680 O   0  0  0  0  0  0  0  0  0  0  0  0
    3.2620   -2.1300   -2.5690 C   0  0  2  0  0  0  0  0  0  0  0  0
    4.2970   -1.4740   -1.6820 C   0  0  0  0  0  0  0  0  0  0  0  0
    5.5040   -1.5600   -1.9450 O   0  0  0  0  0  0  0  0  0  0  0  0
    3.8800   -0.7560   -0.5410 N   0  0  0  0  0  0  0  0  0  0  0  0
    4.6650   -0.0810    0.4160 C   0  0  0  0  0  0  0  0  0  0  0  0
    6.0360   -0.1270    0.3110 C   0  0  0  0  0  0  0  0  0  0  0  0
    6.8670    0.5010    1.2350 C   0  0  0  0  0  0  0  0  0  0  0  0
    6.3010    1.1940    2.2900 C   0  0  0  0  0  0  0  0  0  0  0  0
    4.9320    1.2360    2.3880 C   0  0  0  0  0  0  0  0  0  0  0  0
    4.3730    1.9260    3.4380 C   0  0  0  0  0  0  0  0  0  0  0  0
    2.9820    1.9980    3.5770 C   0  0  0  0  0  0  0  0  0  0  0  0
    2.1640    1.3830    2.6700 C   0  0  0  0  0  0  0  0  0  0  0  0
    2.7350    0.6790    1.6010 C   0  0  0  0  0  0  0  0  0  0  0  0
    4.0810    0.6080    1.4650 C   0  0  0  0  0  0  0  0  0  0  0  0
    5.2320    2.5710    4.4190 C   0  0  0  0  0  0  0  0  0  0  0  0
    4.7200    3.2050    5.3820 O   0  0  0  0  0  0  0  0  0  0  0  0
    6.6480    2.5080    4.3220 N   0  0  0  0  0  0  0  0  0  0  0  0
    7.4990    3.1150    5.3260 C   0  0  0  0  0  0  0  0  0  0  0  0
    7.2620    1.8330    3.2170 C   0  0  0  0  0  0  0  0  0  0  0  0
    3.3550   -1.7440   -3.9690 C   0  0  0  0  0  0  0  0  0  0  0  0
    4.3190   -0.9380   -4.5110 C   0  0  0  0  0  0  0  0  0  0  0  0
    4.3300   -0.6400   -5.8690 C   0  0  0  0  0  0  0  0  0  0  0  0
    3.3810   -1.1360   -6.7270 C   0  0  0  0  0  0  0  0  0  0  0  0
    3.3890   -0.8170   -8.1970 C   0  0  0  0  0  0  0  0  0  0  0  0
    2.4030   -1.9490   -6.1940 C   0  0  0  0  0  0  0  0  0  0  0  0
    2.3940   -2.2430   -4.8490 C   0  0  0  0  0  0  0  0  0  0  0  0
   -0.6120   -1.1630   -1.1830 C   0  0  0  0  0  0  0  0  0  0  0  0
   -1.8830   -0.7630   -0.7420 C   0  0  0  0  0  0  0  0  0  0  0  0
  1  2  1  0
  2  3  1  0
  3  4  1  0
  4  5  1  0
  6  5  1  1
  6  7  1  0
  6 11  1  0
  7  8  1  0
  8  9  1  0
  9 10  1  0
 10 11  1  0
 11 12  1  1
 12 13  2  0
 12 14  1  0
 14 15  2  0
 14 48  1  0
 15 16  1  0
 16 17  2  0
 17 18  1  0
 17 47  1  0
 18 19  2  0
 18 20  1  0
 21 20  1  1
 21 22  1  0
 21 40  1  0
 22 23  2  0
 22 24  1  0
 24 25  1  0
 25 26  2  0
 25 34  1  0
 26 27  1  0
 27 28  2  0
 28 29  1  0
 28 39  1  0
 29 30  2  0
 29 34  1  0
 30 31  1  0
 30 35  1  0
 31 32  2  0
 32 33  1  0
 33 34  2  0
 35 36  2  0
 35 37  1  0
 37 38  1  0
 37 39  1  0
 40 41  2  0
 40 46  1  0
 41 42  1  0
 42 43  2  0
 43 44  1  0
 43 45  1  0
 45 46  2  0
 47 48  2  0
M  CHG  1   5   1
M  END
