
     RDKit          3D

 22 24  0  0  0  0  0  0  0  0999 V2000
    6.0820    0.9300    2.1700 O   0  0  0  0  0  0  0  0  0  0  0  0
    5.3640    2.1420    1.5250 P   0  0  0  0  0  0  0  0  0  0  0  0
    3.7160    2.0560    0.9690 N   0  0  0  0  0  0  0  0  0  0  0  0
    3.0580    0.6940    0.7190 C   0  0  0  0  0  0  0  0  0  0  0  0
    3.7610   -0.2560    0.9390 O   0  0  0  0  0  0  0  0  0  0  0  0
    1.7810    0.9260    0.2980 N   0  0  0  0  0  0  0  0  0  0  0  0
    1.2470   -0.7100    0.3010 C   0  0  0  0  0  0  0  0  0  0  0  0
    2.0520   -1.5120    0.5380 O   0  0  0  0  0  0  0  0  0  0  0  0
   -0.1620   -0.8360    0.0080 C   0  0  2  0  0  0  0  0  0  0  0  0
   -0.5330   -2.2900    0.2370 C   0  0  0  0  0  0  0  0  0  0  0  0
   -0.2960   -2.8930   -1.1140 C   0  0  0  0  0  0  0  0  0  0  0  0
   -0.1120   -1.8740   -2.0300 O   0  0  0  0  0  0  0  0  0  0  0  0
   -0.5460   -0.6930   -1.4370 C   0  0  1  0  0  0  0  0  0  0  0  0
   -2.0820   -0.6100   -1.4930 C   0  0  0  0  0  0  0  0  0  0  0  0
   -2.4350    0.7340   -0.9670 C   0  0  0  0  0  0  0  0  0  0  0  0
   -3.1990    1.7590   -1.3560 N   0  0  0  0  0  0  0  0  0  0  0  0
   -3.0850    2.7220   -0.3930 C   0  0  0  0  0  0  0  0  0  0  0  0
   -3.6590    3.8490   -0.3960 O   0  0  0  0  0  0  0  0  0  0  0  0
   -2.2560    2.2480    0.5480 N   0  0  0  0  0  0  0  0  0  0  0  0
   -1.8420    1.0320    0.2250 N   0  0  0  0  0  0  0  0  0  0  0  0
   -0.9940    0.0780    0.8250 C   0  0  0  0  0  0  0  0  0  0  0  0
   -0.9450   -0.0010    2.0690 O   0  0  0  0  0  0  0  0  0  0  0  0
  1  2  2  0
  2  3  1  0
  3  4  1  0
  4  5  2  0
  4  6  1  0
  6  7  1  0
  7  8  2  0
  9  7  1  6
  9 10  1  0
  9 13  1  0
  9 21  1  0
 10 11  1  0
 11 12  1  0
 12 13  1  0
 13 14  1  1
 14 15  1  0
 15 16  2  0
 15 20  1  0
 16 17  1  0
 17 18  2  0
 17 19  1  0
 19 20  1  0
 20 21  1  0
 21 22  2  0
M  END
