
     RDKit          3D

 23 24  0  0  0  0  0  0  0  0999 V2000
   -4.6350    0.7080   -2.4320 C   0  0  0  0  0  0  0  0  0  0  0  0
   -3.6670    1.4980   -1.5810 C   0  0  0  0  0  0  0  0  0  0  0  0
   -2.9330    0.6360   -0.6390 N   0  0  0  0  0  0  0  0  0  0  0  0
   -1.8990    1.0940    0.2030 C   0  0  0  0  0  0  0  0  0  0  0  0
   -1.5670    2.2670    0.1140 O   0  0  0  0  0  0  0  0  0  0  0  0
   -1.3120    0.1430    1.1470 C   0  0  0  0  0  0  0  0  0  0  0  0
   -2.0290   -0.1020    2.2500 N   0  0  0  0  0  0  0  0  0  0  0  0
   -1.6630   -0.9960    3.1320 C   0  0  0  0  0  0  0  0  0  0  0  0
   -0.4770   -1.7320    2.9240 C   0  0  0  0  0  0  0  0  0  0  0  0
    0.2230   -1.4610    1.8070 C   0  0  0  0  0  0  0  0  0  0  0  0
   -0.1300   -0.5290    0.8670 C   0  0  0  0  0  0  0  0  0  0  0  0
    0.6070   -0.1060   -0.2860 C   0  0  0  0  0  0  0  0  0  0  0  0
    0.4040    0.4940   -1.2470 O   0  0  0  0  0  0  0  0  0  0  0  0
    2.2440   -0.6670   -0.1520 N   0  0  0  0  0  0  0  0  0  0  0  0
    2.7920    0.1540   -1.1860 C   0  0  0  0  0  0  0  0  0  0  0  0
    2.4550    1.0850   -1.8470 O   0  0  0  0  0  0  0  0  0  0  0  0
    4.1750   -0.3160   -1.4380 N   0  0  0  0  0  0  0  0  0  0  0  0
    5.2360    0.6480   -2.4730 P   0  0  0  0  0  0  0  0  0  0  0  0
    5.5060    2.1910   -1.5560 O   0  0  0  0  0  0  0  0  0  0  0  0
    6.8390   -0.1290   -2.4120 O   0  0  0  0  0  0  0  0  0  0  0  0
   -0.3410   -2.6150    4.0040 O   0  0  0  0  0  0  0  0  0  0  0  0
   -1.0520   -1.9550    5.0750 N   0  0  0  0  0  0  0  0  0  0  0  0
   -2.1590   -1.4590    4.3510 O   0  0  0  0  0  0  0  0  0  0  0  0
  1  2  1  0
  2  3  1  0
  3  4  1  0
  4  5  2  0
  4  6  1  0
  6  7  2  0
  6 11  1  0
  7  8  1  0
  8  9  2  0
  8 23  1  0
  9 10  1  0
  9 21  1  0
 10 11  2  0
 11 12  1  0
 12 13  2  0
 12 14  1  0
 14 15  1  0
 15 16  2  0
 15 17  1  0
 17 18  1  0
 18 19  1  0
 18 20  1  0
 21 22  1  0
 22 23  1  0
M  END
