
     RDKit          3D

 22 23  0  0  0  0  0  0  0  0999 V2000
   -5.9950    0.9120    0.1220 C   0  0  0  0  0  0  0  0  0  0  0  0
   -4.9560   -0.0660    0.2540 O   0  0  0  0  0  0  0  0  0  0  0  0
   -3.7900   -0.0050   -0.4940 C   0  0  0  0  0  0  0  0  0  0  0  0
   -3.6740    0.9500   -1.3030 O   0  0  0  0  0  0  0  0  0  0  0  0
   -2.6880   -0.9710   -0.4100 C   0  0  2  0  0  0  0  0  0  0  0  0
   -2.9360   -1.9990    0.5350 O   0  0  0  0  0  0  0  0  0  0  0  0
   -1.9510   -2.0070    1.4830 C   0  0  0  0  0  0  0  0  0  0  0  0
   -1.8230   -2.7860    2.5000 N   0  0  0  0  0  0  0  0  0  0  0  0
   -1.0390   -0.9710    1.1620 N   0  0  0  0  0  0  0  0  0  0  0  0
   -1.4200   -0.3530    0.0870 C   0  0  0  0  0  0  0  0  0  0  0  0
   -0.6920    0.7340   -0.4660 N   0  0  0  0  0  0  0  0  0  0  0  0
    0.7250    0.8850   -0.2280 C   0  0  0  0  0  0  0  0  0  0  0  0
    1.4370    1.9200   -0.7520 C   0  0  0  0  0  0  0  0  0  0  0  0
    2.7860    2.0680   -0.5280 C   0  0  0  0  0  0  0  0  0  0  0  0
    3.5190    3.1510   -1.0770 N   0  0  0  0  0  0  0  0  0  0  0  0
    3.3950    1.1090    0.2600 C   0  0  0  0  0  0  0  0  0  0  0  0
    2.6870    0.0640    0.7900 C   0  0  0  0  0  0  0  0  0  0  0  0
    3.2430   -0.9250    1.5850 O   0  0  0  0  0  0  0  0  0  0  0  0
    4.0180   -2.3120    0.7990 P   0  0  0  0  0  0  0  0  0  0  0  0
    4.6700   -3.3100    2.0430 O   0  0  0  0  0  0  0  0  0  0  0  0
    5.2220   -1.7810   -0.3250 O   0  0  0  0  0  0  0  0  0  0  0  0
    1.3700   -0.0200    0.5310 N   0  0  0  0  0  0  0  0  0  0  0  0
  1  2  1  0
  2  3  1  0
  3  4  2  0
  5  3  1  1
  5  6  1  0
  5 10  1  0
  6  7  1  0
  7  8  2  0
  7  9  1  0
  9 10  2  0
 10 11  1  0
 11 12  1  0
 12 13  2  0
 12 22  1  0
 13 14  1  0
 14 15  1  0
 14 16  2  0
 16 17  1  0
 17 18  1  0
 17 22  2  0
 18 19  1  0
 19 20  1  0
 19 21  1  0
M  END
