
     RDKit          3D

 11 10  0  0  0  0  0  0  0  0999 V2000
   -2.7790   -0.5420   -0.5130 C   0  0  0  0  0  0  0  0  0  0  0  0
   -1.7870    0.0850    0.7680 P   0  0  0  0  0  0  0  0  0  0  0  0
   -1.2050   -1.2670    1.2580 O   0  0  0  0  0  0  0  0  0  0  0  0
   -2.5090    1.4600    0.8980 O   0  0  0  0  0  0  0  0  0  0  0  0
   -0.2270    0.7460    0.4220 C   0  0  0  0  0  0  0  0  0  0  0  0
    0.7170   -0.0680   -0.3770 C   0  0  0  0  0  0  0  0  0  0  0  0
    0.4510   -1.1560   -0.8280 O   0  0  0  0  0  0  0  0  0  0  0  0
    2.0810    0.4930   -0.6390 C   0  0  0  0  0  0  0  0  0  0  0  0
    3.1420   -0.4320   -0.1870 C   0  0  0  0  0  0  0  0  0  0  0  0
    2.8890   -1.5030    0.3990 O   0  0  0  0  0  0  0  0  0  0  0  0
    4.4620   -0.1070   -0.4170 O   0  0  0  0  0  0  0  0  0  0  0  0
  1  2  1  0
  2  3  1  0
  2  4  1  0
  2  5  1  0
  5  6  1  0
  6  7  2  0
  6  8  1  0
  8  9  1  0
  9 10  2  0
  9 11  1  0
M  END
