
     RDKit          3D

 39 43  0  0  0  0  0  0  0  0999 V2000
    4.2090   -1.0260    1.1540 C   0  0  0  0  0  0  0  0  0  0  0  0
    2.7350   -0.9230    0.8930 C   0  0  0  0  0  0  0  0  0  0  0  0
    2.0200   -2.0370    0.5220 C   0  0  0  0  0  0  0  0  0  0  0  0
    0.6390   -2.0050    0.2710 C   0  0  0  0  0  0  0  0  0  0  0  0
    0.0320   -3.1850   -0.1100 O   0  0  0  0  0  0  0  0  0  0  0  0
    0.7690   -4.3660   -0.2270 C   0  0  0  0  0  0  0  0  0  0  0  0
   -0.0710   -5.5430   -0.6540 C   0  0  1  0  0  0  0  0  0  0  0  0
   -0.6650   -5.3260   -1.8860 F   0  0  0  0  0  0  0  0  0  0  0  0
    0.8130   -6.6130   -0.8250 F   0  0  0  0  0  0  0  0  0  0  0  0
   -1.0010   -5.8890    0.2990 F   0  0  0  0  0  0  0  0  0  0  0  0
   -0.0590   -0.8360    0.3930 C   0  0  0  0  0  0  0  0  0  0  0  0
   -1.4870   -0.6860    0.2830 C   0  0  0  0  0  0  0  0  0  0  0  0
   -1.9320    0.5600    0.1890 N   0  0  0  0  0  0  0  0  0  0  0  0
   -3.3070    0.8370    0.0760 C   0  0  0  0  0  0  0  0  0  0  0  0
   -4.1530    0.8320    1.1660 C   0  0  0  0  0  0  0  0  0  0  0  0
   -5.4960    1.1130    1.0100 C   0  0  0  0  0  0  0  0  0  0  0  0
   -6.0310    1.4040   -0.2110 C   0  0  0  0  0  0  0  0  0  0  0  0
   -5.1870    1.4130   -1.3240 C   0  0  0  0  0  0  0  0  0  0  0  0
   -3.8470    1.1310   -1.1590 C   0  0  0  0  0  0  0  0  0  0  0  0
   -5.7820    1.7140   -2.5370 O   0  0  0  0  0  0  0  0  0  0  0  0
   -6.8240    2.6970   -2.5950 C   0  0  0  0  0  0  0  0  0  0  0  0
   -7.7920    2.5710   -1.4560 C   0  0  0  0  0  0  0  0  0  0  0  0
   -7.3650    1.6950   -0.4410 O   0  0  0  0  0  0  0  0  0  0  0  0
   -2.5180   -1.6800    0.2720 C   0  0  0  0  0  0  0  0  0  0  0  0
   -2.5100   -2.9420    0.7600 C   0  0  0  0  0  0  0  0  0  0  0  0
   -3.7660   -3.5020    0.4800 C   0  0  0  0  0  0  0  0  0  0  0  0
   -4.4760   -2.5330   -0.1690 C   0  0  0  0  0  0  0  0  0  0  0  0
   -3.7390   -1.4770   -0.2830 O   0  0  0  0  0  0  0  0  0  0  0  0
    0.7090    0.2830    0.7720 C   0  0  0  0  0  0  0  0  0  0  0  0
    2.0510    0.2520    1.0140 C   0  0  0  0  0  0  0  0  0  0  0  0
    2.7210    1.5000    1.3960 C   0  0  0  0  0  0  0  0  0  0  0  0
    3.4910    2.1350    0.2710 C   0  0  0  0  0  0  0  0  0  0  0  0
    4.8090    2.0880   -0.0270 C   0  0  0  0  0  0  0  0  0  0  0  0
    5.2860    2.7220   -1.0820 C   0  0  0  0  0  0  0  0  0  0  0  0
    6.6990    2.7120   -1.4590 N   0  0  0  0  0  0  0  0  0  0  0  0
    7.6810    2.0040   -0.6710 C   0  0  0  0  0  0  0  0  0  0  0  0
    7.6980    2.5550    0.6780 N   0  0  0  0  0  0  0  0  0  0  0  0
    4.3610    3.4470   -1.8800 C   0  0  0  0  0  0  0  0  0  0  0  0
    2.8110    3.1390   -1.0000 S   0  0  0  0  0  0  0  0  0  0  0  0
  1  2  1  0
  2  3  2  0
  2 30  1  0
  3  4  1  0
  4  5  1  0
  4 11  2  0
  5  6  1  0
  6  7  1  0
  7  8  1  6
  7  9  1  0
  7 10  1  0
 11 12  1  0
 11 29  1  0
 12 13  2  3
 12 24  1  0
 13 14  1  0
 14 15  2  0
 14 19  1  0
 15 16  1  0
 16 17  2  0
 17 18  1  0
 17 23  1  0
 18 19  2  0
 18 20  1  0
 20 21  1  0
 21 22  1  0
 22 23  1  0
 24 25  2  0
 24 28  1  0
 25 26  1  0
 26 27  2  0
 27 28  1  0
 29 30  2  0
 30 31  1  0
 31 32  1  0
 32 33  2  0
 32 39  1  0
 33 34  1  0
 34 35  1  0
 34 38  2  0
 35 36  1  0
 36 37  1  0
 38 39  1  0
M  END
