
     RDKit          3D

 39 43  0  0  0  0  0  0  0  0999 V2000
    4.3330   -3.2020    1.8940 C   0  0  0  0  0  0  0  0  0  0  0  0
    4.2920   -3.4920    0.4240 C   0  0  0  0  0  0  0  0  0  0  0  0
    4.7280   -2.3820   -0.4310 C   0  0  0  0  0  0  0  0  0  0  0  0
    5.9830   -2.4190   -1.0510 C   0  0  0  0  0  0  0  0  0  0  0  0
    6.4360   -1.4090   -1.8650 C   0  0  0  0  0  0  0  0  0  0  0  0
    5.5940   -0.3420   -2.0530 C   0  0  0  0  0  0  0  0  0  0  0  0
    6.0270    0.6600   -2.8520 F   0  0  0  0  0  0  0  0  0  0  0  0
    4.3540   -0.3100   -1.4380 C   0  0  0  0  0  0  0  0  0  0  0  0
    3.8740   -1.2960   -0.6230 C   0  0  0  0  0  0  0  0  0  0  0  0
    2.6280   -1.3210    0.0360 N   0  0  0  0  0  0  0  0  0  0  0  0
    1.6120   -0.3360   -0.0160 C   0  0  0  0  0  0  0  0  0  0  0  0
    1.7980    0.6900   -0.7120 O   0  0  0  0  0  0  0  0  0  0  0  0
    0.3490   -0.4930    0.7270 C   0  0  0  0  0  0  0  0  0  0  0  0
   -0.0180   -1.5490    1.5170 C   0  0  0  0  0  0  0  0  0  0  0  0
   -1.2450   -1.2850    2.0000 N   0  0  0  0  0  0  0  0  0  0  0  0
   -1.6600   -0.0750    1.5260 C   0  0  0  0  0  0  0  0  0  0  0  0
   -3.1990    0.7700    1.8350 S   0  0  0  0  0  0  0  0  0  0  0  0
   -4.2110   -0.2640    2.9300 C   0  0  0  0  0  0  0  0  0  0  0  0
   -4.6210   -1.5210    2.2500 C   0  0  0  0  0  0  0  0  0  0  0  0
   -4.2350   -1.7730    0.9490 C   0  0  0  0  0  0  0  0  0  0  0  0
   -4.6260   -2.9450    0.3280 C   0  0  0  0  0  0  0  0  0  0  0  0
   -5.3990   -3.8570    1.0090 C   0  0  0  0  0  0  0  0  0  0  0  0
   -5.7780   -4.9970    0.4010 F   0  0  0  0  0  0  0  0  0  0  0  0
   -5.8100   -3.6390    2.3230 C   0  0  0  0  0  0  0  0  0  0  0  0
   -5.3950   -2.4530    2.9040 C   0  0  0  0  0  0  0  0  0  0  0  0
   -5.7500   -2.1530    4.1940 F   0  0  0  0  0  0  0  0  0  0  0  0
   -0.6550    0.3880    0.7430 N   0  0  0  0  0  0  0  0  0  0  0  0
   -0.6460    1.6180    0.0430 C   0  0  0  0  0  0  0  0  0  0  0  0
    0.2140    2.6470    0.4210 C   0  0  0  0  0  0  0  0  0  0  0  0
    0.2270    3.8450   -0.2590 C   0  0  0  0  0  0  0  0  0  0  0  0
   -0.6140    4.0670   -1.3400 C   0  0  0  0  0  0  0  0  0  0  0  0
   -1.4660    3.0610   -1.7220 C   0  0  0  0  0  0  0  0  0  0  0  0
   -1.4710    1.8610   -1.0330 C   0  0  0  0  0  0  0  0  0  0  0  0
   -2.3650    3.2720   -2.8560 C   0  0  0  0  0  0  0  0  0  0  0  0
   -3.1400    2.3450   -3.1970 O   0  0  0  0  0  0  0  0  0  0  0  0
   -2.3240    4.4990   -3.5150 O   0  0  0  0  0  0  0  0  0  0  0  0
   -1.9290    5.6150   -2.7340 C   0  0  0  0  0  0  0  0  0  0  0  0
   -0.6080    5.3500   -2.0820 C   0  0  2  0  0  0  0  0  0  0  0  0
    0.3560    5.2670   -3.0860 O   0  0  0  0  0  0  0  0  0  0  0  0
  1  2  1  0
  2  3  1  0
  3  4  2  0
  3  9  1  0
  4  5  1  0
  5  6  2  0
  6  7  1  0
  6  8  1  0
  8  9  2  0
  9 10  1  0
 10 11  1  0
 11 12  2  0
 11 13  1  0
 13 14  2  0
 13 27  1  0
 14 15  1  0
 15 16  2  0
 16 17  1  0
 16 27  1  0
 17 18  1  0
 18 19  1  0
 19 20  2  0
 19 25  1  0
 20 21  1  0
 21 22  2  0
 22 23  1  0
 22 24  1  0
 24 25  2  0
 25 26  1  0
 27 28  1  0
 28 29  2  0
 28 33  1  0
 29 30  1  0
 30 31  2  0
 31 32  1  0
 31 38  1  0
 32 33  2  0
 32 34  1  0
 34 35  2  0
 34 36  1  0
 36 37  1  0
 37 38  1  0
 38 39  1  6
M  END
