
     RDKit          3D

 39 43  0  0  0  0  0  0  0  0999 V2000
    2.5460    0.7780    2.7340 C   0  0  0  0  0  0  0  0  0  0  0  0
    1.6050    0.6970    1.5930 C   0  0  0  0  0  0  0  0  0  0  0  0
    0.2450    0.8120    1.9070 C   0  0  0  0  0  0  0  0  0  0  0  0
   -0.6660    0.7410    0.8520 C   0  0  0  0  0  0  0  0  0  0  0  0
   -0.2370    0.5660   -0.4320 C   0  0  0  0  0  0  0  0  0  0  0  0
   -1.1610    0.4660   -1.5650 C   0  0  0  0  0  0  0  0  0  0  0  0
   -2.4600   -0.0190   -1.3130 N   0  0  0  0  0  0  0  0  0  0  0  0
   -3.5400    1.0300   -1.2080 C   0  0  0  0  0  0  0  0  0  0  0  0
   -4.6640    0.4530   -0.5860 N   0  0  0  0  0  0  0  0  0  0  0  0
   -4.7380   -0.4170    0.6520 C   0  0  0  0  0  0  0  0  0  0  0  0
   -4.8140   -1.6980   -0.2010 C   0  0  0  0  0  0  0  0  0  0  0  0
   -3.7530   -2.1970   -0.7830 C   0  0  0  0  0  0  0  0  0  0  0  0
   -3.8470   -3.6260   -1.0000 C   0  0  0  0  0  0  0  0  0  0  0  0
   -3.9050   -4.7530   -1.1600 N   0  0  0  0  0  0  0  0  0  0  0  0
   -2.5540   -1.4540   -1.2450 C   0  0  0  0  0  0  0  0  0  0  0  0
   -1.6210   -2.1830   -1.5750 O   0  0  0  0  0  0  0  0  0  0  0  0
   -5.8140   -2.5400   -0.7340 N   0  0  0  0  0  0  0  0  0  0  0  0
   -7.1250   -2.1950   -1.0400 N   0  0  0  0  0  0  0  0  0  0  0  0
   -7.3330   -1.1840   -2.0130 C   0  0  0  0  0  0  0  0  0  0  0  0
   -6.7230    0.1100   -1.9380 C   0  0  0  0  0  0  0  0  0  0  0  0
   -5.6340    0.8080   -1.5190 C   0  0  0  0  0  0  0  0  0  0  0  0
   -5.3980    2.0850   -2.1080 C   0  0  1  0  0  0  0  0  0  0  0  0
   -4.8940    3.0910   -1.3480 F   0  0  0  0  0  0  0  0  0  0  0  0
   -5.1700    2.1740   -3.4670 F   0  0  0  0  0  0  0  0  0  0  0  0
   -6.7660    2.5830   -2.1440 F   0  0  0  0  0  0  0  0  0  0  0  0
    1.1420    0.4540   -0.7160 C   0  0  0  0  0  0  0  0  0  0  0  0
    2.0720    0.5190    0.3160 C   0  0  0  0  0  0  0  0  0  0  0  0
    3.4990    0.3770    0.0520 C   0  0  0  0  0  0  0  0  0  0  0  0
    3.9640    0.1660   -1.2500 C   0  0  0  0  0  0  0  0  0  0  0  0
    5.3090    0.0080   -1.5030 C   0  0  0  0  0  0  0  0  0  0  0  0
    6.2370    0.0490   -0.4830 C   0  0  0  0  0  0  0  0  0  0  0  0
    5.7640    0.2570    0.8020 C   0  0  0  0  0  0  0  0  0  0  0  0
    6.7410    0.3030    1.9070 C   0  0  0  0  0  0  0  0  0  0  0  0
    6.3080    0.6010    3.1740 C   0  0  0  0  0  0  0  0  0  0  0  0
    7.2150    0.6230    4.2510 C   0  0  0  0  0  0  0  0  0  0  0  0
    8.5480    0.3470    4.0600 C   0  0  0  0  0  0  0  0  0  0  0  0
    8.9650    0.0500    2.7810 C   0  0  0  0  0  0  0  0  0  0  0  0
    8.0700    0.0250    1.6990 C   0  0  0  0  0  0  0  0  0  0  0  0
    4.4630    0.4050    0.9850 N   0  0  0  0  0  0  0  0  0  0  0  0
  1  2  1  0
  2  3  2  0
  2 27  1  0
  3  4  1  0
  4  5  2  0
  5  6  1  0
  5 26  1  0
  6  7  1  0
  7  8  1  0
  7 15  1  0
  8  9  1  0
  9 10  1  0
  9 21  1  0
 10 11  1  0
 11 12  2  0
 11 17  1  0
 12 13  1  0
 12 15  1  0
 13 14  3  0
 15 16  2  0
 17 18  1  0
 18 19  1  0
 19 20  1  0
 20 21  2  0
 21 22  1  0
 22 23  1  1
 22 24  1  0
 22 25  1  0
 26 27  2  0
 27 28  1  0
 28 29  2  0
 28 39  1  0
 29 30  1  0
 30 31  2  0
 31 32  1  0
 32 33  1  0
 32 39  2  0
 33 34  2  0
 33 38  1  0
 34 35  1  0
 35 36  2  0
 36 37  1  0
 37 38  2  0
M  END
