
     RDKit          3D

 39 43  0  0  0  0  0  0  0  0999 V2000
    1.1150   -2.1590    1.2970 C   0  0  0  0  0  0  0  0  0  0  0  0
    0.2160   -1.6180    0.1990 C   0  0  2  0  0  0  0  0  0  0  0  0
    0.9370   -1.6250   -1.0760 C   0  0  0  0  0  0  0  0  0  0  0  0
    0.5680   -2.2660   -2.1020 O   0  0  0  0  0  0  0  0  0  0  0  0
    2.0990   -0.8900   -1.1850 O   0  0  0  0  0  0  0  0  0  0  0  0
    2.8960   -0.7960   -2.3280 C   0  0  0  0  0  0  0  0  0  0  0  0
    4.0700    0.1260   -1.9750 C   0  0  0  0  0  0  0  0  0  0  0  0
    4.8120   -0.4140   -0.9000 O   0  0  0  0  0  0  0  0  0  0  0  0
    5.9160    0.1650   -0.3490 C   0  0  0  0  0  0  0  0  0  0  0  0
    6.4600    1.3720   -0.7790 C   0  0  0  0  0  0  0  0  0  0  0  0
    7.5760    1.8970   -0.1770 C   0  0  0  0  0  0  0  0  0  0  0  0
    8.0650    3.0720   -0.6320 F   0  0  0  0  0  0  0  0  0  0  0  0
    8.1990    1.2570    0.8680 C   0  0  0  0  0  0  0  0  0  0  0  0
    9.3240    1.8430    1.4310 O   0  0  0  0  0  0  0  0  0  0  0  0
    9.9460    1.1630    2.5060 C   0  0  0  0  0  0  0  0  0  0  0  0
   11.0470    1.8490    2.9720 F   0  0  0  0  0  0  0  0  0  0  0  0
    7.6710    0.0600    1.3040 C   0  0  0  0  0  0  0  0  0  0  0  0
    6.5370   -0.4840    0.7010 C   0  0  0  0  0  0  0  0  0  0  0  0
    6.0820   -1.6740    1.1970 F   0  0  0  0  0  0  0  0  0  0  0  0
   -0.3150   -0.2470    0.5250 C   0  0  0  0  0  0  0  0  0  0  0  0
   -1.8060   -0.1030    0.2130 C   0  0  0  0  0  0  0  0  0  0  0  0
   -2.6750   -0.9750    1.0610 C   0  0  1  0  0  0  0  0  0  0  0  0
   -3.8180   -1.5410    0.3810 N   0  0  0  0  0  0  0  0  0  0  0  0
   -3.9430   -2.8670    0.0280 C   0  0  0  0  0  0  0  0  0  0  0  0
   -5.1060   -3.0850   -0.6330 C   0  0  0  0  0  0  0  0  0  0  0  0
   -5.7330   -1.8780   -0.7010 C   0  0  0  0  0  0  0  0  0  0  0  0
   -4.9210   -0.9330   -0.0670 C   0  0  0  0  0  0  0  0  0  0  0  0
   -5.3580    0.4700   -0.0310 C   0  0  0  0  0  0  0  0  0  0  0  0
   -4.7990    1.4250    0.7520 C   0  0  0  0  0  0  0  0  0  0  0  0
   -5.2100    2.7720    0.7120 C   0  0  0  0  0  0  0  0  0  0  0  0
   -6.2000    3.1440   -0.1350 C   0  0  0  0  0  0  0  0  0  0  0  0
   -6.8080    4.3190   -0.4080 N   0  0  0  0  0  0  0  0  0  0  0  0
   -7.7430    4.1370   -1.3450 C   0  0  0  0  0  0  0  0  0  0  0  0
   -8.7210    5.2760   -1.9790 S   0  0  0  0  0  0  0  0  0  0  0  0
   -7.7100    2.8350   -1.6540 N   0  0  0  0  0  0  0  0  0  0  0  0
   -6.7690    2.1940   -0.9250 C   0  0  0  0  0  0  0  0  0  0  0  0
   -6.3780    0.8930   -0.8920 C   0  0  0  0  0  0  0  0  0  0  0  0
   -1.7740   -2.1800    1.4290 C   0  0  0  0  0  0  0  0  0  0  0  0
   -1.0130   -2.5280    0.1720 C   0  0  0  0  0  0  0  0  0  0  0  0
  2  1  1  1
  2  3  1  0
  2 20  1  0
  2 39  1  0
  3  4  2  0
  3  5  1  0
  5  6  1  0
  6  7  1  0
  7  8  1  0
  8  9  1  0
  9 10  2  0
  9 18  1  0
 10 11  1  0
 11 12  1  0
 11 13  2  0
 13 14  1  0
 13 17  1  0
 14 15  1  0
 15 16  1  0
 17 18  2  0
 18 19  1  0
 20 21  1  0
 21 22  1  0
 22 23  1  6
 22 38  1  0
 23 24  1  0
 23 27  1  0
 24 25  2  0
 25 26  1  0
 26 27  2  0
 27 28  1  0
 28 29  2  0
 28 37  1  0
 29 30  1  0
 30 31  2  0
 31 32  1  0
 31 36  1  0
 32 33  1  0
 33 34  2  0
 33 35  1  0
 35 36  1  0
 36 37  2  0
 38 39  1  0
M  END
