
     RDKit          3D

 12 11  0  0  0  0  0  0  0  0999 V2000
   -3.0420   -0.0540   -2.1290 O   0  0  0  0  0  0  0  0  0  0  0  0
   -2.3150    0.7860   -1.2750 C   0  0  0  0  0  0  0  0  0  0  0  0
   -2.4250    0.2340    0.1060 C   0  0  2  0  0  0  0  0  0  0  0  0
   -3.7840    0.2110    0.4630 O   0  0  0  0  0  0  0  0  0  0  0  0
   -1.7170    1.0800    1.1330 C   0  0  0  0  0  0  0  0  0  0  0  0
   -0.3920    1.1700    0.8310 O   0  0  0  0  0  0  0  0  0  0  0  0
    0.3330   -0.0020    0.7890 C   0  0  0  0  0  0  0  0  0  0  0  0
    1.6350    0.3820    0.4730 O   0  0  0  0  0  0  0  0  0  0  0  0
    2.5180   -0.6480    0.3830 C   0  0  2  0  0  0  0  0  0  0  0  0
    3.5730   -0.6170    1.2580 O   0  0  0  0  0  0  0  0  0  0  0  0
    2.9910   -0.7400   -1.0710 C   0  0  0  0  0  0  0  0  0  0  0  0
    3.6040    0.4380   -1.4520 O   0  0  0  0  0  0  0  0  0  0  0  0
  1  2  1  0
  2  3  1  0
  3  4  1  1
  3  5  1  0
  5  6  1  0
  6  7  1  0
  7  8  1  0
  8  9  1  0
  9 10  1  1
  9 11  1  0
 11 12  1  0
M  END
