
     RDKit          3D

 13 12  0  0  0  0  0  0  0  0999 V2000
    0.7960    2.4500    0.3850 O   0  0  0  0  0  0  0  0  0  0  0  0
    1.5780    1.4690    0.3790 C   0  0  0  0  0  0  0  0  0  0  0  0
    2.8320    1.6470   -0.1760 O   0  0  0  0  0  0  0  0  0  0  0  0
    1.1780    0.1860    0.9370 C   0  0  0  0  0  0  0  0  0  0  0  0
    0.2830   -0.6150    0.0180 C   0  0  2  0  0  0  0  0  0  0  0  0
    0.9860   -0.8750   -1.2040 O   0  0  0  0  0  0  0  0  0  0  0  0
   -0.9380    0.1250   -0.4220 C   0  0  0  0  0  0  0  0  0  0  0  0
   -1.8250    0.5580    0.6390 C   0  0  0  0  0  0  0  0  0  0  0  0
   -1.5870    0.3290    1.8370 O   0  0  0  0  0  0  0  0  0  0  0  0
   -2.9980    1.2600    0.3590 O   0  0  0  0  0  0  0  0  0  0  0  0
    0.0340   -1.9190    0.6440 C   0  0  0  0  0  0  0  0  0  0  0  0
    0.4110   -2.9600    0.0640 O   0  0  0  0  0  0  0  0  0  0  0  0
   -0.6050   -2.0640    1.8580 O   0  0  0  0  0  0  0  0  0  0  0  0
  1  2  2  0
  2  3  1  0
  2  4  1  0
  4  5  1  0
  5  6  1  6
  5  7  1  0
  5 11  1  0
  7  8  1  0
  8  9  2  0
  8 10  1  0
 11 12  2  0
 11 13  1  0
M  END
