
     RDKit          3D

 12 11  0  0  0  0  0  0  0  0999 V2000
    2.7060    2.5000    1.2670 O   0  0  0  0  0  0  0  0  0  0  0  0
    2.7140    1.4320    0.3760 C   0  0  0  0  0  0  0  0  0  0  0  0
    1.4660    0.5880    0.5610 C   0  0  0  0  0  0  0  0  0  0  0  0
    1.4320   -0.4800   -0.3010 O   0  0  0  0  0  0  0  0  0  0  0  0
    0.2710   -1.2110   -0.0810 C   0  0  2  0  0  0  0  0  0  0  0  0
    0.6430   -2.6230    0.3680 C   0  0  0  0  0  0  0  0  0  0  0  0
    1.3800   -2.5230    1.5460 O   0  0  0  0  0  0  0  0  0  0  0  0
   -0.4270   -1.2460   -1.2840 O   0  0  0  0  0  0  0  0  0  0  0  0
   -1.6770   -0.6850   -1.2450 C   0  0  0  0  0  0  0  0  0  0  0  0
   -1.7280    0.6450   -0.9000 O   0  0  0  0  0  0  0  0  0  0  0  0
   -3.0330    1.0840   -0.8980 C   0  0  0  0  0  0  0  0  0  0  0  0
   -3.0920    2.4420   -0.5470 O   0  0  0  0  0  0  0  0  0  0  0  0
  1  2  1  0
  2  3  1  0
  3  4  1  0
  4  5  1  0
  5  6  1  6
  5  8  1  0
  6  7  1  0
  8  9  1  0
  9 10  1  0
 10 11  1  0
 11 12  1  0
M  END
