
     RDKit          3D

 21 24  0  0  0  0  0  0  0  0999 V2000
   -1.6600   -2.1410    0.5310 C   0  0  0  0  0  0  0  0  0  0  0  0
   -1.2070   -1.1020   -0.4820 C   0  0  2  0  0  0  0  0  0  0  0  0
   -1.4830   -1.7470   -1.8460 C   0  0  0  0  0  0  0  0  0  0  0  0
    0.2350   -0.8760   -0.3420 C   0  0  2  0  0  0  0  0  0  0  0  0
    0.8540   -1.4030    0.9260 C   0  0  0  0  0  0  0  0  0  0  0  0
    2.3720   -1.3460    0.8050 C   0  0  0  0  0  0  0  0  0  0  0  0
    2.8210    0.1070    0.7650 C   0  0  1  0  0  0  0  0  0  0  0  0
    4.2570    0.3500    0.8580 C   0  0  0  0  0  0  0  0  0  0  0  0
    4.7740    1.4050   -0.0370 C   0  0  0  0  0  0  0  0  0  0  0  0
    4.0570    2.0650   -0.9280 C   0  0  0  0  0  0  0  0  0  0  0  0
    2.6370    1.7440   -1.0400 C   0  0  0  0  0  0  0  0  0  0  0  0
    2.0970    0.8450   -0.2680 C   0  0  0  0  0  0  0  0  0  0  0  0
    0.6540    0.5340   -0.5130 C   0  0  0  0  0  0  0  0  0  0  0  0
   -0.1350    1.5300   -0.8540 C   0  0  0  0  0  0  0  0  0  0  0  0
   -1.6050    1.2930   -1.1060 C   0  0  0  0  0  0  0  0  0  0  0  0
   -2.1120    0.1020   -0.4220 C   0  0  1  0  0  0  0  0  0  0  0  0
   -3.5620   -0.2770   -0.7500 C   0  0  0  0  0  0  0  0  0  0  0  0
   -3.1220    0.1590    0.6280 C   0  0  2  0  0  0  0  0  0  0  0  0
   -3.8230    1.3450    1.1240 C   0  0  0  0  0  0  0  0  0  0  0  0
   -4.3200    1.4180    2.2890 O   0  0  0  0  0  0  0  0  0  0  0  0
   -3.9850    2.4580    0.3400 O   0  0  0  0  0  0  0  0  0  0  0  0
  2  1  1  1
  2  3  1  0
  2  4  1  0
  2 16  1  0
  4  5  1  1
  4 13  1  0
  5  6  1  0
  7  6  1  6
  7  8  1  0
  7 12  1  0
  8  9  1  0
  9 10  2  0
 10 11  1  0
 11 12  2  0
 12 13  1  0
 13 14  2  0
 14 15  1  0
 16 15  1  6
 16 17  1  0
 16 18  1  0
 17 18  1  0
 18 19  1  6
 19 20  2  0
 19 21  1  0
M  END
