
     RDKit          3D

 26 28  0  0  0  0  0  0  0  0999 V2000
   -5.6580    3.8270    0.9560 C   0  0  0  0  0  0  0  0  0  0  0  0
   -4.5110    2.9570    1.0190 N   0  0  0  0  0  0  0  0  0  0  0  0
   -4.4570    1.7890    0.2140 C   0  0  0  0  0  0  0  0  0  0  0  0
   -5.4630    1.5740   -0.5420 O   0  0  0  0  0  0  0  0  0  0  0  0
   -3.3030    0.8670    0.2440 C   0  0  2  0  0  0  0  0  0  0  0  0
   -3.0510    0.2490    1.5990 C   0  0  0  0  0  0  0  0  0  0  0  0
   -1.9750   -0.7920    1.4450 C   0  0  0  0  0  0  0  0  0  0  0  0
   -0.7350   -0.0960    0.9080 C   0  0  0  0  0  0  0  0  0  0  0  0
   -0.9620    0.6410   -0.2780 N   0  0  0  0  0  0  0  0  0  0  0  0
    0.1090    0.8440   -1.1640 C   0  0  0  0  0  0  0  0  0  0  0  0
    0.7230   -0.3580   -1.7270 C   0  0  0  0  0  0  0  0  0  0  0  0
    0.2720   -1.0350   -2.8010 N   0  0  0  0  0  0  0  0  0  0  0  0
    0.8680   -2.1300   -3.2790 C   0  0  0  0  0  0  0  0  0  0  0  0
    0.3720   -2.8380   -4.4260 N   0  0  0  0  0  0  0  0  0  0  0  0
    1.9690   -2.5840   -2.6630 N   0  0  0  0  0  0  0  0  0  0  0  0
    2.4840   -1.9440   -1.5640 C   0  0  0  0  0  0  0  0  0  0  0  0
    3.6700   -2.4800   -0.9390 C   0  0  0  0  0  0  0  0  0  0  0  0
    4.1960   -3.6880   -1.5390 N   0  0  0  0  0  0  0  0  0  0  0  0
    4.3150   -2.0260    0.0780 C   0  0  0  0  0  0  0  0  0  0  0  0
    4.1050   -0.8770    0.9210 C   0  0  0  0  0  0  0  0  0  0  0  0
    4.8380   -0.4850    1.9660 C   0  0  0  0  0  0  0  0  0  0  0  0
    4.3100    0.6920    2.5370 N   0  0  0  0  0  0  0  0  0  0  0  0
    3.1780    0.9820    1.7340 C   0  0  0  0  0  0  0  0  0  0  0  0
    3.0780    0.0790    0.8230 N   0  0  0  0  0  0  0  0  0  0  0  0
    1.8290   -0.8620   -1.1540 N   0  0  0  0  0  0  0  0  0  0  0  0
   -2.0590    1.5270   -0.3090 C   0  0  0  0  0  0  0  0  0  0  0  0
  1  2  1  0
  2  3  1  0
  3  4  2  0
  5  3  1  1
  5  6  1  0
  5 26  1  0
  6  7  1  0
  7  8  1  0
  8  9  1  0
  9 10  1  0
  9 26  1  0
 10 11  1  0
 11 12  2  0
 11 25  1  0
 12 13  1  0
 13 14  1  0
 13 15  2  0
 15 16  1  0
 16 17  1  0
 16 25  2  0
 17 18  1  0
 17 19  2  3
 19 20  1  0
 20 21  2  0
 20 24  1  0
 21 22  1  0
 22 23  1  0
 23 24  2  0
M  CHG  1  22   1
M  END
