
     RDKit          3D

 20 19  0  0  0  0  0  0  0  0999 V2000
   -1.5220   -0.2340   -1.4830 C   0  0  0  0  0  0  0  0  0  0  0  0
   -1.2700    0.7850    0.0050 P   0  0  0  0  0  0  0  0  0  0  0  0
   -2.6500    0.7280    1.0250 O   0  0  0  0  0  0  0  0  0  0  0  0
   -3.5930   -0.2130    0.6720 C   0  0  2  0  0  0  0  0  0  0  0  0
   -3.0090   -1.4950    0.6990 O   0  0  0  0  0  0  0  0  0  0  0  0
   -4.2090   -0.0250   -0.6470 C   0  0  0  0  0  0  0  0  0  0  0  0
   -4.7550    1.0560   -0.8870 O   0  0  0  0  0  0  0  0  0  0  0  0
   -4.6660   -0.2730    1.7720 C   0  0  0  0  0  0  0  0  0  0  0  0
   -5.2800    0.9750    1.9110 O   0  0  0  0  0  0  0  0  0  0  0  0
    0.5220    0.3320    1.1260 P   0  0  0  0  0  0  0  0  0  0  0  0
    0.7130   -1.4440    1.5590 C   0  0  0  0  0  0  0  0  0  0  0  0
    2.0260    1.0760    0.4560 C   0  0  0  0  0  0  0  0  0  0  0  0
    2.2160    2.3120    0.6530 O   0  0  0  0  0  0  0  0  0  0  0  0
    2.9840    0.3880   -0.2580 O   0  0  0  0  0  0  0  0  0  0  0  0
    4.1390    0.9770   -0.7690 C   0  0  0  0  0  0  0  0  0  0  0  0
    4.2710    2.2150   -0.5390 O   0  0  0  0  0  0  0  0  0  0  0  0
    5.1480    0.1980   -1.5350 C   0  0  1  0  0  0  0  0  0  0  0  0
    6.1650    1.0820   -1.8940 O   0  0  0  0  0  0  0  0  0  0  0  0
    5.7530   -0.8020   -0.6080 C   0  0  0  0  0  0  0  0  0  0  0  0
    6.4580   -0.3210    0.5330 S   0  0  0  0  0  0  0  0  0  0  0  0
  1  2  1  0
  2  3  1  0
  2 10  1  0
  3  4  1  0
  4  5  1  6
  4  6  1  0
  4  8  1  0
  6  7  2  0
  8  9  1  0
 10 11  1  0
 10 12  1  0
 12 13  2  0
 12 14  1  0
 14 15  1  0
 15 16  2  0
 15 17  1  0
 17 18  1  1
 17 19  1  0
 19 20  2  0
M  END
