
     RDKit          3D

 28 30  0  0  0  0  0  0  0  0999 V2000
    6.0820    1.4480    0.4520 N   0  0  0  0  0  0  0  0  0  0  0  0
    5.3610    0.2870    0.2770 C   0  0  0  0  0  0  0  0  0  0  0  0
    4.0070    0.2640    0.5050 N   0  0  0  0  0  0  0  0  0  0  0  0
    3.2530   -0.8320    0.3390 C   0  0  0  0  0  0  0  0  0  0  0  0
    3.8200   -2.0190   -0.0830 C   0  0  0  0  0  0  0  0  0  0  0  0
    2.7890   -2.8960   -0.1320 N   0  0  0  0  0  0  0  0  0  0  0  0
    1.6570   -2.2900    0.2430 C   0  0  0  0  0  0  0  0  0  0  0  0
    1.9220   -1.0080    0.5350 N   0  0  0  0  0  0  0  0  0  0  0  0
    0.9790    0.0620    0.9060 C   0  0  2  0  0  0  0  0  0  0  0  0
   -0.2930   -0.5050    0.9060 O   0  0  0  0  0  0  0  0  0  0  0  0
   -0.9500    0.0370   -0.1550 C   0  0  2  0  0  0  0  0  0  0  0  0
   -2.3210   -0.3270   -0.5170 C   0  0  0  0  0  0  0  0  0  0  0  0
   -3.0910    0.0350    0.6640 O   0  0  0  0  0  0  0  0  0  0  0  0
   -4.0940    1.3060    0.2800 P   0  0  2  0  0  0  0  0  0  0  0  0
   -3.5660    1.8730   -1.0710 O   0  0  0  0  0  0  0  0  0  0  0  0
   -3.6740    2.5880    1.4350 O   0  0  0  0  0  0  0  0  0  0  0  0
   -5.6820    1.2280    0.2460 O   0  0  0  0  0  0  0  0  0  0  0  0
   -6.5330   -0.1240    0.5790 P   0  0  2  0  0  0  0  0  0  0  0  0
   -7.9500    0.3030    0.9690 O   0  0  0  0  0  0  0  0  0  0  0  0
   -5.9250   -1.0090    1.8480 O   0  0  0  0  0  0  0  0  0  0  0  0
   -6.7320   -1.0660   -0.8300 O   0  0  0  0  0  0  0  0  0  0  0  0
    0.0840    0.1680   -1.2310 C   0  0  1  0  0  0  0  0  0  0  0  0
   -0.2680    0.8920   -2.3140 O   0  0  0  0  0  0  0  0  0  0  0  0
    1.0690    0.9940   -0.3280 C   0  0  1  0  0  0  0  0  0  0  0  0
    0.4840    2.2020   -0.0910 O   0  0  0  0  0  0  0  0  0  0  0  0
    5.1670   -1.9960   -0.3160 C   0  0  0  0  0  0  0  0  0  0  0  0
    5.7140   -3.0720   -0.7080 O   0  0  0  0  0  0  0  0  0  0  0  0
    5.8810   -0.8820   -0.1320 N   0  0  0  0  0  0  0  0  0  0  0  0
  1  2  1  0
  2  3  2  0
  2 28  1  0
  3  4  1  0
  4  5  2  0
  4  8  1  0
  5  6  1  0
  5 26  1  0
  6  7  2  0
  7  8  1  0
  9  8  1  6
  9 10  1  0
  9 24  1  0
 10 11  1  0
 11 12  1  6
 11 22  1  0
 12 13  1  0
 13 14  1  0
 14 15  2  0
 14 16  1  1
 14 17  1  0
 17 18  1  0
 18 19  2  0
 18 20  1  1
 18 21  1  0
 22 23  1  6
 22 24  1  0
 24 25  1  1
 26 27  2  0
 26 28  1  0
M  END
