
     RDKit          3D

 43 45  0  0  0  0  0  0  0  0999 V2000
    9.0880    0.7460   -1.9800 C   0  0  0  0  0  0  0  0  0  0  0  0
    7.5850    0.8990   -1.9740 C   0  0  0  0  0  0  0  0  0  0  0  0
    7.0890    0.6260   -0.6550 O   0  0  0  0  0  0  0  0  0  0  0  0
    5.7300    0.6980   -0.3850 C   0  0  0  0  0  0  0  0  0  0  0  0
    4.9820    1.0100   -1.3420 O   0  0  0  0  0  0  0  0  0  0  0  0
    5.2760    0.4060    0.9940 C   0  0  1  0  0  0  0  0  0  0  0  0
    3.8630    0.5020    1.1470 O   0  0  0  0  0  0  0  0  0  0  0  0
    3.2830    1.4090    2.0110 C   0  0  0  0  0  0  0  0  0  0  0  0
    4.1020    2.1450    2.6450 O   0  0  0  0  0  0  0  0  0  0  0  0
    1.8430    1.5670    2.2330 C   0  0  0  0  0  0  0  0  0  0  0  0
    0.9870    0.6120    1.3790 C   0  0  2  0  0  0  0  0  0  0  0  0
    1.3830   -0.6670    1.7280 O   0  0  0  0  0  0  0  0  0  0  0  0
    0.8390   -1.8960    1.5950 C   0  0  0  0  0  0  0  0  0  0  0  0
    0.5560   -2.5610    2.6610 O   0  0  0  0  0  0  0  0  0  0  0  0
    0.5330   -2.5630    0.3390 C   0  0  1  0  0  0  0  0  0  0  0  0
    1.2640   -3.8910    0.1830 C   0  0  0  0  0  0  0  0  0  0  0  0
    0.3780   -4.5160   -0.9040 C   0  0  0  0  0  0  0  0  0  0  0  0
   -0.8810   -4.2570   -0.4300 O   0  0  0  0  0  0  0  0  0  0  0  0
   -0.9130   -3.0500    0.2170 C   0  0  2  0  0  0  0  0  0  0  0  0
   -1.6760   -2.0180   -0.5160 C   0  0  1  0  0  0  0  0  0  0  0  0
   -2.6270   -2.4750   -1.5700 C   0  0  0  0  0  0  0  0  0  0  0  0
   -3.2400   -1.3400   -2.2880 C   0  0  1  0  0  0  0  0  0  0  0  0
   -4.4370   -1.7950   -2.8780 O   0  0  0  0  0  0  0  0  0  0  0  0
   -3.5800   -0.1080   -1.5130 C   0  0  0  0  0  0  0  0  0  0  0  0
   -2.5840    0.1920   -0.4190 C   0  0  1  0  0  0  0  0  0  0  0  0
   -2.9150    1.2750    0.5110 C   0  0  2  0  0  0  0  0  0  0  0  0
   -4.2160    1.9920    0.2000 C   0  0  2  0  0  0  0  0  0  0  0  0
   -4.0950    2.7540   -0.9550 O   0  0  0  0  0  0  0  0  0  0  0  0
   -4.5670    2.9750    1.3230 C   0  0  0  0  0  0  0  0  0  0  0  0
   -5.7980    3.6410    1.0160 N   0  0  0  0  0  0  0  0  0  0  0  0
   -6.8960    2.7200    0.7960 C   0  0  0  0  0  0  0  0  0  0  0  0
   -1.8870    2.2830    0.7000 N   0  0  0  0  0  0  0  0  0  0  0  0
   -0.8260    2.6480   -0.1300 C   0  0  0  0  0  0  0  0  0  0  0  0
   -0.7810    3.9260   -0.3960 O   0  0  0  0  0  0  0  0  0  0  0  0
    0.1770    1.8400   -0.7040 N   0  0  0  0  0  0  0  0  0  0  0  0
    1.0870    0.9560   -0.0640 C   0  0  0  0  0  0  0  0  0  0  0  0
    2.0360    0.4110   -0.6940 O   0  0  0  0  0  0  0  0  0  0  0  0
   -2.4890   -1.1150    0.3760 C   0  0  1  0  0  0  0  0  0  0  0  0
   -3.7990   -1.6540    0.4170 O   0  0  0  0  0  0  0  0  0  0  0  0
   -2.0740   -0.9840    1.6530 O   0  0  0  0  0  0  0  0  0  0  0  0
    5.7780   -0.9200    1.4040 C   0  0  0  0  0  0  0  0  0  0  0  0
    4.9030   -1.9160    1.8810 N   0  0  0  0  0  0  0  0  0  0  0  0
    7.0000   -1.1610    1.3250 O   0  0  0  0  0  0  0  0  0  0  0  0
  1  2  1  0
  2  3  1  0
  3  4  1  0
  4  5  2  0
  4  6  1  0
  6  7  1  6
  6 41  1  0
  7  8  1  0
  8  9  2  0
  8 10  1  0
 11 10  1  1
 11 12  1  0
 11 36  1  0
 12 13  1  0
 13 14  2  0
 13 15  1  0
 15 16  1  1
 15 19  1  0
 16 17  1  0
 17 18  1  0
 19 18  1  6
 19 20  1  0
 20 21  1  6
 20 38  1  0
 21 22  1  0
 22 23  1  1
 22 24  1  0
 25 24  1  6
 25 26  1  0
 25 38  1  0
 26 27  1  0
 26 32  1  6
 27 28  1  6
 27 29  1  0
 29 30  1  0
 30 31  1  0
 32 33  1  0
 33 34  2  0
 33 35  1  0
 35 36  1  0
 36 37  2  0
 38 39  1  1
 38 40  1  0
 41 42  1  0
 41 43  2  0
M  CHG  1  30   1
M  END
