
     RDKit          3D

 20 22  0  0  0  0  0  0  0  0999 V2000
   -3.9440    0.1670   -2.2940 C   0  0  0  0  0  0  0  0  0  0  0  0
   -4.3280    0.2690   -0.9270 O   0  0  0  0  0  0  0  0  0  0  0  0
   -3.3990    0.1730    0.0990 C   0  0  0  0  0  0  0  0  0  0  0  0
   -2.0440   -0.0270   -0.1330 C   0  0  0  0  0  0  0  0  0  0  0  0
   -1.1330   -0.1200    0.8950 C   0  0  0  0  0  0  0  0  0  0  0  0
    0.2700   -0.3300    0.5760 C   0  0  0  0  0  0  0  0  0  0  0  0
    0.9320    0.3630   -0.4100 C   0  0  0  0  0  0  0  0  0  0  0  0
    2.2680    0.1350   -0.6840 C   0  0  0  0  0  0  0  0  0  0  0  0
    2.9890   -0.8050    0.0290 C   0  0  0  0  0  0  0  0  0  0  0  0
    2.3530   -1.5040    1.0120 C   0  0  0  0  0  0  0  0  0  0  0  0
    1.0210   -1.2750    1.2840 C   0  0  0  0  0  0  0  0  0  0  0  0
    0.3450   -1.9650    2.2710 O   0  0  0  0  0  0  0  0  0  0  0  0
    4.3440   -1.0430   -0.2420 O   0  0  0  0  0  0  0  0  0  0  0  0
    4.9510   -0.5430   -1.4110 C   0  0  0  0  0  0  0  0  0  0  0  0
    4.3410    0.7490   -1.8720 C   0  0  0  0  0  0  0  0  0  0  0  0
    2.9550    0.8210   -1.6720 O   0  0  0  0  0  0  0  0  0  0  0  0
   -1.6120   -0.0070    2.1820 C   0  0  0  0  0  0  0  0  0  0  0  0
   -2.9560    0.1930    2.4540 C   0  0  0  0  0  0  0  0  0  0  0  0
   -3.8430    0.2820    1.4040 C   0  0  0  0  0  0  0  0  0  0  0  0
   -5.2000    0.4840    1.6820 O   0  0  0  0  0  0  0  0  0  0  0  0
  1  2  1  0
  2  3  1  0
  3  4  2  0
  3 19  1  0
  4  5  1  0
  5  6  1  0
  5 17  2  0
  6  7  2  0
  6 11  1  0
  7  8  1  0
  8  9  2  0
  8 16  1  0
  9 10  1  0
  9 13  1  0
 10 11  2  0
 11 12  1  0
 13 14  1  0
 14 15  1  0
 15 16  1  0
 17 18  1  0
 18 19  2  0
 19 20  1  0
M  END
