
     RDKit          3D

 11 12  0  0  0  0  0  0  0  0999 V2000
   -3.6780   -1.3300    0.1010 Cl  0  0  0  0  0  0  0  0  0  0  0  0
   -2.0400   -0.6950   -0.1030 C   0  0  0  0  0  0  0  0  0  0  0  0
   -1.9340    0.6430   -0.3700 C   0  0  0  0  0  0  0  0  0  0  0  0
   -0.6610    1.1490   -0.5310 C   0  0  0  0  0  0  0  0  0  0  0  0
    0.4250    0.2850   -0.4140 C   0  0  0  0  0  0  0  0  0  0  0  0
    1.7350    0.5250   -0.5250 N   0  0  0  0  0  0  0  0  0  0  0  0
    2.3870   -0.6290   -0.3300 C   0  0  0  0  0  0  0  0  0  0  0  0
    4.1500   -0.8040   -0.3810 Cl  0  0  0  0  0  0  0  0  0  0  0  0
    1.4830   -1.5870   -0.0980 N   0  0  0  0  0  0  0  0  0  0  0  0
    0.2570   -1.0540   -0.1440 C   0  0  0  0  0  0  0  0  0  0  0  0
   -1.0010   -1.5160    0.0080 N   0  0  0  0  0  0  0  0  0  0  0  0
  1  2  1  0
  2  3  2  0
  2 11  1  0
  3  4  1  0
  4  5  2  0
  5  6  1  0
  5 10  1  0
  6  7  1  0
  7  8  1  0
  7  9  2  0
  9 10  1  0
 10 11  2  0
M  END
