
     RDKit          3D

 24 24  0  0  0  0  0  0  0  0999 V2000
    7.0750   -0.3950    0.8730 N   0  0  0  0  0  0  0  0  0  0  0  0
    5.7150   -0.0450    1.0930 C   0  0  0  0  0  0  0  0  0  0  0  0
    5.1450   -0.5200    2.0870 O   0  0  0  0  0  0  0  0  0  0  0  0
    5.0680    0.8490    0.1430 C   0  0  1  0  0  0  0  0  0  0  0  0
    5.3430    0.4890   -1.3240 C   0  0  0  0  0  0  0  0  0  0  0  0
    4.9200    1.6280   -2.0490 O   0  0  0  0  0  0  0  0  0  0  0  0
    3.6820    1.0960    0.2880 N   0  0  0  0  0  0  0  0  0  0  0  0
    2.8510    0.0790    0.8180 C   0  0  0  0  0  0  0  0  0  0  0  0
    2.8480   -1.2020    0.0560 C   0  0  0  0  0  0  0  0  0  0  0  0
    1.9220   -2.2020    0.7210 C   0  0  0  0  0  0  0  0  0  0  0  0
    0.5630   -1.7240    0.7850 N   0  0  0  0  0  0  0  0  0  0  0  0
   -0.1810   -1.4000   -0.3560 C   0  0  0  0  0  0  0  0  0  0  0  0
    0.3200   -1.5170   -1.4840 O   0  0  0  0  0  0  0  0  0  0  0  0
   -1.5500   -0.9210   -0.2650 N   0  0  0  0  0  0  0  0  0  0  0  0
   -2.2830   -0.5970   -1.4580 C   0  0  0  0  0  0  0  0  0  0  0  0
   -3.6690   -0.1190   -1.2310 C   0  0  0  0  0  0  0  0  0  0  0  0
   -4.3010    0.1620   -2.3090 O   0  0  0  0  0  0  0  0  0  0  0  0
   -4.3090    0.0430   -0.0100 N   0  0  0  0  0  0  0  0  0  0  0  0
   -5.6330    0.4950    0.1300 C   0  0  0  0  0  0  0  0  0  0  0  0
   -6.0200    0.9550    1.4010 C   0  0  0  0  0  0  0  0  0  0  0  0
   -7.2920    1.4030    1.6720 C   0  0  0  0  0  0  0  0  0  0  0  0
   -8.2510    1.4180    0.6840 C   0  0  0  0  0  0  0  0  0  0  0  0
   -7.8900    0.9730   -0.5570 C   0  0  0  0  0  0  0  0  0  0  0  0
   -6.5920    0.5180   -0.8230 C   0  0  0  0  0  0  0  0  0  0  0  0
  1  2  1  0
  2  3  2  0
  2  4  1  0
  4  5  1  6
  4  7  1  0
  5  6  1  0
  7  8  1  0
  8  9  1  0
  9 10  1  0
 10 11  1  0
 11 12  1  0
 12 13  2  0
 12 14  1  0
 14 15  1  0
 15 16  1  0
 16 17  2  0
 16 18  1  0
 18 19  1  0
 19 20  2  0
 19 24  1  0
 20 21  1  0
 21 22  2  0
 22 23  1  0
 23 24  2  0
M  CHG  1   7   1
M  END
