
     RDKit          3D

 22 23  0  0  0  0  0  0  0  0999 V2000
    5.8700    2.5100    0.0230 N   0  0  0  0  0  0  0  0  0  0  0  0
    5.5760    0.9970   -0.7460 S   0  0  1  0  0  0  0  0  0  0  0  0
    5.7470    1.0650   -2.2210 O   0  0  0  0  0  0  0  0  0  0  0  0
    6.5790    0.0130   -0.2010 O   0  0  0  0  0  0  0  0  0  0  0  0
    3.9670    0.4790   -0.2790 C   0  0  0  0  0  0  0  0  0  0  0  0
    2.8630    0.8240   -1.0130 C   0  0  0  0  0  0  0  0  0  0  0  0
    1.6060    0.4100   -0.6350 C   0  0  0  0  0  0  0  0  0  0  0  0
    1.4520   -0.3610    0.4940 C   0  0  0  0  0  0  0  0  0  0  0  0
    0.1520   -0.8330    0.9500 C   0  0  0  0  0  0  0  0  0  0  0  0
    0.1070   -1.5320    1.9930 O   0  0  0  0  0  0  0  0  0  0  0  0
   -1.0620   -0.5350    0.2670 N   0  0  0  0  0  0  0  0  0  0  0  0
   -2.2890   -1.0520    0.8050 C   0  0  0  0  0  0  0  0  0  0  0  0
   -3.5030   -0.7060    0.0500 C   0  0  0  0  0  0  0  0  0  0  0  0
   -3.5730    0.0450   -1.0940 C   0  0  0  0  0  0  0  0  0  0  0  0
   -4.7890    0.3130   -1.7330 C   0  0  0  0  0  0  0  0  0  0  0  0
   -4.8310    1.0600   -2.8630 F   0  0  0  0  0  0  0  0  0  0  0  0
   -5.9650   -0.1790   -1.2220 C   0  0  0  0  0  0  0  0  0  0  0  0
   -5.9110   -0.9350   -0.0750 C   0  0  0  0  0  0  0  0  0  0  0  0
   -4.7080   -1.1860    0.5350 C   0  0  0  0  0  0  0  0  0  0  0  0
   -4.7120   -1.9350    1.6600 F   0  0  0  0  0  0  0  0  0  0  0  0
    2.5870   -0.6920    1.2120 C   0  0  0  0  0  0  0  0  0  0  0  0
    3.8410   -0.2890    0.8500 C   0  0  0  0  0  0  0  0  0  0  0  0
  2  1  1  1
  2  3  2  0
  2  4  2  0
  2  5  1  0
  5  6  2  0
  5 22  1  0
  6  7  1  0
  7  8  2  0
  8  9  1  0
  8 21  1  0
  9 10  2  0
  9 11  1  0
 11 12  1  0
 12 13  1  0
 13 14  2  0
 13 19  1  0
 14 15  1  0
 15 16  1  0
 15 17  2  0
 17 18  1  0
 18 19  2  0
 19 20  1  0
 21 22  2  0
M  END
