
     RDKit          3D

 24 24  0  0  0  0  0  0  0  0999 V2000
   -2.7610   -0.6400    2.5450 C   0  0  0  0  0  0  0  0  0  0  0  0
   -3.6040   -0.2760    1.4010 C   0  0  0  0  0  0  0  0  0  0  0  0
   -2.9900   -0.5280    0.0810 C   0  0  0  0  0  0  0  0  0  0  0  0
   -1.7820   -1.0430    0.0320 C   0  0  0  0  0  0  0  0  0  0  0  0
   -1.1690   -1.2950   -1.2780 C   0  0  0  0  0  0  0  0  0  0  0  0
    0.0540   -0.5820   -1.4880 N   0  0  0  0  0  0  0  0  0  0  0  0
    1.2100   -0.7280   -0.6730 C   0  0  0  0  0  0  0  0  0  0  0  0
    1.1630   -1.5230    0.2830 O   0  0  0  0  0  0  0  0  0  0  0  0
    2.4140   -0.0080   -0.9030 N   0  0  0  0  0  0  0  0  0  0  0  0
    3.5930   -0.1570   -0.0720 C   0  0  2  0  0  0  0  0  0  0  0  0
    3.7940    1.1830    0.6390 C   0  0  0  0  0  0  0  0  0  0  0  0
    4.8190   -0.5310   -0.8700 C   0  0  2  0  0  0  0  0  0  0  0  0
    5.9190   -0.6480    0.0620 N   0  0  0  0  0  0  0  0  0  0  0  0
    5.0880    0.4520   -1.9650 C   0  0  0  0  0  0  0  0  0  0  0  0
    6.2990    0.0880   -2.7560 C   0  0  0  0  0  0  0  0  0  0  0  0
    6.4660    1.0640   -3.7510 O   0  0  0  0  0  0  0  0  0  0  0  0
   -4.8110    0.2340    1.5130 C   0  0  0  0  0  0  0  0  0  0  0  0
   -5.5770    0.5670    0.3300 N   0  0  0  0  0  0  0  0  0  0  0  0
   -6.8970    1.1170    0.4350 C   0  0  0  0  0  0  0  0  0  0  0  0
   -7.3740    1.8660   -0.4710 O   0  0  0  0  0  0  0  0  0  0  0  0
   -7.6980    0.7860    1.6410 C   0  0  0  0  0  0  0  0  0  0  0  0
   -6.8410    1.0680    2.7790 N   0  0  0  0  0  0  0  0  0  0  0  0
   -5.5010    0.5090    2.7630 C   0  0  0  0  0  0  0  0  0  0  0  0
   -4.9680    0.2730    3.8690 O   0  0  0  0  0  0  0  0  0  0  0  0
  1  2  1  0
  2  3  1  0
  2 17  2  3
  3  4  2  3
  4  5  1  0
  5  6  1  0
  6  7  1  0
  7  8  2  0
  7  9  1  0
  9 10  1  0
 10 11  1  6
 10 12  1  0
 12 13  1  1
 12 14  1  0
 14 15  1  0
 15 16  1  0
 17 18  1  0
 17 23  1  0
 18 19  1  0
 19 20  2  0
 19 21  1  0
 21 22  1  0
 22 23  1  0
 23 24  2  0
M  END
