
     RDKit          3D

 16 17  0  0  0  0  0  0  0  0999 V2000
   -1.7600   -2.1840    0.3300 C   0  0  0  0  0  0  0  0  0  0  0  0
   -1.4720   -0.8640   -0.3600 C   0  0  2  0  0  0  0  0  0  0  0  0
   -2.5010   -0.6230   -1.4680 C   0  0  0  0  0  0  0  0  0  0  0  0
   -0.2210   -0.9640   -1.0210 O   0  0  0  0  0  0  0  0  0  0  0  0
    0.9560   -0.4860   -0.4970 C   0  0  0  0  0  0  0  0  0  0  0  0
    2.1470   -0.5680   -1.2210 C   0  0  0  0  0  0  0  0  0  0  0  0
    3.3150   -0.0790   -0.6690 C   0  0  0  0  0  0  0  0  0  0  0  0
    4.5220   -0.1420   -1.3570 O   0  0  0  0  0  0  0  0  0  0  0  0
    3.2840    0.4820    0.5900 C   0  0  0  0  0  0  0  0  0  0  0  0
    2.0880    0.5560    1.2990 C   0  0  0  0  0  0  0  0  0  0  0  0
    2.0490    1.1170    2.5610 O   0  0  0  0  0  0  0  0  0  0  0  0
    0.9170    0.0730    0.7630 C   0  0  0  0  0  0  0  0  0  0  0  0
   -0.3060    0.1270    1.4400 O   0  0  0  0  0  0  0  0  0  0  0  0
   -1.5040    0.2120    0.6800 C   0  0  1  0  0  0  0  0  0  0  0  0
   -1.6120    1.5950    0.1270 C   0  0  0  0  0  0  0  0  0  0  0  0
   -1.6420    2.4850    1.2000 O   0  0  0  0  0  0  0  0  0  0  0  0
  2  1  1  1
  2  3  1  0
  2  4  1  0
  2 14  1  0
  4  5  1  0
  5  6  2  0
  5 12  1  0
  6  7  1  0
  7  8  1  0
  7  9  2  0
  9 10  1  0
 10 11  1  0
 10 12  2  0
 12 13  1  0
 13 14  1  0
 14 15  1  6
 15 16  1  0
M  END
