
     RDKit          3D

 17 17  0  0  0  0  0  0  0  0999 V2000
    2.9210   -0.5490    1.0770 C   0  0  0  0  0  0  0  0  0  0  0  0
    1.8880    0.0840    0.2440 C   0  0  0  0  0  0  0  0  0  0  0  0
    2.3190    1.1680   -0.4220 C   0  0  0  0  0  0  0  0  0  0  0  0
    3.6400    1.7110   -0.3820 C   0  0  0  0  0  0  0  0  0  0  0  0
    3.8970    2.7510   -1.0700 O   0  0  0  0  0  0  0  0  0  0  0  0
    4.6700    1.2070    0.3390 O   0  0  0  0  0  0  0  0  0  0  0  0
    0.5370   -0.3750    0.0330 C   0  0  0  0  0  0  0  0  0  0  0  0
    0.0480   -1.4070    0.7010 C   0  0  0  0  0  0  0  0  0  0  0  0
    0.8510   -2.0260    1.5880 O   0  0  0  0  0  0  0  0  0  0  0  0
   -1.3580   -1.9570    0.5540 C   0  0  0  0  0  0  0  0  0  0  0  0
   -2.2780   -0.8050    0.8980 C   0  0  0  0  0  0  0  0  0  0  0  0
   -2.6390   -0.0560   -0.3410 C   0  0  1  0  0  0  0  0  0  0  0  0
   -3.7440    0.9720   -0.0590 C   0  0  0  0  0  0  0  0  0  0  0  0
   -4.0810    1.5530   -1.2810 O   0  0  0  0  0  0  0  0  0  0  0  0
   -1.5730    0.6930   -0.9040 O   0  0  0  0  0  0  0  0  0  0  0  0
   -0.2240    0.3350   -1.0320 C   0  0  0  0  0  0  0  0  0  0  0  0
    0.3450    0.6310   -2.0940 O   0  0  0  0  0  0  0  0  0  0  0  0
  1  2  1  0
  2  3  2  3
  2  7  1  0
  3  4  1  0
  4  5  2  0
  4  6  1  0
  7  8  2  0
  7 16  1  0
  8  9  1  0
  8 10  1  0
 10 11  1  0
 11 12  1  0
 12 13  1  1
 12 15  1  0
 13 14  1  0
 15 16  1  0
 16 17  2  0
M  END
