
     RDKit          3D

 17 18  0  0  0  0  0  0  0  0999 V2000
    4.2630    1.2970   -0.3700 O   0  0  0  0  0  0  0  0  0  0  0  0
    3.0830    1.2460   -0.7130 C   0  0  0  0  0  0  0  0  0  0  0  0
    2.7120    2.0770   -1.7760 O   0  0  0  0  0  0  0  0  0  0  0  0
    2.0330    0.4120   -0.1280 C   0  0  0  0  0  0  0  0  0  0  0  0
    0.7360    0.4910   -0.6560 C   0  0  0  0  0  0  0  0  0  0  0  0
   -0.3310   -0.2290   -0.2060 C   0  0  0  0  0  0  0  0  0  0  0  0
   -0.1060   -1.0950    0.8450 C   0  0  0  0  0  0  0  0  0  0  0  0
    1.1500   -1.2060    1.3970 C   0  0  0  0  0  0  0  0  0  0  0  0
    2.2390   -0.4520    0.9160 C   0  0  0  0  0  0  0  0  0  0  0  0
    3.4640   -0.5970    1.4950 O   0  0  0  0  0  0  0  0  0  0  0  0
   -1.2460   -1.8750    1.3260 C   0  0  0  0  0  0  0  0  0  0  0  0
   -1.0470   -2.6610    2.2810 O   0  0  0  0  0  0  0  0  0  0  0  0
   -2.5080   -1.7290    0.7210 O   0  0  0  0  0  0  0  0  0  0  0  0
   -2.4580   -1.4130   -0.6770 C   0  0  0  0  0  0  0  0  0  0  0  0
   -1.6950   -0.1140   -0.7860 C   0  0  1  0  0  0  0  0  0  0  0  0
   -2.5060    0.9530   -0.0890 C   0  0  0  0  0  0  0  0  0  0  0  0
   -1.9440    2.2070   -0.1700 O   0  0  0  0  0  0  0  0  0  0  0  0
  1  2  2  0
  2  3  1  0
  2  4  1  0
  4  5  2  0
  4  9  1  0
  5  6  1  0
  6  7  2  0
  6 15  1  0
  7  8  1  0
  7 11  1  0
  8  9  2  0
  9 10  1  0
 11 12  2  0
 11 13  1  0
 13 14  1  0
 14 15  1  0
 15 16  1  1
 16 17  1  0
M  END
