
     RDKit          3D

 30 33  0  0  0  0  0  0  0  0999 V2000
   -2.6130    3.2130   -0.0290 C   0  0  0  0  0  0  0  0  0  0  0  0
   -3.7670    2.2600    0.1020 C   0  0  0  0  0  0  0  0  0  0  0  0
   -5.0320    2.5870    0.2140 O   0  0  0  0  0  0  0  0  0  0  0  0
   -5.7990    1.5360    0.3110 C   0  0  0  0  0  0  0  0  0  0  0  0
   -4.9710    0.4240    0.2580 C   0  0  0  0  0  0  0  0  0  0  0  0
   -3.6690    0.8920    0.1240 C   0  0  0  0  0  0  0  0  0  0  0  0
   -2.4490    0.1080    0.0270 C   0  0  0  0  0  0  0  0  0  0  0  0
   -1.7740   -0.2390    1.0180 O   0  0  0  0  0  0  0  0  0  0  0  0
   -1.9650   -0.3040   -1.2300 O   0  0  0  0  0  0  0  0  0  0  0  0
   -0.7880   -1.0620   -1.3410 C   0  0  0  0  0  0  0  0  0  0  0  0
    0.3840   -0.3040   -0.7640 C   0  0  0  0  0  0  0  0  0  0  0  0
    0.2610    0.8180   -0.2800 O   0  0  0  0  0  0  0  0  0  0  0  0
    1.6390   -0.9460   -0.8060 N   0  0  0  0  0  0  0  0  0  0  0  0
    2.8640   -0.4410   -0.3400 C   0  0  0  0  0  0  0  0  0  0  0  0
    3.0140    0.8730    0.0250 C   0  0  0  0  0  0  0  0  0  0  0  0
    4.2510    1.3270    0.5010 C   0  0  0  0  0  0  0  0  0  0  0  0
    5.3070    0.4460    0.5970 C   0  0  0  0  0  0  0  0  0  0  0  0
    5.1530   -0.8690    0.2300 C   0  0  0  0  0  0  0  0  0  0  0  0
    3.9440   -1.3260   -0.2380 C   0  0  0  0  0  0  0  0  0  0  0  0
    6.3000   -1.7490    0.3530 C   0  0  0  0  0  0  0  0  0  0  0  0
    7.4690   -1.3340    0.7990 C   0  0  0  0  0  0  0  0  0  0  0  0
    7.6630    0.0700    1.1990 C   0  0  0  0  0  0  0  0  0  0  0  0
    6.5240    0.8760    1.0610 O   0  0  0  0  0  0  0  0  0  0  0  0
   -5.4370   -0.9410    0.3340 C   0  0  0  0  0  0  0  0  0  0  0  0
   -4.5670   -1.8880    0.2730 O   0  0  0  0  0  0  0  0  0  0  0  0
   -6.8250   -1.3370    0.4750 C   0  0  0  0  0  0  0  0  0  0  0  0
   -7.1210   -2.6240    0.5320 N   0  0  0  0  0  0  0  0  0  0  0  0
   -7.9170   -0.3860    0.5560 C   0  0  0  0  0  0  0  0  0  0  0  0
   -9.1040   -0.8210    0.6790 O   0  0  0  0  0  0  0  0  0  0  0  0
   -7.5750    1.3560    0.4840 S   0  0  0  0  0  0  0  0  0  0  0  0
  1  2  1  0
  2  3  1  0
  2  6  2  0
  3  4  1  0
  4  5  2  0
  4 30  1  0
  5  6  1  0
  5 24  1  0
  6  7  1  0
  7  8  2  0
  7  9  1  0
  9 10  1  0
 10 11  1  0
 11 12  2  0
 11 13  1  0
 13 14  1  0
 14 15  2  0
 14 19  1  0
 15 16  1  0
 16 17  2  0
 17 18  1  0
 17 23  1  0
 18 19  2  0
 18 20  1  0
 20 21  2  0
 21 22  1  0
 22 23  1  0
 24 25  2  0
 24 26  1  0
 26 27  2  0
 26 28  1  0
 28 29  2  0
 28 30  1  0
M  END
