
     RDKit          3D

 30 33  0  0  0  0  0  0  0  0999 V2000
    3.6780   -0.0040    4.1970 C   0  0  0  0  0  0  0  0  0  0  0  0
    3.5360    0.2220    2.7250 C   0  0  0  0  0  0  0  0  0  0  0  0
    2.7250   -0.4680    1.8680 C   0  0  0  0  0  0  0  0  0  0  0  0
    2.9040    0.0680    0.5940 C   0  0  0  0  0  0  0  0  0  0  0  0
    2.2370   -0.3670   -0.6160 C   0  0  0  0  0  0  0  0  0  0  0  0
    2.4200    0.1330   -1.7330 O   0  0  0  0  0  0  0  0  0  0  0  0
    1.3020   -1.4260   -0.5960 O   0  0  0  0  0  0  0  0  0  0  0  0
    0.6640   -1.8410   -1.7550 C   0  0  0  0  0  0  0  0  0  0  0  0
    1.5850   -2.8980   -2.9590 S   0  0  0  0  0  0  0  0  0  0  0  0
    0.1950   -2.9990   -4.0920 C   0  0  0  0  0  0  0  0  0  0  0  0
    0.2060   -3.7570   -5.3870 C   0  0  0  0  0  0  0  0  0  0  0  0
   -0.7650   -2.2810   -3.5030 C   0  0  0  0  0  0  0  0  0  0  0  0
   -0.5480   -1.6810   -2.3070 C   0  0  0  0  0  0  0  0  0  0  0  0
   -1.6220   -0.8950   -1.6040 C   0  0  0  0  0  0  0  0  0  0  0  0
   -2.7460   -0.7480   -2.1680 O   0  0  0  0  0  0  0  0  0  0  0  0
   -1.4560   -0.3090   -0.3520 N   0  0  0  0  0  0  0  0  0  0  0  0
   -2.4140    0.4520    0.3700 C   0  0  0  0  0  0  0  0  0  0  0  0
   -2.1090    0.7520    1.7020 C   0  0  0  0  0  0  0  0  0  0  0  0
   -2.9620    1.4930    2.4920 C   0  0  0  0  0  0  0  0  0  0  0  0
   -4.1540    1.9710    2.0000 C   0  0  0  0  0  0  0  0  0  0  0  0
   -4.4720    1.6900    0.6990 C   0  0  0  0  0  0  0  0  0  0  0  0
   -3.5990    0.9340   -0.1010 C   0  0  0  0  0  0  0  0  0  0  0  0
   -5.7120    2.2700    0.4270 O   0  0  0  0  0  0  0  0  0  0  0  0
   -6.2900    2.6620    1.6760 C   0  0  0  0  0  0  0  0  0  0  0  0
   -5.1850    2.7330    2.5720 O   0  0  0  0  0  0  0  0  0  0  0  0
    3.8260    1.0670    0.7490 C   0  0  0  0  0  0  0  0  0  0  0  0
    4.3820    1.9630   -0.2780 C   0  0  0  0  0  0  0  0  0  0  0  0
    4.0830    1.9390   -1.4700 O   0  0  0  0  0  0  0  0  0  0  0  0
    5.3330    2.9350    0.1070 O   0  0  0  0  0  0  0  0  0  0  0  0
    4.2040    1.1490    2.0620 N   0  0  0  0  0  0  0  0  0  0  0  0
  1  2  1  0
  2  3  2  0
  2 30  1  0
  3  4  1  0
  4  5  1  0
  4 26  2  0
  5  6  2  0
  5  7  1  0
  7  8  1  0
  8  9  1  0
  8 13  2  0
  9 10  1  0
 10 11  1  0
 10 12  2  0
 12 13  1  0
 13 14  1  0
 14 15  2  0
 14 16  1  0
 16 17  1  0
 17 18  2  0
 17 22  1  0
 18 19  1  0
 19 20  2  0
 20 21  1  0
 20 25  1  0
 21 22  2  0
 21 23  1  0
 23 24  1  0
 24 25  1  0
 26 27  1  0
 26 30  1  0
 27 28  2  0
 27 29  1  0
M  END
