
     RDKit          3D

 30 33  0  0  0  0  0  0  0  0999 V2000
    4.6950    2.4250   -0.0810 O   0  0  0  0  0  0  0  0  0  0  0  0
    3.4970    2.0960   -0.1220 C   0  0  0  0  0  0  0  0  0  0  0  0
    2.5050    2.8240    0.6760 C   0  0  0  0  0  0  0  0  0  0  0  0
    1.1960    2.2740    0.4680 O   0  0  0  0  0  0  0  0  0  0  0  0
    0.6160    2.2530   -0.7890 C   0  0  0  0  0  0  0  0  0  0  0  0
    1.2640    2.7290   -1.7420 O   0  0  0  0  0  0  0  0  0  0  0  0
   -0.7240    1.6800   -0.9520 C   0  0  0  0  0  0  0  0  0  0  0  0
   -1.5040    1.1360    0.0460 C   0  0  0  0  0  0  0  0  0  0  0  0
   -2.7070    0.6960   -0.4880 C   0  0  0  0  0  0  0  0  0  0  0  0
   -3.8350    0.0610    0.1680 C   0  0  0  0  0  0  0  0  0  0  0  0
   -3.8560   -0.1860    1.4050 O   0  0  0  0  0  0  0  0  0  0  0  0
   -4.9330   -0.2950   -0.5600 O   0  0  0  0  0  0  0  0  0  0  0  0
   -6.0630   -0.9020   -0.0520 C   0  0  0  0  0  0  0  0  0  0  0  0
   -7.1150   -0.1500    0.4100 C   0  0  0  0  0  0  0  0  0  0  0  0
   -8.2670   -0.7450    0.9270 C   0  0  0  0  0  0  0  0  0  0  0  0
   -8.3390   -2.1150    0.9710 C   0  0  0  0  0  0  0  0  0  0  0  0
   -7.2960   -2.9010    0.5130 C   0  0  0  0  0  0  0  0  0  0  0  0
   -6.1670   -2.2730    0.0050 C   0  0  0  0  0  0  0  0  0  0  0  0
   -2.6300    0.9820   -1.7960 N   0  0  0  0  0  0  0  0  0  0  0  0
   -1.4540    1.5660   -2.0730 N   0  0  0  0  0  0  0  0  0  0  0  0
    3.1100    1.0420   -0.9230 O   0  0  0  0  0  0  0  0  0  0  0  0
    4.0780    0.3560   -1.6790 C   0  0  0  0  0  0  0  0  0  0  0  0
    5.1150   -0.2550   -0.7800 C   0  0  0  0  0  0  0  0  0  0  0  0
    5.1380   -0.3300    0.5880 C   0  0  0  0  0  0  0  0  0  0  0  0
    6.3450   -1.0090    0.9430 C   0  0  0  0  0  0  0  0  0  0  0  0
    6.9050   -1.3730    2.1740 C   0  0  0  0  0  0  0  0  0  0  0  0
    8.4340   -2.1860    1.5910 S   0  0  0  0  0  0  0  0  0  0  0  0
    8.1680   -1.9590   -0.1820 C   0  0  0  0  0  0  0  0  0  0  0  0
    6.9380   -1.2830   -0.1860 C   0  0  0  0  0  0  0  0  0  0  0  0
    6.1940   -0.8270   -1.2230 O   0  0  0  0  0  0  0  0  0  0  0  0
  1  2  2  0
  2  3  1  0
  2 21  1  0
  3  4  1  0
  4  5  1  0
  5  6  2  0
  5  7  1  0
  7  8  1  0
  7 20  2  0
  8  9  2  0
  9 10  1  0
  9 19  1  0
 10 11  2  0
 10 12  1  0
 12 13  1  0
 13 14  2  0
 13 18  1  0
 14 15  1  0
 15 16  2  0
 16 17  1  0
 17 18  2  0
 19 20  1  0
 21 22  1  0
 22 23  1  0
 23 24  2  0
 23 30  1  0
 24 25  1  0
 25 26  2  0
 25 29  1  0
 26 27  1  0
 27 28  1  0
 28 29  2  0
 29 30  1  0
M  END
