
     RDKit          3D

 16 16  0  0  0  0  0  0  0  0999 V2000
   -1.2240    1.4280    1.9760 C   0  0  0  0  0  0  0  0  0  0  0  0
   -0.7490    0.1530    1.6950 O   0  0  0  0  0  0  0  0  0  0  0  0
   -1.1590   -0.1820    0.4130 C   0  0  2  0  0  0  0  0  0  0  0  0
   -2.0440   -1.3530    0.3850 C   0  0  0  0  0  0  0  0  0  0  0  0
   -2.7860   -1.7050    1.5170 O   0  0  0  0  0  0  0  0  0  0  0  0
   -2.1700   -2.0990   -0.6810 C   0  0  0  0  0  0  0  0  0  0  0  0
   -1.4430   -1.8210   -1.9020 N   0  0  0  0  0  0  0  0  0  0  0  0
   -0.5840   -0.6910   -1.8650 C   0  0  0  0  0  0  0  0  0  0  0  0
   -0.3170   -0.0090   -2.8590 O   0  0  0  0  0  0  0  0  0  0  0  0
   -0.0160   -0.3760   -0.5340 C   0  0  1  0  0  0  0  0  0  0  0  0
    0.8540    0.7300   -0.5770 O   0  0  0  0  0  0  0  0  0  0  0  0
    2.1740    0.5280   -0.1650 C   0  0  0  0  0  0  0  0  0  0  0  0
    2.5360   -0.6340    0.2280 O   0  0  0  0  0  0  0  0  0  0  0  0
    3.1550    1.5760   -0.1620 C   0  0  0  0  0  0  0  0  0  0  0  0
    4.4750    1.3210    0.2620 N   0  0  0  0  0  0  0  0  0  0  0  0
    2.8550    2.7300   -0.5370 O   0  0  0  0  0  0  0  0  0  0  0  0
  1  2  1  0
  3  2  1  1
  3  4  1  0
  3 10  1  0
  4  5  1  0
  4  6  2  0
  6  7  1  0
  7  8  1  0
  8  9  2  0
  8 10  1  0
 10 11  1  6
 11 12  1  0
 12 13  2  0
 12 14  1  0
 14 15  1  0
 14 16  2  0
M  END
