
     RDKit          3D

 24 27  0  0  0  0  0  0  0  0999 V2000
    1.4130    4.1300   -0.4690 C   0  0  0  0  0  0  0  0  0  0  0  0
   -0.0310    4.2620   -0.7250 C   0  0  0  0  0  0  0  0  0  0  0  0
   -0.9280    3.3000   -0.6220 C   0  0  0  0  0  0  0  0  0  0  0  0
   -2.2460    3.5220   -0.8800 F   0  0  0  0  0  0  0  0  0  0  0  0
   -0.5140    1.9890   -0.2290 N   0  0  0  0  0  0  0  0  0  0  0  0
    0.7160    1.6320    0.0470 N   0  0  0  0  0  0  0  0  0  0  0  0
    0.7160    0.3370    0.3780 C   0  0  0  0  0  0  0  0  0  0  0  0
    1.8750   -0.4860    0.7660 C   0  0  0  0  0  0  0  0  0  0  0  0
    2.0100   -1.1890    1.9390 C   0  0  0  0  0  0  0  0  0  0  0  0
    3.2230   -1.7980    1.9070 N   0  0  0  0  0  0  0  0  0  0  0  0
    3.8580   -1.5120    0.7720 N   0  0  0  0  0  0  0  0  0  0  0  0
    5.1760   -1.9830    0.3830 C   0  0  0  0  0  0  0  0  0  0  0  0
    3.0320   -0.7050    0.0660 C   0  0  0  0  0  0  0  0  0  0  0  0
    3.3400   -0.1490   -1.2610 C   0  0  0  0  0  0  0  0  0  0  0  0
   -0.5870   -0.1230    0.2990 C   0  0  0  0  0  0  0  0  0  0  0  0
   -1.1480   -1.3650    0.5260 C   0  0  0  0  0  0  0  0  0  0  0  0
   -0.4050   -2.3040    0.8760 O   0  0  0  0  0  0  0  0  0  0  0  0
   -2.4970   -1.5610    0.3700 C   0  0  0  0  0  0  0  0  0  0  0  0
   -3.2510   -0.4770   -0.0190 C   0  0  0  0  0  0  0  0  0  0  0  0
   -2.6800    0.7430   -0.2400 N   0  0  0  0  0  0  0  0  0  0  0  0
   -1.3660    0.9410   -0.0890 C   0  0  0  0  0  0  0  0  0  0  0  0
   -4.6780   -0.8740   -0.1330 C   0  0  0  0  0  0  0  0  0  0  0  0
   -4.5740   -2.3710   -0.3470 C   0  0  0  0  0  0  0  0  0  0  0  0
   -3.3770   -2.7280    0.5280 C   0  0  0  0  0  0  0  0  0  0  0  0
  1  2  1  0
  2  3  2  3
  3  4  1  0
  3  5  1  0
  5  6  1  0
  5 21  1  0
  6  7  2  0
  7  8  1  0
  7 15  1  0
  8  9  1  0
  8 13  2  0
  9 10  2  0
 10 11  1  0
 11 12  1  0
 11 13  1  0
 13 14  1  0
 15 16  1  0
 15 21  2  0
 16 17  2  0
 16 18  1  0
 18 19  2  0
 18 24  1  0
 19 20  1  0
 19 22  1  0
 20 21  1  0
 22 23  1  0
 23 24  1  0
M  END
