
     RDKit          3D

 26 28  0  0  0  0  0  0  0  0999 V2000
   -0.7070   -1.9120    2.0740 C   0  0  0  0  0  0  0  0  0  0  0  0
   -1.3980   -0.8450    1.2140 C   0  0  2  0  0  0  0  0  0  0  0  0
   -0.8110    0.4800    1.5890 C   0  0  0  0  0  0  0  0  0  0  0  0
    0.6190    0.5590    1.3670 N   0  0  0  0  0  0  0  0  0  0  0  0
    1.2360    0.3950    0.1040 C   0  0  0  0  0  0  0  0  0  0  0  0
    0.4320    0.1660   -0.8610 O   0  0  0  0  0  0  0  0  0  0  0  0
    2.6730    0.4740   -0.1250 C   0  0  0  0  0  0  0  0  0  0  0  0
    3.5940    0.7160    0.8630 C   0  0  0  0  0  0  0  0  0  0  0  0
    4.9490    0.7780    0.5820 C   0  0  0  0  0  0  0  0  0  0  0  0
    5.4250    0.6000   -0.6980 C   0  0  0  0  0  0  0  0  0  0  0  0
    7.1240    0.6720   -1.0920 S   0  0  2  0  0  0  0  0  0  0  0  0
    7.7790   -0.9330   -0.9380 N   0  0  0  0  0  0  0  0  0  0  0  0
    7.8800    1.5470   -0.1340 O   0  0  0  0  0  0  0  0  0  0  0  0
    7.3430    1.2040   -2.4800 O   0  0  0  0  0  0  0  0  0  0  0  0
    4.5040    0.3560   -1.6970 C   0  0  0  0  0  0  0  0  0  0  0  0
    3.1450    0.2950   -1.4060 C   0  0  0  0  0  0  0  0  0  0  0  0
   -2.8600   -0.8950    1.5920 C   0  0  0  0  0  0  0  0  0  0  0  0
   -3.6490    0.0610    0.8590 N   0  0  0  0  0  0  0  0  0  0  0  0
   -3.8890    1.3190    1.2580 C   0  0  0  0  0  0  0  0  0  0  0  0
   -4.6760    1.8880    0.2800 C   0  0  0  0  0  0  0  0  0  0  0  0
   -4.9040    0.9500   -0.7140 C   0  0  0  0  0  0  0  0  0  0  0  0
   -5.6120    1.0130   -1.8840 C   0  0  0  0  0  0  0  0  0  0  0  0
   -5.6670   -0.0980   -2.6920 C   0  0  0  0  0  0  0  0  0  0  0  0
   -5.0110   -1.2440   -2.3090 C   0  0  0  0  0  0  0  0  0  0  0  0
   -4.2960   -1.3270   -1.1400 C   0  0  0  0  0  0  0  0  0  0  0  0
   -4.2430   -0.1990   -0.3240 C   0  0  0  0  0  0  0  0  0  0  0  0
  2  1  1  1
  2  3  1  0
  2 17  1  0
  3  4  1  0
  4  5  1  0
  5  6  2  0
  5  7  1  0
  7  8  2  0
  7 16  1  0
  8  9  1  0
  9 10  2  0
 10 11  1  0
 10 15  1  0
 11 12  1  6
 11 13  2  0
 11 14  2  0
 15 16  2  0
 17 18  1  0
 18 19  1  0
 18 26  1  0
 19 20  2  0
 20 21  1  0
 21 22  2  0
 21 26  1  0
 22 23  1  0
 23 24  2  0
 24 25  1  0
 25 26  2  0
M  END
