
     RDKit          3D

 16 16  0  0  0  0  0  0  0  0999 V2000
   -0.6690    2.9720   -1.5810 O   0  0  0  0  0  0  0  0  0  0  0  0
    0.0020    2.4380   -0.6490 C   0  0  0  0  0  0  0  0  0  0  0  0
   -0.8000    1.4180    0.0810 C   0  0  0  0  0  0  0  0  0  0  0  0
   -1.3280    0.4490   -0.7450 O   0  0  0  0  0  0  0  0  0  0  0  0
   -2.4180   -0.1090   -0.1160 C   0  0  0  0  0  0  0  0  0  0  0  0
   -1.9590   -1.2140    0.8310 C   0  0  1  0  0  0  0  0  0  0  0  0
   -3.0800   -1.8830    1.3440 O   0  0  0  0  0  0  0  0  0  0  0  0
   -1.1450   -2.1810   -0.0050 C   0  0  0  0  0  0  0  0  0  0  0  0
   -0.2170   -1.4530   -0.7280 O   0  0  0  0  0  0  0  0  0  0  0  0
    1.0440   -1.4640   -0.1290 C   0  0  0  0  0  0  0  0  0  0  0  0
    1.8520   -0.3100   -0.6950 C   0  0  2  0  0  0  0  0  0  0  0  0
    3.0700   -0.7840   -1.2320 O   0  0  0  0  0  0  0  0  0  0  0  0
    2.2000    0.5770    0.4410 C   0  0  0  0  0  0  0  0  0  0  0  0
    2.4900    0.0110    1.5290 O   0  0  0  0  0  0  0  0  0  0  0  0
    2.2310    1.9900    0.3970 N   0  0  0  0  0  0  0  0  0  0  0  0
    1.3380    2.7680   -0.3450 N   0  0  0  0  0  0  0  0  0  0  0  0
  1  2  2  0
  2  3  1  0
  2 16  1  0
  3  4  1  0
  4  5  1  0
  5  6  1  0
  6  7  1  6
  6  8  1  0
  8  9  1  0
  9 10  1  0
 10 11  1  0
 11 12  1  1
 11 13  1  0
 13 14  2  0
 13 15  1  0
 15 16  1  0
M  END
