
     RDKit          3D

 11 11  0  0  0  0  0  0  0  0999 V2000
   -2.8130   -0.8180   -0.3690 C   0  0  0  0  0  0  0  0  0  0  0  0
   -1.6770   -0.1710   -0.0940 C   0  0  0  0  0  0  0  0  0  0  0  0
   -0.3790   -0.7610   -0.3570 C   0  0  0  0  0  0  0  0  0  0  0  0
    0.7330   -0.1090   -0.0800 C   0  0  0  0  0  0  0  0  0  0  0  0
    2.0590   -0.7070   -0.3470 C   0  0  0  0  0  0  0  0  0  0  0  0
    2.1730   -1.8460   -0.8420 O   0  0  0  0  0  0  0  0  0  0  0  0
    3.2230   -0.0130   -0.0520 O   0  0  0  0  0  0  0  0  0  0  0  0
    0.6980    1.1990    0.4880 N   0  0  0  0  0  0  0  0  0  0  0  0
   -0.5530    1.8230    0.7660 C   0  0  0  0  0  0  0  0  0  0  0  0
   -0.5800    2.9810    1.2680 O   0  0  0  0  0  0  0  0  0  0  0  0
   -1.6970    1.1030    0.4590 O   0  0  0  0  0  0  0  0  0  0  0  0
  1  2  2  0
  2  3  1  0
  2 11  1  0
  3  4  2  0
  4  5  1  0
  4  8  1  0
  5  6  2  0
  5  7  1  0
  8  9  1  0
  9 10  2  0
  9 11  1  0
M  END
