
     RDKit          3D

 26 28  0  0  0  0  0  0  0  0999 V2000
   -1.7570   -0.9290   -1.3490 C   0  0  0  0  0  0  0  0  0  0  0  0
   -1.5450   -1.8010   -0.1290 C   0  0  1  0  0  0  0  0  0  0  0  0
   -0.2860   -2.5640   -0.1540 C   0  0  0  0  0  0  0  0  0  0  0  0
    0.9240   -1.8420   -0.2220 N   0  0  0  0  0  0  0  0  0  0  0  0
    1.5140   -0.9740    0.7180 C   0  0  0  0  0  0  0  0  0  0  0  0
    0.9080   -0.8070    1.8000 O   0  0  0  0  0  0  0  0  0  0  0  0
    2.7720   -0.2740    0.4950 C   0  0  0  0  0  0  0  0  0  0  0  0
    3.4780   -0.3540   -0.6690 C   0  0  0  0  0  0  0  0  0  0  0  0
    4.6790    0.3440   -0.8130 C   0  0  0  0  0  0  0  0  0  0  0  0
    5.1710    1.1200    0.2070 C   0  0  0  0  0  0  0  0  0  0  0  0
    6.6850    1.9860   -0.0040 S   0  0  2  0  0  0  0  0  0  0  0  0
    7.9480    0.9520    0.5200 N   0  0  0  0  0  0  0  0  0  0  0  0
    6.6580    3.2610    0.8100 O   0  0  0  0  0  0  0  0  0  0  0  0
    6.9180    2.3490   -1.4410 O   0  0  0  0  0  0  0  0  0  0  0  0
    4.4710    1.2050    1.3740 C   0  0  0  0  0  0  0  0  0  0  0  0
    3.2810    0.5080    1.5050 C   0  0  0  0  0  0  0  0  0  0  0  0
   -1.9510   -1.0680    1.0940 C   0  0  0  0  0  0  0  0  0  0  0  0
   -3.3960   -0.7670    0.9650 N   0  0  0  0  0  0  0  0  0  0  0  0
   -4.4100   -1.6030    1.3060 C   0  0  0  0  0  0  0  0  0  0  0  0
   -5.6170   -0.9930    1.0250 C   0  0  0  0  0  0  0  0  0  0  0  0
   -5.2800    0.2400    0.5040 C   0  0  0  0  0  0  0  0  0  0  0  0
   -6.0740    1.2720    0.0570 C   0  0  0  0  0  0  0  0  0  0  0  0
   -5.5750    2.4570   -0.4320 C   0  0  0  0  0  0  0  0  0  0  0  0
   -4.2030    2.5850   -0.4630 C   0  0  0  0  0  0  0  0  0  0  0  0
   -3.3790    1.5680   -0.0220 C   0  0  0  0  0  0  0  0  0  0  0  0
   -3.8860    0.3770    0.4690 C   0  0  0  0  0  0  0  0  0  0  0  0
  2  1  1  6
  2  3  1  0
  2 17  1  0
  3  4  1  0
  4  5  1  0
  5  6  2  0
  5  7  1  0
  7  8  2  0
  7 16  1  0
  8  9  1  0
  9 10  2  0
 10 11  1  0
 10 15  1  0
 11 12  1  1
 11 13  2  0
 11 14  2  0
 15 16  2  0
 17 18  1  0
 18 19  1  0
 18 26  1  0
 19 20  2  0
 20 21  1  0
 21 22  2  0
 21 26  1  0
 22 23  1  0
 23 24  2  0
 24 25  1  0
 25 26  2  0
M  END
