
     RDKit          3D

 11 11  0  0  0  0  0  0  0  0999 V2000
   -3.1280    1.1900    0.0640 C   0  0  0  0  0  0  0  0  0  0  0  0
   -1.7920    1.0590    0.5300 O   0  0  0  0  0  0  0  0  0  0  0  0
   -1.0650   -0.0520    0.0830 C   0  0  0  0  0  0  0  0  0  0  0  0
   -1.7170   -1.0570   -0.3330 N   0  0  0  0  0  0  0  0  0  0  0  0
    0.3870   -0.0060    0.1140 C   0  0  0  0  0  0  0  0  0  0  0  0
    1.2510   -0.9300   -0.2560 C   0  0  0  0  0  0  0  0  0  0  0  0
    0.9630   -2.1920   -0.7730 O   0  0  0  0  0  0  0  0  0  0  0  0
    2.6340   -0.4630   -0.0540 C   0  0  0  0  0  0  0  0  0  0  0  0
    3.7120   -1.0920   -0.0760 O   0  0  0  0  0  0  0  0  0  0  0  0
    2.4910    0.9830    0.1950 C   0  0  0  0  0  0  0  0  0  0  0  0
    1.1540    1.0800    0.5640 O   0  0  0  0  0  0  0  0  0  0  0  0
  1  2  1  0
  2  3  1  0
  3  4  2  0
  3  5  1  0
  5  6  2  0
  5 11  1  0
  6  7  1  0
  6  8  1  0
  8  9  2  0
  8 10  1  0
 10 11  1  0
M  END
