
     RDKit          3D

 11 11  0  0  0  0  0  0  0  0999 V2000
   -2.4340   -0.7000   -0.8280 C   0  0  0  0  0  0  0  0  0  0  0  0
   -1.4870    0.2690   -0.2620 C   0  0  0  0  0  0  0  0  0  0  0  0
   -1.9320    1.3840    0.1480 O   0  0  0  0  0  0  0  0  0  0  0  0
   -0.0590    0.0340   -0.1410 C   0  0  0  0  0  0  0  0  0  0  0  0
    0.7580    0.9340    0.3750 C   0  0  0  0  0  0  0  0  0  0  0  0
    0.1840    2.1650    0.8170 N   0  0  0  0  0  0  0  0  0  0  0  0
    2.1220    0.6790    0.4790 O   0  0  0  0  0  0  0  0  0  0  0  0
    2.6070   -0.6440    0.5440 C   0  0  0  0  0  0  0  0  0  0  0  0
    1.9160   -1.3930   -0.4470 O   0  0  0  0  0  0  0  0  0  0  0  0
    0.5370   -1.2250   -0.5900 C   0  0  0  0  0  0  0  0  0  0  0  0
   -0.1990   -2.1120   -1.0880 O   0  0  0  0  0  0  0  0  0  0  0  0
  1  2  1  0
  2  3  2  0
  2  4  1  0
  4  5  2  0
  4 10  1  0
  5  6  1  0
  5  7  1  0
  7  8  1  0
  8  9  1  0
  9 10  1  0
 10 11  2  0
M  END
