
     RDKit          3D

 11 11  0  0  0  0  0  0  0  0999 V2000
    3.5640    0.5400   -0.1680 N   0  0  0  0  0  0  0  0  0  0  0  0
    2.1820    0.1820   -0.4450 C   0  0  0  0  0  0  0  0  0  0  0  0
    1.9100   -0.1300   -1.6240 O   0  0  0  0  0  0  0  0  0  0  0  0
    1.2130    0.1970    0.6020 C   0  0  0  0  0  0  0  0  0  0  0  0
   -0.0320   -0.0950    0.5380 C   0  0  0  0  0  0  0  0  0  0  0  0
   -0.8880   -0.0310    1.6770 O   0  0  0  0  0  0  0  0  0  0  0  0
   -2.2640   -0.2680    1.3340 C   0  0  0  0  0  0  0  0  0  0  0  0
   -2.5720    0.5840    0.2910 O   0  0  0  0  0  0  0  0  0  0  0  0
   -2.0740    0.1200   -0.9220 C   0  0  0  0  0  0  0  0  0  0  0  0
   -0.7280   -0.5230   -0.6660 C   0  0  0  0  0  0  0  0  0  0  0  0
   -0.2360   -1.3700   -1.4330 O   0  0  0  0  0  0  0  0  0  0  0  0
  1  2  1  0
  2  3  2  0
  2  4  1  0
  4  5  2  3
  5  6  1  0
  5 10  1  0
  6  7  1  0
  7  8  1  0
  8  9  1  0
  9 10  1  0
 10 11  2  0
M  END
