
     RDKit          3D

 11 11  0  0  0  0  0  0  0  0999 V2000
   -2.1630    1.6990    0.3110 N   0  0  0  0  0  0  0  0  0  0  0  0
   -1.3520    0.5820   -0.0280 C   0  0  0  0  0  0  0  0  0  0  0  0
   -0.0450    0.7900    0.0840 C   0  0  0  0  0  0  0  0  0  0  0  0
    1.0600   -0.1200   -0.1780 C   0  0  0  0  0  0  0  0  0  0  0  0
    2.4290    0.3920    0.0380 C   0  0  0  0  0  0  0  0  0  0  0  0
    3.4340   -0.3040   -0.1560 O   0  0  0  0  0  0  0  0  0  0  0  0
    2.5450    1.7060    0.4740 O   0  0  0  0  0  0  0  0  0  0  0  0
    0.9450   -1.3710   -0.5930 C   0  0  0  0  0  0  0  0  0  0  0  0
   -0.2330   -2.0870   -0.8700 O   0  0  0  0  0  0  0  0  0  0  0  0
   -1.5350   -1.9210   -0.2880 C   0  0  0  0  0  0  0  0  0  0  0  0
   -2.0010   -0.5970   -0.4370 O   0  0  0  0  0  0  0  0  0  0  0  0
  1  2  1  0
  2  3  2  0
  2 11  1  0
  3  4  1  0
  4  5  1  0
  4  8  2  0
  5  6  2  0
  5  7  1  0
  8  9  1  0
  9 10  1  0
 10 11  1  0
M  END
