
     RDKit          3D

 36 39  0  0  0  0  0  0  0  0999 V2000
    3.1120    2.2840   -0.1060 C   0  0  0  0  0  0  0  0  0  0  0  0
    2.5630    1.1290   -0.9290 C   0  0  1  0  0  0  0  0  0  0  0  0
    2.3410   -0.0180    0.0120 C   0  0  0  0  0  0  0  0  0  0  0  0
    3.5990   -0.3690    0.6180 N   0  0  0  0  0  0  0  0  0  0  0  0
    4.7280   -0.8060   -0.1130 C   0  0  0  0  0  0  0  0  0  0  0  0
    4.6240   -0.8950   -1.3620 O   0  0  0  0  0  0  0  0  0  0  0  0
    5.9670   -1.1450    0.5330 N   0  0  0  0  0  0  0  0  0  0  0  0
    7.1110   -1.5890   -0.2560 C   0  0  0  0  0  0  0  0  0  0  0  0
    8.3450   -1.1290    0.5250 C   0  0  0  0  0  0  0  0  0  0  0  0
    8.4380   -1.7690    1.7370 O   0  0  0  0  0  0  0  0  0  0  0  0
    7.2380   -2.0980    2.3170 C   0  0  0  0  0  0  0  0  0  0  0  0
    6.1550   -1.0690    1.9650 C   0  0  0  0  0  0  0  0  0  0  0  0
    1.3300    1.6070   -1.5340 N   0  0  1  0  0  0  0  0  0  0  0  0
    1.6380    2.9110   -2.0960 C   0  0  0  0  0  0  0  0  0  0  0  0
    0.8560    0.7560   -2.5780 C   0  0  0  0  0  0  0  0  0  0  0  0
   -0.5990    0.4370   -2.5300 C   0  0  2  0  0  0  0  0  0  0  0  0
   -1.5260    1.5920   -2.6010 C   0  0  0  0  0  0  0  0  0  0  0  0
   -2.7370    1.1540   -1.8680 C   0  0  0  0  0  0  0  0  0  0  0  0
   -2.3110   -0.0020   -1.0600 C   0  0  0  0  0  0  0  0  0  0  0  0
   -3.0930   -0.7090   -0.2200 C   0  0  0  0  0  0  0  0  0  0  0  0
   -4.4980   -0.3460   -0.0510 C   0  0  0  0  0  0  0  0  0  0  0  0
   -5.0510    0.6210   -0.6650 N   0  0  0  0  0  0  0  0  0  0  0  0
   -6.3890    0.9440   -0.4860 N   0  0  0  0  0  0  0  0  0  0  0  0
   -7.1530    0.1510    0.4220 C   0  0  0  0  0  0  0  0  0  0  0  0
   -8.4880    0.4340    0.6330 C   0  0  0  0  0  0  0  0  0  0  0  0
   -9.2750   -0.2900    1.4930 C   0  0  0  0  0  0  0  0  0  0  0  0
  -10.5880   -0.0040    1.6940 F   0  0  0  0  0  0  0  0  0  0  0  0
   -8.6810   -1.3380    2.1600 C   0  0  0  0  0  0  0  0  0  0  0  0
   -9.7100   -2.2650    3.2690 Cl  0  0  0  0  0  0  0  0  0  0  0  0
   -7.3360   -1.6710    1.9870 C   0  0  0  0  0  0  0  0  0  0  0  0
   -6.8570   -2.6760    2.6560 C   0  0  0  0  0  0  0  0  0  0  0  0
   -7.7570   -3.3290    3.4940 F   0  0  0  0  0  0  0  0  0  0  0  0
   -5.6150   -3.1570    2.6390 F   0  0  0  0  0  0  0  0  0  0  0  0
   -6.5860   -0.9170    1.1140 C   0  0  0  0  0  0  0  0  0  0  0  0
   -5.3100   -1.1450    0.8780 C   0  0  0  0  0  0  0  0  0  0  0  0
   -0.9720   -0.2240   -1.3230 O   0  0  0  0  0  0  0  0  0  0  0  0
  2  1  1  1
  2  3  1  0
  2 13  1  0
  3  4  1  0
  4  5  1  0
  5  6  2  0
  5  7  1  0
  7  8  1  0
  7 12  1  0
  8  9  1  0
  9 10  1  0
 10 11  1  0
 11 12  1  0
 13 14  1  6
 13 15  1  0
 16 15  1  1
 16 17  1  0
 16 36  1  0
 17 18  1  0
 18 19  1  0
 19 20  2  3
 19 36  1  0
 20 21  1  0
 21 22  2  0
 21 35  1  0
 22 23  1  0
 23 24  1  0
 24 25  2  0
 24 34  1  0
 25 26  1  0
 26 27  1  0
 26 28  2  0
 28 29  1  0
 28 30  1  0
 30 31  2  3
 30 34  1  0
 31 32  1  0
 31 33  1  0
 34 35  2  0
M  CHG  1  13   1
M  END
