
     RDKit          3D

 36 39  0  0  0  0  0  0  0  0999 V2000
   -3.9000   -1.1190   -2.5770 C   0  0  0  0  0  0  0  0  0  0  0  0
   -3.3460   -2.0700   -1.5730 C   0  0  1  0  0  0  0  0  0  0  0  0
   -2.5060   -1.4960   -0.5740 N   0  0  0  0  0  0  0  0  0  0  0  0
   -2.5750   -0.0950   -0.4500 C   0  0  0  0  0  0  0  0  0  0  0  0
   -3.6450    0.4900   -0.7180 O   0  0  0  0  0  0  0  0  0  0  0  0
   -1.4410    0.6980   -0.0190 C   0  0  0  0  0  0  0  0  0  0  0  0
   -1.5520    2.0820    0.1170 C   0  0  0  0  0  0  0  0  0  0  0  0
   -0.4320    2.7560    0.5270 C   0  0  0  0  0  0  0  0  0  0  0  0
   -0.4960    4.2080    0.6840 C   0  0  0  0  0  0  0  0  0  0  0  0
   -1.6130    4.9600    0.4480 C   0  0  0  0  0  0  0  0  0  0  0  0
   -1.5150    6.3370    0.6440 C   0  0  0  0  0  0  0  0  0  0  0  0
   -0.3480    6.9230    1.0580 C   0  0  0  0  0  0  0  0  0  0  0  0
    0.7700    6.1630    1.2940 C   0  0  0  0  0  0  0  0  0  0  0  0
    0.6930    4.8220    1.1080 C   0  0  0  0  0  0  0  0  0  0  0  0
    0.7050    2.0800    0.7770 N   0  0  0  0  0  0  0  0  0  0  0  0
    0.8220    0.7490    0.6490 C   0  0  0  0  0  0  0  0  0  0  0  0
    2.0340    0.0620    0.9200 N   0  0  0  0  0  0  0  0  0  0  0  0
    3.1570    0.8510    1.3810 C   0  0  0  0  0  0  0  0  0  0  0  0
    4.4000    0.4570    0.6010 C   0  0  0  0  0  0  0  0  0  0  0  0
    4.5790   -0.8950    0.7390 O   0  0  0  0  0  0  0  0  0  0  0  0
    3.5810   -1.6400    0.1700 C   0  0  2  0  0  0  0  0  0  0  0  0
    3.5840   -1.5180   -1.3210 C   0  0  0  0  0  0  0  0  0  0  0  0
    4.8190   -1.9560   -1.8720 N   0  0  0  0  0  0  0  0  0  0  0  0
    5.0950   -3.3570   -1.7740 C   0  0  0  0  0  0  0  0  0  0  0  0
    6.6580   -3.7790   -2.5180 Cl  0  0  0  0  0  0  0  0  0  0  0  0
    2.2150   -1.3450    0.7660 C   0  0  1  0  0  0  0  0  0  0  0  0
    2.0830   -2.1370    2.0290 C   0  0  2  0  0  0  0  0  0  0  0  0
    2.2910   -3.4780    1.6760 F   0  0  0  0  0  0  0  0  0  0  0  0
    0.8060   -2.0900    2.5570 F   0  0  0  0  0  0  0  0  0  0  0  0
    3.0530   -1.7770    2.9200 F   0  0  0  0  0  0  0  0  0  0  0  0
   -0.2910    0.1040    0.2450 N   0  0  0  0  0  0  0  0  0  0  0  0
   -4.5010   -2.7750   -0.9210 C   0  0  0  0  0  0  0  0  0  0  0  0
   -5.2980   -2.3000    0.1230 C   0  0  0  0  0  0  0  0  0  0  0  0
   -6.2310   -3.2710    0.4020 C   0  0  0  0  0  0  0  0  0  0  0  0
   -5.9820   -4.3010   -0.4700 C   0  0  0  0  0  0  0  0  0  0  0  0
   -4.9710   -3.9610   -1.2120 O   0  0  0  0  0  0  0  0  0  0  0  0
  2  1  1  6
  2  3  1  0
  2 32  1  0
  3  4  1  0
  4  5  2  0
  4  6  1  0
  6  7  2  0
  6 31  1  0
  7  8  1  0
  8  9  1  0
  8 15  2  0
  9 10  2  0
  9 14  1  0
 10 11  1  0
 11 12  2  0
 12 13  1  0
 13 14  2  0
 15 16  1  0
 16 17  1  0
 16 31  2  0
 17 18  1  0
 26 17  1  1
 18 19  1  0
 19 20  1  0
 20 21  1  0
 21 22  1  6
 21 26  1  0
 22 23  1  0
 23 24  1  0
 24 25  1  0
 26 27  1  0
 27 28  1  6
 27 29  1  0
 27 30  1  0
 32 33  2  0
 32 36  1  0
 33 34  1  0
 34 35  2  0
 35 36  1  0
M  CHG  1   3   1
M  END
