
     RDKit          3D

 36 39  0  0  0  0  0  0  0  0999 V2000
    6.6950    3.3580    1.2590 C   0  0  0  0  0  0  0  0  0  0  0  0
    5.4660    2.5730    1.2270 C   0  0  0  0  0  0  0  0  0  0  0  0
    5.1740    1.7820    0.1960 C   0  0  0  0  0  0  0  0  0  0  0  0
    4.0110    1.0490    0.1860 O   0  0  0  0  0  0  0  0  0  0  0  0
    3.8990   -0.1920   -0.3670 C   0  0  0  0  0  0  0  0  0  0  0  0
    5.0030   -0.7510   -0.9490 N   0  0  0  0  0  0  0  0  0  0  0  0
    5.0030   -1.9570   -1.5190 C   0  0  0  0  0  0  0  0  0  0  0  0
    3.8320   -2.6680   -1.5170 C   0  0  0  0  0  0  0  0  0  0  0  0
    2.6890   -2.1180   -0.9280 C   0  0  0  0  0  0  0  0  0  0  0  0
    2.7050   -0.8590   -0.3380 C   0  0  0  0  0  0  0  0  0  0  0  0
    1.5030   -0.3380    0.2590 C   0  0  0  0  0  0  0  0  0  0  0  0
    0.4680   -1.1040    0.1950 O   0  0  0  0  0  0  0  0  0  0  0  0
    1.2900    0.8840    0.9030 N   0  0  0  0  0  0  0  0  0  0  0  0
    0.0660    1.3590    1.4760 C   0  0  0  0  0  0  0  0  0  0  0  0
    0.1410    2.3980    2.4190 C   0  0  0  0  0  0  0  0  0  0  0  0
   -0.9960    2.9010    2.9790 C   0  0  0  0  0  0  0  0  0  0  0  0
   -2.2110    2.3990    2.6250 C   0  0  0  0  0  0  0  0  0  0  0  0
   -3.6560    3.0510    3.3490 Cl  0  0  0  0  0  0  0  0  0  0  0  0
   -2.3470    1.3720    1.6980 C   0  0  0  0  0  0  0  0  0  0  0  0
   -3.6560    0.9040    1.3820 N   0  0  0  0  0  0  0  0  0  0  0  0
   -4.0120   -0.1290    0.4990 C   0  0  0  0  0  0  0  0  0  0  0  0
   -3.1230   -0.7510   -0.1130 O   0  0  0  0  0  0  0  0  0  0  0  0
   -5.4390   -0.5180    0.2620 C   0  0  1  0  0  0  0  0  0  0  0  0
   -6.2310    0.6400   -0.2980 C   0  0  0  0  0  0  0  0  0  0  0  0
   -7.1290   -0.0770   -1.3120 C   0  0  0  0  0  0  0  0  0  0  0  0
   -6.1310   -1.0930   -1.8790 C   0  0  0  0  0  0  0  0  0  0  0  0
   -5.5090   -1.5970   -0.6770 N   0  0  2  0  0  0  0  0  0  0  0  0
   -6.2630   -2.7370   -0.2170 C   0  0  0  0  0  0  0  0  0  0  0  0
   -1.1820    0.8800    1.1460 C   0  0  0  0  0  0  0  0  0  0  0  0
    4.0280   -3.8300   -2.1230 C   0  0  0  0  0  0  0  0  0  0  0  0
    5.4370   -3.9000   -2.5610 C   0  0  0  0  0  0  0  0  0  0  0  0
    5.9610   -2.6350   -2.1140 N   0  0  0  0  0  0  0  0  0  0  0  0
    6.1130    1.6940   -0.9450 C   0  0  1  0  0  0  0  0  0  0  0  0
    5.4180    1.5380   -2.1540 F   0  0  0  0  0  0  0  0  0  0  0  0
    6.7570    2.9330   -1.1260 F   0  0  0  0  0  0  0  0  0  0  0  0
    7.0570    0.7140   -0.7950 F   0  0  0  0  0  0  0  0  0  0  0  0
  1  2  1  0
  2  3  2  3
  3  4  1  0
  3 33  1  0
  4  5  1  0
  5  6  2  0
  5 10  1  0
  6  7  1  0
  7  8  1  0
  7 32  2  0
  8  9  1  0
  8 30  2  0
  9 10  2  0
 10 11  1  0
 11 12  2  0
 11 13  1  0
 13 14  1  0
 14 15  2  0
 14 29  1  0
 15 16  1  0
 16 17  2  0
 17 18  1  0
 17 19  1  0
 19 20  1  0
 19 29  2  0
 20 21  1  0
 21 22  2  0
 23 21  1  6
 23 24  1  0
 23 27  1  0
 24 25  1  0
 25 26  1  0
 26 27  1  0
 27 28  1  1
 30 31  1  0
 31 32  1  0
 33 34  1  6
 33 35  1  0
 33 36  1  0
M  CHG  1  27   1
M  END
