
     RDKit          3D

 22 22  0  0  0  0  0  0  0  0999 V2000
   -1.6740    3.1250   -0.6680 C   0  0  0  0  0  0  0  0  0  0  0  0
   -1.6410    1.7100   -0.6450 O   0  0  0  0  0  0  0  0  0  0  0  0
   -0.7450    0.9930    0.1280 C   0  0  0  0  0  0  0  0  0  0  0  0
    0.0670    1.6370    0.8340 O   0  0  0  0  0  0  0  0  0  0  0  0
   -0.7140   -0.4660    0.1490 C   0  0  2  0  0  0  0  0  0  0  0  0
   -1.6840   -0.9930   -0.6930 O   0  0  0  0  0  0  0  0  0  0  0  0
   -3.2460   -0.4650   -0.1800 P   0  0  0  0  0  0  0  0  0  0  0  0
   -4.1160    0.0320   -1.6120 O   0  0  0  0  0  0  0  0  0  0  0  0
   -4.0910   -1.7660    0.6140 O   0  0  0  0  0  0  0  0  0  0  0  0
   -1.0080   -0.9610    1.5500 C   0  0  0  0  0  0  0  0  0  0  0  0
   -1.1050   -2.3890    1.5160 N   0  0  0  0  0  0  0  0  0  0  0  0
   -0.3860   -3.0250    0.4620 C   0  0  0  0  0  0  0  0  0  0  0  0
    0.7650   -2.2930   -0.0230 N   0  0  0  0  0  0  0  0  0  0  0  0
    0.6330   -1.0190   -0.1880 C   0  0  0  0  0  0  0  0  0  0  0  0
    1.6710   -0.2240   -0.6480 O   0  0  0  0  0  0  0  0  0  0  0  0
    2.9030   -0.7820   -0.9480 C   0  0  0  0  0  0  0  0  0  0  0  0
    3.0370   -2.0210   -0.7880 O   0  0  0  0  0  0  0  0  0  0  0  0
    4.0580    0.0430   -1.4500 C   0  0  0  0  0  0  0  0  0  0  0  0
    3.6970    1.3900   -1.5550 O   0  0  0  0  0  0  0  0  0  0  0  0
    3.2720    2.1280   -0.4630 C   0  0  0  0  0  0  0  0  0  0  0  0
    3.2120    1.5660    0.6470 O   0  0  0  0  0  0  0  0  0  0  0  0
    2.9210    3.4740   -0.6130 O   0  0  0  0  0  0  0  0  0  0  0  0
  1  2  1  0
  2  3  1  0
  3  4  2  0
  3  5  1  0
  5  6  1  6
  5 10  1  0
  5 14  1  0
  6  7  1  0
  7  8  1  0
  7  9  1  0
 10 11  1  0
 11 12  1  0
 12 13  1  0
 13 14  2  0
 14 15  1  0
 15 16  1  0
 16 17  2  0
 16 18  1  0
 18 19  1  0
 19 20  1  0
 20 21  2  0
 20 22  1  0
M  END
