
     RDKit          3D

 21 22  0  0  0  0  0  0  0  0999 V2000
    4.8890    1.4330    2.3930 O   0  0  0  0  0  0  0  0  0  0  0  0
    4.3490    1.2980    1.2790 C   0  0  0  0  0  0  0  0  0  0  0  0
    4.9690    1.1130   -0.0670 C   0  0  0  0  0  0  0  0  0  0  0  0
    3.9860    0.2120   -0.6900 N   0  0  0  0  0  0  0  0  0  0  0  0
    2.7560    0.7910   -0.2540 C   0  0  1  0  0  0  0  0  0  0  0  0
    1.6080   -0.1440   -0.3300 C   0  0  0  0  0  0  0  0  0  0  0  0
    1.7530   -1.3160   -0.7440 O   0  0  0  0  0  0  0  0  0  0  0  0
    0.3090    0.2710    0.0660 N   0  0  0  0  0  0  0  0  0  0  0  0
   -0.8650   -0.5740    0.0240 C   0  0  1  0  0  0  0  0  0  0  0  0
   -2.0440    0.2700    0.5390 C   0  0  0  0  0  0  0  0  0  0  0  0
   -2.1460    1.3580   -0.3270 O   0  0  0  0  0  0  0  0  0  0  0  0
   -3.4430    2.3760    0.1590 P   0  0  0  0  0  0  0  0  0  0  0  0
   -4.6770    2.3220   -1.0510 O   0  0  0  0  0  0  0  0  0  0  0  0
   -4.0480    1.8700    1.6870 O   0  0  0  0  0  0  0  0  0  0  0  0
   -1.1400   -1.0370   -1.2430 O   0  0  0  0  0  0  0  0  0  0  0  0
   -1.3130   -2.3950   -1.3370 C   0  0  0  0  0  0  0  0  0  0  0  0
   -2.3690   -2.8630   -0.3500 C   0  0  0  0  0  0  0  0  0  0  0  0
   -1.7810   -2.6470    0.9450 O   0  0  0  0  0  0  0  0  0  0  0  0
   -0.7690   -1.7060    0.9770 C   0  0  0  0  0  0  0  0  0  0  0  0
    0.1830   -1.8140    1.7790 O   0  0  0  0  0  0  0  0  0  0  0  0
    2.9680    1.2920    1.0460 O   0  0  0  0  0  0  0  0  0  0  0  0
  1  2  2  0
  2  3  1  0
  2 21  1  0
  3  4  1  0
  4  5  1  0
  5  6  1  1
  5 21  1  0
  6  7  2  0
  6  8  1  0
  8  9  1  0
  9 10  1  1
  9 15  1  0
  9 19  1  0
 10 11  1  0
 11 12  1  0
 12 13  1  0
 12 14  1  0
 15 16  1  0
 16 17  1  0
 17 18  1  0
 18 19  1  0
 19 20  2  0
M  END
