
     RDKit          3D

 11 10  0  0  0  0  0  0  0  0999 V2000
    2.9350    1.2650   -0.9550 O   0  0  0  0  0  0  0  0  0  0  0  0
    2.7170    0.3080   -0.1840 C   0  0  0  0  0  0  0  0  0  0  0  0
    3.6760   -0.6620   -0.0100 O   0  0  0  0  0  0  0  0  0  0  0  0
    1.4370    0.2270    0.5310 C   0  0  2  0  0  0  0  0  0  0  0  0
    1.4140   -0.9220    1.3340 O   0  0  0  0  0  0  0  0  0  0  0  0
    0.2970    0.1670   -0.4180 C   0  0  0  0  0  0  0  0  0  0  0  0
   -0.8510    0.1140    0.3810 O   0  0  0  0  0  0  0  0  0  0  0  0
   -2.2220    0.0430   -0.2780 P   0  0  0  0  0  0  0  0  0  0  0  0
   -3.0810   -0.0130    1.1040 O   0  0  0  0  0  0  0  0  0  0  0  0
   -1.9910    1.4810   -1.0490 O   0  0  0  0  0  0  0  0  0  0  0  0
   -1.7310   -1.3490   -1.0600 O   0  0  0  0  0  0  0  0  0  0  0  0
  1  2  2  0
  2  3  1  0
  2  4  1  0
  4  5  1  6
  4  6  1  0
  6  7  1  0
  7  8  1  0
  8  9  1  0
  8 10  1  0
  8 11  1  0
M  END
