
     RDKit          3D

 21 21  0  0  0  0  0  0  0  0999 V2000
   -2.5830    2.0780    0.8110 C   0  0  0  0  0  0  0  0  0  0  0  0
   -2.5720    0.7180    1.0520 O   0  0  0  0  0  0  0  0  0  0  0  0
   -2.8820   -0.0800    0.0050 C   0  0  1  0  0  0  0  0  0  0  0  0
   -1.9220   -0.1960   -1.1250 C   0  0  0  0  0  0  0  0  0  0  0  0
   -0.6470   -0.7900   -0.8560 N   0  0  0  0  0  0  0  0  0  0  0  0
    0.3520   -0.3550    0.0380 C   0  0  0  0  0  0  0  0  0  0  0  0
    0.1500    0.6690    0.6930 O   0  0  0  0  0  0  0  0  0  0  0  0
    1.5880   -1.0530    0.2140 N   0  0  0  0  0  0  0  0  0  0  0  0
    2.6280   -0.6450    1.0950 C   0  0  0  0  0  0  0  0  0  0  0  0
    3.2660    0.6700    0.8390 C   0  0  2  0  0  0  0  0  0  0  0  0
    2.4410    1.7580    0.8910 O   0  0  0  0  0  0  0  0  0  0  0  0
    4.2660    0.6710   -0.7380 P   0  0  0  0  0  0  0  0  0  0  0  0
    5.6950    1.6250   -0.5400 O   0  0  0  0  0  0  0  0  0  0  0  0
    4.7380   -0.9400   -1.1760 O   0  0  0  0  0  0  0  0  0  0  0  0
   -2.8100   -1.4230    0.6030 O   0  0  0  0  0  0  0  0  0  0  0  0
   -3.2700   -2.5180   -0.0690 C   0  0  0  0  0  0  0  0  0  0  0  0
   -2.7700   -3.6680    0.1630 O   0  0  0  0  0  0  0  0  0  0  0  0
   -4.2810   -2.3420   -0.9970 O   0  0  0  0  0  0  0  0  0  0  0  0
   -4.7600   -1.0930   -1.1890 O   0  0  0  0  0  0  0  0  0  0  0  0
   -4.2720   -0.0010   -0.4900 C   0  0  0  0  0  0  0  0  0  0  0  0
   -5.0340    0.9930   -0.3160 O   0  0  0  0  0  0  0  0  0  0  0  0
  1  2  1  0
  2  3  1  0
  3  4  1  6
  3 15  1  0
  3 20  1  0
  4  5  1  0
  5  6  1  0
  6  7  2  0
  6  8  1  0
  8  9  1  0
  9 10  1  0
 10 11  1  6
 10 12  1  0
 12 13  1  0
 12 14  1  0
 15 16  1  0
 16 17  2  0
 16 18  1  0
 18 19  1  0
 19 20  1  0
 20 21  2  0
M  END
