
     RDKit          3D

 22 23  0  0  0  0  0  0  0  0999 V2000
   -7.9010    0.3500    0.2490 O   0  0  0  0  0  0  0  0  0  0  0  0
   -6.6350    0.4760    0.3090 C   0  0  0  0  0  0  0  0  0  0  0  0
   -5.6630   -0.2520   -0.4020 N   0  0  0  0  0  0  0  0  0  0  0  0
   -4.3770    0.3250   -0.0760 C   0  0  2  0  0  0  0  0  0  0  0  0
   -3.4430   -0.6390    0.2760 O   0  0  0  0  0  0  0  0  0  0  0  0
   -2.3460   -0.5230   -0.5280 C   0  0  2  0  0  0  0  0  0  0  0  0
   -2.1280   -1.7940   -1.1520 O   0  0  0  0  0  0  0  0  0  0  0  0
   -0.7480   -1.9500   -1.2010 C   0  0  0  0  0  0  0  0  0  0  0  0
   -0.1610   -3.0020   -1.5530 O   0  0  0  0  0  0  0  0  0  0  0  0
   -0.2120   -0.6460   -0.7620 C   0  0  2  0  0  0  0  0  0  0  0  0
    1.1530   -0.7360   -0.2060 C   0  0  0  0  0  0  0  0  0  0  0  0
    1.2820   -0.4710    1.0120 O   0  0  0  0  0  0  0  0  0  0  0  0
    2.2060   -1.1070   -1.0650 N   0  0  0  0  0  0  0  0  0  0  0  0
    3.5530   -1.2040   -0.5620 C   0  0  0  0  0  0  0  0  0  0  0  0
    3.9990    0.1430   -0.0290 C   0  0  0  0  0  0  0  0  0  0  0  0
    5.3210   -0.0650    0.4330 O   0  0  0  0  0  0  0  0  0  0  0  0
    5.8730    1.4500    1.0520 P   0  0  0  0  0  0  0  0  0  0  0  0
    5.6520    2.7370   -0.0660 O   0  0  0  0  0  0  0  0  0  0  0  0
    7.5090    1.2960    1.5460 O   0  0  0  0  0  0  0  0  0  0  0  0
   -1.1610   -0.2700    0.1880 O   0  0  0  0  0  0  0  0  0  0  0  0
   -4.6450    1.1810    1.1420 C   0  0  0  0  0  0  0  0  0  0  0  0
   -6.0270    1.4000    1.1270 O   0  0  0  0  0  0  0  0  0  0  0  0
  1  2  2  0
  2  3  1  0
  2 22  1  0
  3  4  1  0
  4  5  1  1
  4 21  1  0
  6  5  1  1
  6  7  1  0
  6 20  1  0
  7  8  1  0
  8  9  2  0
  8 10  1  0
 10 11  1  1
 10 20  1  0
 11 12  2  0
 11 13  1  0
 13 14  1  0
 14 15  1  0
 15 16  1  0
 16 17  1  0
 17 18  1  0
 17 19  1  0
 21 22  1  0
M  END
