
     RDKit          3D

 13 12  0  0  0  0  0  0  0  0999 V2000
    4.2580    0.4000   -0.9690 C   0  0  0  0  0  0  0  0  0  0  0  0
    3.2450   -0.1680   -0.1420 O   0  0  0  0  0  0  0  0  0  0  0  0
    1.8980   -0.0120   -0.4140 C   0  0  0  0  0  0  0  0  0  0  0  0
    1.6320    0.6760   -1.4570 O   0  0  0  0  0  0  0  0  0  0  0  0
    0.8460   -0.6030    0.4440 C   0  0  0  0  0  0  0  0  0  0  0  0
   -0.4840   -0.2980   -0.0030 N   0  0  0  0  0  0  0  0  0  0  0  0
   -1.4340   -0.9520    0.8810 C   0  0  0  0  0  0  0  0  0  0  0  0
   -1.4040   -2.4500    0.7490 C   0  0  0  0  0  0  0  0  0  0  0  0
   -1.7080   -2.8920   -0.5260 O   0  0  0  0  0  0  0  0  0  0  0  0
   -0.7920    1.1350    0.1510 C   0  0  0  0  0  0  0  0  0  0  0  0
   -2.5140    1.4540   -0.4490 P   0  0  0  0  0  0  0  0  0  0  0  0
   -2.4480    2.5360   -1.8100 O   0  0  0  0  0  0  0  0  0  0  0  0
   -3.5160    2.1380    0.7880 O   0  0  0  0  0  0  0  0  0  0  0  0
  1  2  1  0
  2  3  1  0
  3  4  2  0
  3  5  1  0
  5  6  1  0
  6  7  1  0
  6 10  1  0
  7  8  1  0
  8  9  1  0
 10 11  1  0
 11 12  1  0
 11 13  1  0
M  END
