
     RDKit          3D

 13 12  0  0  0  0  0  0  0  0999 V2000
   -1.3990   -3.8800    0.4260 C   0  0  0  0  0  0  0  0  0  0  0  0
   -1.5450   -2.6720   -0.4400 C   0  0  0  0  0  0  0  0  0  0  0  0
   -0.7650   -1.6260    0.0400 O   0  0  0  0  0  0  0  0  0  0  0  0
   -0.8850   -0.5350   -0.7270 O   0  0  0  0  0  0  0  0  0  0  0  0
   -0.1340    0.5880   -0.3670 C   0  0  0  0  0  0  0  0  0  0  0  0
   -0.7540    1.6050    0.4400 C   0  0  0  0  0  0  0  0  0  0  0  0
   -1.9870    1.4510    0.8080 N   0  0  0  0  0  0  0  0  0  0  0  0
   -2.6630    2.3520    1.5700 O   0  0  0  0  0  0  0  0  0  0  0  0
   -3.8480    2.8010    1.1380 O   0  0  0  0  0  0  0  0  0  0  0  0
    1.1160    0.6620   -0.7870 C   0  0  0  0  0  0  0  0  0  0  0  0
    2.0540    1.7530   -0.5150 C   0  0  0  0  0  0  0  0  0  0  0  0
    3.5140    1.0030    0.4020 P   0  0  0  0  0  0  0  0  0  0  0  0
    5.0090    1.7030   -0.1650 O   0  0  0  0  0  0  0  0  0  0  0  0
  1  2  1  0
  2  3  1  0
  3  4  1  0
  4  5  1  0
  5  6  1  0
  5 10  2  3
  6  7  2  3
  7  8  1  0
  8  9  1  0
 10 11  1  0
 11 12  1  0
 12 13  1  0
M  END
