
     RDKit          3D

 13 12  0  0  0  0  0  0  0  0999 V2000
    4.6960    1.6040    0.2900 C   0  0  0  0  0  0  0  0  0  0  0  0
    3.4680    1.2340   -0.2850 O   0  0  0  0  0  0  0  0  0  0  0  0
    2.6610    0.2080    0.2170 C   0  0  0  0  0  0  0  0  0  0  0  0
    3.0650   -0.4010    1.2250 O   0  0  0  0  0  0  0  0  0  0  0  0
    1.3550   -0.1060   -0.4770 C   0  0  0  0  0  0  0  0  0  0  0  0
    0.6380   -1.2060    0.2560 C   0  0  2  0  0  0  0  0  0  0  0  0
    1.4460   -2.3560    0.2640 O   0  0  0  0  0  0  0  0  0  0  0  0
   -0.6870   -1.4830   -0.1770 N   0  0  0  0  0  0  0  0  0  0  0  0
   -1.5350   -0.3580    0.0200 C   0  0  0  0  0  0  0  0  0  0  0  0
   -2.9930   -0.6370   -0.3000 C   0  0  0  0  0  0  0  0  0  0  0  0
   -3.9820    0.9230    0.0020 P   0  0  0  0  0  0  0  0  0  0  0  0
   -3.6760    1.4310    1.6270 O   0  0  0  0  0  0  0  0  0  0  0  0
   -5.6640    0.6430   -0.1900 O   0  0  0  0  0  0  0  0  0  0  0  0
  1  2  1  0
  2  3  1  0
  3  4  2  0
  3  5  1  0
  5  6  1  0
  6  7  1  6
  6  8  1  0
  8  9  1  0
  9 10  1  0
 10 11  1  0
 11 12  1  0
 11 13  1  0
M  END
