
     RDKit          3D

 12 11  0  0  0  0  0  0  0  0999 V2000
   -3.1780    0.6210   -1.2350 C   0  0  0  0  0  0  0  0  0  0  0  0
   -3.0690   -0.0440    0.1220 C   0  0  0  0  0  0  0  0  0  0  0  0
   -1.7050   -0.7340    0.2430 C   0  0  0  0  0  0  0  0  0  0  0  0
   -0.6500    0.2140    0.1060 N   0  0  0  0  0  0  0  0  0  0  0  0
    0.6530   -0.3360    0.0710 C   0  0  2  0  0  0  0  0  0  0  0  0
    1.0290   -1.0510    1.3250 C   0  0  0  0  0  0  0  0  0  0  0  0
    0.2390   -2.1390    1.6190 O   0  0  0  0  0  0  0  0  0  0  0  0
    1.6140    0.8400   -0.0100 C   0  0  0  0  0  0  0  0  0  0  0  0
    1.2340    1.9820   -0.0380 O   0  0  0  0  0  0  0  0  0  0  0  0
    3.3870    0.3870   -0.0610 P   0  0  0  0  0  0  0  0  0  0  0  0
    4.0770    0.7010   -1.5990 O   0  0  0  0  0  0  0  0  0  0  0  0
    4.1870    1.2770    1.2120 O   0  0  0  0  0  0  0  0  0  0  0  0
  1  2  1  0
  2  3  1  0
  3  4  1  0
  4  5  1  0
  5  6  1  1
  5  8  1  0
  6  7  1  0
  8  9  2  0
  8 10  1  0
 10 11  1  0
 10 12  1  0
M  END
