
     RDKit          3D

 13 12  0  0  0  0  0  0  0  0999 V2000
    3.7920    0.9630   -0.3450 C   0  0  0  0  0  0  0  0  0  0  0  0
    2.7420    0.0480   -0.5500 O   0  0  0  0  0  0  0  0  0  0  0  0
    2.0440   -0.5070    0.5060 C   0  0  0  0  0  0  0  0  0  0  0  0
    2.4010   -0.1520    1.6810 O   0  0  0  0  0  0  0  0  0  0  0  0
    0.9540   -1.4500    0.3700 C   0  0  0  0  0  0  0  0  0  0  0  0
   -0.3780   -0.9980    0.2810 N   0  0  0  0  0  0  0  0  0  0  0  0
   -1.2470   -2.1430    0.1680 C   0  0  0  0  0  0  0  0  0  0  0  0
   -0.7500    0.1620   -0.3390 C   0  0  2  0  0  0  0  0  0  0  0  0
   -0.2660    1.4210    0.3300 C   0  0  0  0  0  0  0  0  0  0  0  0
   -0.7310    2.5510   -0.4080 O   0  0  0  0  0  0  0  0  0  0  0  0
   -2.5250    0.4170   -0.7170 P   0  0  0  0  0  0  0  0  0  0  0  0
   -3.5120   -0.9520   -0.7570 O   0  0  0  0  0  0  0  0  0  0  0  0
   -3.2140    1.7640    0.0950 O   0  0  0  0  0  0  0  0  0  0  0  0
  1  2  1  0
  2  3  1  0
  3  4  2  0
  3  5  1  0
  5  6  1  0
  6  7  1  0
  6  8  1  0
  8  9  1  1
  8 11  1  0
  9 10  1  0
 11 12  1  0
 11 13  1  0
M  END
