
     RDKit          3D

 15 15  0  0  0  0  0  0  0  0999 V2000
    0.2260   -1.5820    0.4720 N   0  0  0  0  0  0  0  0  0  0  0  0
   -0.2430   -0.3240   -0.0490 C   0  0  1  0  0  0  0  0  0  0  0  0
    0.1960   -0.2480   -1.4920 C   0  0  0  0  0  0  0  0  0  0  0  0
    1.6890   -0.3270   -1.5400 C   0  0  1  0  0  0  0  0  0  0  0  0
    2.0700   -0.2550   -2.8880 O   0  0  0  0  0  0  0  0  0  0  0  0
    2.2460    0.7210   -0.8490 O   0  0  0  0  0  0  0  0  0  0  0  0
    3.0810    0.3330    0.1910 C   0  0  2  0  0  0  0  0  0  0  0  0
    2.7250    0.9590    1.3630 O   0  0  0  0  0  0  0  0  0  0  0  0
    4.3700    0.7720   -0.1640 O   0  0  0  0  0  0  0  0  0  0  0  0
   -1.7550   -0.2990    0.0650 C   0  0  1  0  0  0  0  0  0  0  0  0
   -2.3050   -1.3320   -0.6550 O   0  0  0  0  0  0  0  0  0  0  0  0
   -2.1970   -0.3170    1.5080 C   0  0  0  0  0  0  0  0  0  0  0  0
   -2.8470    1.0430    1.6490 C   0  0  0  0  0  0  0  0  0  0  0  0
   -3.4290    1.1940    0.3730 O   0  0  0  0  0  0  0  0  0  0  0  0
   -2.3280    1.0010   -0.4560 C   0  0  0  0  0  0  0  0  0  0  0  0
  2  1  1  6
  2  3  1  0
  2 10  1  0
  3  4  1  0
  4  5  1  6
  4  6  1  0
  6  7  1  0
  7  8  1  1
  7  9  1  0
 10 11  1  6
 10 12  1  0
 10 15  1  0
 12 13  1  0
 13 14  1  0
 14 15  1  0
M  END
