
     RDKit          3D

 43 48  0  0  0  0  0  0  0  0999 V2000
    0.4840   -3.8770   -0.4580 C   0  0  0  0  0  0  0  0  0  0  0  0
    1.7760   -3.2190   -0.6880 C   0  0  0  0  0  0  0  0  0  0  0  0
    2.1160   -1.9410   -0.0250 C   0  0  1  0  0  0  0  0  0  0  0  0
    1.2180   -0.7700   -0.3310 C   0  0  0  0  0  0  0  0  0  0  0  0
   -0.1460   -0.9480    0.0860 N   0  0  0  0  0  0  0  0  0  0  0  0
   -1.1370    0.0800   -0.1660 C   0  0  0  0  0  0  0  0  0  0  0  0
   -0.6630    1.1040   -0.7750 O   0  0  0  0  0  0  0  0  0  0  0  0
   -2.4850   -0.0400    0.2220 N   0  0  0  0  0  0  0  0  0  0  0  0
   -2.8990   -1.2840    0.8650 C   0  0  0  0  0  0  0  0  0  0  0  0
   -3.2500   -2.3510   -0.0640 C   0  0  0  0  0  0  0  0  0  0  0  0
   -3.8820   -3.4890    0.3850 C   0  0  0  0  0  0  0  0  0  0  0  0
   -4.2180   -4.5270   -0.4890 C   0  0  0  0  0  0  0  0  0  0  0  0
   -3.9090   -4.4020   -1.8240 C   0  0  0  0  0  0  0  0  0  0  0  0
   -3.2970   -3.2960   -2.2490 N   0  0  0  0  0  0  0  0  0  0  0  0
   -2.9630   -2.2750   -1.4090 C   0  0  0  0  0  0  0  0  0  0  0  0
   -3.4130    1.0480    0.0420 C   0  0  2  0  0  0  0  0  0  0  0  0
   -3.5150    1.5970   -1.3220 C   0  0  0  0  0  0  0  0  0  0  0  0
   -4.4640    2.6870   -1.4820 N   0  0  0  0  0  0  0  0  0  0  0  0
   -4.1170    3.9670   -1.3010 C   0  0  0  0  0  0  0  0  0  0  0  0
   -5.2020    4.7830   -1.5320 C   0  0  0  0  0  0  0  0  0  0  0  0
   -6.2390    3.9450   -1.8640 C   0  0  0  0  0  0  0  0  0  0  0  0
   -5.7450    2.6670   -1.8220 C   0  0  0  0  0  0  0  0  0  0  0  0
   -3.3120    2.1230    1.0640 C   0  0  0  0  0  0  0  0  0  0  0  0
   -4.5040    2.7510    1.4480 C   0  0  0  0  0  0  0  0  0  0  0  0
   -4.5320    3.7520    2.4020 C   0  0  0  0  0  0  0  0  0  0  0  0
   -3.3750    4.1660    3.0120 C   0  0  0  0  0  0  0  0  0  0  0  0
   -2.2410    3.5630    2.6430 N   0  0  0  0  0  0  0  0  0  0  0  0
   -2.1910    2.5680    1.6970 C   0  0  0  0  0  0  0  0  0  0  0  0
    2.1280   -2.0600    1.4890 C   0  0  0  0  0  0  0  0  0  0  0  0
    3.3630   -2.7770    1.9850 C   0  0  0  0  0  0  0  0  0  0  0  0
    4.4810   -1.8520    1.7130 C   0  0  0  0  0  0  0  0  0  0  0  0
    5.4100   -1.7270    2.5140 O   0  0  0  0  0  0  0  0  0  0  0  0
    4.4240   -1.1330    0.5000 N   0  0  0  0  0  0  0  0  0  0  0  0
    5.2930   -0.0020    0.2600 C   0  0  0  0  0  0  0  0  0  0  0  0
    4.7490    1.1700   -0.2040 C   0  0  0  0  0  0  0  0  0  0  0  0
    5.5820    2.2650   -0.4470 C   0  0  0  0  0  0  0  0  0  0  0  0
    6.9420    2.2010   -0.2320 C   0  0  0  0  0  0  0  0  0  0  0  0
    7.4840    1.0220    0.2350 C   0  0  0  0  0  0  0  0  0  0  0  0
    6.6430   -0.0630    0.4730 C   0  0  0  0  0  0  0  0  0  0  0  0
    8.8510    1.2220    0.3650 O   0  0  0  0  0  0  0  0  0  0  0  0
    9.1520    2.5990    0.2280 C   0  0  0  0  0  0  0  0  0  0  0  0
    7.9860    3.1160   -0.3860 O   0  0  0  0  0  0  0  0  0  0  0  0
    3.4950   -1.5460   -0.5070 C   0  0  0  0  0  0  0  0  0  0  0  0
  1  2  1  0
  3  2  1  6
  3  4  1  0
  3 29  1  0
  3 43  1  0
  4  5  1  0
  5  6  1  0
  6  7  2  0
  6  8  1  0
  8  9  1  0
  8 16  1  0
  9 10  1  0
 10 11  2  0
 10 15  1  0
 11 12  1  0
 12 13  2  0
 13 14  1  0
 14 15  2  0
 16 17  1  6
 16 23  1  0
 17 18  1  0
 18 19  1  0
 18 22  1  0
 19 20  2  0
 20 21  1  0
 21 22  2  0
 23 24  2  0
 23 28  1  0
 24 25  1  0
 25 26  2  0
 26 27  1  0
 27 28  2  0
 29 30  1  0
 30 31  1  0
 31 32  2  0
 31 33  1  0
 33 34  1  0
 33 43  1  0
 34 35  2  0
 34 39  1  0
 35 36  1  0
 36 37  2  0
 37 38  1  0
 37 42  1  0
 38 39  2  0
 38 40  1  0
 40 41  1  0
 41 42  1  0
M  END
