
     RDKit          3D

 43 48  0  0  0  0  0  0  0  0999 V2000
    4.5440    2.1370    4.4040 C   0  0  0  0  0  0  0  0  0  0  0  0
    3.6110    1.2650    3.5950 C   0  0  0  0  0  0  0  0  0  0  0  0
    3.9650    1.5210    2.1660 N   0  0  0  0  0  0  0  0  0  0  0  0
    3.3080    2.5500    1.4620 C   0  0  0  0  0  0  0  0  0  0  0  0
    2.0660    2.1380    0.7750 C   0  0  0  0  0  0  0  0  0  0  0  0
    0.8050    2.1110    1.2490 N   0  0  0  0  0  0  0  0  0  0  0  0
   -0.0160    1.6660    0.2880 C   0  0  0  0  0  0  0  0  0  0  0  0
   -1.4550    1.4620    0.3310 C   0  0  0  0  0  0  0  0  0  0  0  0
   -2.1840    1.7450    1.4470 C   0  0  0  0  0  0  0  0  0  0  0  0
   -3.5710    1.5290    1.4820 C   0  0  0  0  0  0  0  0  0  0  0  0
   -4.2040    1.0160    0.3520 C   0  0  0  0  0  0  0  0  0  0  0  0
   -5.6630    0.7990    0.4340 C   0  0  0  0  0  0  0  0  0  0  0  0
   -6.2940    1.3210    1.3730 O   0  0  0  0  0  0  0  0  0  0  0  0
   -6.3570    0.0270   -0.5080 N   0  0  0  0  0  0  0  0  0  0  0  0
   -7.7930   -0.2260   -0.4850 C   0  0  2  0  0  0  0  0  0  0  0  0
   -8.1560   -1.6320   -0.4380 C   0  0  0  0  0  0  0  0  0  0  0  0
   -7.9030   -2.5090    0.6260 C   0  0  0  0  0  0  0  0  0  0  0  0
   -7.2510   -2.1480    1.9050 C   0  0  0  0  0  0  0  0  0  0  0  0
   -8.3750   -3.7010    0.2630 N   0  0  0  0  0  0  0  0  0  0  0  0
   -8.8910   -3.6370   -0.9170 O   0  0  0  0  0  0  0  0  0  0  0  0
   -8.7830   -2.4050   -1.3820 C   0  0  0  0  0  0  0  0  0  0  0  0
   -9.2880   -2.0180   -2.7190 C   0  0  0  0  0  0  0  0  0  0  0  0
   -8.3980    0.5780   -1.6050 C   0  0  2  0  0  0  0  0  0  0  0  0
   -8.2360    2.0990   -1.5190 C   0  0  0  0  0  0  0  0  0  0  0  0
   -9.5660    1.4150   -1.3420 C   0  0  0  0  0  0  0  0  0  0  0  0
   -3.4750    0.7320   -0.7660 C   0  0  0  0  0  0  0  0  0  0  0  0
   -2.0930    0.9570   -0.7750 C   0  0  0  0  0  0  0  0  0  0  0  0
    0.7880    1.4240   -0.7830 N   0  0  0  0  0  0  0  0  0  0  0  0
    2.0010    1.7170   -0.4480 O   0  0  0  0  0  0  0  0  0  0  0  0
    4.9430    0.6760    1.6450 C   0  0  0  0  0  0  0  0  0  0  0  0
    5.3590   -0.1910    2.5610 O   0  0  0  0  0  0  0  0  0  0  0  0
    5.5620    0.5730    0.3510 C   0  0  0  0  0  0  0  0  0  0  0  0
    5.3140    1.3350   -0.7410 C   0  0  0  0  0  0  0  0  0  0  0  0
    6.0060    1.1210   -1.9400 C   0  0  0  0  0  0  0  0  0  0  0  0
    6.9570    0.1370   -2.0640 C   0  0  0  0  0  0  0  0  0  0  0  0
    7.6870   -0.0580   -3.3470 C   0  0  0  0  0  0  0  0  0  0  0  0
    7.2300   -0.6530   -0.9770 C   0  0  0  0  0  0  0  0  0  0  0  0
    8.2360   -1.7290   -1.0280 C   0  0  0  0  0  0  0  0  0  0  0  0
    8.9190   -2.0050   -2.0570 N   0  0  0  0  0  0  0  0  0  0  0  0
    9.8390   -3.0930   -1.8730 C   0  0  0  0  0  0  0  0  0  0  0  0
    9.5930   -3.5760   -0.4830 C   0  0  0  0  0  0  0  0  0  0  0  0
    8.5780   -2.6280    0.0850 C   0  0  0  0  0  0  0  0  0  0  0  0
    6.5380   -0.4310    0.2090 C   0  0  0  0  0  0  0  0  0  0  0  0
  1  2  1  0
  2  3  1  0
  3  4  1  0
  3 30  1  0
  4  5  1  0
  5  6  2  0
  5 29  1  0
  6  7  1  0
  7  8  1  0
  7 28  2  0
  8  9  2  0
  8 27  1  0
  9 10  1  0
 10 11  2  0
 11 12  1  0
 11 26  1  0
 12 13  2  0
 12 14  1  0
 15 14  1  6
 15 16  1  0
 15 23  1  0
 16 17  1  0
 16 21  2  0
 17 18  1  0
 17 19  2  0
 19 20  1  0
 20 21  1  0
 21 22  1  0
 23 24  1  1
 23 25  1  0
 24 25  1  0
 26 27  2  0
 28 29  1  0
 30 31  2  0
 30 32  1  0
 32 33  2  0
 32 43  1  0
 33 34  1  0
 34 35  2  0
 35 36  1  0
 35 37  1  0
 37 38  1  0
 37 43  2  0
 38 39  2  0
 38 42  1  0
 39 40  1  0
 40 41  1  0
 41 42  1  0
M  END
