
     RDKit          3D

 43 48  0  0  0  0  0  0  0  0999 V2000
    7.7220   -0.8420    0.3280 C   0  0  0  0  0  0  0  0  0  0  0  0
    8.3590    0.5130    0.1180 C   0  0  0  0  0  0  0  0  0  0  0  0
    7.4870    1.3090   -0.8080 C   0  0  2  0  0  0  0  0  0  0  0  0
    8.0420    2.6920   -1.0920 C   0  0  0  0  0  0  0  0  0  0  0  0
    8.2020    3.5330    0.1300 C   0  0  0  0  0  0  0  0  0  0  0  0
    6.1240    1.4170   -0.2520 C   0  0  0  0  0  0  0  0  0  0  0  0
    4.9750    0.8310   -0.7280 C   0  0  0  0  0  0  0  0  0  0  0  0
    3.9240    1.2390    0.0930 C   0  0  0  0  0  0  0  0  0  0  0  0
    2.5690    0.8340   -0.1080 N   0  0  0  0  0  0  0  0  0  0  0  0
    1.7390    1.4540   -1.1120 C   0  0  0  0  0  0  0  0  0  0  0  0
    0.4580    0.7150   -1.3970 C   0  0  0  0  0  0  0  0  0  0  0  0
    0.6460   -0.7960   -1.1800 C   0  0  2  0  0  0  0  0  0  0  0  0
   -0.4020   -1.6200   -1.7260 C   0  0  0  0  0  0  0  0  0  0  0  0
    0.0020   -2.4190   -2.6740 O   0  0  0  0  0  0  0  0  0  0  0  0
   -1.7580   -1.7390   -1.4450 N   0  0  0  0  0  0  0  0  0  0  0  0
   -2.4430   -0.9160   -0.4960 C   0  0  0  0  0  0  0  0  0  0  0  0
   -3.0870    0.2530   -1.2240 C   0  0  0  0  0  0  0  0  0  0  0  0
   -3.8210    1.1370   -0.3500 N   0  0  0  0  0  0  0  0  0  0  0  0
   -3.3330    2.2860    0.3050 C   0  0  0  0  0  0  0  0  0  0  0  0
   -2.1680    2.7860    0.2650 O   0  0  0  0  0  0  0  0  0  0  0  0
   -4.3650    2.8940    1.0910 N   0  0  0  0  0  0  0  0  0  0  0  0
   -4.2160    4.1080    1.9100 C   0  0  0  0  0  0  0  0  0  0  0  0
   -5.5550    2.1260    0.9460 C   0  0  1  0  0  0  0  0  0  0  0  0
   -6.0510    1.5660    2.2610 C   0  0  0  0  0  0  0  0  0  0  0  0
   -7.5210    1.3570    1.9580 C   0  0  0  0  0  0  0  0  0  0  0  0
   -7.9020    2.6300    1.2710 C   0  0  0  0  0  0  0  0  0  0  0  0
   -6.7040    2.9640    0.4250 C   0  0  0  0  0  0  0  0  0  0  0  0
   -5.1980    1.0340    0.0440 C   0  0  0  0  0  0  0  0  0  0  0  0
   -5.9830    0.1130   -0.3450 O   0  0  0  0  0  0  0  0  0  0  0  0
   -2.5830   -2.7080   -2.1220 C   0  0  0  0  0  0  0  0  0  0  0  0
   -2.6780   -4.0310   -1.4680 C   0  0  2  0  0  0  0  0  0  0  0  0
   -1.4160   -4.8400   -1.4200 C   0  0  0  0  0  0  0  0  0  0  0  0
   -1.9840   -6.2370   -1.0980 C   0  0  0  0  0  0  0  0  0  0  0  0
   -3.3170   -6.1620   -1.7680 C   0  0  0  0  0  0  0  0  0  0  0  0
   -3.5080   -4.8710   -2.1980 O   0  0  0  0  0  0  0  0  0  0  0  0
    1.0640   -1.0130    0.2040 C   0  0  0  0  0  0  0  0  0  0  0  0
    0.5460   -1.9930    0.9970 C   0  0  0  0  0  0  0  0  0  0  0  0
    0.9860   -2.1730    2.3190 C   0  0  0  0  0  0  0  0  0  0  0  0
    1.9710   -1.3300    2.8210 C   0  0  0  0  0  0  0  0  0  0  0  0
    2.4930   -0.3430    2.0250 C   0  0  0  0  0  0  0  0  0  0  0  0
    2.0360   -0.1820    0.7050 C   0  0  0  0  0  0  0  0  0  0  0  0
    4.4710    2.0400    1.0190 N   0  0  0  0  0  0  0  0  0  0  0  0
    5.7740    2.1470    0.8150 N   0  0  0  0  0  0  0  0  0  0  0  0
  1  2  1  0
  3  2  1  1
  3  4  1  0
  3  6  1  0
  4  5  1  0
  6  7  1  0
  6 43  2  0
  7  8  2  0
  8  9  1  0
  8 42  1  0
  9 10  1  0
  9 41  1  0
 10 11  1  0
 11 12  1  0
 12 13  1  1
 12 36  1  0
 13 14  2  0
 13 15  1  0
 15 16  1  0
 15 30  1  0
 16 17  1  0
 17 18  1  0
 18 19  1  0
 18 28  1  0
 19 20  2  0
 19 21  1  0
 21 22  1  0
 21 23  1  0
 23 24  1  1
 23 27  1  0
 23 28  1  0
 24 25  1  0
 25 26  1  0
 26 27  1  0
 28 29  2  0
 31 30  1  6
 31 32  1  0
 31 35  1  0
 32 33  1  0
 33 34  1  0
 34 35  1  0
 36 37  2  0
 36 41  1  0
 37 38  1  0
 38 39  2  0
 39 40  1  0
 40 41  2  0
 42 43  1  0
M  END
