
     RDKit          3D

 34 34  0  0  0  0  0  0  0  0999 V2000
   -3.6110    2.2810    3.2750 O   0  0  0  0  0  0  0  0  0  0  0  0
   -3.4190    1.9630    2.0510 C   0  0  0  0  0  0  0  0  0  0  0  0
   -4.5520    1.6250    1.3400 O   0  0  0  0  0  0  0  0  0  0  0  0
   -2.0580    1.9680    1.4640 C   0  0  0  0  0  0  0  0  0  0  0  0
   -2.1030    1.6100    0.1000 N   0  0  0  0  0  0  0  0  0  0  0  0
   -2.6800    2.4840   -0.8290 C   0  0  0  0  0  0  0  0  0  0  0  0
   -1.9630    3.7330   -1.0840 C   0  0  0  0  0  0  0  0  0  0  0  0
   -2.4630    4.5690   -1.8780 O   0  0  0  0  0  0  0  0  0  0  0  0
   -0.7590    4.0360   -0.4930 O   0  0  0  0  0  0  0  0  0  0  0  0
   -1.1890    0.6170   -0.3520 C   0  0  0  0  0  0  0  0  0  0  0  0
   -1.5870   -0.6850    0.2650 C   0  0  2  0  0  0  0  0  0  0  0  0
   -0.7390   -1.8300   -0.1150 C   0  0  0  0  0  0  0  0  0  0  0  0
    0.6800   -1.6830    0.2210 C   0  0  0  0  0  0  0  0  0  0  0  0
    1.2030   -2.0560    1.4540 C   0  0  0  0  0  0  0  0  0  0  0  0
    2.5350   -1.9380    1.7390 C   0  0  0  0  0  0  0  0  0  0  0  0
    3.4450   -1.4360    0.7990 C   0  0  0  0  0  0  0  0  0  0  0  0
    4.8290   -1.4010    1.1430 N   0  0  0  0  0  0  0  0  0  0  0  0
    5.6890   -0.3720    0.8170 C   0  0  0  0  0  0  0  0  0  0  0  0
    7.2740   -0.5450    1.2950 S   0  0  0  0  0  0  0  0  0  0  0  0
    5.3480    0.8000    0.1370 N   0  0  0  0  0  0  0  0  0  0  0  0
    6.3930    1.7980   -0.1560 C   0  0  0  0  0  0  0  0  0  0  0  0
    7.3780    1.3290   -1.1750 C   0  0  0  0  0  0  0  0  0  0  0  0
    6.7600    1.0340   -2.3990 O   0  0  0  0  0  0  0  0  0  0  0  0
    2.9350   -1.0690   -0.4180 C   0  0  0  0  0  0  0  0  0  0  0  0
    1.5650   -1.1940   -0.6930 C   0  0  0  0  0  0  0  0  0  0  0  0
   -3.0400   -0.9370   -0.0130 N   0  0  0  0  0  0  0  0  0  0  0  0
   -3.1540   -1.1320   -1.4670 C   0  0  0  0  0  0  0  0  0  0  0  0
   -4.5350   -0.9600   -1.9000 C   0  0  0  0  0  0  0  0  0  0  0  0
   -5.0310   -1.6280   -2.8720 O   0  0  0  0  0  0  0  0  0  0  0  0
   -5.3790   -0.0620   -1.2940 O   0  0  0  0  0  0  0  0  0  0  0  0
   -3.2780   -2.2840    0.5360 C   0  0  0  0  0  0  0  0  0  0  0  0
   -4.6650   -2.6360    0.7900 C   0  0  0  0  0  0  0  0  0  0  0  0
   -5.5930   -1.8330    0.9580 O   0  0  0  0  0  0  0  0  0  0  0  0
   -5.0010   -4.0050    0.8540 O   0  0  0  0  0  0  0  0  0  0  0  0
  1  2  2  0
  2  3  1  0
  2  4  1  0
  4  5  1  0
  5  6  1  0
  5 10  1  0
  6  7  1  0
  7  8  2  0
  7  9  1  0
 11 10  1  6
 11 12  1  0
 11 26  1  0
 12 13  1  0
 13 14  2  0
 13 25  1  0
 14 15  1  0
 15 16  2  0
 16 17  1  0
 16 24  1  0
 17 18  1  0
 18 19  2  0
 18 20  1  0
 20 21  1  0
 21 22  1  0
 22 23  1  0
 24 25  2  0
 26 27  1  0
 26 31  1  0
 27 28  1  0
 28 29  2  0
 28 30  1  0
 31 32  1  0
 32 33  2  0
 32 34  1  0
M  END
