
     RDKit          3D

 25 27  0  0  0  0  0  0  0  0999 V2000
    0.9780   -1.0640    1.8720 O   0  0  0  0  0  0  0  0  0  0  0  0
    1.6840   -0.3460    1.0920 C   0  0  0  0  0  0  0  0  0  0  0  0
    3.0990   -0.3140    1.0090 N   0  0  0  0  0  0  0  0  0  0  0  0
    3.4840    0.6320   -0.0010 C   0  0  1  0  0  0  0  0  0  0  0  0
    4.2170    0.0150   -1.1580 C   0  0  0  0  0  0  0  0  0  0  0  0
    4.5290    1.0300   -2.0550 O   0  0  0  0  0  0  0  0  0  0  0  0
    5.1790    0.5250   -3.0940 O   0  0  0  0  0  0  0  0  0  0  0  0
    6.4440    0.9220   -2.9760 O   0  0  0  0  0  0  0  0  0  0  0  0
    2.1880    1.1700   -0.5230 C   0  0  0  0  0  0  0  0  0  0  0  0
    2.1360    2.0410   -1.4380 O   0  0  0  0  0  0  0  0  0  0  0  0
    1.1120    0.5530    0.1650 N   0  0  0  0  0  0  0  0  0  0  0  0
   -0.2540    0.8250   -0.0740 C   0  0  0  0  0  0  0  0  0  0  0  0
   -0.6220    1.6590   -0.9390 O   0  0  0  0  0  0  0  0  0  0  0  0
   -1.2140    0.1730    0.6470 O   0  0  0  0  0  0  0  0  0  0  0  0
   -2.5860    0.3290    0.5300 C   0  0  2  0  0  0  0  0  0  0  0  0
   -3.1920    0.7370    1.8420 C   0  0  0  0  0  0  0  0  0  0  0  0
   -4.5970    0.8840    1.5690 O   0  0  0  0  0  0  0  0  0  0  0  0
   -5.2370   -0.2630    1.1450 C   0  0  0  0  0  0  0  0  0  0  0  0
   -6.4330   -0.4420    1.4380 O   0  0  0  0  0  0  0  0  0  0  0  0
   -4.4920   -1.2580    0.3470 N   0  0  0  0  0  0  0  0  0  0  0  0
   -3.2730   -0.9600    0.1050 C   0  0  0  0  0  0  0  0  0  0  0  0
   -2.5350   -1.9480   -0.6540 N   0  0  0  0  0  0  0  0  0  0  0  0
   -3.8010   -3.2410   -0.9210 S   0  0  0  0  0  0  0  0  0  0  0  0
   -5.0460   -2.3880   -0.0670 C   0  0  0  0  0  0  0  0  0  0  0  0
   -6.2330   -2.8210    0.0920 O   0  0  0  0  0  0  0  0  0  0  0  0
  1  2  2  0
  2  3  1  0
  2 11  1  0
  3  4  1  0
  4  5  1  6
  4  9  1  0
  5  6  1  0
  6  7  1  0
  7  8  1  0
  9 10  2  0
  9 11  1  0
 11 12  1  0
 12 13  2  0
 12 14  1  0
 15 14  1  1
 15 16  1  0
 15 21  1  0
 16 17  1  0
 17 18  1  0
 18 19  2  0
 18 20  1  0
 20 21  1  0
 20 24  1  0
 21 22  2  0
 22 23  1  0
 23 24  1  0
 24 25  2  0
M  END
