
     RDKit          3D

 26 28  0  0  0  0  0  0  0  0999 V2000
    3.8720    2.5230   -0.4140 C   0  0  0  0  0  0  0  0  0  0  0  0
    3.7300    1.0390   -0.1230 C   0  0  2  0  0  0  0  0  0  0  0  0
    2.7940    0.9370    1.0070 N   0  0  0  0  0  0  0  0  0  0  0  0
    1.5540    0.2640    0.9000 C   0  0  0  0  0  0  0  0  0  0  0  0
    1.2720   -0.2530   -0.2090 O   0  0  0  0  0  0  0  0  0  0  0  0
    0.6590    0.1810    2.0220 N   0  0  0  0  0  0  0  0  0  0  0  0
   -0.5730   -0.5230    1.8120 C   0  0  0  0  0  0  0  0  0  0  0  0
   -1.3990    0.0860    0.7400 C   0  0  0  0  0  0  0  0  0  0  0  0
   -0.9780    1.1080    0.1400 O   0  0  0  0  0  0  0  0  0  0  0  0
   -2.6350   -0.4950    0.4200 N   0  0  0  0  0  0  0  0  0  0  0  0
   -3.0910   -1.6680    1.1240 C   0  0  0  0  0  0  0  0  0  0  0  0
   -3.8770   -2.5680    0.1930 C   0  0  0  0  0  0  0  0  0  0  0  0
   -5.1170   -1.8190   -0.2350 C   0  0  0  0  0  0  0  0  0  0  0  0
   -4.6770   -0.5760   -0.9350 C   0  0  0  0  0  0  0  0  0  0  0  0
   -5.2880    0.1100   -1.9160 N   0  0  0  0  0  0  0  0  0  0  0  0
   -4.5070    1.1610   -2.2220 C   0  0  0  0  0  0  0  0  0  0  0  0
   -4.8170    2.1530   -3.2410 C   0  0  0  0  0  0  0  0  0  0  0  0
   -5.0630    2.9520   -4.0370 N   0  0  0  0  0  0  0  0  0  0  0  0
   -3.3790    1.1460   -1.4240 C   0  0  0  0  0  0  0  0  0  0  0  0
   -3.4660    0.0450   -0.5940 C   0  0  0  0  0  0  0  0  0  0  0  0
    5.0270    0.4170    0.2450 C   0  0  0  0  0  0  0  0  0  0  0  0
    5.7620   -0.4370   -0.5480 C   0  0  0  0  0  0  0  0  0  0  0  0
    6.9000   -0.7990    0.1410 C   0  0  0  0  0  0  0  0  0  0  0  0
    6.8100   -0.1370    1.3510 C   0  0  0  0  0  0  0  0  0  0  0  0
    8.0070   -0.2310    2.6480 Cl  0  0  0  0  0  0  0  0  0  0  0  0
    5.6990    0.5580    1.3590 O   0  0  0  0  0  0  0  0  0  0  0  0
  2  1  1  1
  2  3  1  0
  2 21  1  0
  3  4  1  0
  4  5  2  0
  4  6  1  0
  6  7  1  0
  7  8  1  0
  8  9  2  0
  8 10  1  0
 10 11  1  0
 10 20  1  0
 11 12  1  0
 12 13  1  0
 13 14  1  0
 14 15  1  0
 14 20  2  0
 15 16  1  0
 16 17  1  0
 16 19  2  0
 17 18  3  0
 19 20  1  0
 21 22  2  0
 21 26  1  0
 22 23  1  0
 23 24  2  0
 24 25  1  0
 24 26  1  0
M  END
