
     RDKit          3D

 26 28  0  0  0  0  0  0  0  0999 V2000
   -3.5760   -0.0190   -1.4060 C   0  0  0  0  0  0  0  0  0  0  0  0
   -3.0370    0.0120    0.0130 C   0  0  1  0  0  0  0  0  0  0  0  0
   -3.9180   -0.7120    0.8900 N   0  0  0  0  0  0  0  0  0  0  0  0
   -5.2450   -0.2610    1.0800 C   0  0  0  0  0  0  0  0  0  0  0  0
   -5.8540    0.8410    0.5550 C   0  0  0  0  0  0  0  0  0  0  0  0
   -7.1440    0.8630    1.0360 C   0  0  0  0  0  0  0  0  0  0  0  0
   -7.3250   -0.1930    1.8320 N   0  0  0  0  0  0  0  0  0  0  0  0
   -6.1920   -0.9030    1.8860 C   0  0  0  0  0  0  0  0  0  0  0  0
   -5.8830   -2.3830    2.7870 Cl  0  0  0  0  0  0  0  0  0  0  0  0
   -1.6760   -0.6080    0.0150 C   0  0  0  0  0  0  0  0  0  0  0  0
   -1.5430   -1.6570    0.7260 O   0  0  0  0  0  0  0  0  0  0  0  0
   -0.6000   -0.0710   -0.7200 N   0  0  0  0  0  0  0  0  0  0  0  0
   -0.5740    1.1000   -1.5570 C   0  0  0  0  0  0  0  0  0  0  0  0
    0.4570    0.6910   -2.6200 C   0  0  0  0  0  0  0  0  0  0  0  0
    1.5220    0.0500   -1.7800 C   0  0  1  0  0  0  0  0  0  0  0  0
    2.2340   -0.8530   -2.5840 O   0  0  0  0  0  0  0  0  0  0  0  0
    2.4540    1.0550   -1.1370 C   0  0  0  0  0  0  0  0  0  0  0  0
    3.4520    0.3020   -0.3420 C   0  0  0  0  0  0  0  0  0  0  0  0
    3.4200   -0.9490   -0.2970 O   0  0  0  0  0  0  0  0  0  0  0  0
    4.4860    0.9490    0.4000 N   0  0  0  0  0  0  0  0  0  0  0  0
    5.4480    0.2100    1.1660 C   0  0  0  0  0  0  0  0  0  0  0  0
    6.7560    0.2470    0.9670 C   0  0  0  0  0  0  0  0  0  0  0  0
    7.4460   -0.6410    1.9430 C   0  0  0  0  0  0  0  0  0  0  0  0
    6.2830   -1.1740    2.7140 C   0  0  0  0  0  0  0  0  0  0  0  0
    5.1980   -0.6640    2.2360 N   0  0  0  0  0  0  0  0  0  0  0  0
    0.7370   -0.6850   -0.7260 C   0  0  0  0  0  0  0  0  0  0  0  0
  2  1  1  6
  2  3  1  0
  2 10  1  0
  3  4  1  0
  4  5  1  0
  4  8  2  0
  5  6  2  0
  6  7  1  0
  7  8  1  0
  8  9  1  0
 10 11  2  0
 10 12  1  0
 12 13  1  0
 12 26  1  0
 13 14  1  0
 14 15  1  0
 15 16  1  6
 15 17  1  0
 15 26  1  0
 17 18  1  0
 18 19  2  0
 18 20  1  0
 20 21  1  0
 21 22  2  0
 21 25  1  0
 22 23  1  0
 23 24  1  0
 24 25  2  0
M  END
