
     RDKit          3D

 26 27  0  0  0  0  0  0  0  0999 V2000
    4.7590    5.0000    0.4120 C   0  0  0  0  0  0  0  0  0  0  0  0
    3.4510    4.2810    0.6630 C   0  0  0  0  0  0  0  0  0  0  0  0
    3.5500    2.9650    0.0690 N   0  0  0  0  0  0  0  0  0  0  0  0
    2.4160    2.0880    0.1810 C   0  0  0  0  0  0  0  0  0  0  0  0
    1.4100    2.5350    0.7930 O   0  0  0  0  0  0  0  0  0  0  0  0
    2.4320    0.7580   -0.3850 C   0  0  0  0  0  0  0  0  0  0  0  0
    1.4040   -0.0570   -0.2890 C   0  0  0  0  0  0  0  0  0  0  0  0
    1.5030   -1.3380   -0.8710 N   0  0  0  0  0  0  0  0  0  0  0  0
    2.0620   -2.3480   -0.3430 C   0  0  0  0  0  0  0  0  0  0  0  0
    2.7030   -2.3620    0.9660 C   0  0  0  0  0  0  0  0  0  0  0  0
    3.2670   -3.4800    1.4390 C   0  0  0  0  0  0  0  0  0  0  0  0
    3.2840   -4.7210    0.7130 C   0  0  0  0  0  0  0  0  0  0  0  0
    2.7140   -4.7760   -0.4900 C   0  0  0  0  0  0  0  0  0  0  0  0
    2.0700   -3.6020   -1.0920 C   0  0  0  0  0  0  0  0  0  0  0  0
    1.5330   -3.7110   -2.2610 N   0  0  0  0  0  0  0  0  0  0  0  0
    0.7680   -2.3270   -2.9840 Cl  0  0  0  0  0  0  0  0  0  0  0  0
    0.2450    0.3760    0.3960 N   0  0  0  0  0  0  0  0  0  0  0  0
   -1.0340    0.4830   -0.2440 C   0  0  0  0  0  0  0  0  0  0  0  0
   -1.1180    0.1800   -1.4490 O   0  0  0  0  0  0  0  0  0  0  0  0
   -2.1900    0.9150    0.4400 N   0  0  0  0  0  0  0  0  0  0  0  0
   -3.4810    1.0320   -0.1650 C   0  0  0  0  0  0  0  0  0  0  0  0
   -3.9750   -0.2880   -0.7020 C   0  0  2  0  0  0  0  0  0  0  0  0
   -5.3770   -0.1230   -1.2520 C   0  0  0  0  0  0  0  0  0  0  0  0
   -6.2090   -0.9370   -0.2880 C   0  0  0  0  0  0  0  0  0  0  0  0
   -5.3100   -1.0330    0.9180 C   0  0  0  0  0  0  0  0  0  0  0  0
   -4.0620   -1.2000    0.3320 O   0  0  0  0  0  0  0  0  0  0  0  0
  1  2  1  0
  2  3  1  0
  3  4  1  0
  4  5  2  0
  4  6  1  0
  6  7  2  3
  7  8  1  0
  7 17  1  0
  8  9  2  3
  9 10  1  0
  9 14  1  0
 10 11  2  0
 11 12  1  0
 12 13  2  0
 13 14  1  0
 14 15  2  3
 15 16  1  0
 17 18  1  0
 18 19  2  0
 18 20  1  0
 20 21  1  0
 22 21  1  1
 22 23  1  0
 22 26  1  0
 23 24  1  0
 24 25  1  0
 25 26  1  0
M  END
