
     RDKit          3D

 26 28  0  0  0  0  0  0  0  0999 V2000
   -7.2130   -0.4200    0.2990 C   0  0  0  0  0  0  0  0  0  0  0  0
   -6.0290   -0.9850    0.2450 C   0  0  0  0  0  0  0  0  0  0  0  0
   -5.6930   -2.3200    0.5350 O   0  0  0  0  0  0  0  0  0  0  0  0
   -4.3620   -2.5840    0.1300 C   0  0  0  0  0  0  0  0  0  0  0  0
   -3.9490   -1.4240   -0.7120 C   0  0  2  0  0  0  0  0  0  0  0  0
   -2.5480   -1.1150   -0.6370 N   0  0  0  0  0  0  0  0  0  0  0  0
   -1.7930   -1.0470   -1.8320 C   0  0  0  0  0  0  0  0  0  0  0  0
   -2.4170   -1.2700   -2.9270 O   0  0  0  0  0  0  0  0  0  0  0  0
   -0.3640   -0.7470   -1.9540 C   0  0  0  0  0  0  0  0  0  0  0  0
    0.3270   -0.5000   -0.7290 N   0  0  0  0  0  0  0  0  0  0  0  0
    1.7280   -0.1970   -0.7370 C   0  0  0  0  0  0  0  0  0  0  0  0
    2.2830   -0.1660   -1.8640 O   0  0  0  0  0  0  0  0  0  0  0  0
    2.4360    0.0520    0.4570 N   0  0  0  0  0  0  0  0  0  0  0  0
    3.8370    0.3560    0.4570 C   0  0  0  0  0  0  0  0  0  0  0  0
    4.6990    0.4570   -0.6100 C   0  0  0  0  0  0  0  0  0  0  0  0
    5.9550    0.7680   -0.1320 C   0  0  0  0  0  0  0  0  0  0  0  0
    7.1900    0.9890   -0.7090 C   0  0  0  0  0  0  0  0  0  0  0  0
    8.2850    1.2880    0.0580 C   0  0  0  0  0  0  0  0  0  0  0  0
    8.1330    1.3640    1.4250 C   0  0  0  0  0  0  0  0  0  0  0  0
    9.5680    1.7530    2.4000 Cl  0  0  0  0  0  0  0  0  0  0  0  0
    6.9550    1.1540    1.9950 N   0  0  0  0  0  0  0  0  0  0  0  0
    5.8640    0.8570    1.2310 C   0  0  0  0  0  0  0  0  0  0  0  0
    4.5840    0.6060    1.5570 N   0  0  0  0  0  0  0  0  0  0  0  0
   -4.7900   -0.3170   -0.1380 C   0  0  0  0  0  0  0  0  0  0  0  0
   -4.4510    0.9360   -0.0240 C   0  0  0  0  0  0  0  0  0  0  0  0
   -5.2780    1.9970    0.5420 C   0  0  0  0  0  0  0  0  0  0  0  0
  1  2  2  0
  2  3  1  0
  2 24  1  0
  3  4  1  0
  4  5  1  0
  5  6  1  1
  5 24  1  0
  6  7  1  0
  7  8  2  0
  7  9  1  0
  9 10  1  0
 10 11  1  0
 11 12  2  0
 11 13  1  0
 13 14  1  0
 14 15  2  0
 14 23  1  0
 15 16  1  0
 16 17  2  0
 16 22  1  0
 17 18  1  0
 18 19  2  0
 19 20  1  0
 19 21  1  0
 21 22  2  0
 22 23  1  0
 24 25  2  3
 25 26  1  0
M  END
