
     RDKit          3D

 26 27  0  0  0  0  0  0  0  0999 V2000
   -2.9220   -4.0470   -0.5870 C   0  0  0  0  0  0  0  0  0  0  0  0
   -3.9810   -3.2650    0.0760 C   0  0  0  0  0  0  0  0  0  0  0  0
   -3.9790   -1.9760    0.2100 C   0  0  0  0  0  0  0  0  0  0  0  0
   -2.9670   -1.0620   -0.2500 C   0  0  0  0  0  0  0  0  0  0  0  0
   -1.5630   -1.6890   -1.0860 Cl  0  0  0  0  0  0  0  0  0  0  0  0
   -3.0600    0.2430   -0.0610 C   0  0  0  0  0  0  0  0  0  0  0  0
   -4.1230    0.8910    0.5910 N   0  0  0  0  0  0  0  0  0  0  0  0
   -4.3800    2.2750    0.3030 C   0  0  0  0  0  0  0  0  0  0  0  0
   -3.1440    3.1270    0.3840 C   0  0  0  0  0  0  0  0  0  0  0  0
   -1.9300    2.5510   -0.2510 C   0  0  0  0  0  0  0  0  0  0  0  0
   -1.9880    1.1170   -0.5630 C   0  0  0  0  0  0  0  0  0  0  0  0
   -1.0760    0.5940   -1.3000 N   0  0  0  0  0  0  0  0  0  0  0  0
   -0.0340    1.4170   -1.7940 C   0  0  0  0  0  0  0  0  0  0  0  0
   -0.0840    2.2020   -2.8970 N   0  0  0  0  0  0  0  0  0  0  0  0
    1.0620    2.8250   -3.0560 N   0  0  0  0  0  0  0  0  0  0  0  0
    1.8880    2.4490   -2.0460 C   0  0  0  0  0  0  0  0  0  0  0  0
    1.2190    1.5580   -1.2320 C   0  0  0  0  0  0  0  0  0  0  0  0
    1.7610    0.9220   -0.0370 C   0  0  0  0  0  0  0  0  0  0  0  0
    1.0070    0.7250    0.9690 O   0  0  0  0  0  0  0  0  0  0  0  0
    3.1230    0.5120    0.0350 N   0  0  0  0  0  0  0  0  0  0  0  0
    3.6750   -0.1240    1.2240 C   0  0  2  0  0  0  0  0  0  0  0  0
    4.7990    0.7650    1.7070 C   0  0  0  0  0  0  0  0  0  0  0  0
    4.1560   -1.4690    0.8420 C   0  0  0  0  0  0  0  0  0  0  0  0
    4.0600   -1.9060   -0.3490 O   0  0  0  0  0  0  0  0  0  0  0  0
    4.7400   -2.3310    1.7630 O   0  0  0  0  0  0  0  0  0  0  0  0
    5.1980   -3.6090    1.4020 C   0  0  0  0  0  0  0  0  0  0  0  0
  1  2  1  0
  2  3  2  3
  3  4  1  0
  4  5  1  0
  4  6  2  3
  6  7  1  0
  6 11  1  0
  7  8  1  0
  8  9  1  0
  9 10  1  0
 10 11  1  0
 11 12  2  3
 12 13  1  0
 13 14  1  0
 13 17  2  0
 14 15  1  0
 15 16  2  0
 16 17  1  0
 17 18  1  0
 18 19  2  0
 18 20  1  0
 20 21  1  0
 21 22  1  6
 21 23  1  0
 23 24  2  0
 23 25  1  0
 25 26  1  0
M  END
