
     RDKit          3D

 44 48  0  0  0  0  0  0  0  0999 V2000
    4.0270   -1.1120   -1.4780 C   0  0  0  0  0  0  0  0  0  0  0  0
    3.3750   -0.3610   -0.3390 C   0  0  1  0  0  0  0  0  0  0  0  0
    4.4560   -0.0430    0.6700 C   0  0  0  0  0  0  0  0  0  0  0  0
    4.8630   -1.1020    1.3970 O   0  0  0  0  0  0  0  0  0  0  0  0
    5.4830   -2.2640    1.3110 C   0  0  0  0  0  0  0  0  0  0  0  0
    5.9200   -2.6580    0.2160 O   0  0  0  0  0  0  0  0  0  0  0  0
    5.6620   -3.0760    2.4460 O   0  0  0  0  0  0  0  0  0  0  0  0
    3.1150    1.0410   -0.9830 C   0  0  0  0  0  0  0  0  0  0  0  0
    2.4860    1.9940   -0.0500 C   0  0  0  0  0  0  0  0  0  0  0  0
    1.3180    2.6800   -0.6290 N   0  0  0  0  0  0  0  0  0  0  0  0
    1.4430    3.9580   -1.1850 C   0  0  0  0  0  0  0  0  0  0  0  0
    2.5760    4.4980   -1.2090 O   0  0  0  0  0  0  0  0  0  0  0  0
    0.3940    4.6730   -1.7110 O   0  0  0  0  0  0  0  0  0  0  0  0
    0.0240    1.9370   -0.5520 C   0  0  2  0  0  0  0  0  0  0  0  0
   -0.7180    2.1010   -1.8020 C   0  0  0  0  0  0  0  0  0  0  0  0
   -0.9360    0.7790   -2.5260 C   0  0  0  0  0  0  0  0  0  0  0  0
    0.2670    0.0170   -2.3270 O   0  0  0  0  0  0  0  0  0  0  0  0
    0.2590   -1.3820   -2.1830 C   0  0  0  0  0  0  0  0  0  0  0  0
    1.1350   -2.0340   -2.7820 O   0  0  0  0  0  0  0  0  0  0  0  0
   -0.7160   -2.0770   -1.3760 C   0  0  0  0  0  0  0  0  0  0  0  0
   -1.0200   -1.7390   -0.1340 C   0  0  0  0  0  0  0  0  0  0  0  0
   -0.0940   -1.2170    0.8370 N   0  0  0  0  0  0  0  0  0  0  0  0
    1.3350   -1.3830    0.9080 C   0  0  0  0  0  0  0  0  0  0  0  0
    1.7580   -2.0440    1.9850 O   0  0  0  0  0  0  0  0  0  0  0  0
    2.2630   -0.9740    0.0580 O   0  0  0  0  0  0  0  0  0  0  0  0
   -2.4540   -2.1150   -0.0100 C   0  0  2  0  0  0  0  0  0  0  0  0
   -2.9180   -2.0740    1.3620 C   0  0  0  0  0  0  0  0  0  0  0  0
   -3.1650   -3.1500    1.9490 O   0  0  0  0  0  0  0  0  0  0  0  0
   -3.0960   -0.8860    2.0470 O   0  0  0  0  0  0  0  0  0  0  0  0
   -3.7300    0.2840    1.7350 C   0  0  1  0  0  0  0  0  0  0  0  0
   -5.1310   -0.0520    1.2390 C   0  0  0  0  0  0  0  0  0  0  0  0
   -3.9860    1.1080    3.0190 C   0  0  0  0  0  0  0  0  0  0  0  0
   -3.5390    2.4380    2.8890 O   0  0  0  0  0  0  0  0  0  0  0  0
   -2.2450    2.6310    2.4280 C   0  0  0  0  0  0  0  0  0  0  0  0
   -1.3660    3.3390    2.9700 O   0  0  0  0  0  0  0  0  0  0  0  0
   -1.8970    1.9070    1.1520 N   0  0  0  0  0  0  0  0  0  0  0  0
   -0.5780    2.1420    0.7620 C   0  0  0  0  0  0  0  0  0  0  0  0
   -3.0200    1.1910    0.7360 C   0  0  0  0  0  0  0  0  0  0  0  0
   -3.6030    1.1600   -0.4030 O   0  0  0  0  0  0  0  0  0  0  0  0
   -2.5080   -3.3830   -0.7220 N   0  0  0  0  0  0  0  0  0  0  0  0
   -3.1840   -4.5280   -0.8960 C   0  0  0  0  0  0  0  0  0  0  0  0
   -2.7470   -5.0300   -2.0600 N   0  0  0  0  0  0  0  0  0  0  0  0
   -1.8170   -4.2170   -2.5920 N   0  0  0  0  0  0  0  0  0  0  0  0
   -1.6570   -3.1640   -1.7260 C   0  0  0  0  0  0  0  0  0  0  0  0
  2  1  1  6
  2  3  1  0
  2  8  1  0
  2 25  1  0
  3  4  1  0
  4  5  1  0
  5  6  2  0
  5  7  1  0
  8  9  1  0
  9 10  1  0
 10 11  1  0
 10 14  1  0
 11 12  2  0
 11 13  1  0
 14 15  1  0
 14 37  1  1
 15 16  1  0
 16 17  1  0
 17 18  1  0
 18 19  2  0
 18 20  1  0
 20 21  2  0
 20 44  1  0
 21 22  1  0
 21 26  1  0
 22 23  1  0
 23 24  2  0
 23 25  1  0
 26 27  1  0
 26 40  1  1
 27 28  2  0
 27 29  1  0
 29 30  1  0
 30 31  1  6
 30 32  1  0
 30 38  1  0
 32 33  1  0
 33 34  1  0
 34 35  2  0
 34 36  1  0
 36 37  1  0
 36 38  1  0
 38 39  2  0
 40 41  1  0
 40 44  1  0
 41 42  2  0
 42 43  1  0
 43 44  2  0
M  END
