
     RDKit          3D

 43 46  0  0  0  0  0  0  0  0999 V2000
    7.9140   -1.5680    0.4550 C   0  0  0  0  0  0  0  0  0  0  0  0
    7.4580   -1.3150    1.7240 O   0  0  0  0  0  0  0  0  0  0  0  0
    6.0670   -0.9040    1.9210 C   0  0  0  0  0  0  0  0  0  0  0  0
    5.8380   -0.7140    3.2430 C   0  0  0  0  0  0  0  0  0  0  0  0
    4.5380   -0.3040    3.6860 C   0  0  0  0  0  0  0  0  0  0  0  0
    3.5500   -0.1240    2.6760 C   0  0  0  0  0  0  0  0  0  0  0  0
    3.8950   -0.3270    1.3630 C   0  0  0  0  0  0  0  0  0  0  0  0
    2.9030    0.2220    0.4650 C   0  0  0  0  0  0  0  0  0  0  0  0
    1.8840   -0.2770   -0.3200 C   0  0  2  0  0  0  0  0  0  0  0  0
    2.2220   -1.0950   -1.5240 C   0  0  0  0  0  0  0  0  0  0  0  0
    2.0070   -2.2560   -1.7080 N   0  0  0  0  0  0  0  0  0  0  0  0
    1.4270   -3.3810   -1.1260 C   0  0  0  0  0  0  0  0  0  0  0  0
    0.0650   -3.5470   -1.1120 N   0  0  0  0  0  0  0  0  0  0  0  0
   -0.7660   -2.5200   -1.6660 C   0  0  0  0  0  0  0  0  0  0  0  0
   -1.4630   -2.8610   -2.8080 O   0  0  0  0  0  0  0  0  0  0  0  0
   -1.0000   -1.2890   -1.1890 O   0  0  0  0  0  0  0  0  0  0  0  0
   -1.3530   -1.0330    0.1370 C   0  0  0  0  0  0  0  0  0  0  0  0
   -2.5310   -0.2300    0.1130 C   0  0  1  0  0  0  0  0  0  0  0  0
   -3.5370   -1.1730    0.5530 O   0  0  0  0  0  0  0  0  0  0  0  0
   -4.5830   -0.3820    0.6860 C   0  0  0  0  0  0  0  0  0  0  0  0
   -5.9140   -0.9910    1.2580 C   0  0  0  0  0  0  0  0  0  0  0  0
   -6.5560    0.2320    1.2280 O   0  0  0  0  0  0  0  0  0  0  0  0
   -7.7280    0.4240    0.7670 O   0  0  0  0  0  0  0  0  0  0  0  0
   -7.9230    1.7460    0.8110 O   0  0  0  0  0  0  0  0  0  0  0  0
   -2.5300    0.7160    1.2150 O   0  0  0  0  0  0  0  0  0  0  0  0
   -2.2970    0.0430    2.4250 C   0  0  0  0  0  0  0  0  0  0  0  0
   -2.0320   -1.0000    2.7780 O   0  0  0  0  0  0  0  0  0  0  0  0
   -2.5350    1.0500    3.5410 O   0  0  0  0  0  0  0  0  0  0  0  0
   -2.8480    0.3800   -1.1640 C   0  0  0  0  0  0  0  0  0  0  0  0
   -3.0670   -0.5760   -2.0570 O   0  0  0  0  0  0  0  0  0  0  0  0
   -2.9930    1.7180   -1.6740 N   0  0  0  0  0  0  0  0  0  0  0  0
   -4.3110    2.1120   -2.1130 C   0  0  0  0  0  0  0  0  0  0  0  0
   -1.9360    2.7330   -1.7960 C   0  0  0  0  0  0  0  0  0  0  0  0
   -2.2070    3.9030   -2.1370 O   0  0  0  0  0  0  0  0  0  0  0  0
   -0.4160    2.4390   -1.5690 C   0  0  0  0  0  0  0  0  0  0  0  0
    0.0480    1.6100   -0.6760 C   0  0  0  0  0  0  0  0  0  0  0  0
    1.1980    0.8280   -0.9640 N   0  0  0  0  0  0  0  0  0  0  0  0
    1.9190    0.9790   -2.1630 C   0  0  0  0  0  0  0  0  0  0  0  0
    2.8370    0.0760   -2.2750 N   0  0  0  0  0  0  0  0  0  0  0  0
    1.4750    1.9380   -3.2060 N   0  0  0  0  0  0  0  0  0  0  0  0
    0.2970    2.6650   -2.8900 C   0  0  0  0  0  0  0  0  0  0  0  0
   -0.1260    3.5060   -3.6960 O   0  0  0  0  0  0  0  0  0  0  0  0
    5.1280   -0.7250    0.9270 C   0  0  0  0  0  0  0  0  0  0  0  0
  1  2  1  0
  2  3  1  0
  3  4  2  0
  3 43  1  0
  4  5  1  0
  5  6  2  0
  6  7  1  0
  7  8  1  0
  7 43  2  0
  9  8  1  6
  9 10  1  0
  9 37  1  0
 10 11  2  0
 10 39  1  0
 11 12  1  0
 12 13  2  0
 13 14  1  0
 14 15  2  0
 14 16  1  0
 16 17  1  0
 17 18  1  0
 18 19  1  1
 18 25  1  0
 18 29  1  0
 19 20  1  0
 20 21  1  0
 21 22  1  0
 22 23  1  0
 23 24  1  0
 25 26  1  0
 26 27  2  0
 26 28  1  0
 29 30  2  0
 29 31  1  0
 31 32  1  0
 31 33  1  0
 33 34  2  0
 33 35  1  0
 35 36  2  0
 35 41  1  0
 36 37  1  0
 37 38  1  0
 38 39  2  0
 38 40  1  0
 40 41  1  0
 41 42  2  0
M  END
