
     RDKit          3D

 43 47  0  0  0  0  0  0  0  0999 V2000
   -4.8460    1.2110   -0.8120 O   0  0  0  0  0  0  0  0  0  0  0  0
   -5.2810    1.9970    0.0820 C   0  0  0  0  0  0  0  0  0  0  0  0
   -5.9850    1.4630    1.2610 C   0  0  0  0  0  0  0  0  0  0  0  0
   -5.4260    0.0320    1.4480 C   0  0  1  0  0  0  0  0  0  0  0  0
   -4.0680    0.1760    1.7650 O   0  0  0  0  0  0  0  0  0  0  0  0
   -2.9570    0.2260    0.9640 C   0  0  0  0  0  0  0  0  0  0  0  0
   -2.2490    1.4130    0.7390 C   0  0  0  0  0  0  0  0  0  0  0  0
   -1.1610    1.4290   -0.0670 C   0  0  0  0  0  0  0  0  0  0  0  0
   -0.7440    0.2470   -0.6750 C   0  0  0  0  0  0  0  0  0  0  0  0
    0.3520    0.3790   -1.5040 N   0  0  0  0  0  0  0  0  0  0  0  0
    1.6220   -0.3800   -1.2040 C   0  0  0  0  0  0  0  0  0  0  0  0
    1.5530   -1.1210   -0.2880 O   0  0  0  0  0  0  0  0  0  0  0  0
    2.5720    0.0510   -2.1480 N   0  0  0  0  0  0  0  0  0  0  0  0
    3.9610   -0.6250   -1.3320 C   0  0  0  0  0  0  0  0  0  0  0  0
    3.7030   -1.2400   -0.3960 O   0  0  0  0  0  0  0  0  0  0  0  0
    5.1520   -0.2440   -2.0210 C   0  0  0  0  0  0  0  0  0  0  0  0
    5.4410   -0.1640   -3.3870 C   0  0  0  0  0  0  0  0  0  0  0  0
    6.6980    0.2730   -3.5080 N   0  0  0  0  0  0  0  0  0  0  0  0
    7.2290    0.4790   -2.2990 N   0  0  0  0  0  0  0  0  0  0  0  0
    8.3600    0.8840   -1.6710 C   0  0  0  0  0  0  0  0  0  0  0  0
    8.0890    0.8020   -0.3300 C   0  0  0  0  0  0  0  0  0  0  0  0
    9.0190    1.1390    0.7960 C   0  0  2  0  0  0  0  0  0  0  0  0
   10.1780    0.1200    0.7650 C   0  0  0  0  0  0  0  0  0  0  0  0
    9.7020   -0.8690    1.6510 O   0  0  0  0  0  0  0  0  0  0  0  0
    9.1590   -0.0930    2.6920 C   0  0  0  0  0  0  0  0  0  0  0  0
    8.4740    0.9260    2.0410 O   0  0  0  0  0  0  0  0  0  0  0  0
    6.8500    0.3730   -0.1950 O   0  0  0  0  0  0  0  0  0  0  0  0
    6.3190    0.1740   -1.3670 C   0  0  0  0  0  0  0  0  0  0  0  0
   -1.4360   -0.9220   -0.4530 C   0  0  0  0  0  0  0  0  0  0  0  0
   -2.5400   -0.9670    0.3570 C   0  0  0  0  0  0  0  0  0  0  0  0
   -3.2510   -2.2600    0.6220 C   0  0  0  0  0  0  0  0  0  0  0  0
   -3.6290   -2.9720   -0.4620 O   0  0  0  0  0  0  0  0  0  0  0  0
   -4.9160   -2.8890   -0.8960 C   0  0  0  0  0  0  0  0  0  0  0  0
   -5.9960   -3.2080    0.0970 C   0  0  0  0  0  0  0  0  0  0  0  0
   -7.0440   -2.2820   -0.1040 O   0  0  0  0  0  0  0  0  0  0  0  0
   -7.8250   -1.7050    0.8730 C   0  0  0  0  0  0  0  0  0  0  0  0
   -9.0390   -1.4390    0.5650 O   0  0  0  0  0  0  0  0  0  0  0  0
   -7.4020   -1.3800    2.1920 N   0  0  0  0  0  0  0  0  0  0  0  0
   -6.2150   -0.6250    2.4800 C   0  0  0  0  0  0  0  0  0  0  0  0
   -5.8620   -0.5440    3.6900 O   0  0  0  0  0  0  0  0  0  0  0  0
   -5.0650    3.3710   -0.0920 N   0  0  0  0  0  0  0  0  0  0  0  0
   -4.4000    3.7650   -1.2230 O   0  0  0  0  0  0  0  0  0  0  0  0
   -4.4010    5.0700   -1.3700 O   0  0  0  0  0  0  0  0  0  0  0  0
  1  2  2  0
  2  3  1  0
  2 41  1  0
  4  3  1  1
  4  5  1  0
  4 39  1  0
  5  6  1  0
  6  7  2  0
  6 30  1  0
  7  8  1  0
  8  9  2  0
  9 10  1  0
  9 29  1  0
 10 11  1  0
 11 12  2  0
 11 13  1  0
 13 14  1  0
 14 15  2  0
 14 16  1  0
 16 17  1  0
 16 28  2  0
 17 18  2  0
 18 19  1  0
 19 20  1  0
 19 28  1  0
 20 21  2  0
 22 21  1  6
 21 27  1  0
 22 23  1  0
 22 26  1  0
 23 24  1  0
 24 25  1  0
 25 26  1  0
 27 28  1  0
 29 30  2  0
 30 31  1  0
 31 32  1  0
 32 33  1  0
 33 34  1  0
 34 35  1  0
 35 36  1  0
 36 37  2  0
 36 38  1  0
 38 39  1  0
 39 40  2  0
 41 42  1  0
 42 43  1  0
M  END
