
     RDKit          3D

 43 46  0  0  0  0  0  0  0  0999 V2000
  -10.7670    1.0280   -1.1770 C   0  0  0  0  0  0  0  0  0  0  0  0
   -9.4380    0.6120   -0.5770 C   0  0  0  0  0  0  0  0  0  0  0  0
   -8.8390    1.6580    0.1350 O   0  0  0  0  0  0  0  0  0  0  0  0
   -7.6080    1.4830    0.7490 C   0  0  0  0  0  0  0  0  0  0  0  0
   -7.0200    0.3710    0.6670 O   0  0  0  0  0  0  0  0  0  0  0  0
   -6.9830    2.4880    1.4590 O   0  0  0  0  0  0  0  0  0  0  0  0
   -5.7360    2.2620    2.0550 C   0  0  0  0  0  0  0  0  0  0  0  0
   -4.6990    1.8950    1.0440 C   0  0  0  0  0  0  0  0  0  0  0  0
   -4.8330    1.7430   -0.2270 O   0  0  0  0  0  0  0  0  0  0  0  0
   -3.6540    1.4120   -0.7800 C   0  0  0  0  0  0  0  0  0  0  0  0
   -3.5190    1.2090   -2.0220 N   0  0  0  0  0  0  0  0  0  0  0  0
   -2.7040    1.3380    0.1490 N   0  0  0  0  0  0  0  0  0  0  0  0
   -1.3790    1.0380    0.0930 C   0  0  0  0  0  0  0  0  0  0  0  0
   -0.7040    0.7310   -0.9380 C   0  0  0  0  0  0  0  0  0  0  0  0
   -0.9780    0.5710   -2.3410 C   0  0  0  0  0  0  0  0  0  0  0  0
   -1.3280   -0.6460   -2.9790 C   0  0  0  0  0  0  0  0  0  0  0  0
   -1.4860   -0.3570   -4.2710 N   0  0  0  0  0  0  0  0  0  0  0  0
   -1.2600    0.9320   -4.4550 C   0  0  0  0  0  0  0  0  0  0  0  0
   -0.9640    1.4660   -3.3230 O   0  0  0  0  0  0  0  0  0  0  0  0
   -0.7170    1.0690    1.3510 C   0  0  0  0  0  0  0  0  0  0  0  0
    0.5440    0.7260    1.4820 C   0  0  0  0  0  0  0  0  0  0  0  0
    1.3820    0.6950    2.6450 C   0  0  0  0  0  0  0  0  0  0  0  0
    2.6520    0.2760    2.5550 C   0  0  0  0  0  0  0  0  0  0  0  0
    3.2480   -0.1580    1.3420 N   0  0  0  0  0  0  0  0  0  0  0  0
    4.4670   -0.5020    1.5510 C   0  0  0  0  0  0  0  0  0  0  0  0
    5.3580   -0.9900    0.5360 N   0  0  0  0  0  0  0  0  0  0  0  0
    4.8670   -1.7180   -0.5930 C   0  0  2  0  0  0  0  0  0  0  0  0
    5.9130   -2.4250   -1.3800 C   0  0  0  0  0  0  0  0  0  0  0  0
    6.5460   -3.3880   -0.7330 O   0  0  0  0  0  0  0  0  0  0  0  0
    7.3160   -3.2990    0.3360 C   0  0  0  0  0  0  0  0  0  0  0  0
    8.5860   -2.4840    0.2400 C   0  0  0  0  0  0  0  0  0  0  0  0
    9.1970   -2.5580    1.4920 O   0  0  0  0  0  0  0  0  0  0  0  0
   10.3230   -1.8890    1.5610 O   0  0  0  0  0  0  0  0  0  0  0  0
    3.9930   -0.8720   -1.4630 C   0  0  0  0  0  0  0  0  0  0  0  0
    3.8000    0.3480   -1.1950 O   0  0  0  0  0  0  0  0  0  0  0  0
    3.3840   -1.4190   -2.5740 O   0  0  0  0  0  0  0  0  0  0  0  0
    4.8070   -0.3370    2.8980 O   0  0  0  0  0  0  0  0  0  0  0  0
    3.6770    0.1560    3.5610 C   0  0  0  0  0  0  0  0  0  0  0  0
    3.5130    0.4520    4.7690 O   0  0  0  0  0  0  0  0  0  0  0  0
   -1.4450    1.3900    2.4720 C   0  0  0  0  0  0  0  0  0  0  0  0
   -0.8720    1.4360    3.6620 N   0  0  0  0  0  0  0  0  0  0  0  0
   -2.7230    1.6640    2.4280 O   0  0  0  0  0  0  0  0  0  0  0  0
   -3.3520    1.6410    1.2980 C   0  0  0  0  0  0  0  0  0  0  0  0
  1  2  1  0
  2  3  1  0
  3  4  1  0
  4  5  2  0
  4  6  1  0
  6  7  1  0
  7  8  1  0
  8  9  1  0
  8 43  2  0
  9 10  1  0
 10 11  2  0
 10 12  1  0
 12 13  1  0
 12 43  1  0
 13 14  2  3
 13 20  1  0
 14 15  1  0
 15 16  2  0
 15 19  1  0
 16 17  1  0
 17 18  2  0
 18 19  1  0
 20 21  2  3
 20 40  1  0
 21 22  1  0
 22 23  2  3
 23 24  1  0
 23 38  1  0
 24 25  2  0
 25 26  1  0
 25 37  1  0
 26 27  1  0
 27 28  1  6
 27 34  1  0
 28 29  1  0
 29 30  1  0
 30 31  1  0
 31 32  1  0
 32 33  1  0
 34 35  2  0
 34 36  1  0
 37 38  1  0
 38 39  2  0
 40 41  2  0
 40 42  1  0
 42 43  1  0
M  END
