
     RDKit          3D

 19 20  0  0  0  0  0  0  0  0999 V2000
   -4.2700    0.4960   -1.2830 C   0  0  0  0  0  0  0  0  0  0  0  0
   -3.4840   -0.7890   -1.3130 C   0  0  0  0  0  0  0  0  0  0  0  0
   -3.1570   -1.2740    0.0920 C   0  0  0  0  0  0  0  0  0  0  0  0
   -3.8340   -2.2670    0.6680 C   0  0  0  0  0  0  0  0  0  0  0  0
   -3.5380   -2.6860    1.9270 C   0  0  0  0  0  0  0  0  0  0  0  0
   -2.1640   -1.5870    2.3810 S   0  0  0  0  0  0  0  0  0  0  0  0
   -2.1390   -0.6830    0.8220 C   0  0  0  0  0  0  0  0  0  0  0  0
   -1.1950    0.3830    0.5810 C   0  0  0  0  0  0  0  0  0  0  0  0
   -0.3900    0.6190    1.5820 O   0  0  0  0  0  0  0  0  0  0  0  0
   -1.0230    1.1820   -0.5470 N   0  0  0  0  0  0  0  0  0  0  0  0
    0.0140    2.2030   -0.5470 C   0  0  0  0  0  0  0  0  0  0  0  0
    1.3500    1.5690   -0.3560 C   0  0  0  0  0  0  0  0  0  0  0  0
    1.7040    0.2160   -0.3730 C   0  0  0  0  0  0  0  0  0  0  0  0
    2.9840   -0.0900   -0.1670 C   0  0  0  0  0  0  0  0  0  0  0  0
    3.4810   -1.5360   -0.1640 C   0  0  0  0  0  0  0  0  0  0  0  0
    3.8860    0.9230    0.0500 C   0  0  0  0  0  0  0  0  0  0  0  0
    5.3320    0.8700    0.2990 C   0  0  0  0  0  0  0  0  0  0  0  0
    5.8070    2.1730    0.4570 O   0  0  0  0  0  0  0  0  0  0  0  0
    2.9030    2.3570   -0.0390 S   0  0  0  0  0  0  0  0  0  0  0  0
  1  2  1  0
  2  3  1  0
  3  4  1  0
  3  7  2  0
  4  5  2  0
  5  6  1  0
  6  7  1  0
  7  8  1  0
  8  9  2  0
  8 10  1  0
 10 11  1  0
 11 12  1  0
 12 13  2  0
 12 19  1  0
 13 14  1  0
 14 15  1  0
 14 16  2  0
 16 17  1  0
 16 19  1  0
 17 18  1  0
M  END
