
     RDKit          3D

 19 20  0  0  0  0  0  0  0  0999 V2000
   -6.3180    0.7070    0.8190 C   0  0  0  0  0  0  0  0  0  0  0  0
   -5.8400    0.3130   -0.5540 C   0  0  2  0  0  0  0  0  0  0  0  0
   -6.0600   -1.1650   -0.8170 C   0  0  0  0  0  0  0  0  0  0  0  0
   -4.0790    0.7110   -0.6810 S   0  0  0  0  0  0  0  0  0  0  0  0
   -3.1910   -0.3750    0.4870 C   0  0  0  0  0  0  0  0  0  0  0  0
   -1.7510   -0.1450    0.4690 C   0  0  0  0  0  0  0  0  0  0  0  0
   -0.8930    0.6990    1.1590 C   0  0  0  0  0  0  0  0  0  0  0  0
    0.4160    0.6290    0.8790 C   0  0  0  0  0  0  0  0  0  0  0  0
    0.8750   -0.2180   -0.0270 C   0  0  0  0  0  0  0  0  0  0  0  0
    2.2620   -0.4800   -0.5080 C   0  0  0  0  0  0  0  0  0  0  0  0
    2.4740   -1.3330   -1.3800 O   0  0  0  0  0  0  0  0  0  0  0  0
    3.3190    0.2550    0.0420 N   0  0  0  0  0  0  0  0  0  0  0  0
    4.6930    0.1540   -0.2780 C   0  0  0  0  0  0  0  0  0  0  0  0
    5.2120   -0.6620   -1.1580 C   0  0  0  0  0  0  0  0  0  0  0  0
    6.6720   -0.7200   -1.4500 C   0  0  0  0  0  0  0  0  0  0  0  0
    7.4530    0.1540   -0.7210 O   0  0  0  0  0  0  0  0  0  0  0  0
    6.9240    1.0160    0.2060 C   0  0  0  0  0  0  0  0  0  0  0  0
    5.6240    1.0300    0.4290 C   0  0  0  0  0  0  0  0  0  0  0  0
   -0.5280   -1.0260   -0.5930 S   0  0  0  0  0  0  0  0  0  0  0  0
  2  1  1  1
  2  3  1  0
  2  4  1  0
  4  5  1  0
  5  6  1  0
  6  7  2  0
  6 19  1  0
  7  8  1  0
  8  9  2  0
  9 10  1  0
  9 19  1  0
 10 11  2  0
 10 12  1  0
 12 13  1  0
 13 14  2  0
 13 18  1  0
 14 15  1  0
 15 16  1  0
 16 17  1  0
 17 18  2  0
M  END
