
     RDKit          3D

 18 19  0  0  0  0  0  0  0  0999 V2000
   -4.2580   -1.5510    1.2500 O   0  0  0  0  0  0  0  0  0  0  0  0
   -3.6290   -0.7650    0.5300 C   0  0  0  0  0  0  0  0  0  0  0  0
   -3.9940   -0.5360   -0.8120 N   0  0  0  0  0  0  0  0  0  0  0  0
   -3.4490    0.6840   -1.4110 C   0  0  0  0  0  0  0  0  0  0  0  0
   -1.9630    0.8180   -1.2210 C   0  0  0  0  0  0  0  0  0  0  0  0
   -1.4580   -0.0050   -0.0900 C   0  0  1  0  0  0  0  0  0  0  0  0
   -0.1890    0.3260    0.3320 O   0  0  0  0  0  0  0  0  0  0  0  0
    0.7430   -0.6740    0.1850 C   0  0  2  0  0  0  0  0  0  0  0  0
    1.3640   -0.8790    1.4170 O   0  0  0  0  0  0  0  0  0  0  0  0
    1.8730    0.3680    1.8080 C   0  0  0  0  0  0  0  0  0  0  0  0
    3.2330    0.5090    1.1630 C   0  0  1  0  0  0  0  0  0  0  0  0
    4.2140   -0.1100    1.9430 O   0  0  0  0  0  0  0  0  0  0  0  0
    3.1880   -0.2150   -0.1630 C   0  0  2  0  0  0  0  0  0  0  0  0
    4.0340    0.5100   -1.0320 O   0  0  0  0  0  0  0  0  0  0  0  0
    1.8150   -0.1540   -0.7640 C   0  0  1  0  0  0  0  0  0  0  0  0
    1.8080   -0.8910   -1.9550 O   0  0  0  0  0  0  0  0  0  0  0  0
   -2.4630   -0.0320    1.0520 C   0  0  2  0  0  0  0  0  0  0  0  0
   -1.9320   -0.5970    2.1950 O   0  0  0  0  0  0  0  0  0  0  0  0
  1  2  2  0
  2  3  1  0
  2 17  1  0
  3  4  1  0
  4  5  1  0
  5  6  1  0
  6  7  1  1
  6 17  1  0
  8  7  1  1
  8  9  1  0
  8 15  1  0
  9 10  1  0
 10 11  1  0
 11 12  1  1
 11 13  1  0
 13 14  1  6
 13 15  1  0
 15 16  1  6
 17 18  1  1
M  END
