
     RDKit          3D

 19 20  0  0  0  0  0  0  0  0999 V2000
   -6.4090    1.6730    2.0260 C   0  0  0  0  0  0  0  0  0  0  0  0
   -5.3480    0.8050    1.6830 O   0  0  0  0  0  0  0  0  0  0  0  0
   -4.1570    1.4580    2.0570 C   0  0  0  0  0  0  0  0  0  0  0  0
   -2.9580    0.6720    1.7570 C   0  0  0  0  0  0  0  0  0  0  0  0
   -2.0120    1.1260    0.9430 C   0  0  0  0  0  0  0  0  0  0  0  0
   -0.7970    0.4190    0.5910 C   0  0  0  0  0  0  0  0  0  0  0  0
   -0.2030    0.7930   -0.4950 C   0  0  0  0  0  0  0  0  0  0  0  0
    1.0120    0.2630   -1.0740 C   0  0  0  0  0  0  0  0  0  0  0  0
    1.4430    0.7720   -2.1600 O   0  0  0  0  0  0  0  0  0  0  0  0
    1.7450   -0.7900   -0.4940 N   0  0  0  0  0  0  0  0  0  0  0  0
    2.9370   -1.3500   -0.9900 C   0  0  0  0  0  0  0  0  0  0  0  0
    3.3620   -2.5940   -0.4840 C   0  0  0  0  0  0  0  0  0  0  0  0
    4.5050   -3.1980   -0.8850 C   0  0  0  0  0  0  0  0  0  0  0  0
    5.3200   -2.6020   -1.8300 C   0  0  0  0  0  0  0  0  0  0  0  0
    6.8400   -3.3620   -2.3890 S   0  0  0  0  0  0  0  0  0  0  0  0
    4.9160   -1.4000   -2.3220 C   0  0  0  0  0  0  0  0  0  0  0  0
    3.7290   -0.7620   -1.9130 C   0  0  0  0  0  0  0  0  0  0  0  0
   -1.1410    2.1200   -1.2110 S   0  0  0  0  0  0  0  0  0  0  0  0
   -2.1300    2.4640    0.3080 C   0  0  0  0  0  0  0  0  0  0  0  0
  1  2  1  0
  2  3  1  0
  3  4  1  0
  4  5  2  3
  5  6  1  0
  5 19  1  0
  6  7  2  0
  7  8  1  0
  7 18  1  0
  8  9  2  0
  8 10  1  0
 10 11  1  0
 11 12  2  0
 11 17  1  0
 12 13  1  0
 13 14  2  0
 14 15  1  0
 14 16  1  0
 16 17  2  0
 18 19  1  0
M  END
