
     RDKit          3D

 19 20  0  0  0  0  0  0  0  0999 V2000
   -6.0340    0.7830    0.4970 O   0  0  0  0  0  0  0  0  0  0  0  0
   -5.2880   -0.0480    1.0740 C   0  0  0  0  0  0  0  0  0  0  0  0
   -5.7700   -0.8060    2.1190 O   0  0  0  0  0  0  0  0  0  0  0  0
   -3.9230   -0.2100    0.6460 C   0  0  0  0  0  0  0  0  0  0  0  0
   -3.3870    0.5030   -0.3860 C   0  0  0  0  0  0  0  0  0  0  0  0
   -4.2360    1.4750   -1.0950 C   0  0  0  0  0  0  0  0  0  0  0  0
   -3.0850    2.0870   -2.3550 S   0  0  0  0  0  0  0  0  0  0  0  0
   -1.6760    1.1310   -1.8530 C   0  0  0  0  0  0  0  0  0  0  0  0
   -2.0340    0.3980   -0.8470 C   0  0  0  0  0  0  0  0  0  0  0  0
   -1.0300   -0.5250   -0.1730 C   0  0  0  0  0  0  0  0  0  0  0  0
    0.3050   -0.4090   -0.8340 C   0  0  0  0  0  0  0  0  0  0  0  0
    1.3070   -1.2470   -0.2300 N   0  0  0  0  0  0  0  0  0  0  0  0
    1.6710   -0.8100    1.0970 C   0  0  0  0  0  0  0  0  0  0  0  0
    2.4030    0.4940    1.1260 C   0  0  0  0  0  0  0  0  0  0  0  0
    3.6810    0.4530    0.3680 C   0  0  0  0  0  0  0  0  0  0  0  0
    4.9200    0.1330    0.8080 C   0  0  0  0  0  0  0  0  0  0  0  0
    5.9690    0.1420   -0.0020 C   0  0  0  0  0  0  0  0  0  0  0  0
    5.7430    0.5050   -1.3640 C   0  0  0  0  0  0  0  0  0  0  0  0
    3.9440    0.8040   -1.3010 S   0  0  0  0  0  0  0  0  0  0  0  0
  1  2  2  0
  2  3  1  0
  2  4  1  0
  4  5  2  3
  5  6  1  0
  5  9  1  0
  6  7  1  0
  7  8  1  0
  8  9  2  0
  9 10  1  0
 10 11  1  0
 11 12  1  0
 12 13  1  0
 13 14  1  0
 14 15  1  0
 15 16  2  0
 15 19  1  0
 16 17  1  0
 17 18  2  0
 18 19  1  0
M  END
