
     RDKit          3D

 19 20  0  0  0  0  0  0  0  0999 V2000
    4.8650   -1.5950   -0.8320 C   0  0  0  0  0  0  0  0  0  0  0  0
    4.2690   -0.7450   -0.0050 C   0  0  0  0  0  0  0  0  0  0  0  0
    3.0780   -1.1430    0.7410 C   0  0  0  0  0  0  0  0  0  0  0  0
    1.9130   -0.3540    0.5000 N   0  0  0  0  0  0  0  0  0  0  0  0
    1.3150   -0.1460   -0.7570 C   0  0  0  0  0  0  0  0  0  0  0  0
    1.8370   -0.6720   -1.7660 O   0  0  0  0  0  0  0  0  0  0  0  0
    0.0760    0.6990   -0.9150 C   0  0  0  0  0  0  0  0  0  0  0  0
    0.1690    1.9160   -1.5210 C   0  0  0  0  0  0  0  0  0  0  0  0
   -0.9410    2.7000   -1.5710 C   0  0  0  0  0  0  0  0  0  0  0  0
   -1.1540    4.0690   -2.1590 C   0  0  0  0  0  0  0  0  0  0  0  0
   -2.1670    1.7210   -0.7500 S   0  0  0  0  0  0  0  0  0  0  0  0
   -1.0980    0.3310   -0.4030 C   0  0  0  0  0  0  0  0  0  0  0  0
   -1.5810   -0.9020    0.2830 C   0  0  0  0  0  0  0  0  0  0  0  0
   -0.8880   -2.0400    0.4530 C   0  0  0  0  0  0  0  0  0  0  0  0
   -1.3750   -3.0840    1.0980 C   0  0  0  0  0  0  0  0  0  0  0  0
   -3.0530   -2.5050    1.5830 S   0  0  0  0  0  0  0  0  0  0  0  0
   -2.8660   -0.9210    0.8460 C   0  0  0  0  0  0  0  0  0  0  0  0
   -3.9300    0.1190    0.8560 C   0  0  0  0  0  0  0  0  0  0  0  0
   -5.0500   -0.3500    1.5470 O   0  0  0  0  0  0  0  0  0  0  0  0
  1  2  2  0
  2  3  1  0
  3  4  1  0
  4  5  1  0
  5  6  2  0
  5  7  1  0
  7  8  1  0
  7 12  2  0
  8  9  2  0
  9 10  1  0
  9 11  1  0
 11 12  1  0
 12 13  1  0
 13 14  1  0
 13 17  2  0
 14 15  2  0
 15 16  1  0
 16 17  1  0
 17 18  1  0
 18 19  1  0
M  END
