
     RDKit          3D

 19 20  0  0  0  0  0  0  0  0999 V2000
   -4.2350    2.1670   -0.4840 C   0  0  0  0  0  0  0  0  0  0  0  0
   -3.5630    0.9590    0.1420 C   0  0  0  0  0  0  0  0  0  0  0  0
   -2.3510    0.5410   -0.2270 C   0  0  0  0  0  0  0  0  0  0  0  0
   -1.8280   -0.5440    0.3840 C   0  0  0  0  0  0  0  0  0  0  0  0
   -0.5420   -1.2660    0.2300 C   0  0  0  0  0  0  0  0  0  0  0  0
   -0.3300   -2.2690    0.9570 O   0  0  0  0  0  0  0  0  0  0  0  0
    0.4270   -0.8710   -0.6880 N   0  0  0  0  0  0  0  0  0  0  0  0
    1.7140   -1.5570   -0.8730 C   0  0  0  0  0  0  0  0  0  0  0  0
    2.5120   -1.5640    0.3340 C   0  0  0  0  0  0  0  0  0  0  0  0
    3.6590   -1.1110    0.6500 C   0  0  0  0  0  0  0  0  0  0  0  0
    4.6770   -0.3740   -0.0960 C   0  0  0  0  0  0  0  0  0  0  0  0
    4.7910    0.1080   -1.3520 C   0  0  0  0  0  0  0  0  0  0  0  0
    5.9190    0.7590   -1.7090 C   0  0  0  0  0  0  0  0  0  0  0  0
    6.9070    0.9180   -0.8140 C   0  0  0  0  0  0  0  0  0  0  0  0
    6.2450    0.1140    0.6350 S   0  0  0  0  0  0  0  0  0  0  0  0
   -3.1170   -1.0230    1.5650 S   0  0  0  0  0  0  0  0  0  0  0  0
   -4.2230    0.2720    1.1230 C   0  0  0  0  0  0  0  0  0  0  0  0
   -5.5720    0.5280    1.7130 C   0  0  0  0  0  0  0  0  0  0  0  0
   -5.8540   -0.4260    2.6960 O   0  0  0  0  0  0  0  0  0  0  0  0
  1  2  1  0
  2  3  1  0
  2 17  2  0
  3  4  2  0
  4  5  1  0
  4 16  1  0
  5  6  2  0
  5  7  1  0
  7  8  1  0
  8  9  1  0
  9 10  2  3
 10 11  1  0
 11 12  2  0
 11 15  1  0
 12 13  1  0
 13 14  2  0
 14 15  1  0
 16 17  1  0
 17 18  1  0
 18 19  1  0
M  END
