
     RDKit          3D

 43 46  0  0  0  0  0  0  0  0999 V2000
   -6.6250   -3.1220   -0.7150 C   0  0  0  0  0  0  0  0  0  0  0  0
   -6.2160   -2.8630    0.6340 O   0  0  0  0  0  0  0  0  0  0  0  0
   -5.0610   -3.1310    1.0970 N   0  0  0  0  0  0  0  0  0  0  0  0
   -4.2140   -3.6660    1.7640 C   0  0  0  0  0  0  0  0  0  0  0  0
   -2.7770   -3.3360    1.7000 C   0  0  0  0  0  0  0  0  0  0  0  0
   -2.2710   -2.4160    0.8910 C   0  0  0  0  0  0  0  0  0  0  0  0
   -3.1380   -1.6660   -0.0020 C   0  0  0  0  0  0  0  0  0  0  0  0
   -3.1300   -0.3280   -0.1470 C   0  0  0  0  0  0  0  0  0  0  0  0
   -2.2630    0.4650    0.5690 O   0  0  0  0  0  0  0  0  0  0  0  0
   -2.0640    1.6680   -0.1890 C   0  0  2  0  0  0  0  0  0  0  0  0
   -1.4890    2.6820    0.7060 C   0  0  0  0  0  0  0  0  0  0  0  0
   -0.1820    3.2660    0.2540 C   0  0  0  0  0  0  0  0  0  0  0  0
   -0.0330    3.4610   -1.1970 C   0  0  0  0  0  0  0  0  0  0  0  0
    0.7160    2.5110   -1.9400 N   0  0  0  0  0  0  0  0  0  0  0  0
    2.1040    2.2010   -1.8320 C   0  0  0  0  0  0  0  0  0  0  0  0
    2.8260    2.2640   -2.9200 O   0  0  0  0  0  0  0  0  0  0  0  0
    2.7030    1.8430   -0.6380 O   0  0  0  0  0  0  0  0  0  0  0  0
    2.5780    0.6510    0.0860 C   0  0  1  0  0  0  0  0  0  0  0  0
    1.3420    0.1070   -0.0910 O   0  0  0  0  0  0  0  0  0  0  0  0
    1.1290   -1.1170    0.4850 C   0  0  2  0  0  0  0  0  0  0  0  0
    2.2720   -2.0810    0.3640 C   0  0  0  0  0  0  0  0  0  0  0  0
    3.6120   -1.4670    0.6780 C   0  0  0  0  0  0  0  0  0  0  0  0
    3.7160   -0.2550   -0.2580 C   0  0  2  0  0  0  0  0  0  0  0  0
    4.9830    0.3880   -0.1890 N   0  0  0  0  0  0  0  0  0  0  0  0
    5.5920    0.9940    0.9710 C   0  0  0  0  0  0  0  0  0  0  0  0
    6.9990    1.3710    0.5840 C   0  0  0  0  0  0  0  0  0  0  0  0
    7.2040    0.8630   -0.7490 N   0  0  0  0  0  0  0  0  0  0  0  0
    8.4420    0.6950   -1.4210 C   0  0  0  0  0  0  0  0  0  0  0  0
    9.5220    1.0190   -0.8080 N   0  0  0  0  0  0  0  0  0  0  0  0
    5.9050    0.5580   -1.2690 C   0  0  0  0  0  0  0  0  0  0  0  0
    5.5990    0.4520   -2.4700 O   0  0  0  0  0  0  0  0  0  0  0  0
   -0.0870   -1.7520   -0.1600 C   0  0  0  0  0  0  0  0  0  0  0  0
   -0.9240   -2.1600    0.8860 O   0  0  0  0  0  0  0  0  0  0  0  0
   -3.4130    1.9020   -0.6720 N   0  0  0  0  0  0  0  0  0  0  0  0
   -4.1330    3.1370   -0.8430 C   0  0  0  0  0  0  0  0  0  0  0  0
   -3.9140    3.6780   -2.1220 O   0  0  0  0  0  0  0  0  0  0  0  0
   -4.5720    4.7990   -2.2680 O   0  0  0  0  0  0  0  0  0  0  0  0
   -3.9100    0.5760   -0.9770 C   0  0  0  0  0  0  0  0  0  0  0  0
   -4.8300    0.2900   -1.7970 O   0  0  0  0  0  0  0  0  0  0  0  0
   -4.5310   -4.6810    2.6850 O   0  0  0  0  0  0  0  0  0  0  0  0
   -5.8110   -5.1410    2.8950 C   0  0  0  0  0  0  0  0  0  0  0  0
   -6.7590   -4.6630    2.2580 O   0  0  0  0  0  0  0  0  0  0  0  0
   -6.0750   -6.1630    3.8350 O   0  0  0  0  0  0  0  0  0  0  0  0
  1  2  1  0
  2  3  1  0
  3  4  2  3
  4  5  1  0
  4 40  1  0
  5  6  2  3
  6  7  1  0
  6 33  1  0
  7  8  2  0
  8  9  1  0
  8 38  1  0
  9 10  1  0
 10 11  1  1
 10 34  1  0
 11 12  1  0
 12 13  1  0
 13 14  1  0
 14 15  1  0
 15 16  2  0
 15 17  1  0
 18 17  1  6
 18 19  1  0
 18 23  1  0
 19 20  1  0
 20 21  1  6
 20 32  1  0
 21 22  1  0
 22 23  1  0
 23 24  1  1
 24 25  1  0
 24 30  1  0
 25 26  1  0
 26 27  1  0
 27 28  1  0
 27 30  1  0
 28 29  2  0
 30 31  2  0
 32 33  1  0
 34 35  1  0
 34 38  1  0
 35 36  1  0
 36 37  1  0
 38 39  2  0
 40 41  1  0
 41 42  2  0
 41 43  1  0
M  END
