
     RDKit          3D

 43 45  0  0  0  0  0  0  0  0999 V2000
    7.2320    2.4660    2.6810 C   0  0  0  0  0  0  0  0  0  0  0  0
    7.2400    0.9710    2.4660 C   0  0  0  0  0  0  0  0  0  0  0  0
    5.9120    0.4150    2.3610 N   0  0  0  0  0  0  0  0  0  0  0  0
    5.1300   -0.0750    3.4790 C   0  0  0  0  0  0  0  0  0  0  0  0
    3.7070    0.2360    2.9970 C   0  0  0  0  0  0  0  0  0  0  0  0
    3.7760   -0.1820    1.6300 N   0  0  0  0  0  0  0  0  0  0  0  0
    2.9490   -0.8020    0.7710 O   0  0  0  0  0  0  0  0  0  0  0  0
    1.8310   -0.1170    0.2210 C   0  0  0  0  0  0  0  0  0  0  0  0
    1.7650    1.0500    0.6460 O   0  0  0  0  0  0  0  0  0  0  0  0
    0.9960   -0.7900   -0.6700 N   0  0  0  0  0  0  0  0  0  0  0  0
    1.3540   -2.1490   -1.0540 C   0  0  0  0  0  0  0  0  0  0  0  0
    1.1030   -2.3610   -2.5450 C   0  0  0  0  0  0  0  0  0  0  0  0
    0.9370   -1.1330   -3.2860 N   0  0  0  0  0  0  0  0  0  0  0  0
    0.3620    0.0470   -2.7050 C   0  0  0  0  0  0  0  0  0  0  0  0
    0.3000    1.1320   -3.2950 O   0  0  0  0  0  0  0  0  0  0  0  0
   -0.1430   -0.2180   -1.3070 C   0  0  1  0  0  0  0  0  0  0  0  0
   -1.2130   -1.3040   -1.5330 C   0  0  0  0  0  0  0  0  0  0  0  0
   -1.8030   -1.2830   -2.6320 O   0  0  0  0  0  0  0  0  0  0  0  0
   -1.5200   -2.2640   -0.5690 N   0  0  0  0  0  0  0  0  0  0  0  0
   -2.4760   -3.2700   -0.7230 C   0  0  0  0  0  0  0  0  0  0  0  0
   -3.4380   -3.2790   -1.6770 C   0  0  0  0  0  0  0  0  0  0  0  0
   -4.3540   -4.3330   -1.7900 C   0  0  0  0  0  0  0  0  0  0  0  0
   -4.2800   -5.3750   -0.9240 C   0  0  0  0  0  0  0  0  0  0  0  0
   -3.3190   -5.3820    0.0420 C   0  0  0  0  0  0  0  0  0  0  0  0
   -2.4160   -4.3550    0.1620 C   0  0  0  0  0  0  0  0  0  0  0  0
   -0.8100    0.9250   -0.6550 C   0  0  2  0  0  0  0  0  0  0  0  0
   -1.3610    0.5360    0.6560 C   0  0  0  0  0  0  0  0  0  0  0  0
   -2.6380    0.6490    0.8100 O   0  0  0  0  0  0  0  0  0  0  0  0
   -0.6990    0.0630    1.7510 O   0  0  0  0  0  0  0  0  0  0  0  0
   -1.3600   -0.2730    2.9470 C   0  0  0  0  0  0  0  0  0  0  0  0
   -1.8640    1.5890   -1.4320 C   0  0  0  0  0  0  0  0  0  0  0  0
   -2.1730    1.2410   -2.5820 O   0  0  0  0  0  0  0  0  0  0  0  0
   -2.5640    2.6590   -0.8840 O   0  0  0  0  0  0  0  0  0  0  0  0
   -3.5760    3.3050   -1.6230 C   0  0  0  0  0  0  0  0  0  0  0  0
   -3.8340    2.9010   -2.7830 O   0  0  0  0  0  0  0  0  0  0  0  0
   -4.3330    4.4220   -1.0940 C   0  0  0  0  0  0  0  0  0  0  0  0
   -4.1560    4.8990    0.0530 O   0  0  0  0  0  0  0  0  0  0  0  0
   -5.3320    5.0170   -1.9070 N   0  0  0  0  0  0  0  0  0  0  0  0
   -6.1320    6.1110   -1.4960 C   0  0  0  0  0  0  0  0  0  0  0  0
   -5.9310    6.5760   -0.3330 O   0  0  0  0  0  0  0  0  0  0  0  0
   -7.1030    6.6630   -2.3290 O   0  0  0  0  0  0  0  0  0  0  0  0
    5.1020    0.2240    1.2070 C   0  0  0  0  0  0  0  0  0  0  0  0
    5.4890    0.3860    0.0170 O   0  0  0  0  0  0  0  0  0  0  0  0
  1  2  1  0
  2  3  1  0
  3  4  1  0
  3 42  1  0
  4  5  1  0
  5  6  1  0
  6  7  1  0
  6 42  1  0
  7  8  1  0
  8  9  2  0
  8 10  1  0
 10 11  1  0
 10 16  1  0
 11 12  1  0
 12 13  1  0
 13 14  1  0
 14 15  2  0
 14 16  1  0
 16 17  1  6
 16 26  1  0
 17 18  2  0
 17 19  1  0
 19 20  1  0
 20 21  2  0
 20 25  1  0
 21 22  1  0
 22 23  2  0
 23 24  1  0
 24 25  2  0
 26 27  1  1
 26 31  1  0
 27 28  2  0
 27 29  1  0
 29 30  1  0
 31 32  2  0
 31 33  1  0
 33 34  1  0
 34 35  2  0
 34 36  1  0
 36 37  2  0
 36 38  1  0
 38 39  1  0
 39 40  2  0
 39 41  1  0
 42 43  2  0
M  END
