
     RDKit          3D

 43 46  0  0  0  0  0  0  0  0999 V2000
   -8.6690    1.5570   -0.4300 C   0  0  0  0  0  0  0  0  0  0  0  0
   -7.3940    1.4800    0.1340 O   0  0  0  0  0  0  0  0  0  0  0  0
   -6.5800    0.3620    0.0610 C   0  0  0  0  0  0  0  0  0  0  0  0
   -7.0620   -0.7430   -0.6110 C   0  0  0  0  0  0  0  0  0  0  0  0
   -6.2830   -1.8760   -0.7050 C   0  0  0  0  0  0  0  0  0  0  0  0
   -5.0040   -1.9360   -0.1330 C   0  0  0  0  0  0  0  0  0  0  0  0
   -4.5290   -0.8400    0.5320 C   0  0  0  0  0  0  0  0  0  0  0  0
   -3.2180   -0.8180    1.1440 C   0  0  0  0  0  0  0  0  0  0  0  0
   -2.0860   -0.2870    0.3060 C   0  0  2  0  0  0  0  0  0  0  0  0
   -2.0090   -1.2210   -0.9110 C   0  0  0  0  0  0  0  0  0  0  0  0
   -2.0790   -0.8130   -2.0900 N   0  0  0  0  0  0  0  0  0  0  0  0
   -2.2320    0.5220   -2.5520 C   0  0  0  0  0  0  0  0  0  0  0  0
   -1.4590    1.4680   -2.3820 N   0  0  0  0  0  0  0  0  0  0  0  0
   -0.2830    1.9070   -1.8420 C   0  0  0  0  0  0  0  0  0  0  0  0
   -0.0810    3.2070   -1.9830 O   0  0  0  0  0  0  0  0  0  0  0  0
    0.6280    1.1990   -1.2230 O   0  0  0  0  0  0  0  0  0  0  0  0
    1.7510    0.4730   -1.2460 C   0  0  0  0  0  0  0  0  0  0  0  0
    3.0170    0.9070   -0.5960 C   0  0  1  0  0  0  0  0  0  0  0  0
    3.8060   -0.2580   -0.5660 O   0  0  0  0  0  0  0  0  0  0  0  0
    5.0940   -0.0980   -0.1980 C   0  0  0  0  0  0  0  0  0  0  0  0
    5.7320   -1.4990   -0.2570 C   0  0  0  0  0  0  0  0  0  0  0  0
    5.0180   -2.2950    0.6350 O   0  0  0  0  0  0  0  0  0  0  0  0
    5.4760   -3.5240    0.6700 O   0  0  0  0  0  0  0  0  0  0  0  0
    6.6820   -3.4660    1.1900 O   0  0  0  0  0  0  0  0  0  0  0  0
    3.7170    1.7300   -1.5580 O   0  0  0  0  0  0  0  0  0  0  0  0
    4.1670    1.3130   -2.7670 C   0  0  0  0  0  0  0  0  0  0  0  0
    4.0150    0.1480   -3.1500 O   0  0  0  0  0  0  0  0  0  0  0  0
    4.8170    2.2550   -3.5750 O   0  0  0  0  0  0  0  0  0  0  0  0
    2.9720    1.6050    0.6720 C   0  0  0  0  0  0  0  0  0  0  0  0
    2.6870    2.8650    0.6420 O   0  0  0  0  0  0  0  0  0  0  0  0
    3.2010    1.1260    2.0180 N   0  0  0  0  0  0  0  0  0  0  0  0
    4.1230    1.7890    2.9180 C   0  0  0  0  0  0  0  0  0  0  0  0
    2.5080   -0.0350    2.5580 C   0  0  0  0  0  0  0  0  0  0  0  0
    3.0690   -0.6140    3.5300 O   0  0  0  0  0  0  0  0  0  0  0  0
    1.2030   -0.5760    2.0390 C   0  0  0  0  0  0  0  0  0  0  0  0
    0.1430    0.0900    1.6440 C   0  0  0  0  0  0  0  0  0  0  0  0
   -0.8590   -0.6460    0.9320 N   0  0  0  0  0  0  0  0  0  0  0  0
   -0.7490   -2.0670    0.6650 C   0  0  0  0  0  0  0  0  0  0  0  0
   -1.7930   -2.4230   -0.1060 N   0  0  0  0  0  0  0  0  0  0  0  0
    0.3730   -2.8110    1.1080 N   0  0  0  0  0  0  0  0  0  0  0  0
    1.3550   -2.0510    1.8000 C   0  0  0  0  0  0  0  0  0  0  0  0
    2.3910   -2.6780    2.2240 O   0  0  0  0  0  0  0  0  0  0  0  0
   -5.3360    0.2820    0.6090 C   0  0  0  0  0  0  0  0  0  0  0  0
  1  2  1  0
  2  3  1  0
  3  4  2  0
  3 43  1  0
  4  5  1  0
  5  6  2  0
  6  7  1  0
  7  8  1  0
  7 43  2  0
  9  8  1  1
  9 10  1  0
  9 37  1  0
 10 11  2  0
 10 39  1  0
 11 12  1  0
 12 13  2  0
 13 14  1  0
 14 15  2  0
 14 16  1  0
 16 17  1  0
 17 18  1  0
 18 19  1  1
 18 25  1  0
 18 29  1  0
 19 20  1  0
 20 21  1  0
 21 22  1  0
 22 23  1  0
 23 24  1  0
 25 26  1  0
 26 27  2  0
 26 28  1  0
 29 30  2  0
 29 31  1  0
 31 32  1  0
 31 33  1  0
 33 34  2  0
 33 35  1  0
 35 36  2  0
 35 41  1  0
 36 37  1  0
 37 38  1  0
 38 39  2  0
 38 40  1  0
 40 41  1  0
 41 42  2  0
M  END
