
     RDKit          3D

 44 48  0  0  0  0  0  0  0  0999 V2000
    2.7290   -0.1820   -1.5350 C   0  0  0  0  0  0  0  0  0  0  0  0
    3.0300   -0.1380   -0.0670 C   0  0  1  0  0  0  0  0  0  0  0  0
    4.5800   -0.2590   -0.0280 C   0  0  0  0  0  0  0  0  0  0  0  0
    4.9650   -1.4690   -0.6640 O   0  0  0  0  0  0  0  0  0  0  0  0
    6.3020   -1.8230   -0.7670 C   0  0  0  0  0  0  0  0  0  0  0  0
    7.1490   -1.0460   -0.2850 O   0  0  0  0  0  0  0  0  0  0  0  0
    6.7250   -2.9950   -1.3790 O   0  0  0  0  0  0  0  0  0  0  0  0
    2.7230    1.1880    0.5950 C   0  0  0  0  0  0  0  0  0  0  0  0
    1.9810    2.2160   -0.0760 C   0  0  0  0  0  0  0  0  0  0  0  0
    0.7500    2.8110    0.2150 N   0  0  0  0  0  0  0  0  0  0  0  0
    0.3560    3.7580   -0.8350 C   0  0  0  0  0  0  0  0  0  0  0  0
    1.0570    3.9810   -1.8480 O   0  0  0  0  0  0  0  0  0  0  0  0
   -0.8210    4.4420   -0.7320 O   0  0  0  0  0  0  0  0  0  0  0  0
   -0.2200    2.7660    1.2620 C   0  0  2  0  0  0  0  0  0  0  0  0
    0.2140    2.3470    2.6350 C   0  0  0  0  0  0  0  0  0  0  0  0
   -0.0730    0.9850    3.1370 C   0  0  0  0  0  0  0  0  0  0  0  0
    0.1610   -0.0930    2.3060 O   0  0  0  0  0  0  0  0  0  0  0  0
   -0.3300   -0.7100    1.2270 C   0  0  0  0  0  0  0  0  0  0  0  0
   -0.1270    0.0450    0.1130 O   0  0  0  0  0  0  0  0  0  0  0  0
   -1.0200   -1.9690    0.9340 C   0  0  0  0  0  0  0  0  0  0  0  0
   -0.4450   -2.9170    0.1400 C   0  0  0  0  0  0  0  0  0  0  0  0
    0.9680   -3.1950    0.1310 N   0  0  0  0  0  0  0  0  0  0  0  0
    2.0300   -2.4120    0.6620 C   0  0  0  0  0  0  0  0  0  0  0  0
    2.7700   -3.1760    1.4480 O   0  0  0  0  0  0  0  0  0  0  0  0
    2.4460   -1.1780    0.5750 O   0  0  0  0  0  0  0  0  0  0  0  0
   -1.5530   -3.5050   -0.5800 C   0  0  2  0  0  0  0  0  0  0  0  0
   -2.0920   -2.4880   -1.6240 C   0  0  0  0  0  0  0  0  0  0  0  0
   -2.3000   -3.1420   -2.7150 O   0  0  0  0  0  0  0  0  0  0  0  0
   -2.3090   -1.2080   -1.4720 O   0  0  0  0  0  0  0  0  0  0  0  0
   -2.9280   -0.0270   -1.5890 C   0  0  1  0  0  0  0  0  0  0  0  0
   -3.3150    0.3040   -3.0810 C   0  0  0  0  0  0  0  0  0  0  0  0
   -4.2970   -0.1280   -0.9360 C   0  0  0  0  0  0  0  0  0  0  0  0
   -4.6790    1.0790   -0.3250 O   0  0  0  0  0  0  0  0  0  0  0  0
   -3.8070    1.7710    0.4490 C   0  0  0  0  0  0  0  0  0  0  0  0
   -4.2150    2.2860    1.5130 O   0  0  0  0  0  0  0  0  0  0  0  0
   -2.3730    1.9190    0.0350 N   0  0  0  0  0  0  0  0  0  0  0  0
   -1.6520    2.6680    0.9710 C   0  0  0  0  0  0  0  0  0  0  0  0
   -2.2090    1.2510   -1.1870 C   0  0  0  0  0  0  0  0  0  0  0  0
   -1.4450    1.5710   -2.1800 O   0  0  0  0  0  0  0  0  0  0  0  0
   -2.5910   -3.5990    0.4830 N   0  0  0  0  0  0  0  0  0  0  0  0
   -3.7100   -4.2240    0.8320 C   0  0  0  0  0  0  0  0  0  0  0  0
   -4.2760   -3.4480    1.7880 N   0  0  0  0  0  0  0  0  0  0  0  0
   -3.5000   -2.4310    1.9690 N   0  0  0  0  0  0  0  0  0  0  0  0
   -2.3810   -2.4870    1.1480 C   0  0  0  0  0  0  0  0  0  0  0  0
  2  1  1  6
  2  3  1  0
  2  8  1  0
  2 25  1  0
  3  4  1  0
  4  5  1  0
  5  6  2  0
  5  7  1  0
  8  9  1  0
  9 10  1  0
 10 11  1  0
 10 14  1  0
 11 12  2  0
 11 13  1  0
 14 15  1  0
 14 37  1  6
 15 16  1  0
 16 17  1  0
 17 18  1  0
 18 19  2  0
 18 20  1  0
 20 21  2  0
 20 44  1  0
 21 22  1  0
 21 26  1  0
 22 23  1  0
 23 24  2  0
 23 25  1  0
 26 27  1  0
 26 40  1  1
 27 28  2  0
 27 29  1  0
 29 30  1  0
 30 31  1  6
 30 32  1  0
 30 38  1  0
 32 33  1  0
 33 34  1  0
 34 35  2  0
 34 36  1  0
 36 37  1  0
 36 38  1  0
 38 39  2  0
 40 41  1  0
 40 44  1  0
 41 42  2  0
 42 43  1  0
 43 44  2  0
M  END
