
     RDKit          3D

 43 47  0  0  0  0  0  0  0  0999 V2000
   -1.6850   -5.0550   -0.5660 O   0  0  0  0  0  0  0  0  0  0  0  0
   -1.1240   -4.2720    0.3080 C   0  0  0  0  0  0  0  0  0  0  0  0
   -1.8180   -3.0220    0.4460 N   0  0  0  0  0  0  0  0  0  0  0  0
   -1.1370   -1.7510    0.3440 C   0  0  0  0  0  0  0  0  0  0  0  0
   -1.5860   -0.6450    1.2130 C   0  0  1  0  0  0  0  0  0  0  0  0
   -3.0240   -0.3290    0.9030 C   0  0  0  0  0  0  0  0  0  0  0  0
   -3.1940    0.0820   -0.4420 O   0  0  0  0  0  0  0  0  0  0  0  0
   -4.4600    0.4140   -0.9030 C   0  0  0  0  0  0  0  0  0  0  0  0
   -5.4090    0.3280   -0.0810 O   0  0  0  0  0  0  0  0  0  0  0  0
   -4.7180    0.8530   -2.2960 C   0  0  2  0  0  0  0  0  0  0  0  0
   -4.0880    2.1950   -2.5300 C   0  0  0  0  0  0  0  0  0  0  0  0
   -5.1600    3.0870   -2.6820 O   0  0  0  0  0  0  0  0  0  0  0  0
   -6.1970    2.4240   -2.0400 C   0  0  0  0  0  0  0  0  0  0  0  0
   -6.0690    1.1100   -2.4560 O   0  0  0  0  0  0  0  0  0  0  0  0
   -1.4950   -0.9650    2.6940 C   0  0  0  0  0  0  0  0  0  0  0  0
   -0.7280   -0.0670    3.3990 O   0  0  0  0  0  0  0  0  0  0  0  0
   -1.1890    1.2430    3.2910 C   0  0  0  0  0  0  0  0  0  0  0  0
   -1.1450    1.6670    1.8380 C   0  0  0  0  0  0  0  0  0  0  0  0
   -0.7180    0.5180    1.0090 N   0  0  0  0  0  0  0  0  0  0  0  0
    0.3870    0.6300    0.1510 C   0  0  0  0  0  0  0  0  0  0  0  0
    0.3340    1.6560   -0.6320 O   0  0  0  0  0  0  0  0  0  0  0  0
    1.5850   -0.2110   -0.0070 C   0  0  2  0  0  0  0  0  0  0  0  0
    2.7740    0.6770   -0.1800 C   0  0  0  0  0  0  0  0  0  0  0  0
    2.9150    1.5710   -1.2240 C   0  0  0  0  0  0  0  0  0  0  0  0
    4.0470    2.3460   -1.2740 C   0  0  0  0  0  0  0  0  0  0  0  0
    5.0560    2.2900   -0.3470 C   0  0  0  0  0  0  0  0  0  0  0  0
    6.1990    3.1070   -0.4430 O   0  0  0  0  0  0  0  0  0  0  0  0
    6.1350    4.2890    0.1600 O   0  0  0  0  0  0  0  0  0  0  0  0
    5.9740    4.1930    1.4600 O   0  0  0  0  0  0  0  0  0  0  0  0
    6.9960    4.8060    2.0320 O   0  0  0  0  0  0  0  0  0  0  0  0
    4.9030    1.3950    0.6880 C   0  0  0  0  0  0  0  0  0  0  0  0
    3.7830    0.5960    0.7800 C   0  0  0  0  0  0  0  0  0  0  0  0
    1.5600   -1.0920   -1.1650 N   0  0  0  0  0  0  0  0  0  0  0  0
    1.0410   -0.8110   -2.3750 C   0  0  0  0  0  0  0  0  0  0  0  0
    1.2140   -1.9340   -3.1830 C   0  0  0  0  0  0  0  0  0  0  0  0
    1.8210   -2.8350   -2.4400 N   0  0  0  0  0  0  0  0  0  0  0  0
    2.0490   -2.3350   -1.1760 C   0  0  0  0  0  0  0  0  0  0  0  0
    2.7060   -3.0450   -0.1380 N   0  0  0  0  0  0  0  0  0  0  0  0
    2.2700   -3.3580    1.1590 C   0  0  0  0  0  0  0  0  0  0  0  0
    3.1010   -2.8910    2.0720 O   0  0  0  0  0  0  0  0  0  0  0  0
    1.0990   -4.0860    1.6190 C   0  0  0  0  0  0  0  0  0  0  0  0
    1.0410   -4.1720    2.9300 O   0  0  0  0  0  0  0  0  0  0  0  0
    0.0360   -4.7100    0.9850 N   0  0  0  0  0  0  0  0  0  0  0  0
  1  2  2  0
  2  3  1  0
  2 43  1  0
  3  4  1  0
  4  5  1  0
  5  6  1  6
  5 15  1  0
  5 19  1  0
  6  7  1  0
  7  8  1  0
  8  9  2  0
 10  8  1  1
 10 11  1  0
 10 14  1  0
 11 12  1  0
 12 13  1  0
 13 14  1  0
 15 16  1  0
 16 17  1  0
 17 18  1  0
 18 19  1  0
 19 20  1  0
 20 21  2  0
 20 22  1  0
 22 23  1  6
 22 33  1  0
 23 24  2  0
 23 32  1  0
 24 25  1  0
 25 26  2  0
 26 27  1  0
 26 31  1  0
 27 28  1  0
 28 29  1  0
 29 30  1  0
 31 32  2  0
 33 34  1  0
 33 37  1  0
 34 35  2  0
 35 36  1  0
 36 37  2  0
 37 38  1  0
 38 39  1  0
 39 40  2  0
 39 41  1  0
 41 42  2  0
 41 43  1  0
M  END
