
     RDKit          3D

 43 47  0  0  0  0  0  0  0  0999 V2000
   -5.4180   -2.4220    0.9380 O   0  0  0  0  0  0  0  0  0  0  0  0
   -5.6550   -2.1810   -0.2570 C   0  0  0  0  0  0  0  0  0  0  0  0
   -5.7430   -0.8240   -0.7490 C   0  0  0  0  0  0  0  0  0  0  0  0
   -5.7650    0.2090    0.3400 C   0  0  1  0  0  0  0  0  0  0  0  0
   -4.5900    0.3770    1.0930 O   0  0  0  0  0  0  0  0  0  0  0  0
   -3.3190   -0.1410    0.7340 C   0  0  0  0  0  0  0  0  0  0  0  0
   -2.7230   -1.0630    1.5470 C   0  0  0  0  0  0  0  0  0  0  0  0
   -1.4910   -1.7250    1.2670 C   0  0  0  0  0  0  0  0  0  0  0  0
   -0.8930   -1.3830    0.1090 C   0  0  0  0  0  0  0  0  0  0  0  0
    0.4220   -1.6730   -0.3050 N   0  0  0  0  0  0  0  0  0  0  0  0
    1.5050   -1.4420    0.5990 C   0  0  0  0  0  0  0  0  0  0  0  0
    1.3600   -1.2230    1.8320 O   0  0  0  0  0  0  0  0  0  0  0  0
    2.8160   -1.4770   -0.0510 N   0  0  0  0  0  0  0  0  0  0  0  0
    3.3110    0.0790    0.4380 C   0  0  0  0  0  0  0  0  0  0  0  0
    2.4030    0.6600    1.0770 O   0  0  0  0  0  0  0  0  0  0  0  0
    4.5040    0.6670    0.1560 C   0  0  0  0  0  0  0  0  0  0  0  0
    4.6360    2.1290    0.1920 C   0  0  0  0  0  0  0  0  0  0  0  0
    5.9190    2.4550   -0.0870 N   0  0  0  0  0  0  0  0  0  0  0  0
    6.5870    1.3720   -0.2960 N   0  0  0  0  0  0  0  0  0  0  0  0
    7.6880    0.7730   -0.6110 C   0  0  0  0  0  0  0  0  0  0  0  0
    7.7410   -0.4750   -0.6580 C   0  0  0  0  0  0  0  0  0  0  0  0
    8.8340   -1.4470   -0.9230 C   0  0  2  0  0  0  0  0  0  0  0  0
    9.3280   -1.9940    0.4370 C   0  0  0  0  0  0  0  0  0  0  0  0
   10.3510   -1.1790    0.8120 O   0  0  0  0  0  0  0  0  0  0  0  0
   10.5750   -0.2670   -0.1540 C   0  0  0  0  0  0  0  0  0  0  0  0
    9.9430   -0.7250   -1.3410 O   0  0  0  0  0  0  0  0  0  0  0  0
    6.4520   -0.8410   -0.3630 O   0  0  0  0  0  0  0  0  0  0  0  0
    5.7420    0.3210   -0.1420 C   0  0  0  0  0  0  0  0  0  0  0  0
   -1.4700   -0.3740   -0.7700 C   0  0  0  0  0  0  0  0  0  0  0  0
   -2.6960    0.2100   -0.3630 C   0  0  0  0  0  0  0  0  0  0  0  0
   -3.0110    1.4240   -1.2610 C   0  0  0  0  0  0  0  0  0  0  0  0
   -3.8590    2.1440   -0.5870 O   0  0  0  0  0  0  0  0  0  0  0  0
   -3.4180    3.1850    0.2270 C   0  0  0  0  0  0  0  0  0  0  0  0
   -4.5490    4.2220    0.1630 C   0  0  0  0  0  0  0  0  0  0  0  0
   -5.0940    4.0340   -1.1250 O   0  0  0  0  0  0  0  0  0  0  0  0
   -5.8610    3.0490   -1.5980 C   0  0  0  0  0  0  0  0  0  0  0  0
   -5.7610    2.9170   -2.8940 O   0  0  0  0  0  0  0  0  0  0  0  0
   -6.7660    2.1500   -1.0150 N   0  0  0  0  0  0  0  0  0  0  0  0
   -6.6550    1.3340    0.1420 C   0  0  0  0  0  0  0  0  0  0  0  0
   -7.4830    1.6770    1.0890 O   0  0  0  0  0  0  0  0  0  0  0  0
   -5.8290   -3.3460   -1.1110 N   0  0  0  0  0  0  0  0  0  0  0  0
   -5.7950   -4.5870   -0.5090 O   0  0  0  0  0  0  0  0  0  0  0  0
   -6.9320   -5.2330   -0.8550 O   0  0  0  0  0  0  0  0  0  0  0  0
  1  2  2  0
  2  3  1  0
  2 41  1  0
  4  3  1  6
  4  5  1  0
  4 39  1  0
  5  6  1  0
  6  7  2  0
  6 30  1  0
  7  8  1  0
  8  9  2  0
  9 10  1  0
  9 29  1  0
 10 11  1  0
 11 12  2  0
 11 13  1  0
 13 14  1  0
 14 15  2  0
 14 16  1  0
 16 17  1  0
 16 28  2  0
 17 18  2  0
 18 19  1  0
 19 20  1  0
 19 28  1  0
 20 21  2  0
 22 21  1  1
 21 27  1  0
 22 23  1  0
 22 26  1  0
 23 24  1  0
 24 25  1  0
 25 26  1  0
 27 28  1  0
 29 30  2  0
 30 31  1  0
 31 32  1  0
 32 33  1  0
 33 34  1  0
 34 35  1  0
 35 36  1  0
 36 37  2  0
 36 38  1  0
 38 39  1  0
 39 40  2  0
 41 42  1  0
 42 43  1  0
M  END
