
     RDKit          3D

  9 10  0  0  0  0  0  0  0  0999 V2000
    2.3100   -0.2300    1.2590 N   0  0  0  0  0  0  0  0  0  0  0  0
    1.8910   -0.4000   -0.1190 C   0  0  2  0  0  0  0  0  0  0  0  0
    1.6500    0.9720   -0.7040 C   0  0  0  0  0  0  0  0  0  0  0  0
    0.1830    1.2130   -0.4880 C   0  0  0  0  0  0  0  0  0  0  0  0
   -0.3660   -0.0430   -0.2440 N   0  0  0  0  0  0  0  0  0  0  0  0
   -1.6960   -0.3080   -0.6150 C   0  0  2  0  0  0  0  0  0  0  0  0
   -2.7730    0.5570    0.0960 C   0  0  0  0  0  0  0  0  0  0  0  0
   -2.7060   -0.8960    0.2990 C   0  0  0  0  0  0  0  0  0  0  0  0
    0.5400   -1.0900   -0.1370 C   0  0  0  0  0  0  0  0  0  0  0  0
  2  1  1  1
  2  3  1  0
  2  9  1  0
  3  4  1  0
  4  5  1  0
  6  5  1  1
  5  9  1  0
  6  7  1  0
  6  8  1  0
  7  8  1  0
M  CHG  1   1   1
M  END
