
     RDKit          3D

  9  9  0  0  0  0  0  0  0  0999 V2000
   -2.3690    1.1900   -0.3090 C   0  0  0  0  0  0  0  0  0  0  0  0
   -1.7120    0.0710   -0.2330 C   0  0  0  0  0  0  0  0  0  0  0  0
   -2.4580   -1.1430   -0.3220 N   0  0  0  0  0  0  0  0  0  0  0  0
   -0.2550   -0.0210   -0.0620 C   0  0  0  0  0  0  0  0  0  0  0  0
    0.3280   -1.2100    0.0050 C   0  0  0  0  0  0  0  0  0  0  0  0
    1.7560   -1.3460    0.1730 C   0  0  0  0  0  0  0  0  0  0  0  0
    2.5240   -0.2900    0.2640 C   0  0  0  0  0  0  0  0  0  0  0  0
    1.9930    1.0670    0.2030 C   0  0  0  0  0  0  0  0  0  0  0  0
    0.5690    1.1300    0.0360 N   0  0  0  0  0  0  0  0  0  0  0  0
  1  2  2  0
  2  3  1  0
  2  4  1  0
  4  5  2  0
  4  9  1  0
  5  6  1  0
  6  7  2  0
  7  8  1  0
  8  9  1  0
M  END
