
     RDKit          3D

  9  9  0  0  0  0  0  0  0  0999 V2000
    3.2050    0.0330    0.6500 C   0  0  0  0  0  0  0  0  0  0  0  0
    2.3140   -0.7170   -0.2210 N   0  0  0  0  0  0  0  0  0  0  0  0
    0.9230   -0.4050   -0.2060 C   0  0  0  0  0  0  0  0  0  0  0  0
    0.4270    0.5850    0.6150 C   0  0  0  0  0  0  0  0  0  0  0  0
   -0.9310    0.9040    0.6440 C   0  0  0  0  0  0  0  0  0  0  0  0
   -1.8220    0.2270   -0.1610 C   0  0  0  0  0  0  0  0  0  0  0  0
   -3.2250    0.5270   -0.1590 N   0  0  0  0  0  0  0  0  0  0  0  0
   -1.3250   -0.7620   -0.9800 C   0  0  0  0  0  0  0  0  0  0  0  0
    0.0160   -1.0710   -1.0020 C   0  0  0  0  0  0  0  0  0  0  0  0
  1  2  1  0
  2  3  1  0
  3  4  2  0
  3  9  1  0
  4  5  1  0
  5  6  2  0
  6  7  1  0
  6  8  1  0
  8  9  2  0
M  CHG  1   7   1
M  END
