
     RDKit          3D

  9  9  0  0  0  0  0  0  0  0999 V2000
    0.1910   -2.2560    1.5070 C   0  0  0  0  0  0  0  0  0  0  0  0
   -0.1410   -1.8880    0.1590 N   0  0  0  0  0  0  0  0  0  0  0  0
    0.7330   -1.0440   -0.5760 C   0  0  0  0  0  0  0  0  0  0  0  0
    0.4950    0.2640   -0.6900 C   0  0  0  0  0  0  0  0  0  0  0  0
    1.3040    1.2400   -1.4100 C   0  0  0  0  0  0  0  0  0  0  0  0
    0.7420    2.4380   -1.2930 C   0  0  0  0  0  0  0  0  0  0  0  0
   -0.4720    2.2950   -0.4810 C   0  0  0  0  0  0  0  0  0  0  0  0
   -0.6150    1.0250   -0.1300 C   0  0  0  0  0  0  0  0  0  0  0  0
   -1.6700    0.5070    0.6550 N   0  0  0  0  0  0  0  0  0  0  0  0
  1  2  1  0
  2  3  1  0
  3  4  2  3
  4  5  1  0
  4  8  1  0
  5  6  2  0
  6  7  1  0
  7  8  2  0
  8  9  1  0
M  END
