
     RDKit          3D

  9  9  0  0  0  0  0  0  0  0999 V2000
   -2.3710    0.6040    0.7570 N   0  0  0  0  0  0  0  0  0  0  0  0
   -1.5770   -0.3100    0.0190 C   0  0  0  0  0  0  0  0  0  0  0  0
   -2.1490   -1.2880   -0.5660 N   0  0  0  0  0  0  0  0  0  0  0  0
   -0.1430   -0.0690   -0.0240 C   0  0  0  0  0  0  0  0  0  0  0  0
    0.4270    1.0230    0.6390 C   0  0  0  0  0  0  0  0  0  0  0  0
    1.7750    1.2690    0.6110 C   0  0  0  0  0  0  0  0  0  0  0  0
    2.6230    0.4450   -0.0740 C   0  0  0  0  0  0  0  0  0  0  0  0
    2.1150   -0.6400   -0.7410 C   0  0  0  0  0  0  0  0  0  0  0  0
    0.7490   -0.8760   -0.7040 C   0  0  0  0  0  0  0  0  0  0  0  0
  1  2  1  0
  2  3  2  0
  2  4  1  0
  4  5  2  0
  4  9  1  0
  5  6  1  0
  6  7  2  0
  7  8  1  0
  8  9  2  0
M  CHG  1   3   1
M  END
