
     RDKit          3D

 33 35  0  0  0  0  0  0  0  0999 V2000
   -5.0600   -1.9500   -2.3410 C   0  0  0  0  0  0  0  0  0  0  0  0
   -4.7560   -1.4470   -1.2320 O   0  0  0  0  0  0  0  0  0  0  0  0
   -4.3630   -0.8650   -0.1190 C   0  0  0  0  0  0  0  0  0  0  0  0
   -3.3810    0.1270   -0.0550 C   0  0  0  0  0  0  0  0  0  0  0  0
   -3.0120    0.7010    1.1590 C   0  0  0  0  0  0  0  0  0  0  0  0
   -1.8800    1.5840    1.2430 N   0  0  0  0  0  0  0  0  0  0  0  0
   -0.7990    1.4440    0.3950 C   0  0  0  0  0  0  0  0  0  0  0  0
   -0.8080    0.5150   -0.5090 O   0  0  0  0  0  0  0  0  0  0  0  0
    0.4290    2.2350    0.3900 N   0  0  0  0  0  0  0  0  0  0  0  0
    0.4640    3.5620    0.7950 C   0  0  0  0  0  0  0  0  0  0  0  0
    0.6910    3.8690    2.3060 C   0  0  0  0  0  0  0  0  0  0  0  0
    0.6690    5.2710    2.3580 C   0  0  0  0  0  0  0  0  0  0  0  0
    0.6580    6.5450    2.3990 N   0  0  0  0  0  0  0  0  0  0  0  0
    1.5510    1.5190   -0.1520 C   0  0  0  0  0  0  0  0  0  0  0  0
    1.8640    1.3360   -1.4830 C   0  0  0  0  0  0  0  0  0  0  0  0
    2.8520    0.4420   -1.8470 C   0  0  0  0  0  0  0  0  0  0  0  0
    3.5900   -0.3180   -0.9980 C   0  0  0  0  0  0  0  0  0  0  0  0
    4.4280   -1.4660   -1.3330 C   0  0  0  0  0  0  0  0  0  0  0  0
    5.5190   -1.9790   -0.5080 C   0  0  0  0  0  0  0  0  0  0  0  0
    6.1270   -1.7140    0.4560 C   0  0  0  0  0  0  0  0  0  0  0  0
    6.2890   -0.7710    1.4810 F   0  0  0  0  0  0  0  0  0  0  0  0
    7.1560   -2.7580    0.7980 F   0  0  0  0  0  0  0  0  0  0  0  0
    4.1990   -2.1610   -2.4120 C   0  0  0  0  0  0  0  0  0  0  0  0
    3.2520   -2.1310   -3.4890 C   0  0  0  0  0  0  0  0  0  0  0  0
    3.9250   -1.9780   -4.7200 O   0  0  0  0  0  0  0  0  0  0  0  0
    3.2780   -0.1230    0.3800 C   0  0  0  0  0  0  0  0  0  0  0  0
    2.2920    0.7690    0.7390 C   0  0  0  0  0  0  0  0  0  0  0  0
   -3.6460    0.2720    2.2970 C   0  0  0  0  0  0  0  0  0  0  0  0
   -4.6300   -0.7130    2.2690 C   0  0  0  0  0  0  0  0  0  0  0  0
   -4.9810   -1.2730    1.0750 C   0  0  0  0  0  0  0  0  0  0  0  0
   -5.9430   -2.1920    1.3510 O   0  0  0  0  0  0  0  0  0  0  0  0
   -6.4090   -2.0710    2.6680 C   0  0  0  0  0  0  0  0  0  0  0  0
   -5.3970   -1.2860    3.3070 O   0  0  0  0  0  0  0  0  0  0  0  0
  1  2  1  0
  2  3  1  0
  3  4  2  0
  3 30  1  0
  4  5  1  0
  5  6  1  0
  5 28  2  0
  6  7  1  0
  7  8  2  0
  7  9  1  0
  9 10  1  0
  9 14  1  0
 10 11  1  0
 11 12  1  0
 12 13  3  0
 14 15  2  0
 14 27  1  0
 15 16  1  0
 16 17  2  0
 17 18  1  0
 17 26  1  0
 18 19  1  0
 18 23  2  3
 19 20  2  3
 20 21  1  0
 20 22  1  0
 23 24  1  0
 24 25  1  0
 26 27  2  0
 28 29  1  0
 29 30  2  0
 29 33  1  0
 30 31  1  0
 31 32  1  0
 32 33  1  0
M  END
