
     RDKit          3D

 34 36  0  0  0  0  0  0  0  0999 V2000
    7.6140    0.5360   -3.6600 C   0  0  0  0  0  0  0  0  0  0  0  0
    7.8080   -0.6110   -2.7240 C   0  0  0  0  0  0  0  0  0  0  0  0
    6.5740   -0.8770   -2.0390 N   0  0  0  0  0  0  0  0  0  0  0  0
    6.0020    0.1100   -1.1830 C   0  0  0  0  0  0  0  0  0  0  0  0
    6.6480    1.2960   -0.9270 C   0  0  0  0  0  0  0  0  0  0  0  0
    6.0320    2.2060   -0.0940 C   0  0  0  0  0  0  0  0  0  0  0  0
    6.6940    3.3610    0.1370 F   0  0  0  0  0  0  0  0  0  0  0  0
    4.8150    1.9140    0.4500 C   0  0  0  0  0  0  0  0  0  0  0  0
    4.1210    0.7200    0.2180 C   0  0  0  0  0  0  0  0  0  0  0  0
    2.8730    0.5490    0.8320 N   0  0  0  0  0  0  0  0  0  0  0  0
    2.0810   -0.6200    0.8860 C   0  0  0  0  0  0  0  0  0  0  0  0
    2.5260   -1.6530    0.3260 O   0  0  0  0  0  0  0  0  0  0  0  0
    0.7790   -0.6670    1.5630 C   0  0  0  0  0  0  0  0  0  0  0  0
    0.1880    0.3870    2.2070 C   0  0  0  0  0  0  0  0  0  0  0  0
   -1.0560    0.2650    2.8300 C   0  0  0  0  0  0  0  0  0  0  0  0
   -1.6970   -0.9480    2.7900 C   0  0  0  0  0  0  0  0  0  0  0  0
   -2.9220   -1.0810    3.3990 O   0  0  0  0  0  0  0  0  0  0  0  0
   -4.0700   -0.8200    2.6540 C   0  0  0  0  0  0  0  0  0  0  0  0
   -5.3260   -0.9310    3.1880 C   0  0  0  0  0  0  0  0  0  0  0  0
   -6.4130   -0.6580    2.3960 C   0  0  0  0  0  0  0  0  0  0  0  0
   -6.3260   -0.2780    1.0890 C   0  0  0  0  0  0  0  0  0  0  0  0
   -7.4930    0.0060    0.2700 C   0  0  0  0  0  0  0  0  0  0  0  0
   -8.6420   -0.0970    0.7630 O   0  0  0  0  0  0  0  0  0  0  0  0
   -7.3830    0.3900   -1.0540 O   0  0  0  0  0  0  0  0  0  0  0  0
   -8.5360    0.6680   -1.8560 C   0  0  0  0  0  0  0  0  0  0  0  0
   -5.0360   -0.1630    0.5370 C   0  0  0  0  0  0  0  0  0  0  0  0
   -4.9650    0.2210   -0.7800 O   0  0  0  0  0  0  0  0  0  0  0  0
   -3.8010    0.3910   -1.5060 C   0  0  2  0  0  0  0  0  0  0  0  0
   -3.7460    1.6230   -2.1510 F   0  0  0  0  0  0  0  0  0  0  0  0
   -3.8050   -0.5390   -2.5630 F   0  0  0  0  0  0  0  0  0  0  0  0
   -3.9470   -0.4370    1.3320 C   0  0  0  0  0  0  0  0  0  0  0  0
   -1.0930   -1.9980    2.1400 C   0  0  0  0  0  0  0  0  0  0  0  0
    0.1060   -1.8270    1.5570 N   0  0  0  0  0  0  0  0  0  0  0  0
    4.7400   -0.1660   -0.6050 C   0  0  0  0  0  0  0  0  0  0  0  0
  1  2  1  0
  2  3  1  0
  3  4  1  0
  4  5  2  0
  4 34  1  0
  5  6  1  0
  6  7  1  0
  6  8  2  0
  8  9  1  0
  9 10  1  0
  9 34  2  0
 10 11  1  0
 11 12  2  0
 11 13  1  0
 13 14  2  0
 13 33  1  0
 14 15  1  0
 15 16  2  0
 16 17  1  0
 16 32  1  0
 17 18  1  0
 18 19  2  0
 18 31  1  0
 19 20  1  0
 20 21  2  0
 21 22  1  0
 21 26  1  0
 22 23  2  0
 22 24  1  0
 24 25  1  0
 26 27  1  0
 26 31  2  0
 27 28  1  0
 28 29  1  6
 28 30  1  0
 32 33  2  0
M  END
