
     RDKit          3D

 34 36  0  0  0  0  0  0  0  0999 V2000
   -2.7300    4.0210    0.2420 C   0  0  0  0  0  0  0  0  0  0  0  0
   -1.6580    3.0030    0.1490 C   0  0  0  0  0  0  0  0  0  0  0  0
   -0.3230    3.2850    0.2640 N   0  0  0  0  0  0  0  0  0  0  0  0
    0.3230    2.1210    0.1500 C   0  0  0  0  0  0  0  0  0  0  0  0
   -0.5810    1.0900   -0.0370 C   0  0  0  0  0  0  0  0  0  0  0  0
   -0.3800   -0.2600   -0.1900 C   0  0  0  0  0  0  0  0  0  0  0  0
    0.9550   -0.8510   -0.1900 C   0  0  0  0  0  0  0  0  0  0  0  0
    2.0160   -0.2000   -0.0540 O   0  0  0  0  0  0  0  0  0  0  0  0
    1.1300   -2.2310   -0.3470 O   0  0  0  0  0  0  0  0  0  0  0  0
    2.4110   -2.8360   -0.3510 C   0  0  0  0  0  0  0  0  0  0  0  0
    3.1600   -2.6190    0.8950 C   0  0  0  0  0  0  0  0  0  0  0  0
    2.6840   -3.0610    2.2010 C   0  0  0  0  0  0  0  0  0  0  0  0
    3.3180   -2.8760    3.2530 O   0  0  0  0  0  0  0  0  0  0  0  0
    4.3210   -1.9960    0.8500 C   0  0  0  0  0  0  0  0  0  0  0  0
    4.8720   -1.5240   -0.3900 N   0  0  0  0  0  0  0  0  0  0  0  0
    5.2330   -0.1520   -0.4780 C   0  0  0  0  0  0  0  0  0  0  0  0
    5.7660    0.3780   -1.6340 C   0  0  0  0  0  0  0  0  0  0  0  0
    6.1230    1.7180   -1.7300 C   0  0  0  0  0  0  0  0  0  0  0  0
    5.9520    2.5690   -0.6580 C   0  0  0  0  0  0  0  0  0  0  0  0
    6.3030    3.8820   -0.7590 F   0  0  0  0  0  0  0  0  0  0  0  0
    5.4190    2.0420    0.4980 C   0  0  0  0  0  0  0  0  0  0  0  0
    5.0660    0.7140    0.5950 C   0  0  0  0  0  0  0  0  0  0  0  0
   -1.4960   -1.0480   -0.3460 C   0  0  0  0  0  0  0  0  0  0  0  0
   -2.7930   -0.5090   -0.3520 C   0  0  0  0  0  0  0  0  0  0  0  0
   -3.9090   -1.4250   -0.4680 C   0  0  0  0  0  0  0  0  0  0  0  0
   -3.6590   -2.6440   -0.7870 O   0  0  0  0  0  0  0  0  0  0  0  0
   -5.2300   -1.1490   -0.2730 O   0  0  0  0  0  0  0  0  0  0  0  0
   -6.2750   -2.0910   -0.3990 C   0  0  0  0  0  0  0  0  0  0  0  0
   -7.5700   -1.3290   -0.0900 C   0  0  2  0  0  0  0  0  0  0  0  0
   -8.6680   -2.1290   -0.1760 F   0  0  0  0  0  0  0  0  0  0  0  0
   -7.6830   -0.2280   -0.8810 F   0  0  0  0  0  0  0  0  0  0  0  0
   -2.8740    0.8480   -0.1940 C   0  0  0  0  0  0  0  0  0  0  0  0
   -4.2040    1.4800   -0.2570 C   0  0  0  0  0  0  0  0  0  0  0  0
   -1.8060    1.6820   -0.0320 N   0  0  0  0  0  0  0  0  0  0  0  0
  1  2  1  0
  2  3  2  0
  2 34  1  0
  3  4  1  0
  4  5  2  0
  5  6  1  0
  5 34  1  0
  6  7  1  0
  6 23  2  0
  7  8  2  0
  7  9  1  0
  9 10  1  0
 10 11  1  0
 11 12  1  0
 11 14  2  3
 12 13  2  0
 14 15  1  0
 15 16  1  0
 16 17  2  0
 16 22  1  0
 17 18  1  0
 18 19  2  0
 19 20  1  0
 19 21  1  0
 21 22  2  0
 23 24  1  0
 24 25  1  0
 24 32  2  0
 25 26  2  0
 25 27  1  0
 27 28  1  0
 28 29  1  0
 29 30  1  6
 29 31  1  0
 32 33  1  0
 32 34  1  0
M  END
