
     RDKit          3D

 34 36  0  0  0  0  0  0  0  0999 V2000
   -6.4780    4.0670   -1.3260 C   0  0  0  0  0  0  0  0  0  0  0  0
   -5.0020    3.8880   -1.6020 C   0  0  0  0  0  0  0  0  0  0  0  0
   -4.6240    2.5120   -1.9200 C   0  0  0  0  0  0  0  0  0  0  0  0
   -3.8720    1.7080   -1.1340 C   0  0  0  0  0  0  0  0  0  0  0  0
   -3.5780    0.3720   -1.6020 C   0  0  0  0  0  0  0  0  0  0  0  0
   -4.3380   -0.2190   -2.5330 O   0  0  0  0  0  0  0  0  0  0  0  0
   -3.9270   -1.4030   -2.8260 C   0  0  0  0  0  0  0  0  0  0  0  0
   -4.4870   -2.3870   -3.7990 C   0  0  0  0  0  0  0  0  0  0  0  0
   -2.8230   -1.6560   -2.0640 C   0  0  0  0  0  0  0  0  0  0  0  0
   -2.6090   -0.4920   -1.2790 C   0  0  0  0  0  0  0  0  0  0  0  0
   -1.4190   -0.3790   -0.4550 C   0  0  0  0  0  0  0  0  0  0  0  0
   -0.9850    0.6450    0.0810 O   0  0  0  0  0  0  0  0  0  0  0  0
   -0.6440   -1.5370   -0.2110 O   0  0  0  0  0  0  0  0  0  0  0  0
    0.4920   -1.4460    0.5740 C   0  0  0  0  0  0  0  0  0  0  0  0
    1.7360   -1.1830    0.0530 C   0  0  0  0  0  0  0  0  0  0  0  0
    2.8900   -1.0890    0.8370 C   0  0  0  0  0  0  0  0  0  0  0  0
    4.1360   -0.8160    0.2320 N   0  0  0  0  0  0  0  0  0  0  0  0
    5.3820   -0.6840    0.8460 C   0  0  0  0  0  0  0  0  0  0  0  0
    5.4900   -0.8080    2.0640 O   0  0  0  0  0  0  0  0  0  0  0  0
    6.5890   -0.4020    0.1100 N   0  0  0  0  0  0  0  0  0  0  0  0
    7.8650   -0.2720    0.7850 C   0  0  1  0  0  0  0  0  0  0  0  0
    9.1330   -0.4650    0.0810 C   0  0  0  0  0  0  0  0  0  0  0  0
    8.6970    0.9660    0.3180 C   0  0  0  0  0  0  0  0  0  0  0  0
    2.7150   -1.2760    2.1840 C   0  0  0  0  0  0  0  0  0  0  0  0
    1.4650   -1.5450    2.7580 C   0  0  0  0  0  0  0  0  0  0  0  0
    0.3600   -1.6270    1.9370 C   0  0  0  0  0  0  0  0  0  0  0  0
   -0.9000   -1.8930    2.4670 O   0  0  0  0  0  0  0  0  0  0  0  0
   -1.0250   -2.0800    3.8850 C   0  0  0  0  0  0  0  0  0  0  0  0
   -2.4160   -2.3460    4.2370 C   0  0  0  0  0  0  0  0  0  0  0  0
   -3.5320   -2.5460    4.5280 N   0  0  0  0  0  0  0  0  0  0  0  0
   -3.5660    2.2330    0.1950 C   0  0  2  0  0  0  0  0  0  0  0  0
   -4.6760    3.0260    0.6110 F   0  0  0  0  0  0  0  0  0  0  0  0
   -2.4840    3.0600    0.2850 F   0  0  0  0  0  0  0  0  0  0  0  0
   -3.4470    1.2240    1.1600 F   0  0  0  0  0  0  0  0  0  0  0  0
  1  2  1  0
  2  3  1  0
  3  4  2  3
  4  5  1  0
  4 31  1  0
  5  6  1  0
  5 10  2  0
  6  7  1  0
  7  8  1  0
  7  9  2  0
  9 10  1  0
 10 11  1  0
 11 12  2  0
 11 13  1  0
 13 14  1  0
 14 15  2  0
 14 26  1  0
 15 16  1  0
 16 17  1  0
 16 24  2  0
 17 18  1  0
 18 19  2  0
 18 20  1  0
 21 20  1  6
 21 22  1  0
 21 23  1  0
 22 23  1  0
 24 25  1  0
 25 26  2  0
 26 27  1  0
 27 28  1  0
 28 29  1  0
 29 30  3  0
 31 32  1  1
 31 33  1  0
 31 34  1  0
M  END
