
     RDKit          3D

 34 36  0  0  0  0  0  0  0  0999 V2000
   -8.7870    0.3270   -0.0410 C   0  0  0  0  0  0  0  0  0  0  0  0
   -7.7430   -0.5680    0.0820 O   0  0  0  0  0  0  0  0  0  0  0  0
   -6.3910   -0.4330   -0.0130 C   0  0  0  0  0  0  0  0  0  0  0  0
   -5.7330    0.7690   -0.2890 C   0  0  0  0  0  0  0  0  0  0  0  0
   -4.3480    0.8820   -0.3970 C   0  0  0  0  0  0  0  0  0  0  0  0
   -3.6860    2.0600   -0.6550 O   0  0  0  0  0  0  0  0  0  0  0  0
   -4.3030    3.2830   -0.8480 C   0  0  0  0  0  0  0  0  0  0  0  0
   -3.6510   -0.2910   -0.2070 C   0  0  0  0  0  0  0  0  0  0  0  0
   -4.3040   -1.4940    0.0760 C   0  0  0  0  0  0  0  0  0  0  0  0
   -5.6530   -1.6020    0.1750 C   0  0  0  0  0  0  0  0  0  0  0  0
   -6.2610   -2.8360    0.4400 O   0  0  0  0  0  0  0  0  0  0  0  0
   -3.3250   -2.5790    0.5040 C   0  0  0  0  0  0  0  0  0  0  0  0
   -2.5510   -1.9160    1.6930 C   0  0  0  0  0  0  0  0  0  0  0  0
   -1.8970   -0.6430    1.3050 C   0  0  0  0  0  0  0  0  0  0  0  0
   -2.2000   -0.4410   -0.2460 C   0  0  2  0  0  0  0  0  0  0  0  0
   -1.3790    0.4980   -0.7740 O   0  0  0  0  0  0  0  0  0  0  0  0
   -0.1070    0.0310   -1.2590 C   0  0  0  0  0  0  0  0  0  0  0  0
    0.1010   -1.1820   -1.1740 O   0  0  0  0  0  0  0  0  0  0  0  0
    0.7960    0.9270   -1.7560 N   0  0  0  0  0  0  0  0  0  0  0  0
    2.1970    0.6470   -2.1180 C   0  0  0  0  0  0  0  0  0  0  0  0
    2.7910    0.1040   -0.8270 C   0  0  0  0  0  0  0  0  0  0  0  0
    2.3890   -1.0610   -0.2390 N   0  0  0  0  0  0  0  0  0  0  0  0
    3.2170   -1.4160    0.7240 C   0  0  0  0  0  0  0  0  0  0  0  0
    4.1930   -0.4530    0.7660 N   0  0  0  0  0  0  0  0  0  0  0  0
    3.8980    0.4720   -0.2010 C   0  0  0  0  0  0  0  0  0  0  0  0
    4.5530    1.8250   -0.1390 C   0  0  0  0  0  0  0  0  0  0  0  0
    3.8240    2.9140   -0.1630 F   0  0  0  0  0  0  0  0  0  0  0  0
    5.8860    1.8170   -0.0350 C   0  0  0  0  0  0  0  0  0  0  0  0
    6.5260    0.5500   -0.0520 C   0  0  0  0  0  0  0  0  0  0  0  0
    7.7300    0.1340    0.1430 C   0  0  0  0  0  0  0  0  0  0  0  0
    8.0170   -1.3510    0.0070 C   0  0  0  0  0  0  0  0  0  0  0  0
    8.8040    1.0240    0.6170 C   0  0  2  0  0  0  0  0  0  0  0  0
    8.7280    1.0760    2.0210 F   0  0  0  0  0  0  0  0  0  0  0  0
    8.6450    2.2750    0.0910 F   0  0  0  0  0  0  0  0  0  0  0  0
  1  2  1  0
  2  3  1  0
  3  4  2  0
  3 10  1  0
  4  5  1  0
  5  6  1  0
  5  8  2  0
  6  7  1  0
  8  9  1  0
  8 15  1  0
  9 10  2  0
  9 12  1  0
 10 11  1  0
 12 13  1  0
 13 14  1  0
 14 15  1  0
 15 16  1  1
 16 17  1  0
 17 18  2  0
 17 19  1  0
 19 20  1  0
 20 21  1  0
 21 22  1  0
 21 25  2  0
 22 23  2  0
 23 24  1  0
 24 25  1  0
 25 26  1  0
 26 27  1  0
 26 28  2  3
 28 29  1  0
 29 30  2  3
 30 31  1  0
 30 32  1  0
 32 33  1  1
 32 34  1  0
M  END
