
     RDKit          3D

 34 36  0  0  0  0  0  0  0  0999 V2000
    6.1980    2.3810   -0.5750 C   0  0  0  0  0  0  0  0  0  0  0  0
    5.5460    1.1390   -0.1300 C   0  0  0  0  0  0  0  0  0  0  0  0
    4.2720    1.0640    0.2340 O   0  0  0  0  0  0  0  0  0  0  0  0
    3.9590   -0.1510    0.5810 C   0  0  0  0  0  0  0  0  0  0  0  0
    2.6460   -0.5950    1.0350 C   0  0  0  0  0  0  0  0  0  0  0  0
    1.5140   -0.1450    0.4480 C   0  0  0  0  0  0  0  0  0  0  0  0
    1.6820    0.7180   -0.5570 F   0  0  0  0  0  0  0  0  0  0  0  0
    0.2480   -0.5880    0.9250 C   0  0  0  0  0  0  0  0  0  0  0  0
   -0.9450   -0.2650    0.4810 C   0  0  0  0  0  0  0  0  0  0  0  0
   -1.2010    0.6320   -0.6150 C   0  0  0  0  0  0  0  0  0  0  0  0
   -2.3890    0.9530   -1.0500 C   0  0  0  0  0  0  0  0  0  0  0  0
   -3.6320    0.4660   -0.5070 C   0  0  0  0  0  0  0  0  0  0  0  0
   -4.8990    0.8360   -1.0100 C   0  0  0  0  0  0  0  0  0  0  0  0
   -5.8390    0.1950   -0.2630 C   0  0  0  0  0  0  0  0  0  0  0  0
   -7.3080    0.2580   -0.3910 C   0  0  0  0  0  0  0  0  0  0  0  0
   -7.8130    0.9490   -1.3000 O   0  0  0  0  0  0  0  0  0  0  0  0
   -8.1210   -0.4610    0.5100 N   0  0  0  0  0  0  0  0  0  0  0  0
   -9.5290   -0.4940    0.5120 C   0  0  0  0  0  0  0  0  0  0  0  0
  -10.3950    0.0840   -0.2580 C   0  0  0  0  0  0  0  0  0  0  0  0
  -10.2170    0.9110   -1.3210 F   0  0  0  0  0  0  0  0  0  0  0  0
  -11.7910   -0.2720    0.1680 C   0  0  0  0  0  0  0  0  0  0  0  0
  -11.5750   -1.1570    1.3210 C   0  0  0  0  0  0  0  0  0  0  0  0
  -10.2940   -1.2740    1.5040 C   0  0  0  0  0  0  0  0  0  0  0  0
   -9.7640   -2.0350    2.5020 F   0  0  0  0  0  0  0  0  0  0  0  0
   -5.1680   -0.5220    0.6390 N   0  0  0  0  0  0  0  0  0  0  0  0
   -3.8970   -0.3370    0.4630 O   0  0  0  0  0  0  0  0  0  0  0  0
    5.0900   -0.9210    0.4400 C   0  0  0  0  0  0  0  0  0  0  0  0
    6.1250   -0.0940   -0.0220 C   0  0  0  0  0  0  0  0  0  0  0  0
    7.4670   -0.5690   -0.2890 C   0  0  0  0  0  0  0  0  0  0  0  0
    7.7240   -1.7920   -0.1200 O   0  0  0  0  0  0  0  0  0  0  0  0
    8.5580    0.2130   -0.7330 N   0  0  0  0  0  0  0  0  0  0  0  0
    9.8390   -0.3570   -0.9670 C   0  0  0  0  0  0  0  0  0  0  0  0
   10.4640   -1.0020    0.2350 C   0  0  0  0  0  0  0  0  0  0  0  0
   10.6580   -0.1150    1.2980 O   0  0  0  0  0  0  0  0  0  0  0  0
  1  2  1  0
  2  3  1  0
  2 28  2  0
  3  4  1  0
  4  5  1  0
  4 27  2  0
  5  6  2  3
  6  7  1  0
  6  8  1  0
  8  9  2  3
  9 10  1  0
 10 11  2  3
 11 12  1  0
 12 13  2  0
 12 26  1  0
 13 14  1  0
 14 15  1  0
 14 25  2  0
 15 16  2  0
 15 17  1  0
 17 18  1  0
 18 19  2  0
 18 23  1  0
 19 20  1  0
 19 21  1  0
 21 22  1  0
 22 23  2  0
 23 24  1  0
 25 26  1  0
 27 28  1  0
 28 29  1  0
 29 30  2  0
 29 31  1  0
 31 32  1  0
 32 33  1  0
 33 34  1  0
M  END
