
     RDKit          3D

 34 36  0  0  0  0  0  0  0  0999 V2000
    5.3870    5.1690    0.3770 C   0  0  0  0  0  0  0  0  0  0  0  0
    3.9750    4.6300    0.2090 C   0  0  0  0  0  0  0  0  0  0  0  0
    3.0060    5.4020    0.2610 O   0  0  0  0  0  0  0  0  0  0  0  0
    3.7750    3.2400   -0.0080 N   0  0  0  0  0  0  0  0  0  0  0  0
    2.5200    2.6110   -0.1920 C   0  0  0  0  0  0  0  0  0  0  0  0
    1.4030    3.3210   -0.5700 C   0  0  0  0  0  0  0  0  0  0  0  0
    0.1990    2.6880   -0.8270 C   0  0  0  0  0  0  0  0  0  0  0  0
    0.0500    1.3300   -0.7220 C   0  0  0  0  0  0  0  0  0  0  0  0
   -1.1820    0.7060   -1.0140 N   0  0  0  0  0  0  0  0  0  0  0  0
   -2.4140    1.3200   -1.3200 C   0  0  0  0  0  0  0  0  0  0  0  0
   -2.4760    2.5700   -1.3590 O   0  0  0  0  0  0  0  0  0  0  0  0
   -3.6670    0.5510   -1.6090 C   0  0  0  0  0  0  0  0  0  0  0  0
   -3.6500   -0.7650   -1.3090 O   0  0  0  0  0  0  0  0  0  0  0  0
   -3.5810   -1.1520   -0.0120 C   0  0  0  0  0  0  0  0  0  0  0  0
   -4.7630   -0.7190    0.8260 C   0  0  0  0  0  0  0  0  0  0  0  0
   -6.0670   -1.2680    0.3630 C   0  0  2  0  0  0  0  0  0  0  0  0
   -6.4840   -0.9130   -1.0180 C   0  0  0  0  0  0  0  0  0  0  0  0
   -7.1920   -0.8230    1.3010 C   0  0  0  0  0  0  0  0  0  0  0  0
    1.1760    0.6270   -0.3400 C   0  0  0  0  0  0  0  0  0  0  0  0
    1.0680   -0.7020   -0.2060 N   0  0  0  0  0  0  0  0  0  0  0  0
    2.1150   -1.4970    0.1850 C   0  0  0  0  0  0  0  0  0  0  0  0
    1.9640   -2.8650    0.3120 C   0  0  0  0  0  0  0  0  0  0  0  0
    3.0410   -3.6450    0.7100 C   0  0  0  0  0  0  0  0  0  0  0  0
    4.2770   -3.0890    0.9870 C   0  0  0  0  0  0  0  0  0  0  0  0
    5.2940   -3.9270    1.3760 O   0  0  0  0  0  0  0  0  0  0  0  0
    6.1920   -4.5480    0.4790 C   0  0  1  0  0  0  0  0  0  0  0  0
    7.0690   -5.3100    1.2250 F   0  0  0  0  0  0  0  0  0  0  0  0
    5.5360   -5.4100   -0.3800 F   0  0  0  0  0  0  0  0  0  0  0  0
    6.9290   -3.6010   -0.2310 F   0  0  0  0  0  0  0  0  0  0  0  0
    4.4100   -1.7250    0.8560 C   0  0  0  0  0  0  0  0  0  0  0  0
    3.3250   -0.9450    0.4560 C   0  0  0  0  0  0  0  0  0  0  0  0
    3.4780    0.4400    0.3270 C   0  0  0  0  0  0  0  0  0  0  0  0
    4.6080    0.9000    0.5910 O   0  0  0  0  0  0  0  0  0  0  0  0
    2.4150    1.2190   -0.0680 C   0  0  0  0  0  0  0  0  0  0  0  0
  1  2  1  0
  2  3  2  0
  2  4  1  0
  4  5  1  0
  5  6  2  0
  5 34  1  0
  6  7  1  0
  7  8  2  0
  8  9  1  0
  8 19  1  0
  9 10  1  0
 10 11  2  0
 10 12  1  0
 12 13  1  0
 13 14  1  0
 14 15  1  0
 15 16  1  0
 16 17  1  6
 16 18  1  0
 19 20  1  0
 19 34  2  0
 20 21  1  0
 21 22  2  0
 21 31  1  0
 22 23  1  0
 23 24  2  0
 24 25  1  0
 24 30  1  0
 25 26  1  0
 26 27  1  1
 26 28  1  0
 26 29  1  0
 30 31  2  0
 31 32  1  0
 32 33  2  0
 32 34  1  0
M  END
