
     RDKit          3D

 31 34  0  0  0  0  0  0  0  0999 V2000
    8.2540    0.1720    1.0000 C   0  0  0  0  0  0  0  0  0  0  0  0
    6.8510   -0.0210    0.6110 C   0  0  0  0  0  0  0  0  0  0  0  0
    6.5660   -0.5010   -0.6450 C   0  0  0  0  0  0  0  0  0  0  0  0
    5.2410   -0.7000   -1.0560 C   0  0  0  0  0  0  0  0  0  0  0  0
    4.1850   -0.4260   -0.2260 C   0  0  0  0  0  0  0  0  0  0  0  0
    4.4830    0.0540    1.0290 C   0  0  0  0  0  0  0  0  0  0  0  0
    5.8010    0.2590    1.4550 C   0  0  0  0  0  0  0  0  0  0  0  0
    6.0380    0.7290    2.6890 F   0  0  0  0  0  0  0  0  0  0  0  0
    2.9430   -0.7090   -0.8700 N   0  0  0  0  0  0  0  0  0  0  0  0
    1.6460   -0.2340   -0.6240 C   0  0  0  0  0  0  0  0  0  0  0  0
    0.7280   -0.6040   -1.4020 O   0  0  0  0  0  0  0  0  0  0  0  0
    1.3110    0.6510    0.4640 C   0  0  0  0  0  0  0  0  0  0  0  0
   -0.0210    1.1210    0.4630 O   0  0  0  0  0  0  0  0  0  0  0  0
   -1.1530    0.3120    0.5490 C   0  0  0  0  0  0  0  0  0  0  0  0
   -0.8870   -0.8990    0.6320 O   0  0  0  0  0  0  0  0  0  0  0  0
   -2.4640    0.9330    0.5340 C   0  0  0  0  0  0  0  0  0  0  0  0
   -2.7970    2.2830    0.5000 C   0  0  0  0  0  0  0  0  0  0  0  0
   -1.8650    3.4140    0.4640 C   0  0  0  0  0  0  0  0  0  0  0  0
   -4.1960    2.4180    0.5060 C   0  0  0  0  0  0  0  0  0  0  0  0
   -4.9320    3.6340    0.4810 N   0  0  0  0  0  0  0  0  0  0  0  0
   -4.7060    1.1940    0.5410 N   0  0  0  0  0  0  0  0  0  0  0  0
   -3.6700    0.2930    0.5550 C   0  0  0  0  0  0  0  0  0  0  0  0
   -4.0910   -1.0600    0.5460 N   0  0  0  0  0  0  0  0  0  0  0  0
   -3.3630   -1.9760   -0.2930 C   0  0  0  0  0  0  0  0  0  0  0  0
   -4.4360   -2.4080   -1.3530 C   0  0  0  0  0  0  0  0  0  0  0  0
   -3.8350   -3.3010   -2.2170 O   0  0  0  0  0  0  0  0  0  0  0  0
   -5.2140   -1.4090    1.3880 C   0  0  0  0  0  0  0  0  0  0  0  0
   -6.1570   -0.4120    1.4580 O   0  0  0  0  0  0  0  0  0  0  0  0
   -6.0400    0.6380    0.5840 C   0  0  0  0  0  0  0  0  0  0  0  0
    3.3240   -1.6870   -1.9290 C   0  0  0  0  0  0  0  0  0  0  0  0
    4.6780   -1.1920   -2.3290 C   0  0  0  0  0  0  0  0  0  0  0  0
  1  2  1  0
  2  3  2  0
  2  7  1  0
  3  4  1  0
  4  5  2  0
  4 31  1  0
  5  6  1  0
  5  9  1  0
  6  7  2  0
  7  8  1  0
  9 10  1  0
  9 30  1  0
 10 11  2  0
 10 12  1  0
 12 13  1  0
 13 14  1  0
 14 15  2  0
 14 16  1  0
 16 17  1  0
 16 22  2  0
 17 18  1  0
 17 19  2  0
 19 20  1  0
 19 21  1  0
 21 22  1  0
 21 29  1  0
 22 23  1  0
 23 24  1  0
 23 27  1  0
 24 25  1  0
 25 26  1  0
 27 28  1  0
 28 29  1  0
 30 31  1  0
M  END
