
     RDKit          3D

 29 31  0  0  0  0  0  0  0  0999 V2000
   -1.9230   -2.9390   -0.1660 C   0  0  0  0  0  0  0  0  0  0  0  0
   -2.9570   -2.1560   -0.1620 C   0  0  0  0  0  0  0  0  0  0  0  0
   -3.1710   -1.0240   -1.0350 C   0  0  0  0  0  0  0  0  0  0  0  0
   -3.9440   -1.1340   -2.1860 C   0  0  0  0  0  0  0  0  0  0  0  0
   -4.4900   -2.3380   -2.4830 F   0  0  0  0  0  0  0  0  0  0  0  0
   -4.1650   -0.0630   -3.0190 C   0  0  0  0  0  0  0  0  0  0  0  0
   -3.5960    1.1480   -2.6900 C   0  0  0  0  0  0  0  0  0  0  0  0
   -2.8220    1.3110   -1.5620 C   0  0  0  0  0  0  0  0  0  0  0  0
   -2.2580    2.5150   -1.2470 F   0  0  0  0  0  0  0  0  0  0  0  0
   -2.6280    0.2110   -0.7570 C   0  0  0  0  0  0  0  0  0  0  0  0
   -1.8230    0.3010    0.4550 N   0  0  0  0  0  0  0  0  0  0  0  0
   -2.4580    0.6120    1.7020 C   0  0  0  0  0  0  0  0  0  0  0  0
   -3.1720    1.9740    1.6180 C   0  0  0  0  0  0  0  0  0  0  0  0
   -3.7880    2.1970    2.9310 N   0  0  0  0  0  0  0  0  0  0  0  0
   -0.4320    0.0770    0.3520 C   0  0  0  0  0  0  0  0  0  0  0  0
    0.4270    0.1070    1.4130 C   0  0  0  0  0  0  0  0  0  0  0  0
    1.8010   -0.1150    1.2420 C   0  0  0  0  0  0  0  0  0  0  0  0
    2.3680   -0.3710    0.0240 C   0  0  0  0  0  0  0  0  0  0  0  0
    3.7680   -0.5170   -0.2600 C   0  0  0  0  0  0  0  0  0  0  0  0
    4.0700   -1.2940   -1.3580 N   0  0  0  0  0  0  0  0  0  0  0  0
    5.3460   -1.4400   -1.7370 C   0  0  0  0  0  0  0  0  0  0  0  0
    5.5830   -2.1650   -2.7580 O   0  0  0  0  0  0  0  0  0  0  0  0
    6.3420   -0.8440   -1.0660 N   0  0  0  0  0  0  0  0  0  0  0  0
    6.1090   -0.0810    0.0050 C   0  0  0  0  0  0  0  0  0  0  0  0
    7.0440    0.4620    0.6140 O   0  0  0  0  0  0  0  0  0  0  0  0
    4.7670    0.0860    0.4180 C   0  0  0  0  0  0  0  0  0  0  0  0
    4.5750    0.9510    1.5070 N   0  0  0  0  0  0  0  0  0  0  0  0
    1.4670   -0.3960   -1.0460 C   0  0  0  0  0  0  0  0  0  0  0  0
    0.1320   -0.1850   -0.9010 C   0  0  0  0  0  0  0  0  0  0  0  0
  1  2  2  0
  2  3  1  0
  3  4  2  0
  3 10  1  0
  4  5  1  0
  4  6  1  0
  6  7  2  0
  7  8  1  0
  8  9  1  0
  8 10  2  0
 10 11  1  0
 11 12  1  0
 11 15  1  0
 12 13  1  0
 13 14  1  0
 15 16  2  0
 15 29  1  0
 16 17  1  0
 17 18  2  0
 18 19  1  0
 18 28  1  0
 19 20  1  0
 19 26  2  0
 20 21  1  0
 21 22  2  0
 21 23  1  0
 23 24  1  0
 24 25  2  0
 24 26  1  0
 26 27  1  0
 28 29  2  0
M  CHG  2  14   1  27   1
M  END
