
     RDKit          3D

 29 31  0  0  0  0  0  0  0  0999 V2000
   -8.0710    2.6940   -0.7400 N   0  0  0  0  0  0  0  0  0  0  0  0
   -7.2670    1.4730   -0.5340 C   0  0  0  0  0  0  0  0  0  0  0  0
   -5.8240    1.6920   -0.6640 C   0  0  0  0  0  0  0  0  0  0  0  0
   -5.3750    2.9870   -0.7960 F   0  0  0  0  0  0  0  0  0  0  0  0
   -4.9080    0.7480   -0.6160 C   0  0  0  0  0  0  0  0  0  0  0  0
   -3.5430    1.0720   -0.7550 C   0  0  0  0  0  0  0  0  0  0  0  0
   -2.5160    0.2020   -0.6550 C   0  0  0  0  0  0  0  0  0  0  0  0
   -1.1310    0.4290   -0.9060 N   0  0  0  0  0  0  0  0  0  0  0  0
   -0.2080   -0.3070   -0.1130 C   0  0  0  0  0  0  0  0  0  0  0  0
   -0.6680   -1.0280    0.8120 O   0  0  0  0  0  0  0  0  0  0  0  0
    1.1850   -0.3140   -0.2790 O   0  0  0  0  0  0  0  0  0  0  0  0
    1.9280   -1.1750    0.6300 C   0  0  0  0  0  0  0  0  0  0  0  0
    2.5790   -0.4440    1.7070 C   0  0  0  0  0  0  0  0  0  0  0  0
    3.5640    0.4750    1.2490 N   0  0  0  0  0  0  0  0  0  0  0  0
    4.7800   -0.0540    0.6490 C   0  0  0  0  0  0  0  0  0  0  0  0
    4.9250   -1.3780    0.3710 C   0  0  0  0  0  0  0  0  0  0  0  0
    6.0230   -1.8980   -0.3090 C   0  0  0  0  0  0  0  0  0  0  0  0
    6.9950   -1.0530   -0.7060 C   0  0  0  0  0  0  0  0  0  0  0  0
    8.0820   -1.4990   -1.3670 F   0  0  0  0  0  0  0  0  0  0  0  0
    6.9070    0.3150   -0.4360 C   0  0  0  0  0  0  0  0  0  0  0  0
    8.0250    1.1110   -0.9640 C   0  0  0  0  0  0  0  0  0  0  0  0
    8.5010    1.9240    0.1720 N   0  0  0  0  0  0  0  0  0  0  0  0
    5.8050    0.7910    0.2290 C   0  0  0  0  0  0  0  0  0  0  0  0
   -2.8760   -1.1260   -0.3810 C   0  0  0  0  0  0  0  0  0  0  0  0
   -4.1630   -1.5020   -0.2290 C   0  0  0  0  0  0  0  0  0  0  0  0
   -5.2010   -0.5790   -0.3530 C   0  0  0  0  0  0  0  0  0  0  0  0
   -6.3010   -1.2880   -0.3780 C   0  0  0  0  0  0  0  0  0  0  0  0
   -6.0910   -2.7270    0.0130 C   0  0  0  0  0  0  0  0  0  0  0  0
   -4.6920   -2.7640    0.2700 N   0  0  0  0  0  0  0  0  0  0  0  0
  1  2  1  0
  2  3  1  0
  3  4  1  0
  3  5  2  3
  5  6  1  0
  5 26  1  0
  6  7  2  0
  7  8  1  0
  7 24  1  0
  8  9  1  0
  9 10  2  0
  9 11  1  0
 11 12  1  0
 12 13  1  0
 13 14  1  0
 14 15  1  0
 15 16  2  0
 15 23  1  0
 16 17  1  0
 17 18  2  0
 18 19  1  0
 18 20  1  0
 20 21  1  0
 20 23  2  0
 21 22  1  0
 24 25  2  0
 25 26  1  0
 25 29  1  0
 26 27  2  0
 27 28  1  0
 28 29  1  0
M  CHG  2   1   1  22   1
M  END
