
     RDKit          3D

 29 31  0  0  0  0  0  0  0  0999 V2000
    3.5720   -3.0810   -2.0020 C   0  0  0  0  0  0  0  0  0  0  0  0
    2.4360   -2.4290   -1.4750 O   0  0  0  0  0  0  0  0  0  0  0  0
    2.5090   -1.2560   -0.7630 C   0  0  0  0  0  0  0  0  0  0  0  0
    3.7570   -0.6590   -0.5340 C   0  0  0  0  0  0  0  0  0  0  0  0
    3.8340    0.5130    0.1780 C   0  0  0  0  0  0  0  0  0  0  0  0
    5.1200    1.1600    0.4570 C   0  0  2  0  0  0  0  0  0  0  0  0
    5.2530    2.4990   -0.0310 N   0  0  0  0  0  0  0  0  0  0  0  0
    6.2930    0.3270    0.0330 C   0  0  0  0  0  0  0  0  0  0  0  0
    6.3830   -0.9530    0.7130 N   0  0  0  0  0  0  0  0  0  0  0  0
    2.6390    1.0430    0.6350 C   0  0  0  0  0  0  0  0  0  0  0  0
    1.4110    0.4730    0.4210 C   0  0  0  0  0  0  0  0  0  0  0  0
    1.3410   -0.7010   -0.2930 C   0  0  0  0  0  0  0  0  0  0  0  0
    0.0510   -1.3380   -0.5410 C   0  0  0  0  0  0  0  0  0  0  0  0
   -1.0300   -0.7730   -0.0750 N   0  0  0  0  0  0  0  0  0  0  0  0
   -1.0020    0.4270    0.6590 C   0  0  0  0  0  0  0  0  0  0  0  0
   -2.1480    0.9280    1.0940 C   0  0  0  0  0  0  0  0  0  0  0  0
   -3.3990    0.3080    0.8510 N   0  0  0  0  0  0  0  0  0  0  0  0
   -4.4890    1.0650    0.4020 C   0  0  0  0  0  0  0  0  0  0  0  0
   -4.3060    2.4460    0.2500 C   0  0  0  0  0  0  0  0  0  0  0  0
   -5.3550    3.2270   -0.1680 C   0  0  0  0  0  0  0  0  0  0  0  0
   -6.5570    2.6040   -0.4240 C   0  0  0  0  0  0  0  0  0  0  0  0
   -7.5840    3.3910   -0.8370 F   0  0  0  0  0  0  0  0  0  0  0  0
   -6.7120    1.2810   -0.2730 N   0  0  0  0  0  0  0  0  0  0  0  0
   -5.6940    0.4700    0.1410 C   0  0  0  0  0  0  0  0  0  0  0  0
   -5.8520   -0.9760    0.2880 C   0  0  1  0  0  0  0  0  0  0  0  0
   -4.9500   -1.7800   -0.6050 C   0  0  0  0  0  0  0  0  0  0  0  0
   -5.7460   -1.4230    1.7380 C   0  0  0  0  0  0  0  0  0  0  0  0
   -7.1600   -1.2690   -0.1000 F   0  0  0  0  0  0  0  0  0  0  0  0
    0.2230    1.0270    0.8930 O   0  0  0  0  0  0  0  0  0  0  0  0
  1  2  1  0
  2  3  1  0
  3  4  2  0
  3 12  1  0
  4  5  1  0
  5  6  1  0
  5 10  2  0
  6  7  1  6
  6  8  1  0
  8  9  1  0
 10 11  1  0
 11 12  2  0
 11 29  1  0
 12 13  1  0
 13 14  2  0
 14 15  1  0
 15 16  2  3
 15 29  1  0
 16 17  1  0
 17 18  1  0
 18 19  2  0
 18 24  1  0
 19 20  1  0
 20 21  2  0
 21 22  1  0
 21 23  1  0
 23 24  2  0
 24 25  1  0
 25 26  1  6
 25 27  1  0
 25 28  1  0
M  CHG  2   7   1   9   1
M  END
