
     RDKit          3D

 16 16  0  0  0  0  0  0  0  0999 V2000
    2.7580    2.6210    0.5140 C   0  0  0  0  0  0  0  0  0  0  0  0
    1.9690    1.5800    0.6960 C   0  0  0  0  0  0  0  0  0  0  0  0
    2.4690    0.2010    0.4940 C   0  0  0  0  0  0  0  0  0  0  0  0
    2.0810   -0.3280   -0.7090 O   0  0  0  0  0  0  0  0  0  0  0  0
    1.6990   -1.6570   -0.6570 C   0  0  1  0  0  0  0  0  0  0  0  0
    1.9100   -2.1810    0.6290 N   0  0  0  0  0  0  0  0  0  0  0  0
    0.3050   -1.8290   -1.2020 C   0  0  2  0  0  0  0  0  0  0  0  0
   -0.2290   -0.5720   -1.4700 O   0  0  0  0  0  0  0  0  0  0  0  0
   -0.6260   -2.5180   -0.2410 C   0  0  0  0  0  0  0  0  0  0  0  0
   -1.2460   -1.5970    0.6010 O   0  0  0  0  0  0  0  0  0  0  0  0
   -2.4690   -1.1570    0.0640 C   0  0  0  0  0  0  0  0  0  0  0  0
   -2.8110    0.2390    0.5060 C   0  0  0  0  0  0  0  0  0  0  0  0
   -2.5880    1.1830   -0.4840 O   0  0  0  0  0  0  0  0  0  0  0  0
   -2.1460    2.4030    0.0350 C   0  0  0  0  0  0  0  0  0  0  0  0
   -0.6710    2.6070   -0.1520 C   0  0  0  0  0  0  0  0  0  0  0  0
    0.2800    1.8410    1.1920 S   0  0  0  0  0  0  0  0  0  0  0  0
  1  2  2  0
  2  3  1  0
  2 16  1  0
  3  4  1  0
  4  5  1  0
  5  6  1  1
  5  7  1  0
  7  8  1  1
  7  9  1  0
  9 10  1  0
 10 11  1  0
 11 12  1  0
 12 13  1  0
 13 14  1  0
 14 15  1  0
 15 16  1  0
M  END
