
     RDKit          3D

 12 11  0  0  0  0  0  0  0  0999 V2000
   -1.7390    1.5180    0.7000 N   0  0  0  0  0  0  0  0  0  0  0  0
   -2.5080    0.3470    0.5300 C   0  0  0  0  0  0  0  0  0  0  0  0
   -3.8030    0.3260    1.0170 O   0  0  0  0  0  0  0  0  0  0  0  0
   -1.9860   -0.6930   -0.0830 C   0  0  0  0  0  0  0  0  0  0  0  0
   -2.7730   -1.8600   -0.2440 N   0  0  0  0  0  0  0  0  0  0  0  0
   -0.6290   -0.6810   -0.5970 C   0  0  0  0  0  0  0  0  0  0  0  0
    0.1510    0.3440   -0.4880 N   0  0  0  0  0  0  0  0  0  0  0  0
    1.4950    0.3050   -1.0180 C   0  0  2  0  0  0  0  0  0  0  0  0
    1.8720   -1.0530   -1.0460 O   0  0  0  0  0  0  0  0  0  0  0  0
    2.4590    1.0530   -0.2090 C   0  0  0  0  0  0  0  0  0  0  0  0
    3.5620    0.4170    0.4040 N   0  0  0  0  0  0  0  0  0  0  0  0
    2.3250    2.2540   -0.0500 O   0  0  0  0  0  0  0  0  0  0  0  0
  1  2  1  0
  2  3  1  0
  2  4  2  3
  4  5  1  0
  4  6  1  0
  6  7  2  3
  7  8  1  0
  8  9  1  1
  8 10  1  0
 10 11  1  0
 10 12  2  0
M  CHG  1  11   1
M  END
