
     RDKit          3D

 14 14  0  0  0  0  0  0  0  0999 V2000
    1.9000   -1.3450    0.5190 C   0  0  0  0  0  0  0  0  0  0  0  0
    1.7510   -0.1890   -0.4380 C   0  0  2  0  0  0  0  0  0  0  0  0
    3.1090    0.4310   -0.6690 C   0  0  0  0  0  0  0  0  0  0  0  0
    3.8410    1.0440    0.8620 S   0  0  0  0  0  0  0  0  0  0  0  0
    0.7410    0.7910    0.0050 C   0  0  0  0  0  0  0  0  0  0  0  0
    1.1780    1.9780    0.1870 O   0  0  0  0  0  0  0  0  0  0  0  0
   -0.6060    0.5390    0.2370 N   0  0  0  0  0  0  0  0  0  0  0  0
   -1.5940    1.5000    0.6860 C   0  0  0  0  0  0  0  0  0  0  0  0
   -2.5030    0.6260    1.5760 C   0  0  0  0  0  0  0  0  0  0  0  0
   -2.6650   -0.5820    0.6960 C   0  0  0  0  0  0  0  0  0  0  0  0
   -1.2830   -0.7290    0.0840 C   0  0  1  0  0  0  0  0  0  0  0  0
   -1.4840   -1.1140   -1.3130 C   0  0  0  0  0  0  0  0  0  0  0  0
   -1.9990   -2.2170   -1.5810 O   0  0  0  0  0  0  0  0  0  0  0  0
   -1.1120   -0.2730   -2.3350 O   0  0  0  0  0  0  0  0  0  0  0  0
  2  1  1  1
  2  3  1  0
  2  5  1  0
  3  4  1  0
  5  6  2  0
  5  7  1  0
  7  8  1  0
  7 11  1  0
  8  9  1  0
  9 10  1  0
 10 11  1  0
 11 12  1  6
 12 13  2  0
 12 14  1  0
M  END
