
     RDKit          3D

 15 16  0  0  0  0  0  0  0  0999 V2000
   -0.7080   -2.3730   -1.6200 O   0  0  0  0  0  0  0  0  0  0  0  0
    0.0820   -1.4110   -1.6340 C   0  0  0  0  0  0  0  0  0  0  0  0
    1.3830   -1.3400   -2.1790 O   0  0  0  0  0  0  0  0  0  0  0  0
    2.1690   -0.6340   -1.1910 C   0  0  0  0  0  0  0  0  0  0  0  0
    1.1840    0.2850   -0.4980 C   0  0  2  0  0  0  0  0  0  0  0  0
    1.4010    0.2000    0.9560 C   0  0  0  0  0  0  0  0  0  0  0  0
    2.8030    0.6410    1.3020 C   0  0  0  0  0  0  0  0  0  0  0  0
    3.8030   -0.0970    0.7270 O   0  0  0  0  0  0  0  0  0  0  0  0
   -0.0780   -0.0360   -1.0910 C   0  0  1  0  0  0  0  0  0  0  0  0
   -0.1870    0.7530   -2.2770 O   0  0  0  0  0  0  0  0  0  0  0  0
   -1.3550    0.0560   -0.4440 C   0  0  1  0  0  0  0  0  0  0  0  0
   -1.7250   -0.8000    0.6930 C   0  0  0  0  0  0  0  0  0  0  0  0
   -3.2190   -0.4680    0.8410 C   0  0  0  0  0  0  0  0  0  0  0  0
   -3.2400    1.0240    1.1950 C   0  0  0  0  0  0  0  0  0  0  0  0
   -1.8130    1.6770    0.2290 S   0  0  0  0  0  0  0  0  0  0  0  0
  1  2  2  0
  2  3  1  0
  2  9  1  0
  3  4  1  0
  4  5  1  0
  5  6  1  1
  5  9  1  0
  6  7  1  0
  7  8  1  0
  9 10  1  6
  9 11  1  0
 11 12  1  1
 11 15  1  0
 12 13  1  0
 13 14  1  0
 14 15  1  0
M  END
