
     RDKit          3D

 11 10  0  0  0  0  0  0  0  0999 V2000
   -1.7210   -1.0930   -0.5350 C   0  0  0  0  0  0  0  0  0  0  0  0
   -0.9120   -0.1730   -0.0820 C   0  0  0  0  0  0  0  0  0  0  0  0
   -1.4020    1.0270    0.5450 C   0  0  0  0  0  0  0  0  0  0  0  0
   -2.5520    1.3800    0.7540 N   0  0  0  0  0  0  0  0  0  0  0  0
   -3.8150    0.9560    0.5660 N   0  0  0  0  0  0  0  0  0  0  0  0
    0.5370   -0.4040   -0.2350 C   0  0  0  0  0  0  0  0  0  0  0  0
    1.4020    0.4420    0.1790 N   0  0  0  0  0  0  0  0  0  0  0  0
    2.8110    0.2010    0.0220 C   0  0  1  0  0  0  0  0  0  0  0  0
    3.0920   -0.3690   -1.2820 N   0  0  0  0  0  0  0  0  0  0  0  0
    3.4840    1.4300    0.0710 O   0  0  0  0  0  0  0  0  0  0  0  0
    3.2470   -0.6800    0.9880 O   0  0  0  0  0  0  0  0  0  0  0  0
  1  2  2  0
  2  3  1  0
  2  6  1  0
  3  4  2  3
  4  5  1  0
  6  7  2  3
  7  8  1  0
  8  9  1  6
  8 10  1  0
  8 11  1  0
M  CHG  1   5   1
M  END
