
     RDKit          3D

 12 11  0  0  0  0  0  0  0  0999 V2000
    3.3000   -0.6750    1.5750 N   0  0  0  0  0  0  0  0  0  0  0  0
    2.5960    0.3490    1.0310 O   0  0  0  0  0  0  0  0  0  0  0  0
    1.4640    0.1130    0.2010 C   0  0  0  0  0  0  0  0  0  0  0  0
    0.3070    0.1720    0.7550 C   0  0  0  0  0  0  0  0  0  0  0  0
   -1.0260   -0.0050    0.2530 C   0  0  0  0  0  0  0  0  0  0  0  0
   -1.4080   -0.3060   -1.0570 N   0  0  0  0  0  0  0  0  0  0  0  0
   -2.0480    0.1300    1.1290 C   0  0  0  0  0  0  0  0  0  0  0  0
   -3.3740   -0.0210    0.7420 O   0  0  0  0  0  0  0  0  0  0  0  0
   -3.8610    0.7450   -0.2730 N   0  0  0  0  0  0  0  0  0  0  0  0
    1.7560   -0.1660   -1.1630 C   0  0  0  0  0  0  0  0  0  0  0  0
    3.1390   -0.1970   -1.6420 N   0  0  0  0  0  0  0  0  0  0  0  0
    0.9330   -0.4030   -2.0690 O   0  0  0  0  0  0  0  0  0  0  0  0
  1  2  1  0
  2  3  1  0
  3  4  2  3
  3 10  1  0
  4  5  1  0
  5  6  1  0
  5  7  2  3
  7  8  1  0
  8  9  1  0
 10 11  1  0
 10 12  2  0
M  CHG  1   9   1
M  END
