
     RDKit          3D

 45 49  0  0  0  0  0  0  0  0999 V2000
    6.5280   -6.3280   -0.5700 C   0  0  0  0  0  0  0  0  0  0  0  0
    5.2690   -5.5950   -0.5730 N   0  0  0  0  0  0  0  0  0  0  0  0
    5.2470   -4.2000   -0.3250 C   0  0  0  0  0  0  0  0  0  0  0  0
    6.3790   -3.4610   -0.0830 C   0  0  0  0  0  0  0  0  0  0  0  0
    6.3290   -2.0960    0.1670 C   0  0  0  0  0  0  0  0  0  0  0  0
    5.1150   -1.3780    0.1880 C   0  0  0  0  0  0  0  0  0  0  0  0
    4.0120   -2.1440   -0.0590 C   0  0  0  0  0  0  0  0  0  0  0  0
    4.0610   -3.5040   -0.3070 C   0  0  0  0  0  0  0  0  0  0  0  0
    2.6060   -1.4970   -0.1080 C   0  0  2  0  0  0  0  0  0  0  0  0
    2.5480   -0.8810   -1.4670 C   0  0  0  0  0  0  0  0  0  0  0  0
    1.3640   -0.2960   -1.9420 N   0  0  0  0  0  0  0  0  0  0  0  0
    0.5760    0.7550   -1.5260 C   0  0  0  0  0  0  0  0  0  0  0  0
    0.8720    1.4220   -0.5190 O   0  0  0  0  0  0  0  0  0  0  0  0
   -0.6830    1.1770   -2.2330 C   0  0  1  0  0  0  0  0  0  0  0  0
   -1.5720    0.0290   -2.5550 C   0  0  0  0  0  0  0  0  0  0  0  0
   -2.0320   -0.7760   -1.4050 C   0  0  0  0  0  0  0  0  0  0  0  0
   -1.3590   -1.9490   -1.0560 C   0  0  0  0  0  0  0  0  0  0  0  0
   -1.7530   -2.7120    0.0190 C   0  0  0  0  0  0  0  0  0  0  0  0
   -2.8420   -2.3640    0.8200 C   0  0  0  0  0  0  0  0  0  0  0  0
   -3.2160   -3.2110    1.9450 C   0  0  0  0  0  0  0  0  0  0  0  0
   -4.2220   -2.9830    2.7630 C   0  0  0  0  0  0  0  0  0  0  0  0
   -4.5510   -3.8880    3.8950 C   0  0  1  0  0  0  0  0  0  0  0  0
   -5.9800   -4.3470    3.8800 C   0  0  0  0  0  0  0  0  0  0  0  0
   -3.6300   -5.0580    3.9810 C   0  0  0  0  0  0  0  0  0  0  0  0
   -3.4980   -1.2080    0.4670 C   0  0  0  0  0  0  0  0  0  0  0  0
   -3.1020   -0.4370   -0.6170 C   0  0  0  0  0  0  0  0  0  0  0  0
   -1.3490    2.2710   -1.5970 N   0  0  0  0  0  0  0  0  0  0  0  0
   -1.3720    3.5450   -2.2350 C   0  0  0  0  0  0  0  0  0  0  0  0
   -0.8010    3.6960   -3.3550 O   0  0  0  0  0  0  0  0  0  0  0  0
   -2.0160    4.6760   -1.6690 N   0  0  0  0  0  0  0  0  0  0  0  0
   -2.7460    4.7570   -0.4100 C   0  0  0  0  0  0  0  0  0  0  0  0
   -4.0000    5.4900   -0.9000 C   0  0  0  0  0  0  0  0  0  0  0  0
   -3.3540    6.5650   -1.7500 C   0  0  2  0  0  0  0  0  0  0  0  0
   -2.0680    5.9960   -2.2490 C   0  0  0  0  0  0  0  0  0  0  0  0
   -3.1730    7.7930   -1.0030 N   0  0  0  0  0  0  0  0  0  0  0  0
   -4.3650    8.5600   -1.2320 C   0  0  0  0  0  0  0  0  0  0  0  0
   -4.8140    9.5150   -0.5460 O   0  0  0  0  0  0  0  0  0  0  0  0
   -4.9960    8.0510   -2.4140 N   0  0  0  0  0  0  0  0  0  0  0  0
   -4.1900    6.9920   -2.8850 C   0  0  0  0  0  0  0  0  0  0  0  0
   -4.2260    6.5460   -4.0590 O   0  0  0  0  0  0  0  0  0  0  0  0
    2.7000   -0.4650    0.9850 C   0  0  0  0  0  0  0  0  0  0  0  0
    3.7340    0.5730    0.7610 C   0  0  0  0  0  0  0  0  0  0  0  0
    5.1180    0.0670    0.4700 C   0  0  1  0  0  0  0  0  0  0  0  0
    5.9860    0.4970    1.6270 C   0  0  0  0  0  0  0  0  0  0  0  0
    7.3130    0.2510    1.5390 O   0  0  0  0  0  0  0  0  0  0  0  0
  1  2  1  0
  2  3  1  0
  3  4  2  0
  3  8  1  0
  4  5  1  0
  5  6  2  0
  6  7  1  0
  6 43  1  0
  7  8  2  0
  7  9  1  0
  9 10  1  6
  9 41  1  0
 10 11  1  0
 11 12  1  0
 12 13  2  0
 12 14  1  0
 14 15  1  1
 14 27  1  0
 15 16  1  0
 16 17  2  0
 16 26  1  0
 17 18  1  0
 18 19  2  0
 19 20  1  0
 19 25  1  0
 20 21  2  3
 21 22  1  0
 22 23  1  6
 22 24  1  0
 25 26  2  0
 27 28  1  0
 28 29  2  0
 28 30  1  0
 30 31  1  0
 30 34  1  0
 31 32  1  0
 33 32  1  1
 33 34  1  0
 33 35  1  0
 33 39  1  0
 35 36  1  0
 36 37  2  0
 36 38  1  0
 38 39  1  0
 39 40  2  0
 41 42  1  0
 42 43  1  0
 43 44  1  1
 44 45  1  0
M  END
