
     RDKit          3D

 45 49  0  0  0  0  0  0  0  0999 V2000
    8.5260    0.5090   -3.0580 C   0  0  0  0  0  0  0  0  0  0  0  0
    8.6570   -0.9230   -2.5040 C   0  0  0  0  0  0  0  0  0  0  0  0
    9.3000   -0.8340   -1.1750 C   0  0  0  0  0  0  0  0  0  0  0  0
    8.7970   -0.3280   -0.0010 C   0  0  0  0  0  0  0  0  0  0  0  0
    7.4370    0.1640    0.3040 C   0  0  0  0  0  0  0  0  0  0  0  0
    7.2470    1.1570    1.0530 O   0  0  0  0  0  0  0  0  0  0  0  0
    6.3260   -0.5010   -0.2670 N   0  0  0  0  0  0  0  0  0  0  0  0
    4.9720   -0.1520   -0.1280 C   0  0  0  0  0  0  0  0  0  0  0  0
    4.4600    1.0380    0.2860 C   0  0  0  0  0  0  0  0  0  0  0  0
    3.0720    1.2860    0.3640 C   0  0  0  0  0  0  0  0  0  0  0  0
    2.1650    0.3410    0.0300 C   0  0  0  0  0  0  0  0  0  0  0  0
    0.7910    0.4530    0.0680 N   0  0  0  0  0  0  0  0  0  0  0  0
    0.0110    1.4980    0.6850 C   0  0  0  0  0  0  0  0  0  0  0  0
    0.5790    2.4090    1.2570 O   0  0  0  0  0  0  0  0  0  0  0  0
   -1.4630    1.3460    0.5470 C   0  0  0  0  0  0  0  0  0  0  0  0
   -1.9360    0.3300   -0.0540 O   0  0  0  0  0  0  0  0  0  0  0  0
   -2.4080    2.2800    1.0510 N   0  0  0  0  0  0  0  0  0  0  0  0
   -3.8390    2.1100    0.9140 C   0  0  1  0  0  0  0  0  0  0  0  0
   -4.3110    2.3510   -0.4730 C   0  0  0  0  0  0  0  0  0  0  0  0
   -5.7900    2.1120   -0.6610 C   0  0  0  0  0  0  0  0  0  0  0  0
   -6.2700    0.8230   -0.0950 C   0  0  1  0  0  0  0  0  0  0  0  0
   -6.9040   -0.0320   -1.0150 N   0  0  0  0  0  0  0  0  0  0  0  0
   -8.2340   -0.4410   -0.8290 C   0  0  2  0  0  0  0  0  0  0  0  0
   -9.1210    0.0460   -1.9850 C   0  0  0  0  0  0  0  0  0  0  0  0
   -8.9230   -0.0700    0.3680 N   0  0  0  0  0  0  0  0  0  0  0  0
   -9.2010    1.3200    0.5300 C   0  0  0  0  0  0  0  0  0  0  0  0
   -8.3600   -1.9810   -0.9010 C   0  0  1  0  0  0  0  0  0  0  0  0
   -7.4780   -2.5120    0.0450 O   0  0  0  0  0  0  0  0  0  0  0  0
   -9.7460   -2.3970   -0.3580 C   0  0  0  0  0  0  0  0  0  0  0  0
   -9.7010   -3.7980   -0.3320 O   0  0  0  0  0  0  0  0  0  0  0  0
   -5.0430    0.0170    0.4220 C   0  0  0  0  0  0  0  0  0  0  0  0
   -4.3570    0.8030    1.4750 C   0  0  2  0  0  0  0  0  0  0  0  0
   -5.2340    0.9710    2.6830 C   0  0  0  0  0  0  0  0  0  0  0  0
   -4.4930   -0.1640    3.3540 C   0  0  0  0  0  0  0  0  0  0  0  0
   -3.4110    0.0010    2.3130 C   0  0  0  0  0  0  0  0  0  0  0  0
    2.6900   -0.8840   -0.3960 C   0  0  0  0  0  0  0  0  0  0  0  0
    4.0310   -1.1340   -0.4780 C   0  0  0  0  0  0  0  0  0  0  0  0
    9.7900   -0.4150    0.9520 C   0  0  0  0  0  0  0  0  0  0  0  0
    9.9070   -0.0760    2.2910 C   0  0  0  0  0  0  0  0  0  0  0  0
   11.0800   -0.2910    3.0000 C   0  0  0  0  0  0  0  0  0  0  0  0
   12.1680   -0.8610    2.3390 C   0  0  0  0  0  0  0  0  0  0  0  0
   12.0560   -1.2010    1.0060 C   0  0  0  0  0  0  0  0  0  0  0  0
   10.8820   -0.9840    0.3160 C   0  0  0  0  0  0  0  0  0  0  0  0
   10.5790   -1.2340   -0.9580 N   0  0  0  0  0  0  0  0  0  0  0  0
   11.4610   -1.8430   -1.9260 C   0  0  0  0  0  0  0  0  0  0  0  0
  1  2  1  0
  2  3  1  0
  3  4  2  0
  3 44  1  0
  4  5  1  0
  4 38  1  0
  5  6  2  0
  5  7  1  0
  7  8  1  0
  8  9  2  0
  8 37  1  0
  9 10  1  0
 10 11  2  0
 11 12  1  0
 11 36  1  0
 12 13  1  0
 13 14  2  0
 13 15  1  0
 15 16  2  0
 15 17  1  0
 18 17  1  6
 18 19  1  0
 18 32  1  0
 19 20  1  0
 20 21  1  0
 21 22  1  6
 21 31  1  0
 22 23  1  0
 23 24  1  6
 23 25  1  0
 23 27  1  0
 25 26  1  0
 27 28  1  1
 27 29  1  0
 29 30  1  0
 32 31  1  6
 32 33  1  0
 32 35  1  0
 33 34  1  0
 34 35  1  0
 36 37  2  0
 38 39  2  0
 38 43  1  0
 39 40  1  0
 40 41  2  0
 41 42  1  0
 42 43  2  0
 43 44  1  0
 44 45  1  0
M  END
