
     RDKit          3D

 10 10  0  0  0  0  0  0  0  0999 V2000
   -3.4490   -0.1000    0.1440 C   0  0  0  0  0  0  0  0  0  0  0  0
   -2.0120   -0.3120   -0.0200 N   0  0  0  0  0  0  0  0  0  0  0  0
   -1.0390    0.5960    0.3750 C   0  0  0  0  0  0  0  0  0  0  0  0
   -1.3620    1.6780    0.9080 O   0  0  0  0  0  0  0  0  0  0  0  0
    0.3920    0.3490    0.1940 C   0  0  0  0  0  0  0  0  0  0  0  0
    1.0230   -0.7260   -0.3500 C   0  0  0  0  0  0  0  0  0  0  0  0
    2.3560   -0.7520   -0.4200 C   0  0  0  0  0  0  0  0  0  0  0  0
    3.0340    0.3430    0.0770 C   0  0  0  0  0  0  0  0  0  0  0  0
    4.3880    0.5950    0.1390 O   0  0  0  0  0  0  0  0  0  0  0  0
    1.7090    1.4080    0.6460 S   0  0  0  0  0  0  0  0  0  0  0  0
  1  2  1  0
  2  3  1  0
  3  4  2  0
  3  5  1  0
  5  6  2  0
  5 10  1  0
  6  7  1  0
  7  8  2  0
  8  9  1  0
  8 10  1  0
M  END
