
     RDKit          3D

 10 10  0  0  0  0  0  0  0  0999 V2000
    3.3500    0.0820    1.1830 O   0  0  0  0  0  0  0  0  0  0  0  0
    2.8230    0.0360    0.0340 N   0  0  0  0  0  0  0  0  0  0  0  0
    1.3980    0.0500   -0.0250 C   0  0  0  0  0  0  0  0  0  0  0  0
    0.7180   -1.1510   -0.0190 C   0  0  0  0  0  0  0  0  0  0  0  0
   -0.6730   -1.1420   -0.0760 C   0  0  0  0  0  0  0  0  0  0  0  0
   -1.3810    0.0400   -0.1380 C   0  0  0  0  0  0  0  0  0  0  0  0
   -2.7670    0.0270   -0.1950 O   0  0  0  0  0  0  0  0  0  0  0  0
   -0.7150    1.2480   -0.1450 C   0  0  0  0  0  0  0  0  0  0  0  0
   -1.4030    2.4300   -0.2070 F   0  0  0  0  0  0  0  0  0  0  0  0
    0.6680    1.2170   -0.0880 C   0  0  0  0  0  0  0  0  0  0  0  0
  1  2  2  0
  2  3  1  0
  3  4  2  0
  3 10  1  0
  4  5  1  0
  5  6  2  0
  6  7  1  0
  6  8  1  0
  8  9  1  0
  8 10  2  0
M  END
