
     RDKit          3D

 14 14  0  0  0  0  0  0  0  0999 V2000
    4.4540   -0.0900    0.2130 C   0  0  0  0  0  0  0  0  0  0  0  0
    3.1310   -0.2550    0.8870 C   0  0  0  0  0  0  0  0  0  0  0  0
    3.0230   -0.5490    2.1090 O   0  0  0  0  0  0  0  0  0  0  0  0
    1.9410   -0.0740    0.1270 N   0  0  0  0  0  0  0  0  0  0  0  0
    0.6190   -0.2190    0.7180 C   0  0  1  0  0  0  0  0  0  0  0  0
   -0.0100    1.0840    0.6550 N   0  0  0  0  0  0  0  0  0  0  0  0
   -0.7230    1.2170   -0.5860 C   0  0  0  0  0  0  0  0  0  0  0  0
   -1.9610    0.3470   -0.5640 C   0  0  2  0  0  0  0  0  0  0  0  0
   -2.9970    0.9440    0.3610 C   0  0  0  0  0  0  0  0  0  0  0  0
   -3.3010    2.2220   -0.1410 O   0  0  0  0  0  0  0  0  0  0  0  0
   -1.5780   -1.0490   -0.1760 C   0  0  2  0  0  0  0  0  0  0  0  0
   -2.2580   -1.4910    0.9660 O   0  0  0  0  0  0  0  0  0  0  0  0
   -0.1120   -1.2710   -0.0420 C   0  0  2  0  0  0  0  0  0  0  0  0
    0.0760   -2.5080    0.5930 O   0  0  0  0  0  0  0  0  0  0  0  0
  1  2  1  0
  2  3  2  0
  2  4  1  0
  5  4  1  6
  5  6  1  0
  5 13  1  0
  6  7  1  0
  7  8  1  0
  8  9  1  1
  8 11  1  0
  9 10  1  0
 11 12  1  1
 11 13  1  0
 13 14  1  1
M  CHG  1   6   1
M  END
