
     RDKit          3D

 10 10  0  0  0  0  0  0  0  0999 V2000
    2.8050    0.7080    0.8910 O   0  0  0  0  0  0  0  0  0  0  0  0
    2.7630   -0.2780    0.1190 C   0  0  0  0  0  0  0  0  0  0  0  0
    4.1420   -1.3670   -0.0090 S   0  0  0  0  0  0  0  0  0  0  0  0
    1.5490   -0.4190   -0.6060 N   0  0  0  0  0  0  0  0  0  0  0  0
    0.4540    0.4440   -0.5060 C   0  0  0  0  0  0  0  0  0  0  0  0
   -0.2350    0.6470    0.7650 C   0  0  2  0  0  0  0  0  0  0  0  0
   -1.0100   -0.5960    1.2030 C   0  0  0  0  0  0  0  0  0  0  0  0
   -2.1650   -0.5760    0.2290 C   0  0  0  0  0  0  0  0  0  0  0  0
   -2.2790    0.8760   -0.1050 C   0  0  0  0  0  0  0  0  0  0  0  0
   -1.2820    1.5520    0.5820 O   0  0  0  0  0  0  0  0  0  0  0  0
  1  2  2  0
  2  3  1  0
  2  4  1  0
  4  5  1  0
  6  5  1  6
  6  7  1  0
  6 10  1  0
  7  8  1  0
  8  9  1  0
  9 10  1  0
M  END
