
     RDKit          3D

 10 10  0  0  0  0  0  0  0  0999 V2000
    2.7710    0.5120   -0.0380 C   0  0  0  0  0  0  0  0  0  0  0  0
    1.2920    0.7040   -0.1120 C   0  0  0  0  0  0  0  0  0  0  0  0
    0.5140    2.2620   -0.4700 S   0  0  0  0  0  0  0  0  0  0  0  0
   -1.1600    1.6310   -0.3670 C   0  0  0  0  0  0  0  0  0  0  0  0
   -0.9990    0.2570   -0.0620 C   0  0  0  0  0  0  0  0  0  0  0  0
   -2.2100   -0.6030    0.1020 C   0  0  0  0  0  0  0  0  0  0  0  0
   -2.0480   -1.8030    0.3690 O   0  0  0  0  0  0  0  0  0  0  0  0
   -3.4530   -0.0520   -0.0460 O   0  0  0  0  0  0  0  0  0  0  0  0
    0.2830   -0.1590    0.0570 C   0  0  0  0  0  0  0  0  0  0  0  0
    0.6120   -1.5650    0.3730 N   0  0  0  0  0  0  0  0  0  0  0  0
  1  2  1  0
  2  3  1  0
  2  9  2  0
  3  4  1  0
  4  5  2  0
  5  6  1  0
  5  9  1  0
  6  7  2  0
  6  8  1  0
  9 10  1  0
M  END
