
     RDKit          3D

 22 22  0  0  0  0  0  0  0  0999 V2000
   -5.5290    1.9580    0.9600 C   0  0  0  0  0  0  0  0  0  0  0  0
   -5.1210    0.5850    0.3910 C   0  0  0  0  0  0  0  0  0  0  0  0
   -3.6900    0.6670    0.0490 C   0  0  0  0  0  0  0  0  0  0  0  0
   -3.1010   -0.6380   -0.5490 C   0  0  2  0  0  0  0  0  0  0  0  0
   -3.2640   -1.6770    0.5510 C   0  0  0  0  0  0  0  0  0  0  0  0
   -1.6780   -0.2900   -0.8380 C   0  0  0  0  0  0  0  0  0  0  0  0
   -0.7910   -1.2560   -1.5080 C   0  0  1  0  0  0  0  0  0  0  0  0
    0.5420   -0.6340   -1.6080 N   0  0  0  0  0  0  0  0  0  0  0  0
    1.2890   -0.4110   -0.4370 C   0  0  0  0  0  0  0  0  0  0  0  0
    0.8710   -0.7220    0.7070 O   0  0  0  0  0  0  0  0  0  0  0  0
    2.6270    0.2110   -0.4980 C   0  0  0  0  0  0  0  0  0  0  0  0
    3.1010    0.5930   -1.6140 O   0  0  0  0  0  0  0  0  0  0  0  0
    3.3470    0.3630    0.7040 N   0  0  0  0  0  0  0  0  0  0  0  0
    4.6580    0.9870    0.5900 C   0  0  0  0  0  0  0  0  0  0  0  0
    5.7100    0.3070    0.9160 C   0  0  0  0  0  0  0  0  0  0  0  0
    7.1310    0.6710    0.9010 C   0  0  0  0  0  0  0  0  0  0  0  0
    7.3590    2.3660    0.3980 S   0  0  0  0  0  0  0  0  0  0  0  0
    5.7690    3.0670    0.0090 C   0  0  0  0  0  0  0  0  0  0  0  0
    4.6720    2.3670    0.1330 C   0  0  0  0  0  0  0  0  0  0  0  0
   -0.6320   -2.6040   -0.9980 C   0  0  0  0  0  0  0  0  0  0  0  0
   -1.6760   -3.5610   -1.1450 N   0  0  0  0  0  0  0  0  0  0  0  0
    0.4180   -2.9680   -0.4260 O   0  0  0  0  0  0  0  0  0  0  0  0
  1  2  1  0
  2  3  1  0
  3  4  1  0
  4  5  1  1
  4  6  1  0
  7  6  1  1
  7  8  1  0
  7 20  1  0
  8  9  1  0
  9 10  2  0
  9 11  1  0
 11 12  2  0
 11 13  1  0
 13 14  1  0
 14 15  2  0
 14 19  1  0
 15 16  1  0
 16 17  1  0
 17 18  1  0
 18 19  2  0
 20 21  1  0
 20 22  2  0
M  END
