
     RDKit          3D

 22 22  0  0  0  0  0  0  0  0999 V2000
    6.1730   -1.0650    0.7460 C   0  0  0  0  0  0  0  0  0  0  0  0
    5.9770    0.0170   -0.2900 C   0  0  0  0  0  0  0  0  0  0  0  0
    4.8770    0.9730    0.0890 C   0  0  0  0  0  0  0  0  0  0  0  0
    3.5690    0.2770    0.2340 C   0  0  0  0  0  0  0  0  0  0  0  0
    3.4560   -0.9530    0.0520 O   0  0  0  0  0  0  0  0  0  0  0  0
    2.4060    1.0250    0.5890 N   0  0  0  0  0  0  0  0  0  0  0  0
    1.1070    0.3960    0.7400 C   0  0  1  0  0  0  0  0  0  0  0  0
    0.6620    0.4510    2.2070 C   0  0  0  0  0  0  0  0  0  0  0  0
    1.7900   -0.3850    3.3130 S   0  0  0  0  0  0  0  0  0  0  0  0
    1.7670   -2.1610    2.9730 C   0  0  0  0  0  0  0  0  0  0  0  0
    0.0530    1.1220    0.0010 C   0  0  0  0  0  0  0  0  0  0  0  0
    0.3500    2.1800   -0.6130 O   0  0  0  0  0  0  0  0  0  0  0  0
   -1.2750    0.6500   -0.0280 N   0  0  0  0  0  0  0  0  0  0  0  0
   -2.3560    1.3240   -0.7270 C   0  0  2  0  0  0  0  0  0  0  0  0
   -3.4470    1.6300    0.2460 C   0  0  0  0  0  0  0  0  0  0  0  0
   -4.4320    0.5100    0.4250 C   0  0  0  0  0  0  0  0  0  0  0  0
   -4.8310   -0.1390   -0.8630 C   0  0  0  0  0  0  0  0  0  0  0  0
   -3.5410   -0.6850   -1.4950 C   0  0  1  0  0  0  0  0  0  0  0  0
   -3.8400   -1.5800   -2.6190 C   0  0  0  0  0  0  0  0  0  0  0  0
   -4.5950   -1.0870   -3.7100 N   0  0  0  0  0  0  0  0  0  0  0  0
   -3.4340   -2.7580   -2.6110 O   0  0  0  0  0  0  0  0  0  0  0  0
   -2.7440    0.5220   -1.9120 C   0  0  0  0  0  0  0  0  0  0  0  0
  1  2  1  0
  2  3  1  0
  3  4  1  0
  4  5  2  0
  4  6  1  0
  6  7  1  0
  7  8  1  1
  7 11  1  0
  8  9  1  0
  9 10  1  0
 11 12  2  0
 11 13  1  0
 14 13  1  1
 14 15  1  0
 14 22  1  0
 15 16  1  0
 16 17  1  0
 17 18  1  0
 18 19  1  6
 18 22  1  0
 19 20  1  0
 19 21  2  0
M  END
