
     RDKit          3D

 22 22  0  0  0  0  0  0  0  0999 V2000
    7.1290    0.6810   -2.5680 C   0  0  0  0  0  0  0  0  0  0  0  0
    5.9540   -0.0740   -3.6990 S   0  0  0  0  0  0  0  0  0  0  0  0
    4.6750   -1.0160   -2.8080 C   0  0  0  0  0  0  0  0  0  0  0  0
    3.8530   -0.0430   -2.0240 C   0  0  0  0  0  0  0  0  0  0  0  0
    2.7660   -0.7190   -1.2540 C   0  0  0  0  0  0  0  0  0  0  0  0
    2.6660   -1.9650   -1.3170 O   0  0  0  0  0  0  0  0  0  0  0  0
    1.8540   -0.0020   -0.4650 N   0  0  0  0  0  0  0  0  0  0  0  0
    0.7660   -0.6230    0.3110 C   0  0  2  0  0  0  0  0  0  0  0  0
   -0.5150   -0.3010   -0.3180 C   0  0  0  0  0  0  0  0  0  0  0  0
   -0.5890   -0.3900   -1.6160 O   0  0  0  0  0  0  0  0  0  0  0  0
   -1.7250    0.1090    0.2670 N   0  0  0  0  0  0  0  0  0  0  0  0
   -2.9300    0.3860   -0.4810 C   0  0  2  0  0  0  0  0  0  0  0  0
   -3.9460    1.3510   -0.0630 C   0  0  2  0  0  0  0  0  0  0  0  0
   -3.7760    2.2900    1.0540 C   0  0  0  0  0  0  0  0  0  0  0  0
   -4.3330    3.5950    1.0680 N   0  0  0  0  0  0  0  0  0  0  0  0
   -3.1050    1.9900    2.1000 O   0  0  0  0  0  0  0  0  0  0  0  0
   -4.1870   -0.0990    0.1510 C   0  0  2  0  0  0  0  0  0  0  0  0
   -4.3040   -0.5220    1.5690 C   0  0  0  0  0  0  0  0  0  0  0  0
   -5.1370   -0.8430   -0.7840 C   0  0  0  0  0  0  0  0  0  0  0  0
    0.9090   -0.3900    1.7630 C   0  0  1  0  0  0  0  0  0  0  0  0
   -0.1820   -1.1120    2.5170 C   0  0  0  0  0  0  0  0  0  0  0  0
    2.2440   -0.9120    2.2630 C   0  0  0  0  0  0  0  0  0  0  0  0
  1  2  1  0
  2  3  1  0
  3  4  1  0
  4  5  1  0
  5  6  2  0
  5  7  1  0
  8  7  1  6
  8  9  1  0
  8 20  1  0
  9 10  2  0
  9 11  1  0
 12 11  1  1
 12 13  1  0
 12 17  1  0
 13 14  1  1
 13 17  1  0
 14 15  1  0
 14 16  2  0
 17 18  1  1
 17 19  1  0
 20 21  1  1
 20 22  1  0
M  END
