
     RDKit          3D

 28 30  0  0  0  0  0  0  0  0999 V2000
   -1.7430   -1.8650    4.5220 C   0  0  0  0  0  0  0  0  0  0  0  0
   -1.3320   -0.5320    3.9330 C   0  0  0  0  0  0  0  0  0  0  0  0
   -2.3120    0.1410    3.1320 C   0  0  0  0  0  0  0  0  0  0  0  0
   -2.6980    0.5310    1.9680 C   0  0  0  0  0  0  0  0  0  0  0  0
   -3.9540    1.2670    1.9680 O   0  0  0  0  0  0  0  0  0  0  0  0
   -4.7830    1.2800    0.8150 C   0  0  1  0  0  0  0  0  0  0  0  0
   -5.8090    2.1810    1.0670 O   0  0  0  0  0  0  0  0  0  0  0  0
   -3.9530    1.7270   -0.3340 C   0  0  0  0  0  0  0  0  0  0  0  0
   -2.6720    0.9430   -0.4160 C   0  0  0  0  0  0  0  0  0  0  0  0
   -1.9880    0.8740   -1.7250 C   0  0  0  0  0  0  0  0  0  0  0  0
   -2.4890   -0.2300   -2.5950 C   0  0  0  0  0  0  0  0  0  0  0  0
   -3.9320   -0.1190   -2.9610 C   0  0  0  0  0  0  0  0  0  0  0  0
   -2.0870    0.3760    0.6840 C   0  0  0  0  0  0  0  0  0  0  0  0
   -0.8980   -0.4010    0.3940 C   0  0  0  0  0  0  0  0  0  0  0  0
   -0.3460   -0.2850   -0.7770 O   0  0  0  0  0  0  0  0  0  0  0  0
   -0.1790   -1.3310    1.1450 N   0  0  0  0  0  0  0  0  0  0  0  0
    1.0290   -1.9290    0.5870 C   0  0  0  0  0  0  0  0  0  0  0  0
    2.0370   -0.8790    0.2920 C   0  0  0  0  0  0  0  0  0  0  0  0
    2.0190    0.4710    0.5720 C   0  0  0  0  0  0  0  0  0  0  0  0
    3.1970    1.0030    0.0870 C   0  0  0  0  0  0  0  0  0  0  0  0
    3.8980   -0.0540   -0.4760 C   0  0  0  0  0  0  0  0  0  0  0  0
    5.2230    0.0490   -1.1200 C   0  0  0  0  0  0  0  0  0  0  0  0
    5.7310   -1.0200   -1.5890 N   0  0  0  0  0  0  0  0  0  0  0  0
    6.9950   -1.1490   -2.2490 C   0  0  0  0  0  0  0  0  0  0  0  0
    7.6750    0.1430   -2.3310 C   0  0  0  0  0  0  0  0  0  0  0  0
    7.1420    1.2550   -1.8400 C   0  0  0  0  0  0  0  0  0  0  0  0
    5.8900    1.2360   -1.2160 O   0  0  0  0  0  0  0  0  0  0  0  0
    3.1700   -1.1070   -0.3220 O   0  0  0  0  0  0  0  0  0  0  0  0
  1  2  1  0
  2  3  1  0
  3  4  2  3
  4  5  1  0
  4 13  1  0
  5  6  1  0
  6  7  1  1
  6  8  1  0
  8  9  1  0
  9 10  1  0
  9 13  2  0
 10 11  1  0
 11 12  1  0
 13 14  1  0
 14 15  2  0
 14 16  1  0
 16 17  1  0
 17 18  1  0
 18 19  2  0
 18 28  1  0
 19 20  1  0
 20 21  2  0
 21 22  1  0
 21 28  1  0
 22 23  2  0
 22 27  1  0
 23 24  1  0
 24 25  1  0
 25 26  2  0
 26 27  1  0
M  END
