
     RDKit          3D

 28 29  0  0  0  0  0  0  0  0999 V2000
   -0.9520    0.3610   -3.4060 N   0  0  0  0  0  0  0  0  0  0  0  0
   -0.2520    0.8620   -2.2610 C   0  0  0  0  0  0  0  0  0  0  0  0
   -0.6650    1.9410   -1.8070 O   0  0  0  0  0  0  0  0  0  0  0  0
    0.8600    0.0990   -1.7270 C   0  0  0  0  0  0  0  0  0  0  0  0
    1.5950    0.6240   -0.6300 N   0  0  0  0  0  0  0  0  0  0  0  0
    1.1010    0.5230    0.6950 C   0  0  0  0  0  0  0  0  0  0  0  0
    1.8280    0.9950    1.6420 O   0  0  0  0  0  0  0  0  0  0  0  0
   -0.1910   -0.0810    1.1050 C   0  0  1  0  0  0  0  0  0  0  0  0
   -0.9040   -0.4950    0.0690 O   0  0  0  0  0  0  0  0  0  0  0  0
   -2.1110   -1.0770    0.2410 C   0  0  2  0  0  0  0  0  0  0  0  0
   -2.0350   -2.4880   -0.3140 C   0  0  0  0  0  0  0  0  0  0  0  0
   -3.4850   -2.8870   -0.4740 C   0  0  0  0  0  0  0  0  0  0  0  0
   -4.2790   -1.6250   -0.4550 C   0  0  0  0  0  0  0  0  0  0  0  0
   -3.2250   -0.5180   -0.6100 C   0  0  0  0  0  0  0  0  0  0  0  0
    0.0990   -1.0470    2.2050 C   0  0  0  0  0  0  0  0  0  0  0  0
   -0.5270   -0.5130    3.4770 C   0  0  0  0  0  0  0  0  0  0  0  0
   -0.6180    0.9600    3.2460 C   0  0  0  0  0  0  0  0  0  0  0  0
   -0.9740    1.0490    1.8000 C   0  0  0  0  0  0  0  0  0  0  0  0
    2.9440    1.1610   -0.7300 C   0  0  0  0  0  0  0  0  0  0  0  0
    3.8970    0.4470   -0.0970 C   0  0  0  0  0  0  0  0  0  0  0  0
    5.3140    0.7100   -0.0080 C   0  0  2  0  0  0  0  0  0  0  0  0
    5.9870    0.6670   -1.2360 F   0  0  0  0  0  0  0  0  0  0  0  0
    5.8720   -0.2970    0.8070 F   0  0  0  0  0  0  0  0  0  0  0  0
    5.6420    1.8900    0.6600 F   0  0  0  0  0  0  0  0  0  0  0  0
    3.3400    2.3460   -1.4190 C   0  0  0  0  0  0  0  0  0  0  0  0
    4.6780    2.7080   -1.4120 F   0  0  0  0  0  0  0  0  0  0  0  0
    2.5920    3.1940   -2.0990 C   0  0  0  0  0  0  0  0  0  0  0  0
    3.3000    4.6250   -2.8910 Cl  0  0  0  0  0  0  0  0  0  0  0  0
  1  2  1  0
  2  3  2  0
  2  4  1  0
  4  5  1  0
  5  6  1  0
  5 19  1  0
  6  7  2  0
  6  8  1  0
  8  9  1  6
  8 15  1  0
  8 18  1  0
 10  9  1  6
 10 11  1  0
 10 14  1  0
 11 12  1  0
 12 13  1  0
 13 14  1  0
 15 16  1  0
 16 17  1  0
 17 18  1  0
 19 20  2  3
 19 25  1  0
 20 21  1  0
 21 22  1  6
 21 23  1  0
 21 24  1  0
 25 26  1  0
 25 27  2  3
 27 28  1  0
M  END
