
     RDKit          3D

 28 29  0  0  0  0  0  0  0  0999 V2000
    4.6820   -4.3470   -0.3760 C   0  0  0  0  0  0  0  0  0  0  0  0
    3.4700   -3.5930   -0.4910 N   0  0  0  0  0  0  0  0  0  0  0  0
    3.3710   -2.3730   -1.2240 C   0  0  0  0  0  0  0  0  0  0  0  0
    4.4670   -1.8490   -1.8770 C   0  0  0  0  0  0  0  0  0  0  0  0
    4.3730   -0.6730   -2.5840 C   0  0  0  0  0  0  0  0  0  0  0  0
    3.1750    0.0460   -2.6770 C   0  0  0  0  0  0  0  0  0  0  0  0
    2.0890   -0.4710   -2.0310 C   0  0  0  0  0  0  0  0  0  0  0  0
    2.1910   -1.6710   -1.3120 C   0  0  0  0  0  0  0  0  0  0  0  0
    0.9460    0.4290   -2.2530 C   0  0  1  0  0  0  0  0  0  0  0  0
    0.3890    0.9010   -1.0450 O   0  0  0  0  0  0  0  0  0  0  0  0
   -1.0100    0.7050   -0.7930 C   0  0  0  0  0  0  0  0  0  0  0  0
   -1.5950    0.1160   -1.7060 O   0  0  0  0  0  0  0  0  0  0  0  0
   -1.5510    1.2050    0.4630 C   0  0  0  0  0  0  0  0  0  0  0  0
   -2.7610    1.1120    0.8560 C   0  0  0  0  0  0  0  0  0  0  0  0
   -3.8080    0.4380    0.0000 C   0  0  0  0  0  0  0  0  0  0  0  0
   -3.2250    1.5380    2.2110 C   0  0  0  0  0  0  0  0  0  0  0  0
   -4.5430    1.4240    2.3340 C   0  0  0  0  0  0  0  0  0  0  0  0
   -5.4040    1.7140    3.4600 C   0  0  1  0  0  0  0  0  0  0  0  0
   -5.6540    3.0760    3.5680 F   0  0  0  0  0  0  0  0  0  0  0  0
   -6.7250    1.1610    3.1760 F   0  0  0  0  0  0  0  0  0  0  0  0
   -2.4150    2.0210    3.2860 C   0  0  0  0  0  0  0  0  0  0  0  0
   -3.4290    2.5620    4.7330 Cl  0  0  0  0  0  0  0  0  0  0  0  0
   -1.1740    2.2130    3.5350 C   0  0  0  0  0  0  0  0  0  0  0  0
   -0.8900    2.7500    4.8350 F   0  0  0  0  0  0  0  0  0  0  0  0
   -0.0370    1.9990    2.9020 F   0  0  0  0  0  0  0  0  0  0  0  0
    1.4710    1.5180   -3.0930 C   0  0  0  0  0  0  0  0  0  0  0  0
    0.7940    2.5170   -3.5180 O   0  0  0  0  0  0  0  0  0  0  0  0
    2.8380    1.2560   -3.3340 N   0  0  0  0  0  0  0  0  0  0  0  0
  1  2  1  0
  2  3  1  0
  3  4  2  0
  3  8  1  0
  4  5  1  0
  5  6  2  0
  6  7  1  0
  6 28  1  0
  7  8  2  0
  7  9  1  0
  9 10  1  1
  9 26  1  0
 10 11  1  0
 11 12  2  0
 11 13  1  0
 13 14  2  3
 14 15  1  0
 14 16  1  0
 16 17  2  3
 16 21  1  0
 17 18  1  0
 18 19  1  6
 18 20  1  0
 21 22  1  0
 21 23  2  3
 23 24  1  0
 23 25  1  0
 26 27  2  0
 26 28  1  0
M  END
