
     RDKit          3D

 28 29  0  0  0  0  0  0  0  0999 V2000
   -3.9210   -2.5530   -1.2700 C   0  0  0  0  0  0  0  0  0  0  0  0
   -4.8700   -1.7700   -0.8080 C   0  0  0  0  0  0  0  0  0  0  0  0
   -6.5120   -2.4030   -0.7200 Cl  0  0  0  0  0  0  0  0  0  0  0  0
   -4.6050   -0.4230   -0.3570 C   0  0  0  0  0  0  0  0  0  0  0  0
   -5.6430    0.2890    0.0760 C   0  0  0  0  0  0  0  0  0  0  0  0
   -5.5010    1.6580    0.5560 C   0  0  1  0  0  0  0  0  0  0  0  0
   -5.0690    2.5370   -0.4260 F   0  0  0  0  0  0  0  0  0  0  0  0
   -6.7520    2.1400    0.9600 F   0  0  0  0  0  0  0  0  0  0  0  0
   -4.6110    1.7580    1.6130 F   0  0  0  0  0  0  0  0  0  0  0  0
   -3.2450    0.1360   -0.3300 C   0  0  1  0  0  0  0  0  0  0  0  0
   -2.3680   -0.5220    0.7020 C   0  0  0  0  0  0  0  0  0  0  0  0
   -0.9980   -0.2380    0.4240 N   0  0  0  0  0  0  0  0  0  0  0  0
   -0.2320   -1.3870    0.1020 C   0  0  0  0  0  0  0  0  0  0  0  0
    1.1710   -1.0650   -0.1720 N   0  0  0  0  0  0  0  0  0  0  0  0
    1.8820   -0.4540    0.8860 C   0  0  0  0  0  0  0  0  0  0  0  0
    1.2500   -0.2360    1.9790 O   0  0  0  0  0  0  0  0  0  0  0  0
    3.2580   -0.0730    0.7930 C   0  0  0  0  0  0  0  0  0  0  0  0
    4.0510   -0.2460   -0.3110 C   0  0  0  0  0  0  0  0  0  0  0  0
    3.5580   -0.8240   -1.4550 O   0  0  0  0  0  0  0  0  0  0  0  0
    5.3930    0.1700   -0.2850 C   0  0  0  0  0  0  0  0  0  0  0  0
    5.9520    0.7540    0.8240 C   0  0  0  0  0  0  0  0  0  0  0  0
    7.3810    1.1920    0.8400 C   0  0  0  0  0  0  0  0  0  0  0  0
    5.1330    0.9150    1.9180 C   0  0  0  0  0  0  0  0  0  0  0  0
    3.8160    0.5230    1.9330 C   0  0  0  0  0  0  0  0  0  0  0  0
    3.0490    0.7060    3.0430 F   0  0  0  0  0  0  0  0  0  0  0  0
   -0.8720    0.8920   -0.4260 C   0  0  0  0  0  0  0  0  0  0  0  0
   -1.5730    0.7940   -1.7480 C   0  0  0  0  0  0  0  0  0  0  0  0
   -2.7030    0.0050   -1.6180 O   0  0  0  0  0  0  0  0  0  0  0  0
  1  2  2  0
  2  3  1  0
  2  4  1  0
  4  5  2  3
 10  4  1  6
  5  6  1  0
  6  7  1  6
  6  8  1  0
  6  9  1  0
 10 11  1  0
 10 28  1  0
 11 12  1  0
 12 13  1  0
 12 26  1  0
 13 14  1  0
 14 15  1  0
 15 16  2  0
 15 17  1  0
 17 18  2  0
 17 24  1  0
 18 19  1  0
 18 20  1  0
 20 21  2  0
 21 22  1  0
 21 23  1  0
 23 24  2  0
 24 25  1  0
 26 27  1  0
 27 28  1  0
M  END
