
     RDKit          3D

 28 29  0  0  0  0  0  0  0  0999 V2000
   -6.9190    0.1380    1.3770 C   0  0  0  0  0  0  0  0  0  0  0  0
   -5.4590    0.0860    1.0800 C   0  0  0  0  0  0  0  0  0  0  0  0
   -4.7380   -0.8710    0.4240 C   0  0  0  0  0  0  0  0  0  0  0  0
   -3.4120   -0.5070    0.3790 C   0  0  0  0  0  0  0  0  0  0  0  0
   -2.3080   -1.2420   -0.2250 C   0  0  0  0  0  0  0  0  0  0  0  0
   -2.4580   -2.3440   -0.8000 O   0  0  0  0  0  0  0  0  0  0  0  0
   -1.0480   -0.7150   -0.1690 O   0  0  0  0  0  0  0  0  0  0  0  0
    0.0840   -1.3540   -0.7250 C   0  0  2  0  0  0  0  0  0  0  0  0
   -0.1030   -1.5590   -2.2320 C   0  0  0  0  0  0  0  0  0  0  0  0
    0.3180   -2.6540   -0.0500 C   0  0  0  0  0  0  0  0  0  0  0  0
    1.2230   -0.4240   -0.6030 C   0  0  0  0  0  0  0  0  0  0  0  0
    1.0150    0.7370   -0.1060 O   0  0  0  0  0  0  0  0  0  0  0  0
    2.5580   -0.6680   -0.9880 N   0  0  0  0  0  0  0  0  0  0  0  0
    3.5750    0.3170   -0.8640 C   0  0  0  0  0  0  0  0  0  0  0  0
    4.1860    0.7630   -1.9800 C   0  0  0  0  0  0  0  0  0  0  0  0
    5.2030    1.7790   -1.8380 C   0  0  0  0  0  0  0  0  0  0  0  0
    5.5690    2.3190   -0.7080 C   0  0  0  0  0  0  0  0  0  0  0  0
    6.5580    3.2770   -0.6670 F   0  0  0  0  0  0  0  0  0  0  0  0
    4.8900    2.0270    0.5470 C   0  0  2  0  0  0  0  0  0  0  0  0
    4.0350    3.0980    0.8190 F   0  0  0  0  0  0  0  0  0  0  0  0
    5.7480    1.8790    1.6180 F   0  0  0  0  0  0  0  0  0  0  0  0
    4.0700    0.7680    0.4030 C   0  0  0  0  0  0  0  0  0  0  0  0
    3.8610    0.0390    1.5020 C   0  0  0  0  0  0  0  0  0  0  0  0
    4.3420    0.5050    2.6710 F   0  0  0  0  0  0  0  0  0  0  0  0
    3.0480   -1.4740    1.4750 Cl  0  0  0  0  0  0  0  0  0  0  0  0
   -3.3340    0.7030    1.0260 C   0  0  0  0  0  0  0  0  0  0  0  0
   -2.0900    1.5120    1.2390 C   0  0  0  0  0  0  0  0  0  0  0  0
   -4.5720    1.0350    1.4350 N   0  0  0  0  0  0  0  0  0  0  0  0
  1  2  1  0
  2  3  2  0
  2 28  1  0
  3  4  1  0
  4  5  1  0
  4 26  2  0
  5  6  2  0
  5  7  1  0
  7  8  1  0
  8  9  1  6
  8 10  1  0
  8 11  1  0
 11 12  2  0
 11 13  1  0
 13 14  1  0
 14 15  2  0
 14 22  1  0
 15 16  1  0
 16 17  2  0
 17 18  1  0
 17 19  1  0
 19 20  1  1
 19 21  1  0
 19 22  1  0
 22 23  2  3
 23 24  1  0
 23 25  1  0
 26 27  1  0
 26 28  1  0
M  END
