
     RDKit          3D

 24 25  0  0  0  0  0  0  0  0999 V2000
    3.3520   -3.8660   -0.4250 C   0  0  0  0  0  0  0  0  0  0  0  0
    2.1310   -3.4100    0.0540 O   0  0  0  0  0  0  0  0  0  0  0  0
    1.9070   -1.7170   -0.1690 P   0  0  0  0  0  0  0  0  0  0  0  0
    2.1680   -1.1560   -1.8820 C   0  0  0  0  0  0  0  0  0  0  0  0
    1.3670    0.0380   -2.2320 C   0  0  0  0  0  0  0  0  0  0  0  0
    1.4300    0.6130   -3.4900 O   0  0  0  0  0  0  0  0  0  0  0  0
    0.5340    0.6320   -1.3480 C   0  0  0  0  0  0  0  0  0  0  0  0
   -0.2310    1.7850   -1.7070 C   0  0  0  0  0  0  0  0  0  0  0  0
   -1.0750    2.5010   -1.0310 C   0  0  0  0  0  0  0  0  0  0  0  0
   -1.6960    3.6150   -1.6620 O   0  0  0  0  0  0  0  0  0  0  0  0
   -2.5990    4.4440   -1.0630 C   0  0  0  0  0  0  0  0  0  0  0  0
   -2.9260    4.2040    0.1940 C   0  0  0  0  0  0  0  0  0  0  0  0
   -2.3600    3.1000    0.9390 C   0  0  0  0  0  0  0  0  0  0  0  0
   -1.4640    2.2830    0.3340 C   0  0  0  0  0  0  0  0  0  0  0  0
   -0.9490    1.2300    1.1060 N   0  0  0  0  0  0  0  0  0  0  0  0
   -1.6940    0.0360    1.3500 C   0  0  0  0  0  0  0  0  0  0  0  0
   -2.9450   -0.0660    0.7840 C   0  0  0  0  0  0  0  0  0  0  0  0
   -3.7120   -1.2080    0.9870 C   0  0  0  0  0  0  0  0  0  0  0  0
   -3.2250   -2.2290    1.7490 C   0  0  0  0  0  0  0  0  0  0  0  0
   -1.9580   -2.1150    2.3170 C   0  0  0  0  0  0  0  0  0  0  0  0
   -1.1960   -0.9800    2.1140 C   0  0  0  0  0  0  0  0  0  0  0  0
    0.0700   -0.8330    2.6650 O   0  0  0  0  0  0  0  0  0  0  0  0
    2.7280   -0.7770    1.0110 O   0  0  0  0  0  0  0  0  0  0  0  0
    3.8450   -0.1280    0.4890 C   0  0  0  0  0  0  0  0  0  0  0  0
  1  2  1  0
  2  3  1  0
  3  4  1  0
  3 23  1  0
  4  5  1  0
  5  6  1  0
  5  7  2  3
  7  8  1  0
  8  9  2  3
  9 10  1  0
  9 14  1  0
 10 11  1  0
 11 12  2  0
 12 13  1  0
 13 14  2  0
 14 15  1  0
 15 16  1  0
 16 17  2  0
 16 21  1  0
 17 18  1  0
 18 19  2  0
 19 20  1  0
 20 21  2  0
 21 22  1  0
 23 24  1  0
M  END
