
     RDKit          3D

 24 25  0  0  0  0  0  0  0  0999 V2000
    2.8750   -1.9410   -1.0010 O   0  0  0  0  0  0  0  0  0  0  0  0
    3.5680   -1.1400   -0.3540 C   0  0  0  0  0  0  0  0  0  0  0  0
    2.9770   -0.1340    0.3650 O   0  0  0  0  0  0  0  0  0  0  0  0
    1.5830    0.0910    0.4200 C   0  0  1  0  0  0  0  0  0  0  0  0
    0.9920    0.2100    1.7640 C   0  0  0  0  0  0  0  0  0  0  0  0
   -0.3250    0.9480    1.6970 C   0  0  0  0  0  0  0  0  0  0  0  0
   -1.0430    0.7260    0.3870 C   0  0  1  0  0  0  0  0  0  0  0  0
   -2.2480    1.5340    0.3970 N   0  0  0  0  0  0  0  0  0  0  0  0
   -3.3610    0.7810   -0.2060 C   0  0  0  0  0  0  0  0  0  0  0  0
   -4.5530    1.6600   -0.1830 C   0  0  0  0  0  0  0  0  0  0  0  0
   -5.8080    1.1310   -0.7930 C   0  0  0  0  0  0  0  0  0  0  0  0
   -6.3510   -0.0650   -0.1390 C   0  0  0  0  0  0  0  0  0  0  0  0
   -5.3950   -1.5800   -0.0900 P   0  0  0  0  0  0  0  0  0  0  0  0
   -5.8640   -2.7190    1.0890 O   0  0  0  0  0  0  0  0  0  0  0  0
   -4.7880   -2.2190   -1.5300 O   0  0  0  0  0  0  0  0  0  0  0  0
   -0.2130    1.1920   -0.7870 C   0  0  0  0  0  0  0  0  0  0  0  0
    1.2380    1.3570   -0.3800 C   0  0  0  0  0  0  0  0  0  0  0  0
    5.0430   -1.2460   -0.3530 C   0  0  0  0  0  0  0  0  0  0  0  0
    5.6690   -2.2150   -1.1340 C   0  0  0  0  0  0  0  0  0  0  0  0
    7.0450   -2.2640   -1.1680 C   0  0  0  0  0  0  0  0  0  0  0  0
    7.8250   -1.3780   -0.4450 C   0  0  0  0  0  0  0  0  0  0  0  0
    7.2060   -0.4210    0.3300 C   0  0  0  0  0  0  0  0  0  0  0  0
    5.8350   -0.3850    0.3500 C   0  0  0  0  0  0  0  0  0  0  0  0
    5.2330    0.5890    1.1340 O   0  0  0  0  0  0  0  0  0  0  0  0
  1  2  2  0
  2  3  1  0
  2 18  1  0
  4  3  1  1
  4  5  1  0
  4 17  1  0
  5  6  1  0
  6  7  1  0
  7  8  1  1
  7 16  1  0
  8  9  1  0
  9 10  1  0
 10 11  1  0
 11 12  1  0
 12 13  1  0
 13 14  1  0
 13 15  1  0
 16 17  1  0
 18 19  2  0
 18 23  1  0
 19 20  1  0
 20 21  2  0
 21 22  1  0
 22 23  2  0
 23 24  1  0
M  END
