
     RDKit          3D

 23 24  0  0  0  0  0  0  0  0999 V2000
   -4.1970   -2.1110   -1.0550 C   0  0  0  0  0  0  0  0  0  0  0  0
   -4.1620   -0.6140   -1.1500 C   0  0  1  0  0  0  0  0  0  0  0  0
   -4.9000   -0.0630    0.0180 C   0  0  0  0  0  0  0  0  0  0  0  0
   -4.3500    0.6450    0.8910 O   0  0  0  0  0  0  0  0  0  0  0  0
   -6.2450   -0.3520    0.1310 O   0  0  0  0  0  0  0  0  0  0  0  0
   -2.7470   -0.1940   -1.1520 C   0  0  0  0  0  0  0  0  0  0  0  0
   -1.8280   -0.6200   -0.2170 C   0  0  0  0  0  0  0  0  0  0  0  0
   -0.5120   -0.1780   -0.2790 C   0  0  0  0  0  0  0  0  0  0  0  0
   -0.0440    0.6840   -1.2390 C   0  0  0  0  0  0  0  0  0  0  0  0
    1.2830    1.1510   -1.3460 N   0  0  0  0  0  0  0  0  0  0  0  0
    2.2650    0.6250   -0.4240 C   0  0  0  0  0  0  0  0  0  0  0  0
    2.4210   -0.6790   -0.4180 C   0  0  0  0  0  0  0  0  0  0  0  0
    3.3670   -1.3670    0.4560 C   0  0  0  0  0  0  0  0  0  0  0  0
    3.5720   -1.1890    1.7950 C   0  0  0  0  0  0  0  0  0  0  0  0
    4.5660   -2.0610    2.1760 C   0  0  0  0  0  0  0  0  0  0  0  0
    4.9400   -2.7510    1.0420 C   0  0  0  0  0  0  0  0  0  0  0  0
    4.2160   -2.3140    0.0650 O   0  0  0  0  0  0  0  0  0  0  0  0
    3.0660    1.5630    0.4040 C   0  0  0  0  0  0  0  0  0  0  0  0
    1.9770    2.5030    1.5670 P   0  0  0  0  0  0  0  0  0  0  0  0
    0.3660    2.6550    1.0060 O   0  0  0  0  0  0  0  0  0  0  0  0
    2.6700    4.0570    1.9550 O   0  0  0  0  0  0  0  0  0  0  0  0
   -0.9890    1.1100   -2.1840 C   0  0  0  0  0  0  0  0  0  0  0  0
   -2.2920    0.6710   -2.1210 C   0  0  0  0  0  0  0  0  0  0  0  0
  2  1  1  1
  2  3  1  0
  2  6  1  0
  3  4  2  0
  3  5  1  0
  6  7  2  0
  6 23  1  0
  7  8  1  0
  8  9  2  0
  9 10  1  0
  9 22  1  0
 10 11  1  0
 11 12  2  3
 11 18  1  0
 12 13  1  0
 13 14  2  0
 13 17  1  0
 14 15  1  0
 15 16  2  0
 16 17  1  0
 18 19  1  0
 19 20  1  0
 19 21  1  0
 22 23  2  0
M  END
