
     RDKit          3D

 24 24  0  0  0  0  0  0  0  0999 V2000
    7.3690   -0.6880   -0.6810 C   0  0  0  0  0  0  0  0  0  0  0  0
    6.0140   -0.7020   -0.0880 C   0  0  0  0  0  0  0  0  0  0  0  0
    5.3090    0.4170   -0.0720 C   0  0  0  0  0  0  0  0  0  0  0  0
    5.8850    1.6590   -0.6450 C   0  0  0  0  0  0  0  0  0  0  0  0
    3.6250    0.4980    0.6390 P   0  0  0  0  0  0  0  0  0  0  0  0
    3.6280    0.0980    2.4510 C   0  0  0  0  0  0  0  0  0  0  0  0
    2.4380   -0.5950   -0.2950 C   0  0  0  0  0  0  0  0  0  0  0  0
    1.0930   -0.1010   -0.0350 C   0  0  0  0  0  0  0  0  0  0  0  0
    0.0650   -0.7090    0.5300 C   0  0  0  0  0  0  0  0  0  0  0  0
    0.1250   -2.0640    1.0160 C   0  0  0  0  0  0  0  0  0  0  0  0
   -0.8280   -2.6910    1.5590 O   0  0  0  0  0  0  0  0  0  0  0  0
    1.2840   -2.8730    0.9420 O   0  0  0  0  0  0  0  0  0  0  0  0
   -1.1690    0.0850    0.6390 C   0  0  0  0  0  0  0  0  0  0  0  0
   -1.1450    1.2940    0.1760 O   0  0  0  0  0  0  0  0  0  0  0  0
   -2.3840   -0.3120    1.1890 N   0  0  0  0  0  0  0  0  0  0  0  0
   -3.5980    0.4540    1.2560 C   0  0  0  0  0  0  0  0  0  0  0  0
   -4.2610    0.6360   -0.0560 C   0  0  1  0  0  0  0  0  0  0  0  0
   -5.4870    1.4960    0.0970 C   0  0  0  0  0  0  0  0  0  0  0  0
   -5.7620    1.9470    1.2440 O   0  0  0  0  0  0  0  0  0  0  0  0
   -6.3190    1.8190   -0.9190 O   0  0  0  0  0  0  0  0  0  0  0  0
   -3.4980    0.9770   -1.2490 C   0  0  0  0  0  0  0  0  0  0  0  0
   -4.4930    0.6200   -2.3950 C   0  0  0  0  0  0  0  0  0  0  0  0
   -5.3160   -0.4910   -1.8460 C   0  0  0  0  0  0  0  0  0  0  0  0
   -4.7910   -0.7750   -0.4450 C   0  0  0  0  0  0  0  0  0  0  0  0
  1  2  1  0
  2  3  2  3
  3  4  1  0
  3  5  1  0
  5  6  1  0
  5  7  1  0
  7  8  1  0
  8  9  2  3
  9 10  1  0
  9 13  1  0
 10 11  2  0
 10 12  1  0
 13 14  2  0
 13 15  1  0
 15 16  1  0
 17 16  1  1
 17 18  1  0
 17 21  1  0
 17 24  1  0
 18 19  2  0
 18 20  1  0
 21 22  1  0
 22 23  1  0
 23 24  1  0
M  END
