
     RDKit          3D

 13 13  0  0  0  0  0  0  0  0999 V2000
    3.5960    1.2110   -0.0520 N   0  0  0  0  0  0  0  0  0  0  0  0
    2.4770    0.3390   -0.0460 C   0  0  0  0  0  0  0  0  0  0  0  0
    1.9110    0.0960    1.0420 O   0  0  0  0  0  0  0  0  0  0  0  0
    1.9950   -0.2640   -1.3000 C   0  0  0  0  0  0  0  0  0  0  0  0
    0.8530   -1.0960   -1.0020 N   0  0  0  0  0  0  0  0  0  0  0  0
   -0.3240   -0.5500   -0.4160 C   0  0  0  0  0  0  0  0  0  0  0  0
   -0.3500    0.6610   -0.1670 O   0  0  0  0  0  0  0  0  0  0  0  0
   -1.4300   -1.3610   -0.1270 O   0  0  0  0  0  0  0  0  0  0  0  0
   -2.5820   -0.7820    0.4550 C   0  0  0  0  0  0  0  0  0  0  0  0
   -2.7290    0.4230    0.7520 N   0  0  0  0  0  0  0  0  0  0  0  0
   -3.8380    0.9400    1.3040 N   0  0  0  0  0  0  0  0  0  0  0  0
   -4.8330   -0.3070    2.1340 S   0  0  0  0  0  0  0  0  0  0  0  0
   -3.9940   -1.8260    0.8240 S   0  0  0  0  0  0  0  0  0  0  0  0
  1  2  1  0
  2  3  2  0
  2  4  1  0
  4  5  1  0
  5  6  1  0
  6  7  2  0
  6  8  1  0
  8  9  1  0
  9 10  2  0
  9 13  1  0
 10 11  1  0
 11 12  1  0
 12 13  1  0
M  END
