
     RDKit          3D

 13 13  0  0  0  0  0  0  0  0999 V2000
    2.1430    1.8790    0.9060 O   0  0  0  0  0  0  0  0  0  0  0  0
    2.4640    0.7430    0.5210 C   0  0  0  0  0  0  0  0  0  0  0  0
    4.2250    0.3530    0.4240 S   0  0  0  0  0  0  0  0  0  0  0  0
    1.4780   -0.1910    0.1790 N   0  0  0  0  0  0  0  0  0  0  0  0
    0.0970   -0.0620    0.1950 N   0  0  0  0  0  0  0  0  0  0  0  0
   -0.6480    0.9840    0.5390 C   0  0  0  0  0  0  0  0  0  0  0  0
   -0.0660    2.0330    0.9130 O   0  0  0  0  0  0  0  0  0  0  0  0
   -2.0090    1.0080    0.5190 N   0  0  0  0  0  0  0  0  0  0  0  0
   -2.6730   -0.0640    0.1360 C   0  0  0  0  0  0  0  0  0  0  0  0
   -3.9210   -0.0370    0.1200 O   0  0  0  0  0  0  0  0  0  0  0  0
   -1.9720   -1.1500   -0.2230 N   0  0  0  0  0  0  0  0  0  0  0  0
   -0.6440   -1.1600   -0.1990 C   0  0  0  0  0  0  0  0  0  0  0  0
    0.1520   -2.5260   -0.6520 S   0  0  0  0  0  0  0  0  0  0  0  0
  1  2  2  0
  2  3  1  0
  2  4  1  0
  4  5  1  0
  5  6  1  0
  5 12  1  0
  6  7  2  0
  6  8  1  0
  8  9  1  0
  9 10  2  0
  9 11  1  0
 11 12  1  0
 12 13  2  0
M  END
