
     RDKit          3D

 12 12  0  0  0  0  0  0  0  0999 V2000
   -2.9880    1.0250   -2.0610 O   0  0  0  0  0  0  0  0  0  0  0  0
   -2.3890    0.5220   -1.0710 C   0  0  0  0  0  0  0  0  0  0  0  0
   -1.2200   -0.1550   -1.1980 N   0  0  0  0  0  0  0  0  0  0  0  0
   -0.6190   -0.6730   -0.1140 C   0  0  0  0  0  0  0  0  0  0  0  0
    0.9140   -1.5740   -0.1950 S   0  0  0  0  0  0  0  0  0  0  0  0
    2.2630   -0.3890   -0.0040 C   0  0  0  0  0  0  0  0  0  0  0  0
    3.8830   -1.1800   -0.0680 S   0  0  0  0  0  0  0  0  0  0  0  0
    5.0630    0.0710    0.1270 O   0  0  0  0  0  0  0  0  0  0  0  0
   -1.2080   -0.4980    1.0770 N   0  0  0  0  0  0  0  0  0  0  0  0
   -2.3580    0.1690    1.2060 C   0  0  0  0  0  0  0  0  0  0  0  0
   -2.8720    0.3080    2.3380 O   0  0  0  0  0  0  0  0  0  0  0  0
   -2.9610    0.6860    0.1320 N   0  0  0  0  0  0  0  0  0  0  0  0
  1  2  2  0
  2  3  1  0
  2 12  1  0
  3  4  2  0
  4  5  1  0
  4  9  1  0
  5  6  1  0
  6  7  1  0
  7  8  1  0
  9 10  1  0
 10 11  2  0
 10 12  1  0
M  END
