
     RDKit          3D

 16 18  0  0  0  0  0  0  0  0999 V2000
   -0.9130   -2.6530   -1.0660 O   0  0  0  0  0  0  0  0  0  0  0  0
   -0.0020   -1.8810   -0.7060 C   0  0  0  0  0  0  0  0  0  0  0  0
    1.2950   -2.2280   -0.7400 N   0  0  0  0  0  0  0  0  0  0  0  0
    2.0300   -1.2010   -0.2950 C   0  0  0  0  0  0  0  0  0  0  0  0
    3.3810   -1.0020   -0.1380 C   0  0  0  0  0  0  0  0  0  0  0  0
    3.8890    0.1900    0.3290 C   0  0  0  0  0  0  0  0  0  0  0  0
    3.0240    1.1940    0.6390 C   0  0  0  0  0  0  0  0  0  0  0  0
    1.6500    0.9840    0.4770 C   0  0  0  0  0  0  0  0  0  0  0  0
    1.1050   -0.1950    0.0160 C   0  0  0  0  0  0  0  0  0  0  0  0
   -0.1480   -0.6330   -0.2420 N   0  0  0  0  0  0  0  0  0  0  0  0
   -1.3650    0.0920   -0.1330 C   0  0  0  0  0  0  0  0  0  0  0  0
   -2.4240   -0.2720   -0.8760 C   0  0  0  0  0  0  0  0  0  0  0  0
   -3.7310    0.4010   -0.8450 C   0  0  0  0  0  0  0  0  0  0  0  0
   -3.8420    1.3780    0.1490 O   0  0  0  0  0  0  0  0  0  0  0  0
   -2.7990    1.7910    0.9390 C   0  0  0  0  0  0  0  0  0  0  0  0
   -1.6140    1.1740    0.8040 C   0  0  0  0  0  0  0  0  0  0  0  0
  1  2  2  0
  2  3  1  0
  2 10  1  0
  3  4  1  0
  4  5  2  0
  4  9  1  0
  5  6  1  0
  6  7  2  0
  7  8  1  0
  8  9  2  0
  9 10  1  0
 10 11  1  0
 11 12  2  0
 11 16  1  0
 12 13  1  0
 13 14  1  0
 14 15  1  0
 15 16  2  0
M  END
