
     RDKit          3D

 16 17  0  0  0  0  0  0  0  0999 V2000
    4.9470    1.7520    0.0550 C   0  0  0  0  0  0  0  0  0  0  0  0
    4.1550    0.5000    0.0060 C   0  0  0  0  0  0  0  0  0  0  0  0
    2.8140    0.4930    0.0830 C   0  0  0  0  0  0  0  0  0  0  0  0
    2.4610   -0.9170   -0.0020 C   0  0  0  0  0  0  0  0  0  0  0  0
    1.2230   -1.3800    0.0340 C   0  0  0  0  0  0  0  0  0  0  0  0
    0.0620   -0.5210    0.1660 C   0  0  0  0  0  0  0  0  0  0  0  0
   -1.1600   -1.0210    0.1990 C   0  0  0  0  0  0  0  0  0  0  0  0
   -2.2990   -0.1950    0.3270 N   0  0  0  0  0  0  0  0  0  0  0  0
   -2.2730    1.1220   -0.2560 C   0  0  0  0  0  0  0  0  0  0  0  0
   -3.5010    1.3100   -1.1190 C   0  0  0  0  0  0  0  0  0  0  0  0
   -4.4240    0.3050   -0.9960 O   0  0  0  0  0  0  0  0  0  0  0  0
   -4.7010   -0.0480    0.3180 C   0  0  0  0  0  0  0  0  0  0  0  0
   -3.4880   -0.6190    1.0210 C   0  0  0  0  0  0  0  0  0  0  0  0
    3.6700   -1.6800   -0.1300 C   0  0  0  0  0  0  0  0  0  0  0  0
    3.8370   -3.0530   -0.2430 O   0  0  0  0  0  0  0  0  0  0  0  0
    4.6390   -0.8290   -0.1220 N   0  0  0  0  0  0  0  0  0  0  0  0
  1  2  1  0
  2  3  2  0
  2 16  1  0
  3  4  1  0
  4  5  2  3
  4 14  1  0
  5  6  1  0
  6  7  2  3
  7  8  1  0
  8  9  1  0
  8 13  1  0
  9 10  1  0
 10 11  1  0
 11 12  1  0
 12 13  1  0
 14 15  1  0
 14 16  2  0
M  END
