
     RDKit          3D

 16 18  0  0  0  0  0  0  0  0999 V2000
   -4.1990    2.0430    0.3820 O   0  0  0  0  0  0  0  0  0  0  0  0
   -3.3790    0.9470    0.1380 C   0  0  0  0  0  0  0  0  0  0  0  0
   -3.8560   -0.3080   -0.1420 C   0  0  0  0  0  0  0  0  0  0  0  0
   -2.9870   -1.3560   -0.3750 C   0  0  0  0  0  0  0  0  0  0  0  0
   -1.6290   -1.1840   -0.3360 C   0  0  0  0  0  0  0  0  0  0  0  0
   -0.7450   -2.1670   -0.5540 N   0  0  0  0  0  0  0  0  0  0  0  0
    0.5780   -1.9730   -0.5100 N   0  0  0  0  0  0  0  0  0  0  0  0
    1.0970   -0.7740   -0.2420 C   0  0  0  0  0  0  0  0  0  0  0  0
    2.5370   -0.5240   -0.1850 C   0  0  0  0  0  0  0  0  0  0  0  0
    3.1380    0.6870    0.0860 C   0  0  0  0  0  0  0  0  0  0  0  0
    4.5000    0.5090    0.0470 C   0  0  0  0  0  0  0  0  0  0  0  0
    4.6780   -0.8350   -0.2520 C   0  0  0  0  0  0  0  0  0  0  0  0
    3.5030   -1.3970   -0.3790 O   0  0  0  0  0  0  0  0  0  0  0  0
    0.2190    0.2630   -0.0110 C   0  0  0  0  0  0  0  0  0  0  0  0
   -1.1580    0.0820   -0.0530 C   0  0  0  0  0  0  0  0  0  0  0  0
   -2.0190    1.1360    0.1810 C   0  0  0  0  0  0  0  0  0  0  0  0
  1  2  1  0
  2  3  2  0
  2 16  1  0
  3  4  1  0
  4  5  2  0
  5  6  1  0
  5 15  1  0
  6  7  2  0
  7  8  1  0
  8  9  1  0
  8 14  2  0
  9 10  2  0
  9 13  1  0
 10 11  1  0
 11 12  2  0
 12 13  1  0
 14 15  1  0
 15 16  2  0
M  END
