
     RDKit          3D

 16 17  0  0  0  0  0  0  0  0999 V2000
   -2.2530   -2.0410    0.5200 C   0  0  0  0  0  0  0  0  0  0  0  0
   -1.1200   -2.2160   -0.0290 C   0  0  0  0  0  0  0  0  0  0  0  0
   -0.0600   -1.3050   -0.2670 C   0  0  0  0  0  0  0  0  0  0  0  0
    1.1020   -1.8100   -0.7520 C   0  0  0  0  0  0  0  0  0  0  0  0
    2.3870   -1.1600   -1.0880 C   0  0  0  0  0  0  0  0  0  0  0  0
    3.0110   -0.1090   -0.5110 C   0  0  0  0  0  0  0  0  0  0  0  0
    2.6930    0.7870    0.6330 C   0  0  0  0  0  0  0  0  0  0  0  0
    1.5680    1.3210    1.1210 C   0  0  0  0  0  0  0  0  0  0  0  0
    0.1850    1.1630    0.6220 C   0  0  0  0  0  0  0  0  0  0  0  0
   -0.4180    2.3490    0.7510 N   0  0  0  0  0  0  0  0  0  0  0  0
   -1.6450    2.4470    0.1820 C   0  0  0  0  0  0  0  0  0  0  0  0
   -2.2200    3.5670    0.3050 O   0  0  0  0  0  0  0  0  0  0  0  0
   -2.2470    1.4290   -0.4820 N   0  0  0  0  0  0  0  0  0  0  0  0
   -1.6710    0.2150   -0.6350 C   0  0  0  0  0  0  0  0  0  0  0  0
   -2.1950   -0.7440   -1.2670 O   0  0  0  0  0  0  0  0  0  0  0  0
   -0.4280    0.0970   -0.0530 C   0  0  0  0  0  0  0  0  0  0  0  0
  1  2  2  0
  2  3  1  0
  3  4  2  0
  3 16  1  0
  4  5  1  0
  5  6  2  0
  6  7  1  0
  7  8  2  0
  8  9  1  0
  9 10  1  0
  9 16  2  0
 10 11  1  0
 11 12  2  0
 11 13  1  0
 13 14  1  0
 14 15  2  0
 14 16  1  0
M  END
