
     RDKit          3D

 18 18  0  0  0  0  0  0  0  0999 V2000
   -2.7080    1.9730    1.9170 C   0  0  0  0  0  0  0  0  0  0  0  0
   -3.8720    1.4540    1.5990 C   0  0  0  0  0  0  0  0  0  0  0  0
   -4.9880    2.3040    1.5460 O   0  0  0  0  0  0  0  0  0  0  0  0
   -4.0230    0.0280    1.3040 C   0  0  0  0  0  0  0  0  0  0  0  0
   -5.1930   -0.4700    0.9920 C   0  0  0  0  0  0  0  0  0  0  0  0
   -5.3450   -1.9060    0.6960 C   0  0  0  0  0  0  0  0  0  0  0  0
   -2.8450   -0.8560    1.3600 C   0  0  0  0  0  0  0  0  0  0  0  0
   -1.8820   -0.3770    0.3880 N   0  0  0  0  0  0  0  0  0  0  0  0
   -0.6660   -1.0810    0.2720 C   0  0  0  0  0  0  0  0  0  0  0  0
   -0.4460   -2.0790    0.9910 O   0  0  0  0  0  0  0  0  0  0  0  0
    0.3790   -0.6330   -0.7210 C   0  0  0  0  0  0  0  0  0  0  0  0
    1.4670   -1.4740   -0.6460 O   0  0  0  0  0  0  0  0  0  0  0  0
    2.4780   -1.2020   -1.5300 C   0  0  0  0  0  0  0  0  0  0  0  0
    3.0420    0.1770   -1.3080 C   0  0  2  0  0  0  0  0  0  0  0  0
    4.1780    0.4630   -2.2850 C   0  0  0  0  0  0  0  0  0  0  0  0
    5.3800    0.8030   -1.4610 C   0  0  0  0  0  0  0  0  0  0  0  0
    4.8560    1.1640   -0.0720 C   0  0  0  0  0  0  0  0  0  0  0  0
    3.6350    0.2860    0.0600 C   0  0  0  0  0  0  0  0  0  0  0  0
  1  2  2  0
  2  3  1  0
  2  4  1  0
  4  5  2  3
  4  7  1  0
  5  6  1  0
  7  8  1  0
  8  9  1  0
  9 10  2  0
  9 11  1  0
 11 12  1  0
 12 13  1  0
 14 13  1  6
 14 15  1  0
 14 18  1  0
 15 16  1  0
 16 17  1  0
 17 18  1  0
M  END
