
     RDKit          3D

 25 27  0  0  0  0  0  0  0  0999 V2000
    2.5010   -2.5790    1.0110 O   0  0  0  0  0  0  0  0  0  0  0  0
    1.3750   -2.0770    1.3260 C   0  0  0  0  0  0  0  0  0  0  0  0
    0.3260   -2.9750    1.4570 O   0  0  0  0  0  0  0  0  0  0  0  0
    1.2970   -0.6240    1.5140 C   0  0  1  0  0  0  0  0  0  0  0  0
    2.5450    0.1520    1.4670 C   0  0  0  0  0  0  0  0  0  0  0  0
    3.3870    0.1800    0.3070 C   0  0  0  0  0  0  0  0  0  0  0  0
    4.4710   -0.6290    0.0930 C   0  0  0  0  0  0  0  0  0  0  0  0
    5.2420   -0.5670   -1.0480 C   0  0  0  0  0  0  0  0  0  0  0  0
    4.9460    0.3230   -2.0260 C   0  0  0  0  0  0  0  0  0  0  0  0
    3.8740    1.1610   -1.8690 C   0  0  0  0  0  0  0  0  0  0  0  0
    3.1150    1.0800   -0.7150 C   0  0  0  0  0  0  0  0  0  0  0  0
    0.1160    0.0420    0.8450 C   0  0  2  0  0  0  0  0  0  0  0  0
   -1.2140   -0.4460    1.3760 C   0  0  0  0  0  0  0  0  0  0  0  0
   -2.3490    0.2160    0.7290 C   0  0  0  0  0  0  0  0  0  0  0  0
   -2.8630    1.3760    1.2420 C   0  0  0  0  0  0  0  0  0  0  0  0
   -3.9480    2.0190    0.6370 C   0  0  0  0  0  0  0  0  0  0  0  0
   -4.4980    1.4570   -0.4980 C   0  0  0  0  0  0  0  0  0  0  0  0
   -3.9880    0.2900   -1.0210 C   0  0  0  0  0  0  0  0  0  0  0  0
   -2.9070   -0.3260   -0.3950 C   0  0  0  0  0  0  0  0  0  0  0  0
   -4.7620    0.0110   -2.1400 O   0  0  0  0  0  0  0  0  0  0  0  0
   -5.9650    0.7510   -2.0270 C   0  0  0  0  0  0  0  0  0  0  0  0
   -5.5680    1.8970   -1.2750 O   0  0  0  0  0  0  0  0  0  0  0  0
    0.0900   -0.2850   -0.6290 C   0  0  0  0  0  0  0  0  0  0  0  0
    0.0010    0.6240   -1.4840 O   0  0  0  0  0  0  0  0  0  0  0  0
    0.1600   -1.5870   -1.1020 O   0  0  0  0  0  0  0  0  0  0  0  0
  1  2  2  0
  2  3  1  0
  2  4  1  0
  4  5  1  6
  4 12  1  0
  5  6  1  0
  6  7  2  0
  6 11  1  0
  7  8  1  0
  8  9  2  0
  9 10  1  0
 10 11  2  0
 12 13  1  1
 12 23  1  0
 13 14  1  0
 14 15  2  0
 14 19  1  0
 15 16  1  0
 16 17  2  0
 17 18  1  0
 17 22  1  0
 18 19  2  0
 18 20  1  0
 20 21  1  0
 21 22  1  0
 23 24  2  0
 23 25  1  0
M  END
