
     RDKit          3D

 18 18  0  0  0  0  0  0  0  0999 V2000
   -5.2240    1.5570    0.6510 C   0  0  0  0  0  0  0  0  0  0  0  0
   -4.7430    1.4510   -0.7740 C   0  0  0  0  0  0  0  0  0  0  0  0
   -3.8670    0.3400   -0.8360 O   0  0  0  0  0  0  0  0  0  0  0  0
   -2.7090    0.2470   -0.0870 C   0  0  0  0  0  0  0  0  0  0  0  0
   -2.4410    1.2020    0.6750 O   0  0  0  0  0  0  0  0  0  0  0  0
   -1.8700   -0.9330   -0.2160 C   0  0  0  0  0  0  0  0  0  0  0  0
   -0.7340   -1.1610    0.4360 C   0  0  0  0  0  0  0  0  0  0  0  0
   -0.1530   -0.2700    1.3790 N   0  0  0  0  0  0  0  0  0  0  0  0
    1.2500    0.0350    1.3700 C   0  0  0  0  0  0  0  0  0  0  0  0
    1.5520    0.8390    0.1170 C   0  0  2  0  0  0  0  0  0  0  0  0
    1.2170    0.0730   -0.9750 O   0  0  0  0  0  0  0  0  0  0  0  0
    2.9720    1.3150    0.0830 C   0  0  1  0  0  0  0  0  0  0  0  0
    3.2410    2.1980    1.2830 C   0  0  0  0  0  0  0  0  0  0  0  0
    3.9830    0.2030    0.1030 C   0  0  0  0  0  0  0  0  0  0  0  0
    3.8760   -0.7440   -1.0430 C   0  0  0  0  0  0  0  0  0  0  0  0
   -0.1560   -2.4680    0.0510 C   0  0  0  0  0  0  0  0  0  0  0  0
   -0.7760   -2.6560   -1.3390 C   0  0  0  0  0  0  0  0  0  0  0  0
   -2.1590   -2.0840   -1.1120 C   0  0  0  0  0  0  0  0  0  0  0  0
  1  2  1  0
  2  3  1  0
  3  4  1  0
  4  5  2  0
  4  6  1  0
  6  7  2  0
  6 18  1  0
  7  8  1  0
  7 16  1  0
  8  9  1  0
  9 10  1  0
 10 11  1  6
 10 12  1  0
 12 13  1  1
 12 14  1  0
 14 15  1  0
 16 17  1  0
 17 18  1  0
M  END
