
     RDKit          3D

 18 18  0  0  0  0  0  0  0  0999 V2000
   -3.9660   -0.9250   -1.7720 C   0  0  0  0  0  0  0  0  0  0  0  0
   -3.5450   -0.7540   -0.3310 C   0  0  1  0  0  0  0  0  0  0  0  0
   -3.8250   -2.0230    0.4720 C   0  0  0  0  0  0  0  0  0  0  0  0
   -2.1380   -0.5800   -0.3110 O   0  0  0  0  0  0  0  0  0  0  0  0
   -1.5090    0.5040    0.2340 C   0  0  0  0  0  0  0  0  0  0  0  0
   -2.1640    1.4120    0.7510 O   0  0  0  0  0  0  0  0  0  0  0  0
   -0.0130    0.5580    0.1880 C   0  0  1  0  0  0  0  0  0  0  0  0
    0.4860    0.4920   -1.2310 C   0  0  0  0  0  0  0  0  0  0  0  0
    1.9660    0.5250   -1.2800 C   0  0  0  0  0  0  0  0  0  0  0  0
    2.6790   -0.6250   -0.7140 C   0  0  0  0  0  0  0  0  0  0  0  0
    2.2010   -1.7240   -0.2300 C   0  0  0  0  0  0  0  0  0  0  0  0
    3.3400   -2.5830    0.2280 C   0  0  0  0  0  0  0  0  0  0  0  0
    4.5340   -1.7700   -0.0870 C   0  0  0  0  0  0  0  0  0  0  0  0
    4.1500   -0.6530   -0.6240 C   0  0  0  0  0  0  0  0  0  0  0  0
    0.4270    1.8430    0.8800 C   0  0  0  0  0  0  0  0  0  0  0  0
   -0.0940    3.0620    0.2470 C   0  0  0  0  0  0  0  0  0  0  0  0
    0.2430    4.3600    0.7850 N   0  0  0  0  0  0  0  0  0  0  0  0
   -0.8340    3.0880   -0.7570 O   0  0  0  0  0  0  0  0  0  0  0  0
  2  1  1  6
  2  3  1  0
  2  4  1  0
  4  5  1  0
  5  6  2  0
  5  7  1  0
  7  8  1  6
  7 15  1  0
  8  9  1  0
  9 10  1  0
 10 11  2  0
 10 14  1  0
 11 12  1  0
 12 13  1  0
 13 14  2  0
 15 16  1  0
 16 17  1  0
 16 18  2  0
M  END
