
     RDKit          3D

 13 13  0  0  0  0  0  0  0  0999 V2000
   -1.2500   -1.0150   -0.5430 O   0  0  0  0  0  0  0  0  0  0  0  0
   -0.6680   -0.0430    0.0050 C   0  0  0  0  0  0  0  0  0  0  0  0
    0.6920   -0.0400    0.2130 O   0  0  0  0  0  0  0  0  0  0  0  0
    1.3580   -1.2870   -0.0890 C   0  0  0  0  0  0  0  0  0  0  0  0
    2.8480   -1.1280    0.1400 C   0  0  0  0  0  0  0  0  0  0  0  0
    3.3060   -0.0950   -0.6910 O   0  0  0  0  0  0  0  0  0  0  0  0
    3.5600    0.9320   -0.0110 O   0  0  0  0  0  0  0  0  0  0  0  0
    4.7420    1.3530    0.1620 O   0  0  0  0  0  0  0  0  0  0  0  0
   -1.5470    1.1070    0.3630 C   0  0  2  0  0  0  0  0  0  0  0  0
   -2.7480    0.4520    1.0880 C   0  0  0  0  0  0  0  0  0  0  0  0
   -3.5600   -0.0150   -0.1220 C   0  0  0  0  0  0  0  0  0  0  0  0
   -2.7910    0.4500   -1.2050 O   0  0  0  0  0  0  0  0  0  0  0  0
   -2.2110    1.5450   -0.7700 O   0  0  0  0  0  0  0  0  0  0  0  0
  1  2  2  0
  2  3  1  0
  9  2  1  6
  3  4  1  0
  4  5  1  0
  5  6  1  0
  6  7  1  0
  7  8  1  0
  9 10  1  0
  9 13  1  0
 10 11  1  0
 11 12  1  0
 12 13  1  0
M  END
