
     RDKit          3D

 13 13  0  0  0  0  0  0  0  0999 V2000
    1.4460   -0.7820   -1.6690 O   0  0  0  0  0  0  0  0  0  0  0  0
    1.0290   -0.2080   -0.6280 C   0  0  0  0  0  0  0  0  0  0  0  0
    1.8420   -0.2220    0.4880 O   0  0  0  0  0  0  0  0  0  0  0  0
    3.0980   -0.8660    0.4410 C   0  0  0  0  0  0  0  0  0  0  0  0
    3.9020   -0.2960   -0.5280 O   0  0  0  0  0  0  0  0  0  0  0  0
    4.1330    0.9740   -0.3230 O   0  0  0  0  0  0  0  0  0  0  0  0
   -0.2990    0.4340   -0.6900 C   0  0  1  0  0  0  0  0  0  0  0  0
   -1.3160   -0.6260   -1.0260 C   0  0  0  0  0  0  0  0  0  0  0  0
   -2.5500   -0.0110   -1.2140 O   0  0  0  0  0  0  0  0  0  0  0  0
   -2.8990    0.7890   -0.1500 C   0  0  0  0  0  0  0  0  0  0  0  0
   -2.5880    0.1080    1.1640 C   0  0  0  0  0  0  0  0  0  0  0  0
   -1.1950    0.1580    1.3180 O   0  0  0  0  0  0  0  0  0  0  0  0
   -0.6490    1.0310    0.5100 O   0  0  0  0  0  0  0  0  0  0  0  0
  1  2  2  0
  2  3  1  0
  7  2  1  1
  3  4  1  0
  4  5  1  0
  5  6  1  0
  7  8  1  0
  7 13  1  0
  8  9  1  0
  9 10  1  0
 10 11  1  0
 11 12  1  0
 12 13  1  0
M  END
