
     RDKit          3D

 13 13  0  0  0  0  0  0  0  0999 V2000
   -3.2920   -0.9770   -0.3230 O   0  0  0  0  0  0  0  0  0  0  0  0
   -2.1790   -1.0190   -0.0090 C   0  0  0  0  0  0  0  0  0  0  0  0
   -1.4130   -2.0970   -0.2390 O   0  0  0  0  0  0  0  0  0  0  0  0
    0.0320   -2.0450   -0.3070 C   0  0  0  0  0  0  0  0  0  0  0  0
    0.5410   -0.8570    0.3010 C   0  0  1  0  0  0  0  0  0  0  0  0
    1.9750   -0.4500   -0.1300 C   0  0  0  0  0  0  0  0  0  0  0  0
    2.3310    0.4480    0.8600 O   0  0  0  0  0  0  0  0  0  0  0  0
    2.8210    1.5450    0.2850 O   0  0  0  0  0  0  0  0  0  0  0  0
    4.0030    1.8340    0.3420 O   0  0  0  0  0  0  0  0  0  0  0  0
   -0.2850    0.3380    0.0370 O   0  0  0  0  0  0  0  0  0  0  0  0
   -1.5060    0.0860    0.7080 C   0  0  1  0  0  0  0  0  0  0  0  0
   -2.3650    1.3490    0.5760 C   0  0  0  0  0  0  0  0  0  0  0  0
   -1.7410    2.3330   -0.2070 O   0  0  0  0  0  0  0  0  0  0  0  0
  1  2  2  0
  2  3  1  0
  2 11  1  0
  3  4  1  0
  4  5  1  0
  5  6  1  6
  5 10  1  0
  6  7  1  0
  7  8  1  0
  8  9  1  0
 10 11  1  0
 11 12  1  6
 12 13  1  0
M  END
