
     RDKit          3D

 13 13  0  0  0  0  0  0  0  0999 V2000
   -3.7880   -0.7700    1.4560 O   0  0  0  0  0  0  0  0  0  0  0  0
   -2.6650   -0.9200    0.8720 C   0  0  0  0  0  0  0  0  0  0  0  0
   -1.8380   -2.0210    0.9500 O   0  0  0  0  0  0  0  0  0  0  0  0
   -1.1060   -2.0390   -0.2600 C   0  0  0  0  0  0  0  0  0  0  0  0
   -0.7920   -0.5730   -0.4820 C   0  0  2  0  0  0  0  0  0  0  0  0
    0.3010   -0.1600    0.2600 O   0  0  0  0  0  0  0  0  0  0  0  0
    1.2370    0.3960   -0.5810 C   0  0  0  0  0  0  0  0  0  0  0  0
    2.4680    0.8740    0.1600 C   0  0  0  0  0  0  0  0  0  0  0  0
    3.0380   -0.2320    0.8040 O   0  0  0  0  0  0  0  0  0  0  0  0
    4.1090    0.1500    1.4560 O   0  0  0  0  0  0  0  0  0  0  0  0
   -2.0760    0.1090   -0.0040 C   0  0  2  0  0  0  0  0  0  0  0  0
   -1.7920    1.2600    0.7290 O   0  0  0  0  0  0  0  0  0  0  0  0
   -2.3870    2.2660    0.1680 O   0  0  0  0  0  0  0  0  0  0  0  0
  1  2  2  0
  2  3  1  0
  2 11  1  0
  3  4  1  0
  4  5  1  0
  5  6  1  1
  5 11  1  0
  6  7  1  0
  7  8  1  0
  8  9  1  0
  9 10  1  0
 11 12  1  1
 12 13  1  0
M  END
