
     RDKit          3D

 13 14  0  0  0  0  0  0  0  0999 V2000
    2.6670   -0.3440   -0.9650 O   0  0  0  0  0  0  0  0  0  0  0  0
    2.2710   -1.1820   -0.1290 C   0  0  0  0  0  0  0  0  0  0  0  0
    1.1320   -0.9070    0.6060 O   0  0  0  0  0  0  0  0  0  0  0  0
    0.3740    0.2610    0.4840 C   0  0  2  0  0  0  0  0  0  0  0  0
   -0.6850    0.1940    1.3680 O   0  0  0  0  0  0  0  0  0  0  0  0
   -1.5950   -0.7980    1.0910 C   0  0  0  0  0  0  0  0  0  0  0  0
   -1.5690   -1.2180   -0.2360 O   0  0  0  0  0  0  0  0  0  0  0  0
   -1.5440   -0.0410   -1.0130 C   0  0  0  0  0  0  0  0  0  0  0  0
   -0.1250    0.4820   -0.9310 C   0  0  1  0  0  0  0  0  0  0  0  0
   -0.0840    1.8620   -1.0750 O   0  0  0  0  0  0  0  0  0  0  0  0
    1.0800    2.2130   -0.4720 O   0  0  0  0  0  0  0  0  0  0  0  0
    1.1580    1.4830    0.7280 C   0  0  0  0  0  0  0  0  0  0  0  0
    1.7820    1.8460    1.7660 O   0  0  0  0  0  0  0  0  0  0  0  0
  1  2  2  0
  2  3  1  0
  4  3  1  6
  4  5  1  0
  4  9  1  0
  4 12  1  0
  5  6  1  0
  6  7  1  0
  7  8  1  0
  9  8  1  1
  9 10  1  0
 10 11  1  0
 11 12  1  0
 12 13  2  0
M  END
