
     RDKit          3D

 20 21  0  0  0  0  0  0  0  0999 V2000
    5.7090    2.1820   -1.2540 O   0  0  0  0  0  0  0  0  0  0  0  0
    4.6760    1.4840   -1.0500 C   0  0  0  0  0  0  0  0  0  0  0  0
    3.9390    1.6160    0.1040 C   0  0  0  0  0  0  0  0  0  0  0  0
    2.8180    0.8230    0.2680 C   0  0  0  0  0  0  0  0  0  0  0  0
    2.4270   -0.0660   -0.6580 N   0  0  0  0  0  0  0  0  0  0  0  0
    1.2700   -0.8570   -0.4470 C   0  0  1  0  0  0  0  0  0  0  0  0
    1.1260   -1.4330    0.9180 C   0  0  0  0  0  0  0  0  0  0  0  0
   -0.3580   -1.1910    1.2190 C   0  0  2  0  0  0  0  0  0  0  0  0
   -0.9080   -2.2490    1.8940 O   0  0  0  0  0  0  0  0  0  0  0  0
   -0.8590   -1.0260   -0.1880 C   0  0  1  0  0  0  0  0  0  0  0  0
   -2.2640   -0.6280   -0.3150 C   0  0  0  0  0  0  0  0  0  0  0  0
   -2.4080    0.5970    0.3400 O   0  0  0  0  0  0  0  0  0  0  0  0
   -3.8310    1.1590    0.3030 P   0  0  0  0  0  0  0  0  0  0  0  0
   -4.3800   -0.1630    1.1410 O   0  0  0  0  0  0  0  0  0  0  0  0
   -3.8640    1.2490   -1.3060 O   0  0  0  0  0  0  0  0  0  0  0  0
   -3.3030    2.4630    1.2130 O   0  0  0  0  0  0  0  0  0  0  0  0
    0.0670   -0.1660   -0.7240 O   0  0  0  0  0  0  0  0  0  0  0  0
    3.1720   -0.1650   -1.7720 C   0  0  0  0  0  0  0  0  0  0  0  0
    2.8720   -0.9780   -2.6910 O   0  0  0  0  0  0  0  0  0  0  0  0
    4.2730    0.5910   -1.9680 N   0  0  0  0  0  0  0  0  0  0  0  0
  1  2  2  0
  2  3  1  0
  2 20  1  0
  3  4  2  0
  4  5  1  0
  6  5  1  1
  5 18  1  0
  6  7  1  0
  6 17  1  0
  7  8  1  0
  8  9  1  6
  8 10  1  0
 10 11  1  1
 10 17  1  0
 11 12  1  0
 12 13  1  0
 13 14  1  0
 13 15  1  0
 13 16  1  0
 18 19  2  0
 18 20  1  0
M  END
