
     RDKit          3D

 13 13  0  0  0  0  0  0  0  0999 V2000
   -3.9920   -1.2080    0.1070 O   0  0  0  0  0  0  0  0  0  0  0  0
   -3.8000    0.0140    0.3130 C   0  0  0  0  0  0  0  0  0  0  0  0
   -2.4880    0.4200    0.4300 O   0  0  0  0  0  0  0  0  0  0  0  0
   -1.4420   -0.4920    0.3230 C   0  0  1  0  0  0  0  0  0  0  0  0
   -0.7410   -0.1730   -0.8430 O   0  0  0  0  0  0  0  0  0  0  0  0
    0.2370    0.7530   -0.4830 C   0  0  0  0  0  0  0  0  0  0  0  0
    1.5720    0.0210   -0.6730 C   0  0  1  0  0  0  0  0  0  0  0  0
    2.5950    0.9110   -0.9070 O   0  0  0  0  0  0  0  0  0  0  0  0
    3.1010    0.6990   -2.0950 O   0  0  0  0  0  0  0  0  0  0  0  0
    1.7990   -0.7990    0.5670 C   0  0  0  0  0  0  0  0  0  0  0  0
    0.7920   -0.6460    1.5350 O   0  0  0  0  0  0  0  0  0  0  0  0
   -0.5720   -0.5630    1.5030 C   0  0  0  0  0  0  0  0  0  0  0  0
   -1.1670   -0.5450    2.6090 O   0  0  0  0  0  0  0  0  0  0  0  0
  1  2  2  0
  2  3  1  0
  4  3  1  1
  4  5  1  0
  4 12  1  0
  5  6  1  0
  6  7  1  0
  7  8  1  1
  7 10  1  0
  8  9  1  0
 10 11  1  0
 11 12  1  0
 12 13  2  0
M  END
