
     RDKit          3D

 13 13  0  0  0  0  0  0  0  0999 V2000
   -1.8110    1.6060    2.2960 O   0  0  0  0  0  0  0  0  0  0  0  0
   -2.2380    0.9630    1.2960 C   0  0  0  0  0  0  0  0  0  0  0  0
   -3.5640    0.8410    0.8810 O   0  0  0  0  0  0  0  0  0  0  0  0
   -3.6520    0.0090   -0.2590 C   0  0  0  0  0  0  0  0  0  0  0  0
   -2.4330   -0.9010   -0.0490 C   0  0  0  0  0  0  0  0  0  0  0  0
   -1.4310    0.1880    0.3320 C   0  0  2  0  0  0  0  0  0  0  0  0
   -0.2650   -0.3070    0.8340 O   0  0  0  0  0  0  0  0  0  0  0  0
    0.7700    0.1600    0.0190 C   0  0  0  0  0  0  0  0  0  0  0  0
    2.1220   -0.3290    0.4820 C   0  0  1  0  0  0  0  0  0  0  0  0
    2.1940   -1.7040    0.4760 O   0  0  0  0  0  0  0  0  0  0  0  0
    3.0680    0.1870   -0.4010 O   0  0  0  0  0  0  0  0  0  0  0  0
    3.9090    0.9880    0.2140 O   0  0  0  0  0  0  0  0  0  0  0  0
    5.0560    0.9810   -0.4420 O   0  0  0  0  0  0  0  0  0  0  0  0
  1  2  2  0
  2  3  1  0
  2  6  1  0
  3  4  1  0
  4  5  1  0
  5  6  1  0
  6  7  1  1
  7  8  1  0
  8  9  1  0
  9 10  1  6
  9 11  1  0
 11 12  1  0
 12 13  1  0
M  END
