
     RDKit          3D

 13 13  0  0  0  0  0  0  0  0999 V2000
    1.5160   -1.4080   -0.8720 O   0  0  0  0  0  0  0  0  0  0  0  0
    1.0120   -0.4540   -0.2510 C   0  0  0  0  0  0  0  0  0  0  0  0
    1.7510    0.7360   -0.1290 O   0  0  0  0  0  0  0  0  0  0  0  0
    3.0420    0.8510   -0.6970 C   0  0  0  0  0  0  0  0  0  0  0  0
    3.9220   -0.1050   -0.1630 O   0  0  0  0  0  0  0  0  0  0  0  0
    5.0870    0.0780   -0.7470 O   0  0  0  0  0  0  0  0  0  0  0  0
   -0.3360   -0.5530    0.3510 C   0  0  1  0  0  0  0  0  0  0  0  0
   -1.1970    0.5070   -0.3300 C   0  0  0  0  0  0  0  0  0  0  0  0
   -2.1400    1.0190    0.5750 O   0  0  0  0  0  0  0  0  0  0  0  0
   -3.2520    0.1580    0.4840 C   0  0  0  0  0  0  0  0  0  0  0  0
   -2.7950   -1.2160    0.9630 C   0  0  0  0  0  0  0  0  0  0  0  0
   -2.1350   -1.8350   -0.0940 O   0  0  0  0  0  0  0  0  0  0  0  0
   -0.8500   -1.8060    0.0960 O   0  0  0  0  0  0  0  0  0  0  0  0
  1  2  2  0
  2  3  1  0
  7  2  1  6
  3  4  1  0
  4  5  1  0
  5  6  1  0
  7  8  1  0
  7 13  1  0
  8  9  1  0
  9 10  1  0
 10 11  1  0
 11 12  1  0
 12 13  1  0
M  END
