
     RDKit          3D

 42 44  0  0  0  0  0  0  0  0999 V2000
   -6.8120    5.6920   -1.9640 C   0  0  0  0  0  0  0  0  0  0  0  0
   -5.4090    5.3750   -1.8680 O   0  0  0  0  0  0  0  0  0  0  0  0
   -4.9450    4.3970   -0.9980 C   0  0  0  0  0  0  0  0  0  0  0  0
   -5.8130    3.8050   -0.3040 O   0  0  0  0  0  0  0  0  0  0  0  0
   -3.5140    4.0340   -0.8570 C   0  0  1  0  0  0  0  0  0  0  0  0
   -2.8350    4.9310   -1.7410 O   0  0  0  0  0  0  0  0  0  0  0  0
   -3.0750    4.2440    0.5600 C   0  0  0  0  0  0  0  0  0  0  0  0
   -3.6530    3.1700    1.4170 C   0  0  0  0  0  0  0  0  0  0  0  0
   -3.5370    1.7690    0.7600 C   0  0  0  0  0  0  0  0  0  0  0  0
   -2.5250    1.8540   -0.1810 N   0  0  0  0  0  0  0  0  0  0  0  0
   -1.9560    0.7750   -0.8890 C   0  0  0  0  0  0  0  0  0  0  0  0
   -1.2210   -0.2980   -0.2410 C   0  0  2  0  0  0  0  0  0  0  0  0
   -1.9710   -1.1480    0.6060 N   0  0  0  0  0  0  0  0  0  0  0  0
   -2.1010   -2.4920    0.0450 C   0  0  0  0  0  0  0  0  0  0  0  0
   -3.0290   -3.3520    0.8030 C   0  0  0  0  0  0  0  0  0  0  0  0
   -2.9440   -4.7480    0.1640 C   0  0  0  0  0  0  0  0  0  0  0  0
   -3.8850   -5.7150    0.8070 C   0  0  0  0  0  0  0  0  0  0  0  0
   -5.6540   -5.2000    0.5560 P   0  0  0  0  0  0  0  0  0  0  0  0
   -6.0550   -5.3510   -1.1470 O   0  0  0  0  0  0  0  0  0  0  0  0
   -6.7180   -6.1190    1.5330 O   0  0  0  0  0  0  0  0  0  0  0  0
    0.2090   -0.1500    0.0280 C   0  0  0  0  0  0  0  0  0  0  0  0
    1.0720    0.5290   -0.7900 C   0  0  0  0  0  0  0  0  0  0  0  0
    2.4350    0.5470   -0.5870 C   0  0  0  0  0  0  0  0  0  0  0  0
    3.3830    1.2580   -1.4730 C   0  0  0  0  0  0  0  0  0  0  0  0
    4.7480    1.0460   -1.0600 N   0  0  0  0  0  0  0  0  0  0  0  0
    5.4690   -0.1790   -1.3260 C   0  0  0  0  0  0  0  0  0  0  0  0
    4.8890   -1.0710   -1.9290 O   0  0  0  0  0  0  0  0  0  0  0  0
    6.8350   -0.2460   -0.8380 C   0  0  0  0  0  0  0  0  0  0  0  0
    7.8870    0.2820   -1.5520 C   0  0  0  0  0  0  0  0  0  0  0  0
    9.2110    0.2470   -1.1090 C   0  0  0  0  0  0  0  0  0  0  0  0
    9.5060   -0.3380    0.0970 C   0  0  0  0  0  0  0  0  0  0  0  0
   10.7990   -0.4210    0.6170 O   0  0  0  0  0  0  0  0  0  0  0  0
   11.3620    0.5920    1.3240 C   0  0  0  0  0  0  0  0  0  0  0  0
   10.6950    1.6560    1.5340 O   0  0  0  0  0  0  0  0  0  0  0  0
    8.4360   -0.8770    0.8220 C   0  0  0  0  0  0  0  0  0  0  0  0
    7.1360   -0.8330    0.3710 C   0  0  0  0  0  0  0  0  0  0  0  0
    2.9710   -0.1430    0.4870 C   0  0  0  0  0  0  0  0  0  0  0  0
    2.1300   -0.8310    1.3270 C   0  0  0  0  0  0  0  0  0  0  0  0
    0.7690   -0.8310    1.0950 C   0  0  0  0  0  0  0  0  0  0  0  0
   -0.0200   -1.5350    1.9740 O   0  0  0  0  0  0  0  0  0  0  0  0
    0.5010   -2.2290    3.0730 C   0  0  0  0  0  0  0  0  0  0  0  0
   -3.1360    2.6760   -1.2870 C   0  0  0  0  0  0  0  0  0  0  0  0
  1  2  1  0
  2  3  1  0
  3  4  2  0
  3  5  1  0
  5  6  1  6
  5  7  1  0
  5 42  1  0
  7  8  1  0
  8  9  1  0
  9 10  1  0
 10 11  1  0
 10 42  1  0
 12 11  1  1
 12 13  1  0
 12 21  1  0
 13 14  1  0
 14 15  1  0
 15 16  1  0
 16 17  1  0
 17 18  1  0
 18 19  1  0
 18 20  1  0
 21 22  2  0
 21 39  1  0
 22 23  1  0
 23 24  1  0
 23 37  2  0
 24 25  1  0
 25 26  1  0
 26 27  2  0
 26 28  1  0
 28 29  2  0
 28 36  1  0
 29 30  1  0
 30 31  2  0
 31 32  1  0
 31 35  1  0
 32 33  1  0
 33 34  2  0
 35 36  2  0
 37 38  1  0
 38 39  2  0
 39 40  1  0
 40 41  1  0
M  END
