
     RDKit          3D

 41 42  0  0  0  0  0  0  0  0999 V2000
   -5.6800   -2.4170    0.9110 C   0  0  0  0  0  0  0  0  0  0  0  0
   -4.7310   -1.5690    0.0860 N   0  0  0  0  0  0  0  0  0  0  0  0
   -5.3010   -0.7950   -0.9300 C   0  0  0  0  0  0  0  0  0  0  0  0
   -4.7490   -0.0470   -1.7320 O   0  0  0  0  0  0  0  0  0  0  0  0
   -6.7190   -0.8410   -1.1100 O   0  0  0  0  0  0  0  0  0  0  0  0
   -3.4040   -1.7350    0.4350 C   0  0  0  0  0  0  0  0  0  0  0  0
   -3.1890   -2.6730    1.3690 O   0  0  0  0  0  0  0  0  0  0  0  0
   -2.1990   -1.1490    0.0370 N   0  0  0  0  0  0  0  0  0  0  0  0
   -2.1620    0.0360   -0.7540 C   0  0  0  0  0  0  0  0  0  0  0  0
   -0.7830    0.6740   -0.4620 C   0  0  2  0  0  0  0  0  0  0  0  0
   -0.8800    2.0900   -0.9010 C   0  0  0  0  0  0  0  0  0  0  0  0
   -1.8350    2.7220   -0.0750 N   0  0  0  0  0  0  0  0  0  0  0  0
   -2.2300    4.1620   -0.2920 C   0  0  0  0  0  0  0  0  0  0  0  0
   -1.7240    4.6620   -1.2670 O   0  0  0  0  0  0  0  0  0  0  0  0
   -3.0770    4.4830    0.7380 N   0  0  0  0  0  0  0  0  0  0  0  0
   -3.3480    6.1190    0.2190 C   0  0  0  0  0  0  0  0  0  0  0  0
   -2.7980    6.4510   -0.7460 O   0  0  0  0  0  0  0  0  0  0  0  0
    0.2640   -0.1850   -1.0180 C   0  0  1  0  0  0  0  0  0  0  0  0
    1.6200    0.4170   -0.6890 C   0  0  0  0  0  0  0  0  0  0  0  0
    1.9210    0.0880    0.6140 O   0  0  0  0  0  0  0  0  0  0  0  0
    3.0300    0.4660    1.3460 C   0  0  0  0  0  0  0  0  0  0  0  0
    3.0080    0.3290    2.5860 O   0  0  0  0  0  0  0  0  0  0  0  0
    4.2610    1.0330    0.7530 C   0  0  0  0  0  0  0  0  0  0  0  0
    4.7480    2.1250    1.3170 C   0  0  0  0  0  0  0  0  0  0  0  0
    5.9460    2.8280    0.8780 C   0  0  0  0  0  0  0  0  0  0  0  0
    6.6020    2.3850   -0.1110 O   0  0  0  0  0  0  0  0  0  0  0  0
    6.3460    3.9720    1.5510 O   0  0  0  0  0  0  0  0  0  0  0  0
    4.9160    0.4230   -0.3950 C   0  0  0  0  0  0  0  0  0  0  0  0
    5.3130   -0.8380   -0.4880 C   0  0  0  0  0  0  0  0  0  0  0  0
    5.2060   -1.8150    0.4300 O   0  0  0  0  0  0  0  0  0  0  0  0
    4.1960   -2.3450    1.1480 C   0  0  0  0  0  0  0  0  0  0  0  0
    4.3590   -2.4390    2.4230 O   0  0  0  0  0  0  0  0  0  0  0  0
    2.9480   -2.8240    0.6750 N   0  0  0  0  0  0  0  0  0  0  0  0
    2.4720   -2.7100   -0.6920 C   0  0  0  0  0  0  0  0  0  0  0  0
    1.0010   -2.6260   -0.8170 C   0  0  0  0  0  0  0  0  0  0  0  0
    0.4050   -3.6850   -1.2700 O   0  0  0  0  0  0  0  0  0  0  0  0
    0.1480   -1.5450   -0.5110 N   0  0  0  0  0  0  0  0  0  0  0  0
   -0.9620   -1.8360    0.4090 C   0  0  2  0  0  0  0  0  0  0  0  0
   -1.3250   -3.3020    0.2790 C   0  0  0  0  0  0  0  0  0  0  0  0
   -0.7860   -4.2300    1.1780 N   0  0  0  0  0  0  0  0  0  0  0  0
   -2.1230   -3.6600   -0.6520 O   0  0  0  0  0  0  0  0  0  0  0  0
  1  2  1  0
  2  3  1  0
  2  6  1  0
  3  4  2  0
  3  5  1  0
  6  7  2  0
  6  8  1  0
  8  9  1  0
  8 38  1  0
  9 10  1  0
 10 11  1  6
 10 18  1  0
 11 12  1  0
 12 13  1  0
 13 14  2  0
 13 15  1  0
 15 16  1  0
 16 17  2  0
 18 19  1  1
 18 37  1  0
 19 20  1  0
 20 21  1  0
 21 22  2  0
 21 23  1  0
 23 24  2  3
 23 28  1  0
 24 25  1  0
 25 26  2  0
 25 27  1  0
 28 29  2  0
 29 30  1  0
 30 31  1  0
 31 32  2  0
 31 33  1  0
 33 34  1  0
 34 35  1  0
 35 36  2  0
 35 37  1  0
 37 38  1  0
 38 39  1  6
 39 40  1  0
 39 41  2  0
M  END
