
     RDKit          3D

 41 43  0  0  0  0  0  0  0  0999 V2000
   -1.7010    3.1600   -3.4120 N   0  0  0  0  0  0  0  0  0  0  0  0
   -1.5810    1.9030   -3.1130 C   0  0  0  0  0  0  0  0  0  0  0  0
   -2.4190    0.9730   -3.6480 O   0  0  0  0  0  0  0  0  0  0  0  0
   -2.2160   -0.2630   -4.2240 C   0  0  0  0  0  0  0  0  0  0  0  0
   -3.2000   -1.3580   -3.8220 C   0  0  0  0  0  0  0  0  0  0  0  0
   -3.9800   -1.1320   -2.7480 O   0  0  0  0  0  0  0  0  0  0  0  0
   -4.6540   -1.6510   -1.7230 C   0  0  0  0  0  0  0  0  0  0  0  0
   -4.3910   -1.8630   -0.4330 C   0  0  0  0  0  0  0  0  0  0  0  0
   -5.5100   -2.4920    0.3210 C   0  0  0  0  0  0  0  0  0  0  0  0
   -6.7200   -2.8360   -0.3310 O   0  0  0  0  0  0  0  0  0  0  0  0
   -5.4850   -2.7740    1.5910 C   0  0  0  0  0  0  0  0  0  0  0  0
   -6.6160   -3.3710    2.1750 O   0  0  0  0  0  0  0  0  0  0  0  0
   -3.2020   -1.5960    0.3420 C   0  0  0  0  0  0  0  0  0  0  0  0
   -2.7900   -2.4000    1.2880 O   0  0  0  0  0  0  0  0  0  0  0  0
   -2.3050   -0.4680    0.2270 N   0  0  0  0  0  0  0  0  0  0  0  0
   -1.9340    0.2960    1.3900 C   0  0  0  0  0  0  0  0  0  0  0  0
   -1.2190    1.3060    1.2840 O   0  0  0  0  0  0  0  0  0  0  0  0
   -2.3720   -0.0670    2.7640 C   0  0  0  0  0  0  0  0  0  0  0  0
   -1.8610    0.8660    3.7440 N   0  0  0  0  0  0  0  0  0  0  0  0
   -2.1840    2.2470    3.6870 C   0  0  0  0  0  0  0  0  0  0  0  0
   -2.9340    2.6520    2.7580 O   0  0  0  0  0  0  0  0  0  0  0  0
   -1.6770    3.1140    4.6420 O   0  0  0  0  0  0  0  0  0  0  0  0
   -1.7930   -0.0530   -1.0280 C   0  0  0  0  0  0  0  0  0  0  0  0
   -0.5540    0.6830   -1.1460 C   0  0  0  0  0  0  0  0  0  0  0  0
    0.6140    0.6900   -0.5180 N   0  0  0  0  0  0  0  0  0  0  0  0
    1.4440    1.5930   -1.0870 C   0  0  0  0  0  0  0  0  0  0  0  0
    2.6470    1.8320   -0.7010 N   0  0  0  0  0  0  0  0  0  0  0  0
    3.2600    1.1640    0.3900 C   0  0  0  0  0  0  0  0  0  0  0  0
    2.6620    1.1180    1.4910 O   0  0  0  0  0  0  0  0  0  0  0  0
    4.5310    0.5420    0.2830 N   0  0  0  0  0  0  0  0  0  0  0  0
    5.2710   -0.1670    1.2940 C   0  0  0  0  0  0  0  0  0  0  0  0
    6.6930    0.2880    1.0130 C   0  0  1  0  0  0  0  0  0  0  0  0
    7.6550   -0.5020    1.6460 O   0  0  0  0  0  0  0  0  0  0  0  0
    8.5810    0.0960    2.4950 C   0  0  0  0  0  0  0  0  0  0  0  0
    8.5970    1.3190    2.7230 O   0  0  0  0  0  0  0  0  0  0  0  0
    9.5320   -0.7260    3.1120 O   0  0  0  0  0  0  0  0  0  0  0  0
    6.7530    0.1510   -0.4990 C   0  0  0  0  0  0  0  0  0  0  0  0
    5.3640    0.4890   -0.8910 C   0  0  0  0  0  0  0  0  0  0  0  0
    4.9920    0.6950   -2.0690 O   0  0  0  0  0  0  0  0  0  0  0  0
    0.7560    2.1490   -2.0910 N   0  0  0  0  0  0  0  0  0  0  0  0
   -0.4770    1.6220   -2.1680 C   0  0  0  0  0  0  0  0  0  0  0  0
  1  2  2  0
  2  3  1  0
  2 41  1  0
  3  4  1  0
  4  5  1  0
  5  6  1  0
  6  7  1  0
  7  8  2  0
  8  9  1  0
  8 13  1  0
  9 10  1  0
  9 11  2  3
 11 12  1  0
 13 14  2  0
 13 15  1  0
 15 16  1  0
 15 23  1  0
 16 17  2  0
 16 18  1  0
 18 19  1  0
 19 20  1  0
 20 21  2  0
 20 22  1  0
 23 24  1  0
 24 25  1  0
 24 41  2  0
 25 26  1  0
 26 27  2  3
 26 40  1  0
 27 28  1  0
 28 29  2  0
 28 30  1  0
 30 31  1  0
 30 38  1  0
 31 32  1  0
 32 33  1  1
 32 37  1  0
 33 34  1  0
 34 35  2  0
 34 36  1  0
 37 38  1  0
 38 39  2  0
 40 41  1  0
M  END
