
     RDKit          3D

 41 45  0  0  0  0  0  0  0  0999 V2000
    2.1800   -5.6640   -4.1820 O   0  0  0  0  0  0  0  0  0  0  0  0
    1.6520   -4.8720   -3.3470 C   0  0  0  0  0  0  0  0  0  0  0  0
    0.4190   -5.0980   -2.7530 N   0  0  0  0  0  0  0  0  0  0  0  0
    0.0570   -4.1520   -1.9170 C   0  0  0  0  0  0  0  0  0  0  0  0
   -1.0040   -3.9120   -1.1210 O   0  0  0  0  0  0  0  0  0  0  0  0
   -1.5320   -4.4540   -0.0270 N   0  0  0  0  0  0  0  0  0  0  0  0
   -2.3060   -3.8860    0.8500 C   0  0  0  0  0  0  0  0  0  0  0  0
   -2.6500   -2.6280    0.7010 O   0  0  0  0  0  0  0  0  0  0  0  0
   -3.1280   -1.4990    1.2810 C   0  0  1  0  0  0  0  0  0  0  0  0
   -2.5870   -1.0580    2.5920 C   0  0  0  0  0  0  0  0  0  0  0  0
   -1.2670   -0.8040    2.7130 O   0  0  0  0  0  0  0  0  0  0  0  0
   -0.9000   -0.4220    3.9150 O   0  0  0  0  0  0  0  0  0  0  0  0
   -3.1710   -0.4270    0.2240 C   0  0  0  0  0  0  0  0  0  0  0  0
   -4.2940   -0.1300   -0.5010 N   0  0  0  0  0  0  0  0  0  0  0  0
   -4.0720    0.8620   -1.3270 N   0  0  0  0  0  0  0  0  0  0  0  0
   -2.8140    1.2360   -1.1670 C   0  0  0  0  0  0  0  0  0  0  0  0
   -2.2500    2.3190   -1.9010 N   0  0  0  0  0  0  0  0  0  0  0  0
   -3.0070    3.0430   -2.8720 C   0  0  0  0  0  0  0  0  0  0  0  0
   -4.2290    3.7280   -2.2830 C   0  0  0  0  0  0  0  0  0  0  0  0
   -4.8570    4.3900   -3.3610 O   0  0  0  0  0  0  0  0  0  0  0  0
   -5.9150    4.9830   -2.8530 O   0  0  0  0  0  0  0  0  0  0  0  0
   -2.2090    0.4200   -0.1740 C   0  0  0  0  0  0  0  0  0  0  0  0
   -0.8210    0.5560    0.2320 C   0  0  0  0  0  0  0  0  0  0  0  0
   -0.5010    1.7150    0.7060 O   0  0  0  0  0  0  0  0  0  0  0  0
    0.2600   -0.3600    0.2010 N   0  0  0  0  0  0  0  0  0  0  0  0
    0.1630   -1.6850   -0.3770 C   0  0  0  0  0  0  0  0  0  0  0  0
    1.2480   -2.0680   -1.2760 C   0  0  0  0  0  0  0  0  0  0  0  0
    1.1570   -3.2090   -1.9640 C   0  0  0  0  0  0  0  0  0  0  0  0
    2.1380   -3.6800   -2.8620 O   0  0  0  0  0  0  0  0  0  0  0  0
    2.4060   -1.3430   -1.4970 O   0  0  0  0  0  0  0  0  0  0  0  0
    3.1400   -0.3690   -0.8290 C   0  0  0  0  0  0  0  0  0  0  0  0
    2.8530   -0.3500    0.6670 C   0  0  1  0  0  0  0  0  0  0  0  0
    3.7530    0.5150    1.3680 N   0  0  0  0  0  0  0  0  0  0  0  0
    3.8650    1.9390    1.1100 C   0  0  0  0  0  0  0  0  0  0  0  0
    5.3180    2.3310    1.3200 C   0  0  0  0  0  0  0  0  0  0  0  0
    5.7210    2.1410    2.7610 C   0  0  0  0  0  0  0  0  0  0  0  0
    5.2530    0.8930    3.2090 O   0  0  0  0  0  0  0  0  0  0  0  0
    4.6020   -0.0130    2.3800 C   0  0  0  0  0  0  0  0  0  0  0  0
    4.7620   -1.2720    2.5240 O   0  0  0  0  0  0  0  0  0  0  0  0
    1.4580    0.1330    0.7830 C   0  0  0  0  0  0  0  0  0  0  0  0
    1.3140    1.1360    1.5100 O   0  0  0  0  0  0  0  0  0  0  0  0
  1  2  2  0
  2  3  1  0
  2 29  1  0
  3  4  2  0
  4  5  1  0
  4 28  1  0
  5  6  1  0
  6  7  2  0
  7  8  1  0
  8  9  1  0
  9 10  1  1
  9 13  1  0
 10 11  1  0
 11 12  1  0
 13 14  1  0
 13 22  2  0
 14 15  1  0
 15 16  2  0
 16 17  1  0
 16 22  1  0
 17 18  1  0
 18 19  1  0
 19 20  1  0
 20 21  1  0
 22 23  1  0
 23 24  2  0
 23 25  1  0
 25 26  1  0
 25 40  1  0
 26 27  1  0
 27 28  2  0
 27 30  1  0
 28 29  1  0
 30 31  1  0
 31 32  1  0
 32 33  1  1
 32 40  1  0
 33 34  1  0
 33 38  1  0
 34 35  1  0
 35 36  1  0
 36 37  1  0
 37 38  1  0
 38 39  2  0
 40 41  2  0
M  END
