
     RDKit          3D

 27 29  0  0  0  0  0  0  0  0999 V2000
    7.2400   -0.2080   -2.2350 C   0  0  0  0  0  0  0  0  0  0  0  0
    7.3800   -1.0470   -1.0050 C   0  0  0  0  0  0  0  0  0  0  0  0
    6.4170   -0.6340   -0.0510 O   0  0  0  0  0  0  0  0  0  0  0  0
    5.0700   -0.6780   -0.3040 C   0  0  0  0  0  0  0  0  0  0  0  0
    4.6710   -1.0980   -1.4170 O   0  0  0  0  0  0  0  0  0  0  0  0
    4.1020   -0.2480    0.6930 C   0  0  0  0  0  0  0  0  0  0  0  0
    2.8010   -0.2960    0.4360 C   0  0  0  0  0  0  0  0  0  0  0  0
    1.8120    0.1420    1.4500 C   0  0  0  0  0  0  0  0  0  0  0  0
    0.5870    0.0160    1.0290 C   0  0  0  0  0  0  0  0  0  0  0  0
   -0.7450    0.2770    1.5590 C   0  0  0  0  0  0  0  0  0  0  0  0
   -1.8190    0.4280    0.5870 C   0  0  0  0  0  0  0  0  0  0  0  0
   -1.5320    0.4790   -0.7590 C   0  0  0  0  0  0  0  0  0  0  0  0
   -2.5370    0.5940   -1.7270 C   0  0  0  0  0  0  0  0  0  0  0  0
   -3.8730    0.6610   -1.3440 C   0  0  0  0  0  0  0  0  0  0  0  0
   -4.8940    0.8010   -2.3090 N   0  0  0  0  0  0  0  0  0  0  0  0
   -6.2760    0.5220   -2.0380 C   0  0  0  0  0  0  0  0  0  0  0  0
   -6.6150   -0.9190   -1.8670 C   0  0  0  0  0  0  0  0  0  0  0  0
   -5.9640   -1.5740   -0.8440 O   0  0  0  0  0  0  0  0  0  0  0  0
   -6.2940   -2.8270   -0.7370 O   0  0  0  0  0  0  0  0  0  0  0  0
   -4.1640    0.6110   -0.0140 C   0  0  0  0  0  0  0  0  0  0  0  0
   -3.1400    0.4950    0.9320 C   0  0  0  0  0  0  0  0  0  0  0  0
   -1.0280    0.3720    2.8350 C   0  0  0  0  0  0  0  0  0  0  0  0
    0.0570    0.2250    4.2400 S   0  0  0  0  0  0  0  0  0  0  0  0
    1.6210    1.0910    3.9430 C   0  0  0  0  0  0  0  0  0  0  0  0
    2.2920    0.6240    2.7320 C   0  0  0  0  0  0  0  0  0  0  0  0
    3.6020    0.6430    2.9130 C   0  0  0  0  0  0  0  0  0  0  0  0
    4.4930    0.2220    1.9310 O   0  0  0  0  0  0  0  0  0  0  0  0
  1  2  1  0
  2  3  1  0
  3  4  1  0
  4  5  2  0
  4  6  1  0
  6  7  2  0
  6 27  1  0
  7  8  1  0
  8  9  2  0
  8 25  1  0
  9 10  1  0
 10 11  1  0
 10 22  2  0
 11 12  2  0
 11 21  1  0
 12 13  1  0
 13 14  2  0
 14 15  1  0
 14 20  1  0
 15 16  1  0
 16 17  1  0
 17 18  1  0
 18 19  1  0
 20 21  2  0
 22 23  1  0
 23 24  1  0
 24 25  1  0
 25 26  2  0
 26 27  1  0
M  END
