
     RDKit          3D

 27 29  0  0  0  0  0  0  0  0999 V2000
   -5.9090    1.7160   -0.7810 C   0  0  0  0  0  0  0  0  0  0  0  0
   -6.3010    0.4120   -0.3200 C   0  0  0  0  0  0  0  0  0  0  0  0
   -5.5630   -0.6030    0.1740 C   0  0  0  0  0  0  0  0  0  0  0  0
   -4.1340   -0.5900    0.3550 C   0  0  0  0  0  0  0  0  0  0  0  0
   -3.7340   -1.7730    0.8790 O   0  0  0  0  0  0  0  0  0  0  0  0
   -3.0900    0.2830    0.1430 N   0  0  0  0  0  0  0  0  0  0  0  0
   -2.6980    1.5400   -0.3160 C   0  0  0  0  0  0  0  0  0  0  0  0
   -1.5960    1.1140   -1.3570 C   0  0  0  0  0  0  0  0  0  0  0  0
   -1.0870   -0.1950   -0.8360 C   0  0  1  0  0  0  0  0  0  0  0  0
    0.4320   -0.2060   -0.7590 C   0  0  0  0  0  0  0  0  0  0  0  0
    1.0920   -1.1960   -1.3180 C   0  0  0  0  0  0  0  0  0  0  0  0
    2.8230   -0.8190   -0.9930 S   0  0  0  0  0  0  0  0  0  0  0  0
    2.4320    0.3770    0.3330 C   0  0  1  0  0  0  0  0  0  0  0  0
    3.3860    1.4950    0.4210 C   0  0  0  0  0  0  0  0  0  0  0  0
    4.7690    1.1100    0.7370 C   0  0  0  0  0  0  0  0  0  0  0  0
    5.4910    0.1830   -0.1880 C   0  0  0  0  0  0  0  0  0  0  0  0
    6.9230   -0.0100    0.3090 C   0  0  0  0  0  0  0  0  0  0  0  0
    8.0100    0.7610   -0.0440 C   0  0  0  0  0  0  0  0  0  0  0  0
    9.1220    0.2530    0.6280 C   0  0  0  0  0  0  0  0  0  0  0  0
    8.6260   -0.8100    1.3560 C   0  0  0  0  0  0  0  0  0  0  0  0
    7.3500   -0.9150    1.1340 O   0  0  0  0  0  0  0  0  0  0  0  0
    1.1520    0.7570   -0.1410 O   0  0  0  0  0  0  0  0  0  0  0  0
   -1.6800   -0.2130    0.5540 C   0  0  0  0  0  0  0  0  0  0  0  0
   -6.4140   -1.7470    0.5130 C   0  0  0  0  0  0  0  0  0  0  0  0
   -7.8260   -1.5360    0.2460 O   0  0  0  0  0  0  0  0  0  0  0  0
   -6.1610   -2.8820    0.9910 C   0  0  0  0  0  0  0  0  0  0  0  0
   -4.9750   -3.4430    1.3650 O   0  0  0  0  0  0  0  0  0  0  0  0
  1  2  1  0
  2  3  2  3
  3  4  1  0
  3 24  1  0
  4  5  2  0
  4  6  1  0
  6  7  1  0
  6 23  1  0
  7  8  1  0
  8  9  1  0
  9 10  1  1
  9 23  1  0
 10 11  2  0
 10 22  1  0
 11 12  1  0
 12 13  1  0
 13 14  1  6
 13 22  1  0
 14 15  1  0
 15 16  1  0
 16 17  1  0
 17 18  2  0
 17 21  1  0
 18 19  1  0
 19 20  2  0
 20 21  1  0
 24 25  1  0
 24 26  2  3
 26 27  1  0
M  END
