
     RDKit          3D

 27 28  0  0  0  0  0  0  0  0999 V2000
    9.1930    2.6510    1.6380 C   0  0  0  0  0  0  0  0  0  0  0  0
    7.7280    2.5840    1.4060 C   0  0  0  0  0  0  0  0  0  0  0  0
    7.1460    1.4240    1.1670 C   0  0  0  0  0  0  0  0  0  0  0  0
    5.7260    1.2760    0.9320 C   0  0  0  0  0  0  0  0  0  0  0  0
    5.2280    0.0820    0.7020 C   0  0  0  0  0  0  0  0  0  0  0  0
    5.9550   -1.1250    0.6560 O   0  0  0  0  0  0  0  0  0  0  0  0
    5.0070   -2.1710    0.9090 C   0  0  0  0  0  0  0  0  0  0  0  0
    3.8530   -1.6780    0.2640 O   0  0  0  0  0  0  0  0  0  0  0  0
    3.8480   -0.3060    0.4410 C   0  0  0  0  0  0  0  0  0  0  0  0
    2.7930    0.5160    0.3870 C   0  0  0  0  0  0  0  0  0  0  0  0
    1.4710   -0.0180    0.1160 C   0  0  0  0  0  0  0  0  0  0  0  0
    0.4320    0.7830    0.0620 C   0  0  0  0  0  0  0  0  0  0  0  0
   -0.8890    0.2100   -0.2140 C   0  0  0  0  0  0  0  0  0  0  0  0
   -2.0470    0.8310   -0.3100 C   0  0  0  0  0  0  0  0  0  0  0  0
   -3.1920    0.0320   -0.5880 C   0  0  0  0  0  0  0  0  0  0  0  0
   -4.5330    0.5920   -0.7160 N   0  0  0  0  0  0  0  0  0  0  0  0
   -4.8540    1.8830   -0.1870 C   0  0  0  0  0  0  0  0  0  0  0  0
   -6.3080    2.1770   -0.4750 C   0  0  0  0  0  0  0  0  0  0  0  0
   -6.6830    3.5510    0.0750 C   0  0  0  0  0  0  0  0  0  0  0  0
   -2.9770   -1.2550   -0.7240 C   0  0  0  0  0  0  0  0  0  0  0  0
   -3.9230   -2.3000   -1.0050 C   0  0  0  0  0  0  0  0  0  0  0  0
   -3.5270   -3.5800   -1.1110 C   0  0  0  0  0  0  0  0  0  0  0  0
   -4.4700   -4.6740   -1.3980 C   0  0  0  0  0  0  0  0  0  0  0  0
   -4.1540   -5.3430   -2.5720 O   0  0  0  0  0  0  0  0  0  0  0  0
   -1.2670   -1.4800   -0.4930 S   0  0  1  0  0  0  0  0  0  0  0  0
   -0.5840   -1.9870   -1.7310 O   0  0  0  0  0  0  0  0  0  0  0  0
   -0.9740   -2.3230    0.7040 O   0  0  0  0  0  0  0  0  0  0  0  0
  1  2  1  0
  2  3  2  3
  3  4  1  0
  4  5  2  3
  5  6  1  0
  5  9  1  0
  6  7  1  0
  7  8  1  0
  8  9  1  0
  9 10  2  3
 10 11  1  0
 11 12  2  3
 12 13  1  0
 13 14  2  0
 25 13  1  1
 14 15  1  0
 15 16  1  0
 15 20  2  0
 16 17  1  0
 17 18  1  0
 18 19  1  0
 20 21  1  0
 20 25  1  0
 21 22  2  3
 22 23  1  0
 23 24  1  0
 25 26  2  0
 25 27  2  0
M  END
