
     RDKit          3D

 27 29  0  0  0  0  0  0  0  0999 V2000
    9.5760   -1.0430   -0.1230 C   0  0  0  0  0  0  0  0  0  0  0  0
    9.0520    0.1650    0.6520 C   0  0  0  0  0  0  0  0  0  0  0  0
    7.6880    0.2850    0.3700 O   0  0  0  0  0  0  0  0  0  0  0  0
    6.8650    1.2640    0.8890 C   0  0  0  0  0  0  0  0  0  0  0  0
    7.3850    2.0940    1.6630 O   0  0  0  0  0  0  0  0  0  0  0  0
    5.4020    1.3340    0.5420 C   0  0  0  0  0  0  0  0  0  0  0  0
    4.6490    2.3240    1.0870 C   0  0  0  0  0  0  0  0  0  0  0  0
    3.0190    1.9860    0.3880 S   0  0  0  0  0  0  0  0  0  0  0  0
    3.4770    0.6010   -0.5360 C   0  0  0  0  0  0  0  0  0  0  0  0
    2.6330   -0.2690   -1.4160 C   0  0  1  0  0  0  0  0  0  0  0  0
    2.9570   -1.5720   -0.9900 O   0  0  0  0  0  0  0  0  0  0  0  0
    1.1970   -0.0240   -1.1700 C   0  0  0  0  0  0  0  0  0  0  0  0
    0.6430    1.2300   -1.1260 C   0  0  0  0  0  0  0  0  0  0  0  0
   -0.7220    1.4240   -0.8650 C   0  0  0  0  0  0  0  0  0  0  0  0
   -1.5650    0.3600   -0.6420 C   0  0  0  0  0  0  0  0  0  0  0  0
   -2.9210    0.5660   -0.3830 O   0  0  0  0  0  0  0  0  0  0  0  0
   -3.8130   -0.5010   -0.1500 C   0  0  0  0  0  0  0  0  0  0  0  0
   -5.1840    0.0390    0.0940 C   0  0  0  0  0  0  0  0  0  0  0  0
   -6.1540   -0.9880    0.3410 N   0  0  0  0  0  0  0  0  0  0  0  0
   -7.5140   -0.6480    0.5940 C   0  0  0  0  0  0  0  0  0  0  0  0
   -7.9840    0.3880    1.2610 C   0  0  0  0  0  0  0  0  0  0  0  0
   -9.4500    0.3300    1.2650 C   0  0  0  0  0  0  0  0  0  0  0  0
   -9.7940   -0.6260    0.3110 O   0  0  0  0  0  0  0  0  0  0  0  0
   -8.6910   -1.4260    0.1340 C   0  0  0  0  0  0  0  0  0  0  0  0
   -1.0190   -0.9040   -0.6840 C   0  0  0  0  0  0  0  0  0  0  0  0
    0.3200   -1.0970   -0.9400 C   0  0  0  0  0  0  0  0  0  0  0  0
    4.8210    0.4600   -0.2780 C   0  0  0  0  0  0  0  0  0  0  0  0
  1  2  1  0
  2  3  1  0
  3  4  1  0
  4  5  2  0
  4  6  1  0
  6  7  2  0
  6 27  1  0
  7  8  1  0
  8  9  1  0
  9 10  1  0
  9 27  2  0
 10 11  1  1
 10 12  1  0
 12 13  2  0
 12 26  1  0
 13 14  1  0
 14 15  2  0
 15 16  1  0
 15 25  1  0
 16 17  1  0
 17 18  1  0
 18 19  1  0
 19 20  1  0
 20 21  2  0
 20 24  1  0
 21 22  1  0
 22 23  1  0
 23 24  1  0
 25 26  2  0
M  END
