
     RDKit          3D

 27 28  0  0  0  0  0  0  0  0999 V2000
    6.6920   -1.8480    0.9770 C   0  0  0  0  0  0  0  0  0  0  0  0
    5.1850   -1.7460    0.8650 C   0  0  0  0  0  0  0  0  0  0  0  0
    4.7740   -0.4180    1.0690 O   0  0  0  0  0  0  0  0  0  0  0  0
    4.3000   -0.0190   -0.7000 P   0  0  0  0  0  0  0  0  0  0  0  0
    3.6830    1.7700   -0.4350 C   0  0  0  0  0  0  0  0  0  0  0  0
    2.1850    1.5550   -0.1010 C   0  0  0  0  0  0  0  0  0  0  0  0
    2.2140    0.5180    0.8950 N   0  0  0  0  0  0  0  0  0  0  0  0
    0.9470   -0.2020    0.9520 C   0  0  1  0  0  0  0  0  0  0  0  0
   -0.2080    0.6080    1.3980 C   0  0  0  0  0  0  0  0  0  0  0  0
   -1.3510    0.6160    0.4050 C   0  0  0  0  0  0  0  0  0  0  0  0
   -1.7560   -0.7930    0.0120 C   0  0  1  0  0  0  0  0  0  0  0  0
   -0.5730   -1.6700   -0.2810 C   0  0  0  0  0  0  0  0  0  0  0  0
    0.6200   -0.7520   -0.4280 C   0  0  0  0  0  0  0  0  0  0  0  0
   -2.5640   -1.3530    1.1900 C   0  0  0  0  0  0  0  0  0  0  0  0
   -3.3890   -0.2700    1.5610 O   0  0  0  0  0  0  0  0  0  0  0  0
   -4.7010   -0.5240    1.3280 C   0  0  0  0  0  0  0  0  0  0  0  0
   -5.2320   -0.1920   -0.0330 C   0  0  1  0  0  0  0  0  0  0  0  0
   -5.8330   -1.4060   -0.6760 C   0  0  0  0  0  0  0  0  0  0  0  0
   -6.3650    0.8290    0.1030 C   0  0  0  0  0  0  0  0  0  0  0  0
   -7.0040    1.1520   -1.2180 C   0  0  0  0  0  0  0  0  0  0  0  0
   -4.1710    0.4610   -0.9020 C   0  0  0  0  0  0  0  0  0  0  0  0
   -2.8700   -0.6600   -1.3460 S   0  0  1  0  0  0  0  0  0  0  0  0
   -2.1070   -0.0360   -2.4900 O   0  0  0  0  0  0  0  0  0  0  0  0
   -3.4270   -1.9590   -1.7960 O   0  0  0  0  0  0  0  0  0  0  0  0
    5.9770    0.0610   -1.3250 O   0  0  0  0  0  0  0  0  0  0  0  0
    6.3450    1.4020   -1.3580 C   0  0  0  0  0  0  0  0  0  0  0  0
    7.2930    1.7170   -0.1900 C   0  0  0  0  0  0  0  0  0  0  0  0
  1  2  1  0
  2  3  1  0
  3  4  1  0
  4  5  1  0
  4 25  1  0
  5  6  1  0
  6  7  1  0
  8  7  1  6
  8  9  1  0
  8 13  1  0
  9 10  1  0
 11 10  1  1
 11 12  1  0
 11 14  1  0
 11 22  1  0
 12 13  1  0
 14 15  1  0
 15 16  1  0
 16 17  1  0
 17 18  1  6
 17 19  1  0
 17 21  1  0
 19 20  1  0
 22 21  1  1
 22 23  2  0
 22 24  2  0
 25 26  1  0
 26 27  1  0
M  END
