
     RDKit          3D

 27 29  0  0  0  0  0  0  0  0999 V2000
   -3.2470    0.9150   -1.0540 C   0  0  0  0  0  0  0  0  0  0  0  0
   -2.6480   -0.2690   -0.2710 C   0  0  1  0  0  0  0  0  0  0  0  0
   -1.3450   -0.6400   -0.8570 C   0  0  0  0  0  0  0  0  0  0  0  0
   -0.2850    0.2670   -0.9380 N   0  0  0  0  0  0  0  0  0  0  0  0
    0.4220    0.8470    0.1130 C   0  0  0  0  0  0  0  0  0  0  0  0
    0.1440    0.5610    1.2950 O   0  0  0  0  0  0  0  0  0  0  0  0
    1.7630    2.0320   -0.2410 S   0  0  0  0  0  0  0  0  0  0  0  0
    2.4210    2.5530    1.3410 C   0  0  0  0  0  0  0  0  0  0  0  0
    3.1130    1.4120    2.0280 C   0  0  0  0  0  0  0  0  0  0  0  0
    4.2100    0.8590    1.4260 O   0  0  0  0  0  0  0  0  0  0  0  0
    4.4340    0.1800    0.2810 C   0  0  0  0  0  0  0  0  0  0  0  0
    3.4580   -0.0510   -0.4650 O   0  0  0  0  0  0  0  0  0  0  0  0
    5.7710   -0.3000   -0.1260 C   0  0  0  0  0  0  0  0  0  0  0  0
    5.8810   -0.9510   -1.2550 C   0  0  0  0  0  0  0  0  0  0  0  0
    7.1940   -1.4550   -1.7130 C   0  0  0  0  0  0  0  0  0  0  0  0
    8.2430   -1.1620   -0.8300 O   0  0  0  0  0  0  0  0  0  0  0  0
    8.1420   -0.4800    0.3610 C   0  0  0  0  0  0  0  0  0  0  0  0
    6.9310   -0.0620    0.6970 C   0  0  0  0  0  0  0  0  0  0  0  0
   -2.7550    0.0520    1.1620 C   0  0  0  0  0  0  0  0  0  0  0  0
   -4.0920    0.0770    1.6030 O   0  0  0  0  0  0  0  0  0  0  0  0
   -5.1610   -0.2180    0.8120 C   0  0  0  0  0  0  0  0  0  0  0  0
   -6.4500    0.2680    1.0930 C   0  0  0  0  0  0  0  0  0  0  0  0
   -7.5100   -0.0510    0.2740 C   0  0  0  0  0  0  0  0  0  0  0  0
   -7.2750   -0.8530   -0.8220 C   0  0  0  0  0  0  0  0  0  0  0  0
   -5.9970   -1.3380   -1.1070 C   0  0  0  0  0  0  0  0  0  0  0  0
   -4.9480   -1.0200   -0.2930 C   0  0  0  0  0  0  0  0  0  0  0  0
   -3.5630   -1.5100   -0.5760 C   0  0  0  0  0  0  0  0  0  0  0  0
  2  1  1  6
  2  3  1  0
  2 19  1  0
  2 27  1  0
  3  4  1  0
  4  5  1  0
  5  6  2  0
  5  7  1  0
  7  8  1  0
  8  9  1  0
  9 10  1  0
 10 11  1  0
 11 12  2  0
 11 13  1  0
 13 14  2  0
 13 18  1  0
 14 15  1  0
 15 16  1  0
 16 17  1  0
 17 18  2  0
 19 20  1  0
 20 21  1  0
 21 22  2  0
 21 26  1  0
 22 23  1  0
 23 24  2  0
 24 25  1  0
 25 26  2  0
 26 27  1  0
M  END
