
     RDKit          3D

 27 29  0  0  0  0  0  0  0  0999 V2000
    6.4280    1.6200    1.4230 C   0  0  0  0  0  0  0  0  0  0  0  0
    6.1490    0.2460    1.9800 C   0  0  0  0  0  0  0  0  0  0  0  0
    5.1960   -0.4530    1.2630 O   0  0  0  0  0  0  0  0  0  0  0  0
    3.9720    0.1710    1.2220 C   0  0  0  0  0  0  0  0  0  0  0  0
    3.0680   -0.6150    0.4730 O   0  0  0  0  0  0  0  0  0  0  0  0
    3.2300   -0.9640   -0.8420 C   0  0  0  0  0  0  0  0  0  0  0  0
    4.3290   -0.5630   -1.5620 C   0  0  0  0  0  0  0  0  0  0  0  0
    4.4480   -0.9470   -2.9060 C   0  0  0  0  0  0  0  0  0  0  0  0
    3.4850   -1.7210   -3.5220 C   0  0  0  0  0  0  0  0  0  0  0  0
    2.3740   -2.1240   -2.7840 C   0  0  0  0  0  0  0  0  0  0  0  0
    2.2750   -1.7310   -1.4500 C   0  0  0  0  0  0  0  0  0  0  0  0
    1.1770   -2.1270   -0.7130 O   0  0  0  0  0  0  0  0  0  0  0  0
    0.0290   -1.2980   -0.7260 C   0  0  0  0  0  0  0  0  0  0  0  0
    0.0740   -0.2690   -1.3950 O   0  0  0  0  0  0  0  0  0  0  0  0
   -1.1160   -1.6310   -0.0070 N   0  0  0  0  0  0  0  0  0  0  0  0
   -2.3430   -0.9250    0.0890 C   0  0  0  0  0  0  0  0  0  0  0  0
   -2.6090    0.1980   -0.6590 C   0  0  0  0  0  0  0  0  0  0  0  0
   -3.8310    0.8750   -0.5300 C   0  0  0  0  0  0  0  0  0  0  0  0
   -4.8040    0.4510    0.3390 C   0  0  0  0  0  0  0  0  0  0  0  0
   -6.1090    1.1680    0.4910 C   0  0  0  0  0  0  0  0  0  0  0  0
   -6.4380    2.2390   -0.1600 C   0  0  0  0  0  0  0  0  0  0  0  0
   -7.7330    2.8110    0.0980 C   0  0  0  0  0  0  0  0  0  0  0  0
   -8.1850    3.9120   -0.2370 O   0  0  0  0  0  0  0  0  0  0  0  0
   -8.5880    1.5640    1.0340 S   0  0  0  0  0  0  0  0  0  0  0  0
   -7.0980    0.6230    1.4510 C   0  0  0  0  0  0  0  0  0  0  0  0
   -4.5070   -0.6700    1.0680 C   0  0  0  0  0  0  0  0  0  0  0  0
   -3.3240   -1.3510    0.9630 C   0  0  0  0  0  0  0  0  0  0  0  0
  1  2  1  0
  2  3  1  0
  3  4  1  0
  4  5  1  0
  5  6  1  0
  6  7  2  0
  6 11  1  0
  7  8  1  0
  8  9  2  0
  9 10  1  0
 10 11  2  0
 11 12  1  0
 12 13  1  0
 13 14  2  0
 13 15  1  0
 15 16  1  0
 16 17  2  0
 16 27  1  0
 17 18  1  0
 18 19  2  0
 19 20  1  0
 19 26  1  0
 20 21  2  0
 20 25  1  0
 21 22  1  0
 22 23  2  0
 22 24  1  0
 24 25  1  0
 26 27  2  0
M  END
