
     RDKit          3D

 30 34  0  0  0  0  0  0  0  0999 V2000
   -1.1720    4.9730   -0.4790 C   0  0  0  0  0  0  0  0  0  0  0  0
   -1.7650    3.6350   -0.8430 C   0  0  0  0  0  0  0  0  0  0  0  0
   -3.0270    3.6190   -1.4090 C   0  0  0  0  0  0  0  0  0  0  0  0
   -3.7710    2.4440   -1.5540 C   0  0  0  0  0  0  0  0  0  0  0  0
   -3.1880    1.2680   -1.1030 C   0  0  0  0  0  0  0  0  0  0  0  0
   -3.7960    0.0370   -0.8830 N   0  0  0  0  0  0  0  0  0  0  0  0
   -2.9440   -0.7390   -0.2070 C   0  0  0  0  0  0  0  0  0  0  0  0
   -3.2570   -2.0210    0.5370 C   0  0  2  0  0  0  0  0  0  0  0  0
   -3.2300   -1.6200    2.0320 C   0  0  0  0  0  0  0  0  0  0  0  0
   -2.4320   -3.1680    0.2620 C   0  0  0  0  0  0  0  0  0  0  0  0
   -4.7580   -2.2670    0.3090 C   0  0  0  0  0  0  0  0  0  0  0  0
   -5.1960   -2.5640   -0.9940 N   0  0  0  0  0  0  0  0  0  0  0  0
   -1.7740   -0.0280   -0.0030 C   0  0  0  0  0  0  0  0  0  0  0  0
   -0.6040   -0.5360    0.7580 C   0  0  0  0  0  0  0  0  0  0  0  0
    0.6310   -0.5780    0.0820 N   0  0  0  0  0  0  0  0  0  0  0  0
    0.9810    0.0880   -1.0700 C   0  0  0  0  0  0  0  0  0  0  0  0
    2.1290    1.0450   -0.9620 C   0  0  0  0  0  0  0  0  0  0  0  0
    3.2070    0.3810   -0.3150 N   0  0  0  0  0  0  0  0  0  0  0  0
    4.5550    0.6340   -0.4050 C   0  0  0  0  0  0  0  0  0  0  0  0
    5.1790   -0.2370    0.4460 C   0  0  0  0  0  0  0  0  0  0  0  0
    6.6370   -0.3500    0.6860 C   0  0  0  0  0  0  0  0  0  0  0  0
    7.6520    0.1150   -0.1260 C   0  0  0  0  0  0  0  0  0  0  0  0
    8.8350   -0.2510    0.5100 C   0  0  0  0  0  0  0  0  0  0  0  0
    8.4850   -0.9020    1.6620 C   0  0  0  0  0  0  0  0  0  0  0  0
    7.1800   -0.9440    1.7270 O   0  0  0  0  0  0  0  0  0  0  0  0
    4.2530   -0.9770    1.0180 N   0  0  0  0  0  0  0  0  0  0  0  0
    3.0400   -0.5980    0.5480 C   0  0  0  0  0  0  0  0  0  0  0  0
    1.6780   -1.1380    0.8370 C   0  0  0  0  0  0  0  0  0  0  0  0
   -1.9520    1.2250   -0.5450 C   0  0  0  0  0  0  0  0  0  0  0  0
   -1.2300    2.4480   -0.4180 C   0  0  0  0  0  0  0  0  0  0  0  0
  1  2  1  0
  2  3  2  0
  2 30  1  0
  3  4  1  0
  4  5  2  0
  5  6  1  0
  5 29  1  0
  6  7  1  0
  7  8  1  0
  7 13  2  0
  8  9  1  1
  8 10  1  0
  8 11  1  0
 11 12  1  0
 13 14  1  0
 13 29  1  0
 14 15  1  0
 15 16  1  0
 15 28  1  0
 16 17  1  0
 17 18  1  0
 18 19  1  0
 18 27  1  0
 19 20  2  0
 20 21  1  0
 20 26  1  0
 21 22  2  0
 21 25  1  0
 22 23  1  0
 23 24  2  0
 24 25  1  0
 26 27  2  0
 27 28  1  0
 29 30  2  0
M  CHG  1  12   1
M  END
