
     RDKit          3D

 30 34  0  0  0  0  0  0  0  0999 V2000
    7.4260    3.2640   -0.4130 C   0  0  0  0  0  0  0  0  0  0  0  0
    6.4360    2.1430   -0.5830 C   0  0  0  0  0  0  0  0  0  0  0  0
    5.8390    1.7770   -1.7740 C   0  0  0  0  0  0  0  0  0  0  0  0
    5.0170    0.7160   -1.4520 C   0  0  0  0  0  0  0  0  0  0  0  0
    4.1350   -0.1990   -1.8960 N   0  0  0  0  0  0  0  0  0  0  0  0
    3.7150   -0.9800   -0.8950 C   0  0  0  0  0  0  0  0  0  0  0  0
    2.7400   -2.0860   -1.0530 C   0  0  0  0  0  0  0  0  0  0  0  0
    4.3270   -0.5900    0.2760 C   0  0  0  0  0  0  0  0  0  0  0  0
    4.1860   -1.1310    1.5790 N   0  0  0  0  0  0  0  0  0  0  0  0
    3.1970   -0.6680    2.5100 C   0  0  0  0  0  0  0  0  0  0  0  0
    1.8230   -0.8680    1.9560 C   0  0  0  0  0  0  0  0  0  0  0  0
    1.1330    0.1230    1.2960 C   0  0  0  0  0  0  0  0  0  0  0  0
   -0.1500   -0.0950    0.7870 C   0  0  0  0  0  0  0  0  0  0  0  0
   -0.7460   -1.3060    0.9380 C   0  0  0  0  0  0  0  0  0  0  0  0
   -2.0900   -1.6790    0.4570 C   0  0  0  0  0  0  0  0  0  0  0  0
   -2.8340   -0.6600   -0.1740 N   0  0  0  0  0  0  0  0  0  0  0  0
   -3.5680    0.2140    0.6800 C   0  0  2  0  0  0  0  0  0  0  0  0
   -3.6720   -0.2780    2.1050 C   0  0  0  0  0  0  0  0  0  0  0  0
   -4.9540    0.4170    0.1830 C   0  0  0  0  0  0  0  0  0  0  0  0
   -6.1370    0.2090    0.8590 C   0  0  0  0  0  0  0  0  0  0  0  0
   -7.1800    0.5070    0.0690 N   0  0  0  0  0  0  0  0  0  0  0  0
   -6.7210    0.9170   -1.1410 C   0  0  0  0  0  0  0  0  0  0  0  0
   -5.3540    0.8640   -1.0760 C   0  0  0  0  0  0  0  0  0  0  0  0
   -4.8710    1.2540   -2.2300 C   0  0  0  0  0  0  0  0  0  0  0  0
   -6.0150    1.5860   -3.1130 C   0  0  0  0  0  0  0  0  0  0  0  0
   -7.1530    1.3220   -2.2770 N   0  0  0  0  0  0  0  0  0  0  0  0
   -0.0450   -2.3040    1.6050 C   0  0  0  0  0  0  0  0  0  0  0  0
    1.2210   -2.0970    2.1100 C   0  0  0  0  0  0  0  0  0  0  0  0
    5.1430    0.4770   -0.0860 C   0  0  0  0  0  0  0  0  0  0  0  0
    5.9970    1.3610    0.3510 O   0  0  0  0  0  0  0  0  0  0  0  0
  1  2  1  0
  2  3  2  0
  2 30  1  0
  3  4  1  0
  4  5  1  0
  4 29  2  0
  5  6  1  0
  6  7  1  0
  6  8  2  0
  8  9  1  0
  8 29  1  0
  9 10  1  0
 10 11  1  0
 11 12  2  0
 11 28  1  0
 12 13  1  0
 13 14  2  0
 14 15  1  0
 14 27  1  0
 15 16  1  0
 16 17  1  0
 17 18  1  1
 17 19  1  0
 19 20  2  0
 19 23  1  0
 20 21  1  0
 21 22  1  0
 22 23  1  0
 22 26  2  0
 23 24  2  0
 24 25  1  0
 25 26  1  0
 27 28  2  0
 29 30  1  0
M  CHG  1  16   1
M  END
