
     RDKit          3D

 30 33  0  0  0  0  0  0  0  0999 V2000
   -3.8220   -4.4670   -1.8270 C   0  0  0  0  0  0  0  0  0  0  0  0
   -3.1970   -3.3240   -1.0340 C   0  0  0  0  0  0  0  0  0  0  0  0
   -3.6190   -2.1240   -1.2440 C   0  0  0  0  0  0  0  0  0  0  0  0
   -3.2040   -0.9140   -0.6530 C   0  0  0  0  0  0  0  0  0  0  0  0
   -3.8510    0.2440   -0.9510 C   0  0  0  0  0  0  0  0  0  0  0  0
   -3.5600    1.5870   -0.4170 C   0  0  0  0  0  0  0  0  0  0  0  0
   -3.8610    2.5680   -1.2410 C   0  0  0  0  0  0  0  0  0  0  0  0
   -3.6480    3.9790   -0.8990 C   0  0  0  0  0  0  0  0  0  0  0  0
   -3.1110    4.2160    0.4170 N   0  0  0  0  0  0  0  0  0  0  0  0
   -2.7980    3.1470    1.2800 C   0  0  0  0  0  0  0  0  0  0  0  0
   -2.2610    3.4060    2.5560 O   0  0  0  0  0  0  0  0  0  0  0  0
   -3.0020    1.9040    0.9050 C   0  0  0  0  0  0  0  0  0  0  0  0
   -2.6290    0.8770    1.9480 C   0  0  0  0  0  0  0  0  0  0  0  0
   -1.7600   -0.1780    1.3040 C   0  0  0  0  0  0  0  0  0  0  0  0
   -0.5600   -0.3070    1.9590 C   0  0  0  0  0  0  0  0  0  0  0  0
    0.4390   -1.1670    1.4970 C   0  0  0  0  0  0  0  0  0  0  0  0
    1.6760   -1.2920    2.1870 N   0  0  0  0  0  0  0  0  0  0  0  0
    1.9930   -2.2790    3.0450 C   0  0  0  0  0  0  0  0  0  0  0  0
    3.2450   -2.0260    3.4720 N   0  0  0  0  0  0  0  0  0  0  0  0
    3.6880   -0.9140    2.8950 N   0  0  0  0  0  0  0  0  0  0  0  0
    2.7200   -0.4350    2.0830 C   0  0  0  0  0  0  0  0  0  0  0  0
    2.7030    0.7710    1.2270 C   0  0  0  0  0  0  0  0  0  0  0  0
    3.2060    0.3860   -0.1760 C   0  0  1  0  0  0  0  0  0  0  0  0
    3.1930    1.5460   -1.0130 N   0  0  0  0  0  0  0  0  0  0  0  0
    4.4970   -0.3130   -0.0070 C   0  0  0  0  0  0  0  0  0  0  0  0
    5.1900   -0.7980   -1.2270 C   0  0  0  0  0  0  0  0  0  0  0  0
    5.5800    0.2700   -2.2000 C   0  0  0  0  0  0  0  0  0  0  0  0
    0.1590   -1.8780    0.3480 C   0  0  0  0  0  0  0  0  0  0  0  0
   -1.0200   -1.7880   -0.3470 C   0  0  0  0  0  0  0  0  0  0  0  0
   -1.9840   -0.9160    0.1650 C   0  0  0  0  0  0  0  0  0  0  0  0
  1  2  1  0
  2  3  2  3
  3  4  1  0
  4  5  2  0
  4 30  1  0
  5  6  1  0
  6  7  2  0
  6 12  1  0
  7  8  1  0
  8  9  1  0
  9 10  1  0
 10 11  1  0
 10 12  2  0
 12 13  1  0
 13 14  1  0
 14 15  2  0
 14 30  1  0
 15 16  1  0
 16 17  1  0
 16 28  2  0
 17 18  1  0
 17 21  1  0
 18 19  2  0
 19 20  1  0
 20 21  2  0
 21 22  1  0
 22 23  1  0
 23 24  1  6
 23 25  1  0
 25 26  1  0
 26 27  1  0
 28 29  1  0
 29 30  2  0
M  CHG  1  24   1
M  END
