
     RDKit          3D

 30 33  0  0  0  0  0  0  0  0999 V2000
   -2.8050   -1.9010    3.6010 C   0  0  0  0  0  0  0  0  0  0  0  0
   -3.5780   -2.3330    2.6540 C   0  0  0  0  0  0  0  0  0  0  0  0
   -3.4730   -2.0160    1.2360 C   0  0  0  0  0  0  0  0  0  0  0  0
   -4.4180   -2.5660    0.4770 C   0  0  0  0  0  0  0  0  0  0  0  0
   -4.6010   -2.4630   -0.9650 C   0  0  0  0  0  0  0  0  0  0  0  0
   -2.4720   -1.0840    0.7820 C   0  0  0  0  0  0  0  0  0  0  0  0
   -1.1510   -1.1970    1.1530 C   0  0  0  0  0  0  0  0  0  0  0  0
   -0.1720   -0.2910    0.8220 C   0  0  0  0  0  0  0  0  0  0  0  0
    1.2130   -0.4420    1.2620 C   0  0  0  0  0  0  0  0  0  0  0  0
    1.5350   -0.5730    2.5000 N   0  0  0  0  0  0  0  0  0  0  0  0
    2.8660   -0.6970    2.8460 N   0  0  0  0  0  0  0  0  0  0  0  0
    3.8650   -0.6810    2.0390 C   0  0  0  0  0  0  0  0  0  0  0  0
    5.2030   -0.8260    2.4950 N   0  0  0  0  0  0  0  0  0  0  0  0
    3.6220   -0.4090    0.6080 C   0  0  1  0  0  0  0  0  0  0  0  0
    4.4100   -1.3140   -0.3200 C   0  0  0  0  0  0  0  0  0  0  0  0
    4.2990   -0.6710   -1.7060 C   0  0  0  0  0  0  0  0  0  0  0  0
    2.8500   -0.2820   -2.0010 C   0  0  0  0  0  0  0  0  0  0  0  0
    1.9350   -1.0270   -1.0680 C   0  0  0  0  0  0  0  0  0  0  0  0
    2.2320   -0.6020    0.3080 N   0  0  0  0  0  0  0  0  0  0  0  0
   -0.4950    0.8140    0.0720 C   0  0  0  0  0  0  0  0  0  0  0  0
    0.4620    1.7320   -0.2690 C   0  0  0  0  0  0  0  0  0  0  0  0
    0.1440    2.8600   -1.0320 C   0  0  0  0  0  0  0  0  0  0  0  0
    1.1730    3.8030   -1.3930 C   0  0  0  0  0  0  0  0  0  0  0  0
    0.9710    5.0000   -1.8260 C   0  0  0  0  0  0  0  0  0  0  0  0
   -1.1510    3.0290   -1.4330 C   0  0  0  0  0  0  0  0  0  0  0  0
   -1.5910    4.0900   -2.1860 O   0  0  0  0  0  0  0  0  0  0  0  0
   -2.1060    2.0730   -1.0670 C   0  0  0  0  0  0  0  0  0  0  0  0
   -1.8140    0.9620   -0.3190 C   0  0  0  0  0  0  0  0  0  0  0  0
   -2.8000    0.0180    0.0370 C   0  0  0  0  0  0  0  0  0  0  0  0
   -4.1030    0.3800   -0.3400 N   0  0  0  0  0  0  0  0  0  0  0  0
  1  2  2  0
  2  3  1  0
  3  4  2  3
  3  6  1  0
  4  5  1  0
  6  7  2  0
  6 29  1  0
  7  8  1  0
  8  9  1  0
  8 20  2  0
  9 10  2  0
  9 19  1  0
 10 11  1  0
 11 12  2  0
 12 13  1  0
 12 14  1  0
 14 15  1  6
 14 19  1  0
 15 16  1  0
 16 17  1  0
 17 18  1  0
 18 19  1  0
 20 21  1  0
 20 28  1  0
 21 22  2  0
 22 23  1  0
 22 25  1  0
 23 24  2  0
 25 26  1  0
 25 27  2  0
 27 28  1  0
 28 29  2  0
 29 30  1  0
M  CHG  1  30   1
M  END
