
     RDKit          3D

 30 33  0  0  0  0  0  0  0  0999 V2000
   -1.7800   -2.4460   -3.4390 C   0  0  0  0  0  0  0  0  0  0  0  0
   -2.1000   -1.0660   -2.7750 C   0  0  0  0  0  0  0  0  0  0  0  0
   -0.9140   -0.7570   -1.9450 C   0  0  0  0  0  0  0  0  0  0  0  0
   -0.9900   -0.3490   -0.7200 C   0  0  0  0  0  0  0  0  0  0  0  0
    0.1750   -0.0790    0.0560 N   0  0  0  0  0  0  0  0  0  0  0  0
    1.5120   -0.3120   -0.3400 C   0  0  0  0  0  0  0  0  0  0  0  0
    1.7810   -0.7980   -1.4510 O   0  0  0  0  0  0  0  0  0  0  0  0
    2.6480    0.0350    0.6070 C   0  0  0  0  0  0  0  0  0  0  0  0
    3.8820   -0.3280   -0.1060 N   0  0  2  0  0  0  0  0  0  0  0  0
    4.0040   -1.7220   -0.2520 C   0  0  0  0  0  0  0  0  0  0  0  0
    5.1880   -2.3220    0.3610 C   0  0  0  0  0  0  0  0  0  0  0  0
    6.1880   -1.6810    0.9210 C   0  0  0  0  0  0  0  0  0  0  0  0
    6.0680   -0.2090    0.9160 C   0  0  0  0  0  0  0  0  0  0  0  0
    7.1520    0.5200    1.4430 C   0  0  0  0  0  0  0  0  0  0  0  0
    7.1260    1.8830    1.4090 C   0  0  0  0  0  0  0  0  0  0  0  0
    6.0210    2.4870    0.8500 C   0  0  0  0  0  0  0  0  0  0  0  0
    4.9730    1.7910    0.3410 C   0  0  0  0  0  0  0  0  0  0  0  0
    4.9760    0.3900    0.3660 C   0  0  0  0  0  0  0  0  0  0  0  0
   -2.2520    0.0750   -0.0730 C   0  0  0  0  0  0  0  0  0  0  0  0
   -3.3130    0.6210   -0.7480 C   0  0  0  0  0  0  0  0  0  0  0  0
   -4.5160    0.9190   -0.1380 C   0  0  0  0  0  0  0  0  0  0  0  0
   -5.5760    1.4690   -0.8420 C   0  0  0  0  0  0  0  0  0  0  0  0
   -6.7810    1.7710   -0.2430 C   0  0  0  0  0  0  0  0  0  0  0  0
   -6.9240    1.5120    1.1030 C   0  0  0  0  0  0  0  0  0  0  0  0
   -5.8770    0.9600    1.8420 C   0  0  0  0  0  0  0  0  0  0  0  0
   -6.0460    0.6840    3.3010 C   0  0  0  0  0  0  0  0  0  0  0  0
   -4.6860    0.6710    1.2050 C   0  0  0  0  0  0  0  0  0  0  0  0
   -3.6530    0.1420    1.8640 N   0  0  0  0  0  0  0  0  0  0  0  0
   -2.4560   -0.1610    1.2760 C   0  0  0  0  0  0  0  0  0  0  0  0
   -1.5560   -0.6610    1.9930 O   0  0  0  0  0  0  0  0  0  0  0  0
  1  2  1  0
  2  3  1  0
  3  4  2  3
  4  5  1  0
  4 19  1  0
  5  6  1  0
  6  7  2  0
  6  8  1  0
  9  8  1  1
  9 10  1  0
  9 18  1  0
 10 11  1  0
 11 12  2  0
 12 13  1  0
 13 14  2  0
 13 18  1  0
 14 15  1  0
 15 16  2  0
 16 17  1  0
 17 18  2  0
 19 20  2  0
 19 29  1  0
 20 21  1  0
 21 22  2  0
 21 27  1  0
 22 23  1  0
 23 24  2  0
 24 25  1  0
 25 26  1  0
 25 27  2  0
 27 28  1  0
 28 29  1  0
 29 30  2  0
M  CHG  1   9   1
M  END
