
     RDKit          3D

 17 17  0  0  0  0  0  0  0  0999 V2000
   -3.5490   -0.2170    1.0180 C   0  0  0  0  0  0  0  0  0  0  0  0
   -2.2440    0.1450    0.4950 C   0  0  0  0  0  0  0  0  0  0  0  0
   -2.1870    1.0630   -0.5130 C   0  0  0  0  0  0  0  0  0  0  0  0
   -3.3920    1.6210   -1.0080 N   0  0  0  0  0  0  0  0  0  0  0  0
   -0.9910   -0.3920    0.9150 C   0  0  0  0  0  0  0  0  0  0  0  0
   -0.8140   -1.2590    1.8720 C   0  0  0  0  0  0  0  0  0  0  0  0
   -1.8510   -1.8020    2.6480 N   0  0  0  0  0  0  0  0  0  0  0  0
    0.2380    0.0400    0.2310 N   0  0  0  0  0  0  0  0  0  0  0  0
    0.4360   -0.3160   -1.1140 C   0  0  0  0  0  0  0  0  0  0  0  0
   -0.4490   -1.0060   -1.6920 O   0  0  0  0  0  0  0  0  0  0  0  0
    1.6750    0.1110   -1.8660 C   0  0  1  0  0  0  0  0  0  0  0  0
    2.4970    0.8500   -1.0470 O   0  0  0  0  0  0  0  0  0  0  0  0
    3.7930    0.3940   -1.2060 C   0  0  1  0  0  0  0  0  0  0  0  0
    4.5860    0.5440    0.0780 C   0  0  0  0  0  0  0  0  0  0  0  0
    3.6890   -0.9720   -1.5470 O   0  0  0  0  0  0  0  0  0  0  0  0
    2.4780   -1.0960   -2.2140 C   0  0  0  0  0  0  0  0  0  0  0  0
    2.1100   -2.0280   -2.9650 O   0  0  0  0  0  0  0  0  0  0  0  0
  1  2  1  0
  2  3  2  3
  2  5  1  0
  3  4  1  0
  5  6  2  3
  5  8  1  0
  6  7  1  0
  8  9  1  0
  9 10  2  0
 11  9  1  1
 11 12  1  0
 11 16  1  0
 12 13  1  0
 13 14  1  1
 13 15  1  0
 15 16  1  0
 16 17  2  0
M  CHG  1   7   1
M  END
