
     RDKit          3D

 17 17  0  0  0  0  0  0  0  0999 V2000
    6.2950    0.5830   -0.7830 C   0  0  0  0  0  0  0  0  0  0  0  0
    5.2430   -0.2000   -0.0510 C   0  0  0  0  0  0  0  0  0  0  0  0
    5.5380   -1.2120    0.6100 O   0  0  0  0  0  0  0  0  0  0  0  0
    3.9060    0.2150   -0.1120 N   0  0  0  0  0  0  0  0  0  0  0  0
    2.8460   -0.4600    0.5450 C   0  0  0  0  0  0  0  0  0  0  0  0
    3.0880   -1.4880    1.2260 O   0  0  0  0  0  0  0  0  0  0  0  0
    1.4620    0.0160    0.4490 C   0  0  0  0  0  0  0  0  0  0  0  0
    1.2620    1.0400   -0.2370 O   0  0  0  0  0  0  0  0  0  0  0  0
    0.4230   -0.6730    1.1130 N   0  0  0  0  0  0  0  0  0  0  0  0
   -0.9640   -0.3080    1.0830 C   0  0  0  0  0  0  0  0  0  0  0  0
   -1.5540   -0.3800   -0.2760 C   0  0  2  0  0  0  0  0  0  0  0  0
   -0.9710    0.4590   -1.1970 O   0  0  0  0  0  0  0  0  0  0  0  0
   -3.0300   -0.1650   -0.2460 C   0  0  0  0  0  0  0  0  0  0  0  0
   -3.6700    0.7860   -0.8660 C   0  0  0  0  0  0  0  0  0  0  0  0
   -5.0720    0.6570   -0.5920 N   0  0  0  0  0  0  0  0  0  0  0  0
   -5.1850   -0.4630    0.2460 C   0  0  0  0  0  0  0  0  0  0  0  0
   -3.9940   -0.9790    0.4750 C   0  0  0  0  0  0  0  0  0  0  0  0
  1  2  1  0
  2  3  2  0
  2  4  1  0
  4  5  1  0
  5  6  2  0
  5  7  1  0
  7  8  2  0
  7  9  1  0
  9 10  1  0
 10 11  1  0
 11 12  1  6
 11 13  1  0
 13 14  2  0
 13 17  1  0
 14 15  1  0
 15 16  1  0
 16 17  2  0
M  CHG  1  15   1
M  END
