
     RDKit          3D

 17 17  0  0  0  0  0  0  0  0999 V2000
    7.0390    0.0540   -0.3160 C   0  0  0  0  0  0  0  0  0  0  0  0
    5.9360   -0.8500   -0.4600 O   0  0  0  0  0  0  0  0  0  0  0  0
    4.6360   -0.4220   -0.1840 C   0  0  0  0  0  0  0  0  0  0  0  0
    4.5040    0.7670    0.1820 O   0  0  0  0  0  0  0  0  0  0  0  0
    3.4890   -1.2480   -0.2960 N   0  0  0  0  0  0  0  0  0  0  0  0
    2.2450   -0.6750    0.0200 N   0  0  0  0  0  0  0  0  0  0  0  0
    1.0410   -0.9510   -0.6680 C   0  0  0  0  0  0  0  0  0  0  0  0
    1.0570   -1.7540   -1.6170 O   0  0  0  0  0  0  0  0  0  0  0  0
   -0.2340   -0.2900   -0.2670 C   0  0  2  0  0  0  0  0  0  0  0  0
   -0.5410   -0.5630    1.2040 C   0  0  0  0  0  0  0  0  0  0  0  0
   -1.3090   -0.6970   -1.0850 O   0  0  0  0  0  0  0  0  0  0  0  0
   -2.5500   -0.1440   -0.8150 C   0  0  0  0  0  0  0  0  0  0  0  0
   -2.7120    1.1710   -0.7790 C   0  0  0  0  0  0  0  0  0  0  0  0
   -3.9870    1.8310   -0.5010 C   0  0  0  0  0  0  0  0  0  0  0  0
   -5.1000    0.9860   -0.2570 N   0  0  0  0  0  0  0  0  0  0  0  0
   -4.9070   -0.3890   -0.3020 C   0  0  0  0  0  0  0  0  0  0  0  0
   -3.7410   -0.9320   -0.5560 C   0  0  0  0  0  0  0  0  0  0  0  0
  1  2  1  0
  2  3  1  0
  3  4  2  0
  3  5  1  0
  5  6  1  0
  6  7  1  0
  7  8  2  0
  7  9  1  0
  9 10  1  1
  9 11  1  0
 11 12  1  0
 12 13  2  0
 12 17  1  0
 13 14  1  0
 14 15  1  0
 15 16  1  0
 16 17  2  0
M  CHG  1  15   1
M  END
