
     RDKit          3D

 17 18  0  0  0  0  0  0  0  0999 V2000
   -5.2700    0.5260    0.5400 N   0  0  0  0  0  0  0  0  0  0  0  0
   -3.9720    0.2930    0.0010 C   0  0  1  0  0  0  0  0  0  0  0  0
   -3.4280   -1.0910    0.3760 C   0  0  0  0  0  0  0  0  0  0  0  0
   -2.2200   -1.1140   -0.5710 C   0  0  2  0  0  0  0  0  0  0  0  0
   -1.1830   -0.3280   -0.0230 O   0  0  0  0  0  0  0  0  0  0  0  0
   -0.0350   -1.0810    0.0780 C   0  0  2  0  0  0  0  0  0  0  0  0
    0.3670   -1.1280    1.5380 C   0  0  0  0  0  0  0  0  0  0  0  0
    1.5860   -0.2750    1.6450 C   0  0  0  0  0  0  0  0  0  0  0  0
    2.1750   -0.0760    2.7270 O   0  0  0  0  0  0  0  0  0  0  0  0
    1.9000    0.2180    0.3400 N   0  0  0  0  0  0  0  0  0  0  0  0
    2.8620    1.2450    0.0790 C   0  0  0  0  0  0  0  0  0  0  0  0
    4.2330    0.6130   -0.1430 C   0  0  0  0  0  0  0  0  0  0  0  0
    5.2260    1.6390   -0.4100 N   0  0  0  0  0  0  0  0  0  0  0  0
    1.1170   -0.4640   -0.6330 C   0  0  0  0  0  0  0  0  0  0  0  0
    1.4130   -0.4940   -1.8540 O   0  0  0  0  0  0  0  0  0  0  0  0
   -2.7600   -0.3530   -1.7480 C   0  0  0  0  0  0  0  0  0  0  0  0
   -3.9730    0.1820   -1.3900 O   0  0  0  0  0  0  0  0  0  0  0  0
  2  1  1  1
  2  3  1  0
  2 17  1  0
  3  4  1  0
  4  5  1  1
  4 16  1  0
  6  5  1  1
  6  7  1  0
  6 14  1  0
  7  8  1  0
  8  9  2  0
  8 10  1  0
 10 11  1  0
 10 14  1  0
 11 12  1  0
 12 13  1  0
 14 15  2  0
 16 17  1  0
M  CHG  1  13   1
M  END
