
     RDKit          3D

 17 18  0  0  0  0  0  0  0  0999 V2000
   -2.1240    2.2790   -0.4500 C   0  0  0  0  0  0  0  0  0  0  0  0
   -0.8440    1.6370   -0.0670 C   0  0  0  0  0  0  0  0  0  0  0  0
    0.3800    2.2450   -0.0680 C   0  0  0  0  0  0  0  0  0  0  0  0
    1.3270    1.3030    0.3580 C   0  0  0  0  0  0  0  0  0  0  0  0
    0.6120    0.1630    0.5940 C   0  0  0  0  0  0  0  0  0  0  0  0
   -0.7270    0.3710    0.3330 N   0  0  0  0  0  0  0  0  0  0  0  0
   -1.7610   -0.6370    0.4790 C   0  0  0  0  0  0  0  0  0  0  0  0
   -2.0390   -1.3920   -0.7500 C   0  0  0  0  0  0  0  0  0  0  0  0
   -1.3400   -1.0730   -1.9360 N   0  0  0  0  0  0  0  0  0  0  0  0
   -2.8960   -2.3060   -0.7230 O   0  0  0  0  0  0  0  0  0  0  0  0
    1.2900   -1.0680    1.0390 C   0  0  1  0  0  0  0  0  0  0  0  0
    1.2410   -1.9950   -0.1170 N   0  0  0  0  0  0  0  0  0  0  0  0
    2.6990   -0.8710    1.3390 C   0  0  0  0  0  0  0  0  0  0  0  0
    3.3100   -1.8740    1.8830 O   0  0  0  0  0  0  0  0  0  0  0  0
    3.3780    0.2920    1.0780 O   0  0  0  0  0  0  0  0  0  0  0  0
    2.7720    1.4270    0.5880 C   0  0  0  0  0  0  0  0  0  0  0  0
    3.3360    2.5130    0.3340 O   0  0  0  0  0  0  0  0  0  0  0  0
  1  2  1  0
  2  3  2  0
  2  6  1  0
  3  4  1  0
  4  5  2  0
  4 16  1  0
  5  6  1  0
  5 11  1  0
  6  7  1  0
  7  8  1  0
  8  9  1  0
  8 10  2  0
 11 12  1  6
 11 13  1  0
 13 14  2  0
 13 15  1  0
 15 16  1  0
 16 17  2  0
M  CHG  1  12   1
M  END
