
     RDKit          3D

 46 49  0  0  0  0  0  0  0  0999 V2000
   -1.9290    9.1820   -0.7850 C   0  0  0  0  0  0  0  0  0  0  0  0
   -2.6510    7.9240   -1.2150 C   0  0  0  0  0  0  0  0  0  0  0  0
   -1.9580    6.7560   -0.7010 N   0  0  0  0  0  0  0  0  0  0  0  0
   -2.2860    5.6050   -1.5230 C   0  0  0  0  0  0  0  0  0  0  0  0
   -1.5510    4.3980   -1.0580 C   0  0  0  0  0  0  0  0  0  0  0  0
   -0.7570    4.5050    0.0620 C   0  0  0  0  0  0  0  0  0  0  0  0
   -0.0370    3.4330    0.5610 C   0  0  0  0  0  0  0  0  0  0  0  0
   -0.1350    2.2340   -0.1030 C   0  0  0  0  0  0  0  0  0  0  0  0
   -0.9150    2.0900   -1.2220 C   0  0  0  0  0  0  0  0  0  0  0  0
   -1.0590    0.8270   -1.9790 C   0  0  0  0  0  0  0  0  0  0  0  0
   -0.7450   -0.3410   -1.2300 N   0  0  0  0  0  0  0  0  0  0  0  0
   -1.7410   -1.0960   -0.6340 N   0  0  0  0  0  0  0  0  0  0  0  0
   -1.8980   -1.1510    0.7480 C   0  0  0  0  0  0  0  0  0  0  0  0
   -1.1250   -0.4900    1.4790 O   0  0  0  0  0  0  0  0  0  0  0  0
   -2.9600   -1.9770    1.4310 C   0  0  2  0  0  0  0  0  0  0  0  0
   -4.2710   -1.2770    1.2980 C   0  0  0  0  0  0  0  0  0  0  0  0
   -4.7590   -1.0160   -0.0060 N   0  0  0  0  0  0  0  0  0  0  0  0
   -4.4350    0.2490   -0.7060 C   0  0  0  0  0  0  0  0  0  0  0  0
   -5.6000   -1.9110   -0.6870 C   0  0  0  0  0  0  0  0  0  0  0  0
   -5.9440   -1.6000   -1.8850 O   0  0  0  0  0  0  0  0  0  0  0  0
   -6.0980   -3.1330   -0.1410 N   0  0  0  0  0  0  0  0  0  0  0  0
   -6.9580   -3.9450   -0.9790 C   0  0  0  0  0  0  0  0  0  0  0  0
   -2.5280   -2.0430    2.9010 C   0  0  0  0  0  0  0  0  0  0  0  0
   -3.4710   -2.8460    3.7200 C   0  0  0  0  0  0  0  0  0  0  0  0
   -3.9700   -4.0870    3.0830 C   0  0  0  0  0  0  0  0  0  0  0  0
   -3.3630   -4.4570    1.7870 C   0  0  0  0  0  0  0  0  0  0  0  0
   -2.9190   -3.3690    0.8890 C   0  0  0  0  0  0  0  0  0  0  0  0
    0.6190   -0.8220   -1.1000 C   0  0  0  0  0  0  0  0  0  0  0  0
    0.8390   -1.8540   -0.4030 O   0  0  0  0  0  0  0  0  0  0  0  0
    1.7010   -0.1810   -1.7240 N   0  0  0  0  0  0  0  0  0  0  0  0
    3.0420   -0.6430   -1.5980 C   0  0  0  0  0  0  0  0  0  0  0  0
    3.9380   -0.3950   -2.6410 C   0  0  0  0  0  0  0  0  0  0  0  0
    5.2140   -0.8090   -2.5120 C   0  0  0  0  0  0  0  0  0  0  0  0
    5.6940   -1.4910   -1.3580 C   0  0  0  0  0  0  0  0  0  0  0  0
    7.1000   -1.8620   -1.3280 C   0  0  0  0  0  0  0  0  0  0  0  0
    7.9560   -0.9140   -0.5800 C   0  0  0  0  0  0  0  0  0  0  0  0
    8.5660   -0.9240    0.6190 C   0  0  0  0  0  0  0  0  0  0  0  0
    9.2750    0.1370    0.9980 C   0  0  0  0  0  0  0  0  0  0  0  0
    9.3700    1.2140    0.1580 C   0  0  0  0  0  0  0  0  0  0  0  0
    8.3630    0.6300   -1.2530 S   0  0  0  0  0  0  0  0  0  0  0  0
    4.8340   -1.7410   -0.3340 C   0  0  0  0  0  0  0  0  0  0  0  0
    5.2330   -2.4600    0.8770 C   0  0  1  0  0  0  0  0  0  0  0  0
    4.1430   -2.4210    1.9590 C   0  0  0  0  0  0  0  0  0  0  0  0
    5.6460   -3.8350    0.6510 N   0  0  0  0  0  0  0  0  0  0  0  0
    3.5000   -1.2970   -0.4890 C   0  0  0  0  0  0  0  0  0  0  0  0
   -1.6300    3.1880   -1.7000 C   0  0  0  0  0  0  0  0  0  0  0  0
  1  2  1  0
  2  3  1  0
  3  4  1  0
  4  5  1  0
  5  6  2  0
  5 46  1  0
  6  7  1  0
  7  8  2  0
  8  9  1  0
  9 10  1  0
  9 46  2  0
 10 11  1  0
 11 12  1  0
 11 28  1  0
 12 13  1  0
 13 14  2  0
 13 15  1  0
 15 16  1  1
 15 23  1  0
 15 27  1  0
 16 17  1  0
 17 18  1  0
 17 19  1  0
 19 20  2  0
 19 21  1  0
 21 22  1  0
 23 24  1  0
 24 25  1  0
 25 26  1  0
 26 27  1  0
 28 29  2  0
 28 30  1  0
 30 31  1  0
 31 32  2  0
 31 45  1  0
 32 33  1  0
 33 34  2  0
 34 35  1  0
 34 41  1  0
 35 36  1  0
 36 37  2  0
 36 40  1  0
 37 38  1  0
 38 39  2  0
 39 40  1  0
 41 42  1  0
 41 45  2  0
 42 43  1  1
 42 44  1  0
M  CHG  2   3   1  44   1
M  END
