
     RDKit          3D

 46 52  0  0  0  0  0  0  0  0999 V2000
    5.5360   -0.8940   -1.8060 C   0  0  0  0  0  0  0  0  0  0  0  0
    6.1490   -0.6680   -0.4670 C   0  0  0  0  0  0  0  0  0  0  0  0
    5.3740   -0.3370    0.6240 C   0  0  0  0  0  0  0  0  0  0  0  0
    3.9480   -0.2470    0.4570 N   0  0  0  0  0  0  0  0  0  0  0  0
    3.0190    0.1060    1.4430 C   0  0  0  0  0  0  0  0  0  0  0  0
    3.3680    0.3790    2.5970 O   0  0  0  0  0  0  0  0  0  0  0  0
    1.5800    0.1690    1.1620 C   0  0  0  0  0  0  0  0  0  0  0  0
    0.6600    0.2380    2.1880 C   0  0  0  0  0  0  0  0  0  0  0  0
   -0.6920    0.3050    1.9850 C   0  0  0  0  0  0  0  0  0  0  0  0
   -1.2190    0.3070    0.6820 C   0  0  0  0  0  0  0  0  0  0  0  0
   -2.6230    0.3560    0.5030 N   0  0  0  0  0  0  0  0  0  0  0  0
   -3.2970    0.7030   -0.6870 C   0  0  0  0  0  0  0  0  0  0  0  0
   -2.6030    1.0210   -1.6890 O   0  0  0  0  0  0  0  0  0  0  0  0
   -4.7620    0.7080   -0.7810 C   0  0  0  0  0  0  0  0  0  0  0  0
   -5.4040    1.7140   -1.4730 C   0  0  0  0  0  0  0  0  0  0  0  0
   -4.6420    2.8310   -2.0570 C   0  0  1  0  0  0  0  0  0  0  0  0
   -5.4980    3.7870   -2.8660 C   0  0  0  0  0  0  0  0  0  0  0  0
   -6.2360    4.8140   -2.1010 C   0  0  0  0  0  0  0  0  0  0  0  0
   -5.8320    4.8440   -0.6390 C   0  0  0  0  0  0  0  0  0  0  0  0
   -4.3210    4.9160   -0.6460 C   0  0  0  0  0  0  0  0  0  0  0  0
   -3.7900    3.5690   -1.0620 C   0  0  0  0  0  0  0  0  0  0  0  0
   -6.7990    1.7080   -1.6040 C   0  0  0  0  0  0  0  0  0  0  0  0
   -7.4700    0.6610   -1.0110 C   0  0  0  0  0  0  0  0  0  0  0  0
   -6.8340   -0.3100   -0.3410 N   0  0  0  0  0  0  0  0  0  0  0  0
   -5.4590   -0.3130   -0.2100 C   0  0  0  0  0  0  0  0  0  0  0  0
   -4.8430   -1.3960    0.4170 N   0  0  0  0  0  0  0  0  0  0  0  0
   -5.3980   -1.8430    1.7150 C   0  0  0  0  0  0  0  0  0  0  0  0
   -5.7440   -3.3190    1.6150 C   0  0  0  0  0  0  0  0  0  0  0  0
   -5.6710   -3.8050    0.1880 C   0  0  2  0  0  0  0  0  0  0  0  0
   -5.9350   -5.2460    0.2280 N   0  0  0  0  0  0  0  0  0  0  0  0
   -4.2620   -3.6460   -0.3190 C   0  0  0  0  0  0  0  0  0  0  0  0
   -3.7520   -2.2110   -0.0800 C   0  0  0  0  0  0  0  0  0  0  0  0
   -0.3060    0.2390   -0.3270 C   0  0  0  0  0  0  0  0  0  0  0  0
    1.0780    0.1700   -0.1110 C   0  0  0  0  0  0  0  0  0  0  0  0
    6.0140   -0.1230    1.8170 C   0  0  0  0  0  0  0  0  0  0  0  0
    7.3860   -0.2330    1.9390 C   0  0  0  0  0  0  0  0  0  0  0  0
    8.1720   -0.5640    0.8560 C   0  0  0  0  0  0  0  0  0  0  0  0
    7.5300   -0.7820   -0.3590 C   0  0  0  0  0  0  0  0  0  0  0  0
    8.3370   -1.1410   -1.5470 C   0  0  0  0  0  0  0  0  0  0  0  0
    9.7020   -1.5940   -1.1780 C   0  0  0  0  0  0  0  0  0  0  0  0
   10.3920   -0.6800   -0.1740 C   0  0  0  0  0  0  0  0  0  0  0  0
    9.5580   -0.6630    1.0430 N   0  0  0  0  0  0  0  0  0  0  0  0
   10.2120   -0.7600    2.3150 C   0  0  0  0  0  0  0  0  0  0  0  0
    9.4280   -0.0790    3.3670 C   0  0  0  0  0  0  0  0  0  0  0  0
   10.0060    0.3960    4.3660 O   0  0  0  0  0  0  0  0  0  0  0  0
    8.0240    0.0100    3.2010 N   0  0  0  0  0  0  0  0  0  0  0  0
  1  2  1  0
  2  3  2  0
  2 38  1  0
  3  4  1  0
  3 35  1  0
  4  5  1  0
  5  6  2  0
  5  7  1  0
  7  8  2  0
  7 34  1  0
  8  9  1  0
  9 10  2  0
 10 11  1  0
 10 33  1  0
 11 12  1  0
 12 13  2  0
 12 14  1  0
 14 15  1  0
 14 25  2  0
 16 15  1  1
 15 22  2  0
 16 17  1  0
 16 21  1  0
 17 18  1  0
 18 19  1  0
 19 20  1  0
 20 21  1  0
 22 23  1  0
 23 24  2  0
 24 25  1  0
 25 26  1  0
 26 27  1  0
 26 32  1  0
 27 28  1  0
 28 29  1  0
 29 30  1  1
 29 31  1  0
 31 32  1  0
 33 34  2  0
 35 36  2  0
 36 37  1  0
 36 46  1  0
 37 38  2  0
 37 42  1  0
 38 39  1  0
 39 40  1  0
 40 41  1  0
 41 42  1  0
 42 43  1  0
 43 44  1  0
 44 45  2  0
 44 46  1  0
M  CHG  1  30   1
M  END
