
     RDKit          3D

 47 51  0  0  0  0  0  0  0  0999 V2000
    2.7670   -2.3310   -3.9180 C   0  0  0  0  0  0  0  0  0  0  0  0
    3.6910   -1.2500   -3.4990 C   0  0  0  0  0  0  0  0  0  0  0  0
    4.6860   -0.9760   -4.4050 N   0  0  0  0  0  0  0  0  0  0  0  0
    5.6300   -0.0810   -4.1620 C   0  0  0  0  0  0  0  0  0  0  0  0
    6.5260    0.1390   -5.0260 O   0  0  0  0  0  0  0  0  0  0  0  0
    5.6190    0.5900   -2.9800 C   0  0  0  0  0  0  0  0  0  0  0  0
    6.4570    1.5460   -2.4280 C   0  0  0  0  0  0  0  0  0  0  0  0
    7.4580    1.9650   -3.0780 O   0  0  0  0  0  0  0  0  0  0  0  0
    6.0190    1.8730   -1.2220 N   0  0  0  0  0  0  0  0  0  0  0  0
    6.5830    2.7770   -0.2870 C   0  0  0  0  0  0  0  0  0  0  0  0
    7.7250    3.3320   -0.6010 C   0  0  0  0  0  0  0  0  0  0  0  0
    8.6890    4.3050    0.0060 C   0  0  0  0  0  0  0  0  0  0  0  0
    9.3690    3.8040    1.2370 C   0  0  0  0  0  0  0  0  0  0  0  0
    8.6140    2.6300    1.8110 C   0  0  0  0  0  0  0  0  0  0  0  0
    7.4890    3.0580    2.7080 C   0  0  0  0  0  0  0  0  0  0  0  0
    6.3520    3.7490    2.0120 C   0  0  0  0  0  0  0  0  0  0  0  0
    5.7230    2.9280    0.9420 C   0  0  0  0  0  0  0  0  0  0  0  0
    4.9230    1.1380   -1.0170 N   0  0  0  0  0  0  0  0  0  0  0  0
    4.6470    0.3500   -2.0510 C   0  0  0  0  0  0  0  0  0  0  0  0
    3.6390   -0.6010   -2.3030 C   0  0  0  0  0  0  0  0  0  0  0  0
    2.6830   -0.7680   -1.3040 N   0  0  0  0  0  0  0  0  0  0  0  0
    1.2980   -1.0330   -1.4110 C   0  0  0  0  0  0  0  0  0  0  0  0
    0.7320   -1.1320   -2.4950 O   0  0  0  0  0  0  0  0  0  0  0  0
    0.4780   -1.2090   -0.2420 N   0  0  0  0  0  0  0  0  0  0  0  0
   -0.9370   -1.5280   -0.3700 C   0  0  2  0  0  0  0  0  0  0  0  0
   -1.7830   -0.2820   -0.3550 C   0  0  0  0  0  0  0  0  0  0  0  0
   -3.1950   -0.4810   -0.4400 N   0  0  0  0  0  0  0  0  0  0  0  0
   -4.0480   -1.0110    0.5580 C   0  0  0  0  0  0  0  0  0  0  0  0
   -3.5800   -1.2600    1.7140 O   0  0  0  0  0  0  0  0  0  0  0  0
   -5.4390   -1.3020    0.3500 N   0  0  0  0  0  0  0  0  0  0  0  0
   -6.1910   -1.8370    1.4550 C   0  0  2  0  0  0  0  0  0  0  0  0
   -6.1680   -3.3810    1.3570 C   0  0  0  0  0  0  0  0  0  0  0  0
   -7.5920   -1.4120    1.3860 C   0  0  0  0  0  0  0  0  0  0  0  0
   -8.5890   -2.3440    1.5900 C   0  0  0  0  0  0  0  0  0  0  0  0
   -9.9210   -2.0160    1.5490 C   0  0  0  0  0  0  0  0  0  0  0  0
  -10.3130   -0.7320    1.3000 C   0  0  0  0  0  0  0  0  0  0  0  0
   -9.3360    0.2330    1.0900 C   0  0  0  0  0  0  0  0  0  0  0  0
   -7.9920   -0.0970    1.1320 C   0  0  0  0  0  0  0  0  0  0  0  0
   -7.0350    0.8470    0.9250 O   0  0  0  0  0  0  0  0  0  0  0  0
   -7.1790    2.1840    0.6300 C   0  0  1  0  0  0  0  0  0  0  0  0
   -6.3140    3.2040    1.3160 C   0  0  0  0  0  0  0  0  0  0  0  0
   -6.4300    4.0190    0.0070 C   0  0  0  0  0  0  0  0  0  0  0  0
   -6.5250    2.6440   -0.6760 C   0  0  0  0  0  0  0  0  0  0  0  0
   -1.3670   -2.6530    0.4830 C   0  0  0  0  0  0  0  0  0  0  0  0
   -0.6190   -3.9690    0.1960 C   0  0  1  0  0  0  0  0  0  0  0  0
    0.8500   -3.8970    0.4110 C   0  0  0  0  0  0  0  0  0  0  0  0
   -1.1860   -4.9800    1.1950 C   0  0  0  0  0  0  0  0  0  0  0  0
  1  2  1  0
  2  3  1  0
  2 20  2  0
  3  4  1  0
  4  5  2  0
  4  6  1  0
  6  7  1  0
  6 19  2  0
  7  8  2  0
  7  9  1  0
  9 10  1  0
  9 18  1  0
 10 11  2  0
 10 17  1  0
 11 12  1  0
 12 13  1  0
 13 14  1  0
 14 15  1  0
 15 16  1  0
 16 17  1  0
 18 19  1  0
 19 20  1  0
 20 21  1  0
 21 22  1  0
 22 23  2  0
 22 24  1  0
 24 25  1  0
 25 26  1  1
 25 44  1  0
 26 27  1  0
 27 28  1  0
 28 29  2  0
 28 30  1  0
 30 31  1  0
 31 32  1  6
 31 33  1  0
 33 34  2  0
 33 38  1  0
 34 35  1  0
 35 36  2  0
 36 37  1  0
 37 38  2  0
 38 39  1  0
 40 39  1  1
 40 41  1  0
 40 43  1  0
 41 42  1  0
 42 43  1  0
 44 45  1  0
 45 46  1  1
 45 47  1  0
M  END
