
     RDKit          3D

 46 50  0  0  0  0  0  0  0  0999 V2000
   -1.5030    6.0440    0.4120 C   0  0  0  0  0  0  0  0  0  0  0  0
   -2.2240    6.0220   -0.8930 C   0  0  2  0  0  0  0  0  0  0  0  0
   -2.8080    7.4160   -1.1370 C   0  0  0  0  0  0  0  0  0  0  0  0
   -3.4370    5.0660   -0.8430 C   0  0  1  0  0  0  0  0  0  0  0  0
   -4.1940    5.0570   -2.1150 C   0  0  0  0  0  0  0  0  0  0  0  0
   -3.1010    3.7630   -0.3540 N   0  0  0  0  0  0  0  0  0  0  0  0
   -1.8150    3.1450   -0.4040 C   0  0  0  0  0  0  0  0  0  0  0  0
   -0.8870    3.7680   -0.9360 O   0  0  0  0  0  0  0  0  0  0  0  0
   -1.6610    1.8540    0.1530 N   0  0  0  0  0  0  0  0  0  0  0  0
   -0.4710    1.1380    0.1690 C   0  0  0  0  0  0  0  0  0  0  0  0
    0.6920    1.6120   -0.3500 C   0  0  0  0  0  0  0  0  0  0  0  0
    1.8710    0.8520   -0.3200 C   0  0  0  0  0  0  0  0  0  0  0  0
    1.8440   -0.3870    0.2400 C   0  0  0  0  0  0  0  0  0  0  0  0
    2.9660   -1.2680    0.3130 N   0  0  0  0  0  0  0  0  0  0  0  0
    4.0520   -1.1530   -0.5920 C   0  0  0  0  0  0  0  0  0  0  0  0
    4.1190   -0.3150   -1.5160 O   0  0  0  0  0  0  0  0  0  0  0  0
    5.1670   -2.0520   -0.4600 N   0  0  0  0  0  0  0  0  0  0  0  0
    6.3080   -2.0230   -1.3190 C   0  0  0  0  0  0  0  0  0  0  0  0
    7.0310   -0.7200   -1.2240 C   0  0  2  0  0  0  0  0  0  0  0  0
    8.2060   -0.6680   -2.1100 C   0  0  0  0  0  0  0  0  0  0  0  0
    8.2280   -0.7560   -3.3830 O   0  0  0  0  0  0  0  0  0  0  0  0
    9.3550   -0.4990   -1.3230 N   0  0  0  0  0  0  0  0  0  0  0  0
    8.9440   -0.3720    0.0410 C   0  0  0  0  0  0  0  0  0  0  0  0
    9.7180   -0.1500    1.1870 C   0  0  0  0  0  0  0  0  0  0  0  0
    9.1250   -0.0130    2.4360 C   0  0  0  0  0  0  0  0  0  0  0  0
    7.7530   -0.1080    2.4750 C   0  0  0  0  0  0  0  0  0  0  0  0
    6.9710   -0.3260    1.3660 C   0  0  0  0  0  0  0  0  0  0  0  0
    7.5830   -0.4590    0.1340 C   0  0  0  0  0  0  0  0  0  0  0  0
    0.6720   -0.9090    0.7820 C   0  0  0  0  0  0  0  0  0  0  0  0
   -0.4420   -0.1320    0.7270 C   0  0  0  0  0  0  0  0  0  0  0  0
   -1.7180   -0.6740    1.2580 C   0  0  0  0  0  0  0  0  0  0  0  0
   -2.1540   -0.1760    2.3230 N   0  0  0  0  0  0  0  0  0  0  0  0
   -3.3150   -0.4970    3.0500 C   0  0  0  0  0  0  0  0  0  0  0  0
   -3.4940   -1.3260    4.1290 C   0  0  0  0  0  0  0  0  0  0  0  0
   -4.7010   -1.5080    4.6410 C   0  0  0  0  0  0  0  0  0  0  0  0
   -5.7990   -0.8580    4.0870 C   0  0  0  0  0  0  0  0  0  0  0  0
   -4.9950    0.0660    2.7450 S   0  0  0  0  0  0  0  0  0  0  0  0
   -2.6910   -1.3520    0.5760 N   0  0  0  0  0  0  0  0  0  0  0  0
   -2.7620   -2.4510   -0.2530 C   0  0  0  0  0  0  0  0  0  0  0  0
   -1.6710   -2.9990   -0.3940 O   0  0  0  0  0  0  0  0  0  0  0  0
   -3.9520   -2.8960   -0.8410 N   0  0  0  0  0  0  0  0  0  0  0  0
   -3.9840   -4.0870   -1.6590 C   0  0  1  0  0  0  0  0  0  0  0  0
   -3.7030   -5.2270   -0.6020 C   0  0  0  0  0  0  0  0  0  0  0  0
   -4.3280   -6.4430   -1.2070 C   0  0  0  0  0  0  0  0  0  0  0  0
   -5.6420   -5.8780   -1.7120 C   0  0  0  0  0  0  0  0  0  0  0  0
   -5.3620   -4.4340   -2.0640 C   0  0  0  0  0  0  0  0  0  0  0  0
  2  1  1  1
  2  3  1  0
  2  4  1  0
  4  5  1  6
  4  6  1  0
  6  7  1  0
  7  8  2  0
  7  9  1  0
  9 10  1  0
 10 11  2  0
 10 30  1  0
 11 12  1  0
 12 13  2  0
 13 14  1  0
 13 29  1  0
 14 15  1  0
 15 16  2  0
 15 17  1  0
 17 18  1  0
 19 18  1  1
 19 20  1  0
 19 28  1  0
 20 21  2  0
 20 22  1  0
 22 23  1  0
 23 24  2  0
 23 28  1  0
 24 25  1  0
 25 26  2  0
 26 27  1  0
 27 28  2  0
 29 30  2  0
 30 31  1  0
 31 32  2  3
 31 38  1  0
 32 33  1  0
 33 34  2  0
 33 37  1  0
 34 35  1  0
 35 36  2  0
 36 37  1  0
 38 39  1  0
 39 40  2  0
 39 41  1  0
 42 41  1  1
 42 43  1  0
 42 46  1  0
 43 44  1  0
 44 45  1  0
 45 46  1  0
M  END
