
     RDKit          3D

  6  6  0  0  0  0  0  0  0  0999 V2000
    2.1160    0.0310   -0.0790 N   0  0  0  0  0  0  0  0  0  0  0  0
    0.6680    0.0710   -0.0250 C   0  0  0  0  0  0  0  0  0  0  0  0
   -0.0570    1.1710   -0.0960 C   0  0  0  0  0  0  0  0  0  0  0  0
   -1.4760    0.8600   -0.0120 C   0  0  0  0  0  0  0  0  0  0  0  0
   -1.5930   -0.4470    0.1100 C   0  0  0  0  0  0  0  0  0  0  0  0
   -0.2530   -1.0600    0.1130 C   0  0  0  0  0  0  0  0  0  0  0  0
  1  2  1  0
  2  3  2  0
  2  6  1  0
  3  4  1  0
  4  5  2  0
  5  6  1  0
M  END
