
     RDKit          3D

 18 19  0  0  0  0  0  0  0  0999 V2000
    5.9010    0.2020   -0.3150 N   0  0  0  0  0  0  0  0  0  0  0  0
    4.5530    0.4690    0.0990 C   0  0  0  0  0  0  0  0  0  0  0  0
    3.4990   -0.2150   -0.4390 C   0  0  0  0  0  0  0  0  0  0  0  0
    2.1710    0.0350   -0.0430 C   0  0  0  0  0  0  0  0  0  0  0  0
    1.1410   -0.7100   -0.6430 N   0  0  0  0  0  0  0  0  0  0  0  0
   -0.2350   -0.6130   -0.3900 C   0  0  0  0  0  0  0  0  0  0  0  0
   -1.1480   -1.4370   -1.0800 C   0  0  0  0  0  0  0  0  0  0  0  0
   -2.4970   -1.3570   -0.8470 C   0  0  0  0  0  0  0  0  0  0  0  0
   -3.0210   -0.4650    0.0760 C   0  0  0  0  0  0  0  0  0  0  0  0
   -4.7440   -0.3730    0.3640 S   0  0  2  0  0  0  0  0  0  0  0  0
   -5.4540    0.7700   -0.6910 N   0  0  0  0  0  0  0  0  0  0  0  0
   -5.0090    0.0590    1.7970 O   0  0  0  0  0  0  0  0  0  0  0  0
   -5.4230   -1.6890    0.1840 O   0  0  0  0  0  0  0  0  0  0  0  0
   -2.1580    0.3550    0.7680 C   0  0  0  0  0  0  0  0  0  0  0  0
   -0.7780    0.2650    0.5210 C   0  0  0  0  0  0  0  0  0  0  0  0
    2.0510    0.9830    0.8840 N   0  0  0  0  0  0  0  0  0  0  0  0
    3.0720    1.6510    1.4100 C   0  0  0  0  0  0  0  0  0  0  0  0
    4.3410    1.4120    1.0320 N   0  0  0  0  0  0  0  0  0  0  0  0
  1  2  1  0
  2  3  2  0
  2 18  1  0
  3  4  1  0
  4  5  1  0
  4 16  2  0
  5  6  1  0
  6  7  2  0
  6 15  1  0
  7  8  1  0
  8  9  2  0
  9 10  1  0
  9 14  1  0
 10 11  1  6
 10 12  2  0
 10 13  2  0
 14 15  2  0
 16 17  1  0
 17 18  2  0
M  END
