
     RDKit          3D

 22 25  0  0  0  0  0  0  0  0999 V2000
   -4.9730   -2.3400   -0.3290 C   0  0  0  0  0  0  0  0  0  0  0  0
   -4.0810   -1.1890   -0.1810 N   0  0  0  0  0  0  0  0  0  0  0  0
   -2.7340   -1.2030   -0.2380 C   0  0  0  0  0  0  0  0  0  0  0  0
   -2.2790    0.0710   -0.0530 C   0  0  0  0  0  0  0  0  0  0  0  0
   -0.8970    0.5950   -0.0250 C   0  0  0  0  0  0  0  0  0  0  0  0
    0.0830   -0.4530   -0.2320 N   0  0  0  0  0  0  0  0  0  0  0  0
    1.4830   -0.1820   -0.2450 C   0  0  0  0  0  0  0  0  0  0  0  0
    1.8840    1.0280   -0.4680 N   0  0  0  0  0  0  0  0  0  0  0  0
    3.2500    1.4060   -0.5030 C   0  0  0  0  0  0  0  0  0  0  0  0
    4.2200    0.4930   -0.2990 C   0  0  0  0  0  0  0  0  0  0  0  0
    5.6430    0.8910   -0.3370 C   0  0  0  0  0  0  0  0  0  0  0  0
    6.5650   -0.2380   -0.0920 C   0  0  0  0  0  0  0  0  0  0  0  0
    6.1810   -1.4800    0.1370 C   0  0  0  0  0  0  0  0  0  0  0  0
    4.7670   -1.8290    0.1650 C   0  0  0  0  0  0  0  0  0  0  0  0
    3.8620   -0.8910   -0.0420 C   0  0  0  0  0  0  0  0  0  0  0  0
    2.4530   -1.1960   -0.0220 N   0  0  0  0  0  0  0  0  0  0  0  0
   -3.4020    0.8660    0.1200 C   0  0  0  0  0  0  0  0  0  0  0  0
   -3.5790    2.2280    0.3450 C   0  0  0  0  0  0  0  0  0  0  0  0
   -4.8570    2.7280    0.4770 C   0  0  0  0  0  0  0  0  0  0  0  0
   -5.9640    1.9120    0.3910 C   0  0  0  0  0  0  0  0  0  0  0  0
   -5.7530    0.6030    0.1730 N   0  0  0  0  0  0  0  0  0  0  0  0
   -4.5190    0.0650    0.0370 C   0  0  0  0  0  0  0  0  0  0  0  0
  1  2  1  0
  2  3  1  0
  2 22  1  0
  3  4  2  0
  4  5  1  0
  4 17  1  0
  5  6  1  0
  6  7  1  0
  7  8  2  0
  7 16  1  0
  8  9  1  0
  9 10  2  0
 10 11  1  0
 10 15  1  0
 11 12  1  0
 12 13  2  0
 13 14  1  0
 14 15  2  0
 15 16  1  0
 17 18  2  0
 17 22  1  0
 18 19  1  0
 19 20  2  0
 20 21  1  0
 21 22  2  0
M  END
