
     RDKit          3D

 12 11  0  0  0  0  0  0  0  0999 V2000
    3.6160    0.5990   -0.7930 N   0  0  0  0  0  0  0  0  0  0  0  0
    2.7060    1.3010    0.0730 C   0  0  0  0  0  0  0  0  0  0  0  0
    1.3550    0.7130    0.1340 C   0  0  0  0  0  0  0  0  0  0  0  0
    0.9280   -0.3440   -0.5020 C   0  0  0  0  0  0  0  0  0  0  0  0
    1.7650   -1.0450   -1.3390 O   0  0  0  0  0  0  0  0  0  0  0  0
   -0.4590   -0.8160   -0.3410 C   0  0  1  0  0  0  0  0  0  0  0  0
   -0.4580   -2.2450    0.2180 C   0  0  0  0  0  0  0  0  0  0  0  0
   -1.7600   -2.6800    0.3590 O   0  0  0  0  0  0  0  0  0  0  0  0
   -1.1270    0.0290    0.5160 O   0  0  0  0  0  0  0  0  0  0  0  0
   -2.2360    0.6220   -0.0890 C   0  0  0  0  0  0  0  0  0  0  0  0
   -2.9140    1.5350    0.9200 C   0  0  0  0  0  0  0  0  0  0  0  0
   -3.3210    0.8080    2.0130 O   0  0  0  0  0  0  0  0  0  0  0  0
  1  2  1  0
  2  3  1  0
  3  4  2  3
  4  5  1  0
  4  6  1  0
  6  7  1  1
  6  9  1  0
  7  8  1  0
  9 10  1  0
 10 11  1  0
 11 12  1  0
M  CHG  1   1   1
M  END
