
     RDKit          3D

 13 13  0  0  0  0  0  0  0  0999 V2000
   -3.7400   -0.6440   -0.4140 C   0  0  0  0  0  0  0  0  0  0  0  0
   -2.5930    0.2650   -0.4280 N   0  0  0  0  0  0  0  0  0  0  0  0
   -2.7410    1.1450    0.7540 C   0  0  0  0  0  0  0  0  0  0  0  0
   -1.3580   -0.5390   -0.2270 C   0  0  0  0  0  0  0  0  0  0  0  0
   -0.2270    0.4230   -0.4950 C   0  0  2  0  0  0  0  0  0  0  0  0
   -0.4340    0.8120   -1.8570 O   0  0  0  0  0  0  0  0  0  0  0  0
    1.1390   -0.2140   -0.3680 C   0  0  2  0  0  0  0  0  0  0  0  0
    1.2880   -1.4480   -1.2050 C   0  0  0  0  0  0  0  0  0  0  0  0
    1.3620   -0.5880    1.0750 C   0  0  0  0  0  0  0  0  0  0  0  0
    1.8140    0.4870    1.8270 O   0  0  0  0  0  0  0  0  0  0  0  0
    3.0880    0.8110    1.3740 C   0  0  0  0  0  0  0  0  0  0  0  0
    3.2230    0.7860   -0.1090 C   0  0  0  0  0  0  0  0  0  0  0  0
    2.0550    0.7210   -0.8160 O   0  0  0  0  0  0  0  0  0  0  0  0
  1  2  1  0
  2  3  1  0
  2  4  1  0
  4  5  1  0
  5  6  1  6
  5  7  1  0
  7  8  1  6
  7  9  1  0
  7 13  1  0
  9 10  1  0
 10 11  1  0
 11 12  1  0
 12 13  1  0
M  END
