
     RDKit          3D

 14 14  0  0  0  0  0  0  0  0999 V2000
   -1.8710    2.0800   -0.0380 C   0  0  0  0  0  0  0  0  0  0  0  0
   -1.5670    0.8360    0.7700 C   0  0  2  0  0  0  0  0  0  0  0  0
   -1.5310    1.2290    2.2360 C   0  0  0  0  0  0  0  0  0  0  0  0
   -0.2510    0.2250    0.3930 C   0  0  0  0  0  0  0  0  0  0  0  0
   -0.2980   -0.7360   -0.7280 C   0  0  1  0  0  0  0  0  0  0  0  0
    0.8130   -1.7570   -0.7330 C   0  0  0  0  0  0  0  0  0  0  0  0
    2.1820   -1.1360   -0.8220 C   0  0  0  0  0  0  0  0  0  0  0  0
    2.4450   -0.2560    0.3050 N   0  0  0  0  0  0  0  0  0  0  0  0
    4.0530    0.3900    0.0700 S   0  0  2  0  0  0  0  0  0  0  0  0
    4.0580    1.7510    0.7130 O   0  0  0  0  0  0  0  0  0  0  0  0
    4.2760    0.4830   -1.4120 O   0  0  0  0  0  0  0  0  0  0  0  0
   -1.6080   -1.4690   -0.8730 C   0  0  0  0  0  0  0  0  0  0  0  0
   -2.7000   -0.3990   -0.7260 C   0  0  0  0  0  0  0  0  0  0  0  0
   -2.6420   -0.0270    0.6160 O   0  0  0  0  0  0  0  0  0  0  0  0
  2  1  1  6
  2  3  1  0
  2  4  1  0
  2 14  1  0
  4  5  1  0
  5  6  1  1
  5 12  1  0
  6  7  1  0
  7  8  1  0
  9  8  1  6
  9 10  2  0
  9 11  2  0
 12 13  1  0
 13 14  1  0
M  END
