
     RDKit          3D

 14 14  0  0  0  0  0  0  0  0999 V2000
    3.1040   -1.5760    0.0710 C   0  0  0  0  0  0  0  0  0  0  0  0
    2.2640   -1.4470   -0.9990 O   0  0  0  0  0  0  0  0  0  0  0  0
    1.4190   -0.3460   -0.9650 C   0  0  0  0  0  0  0  0  0  0  0  0
    0.5590   -0.4360    0.2440 C   0  0  0  0  0  0  0  0  0  0  0  0
   -0.4150    0.7160    0.3830 C   0  0  2  0  0  0  0  0  0  0  0  0
    0.3850    1.9410    0.4610 C   0  0  0  0  0  0  0  0  0  0  0  0
    1.0150    2.9120    0.5430 N   0  0  0  0  0  0  0  0  0  0  0  0
   -1.0880    0.5410    1.7230 C   0  0  0  0  0  0  0  0  0  0  0  0
   -2.2970   -0.2940    1.6580 C   0  0  0  0  0  0  0  0  0  0  0  0
   -3.1330   -0.2280    2.5180 O   0  0  0  0  0  0  0  0  0  0  0  0
   -2.4500   -1.3870    0.2660 S   0  0  0  0  0  0  0  0  0  0  0  0
   -2.0570   -0.3780   -1.1920 C   0  0  0  0  0  0  0  0  0  0  0  0
   -1.3590    0.8500   -0.7500 C   0  0  2  0  0  0  0  0  0  0  0  0
   -0.6970    1.4070   -1.8390 O   0  0  0  0  0  0  0  0  0  0  0  0
  1  2  1  0
  2  3  1  0
  3  4  1  0
  5  4  1  6
  5  6  1  0
  5  8  1  0
  5 13  1  0
  6  7  3  0
  8  9  1  0
  9 10  2  0
  9 11  1  0
 11 12  1  0
 12 13  1  0
 13 14  1  6
M  END
