
     RDKit          3D

 21 22  0  0  0  0  0  0  0  0999 V2000
    4.2380    2.9940   -0.1240 N   0  0  0  0  0  0  0  0  0  0  0  0
    3.2940    2.1440    0.0970 C   0  0  0  0  0  0  0  0  0  0  0  0
    2.7100    2.0020    1.3310 C   0  0  0  0  0  0  0  0  0  0  0  0
    1.6940    1.0600    1.4950 C   0  0  0  0  0  0  0  0  0  0  0  0
    1.2740    0.2890    0.4760 N   0  0  0  0  0  0  0  0  0  0  0  0
    0.2290   -0.6640    0.6920 C   0  0  2  0  0  0  0  0  0  0  0  0
    0.6500   -1.8780    0.1470 O   0  0  0  0  0  0  0  0  0  0  0  0
   -0.4550   -2.6730   -0.0160 C   0  0  2  0  0  0  0  0  0  0  0  0
   -0.3430   -3.3980   -1.3490 C   0  0  0  0  0  0  0  0  0  0  0  0
    0.7910   -4.1950   -1.4060 O   0  0  0  0  0  0  0  0  0  0  0  0
   -1.6690   -1.7910   -0.0910 C   0  0  1  0  0  0  0  0  0  0  0  0
   -2.3990   -1.9980    1.0890 O   0  0  0  0  0  0  0  0  0  0  0  0
   -1.0340   -0.3940   -0.0470 C   0  0  1  0  0  0  0  0  0  0  0  0
   -1.7880    0.4050    0.8060 O   0  0  0  0  0  0  0  0  0  0  0  0
   -2.3430    1.7310    0.2760 P   0  0  0  0  0  0  0  0  0  0  0  0
   -2.9710    2.0130    1.7940 O   0  0  0  0  0  0  0  0  0  0  0  0
   -3.1320    2.9510   -0.2350 O   0  0  0  0  0  0  0  0  0  0  0  0
   -0.8650    2.2870   -0.0840 O   0  0  0  0  0  0  0  0  0  0  0  0
    1.8770    0.4680   -0.7050 C   0  0  0  0  0  0  0  0  0  0  0  0
    1.4870   -0.2520   -1.6650 O   0  0  0  0  0  0  0  0  0  0  0  0
    2.8560    1.3620   -0.9020 N   0  0  0  0  0  0  0  0  0  0  0  0
  1  2  2  0
  2  3  1  0
  2 21  1  0
  3  4  2  0
  4  5  1  0
  6  5  1  6
  5 19  1  0
  6  7  1  0
  6 13  1  0
  7  8  1  0
  8  9  1  6
  8 11  1  0
  9 10  1  0
 11 12  1  1
 11 13  1  0
 13 14  1  1
 14 15  1  0
 15 16  1  0
 15 17  1  0
 15 18  1  0
 19 20  2  0
 19 21  1  0
M  END
