
     RDKit          3D

 10  9  0  0  0  0  0  0  0  0999 V2000
   -3.0110    0.2700    1.1630 N   0  0  0  0  0  0  0  0  0  0  0  0
   -1.9210    0.8940    0.6600 O   0  0  0  0  0  0  0  0  0  0  0  0
   -1.1600   -0.0380   -0.0060 C   0  0  1  0  0  0  0  0  0  0  0  0
   -1.0240    0.3080   -1.3610 O   0  0  0  0  0  0  0  0  0  0  0  0
    0.2430   -0.1790    0.5910 C   0  0  1  0  0  0  0  0  0  0  0  0
    0.1390   -0.5400    1.9140 F   0  0  0  0  0  0  0  0  0  0  0  0
    0.8890   -1.1440   -0.1750 O   0  0  0  0  0  0  0  0  0  0  0  0
    2.2810   -0.5590   -0.9830 P   0  0  0  0  0  0  0  0  0  0  0  0
    2.1950    1.0940   -1.4080 O   0  0  0  0  0  0  0  0  0  0  0  0
    3.7160   -0.9720   -0.1260 O   0  0  0  0  0  0  0  0  0  0  0  0
  1  2  1  0
  2  3  1  0
  3  4  1  6
  3  5  1  0
  5  6  1  1
  5  7  1  0
  7  8  1  0
  8  9  1  0
  8 10  1  0
M  END
