
     RDKit          3D

 19 20  0  0  0  0  0  0  0  0999 V2000
    4.3480   -2.9140   -0.0640 C   0  0  0  0  0  0  0  0  0  0  0  0
    3.2010   -2.3550    0.5290 O   0  0  0  0  0  0  0  0  0  0  0  0
    2.7930   -1.0980    0.0790 C   0  0  0  0  0  0  0  0  0  0  0  0
    3.4700   -0.4070   -0.9080 C   0  0  0  0  0  0  0  0  0  0  0  0
    3.0900    0.8330   -1.3690 C   0  0  0  0  0  0  0  0  0  0  0  0
    3.7800    1.5140   -2.3600 O   0  0  0  0  0  0  0  0  0  0  0  0
    1.9520    1.4060   -0.7920 C   0  0  0  0  0  0  0  0  0  0  0  0
    1.2460    0.7580    0.1920 C   0  0  0  0  0  0  0  0  0  0  0  0
    0.0610    1.3920    0.7700 C   0  0  2  0  0  0  0  0  0  0  0  0
    0.0170    1.2910    2.2180 N   0  0  0  0  0  0  0  0  0  0  0  0
   -1.2260    0.8440    0.2500 C   0  0  0  0  0  0  0  0  0  0  0  0
   -1.9400    1.4820   -0.7430 C   0  0  0  0  0  0  0  0  0  0  0  0
   -3.1280    0.9570   -1.2080 C   0  0  0  0  0  0  0  0  0  0  0  0
   -3.6630   -0.2150   -0.7160 C   0  0  0  0  0  0  0  0  0  0  0  0
   -4.9500   -0.7540   -1.2410 C   0  0  0  0  0  0  0  0  0  0  0  0
   -6.0430   -0.2760   -0.5350 O   0  0  0  0  0  0  0  0  0  0  0  0
   -2.9510   -0.8540    0.2770 C   0  0  0  0  0  0  0  0  0  0  0  0
   -1.7560   -0.3290    0.7460 C   0  0  0  0  0  0  0  0  0  0  0  0
    1.6670   -0.4770    0.6170 C   0  0  0  0  0  0  0  0  0  0  0  0
  1  2  1  0
  2  3  1  0
  3  4  2  0
  3 19  1  0
  4  5  1  0
  5  6  1  0
  5  7  2  0
  7  8  1  0
  8  9  1  0
  8 19  2  0
  9 10  1  1
  9 11  1  0
 11 12  2  0
 11 18  1  0
 12 13  1  0
 13 14  2  0
 14 15  1  0
 14 17  1  0
 15 16  1  0
 17 18  2  0
M  CHG  1  10   1
M  END
