
     RDKit          3D

 19 20  0  0  0  0  0  0  0  0999 V2000
    6.7040    1.0590    0.2350 C   0  0  0  0  0  0  0  0  0  0  0  0
    5.8060    0.4130   -0.7440 C   0  0  0  0  0  0  0  0  0  0  0  0
    4.5500    0.1810   -0.4220 C   0  0  0  0  0  0  0  0  0  0  0  0
    4.0590    0.5530    0.8720 C   0  0  0  0  0  0  0  0  0  0  0  0
    2.9080    0.4130    1.3850 C   0  0  0  0  0  0  0  0  0  0  0  0
    1.7100   -0.1710    0.8710 C   0  0  0  0  0  0  0  0  0  0  0  0
    0.5220    0.5740    1.1390 C   0  0  0  0  0  0  0  0  0  0  0  0
   -0.7240    0.1630    0.7830 C   0  0  0  0  0  0  0  0  0  0  0  0
   -0.8470   -1.0400    0.1260 C   0  0  0  0  0  0  0  0  0  0  0  0
    0.2570   -1.7940   -0.1530 C   0  0  0  0  0  0  0  0  0  0  0  0
    1.5570   -1.3660    0.2230 C   0  0  0  0  0  0  0  0  0  0  0  0
    2.5970   -2.1990   -0.0740 O   0  0  0  0  0  0  0  0  0  0  0  0
   -2.1390   -1.4570   -0.2430 O   0  0  0  0  0  0  0  0  0  0  0  0
   -3.1190   -0.4420   -0.3340 C   0  0  1  0  0  0  0  0  0  0  0  0
   -4.4770   -1.0050   -0.6760 C   0  0  0  0  0  0  0  0  0  0  0  0
   -5.4920    0.0850   -0.7660 C   0  0  0  0  0  0  0  0  0  0  0  0
   -5.1780    1.0640   -1.7700 N   0  0  0  0  0  0  0  0  0  0  0  0
   -3.1070    0.2780    0.9960 C   0  0  0  0  0  0  0  0  0  0  0  0
   -1.8610    0.9450    1.0760 O   0  0  0  0  0  0  0  0  0  0  0  0
  1  2  1  0
  2  3  2  3
  3  4  1  0
  4  5  2  3
  5  6  1  0
  6  7  2  0
  6 11  1  0
  7  8  1  0
  8  9  2  0
  8 19  1  0
  9 10  1  0
  9 13  1  0
 10 11  2  0
 11 12  1  0
 13 14  1  0
 14 15  1  1
 14 18  1  0
 15 16  1  0
 16 17  1  0
 18 19  1  0
M  CHG  1  17   1
M  END
