
     RDKit          3D

 10 11  0  0  0  0  0  0  0  0999 V2000
    2.3740   -0.9030   -0.0700 N   0  0  0  0  0  0  0  0  0  0  0  0
    1.2980    0.0100   -0.0610 C   0  0  0  0  0  0  0  0  0  0  0  0
    1.5480    1.3190   -0.1290 N   0  0  0  0  0  0  0  0  0  0  0  0
    0.5560    2.2480   -0.1250 C   0  0  0  0  0  0  0  0  0  0  0  0
   -0.7030    1.8230   -0.0510 N   0  0  0  0  0  0  0  0  0  0  0  0
   -1.0330    0.5190    0.0210 C   0  0  0  0  0  0  0  0  0  0  0  0
   -2.1770   -0.1800    0.1020 N   0  0  0  0  0  0  0  0  0  0  0  0
   -1.9370   -1.5030    0.1490 C   0  0  0  0  0  0  0  0  0  0  0  0
   -0.6000   -1.6360    0.0950 N   0  0  0  0  0  0  0  0  0  0  0  0
   -0.0000   -0.4220    0.0150 C   0  0  0  0  0  0  0  0  0  0  0  0
  1  2  1  0
  2  3  2  0
  2 10  1  0
  3  4  1  0
  4  5  2  0
  5  6  1  0
  6  7  1  0
  6 10  2  0
  7  8  1  0
  8  9  2  0
  9 10  1  0
M  END
