
     RDKit          3D

 19 19  0  0  0  0  0  0  0  0999 V2000
   -4.6670    1.4550   -1.1110 C   0  0  0  0  0  0  0  0  0  0  0  0
   -4.3420    0.2880   -0.6100 C   0  0  0  0  0  0  0  0  0  0  0  0
   -5.4640   -0.6980   -0.4910 C   0  0  0  0  0  0  0  0  0  0  0  0
   -5.0830   -1.9840    0.0660 C   0  0  0  0  0  0  0  0  0  0  0  0
   -3.8590   -2.2680    0.4360 C   0  0  0  0  0  0  0  0  0  0  0  0
   -2.7970   -1.2910    0.3070 C   0  0  0  0  0  0  0  0  0  0  0  0
   -3.0080   -0.0700   -0.1890 C   0  0  0  0  0  0  0  0  0  0  0  0
   -1.9070    0.8740   -0.2970 C   0  0  0  0  0  0  0  0  0  0  0  0
   -1.9700    2.0350   -0.7390 O   0  0  0  0  0  0  0  0  0  0  0  0
   -0.6150    0.4940    0.1230 O   0  0  0  0  0  0  0  0  0  0  0  0
    0.4480    1.4240    0.0110 C   0  0  0  0  0  0  0  0  0  0  0  0
    1.7480    0.7800    0.5300 C   0  0  2  0  0  0  0  0  0  0  0  0
    1.5240    0.4350    1.8840 O   0  0  0  0  0  0  0  0  0  0  0  0
    2.8660    1.7600    0.5220 C   0  0  0  0  0  0  0  0  0  0  0  0
    2.4860    2.9340    1.3040 N   0  0  0  0  0  0  0  0  0  0  0  0
    1.9330   -0.4650   -0.2330 C   0  0  0  0  0  0  0  0  0  0  0  0
    3.1040   -1.3210    0.0510 C   0  0  1  0  0  0  0  0  0  0  0  0
    2.9780   -2.5390   -0.8970 C   0  0  0  0  0  0  0  0  0  0  0  0
    4.4360   -0.7080   -0.2880 C   0  0  0  0  0  0  0  0  0  0  0  0
  1  2  2  0
  2  3  1  0
  2  7  1  0
  3  4  1  0
  4  5  2  0
  5  6  1  0
  6  7  2  0
  7  8  1  0
  8  9  2  0
  8 10  1  0
 10 11  1  0
 11 12  1  0
 12 13  1  1
 12 14  1  0
 12 16  1  0
 14 15  1  0
 16 17  1  0
 17 18  1  6
 17 19  1  0
M  CHG  1  15   1
M  END
