
     RDKit          3D

 19 20  0  0  0  0  0  0  0  0999 V2000
   -3.2340    2.3800   -0.7970 C   0  0  0  0  0  0  0  0  0  0  0  0
   -2.4120    1.4590   -0.3360 C   0  0  0  0  0  0  0  0  0  0  0  0
   -2.7470    0.0710   -0.0480 C   0  0  0  0  0  0  0  0  0  0  0  0
   -3.9380   -0.5040    0.0030 C   0  0  0  0  0  0  0  0  0  0  0  0
   -4.0820   -1.9460    0.3160 C   0  0  0  0  0  0  0  0  0  0  0  0
   -4.8410   -2.1650    1.4570 O   0  0  0  0  0  0  0  0  0  0  0  0
   -1.4570   -0.6430    0.1940 C   0  0  0  0  0  0  0  0  0  0  0  0
   -0.3790    0.3290   -0.3040 C   0  0  2  0  0  0  0  0  0  0  0  0
    0.8270    0.1210    0.3350 O   0  0  0  0  0  0  0  0  0  0  0  0
    2.0010   -0.1680   -0.3100 C   0  0  0  0  0  0  0  0  0  0  0  0
    2.1900   -0.2990   -1.6650 C   0  0  0  0  0  0  0  0  0  0  0  0
    3.4230   -0.5950   -2.2310 C   0  0  0  0  0  0  0  0  0  0  0  0
    4.5340   -0.7740   -1.4520 C   0  0  0  0  0  0  0  0  0  0  0  0
    5.7890   -1.0720   -1.9780 O   0  0  0  0  0  0  0  0  0  0  0  0
    4.3870   -0.6510   -0.0890 C   0  0  0  0  0  0  0  0  0  0  0  0
    3.1650   -0.3590    0.4600 C   0  0  0  0  0  0  0  0  0  0  0  0
    2.9990   -0.2240    1.9430 C   0  0  0  0  0  0  0  0  0  0  0  0
   -0.9810    1.6920   -0.0290 C   0  0  2  0  0  0  0  0  0  0  0  0
   -0.7390    2.1640    1.2890 N   0  0  0  0  0  0  0  0  0  0  0  0
  1  2  2  0
  2  3  1  0
  2 18  1  0
  3  4  2  3
  3  7  1  0
  4  5  1  0
  5  6  1  0
  7  8  1  0
  8  9  1  1
  8 18  1  0
  9 10  1  0
 10 11  2  0
 10 16  1  0
 11 12  1  0
 12 13  2  0
 13 14  1  0
 13 15  1  0
 15 16  2  0
 16 17  1  0
 18 19  1  1
M  CHG  1  19   1
M  END
