
     RDKit          3D

 22 22  0  0  0  0  0  0  0  0999 V2000
    3.2990    2.4020    1.9610 O   0  0  0  0  0  0  0  0  0  0  0  0
    3.4200    1.0580    2.3230 C   0  0  0  0  0  0  0  0  0  0  0  0
    3.0640    0.2470    1.0730 C   0  0  1  0  0  0  0  0  0  0  0  0
    1.7610    0.5700    0.7110 O   0  0  0  0  0  0  0  0  0  0  0  0
    0.9200   -0.5350    0.7260 C   0  0  0  0  0  0  0  0  0  0  0  0
   -0.4640   -0.0150    0.3080 C   0  0  1  0  0  0  0  0  0  0  0  0
   -0.4000    0.5350   -0.9440 O   0  0  0  0  0  0  0  0  0  0  0  0
   -1.4090   -1.1700    0.4630 C   0  0  0  0  0  0  0  0  0  0  0  0
   -2.7180   -0.9330    0.2020 O   0  0  0  0  0  0  0  0  0  0  0  0
   -3.0960   -0.5320   -1.0340 C   0  0  1  0  0  0  0  0  0  0  0  0
   -4.2220   -1.3480   -1.6350 C   0  0  0  0  0  0  0  0  0  0  0  0
   -5.4050   -1.2520   -0.9480 O   0  0  0  0  0  0  0  0  0  0  0  0
   -5.3380   -0.5970    0.2530 C   0  0  0  0  0  0  0  0  0  0  0  0
   -4.7530    0.7850    0.1720 C   0  0  1  0  0  0  0  0  0  0  0  0
   -4.1430    1.0590    1.4040 O   0  0  0  0  0  0  0  0  0  0  0  0
   -3.6730    0.8870   -0.8830 C   0  0  2  0  0  0  0  0  0  0  0  0
   -4.2480    1.3010   -2.1040 O   0  0  0  0  0  0  0  0  0  0  0  0
    3.9170    0.6550    0.0770 O   0  0  0  0  0  0  0  0  0  0  0  0
    4.6590   -0.3530   -0.4920 C   0  0  1  0  0  0  0  0  0  0  0  0
    4.2820   -0.4340   -1.8430 O   0  0  0  0  0  0  0  0  0  0  0  0
    6.1440   -0.0910   -0.4690 C   0  0  0  0  0  0  0  0  0  0  0  0
    6.4460    1.0740   -1.1670 O   0  0  0  0  0  0  0  0  0  0  0  0
  1  2  1  0
  3  2  1  1
  3  4  1  0
  3 18  1  0
  4  5  1  0
  5  6  1  0
  6  7  1  6
  6  8  1  0
  8  9  1  0
 10  9  1  1
 10 11  1  0
 10 16  1  0
 11 12  1  0
 12 13  1  0
 13 14  1  0
 14 15  1  1
 14 16  1  0
 16 17  1  6
 18 19  1  0
 19 20  1  6
 19 21  1  0
 21 22  1  0
M  END
