
     RDKit          3D

 22 24  0  0  0  0  0  0  0  0999 V2000
    3.7750    2.9560    0.7850 O   0  0  0  0  0  0  0  0  0  0  0  0
    3.2250    1.8660    0.4620 C   0  0  0  0  0  0  0  0  0  0  0  0
    2.9150    0.9940    1.5190 O   0  0  0  0  0  0  0  0  0  0  0  0
    2.2770   -0.2060    1.2050 C   0  0  2  0  0  0  0  0  0  0  0  0
    3.1850   -1.2270    0.8660 O   0  0  0  0  0  0  0  0  0  0  0  0
    1.3640   -0.0670   -0.0250 C   0  0  1  0  0  0  0  0  0  0  0  0
    0.8070   -1.4150   -0.2700 C   0  0  2  0  0  0  0  0  0  0  0  0
    1.5910   -2.1060   -1.1940 O   0  0  0  0  0  0  0  0  0  0  0  0
   -0.6050   -1.4320   -0.7740 C   0  0  1  0  0  0  0  0  0  0  0  0
   -1.0480   -2.7580   -0.7200 O   0  0  0  0  0  0  0  0  0  0  0  0
   -1.4540   -0.6530    0.1980 C   0  0  2  0  0  0  0  0  0  0  0  0
   -2.8760   -0.7300   -0.3190 C   0  0  0  0  0  0  0  0  0  0  0  0
   -3.7610    0.3290    0.2960 C   0  0  0  0  0  0  0  0  0  0  0  0
   -3.0770    1.6580    0.3620 C   0  0  0  0  0  0  0  0  0  0  0  0
   -1.8650    1.5810   -0.2930 O   0  0  0  0  0  0  0  0  0  0  0  0
   -0.9920    0.7360    0.4350 C   0  0  1  0  0  0  0  0  0  0  0  0
   -1.2930    1.0360    1.7880 O   0  0  0  0  0  0  0  0  0  0  0  0
    0.4140    1.0450    0.1390 C   0  0  2  0  0  0  0  0  0  0  0  0
    0.4550    1.8950   -0.9940 O   0  0  0  0  0  0  0  0  0  0  0  0
    2.3280    0.2680   -1.1680 C   0  0  2  0  0  0  0  0  0  0  0  0
    3.3260   -0.6750   -1.2930 O   0  0  0  0  0  0  0  0  0  0  0  0
    2.9270    1.5060   -0.8310 O   0  0  0  0  0  0  0  0  0  0  0  0
  1  2  2  0
  2  3  1  0
  2 22  1  0
  3  4  1  0
  4  5  1  6
  6  4  1  1
  6  7  1  0
  6 18  1  0
  6 20  1  0
  7  8  1  6
  7  9  1  0
  9 10  1  1
  9 11  1  0
 11 12  1  6
 11 16  1  0
 12 13  1  0
 13 14  1  0
 14 15  1  0
 15 16  1  0
 16 17  1  1
 16 18  1  0
 18 19  1  6
 20 21  1  1
 20 22  1  0
M  END
