
     RDKit          3D

 22 23  0  0  0  0  0  0  0  0999 V2000
   -3.8330    0.8620   -3.0160 O   0  0  0  0  0  0  0  0  0  0  0  0
   -3.9980    0.8600   -1.7780 C   0  0  0  0  0  0  0  0  0  0  0  0
   -5.1740    0.7270   -1.0510 O   0  0  0  0  0  0  0  0  0  0  0  0
   -4.9750    1.0650    0.3030 C   0  0  0  0  0  0  0  0  0  0  0  0
   -3.6070    1.7510    0.3270 C   0  0  0  0  0  0  0  0  0  0  0  0
   -2.8900    1.0110   -0.7710 C   0  0  1  0  0  0  0  0  0  0  0  0
   -2.4790   -0.2330   -0.2880 O   0  0  0  0  0  0  0  0  0  0  0  0
   -1.1000   -0.4110   -0.4410 C   0  0  1  0  0  0  0  0  0  0  0  0
   -0.5500   -0.4700    0.8400 O   0  0  0  0  0  0  0  0  0  0  0  0
    0.7900   -0.8440    0.8160 C   0  0  2  0  0  0  0  0  0  0  0  0
    1.2220   -0.8280    2.1560 O   0  0  0  0  0  0  0  0  0  0  0  0
    1.6480    0.1550    0.0810 C   0  0  0  0  0  0  0  0  0  0  0  0
    2.9550   -0.2920    0.1050 O   0  0  0  0  0  0  0  0  0  0  0  0
    3.8430    0.5450   -0.5410 C   0  0  0  0  0  0  0  0  0  0  0  0
    3.9010    1.9230    0.0330 C   0  0  2  0  0  0  0  0  0  0  0  0
    4.8300    2.6580   -0.7080 O   0  0  0  0  0  0  0  0  0  0  0  0
    4.3470    1.9150    1.3620 O   0  0  0  0  0  0  0  0  0  0  0  0
    0.9800   -2.2530    0.3170 C   0  0  1  0  0  0  0  0  0  0  0  0
    1.3940   -3.1200    1.3220 O   0  0  0  0  0  0  0  0  0  0  0  0
   -0.3640   -2.7170   -0.2220 C   0  0  0  0  0  0  0  0  0  0  0  0
   -0.7790   -1.6420   -1.2220 C   0  0  1  0  0  0  0  0  0  0  0  0
   -1.8620   -2.1410   -1.9350 O   0  0  0  0  0  0  0  0  0  0  0  0
  1  2  2  0
  2  3  1  0
  2  6  1  0
  3  4  1  0
  4  5  1  0
  5  6  1  0
  6  7  1  1
  8  7  1  1
  8  9  1  0
  8 21  1  0
  9 10  1  0
 10 11  1  1
 10 12  1  0
 10 18  1  0
 12 13  1  0
 13 14  1  0
 14 15  1  0
 15 16  1  6
 15 17  1  0
 18 19  1  1
 18 20  1  0
 20 21  1  0
 21 22  1  1
M  END
