
     RDKit          3D

 13 12  0  0  0  0  0  0  0  0999 V2000
   -3.4200   -0.7290   -0.1630 C   0  0  0  0  0  0  0  0  0  0  0  0
   -2.3070   -0.0220    0.3480 O   0  0  0  0  0  0  0  0  0  0  0  0
   -1.0470   -0.5450    0.1390 C   0  0  0  0  0  0  0  0  0  0  0  0
   -0.8110   -1.8280    0.5230 C   0  0  0  0  0  0  0  0  0  0  0  0
    0.3990   -2.4410    0.3620 O   0  0  0  0  0  0  0  0  0  0  0  0
    0.0540    0.1580   -0.4570 C   0  0  0  0  0  0  0  0  0  0  0  0
    0.1590    1.3620   -0.9180 C   0  0  0  0  0  0  0  0  0  0  0  0
   -0.7870    2.4770   -1.0160 C   0  0  0  0  0  0  0  0  0  0  0  0
   -2.0980    2.2580   -0.5220 N   0  0  0  0  0  0  0  0  0  0  0  0
    1.2520   -0.6320   -0.5540 O   0  0  0  0  0  0  0  0  0  0  0  0
    2.2530   -0.2500    0.3780 C   0  0  0  0  0  0  0  0  0  0  0  0
    3.4700   -1.1260    0.2110 C   0  0  0  0  0  0  0  0  0  0  0  0
    4.4170   -0.7080    1.1470 O   0  0  0  0  0  0  0  0  0  0  0  0
  1  2  1  0
  2  3  1  0
  3  4  2  3
  3  6  1  0
  4  5  1  0
  6  7  2  3
  6 10  1  0
  7  8  1  0
  8  9  1  0
 10 11  1  0
 11 12  1  0
 12 13  1  0
M  END
