
     RDKit          3D

 37 41  0  0  0  0  0  0  0  0999 V2000
    2.9770    3.9270   -0.0550 C   0  0  0  0  0  0  0  0  0  0  0  0
    2.4280    3.0960   -1.1870 C   0  0  0  0  0  0  0  0  0  0  0  0
    1.4370    2.1390   -0.6440 C   0  0  0  0  0  0  0  0  0  0  0  0
    0.1420    2.6200   -0.5120 C   0  0  0  0  0  0  0  0  0  0  0  0
   -0.9190    1.8820    0.0130 C   0  0  0  0  0  0  0  0  0  0  0  0
   -2.1920    2.5010    0.1840 C   0  0  0  0  0  0  0  0  0  0  0  0
   -3.2960    1.9620    0.5710 C   0  0  0  0  0  0  0  0  0  0  0  0
   -3.4620    0.6460    0.8970 O   0  0  0  0  0  0  0  0  0  0  0  0
   -4.7170    0.0600    0.7620 C   0  0  0  0  0  0  0  0  0  0  0  0
   -5.7860    0.7660    0.2930 C   0  0  0  0  0  0  0  0  0  0  0  0
   -7.0390    0.1580    0.1720 C   0  0  0  0  0  0  0  0  0  0  0  0
   -8.0720    0.9330   -0.3060 C   0  0  0  0  0  0  0  0  0  0  0  0
   -9.3100    0.3470   -0.4300 C   0  0  0  0  0  0  0  0  0  0  0  0
   -9.4730   -0.9790   -0.0760 C   0  0  0  0  0  0  0  0  0  0  0  0
   -8.4270   -1.7350    0.4000 C   0  0  0  0  0  0  0  0  0  0  0  0
   -8.6110   -3.0460    0.7440 O   0  0  0  0  0  0  0  0  0  0  0  0
   -9.8440   -3.7240    0.6490 C   0  0  0  0  0  0  0  0  0  0  0  0
   -7.1920   -1.1580    0.5260 C   0  0  0  0  0  0  0  0  0  0  0  0
   -6.1390   -1.7990    0.9710 O   0  0  0  0  0  0  0  0  0  0  0  0
   -4.9500   -1.2640    1.0990 C   0  0  0  0  0  0  0  0  0  0  0  0
   -3.9630   -1.9280    1.5320 O   0  0  0  0  0  0  0  0  0  0  0  0
   -0.6180    0.6140    0.4040 C   0  0  0  0  0  0  0  0  0  0  0  0
    0.6660    0.0850    0.2910 C   0  0  0  0  0  0  0  0  0  0  0  0
    1.7010    0.8840   -0.2470 C   0  0  0  0  0  0  0  0  0  0  0  0
    2.9910    0.2370   -0.2720 C   0  0  0  0  0  0  0  0  0  0  0  0
    2.9550   -1.0380   -0.5270 O   0  0  0  0  0  0  0  0  0  0  0  0
    4.2640    0.7600   -0.0580 N   0  0  0  0  0  0  0  0  0  0  0  0
    5.4090   -0.1160   -0.1290 C   0  0  0  0  0  0  0  0  0  0  0  0
    6.6460    0.3480    0.0890 N   0  0  0  0  0  0  0  0  0  0  0  0
    7.5400   -0.6440   -0.0290 C   0  0  0  0  0  0  0  0  0  0  0  0
    8.9010   -0.7720    0.0790 C   0  0  0  0  0  0  0  0  0  0  0  0
    9.5610   -1.9630   -0.1050 C   0  0  0  0  0  0  0  0  0  0  0  0
   11.0480   -1.9990    0.0440 C   0  0  0  0  0  0  0  0  0  0  0  0
    8.7960   -3.0610   -0.4090 C   0  0  0  0  0  0  0  0  0  0  0  0
    7.4110   -2.9730   -0.5290 C   0  0  0  0  0  0  0  0  0  0  0  0
    6.7720   -1.7640   -0.3390 C   0  0  0  0  0  0  0  0  0  0  0  0
    5.5170   -1.3710   -0.3810 O   0  0  0  0  0  0  0  0  0  0  0  0
  1  2  1  0
  2  3  1  0
  3  4  2  0
  3 24  1  0
  4  5  1  0
  5  6  1  0
  5 22  2  0
  6  7  2  3
  7  8  1  0
  8  9  1  0
  9 10  2  0
  9 20  1  0
 10 11  1  0
 11 12  2  0
 11 18  1  0
 12 13  1  0
 13 14  2  0
 14 15  1  0
 15 16  1  0
 15 18  2  0
 16 17  1  0
 18 19  1  0
 19 20  1  0
 20 21  2  0
 22 23  1  0
 23 24  2  0
 24 25  1  0
 25 26  2  0
 25 27  1  0
 27 28  1  0
 28 29  2  0
 28 37  1  0
 29 30  1  0
 30 31  2  0
 30 36  1  0
 31 32  1  0
 32 33  1  0
 32 34  2  0
 34 35  1  0
 35 36  2  0
 36 37  1  0
M  END
