
     RDKit          3D

 37 40  0  0  0  0  0  0  0  0999 V2000
   -7.4120    1.5370   -0.3380 C   0  0  0  0  0  0  0  0  0  0  0  0
   -8.2950    1.3780    0.7910 N   0  0  0  0  0  0  0  0  0  0  0  0
   -7.6170    1.1960    2.0400 C   0  0  0  0  0  0  0  0  0  0  0  0
   -6.3910    0.3810    1.9500 C   0  0  0  0  0  0  0  0  0  0  0  0
   -5.1390    0.8000    1.7250 N   0  0  0  0  0  0  0  0  0  0  0  0
   -4.3030   -0.2780    1.7190 C   0  0  0  0  0  0  0  0  0  0  0  0
   -2.5450   -0.2540    1.4830 S   0  0  0  0  0  0  0  0  0  0  0  0
   -2.0360   -0.4070   -0.2100 C   0  0  0  0  0  0  0  0  0  0  0  0
   -0.6970   -0.3560   -0.4210 N   0  0  0  0  0  0  0  0  0  0  0  0
   -0.2290   -0.4670   -1.6690 C   0  0  0  0  0  0  0  0  0  0  0  0
    1.1420   -0.4150   -1.8820 C   0  0  0  0  0  0  0  0  0  0  0  0
    2.1750   -0.2510   -0.9020 C   0  0  0  0  0  0  0  0  0  0  0  0
    2.1360   -0.0950    0.5290 C   0  0  0  0  0  0  0  0  0  0  0  0
    3.3990   -0.2390   -1.4090 N   0  0  0  0  0  0  0  0  0  0  0  0
    4.5640   -0.0830   -0.5660 C   0  0  0  0  0  0  0  0  0  0  0  0
    5.0610   -1.1840   -0.1120 C   0  0  0  0  0  0  0  0  0  0  0  0
    6.2130   -1.4730    0.7400 C   0  0  2  0  0  0  0  0  0  0  0  0
    6.9280   -2.6840    0.0080 C   0  0  0  0  0  0  0  0  0  0  0  0
    5.8790   -2.0770    2.0790 C   0  0  0  0  0  0  0  0  0  0  0  0
    4.9960    1.2390   -0.1910 C   0  0  0  0  0  0  0  0  0  0  0  0
    4.5930    2.2620   -1.0600 C   0  0  0  0  0  0  0  0  0  0  0  0
    4.8890    3.5620   -0.7650 C   0  0  0  0  0  0  0  0  0  0  0  0
    5.5770    3.9070    0.3700 C   0  0  0  0  0  0  0  0  0  0  0  0
    5.9900    2.9360    1.2510 C   0  0  0  0  0  0  0  0  0  0  0  0
    5.6740    1.6020    0.9290 C   0  0  0  0  0  0  0  0  0  0  0  0
    1.4970   -0.5450   -3.2480 C   0  0  0  0  0  0  0  0  0  0  0  0
    2.7540   -0.5040   -3.4980 O   0  0  0  0  0  0  0  0  0  0  0  0
    0.6500   -0.7030   -4.2570 N   0  0  0  0  0  0  0  0  0  0  0  0
   -0.6620   -0.7520   -4.0470 C   0  0  0  0  0  0  0  0  0  0  0  0
   -1.4640   -0.9000   -4.9950 O   0  0  0  0  0  0  0  0  0  0  0  0
   -1.1790   -0.6410   -2.7820 C   0  0  0  0  0  0  0  0  0  0  0  0
   -2.5340   -0.6900   -2.5470 C   0  0  0  0  0  0  0  0  0  0  0  0
   -2.9430   -0.5680   -1.2280 C   0  0  0  0  0  0  0  0  0  0  0  0
   -4.6570   -0.6290   -0.8380 Cl  0  0  0  0  0  0  0  0  0  0  0  0
   -5.0980   -1.3400    1.9450 N   0  0  0  0  0  0  0  0  0  0  0  0
   -6.3620   -0.9600    2.0860 N   0  0  0  0  0  0  0  0  0  0  0  0
   -7.5130   -1.7970    2.3400 C   0  0  0  0  0  0  0  0  0  0  0  0
  1  2  1  0
  2  3  1  0
  3  4  1  0
  4  5  2  0
  4 36  1  0
  5  6  1  0
  6  7  1  0
  6 35  2  0
  7  8  1  0
  8  9  1  0
  8 33  2  0
  9 10  1  0
 10 11  2  0
 10 31  1  0
 11 12  1  0
 11 26  1  0
 12 13  1  0
 12 14  2  3
 14 15  1  0
 15 16  2  3
 15 20  1  0
 16 17  1  0
 17 18  1  6
 17 19  1  0
 20 21  2  0
 20 25  1  0
 21 22  1  0
 22 23  2  0
 23 24  1  0
 24 25  2  0
 26 27  2  0
 26 28  1  0
 28 29  1  0
 29 30  2  0
 29 31  1  0
 31 32  2  0
 32 33  1  0
 33 34  1  0
 35 36  1  0
 36 37  1  0
M  CHG  1   2   1
M  END
