
     RDKit          3D

 36 39  0  0  0  0  0  0  0  0999 V2000
   -6.0390    1.2520    2.5460 N   0  0  0  0  0  0  0  0  0  0  0  0
   -4.7850    1.8260    2.0930 C   0  0  0  0  0  0  0  0  0  0  0  0
   -4.1460    2.6300    2.8560 N   0  0  0  0  0  0  0  0  0  0  0  0
   -4.2600    1.4860    0.7770 C   0  0  0  0  0  0  0  0  0  0  0  0
   -5.0290    0.6040    0.0130 C   0  0  0  0  0  0  0  0  0  0  0  0
   -4.5890    0.2540   -1.2170 C   0  0  0  0  0  0  0  0  0  0  0  0
   -3.3960    0.7530   -1.7280 C   0  0  0  0  0  0  0  0  0  0  0  0
   -2.6090    1.6230   -1.0110 C   0  0  0  0  0  0  0  0  0  0  0  0
   -1.3820    2.1450   -1.5770 C   0  0  0  0  0  0  0  0  0  0  0  0
   -0.0830    1.4890   -1.2990 C   0  0  2  0  0  0  0  0  0  0  0  0
    0.9010    2.3070   -2.0440 N   0  0  0  0  0  0  0  0  0  0  0  0
    2.0660    3.0000   -1.0320 S   0  0  2  0  0  0  0  0  0  0  0  0
    1.4360    3.8080    0.0810 O   0  0  0  0  0  0  0  0  0  0  0  0
    3.0920    3.8080   -1.7700 O   0  0  0  0  0  0  0  0  0  0  0  0
    2.9640    1.7000   -0.2380 C   0  0  0  0  0  0  0  0  0  0  0  0
    2.6580    1.1970    0.9810 C   0  0  0  0  0  0  0  0  0  0  0  0
    3.4180    0.1690    1.5210 C   0  0  0  0  0  0  0  0  0  0  0  0
    4.4980   -0.3840    0.8650 C   0  0  0  0  0  0  0  0  0  0  0  0
    5.2340   -1.4090    1.4310 C   0  0  0  0  0  0  0  0  0  0  0  0
    6.3090   -1.9520    0.7660 C   0  0  0  0  0  0  0  0  0  0  0  0
    6.6220   -1.4420   -0.4740 C   0  0  0  0  0  0  0  0  0  0  0  0
    5.8890   -0.4220   -1.0380 C   0  0  0  0  0  0  0  0  0  0  0  0
    4.7980    0.1370   -0.3740 C   0  0  0  0  0  0  0  0  0  0  0  0
    4.0550    1.1470   -0.9090 C   0  0  0  0  0  0  0  0  0  0  0  0
    0.0920    0.1050   -1.7660 C   0  0  0  0  0  0  0  0  0  0  0  0
    0.6460   -0.0680   -2.9120 O   0  0  0  0  0  0  0  0  0  0  0  0
   -0.2780   -1.0690   -1.0820 N   0  0  0  0  0  0  0  0  0  0  0  0
   -0.0220   -2.3560   -1.6650 C   0  0  0  0  0  0  0  0  0  0  0  0
    0.6640   -3.2900   -0.6890 C   0  0  0  0  0  0  0  0  0  0  0  0
   -0.0750   -3.2920    0.6250 C   0  0  0  0  0  0  0  0  0  0  0  0
   -0.0140   -1.8730    1.1910 C   0  0  0  0  0  0  0  0  0  0  0  0
   -0.8740   -1.0230    0.2340 C   0  0  2  0  0  0  0  0  0  0  0  0
   -2.2000   -1.6840    0.2540 C   0  0  0  0  0  0  0  0  0  0  0  0
   -2.7000   -2.2580   -0.7170 O   0  0  0  0  0  0  0  0  0  0  0  0
   -2.8950   -1.6270    1.4780 O   0  0  0  0  0  0  0  0  0  0  0  0
   -3.0860    1.9690    0.2590 C   0  0  0  0  0  0  0  0  0  0  0  0
  1  2  1  0
  2  3  2  0
  2  4  1  0
  4  5  2  0
  4 36  1  0
  5  6  1  0
  6  7  2  0
  7  8  1  0
  8  9  1  0
  8 36  2  0
 10  9  1  6
 10 11  1  0
 10 25  1  0
 12 11  1  6
 12 13  2  0
 12 14  2  0
 12 15  1  0
 15 16  2  0
 15 24  1  0
 16 17  1  0
 17 18  2  0
 18 19  1  0
 18 23  1  0
 19 20  2  0
 20 21  1  0
 21 22  2  0
 22 23  1  0
 23 24  2  0
 25 26  2  0
 25 27  1  0
 27 28  1  0
 27 32  1  0
 28 29  1  0
 29 30  1  0
 30 31  1  0
 31 32  1  0
 32 33  1  6
 33 34  2  0
 33 35  1  0
M  CHG  1   3   1
M  END
