
     RDKit          3D

 36 40  0  0  0  0  0  0  0  0999 V2000
   -7.2010    1.7830   -2.7550 C   0  0  0  0  0  0  0  0  0  0  0  0
   -7.6460    1.3350   -1.4550 N   0  0  0  0  0  0  0  0  0  0  0  0
   -6.8470    0.5510   -0.5720 C   0  0  0  0  0  0  0  0  0  0  0  0
   -6.8530   -0.8320   -0.6500 C   0  0  0  0  0  0  0  0  0  0  0  0
   -7.6800   -1.5310   -1.6710 C   0  0  0  0  0  0  0  0  0  0  0  0
   -6.1030   -1.5960    0.2260 C   0  0  0  0  0  0  0  0  0  0  0  0
   -5.3040   -1.0060    1.2290 C   0  0  0  0  0  0  0  0  0  0  0  0
   -4.5590   -1.9140    2.1380 C   0  0  0  0  0  0  0  0  0  0  0  0
   -3.3940   -2.5140    1.5980 N   0  0  0  0  0  0  0  0  0  0  0  0
   -2.1590   -1.8810    1.4640 C   0  0  0  0  0  0  0  0  0  0  0  0
   -1.8930   -0.6610    2.0350 C   0  0  0  0  0  0  0  0  0  0  0  0
   -0.6560   -0.0670    1.9210 C   0  0  0  0  0  0  0  0  0  0  0  0
    0.3690   -0.6580    1.2370 C   0  0  0  0  0  0  0  0  0  0  0  0
    1.6160   -0.0330    1.2130 N   0  0  0  0  0  0  0  0  0  0  0  0
    2.7920   -0.4270    0.5190 C   0  0  0  0  0  0  0  0  0  0  0  0
    2.7670   -1.4190   -0.2120 O   0  0  0  0  0  0  0  0  0  0  0  0
    4.0090    0.2830    0.6370 N   0  0  0  0  0  0  0  0  0  0  0  0
    5.1860   -0.1710   -0.1010 C   0  0  2  0  0  0  0  0  0  0  0  0
    6.1460   -0.8800    0.7370 C   0  0  0  0  0  0  0  0  0  0  0  0
    7.5480   -0.7560    0.3580 C   0  0  0  0  0  0  0  0  0  0  0  0
    8.6690   -1.4730    0.7120 N   0  0  0  0  0  0  0  0  0  0  0  0
    9.7540   -0.9270    0.1660 C   0  0  0  0  0  0  0  0  0  0  0  0
    9.3330    0.1250   -0.5310 N   0  0  0  0  0  0  0  0  0  0  0  0
    7.9950    0.2630   -0.4410 C   0  0  0  0  0  0  0  0  0  0  0  0
    7.0390    1.1690   -1.0530 C   0  0  0  0  0  0  0  0  0  0  0  0
    7.1850    2.2790   -1.7980 N   0  0  0  0  0  0  0  0  0  0  0  0
    5.9890    2.8010   -2.0540 N   0  0  0  0  0  0  0  0  0  0  0  0
    5.7250    4.0270   -2.8200 C   0  0  0  0  0  0  0  0  0  0  0  0
    5.0530    2.0400   -1.4830 C   0  0  0  0  0  0  0  0  0  0  0  0
    5.7090    0.9860   -0.8350 C   0  0  0  0  0  0  0  0  0  0  0  0
    0.1260   -1.8700    0.6610 C   0  0  0  0  0  0  0  0  0  0  0  0
   -1.1340   -2.4860    0.7710 C   0  0  0  0  0  0  0  0  0  0  0  0
   -5.3110    0.3580    1.2860 C   0  0  0  0  0  0  0  0  0  0  0  0
   -6.0700    1.1250    0.4000 C   0  0  0  0  0  0  0  0  0  0  0  0
   -6.0270    2.5680    0.5800 C   0  0  0  0  0  0  0  0  0  0  0  0
   -5.9940    3.7050    0.7390 N   0  0  0  0  0  0  0  0  0  0  0  0
  1  2  1  0
  2  3  1  0
  3  4  2  0
  3 34  1  0
  4  5  1  0
  4  6  1  0
  6  7  2  0
  7  8  1  0
  7 33  1  0
  8  9  1  0
  9 10  1  0
 10 11  2  0
 10 32  1  0
 11 12  1  0
 12 13  2  0
 13 14  1  0
 13 31  1  0
 14 15  1  0
 15 16  2  0
 15 17  1  0
 18 17  1  1
 18 19  1  0
 18 30  1  0
 19 20  1  0
 20 21  1  0
 20 24  2  0
 21 22  1  0
 22 23  2  0
 23 24  1  0
 24 25  1  0
 25 26  2  0
 25 30  1  0
 26 27  1  0
 27 28  1  0
 27 29  1  0
 29 30  2  0
 31 32  2  0
 33 34  2  0
 34 35  1  0
 35 36  3  0
M  END
