
     RDKit          3D

 36 40  0  0  0  0  0  0  0  0999 V2000
   -2.6600    5.6240   -2.5730 C   0  0  0  0  0  0  0  0  0  0  0  0
   -3.1320    4.7800   -1.4170 C   0  0  0  0  0  0  0  0  0  0  0  0
   -2.5960    3.3600   -1.5350 C   0  0  0  0  0  0  0  0  0  0  0  0
   -1.1780    3.2630   -1.5240 C   0  0  0  0  0  0  0  0  0  0  0  0
   -0.0290    3.2000   -1.5030 N   0  0  0  0  0  0  0  0  0  0  0  0
   -3.4560    2.4170   -1.6680 C   0  0  0  0  0  0  0  0  0  0  0  0
   -3.2900    0.9810   -1.8040 C   0  0  0  0  0  0  0  0  0  0  0  0
   -3.9190    0.3010   -2.8750 C   0  0  0  0  0  0  0  0  0  0  0  0
   -4.7340    0.9100   -3.8840 N   0  0  0  0  0  0  0  0  0  0  0  0
   -3.5910   -0.9660   -2.7160 N   0  0  0  0  0  0  0  0  0  0  0  0
   -2.7970   -1.1640   -1.6200 C   0  0  0  0  0  0  0  0  0  0  0  0
   -2.3900   -2.5010   -1.2400 C   0  0  0  0  0  0  0  0  0  0  0  0
   -2.2020   -2.8830    0.0720 C   0  0  0  0  0  0  0  0  0  0  0  0
   -1.8000   -4.1610    0.3550 C   0  0  0  0  0  0  0  0  0  0  0  0
   -1.5790   -5.0700   -0.6360 N   0  0  0  0  0  0  0  0  0  0  0  0
   -1.7600   -4.6970   -1.8950 N   0  0  0  0  0  0  0  0  0  0  0  0
   -2.1540   -3.4540   -2.2140 C   0  0  0  0  0  0  0  0  0  0  0  0
   -2.2950   -3.1710   -3.6790 C   0  0  0  0  0  0  0  0  0  0  0  0
   -2.6310    0.0520   -1.0910 N   0  0  0  0  0  0  0  0  0  0  0  0
   -1.7000    0.3900   -0.0590 C   0  0  0  0  0  0  0  0  0  0  0  0
   -1.8000    1.3370    0.7270 O   0  0  0  0  0  0  0  0  0  0  0  0
   -0.5520   -0.4280    0.0470 N   0  0  0  0  0  0  0  0  0  0  0  0
    0.4950   -0.3210    0.9990 C   0  0  0  0  0  0  0  0  0  0  0  0
    0.3590    0.2530    2.2470 C   0  0  0  0  0  0  0  0  0  0  0  0
    1.4200    0.3220    3.1360 C   0  0  0  0  0  0  0  0  0  0  0  0
    2.6410   -0.1900    2.7830 C   0  0  0  0  0  0  0  0  0  0  0  0
    3.8460   -0.2410    3.5000 C   0  0  0  0  0  0  0  0  0  0  0  0
    4.2940    0.1510    4.7450 C   0  0  0  0  0  0  0  0  0  0  0  0
    5.6190   -0.1020    5.0700 C   0  0  0  0  0  0  0  0  0  0  0  0
    6.4680   -0.7370    4.1600 C   0  0  0  0  0  0  0  0  0  0  0  0
    6.0550   -1.1290    2.9520 N   0  0  0  0  0  0  0  0  0  0  0  0
    6.9770   -1.7920    2.0270 C   0  0  0  0  0  0  0  0  0  0  0  0
    4.7820   -0.9100    2.5800 C   0  0  0  0  0  0  0  0  0  0  0  0
    4.1070   -1.1860    1.4590 N   0  0  0  0  0  0  0  0  0  0  0  0
    2.8160   -0.7690    1.5420 C   0  0  0  0  0  0  0  0  0  0  0  0
    1.7530   -0.8250    0.6750 C   0  0  0  0  0  0  0  0  0  0  0  0
  1  2  1  0
  2  3  1  0
  3  4  1  0
  3  6  2  3
  4  5  3  0
  6  7  1  0
  7  8  2  0
  7 19  1  0
  8  9  1  0
  8 10  1  0
 10 11  2  0
 11 12  1  0
 11 19  1  0
 12 13  2  0
 12 17  1  0
 13 14  1  0
 14 15  2  0
 15 16  1  0
 16 17  2  0
 17 18  1  0
 19 20  1  0
 20 21  2  0
 20 22  1  0
 22 23  1  0
 23 24  2  0
 23 36  1  0
 24 25  1  0
 25 26  2  0
 26 27  1  0
 26 35  1  0
 27 28  2  0
 27 33  1  0
 28 29  1  0
 29 30  2  0
 30 31  1  0
 31 32  1  0
 31 33  1  0
 33 34  2  0
 34 35  1  0
 35 36  2  0
M  END
