
     RDKit          3D

 31 32  0  0  0  0  0  0  0  0999 V2000
   -2.2180    0.9000    0.8890 O   0  0  0  0  0  0  0  0  0  0  0  0
   -2.1570   -0.0630    0.0890 C   0  0  0  0  0  0  0  0  0  0  0  0
   -3.2730   -0.3750   -0.7250 N   0  0  0  0  0  0  0  0  0  0  0  0
   -4.5050    0.3790   -0.6790 C   0  0  0  0  0  0  0  0  0  0  0  0
   -5.6040   -0.2470   -0.3570 C   0  0  0  0  0  0  0  0  0  0  0  0
   -6.9090    0.4040   -0.2740 C   0  0  0  0  0  0  0  0  0  0  0  0
   -7.7960   -0.1760   -1.1750 F   0  0  0  0  0  0  0  0  0  0  0  0
   -4.5130    1.8210   -0.9900 C   0  0  1  0  0  0  0  0  0  0  0  0
   -3.2540    2.2450   -1.4090 F   0  0  0  0  0  0  0  0  0  0  0  0
   -5.3950    2.0930   -2.0160 F   0  0  0  0  0  0  0  0  0  0  0  0
   -4.8920    2.5140    0.1230 F   0  0  0  0  0  0  0  0  0  0  0  0
   -0.9140   -0.8610    0.0110 C   0  0  0  0  0  0  0  0  0  0  0  0
   -0.8180   -1.8260   -0.7730 O   0  0  0  0  0  0  0  0  0  0  0  0
    0.2080   -0.5570    0.8220 N   0  0  0  0  0  0  0  0  0  0  0  0
    1.4480   -1.3250    0.7680 C   0  0  2  0  0  0  0  0  0  0  0  0
    1.7350   -1.9550    2.0700 C   0  0  0  0  0  0  0  0  0  0  0  0
    1.8750   -3.2540    2.1410 C   0  0  0  0  0  0  0  0  0  0  0  0
    2.1400   -3.9230    3.2960 F   0  0  0  0  0  0  0  0  0  0  0  0
    1.7470   -3.9820    0.9850 F   0  0  0  0  0  0  0  0  0  0  0  0
    1.8690   -1.1530    3.3010 C   0  0  1  0  0  0  0  0  0  0  0  0
    2.2580   -1.9630    4.3780 F   0  0  0  0  0  0  0  0  0  0  0  0
    2.8180   -0.1670    3.1880 F   0  0  0  0  0  0  0  0  0  0  0  0
    2.5730   -0.4590    0.3050 C   0  0  0  0  0  0  0  0  0  0  0  0
    3.8460   -0.7340    0.7420 C   0  0  0  0  0  0  0  0  0  0  0  0
    4.8650    0.0970    0.3140 C   0  0  0  0  0  0  0  0  0  0  0  0
    4.6470    1.1880   -0.5360 C   0  0  0  0  0  0  0  0  0  0  0  0
    3.3620    1.4460   -0.9640 C   0  0  0  0  0  0  0  0  0  0  0  0
    2.3380    0.6250   -0.5420 C   0  0  0  0  0  0  0  0  0  0  0  0
    3.4340    2.5740   -1.7870 O   0  0  0  0  0  0  0  0  0  0  0  0
    4.8120    2.7860   -2.1320 C   0  0  0  0  0  0  0  0  0  0  0  0
    5.5060    2.1380   -1.0820 O   0  0  0  0  0  0  0  0  0  0  0  0
  1  2  2  0
  2  3  1  0
  2 12  1  0
  3  4  1  0
  4  5  2  3
  4  8  1  0
  5  6  1  0
  6  7  1  0
  8  9  1  6
  8 10  1  0
  8 11  1  0
 12 13  2  0
 12 14  1  0
 15 14  1  1
 15 16  1  0
 15 23  1  0
 16 17  2  3
 16 20  1  0
 17 18  1  0
 17 19  1  0
 20 21  1  1
 20 22  1  0
 23 24  2  0
 23 28  1  0
 24 25  1  0
 25 26  2  0
 26 27  1  0
 26 31  1  0
 27 28  2  0
 27 29  1  0
 29 30  1  0
 30 31  1  0
M  END
