
     RDKit          3D

 32 36  0  0  0  0  0  0  0  0999 V2000
    7.4960    0.0060    0.5820 C   0  0  0  0  0  0  0  0  0  0  0  0
    6.3100   -0.3270   -0.2750 C   0  0  2  0  0  0  0  0  0  0  0  0
    6.5850   -1.5000   -1.1990 C   0  0  0  0  0  0  0  0  0  0  0  0
    5.9680    0.8610   -1.1590 C   0  0  0  0  0  0  0  0  0  0  0  0
    4.5670    0.4670   -1.6050 C   0  0  0  0  0  0  0  0  0  0  0  0
    3.9250    0.1180   -0.3050 C   0  0  1  0  0  0  0  0  0  0  0  0
    2.8390   -0.8170   -0.4100 N   0  0  1  0  0  0  0  0  0  0  0  0
    2.3190   -1.0730    0.8970 C   0  0  0  0  0  0  0  0  0  0  0  0
    1.4060    0.0160    1.4110 C   0  0  0  0  0  0  0  0  0  0  0  0
    0.4000    0.2450    0.4030 N   0  0  0  0  0  0  0  0  0  0  0  0
   -0.9960    0.1710    0.6270 C   0  0  0  0  0  0  0  0  0  0  0  0
   -1.5630   -0.1170    1.8340 C   0  0  0  0  0  0  0  0  0  0  0  0
   -2.9330   -0.1700    1.9710 C   0  0  0  0  0  0  0  0  0  0  0  0
   -3.4880   -0.4620    3.1940 C   0  0  0  0  0  0  0  0  0  0  0  0
   -4.8540   -0.5150    3.3290 C   0  0  0  0  0  0  0  0  0  0  0  0
   -5.6790   -0.2760    2.2350 C   0  0  0  0  0  0  0  0  0  0  0  0
   -7.4060   -0.3670    2.5060 Cl  0  0  0  0  0  0  0  0  0  0  0  0
   -5.1380    0.0170    1.0050 C   0  0  0  0  0  0  0  0  0  0  0  0
   -6.0020    0.2650   -0.1320 C   0  0  0  0  0  0  0  0  0  0  0  0
   -6.4030   -0.7770   -0.9530 C   0  0  0  0  0  0  0  0  0  0  0  0
   -5.9410   -2.0840   -0.6420 N   0  0  0  0  0  0  0  0  0  0  0  0
   -7.2270   -0.5820   -2.0470 C   0  0  0  0  0  0  0  0  0  0  0  0
   -7.6630    0.6800   -2.3330 C   0  0  0  0  0  0  0  0  0  0  0  0
   -7.2890    1.7480   -1.5440 C   0  0  0  0  0  0  0  0  0  0  0  0
   -6.4680    1.5200   -0.4620 C   0  0  0  0  0  0  0  0  0  0  0  0
   -6.1010    2.5670    0.3130 F   0  0  0  0  0  0  0  0  0  0  0  0
   -3.7720    0.0680    0.8770 C   0  0  0  0  0  0  0  0  0  0  0  0
   -3.1450    0.3440   -0.2730 N   0  0  0  0  0  0  0  0  0  0  0  0
   -1.8340    0.3950   -0.4000 N   0  0  0  0  0  0  0  0  0  0  0  0
    0.8750    0.5730   -0.9240 C   0  0  0  0  0  0  0  0  0  0  0  0
    1.8410   -0.4650   -1.3640 C   0  0  0  0  0  0  0  0  0  0  0  0
    5.0460   -0.5110    0.5060 C   0  0  0  0  0  0  0  0  0  0  0  0
  2  1  1  1
  2  3  1  0
  2  4  1  0
  2 32  1  0
  4  5  1  0
  6  5  1  6
  6  7  1  0
  6 32  1  0
  7  8  1  1
  7 31  1  0
  8  9  1  0
  9 10  1  0
 10 11  1  0
 10 30  1  0
 11 12  2  0
 11 29  1  0
 12 13  1  0
 13 14  2  0
 13 27  1  0
 14 15  1  0
 15 16  2  0
 16 17  1  0
 16 18  1  0
 18 19  1  0
 18 27  2  0
 19 20  2  0
 19 25  1  0
 20 21  1  0
 20 22  1  0
 22 23  2  0
 23 24  1  0
 24 25  2  0
 25 26  1  0
 27 28  1  0
 28 29  2  0
 30 31  1  0
M  CHG  2   7   1  21   1
M  END
