
     RDKit          3D

 31 32  0  0  0  0  0  0  0  0999 V2000
    1.1130   -1.4020    1.4570 O   0  0  0  0  0  0  0  0  0  0  0  0
    1.7850   -0.4740    0.9560 C   0  0  0  0  0  0  0  0  0  0  0  0
    1.1690    0.7310    0.7170 O   0  0  0  0  0  0  0  0  0  0  0  0
   -0.2110    0.9620    1.0210 C   0  0  0  0  0  0  0  0  0  0  0  0
   -1.0590    0.0200    0.2650 C   0  0  0  0  0  0  0  0  0  0  0  0
   -0.5530   -0.8280   -0.5100 O   0  0  0  0  0  0  0  0  0  0  0  0
   -2.4630    0.0600    0.4050 N   0  0  0  0  0  0  0  0  0  0  0  0
   -3.0420    1.0400    1.3010 C   0  0  0  0  0  0  0  0  0  0  0  0
   -4.5500    1.0270    1.0120 C   0  0  0  0  0  0  0  0  0  0  0  0
   -4.6800    1.1560   -0.4930 C   0  0  0  0  0  0  0  0  0  0  0  0
   -4.3600   -0.1300   -1.1510 C   0  0  2  0  0  0  0  0  0  0  0  0
   -5.4670   -0.9950   -1.4110 N   0  0  0  0  0  0  0  0  0  0  0  0
   -6.5520   -0.9220   -0.5090 C   0  0  0  0  0  0  0  0  0  0  0  0
   -7.7190   -1.3710   -1.1720 O   0  0  0  0  0  0  0  0  0  0  0  0
   -3.3010   -0.8580   -0.3300 C   0  0  0  0  0  0  0  0  0  0  0  0
    3.1990   -0.7170    0.6470 C   0  0  0  0  0  0  0  0  0  0  0  0
    3.8680   -1.8360    0.8420 C   0  0  0  0  0  0  0  0  0  0  0  0
    3.2590   -2.9770    1.3980 O   0  0  0  0  0  0  0  0  0  0  0  0
    5.2830   -1.7060    0.4060 C   0  0  2  0  0  0  0  0  0  0  0  0
    5.5860   -2.6130   -0.5930 F   0  0  0  0  0  0  0  0  0  0  0  0
    6.0660   -1.8690    1.5250 F   0  0  0  0  0  0  0  0  0  0  0  0
    5.3340   -0.3090   -0.0800 C   0  0  0  0  0  0  0  0  0  0  0  0
    6.5390    0.3160   -0.6220 C   0  0  0  0  0  0  0  0  0  0  0  0
    7.6840   -0.3160   -0.7210 C   0  0  0  0  0  0  0  0  0  0  0  0
    7.8820   -1.6000   -0.3380 F   0  0  0  0  0  0  0  0  0  0  0  0
    8.7650    0.3220   -1.2340 F   0  0  0  0  0  0  0  0  0  0  0  0
    6.4440    1.7210   -1.0740 C   0  0  1  0  0  0  0  0  0  0  0  0
    7.6650    2.1510   -1.5540 F   0  0  0  0  0  0  0  0  0  0  0  0
    5.4930    1.7770   -2.1010 F   0  0  0  0  0  0  0  0  0  0  0  0
    6.0850    2.5640   -0.0450 F   0  0  0  0  0  0  0  0  0  0  0  0
    4.1350    0.2370    0.0660 C   0  0  0  0  0  0  0  0  0  0  0  0
  1  2  2  0
  2  3  1  0
  2 16  1  0
  3  4  1  0
  4  5  1  0
  5  6  2  0
  5  7  1  0
  7  8  1  0
  7 15  1  0
  8  9  1  0
  9 10  1  0
 10 11  1  0
 11 12  1  1
 11 15  1  0
 12 13  1  0
 13 14  1  0
 16 17  2  0
 16 31  1  0
 17 18  1  0
 17 19  1  0
 19 20  1  6
 19 21  1  0
 19 22  1  0
 22 23  1  0
 22 31  2  0
 23 24  2  3
 23 27  1  0
 24 25  1  0
 24 26  1  0
 27 28  1  6
 27 29  1  0
 27 30  1  0
M  CHG  2  12   1  14  -1
M  END
