
     RDKit          3D

 31 35  0  0  0  0  0  0  0  0999 V2000
   -0.2430    6.6360    0.1530 F   0  0  0  0  0  0  0  0  0  0  0  0
    0.4680    5.4900    0.2760 C   0  0  0  0  0  0  0  0  0  0  0  0
    0.0250    4.3070   -0.3050 C   0  0  0  0  0  0  0  0  0  0  0  0
    0.7450    3.1280   -0.1860 C   0  0  0  0  0  0  0  0  0  0  0  0
    1.9280    3.1190    0.5230 C   0  0  0  0  0  0  0  0  0  0  0  0
    2.3980    4.2730    1.1110 C   0  0  0  0  0  0  0  0  0  0  0  0
    1.6520    5.4500    0.9760 C   0  0  0  0  0  0  0  0  0  0  0  0
    2.2240    6.9320    1.7130 Cl  0  0  0  0  0  0  0  0  0  0  0  0
    2.7560    1.9690    0.7130 N   0  0  0  0  0  0  0  0  0  0  0  0
    2.6810    0.6810    0.1080 C   0  0  0  0  0  0  0  0  0  0  0  0
    3.6060   -0.1490    0.4460 N   0  0  0  0  0  0  0  0  0  0  0  0
    3.7290   -1.4560   -0.0190 C   0  0  0  0  0  0  0  0  0  0  0  0
    3.7690   -2.5180    0.8540 C   0  0  0  0  0  0  0  0  0  0  0  0
    3.8930   -3.8230    0.3710 C   0  0  0  0  0  0  0  0  0  0  0  0
    3.9770   -4.0530   -0.9860 C   0  0  0  0  0  0  0  0  0  0  0  0
    3.9360   -3.0050   -1.8170 N   0  0  0  0  0  0  0  0  0  0  0  0
    3.8150   -1.7210   -1.3670 C   0  0  0  0  0  0  0  0  0  0  0  0
    1.6280    0.2670   -0.8570 C   0  0  0  0  0  0  0  0  0  0  0  0
    0.3290    0.7480   -0.4270 N   0  0  0  0  0  0  0  0  0  0  0  0
   -0.6620   -0.2510   -0.5460 C   0  0  0  0  0  0  0  0  0  0  0  0
   -2.0450    0.0830   -0.1290 C   0  0  2  0  0  0  0  0  0  0  0  0
   -2.0260    0.4490    1.2670 N   0  0  0  0  0  0  0  0  0  0  0  0
   -3.2950    0.3220    1.9260 C   0  0  0  0  0  0  0  0  0  0  0  0
   -3.5730   -1.1700    2.0790 C   0  0  0  0  0  0  0  0  0  0  0  0
   -3.6340   -1.7110    0.6960 C   0  0  0  0  0  0  0  0  0  0  0  0
   -4.4200   -2.8300    0.4090 C   0  0  0  0  0  0  0  0  0  0  0  0
   -4.4990   -3.3570   -0.8630 C   0  0  0  0  0  0  0  0  0  0  0  0
   -3.7800   -2.7630   -1.8930 C   0  0  0  0  0  0  0  0  0  0  0  0
   -3.0170   -1.6660   -1.5860 C   0  0  0  0  0  0  0  0  0  0  0  0
   -2.9290   -1.1270   -0.3090 C   0  0  0  0  0  0  0  0  0  0  0  0
    0.0150    2.0480   -0.9110 C   0  0  0  0  0  0  0  0  0  0  0  0
  1  2  1  0
  2  3  2  0
  2  7  1  0
  3  4  1  0
  4  5  2  0
  4 31  1  0
  5  6  1  0
  5  9  1  0
  6  7  2  0
  7  8  1  0
  9 10  1  0
 10 11  2  3
 10 18  1  0
 11 12  1  0
 12 13  2  0
 12 17  1  0
 13 14  1  0
 14 15  2  0
 15 16  1  0
 16 17  2  0
 18 19  1  0
 19 20  1  0
 19 31  1  0
 21 20  1  1
 21 22  1  0
 21 30  1  0
 22 23  1  0
 23 24  1  0
 24 25  1  0
 25 26  2  0
 25 30  1  0
 26 27  1  0
 27 28  2  0
 28 29  1  0
 29 30  2  0
M  CHG  2  16   1  22   1
M  END
