
     RDKit          3D

 48 53  0  0  0  0  0  0  0  0999 V2000
    0.6260   -2.3060   -0.8830 C   0  0  0  0  0  0  0  0  0  0  0  0
    0.9470   -1.0900    0.0900 C   0  0  0  0  0  0  0  0  0  0  0  0
    2.1540   -1.0760    0.3290 C   0  0  0  0  0  0  0  0  0  0  0  0
    3.4770   -1.1130    0.5490 C   0  0  0  0  0  0  0  0  0  0  0  0
    4.2230   -2.0690   -0.1260 O   0  0  0  0  0  0  0  0  0  0  0  0
    4.3680   -0.4050    1.3800 N   0  0  0  0  0  0  0  0  0  0  0  0
    5.7370   -0.7520    1.4840 C   0  0  0  0  0  0  0  0  0  0  0  0
    6.7650   -0.4720    0.5580 C   0  0  0  0  0  0  0  0  0  0  0  0
    7.8590   -0.8670    0.5750 O   0  0  0  0  0  0  0  0  0  0  0  0
    6.4960    0.4750   -0.6540 N   0  0  0  0  0  0  0  0  0  0  0  0
    7.8110    0.5130   -1.3330 C   0  0  0  0  0  0  0  0  0  0  0  0
    8.8750    1.0840   -0.4350 C   0  0  0  0  0  0  0  0  0  0  0  0
    8.6730    2.3290    0.0820 C   0  0  0  0  0  0  0  0  0  0  0  0
    9.7260    3.0450    0.6610 C   0  0  0  0  0  0  0  0  0  0  0  0
   11.0100    2.4160    0.7030 C   0  0  0  0  0  0  0  0  0  0  0  0
   11.1260    1.2040    0.2070 C   0  0  0  0  0  0  0  0  0  0  0  0
   10.0940    0.4660   -0.3950 C   0  0  0  0  0  0  0  0  0  0  0  0
   10.4110   -0.9030   -0.7940 C   0  0  0  0  0  0  0  0  0  0  0  0
   -0.1390   -0.1000    0.1110 C   0  0  0  0  0  0  0  0  0  0  0  0
   -1.5630   -0.3930   -0.0040 C   0  0  0  0  0  0  0  0  0  0  0  0
   -2.2440   -1.5840    0.4620 C   0  0  2  0  0  0  0  0  0  0  0  0
   -3.7040   -1.4000    0.8540 C   0  0  0  0  0  0  0  0  0  0  0  0
   -4.1340   -2.3740    1.6250 O   0  0  0  0  0  0  0  0  0  0  0  0
   -4.6150   -0.4630    0.5420 N   0  0  0  0  0  0  0  0  0  0  0  0
   -5.9900   -0.1500    0.7820 C   0  0  1  0  0  0  0  0  0  0  0  0
   -5.9760    1.3890    1.0600 C   0  0  0  0  0  0  0  0  0  0  0  0
   -7.3290    1.8270    0.5530 C   0  0  1  0  0  0  0  0  0  0  0  0
   -7.2340    3.3820    0.4030 C   0  0  0  0  0  0  0  0  0  0  0  0
   -6.5870    3.8980    1.4610 C   0  0  0  0  0  0  0  0  0  0  0  0
   -5.8870    4.4410    2.5600 N   0  0  0  0  0  0  0  0  0  0  0  0
   -7.1490    1.1880   -0.8540 C   0  0  0  0  0  0  0  0  0  0  0  0
   -6.8160   -0.2110   -0.5190 C   0  0  1  0  0  0  0  0  0  0  0  0
   -6.0040   -0.9090   -1.5850 C   0  0  0  0  0  0  0  0  0  0  0  0
   -6.6060   -2.3060   -1.6900 C   0  0  0  0  0  0  0  0  0  0  0  0
   -7.4480   -2.4600   -0.4400 C   0  0  0  0  0  0  0  0  0  0  0  0
   -8.0330   -1.0650   -0.3040 C   0  0  0  0  0  0  0  0  0  0  0  0
   -1.5540   -1.8290    1.9030 C   0  0  0  0  0  0  0  0  0  0  0  0
   -1.7150   -3.2670    2.2080 C   0  0  0  0  0  0  0  0  0  0  0  0
   -2.3140   -3.8770    0.9950 C   0  0  0  0  0  0  0  0  0  0  0  0
   -2.8840   -5.0170    0.9170 O   0  0  0  0  0  0  0  0  0  0  0  0
   -2.0940   -2.8840   -0.0180 N   0  0  0  0  0  0  0  0  0  0  0  0
   -2.0560    0.6320   -0.6550 N   0  0  0  0  0  0  0  0  0  0  0  0
   -1.2080    1.5380   -0.9840 C   0  0  0  0  0  0  0  0  0  0  0  0
   -0.8360    2.6680   -1.7140 C   0  0  0  0  0  0  0  0  0  0  0  0
   -0.1870    3.4470   -2.1490 C   0  0  0  0  0  0  0  0  0  0  0  0
    1.2280    3.0650   -1.5790 C   0  0  0  0  0  0  0  0  0  0  0  0
    1.2780    1.9190   -0.7800 C   0  0  0  0  0  0  0  0  0  0  0  0
    0.0580    1.1450   -0.5130 C   0  0  0  0  0  0  0  0  0  0  0  0
  1  2  1  0
  2  3  2  3
  2 19  1  0
  3  4  1  0
  4  5  2  0
  4  6  1  0
  6  7  1  0
  7  8  1  0
  8  9  2  0
  8 10  1  0
 10 11  1  0
 11 12  1  0
 12 13  2  0
 12 17  1  0
 13 14  1  0
 14 15  2  0
 15 16  1  0
 16 17  2  0
 17 18  1  0
 19 20  2  0
 19 48  1  0
 20 21  1  0
 20 42  1  0
 21 22  1  1
 21 37  1  0
 21 41  1  0
 22 23  2  0
 22 24  1  0
 25 24  1  6
 25 26  1  0
 25 32  1  0
 26 27  1  0
 27 28  1  6
 27 31  1  0
 28 29  1  0
 29 30  3  0
 32 31  1  6
 32 33  1  0
 32 36  1  0
 33 34  1  0
 34 35  1  0
 35 36  1  0
 37 38  1  0
 38 39  1  0
 39 40  2  0
 39 41  1  0
 42 43  1  0
 43 44  2  0
 43 48  1  0
 44 45  1  0
 45 46  2  0
 46 47  1  0
 47 48  2  0
M  END
