
     RDKit          3D

 48 54  0  0  0  0  0  0  0  0999 V2000
    4.0000   -2.9510    0.6190 C   0  0  0  0  0  0  0  0  0  0  0  0
    3.8580   -1.4700    0.6480 C   0  0  0  0  0  0  0  0  0  0  0  0
    5.0060   -0.7080    0.5550 C   0  0  0  0  0  0  0  0  0  0  0  0
    5.0030    0.6610    0.5790 C   0  0  0  0  0  0  0  0  0  0  0  0
    3.7640    1.3610    0.7070 C   0  0  0  0  0  0  0  0  0  0  0  0
    3.8650    2.7970    0.7210 N   0  0  0  0  0  0  0  0  0  0  0  0
    4.2100    3.5910    1.8690 C   0  0  0  0  0  0  0  0  0  0  0  0
    4.8920    4.7870    1.3030 C   0  0  0  0  0  0  0  0  0  0  0  0
    5.7360    5.7280    1.8870 C   0  0  0  0  0  0  0  0  0  0  0  0
    6.1410    6.8400    1.2290 C   0  0  0  0  0  0  0  0  0  0  0  0
    5.6810    7.0270   -0.0900 C   0  0  0  0  0  0  0  0  0  0  0  0
    4.8530    6.0920   -0.6560 C   0  0  0  0  0  0  0  0  0  0  0  0
    4.4360    4.9420    0.0200 C   0  0  0  0  0  0  0  0  0  0  0  0
    3.7680    3.7140   -0.3830 C   0  0  0  0  0  0  0  0  0  0  0  0
    3.1970    3.4320   -1.4630 O   0  0  0  0  0  0  0  0  0  0  0  0
    2.6590    0.6040    0.7970 C   0  0  0  0  0  0  0  0  0  0  0  0
    2.6570   -0.8000    0.7730 C   0  0  0  0  0  0  0  0  0  0  0  0
    1.4280   -1.5550    0.9290 C   0  0  1  0  0  0  0  0  0  0  0  0
    1.5720   -2.3610    2.1570 O   0  0  0  0  0  0  0  0  0  0  0  0
    0.1950   -0.7870    1.1640 C   0  0  0  0  0  0  0  0  0  0  0  0
   -0.7830   -1.9390    1.2910 N   0  0  1  0  0  0  0  0  0  0  0  0
   -1.9400   -1.5210    1.8030 C   0  0  0  0  0  0  0  0  0  0  0  0
   -3.3150   -1.2720    1.4730 C   0  0  2  0  0  0  0  0  0  0  0  0
   -4.0170   -2.5250    1.1890 O   0  0  0  0  0  0  0  0  0  0  0  0
   -3.6490   -0.4320    0.2950 C   0  0  0  0  0  0  0  0  0  0  0  0
   -3.2450   -0.7540   -0.9790 C   0  0  0  0  0  0  0  0  0  0  0  0
   -3.6980   -0.0910   -2.0820 C   0  0  0  0  0  0  0  0  0  0  0  0
   -3.2690   -0.5440   -3.4600 C   0  0  0  0  0  0  0  0  0  0  0  0
   -2.9780   -0.8670   -4.4430 N   0  0  0  0  0  0  0  0  0  0  0  0
   -4.5840    0.9380   -1.9360 C   0  0  0  0  0  0  0  0  0  0  0  0
   -5.0430    1.3310   -0.6750 C   0  0  0  0  0  0  0  0  0  0  0  0
   -5.8850    2.3350   -0.2590 C   0  0  0  0  0  0  0  0  0  0  0  0
   -6.6120    3.3210   -1.0960 C   0  0  0  0  0  0  0  0  0  0  0  0
   -5.8980    2.2180    1.1380 C   0  0  0  0  0  0  0  0  0  0  0  0
   -6.7130    3.1970    1.9360 C   0  0  0  0  0  0  0  0  0  0  0  0
   -6.6160    2.9330    3.3270 N   0  0  0  0  0  0  0  0  0  0  0  0
   -5.1120    1.2120    1.4970 N   0  0  0  0  0  0  0  0  0  0  0  0
   -4.5420    0.6130    0.3940 C   0  0  0  0  0  0  0  0  0  0  0  0
   -0.4390   -2.8210    0.2610 C   0  0  0  0  0  0  0  0  0  0  0  0
    1.0440   -2.5440   -0.1150 C   0  0  1  0  0  0  0  0  0  0  0  0
    1.2470   -2.1330   -1.5240 C   0  0  2  0  0  0  0  0  0  0  0  0
    0.5150   -0.9730   -2.0620 C   0  0  0  0  0  0  0  0  0  0  0  0
    1.2650   -3.1860   -2.5110 N   0  0  0  0  0  0  0  0  0  0  0  0
    1.2890   -4.5700   -2.3320 C   0  0  0  0  0  0  0  0  0  0  0  0
    1.2420   -5.0780   -1.1950 O   0  0  0  0  0  0  0  0  0  0  0  0
    1.3800   -5.5240   -3.4870 C   0  0  2  0  0  0  0  0  0  0  0  0
    0.2960   -6.5490   -3.6610 C   0  0  0  0  0  0  0  0  0  0  0  0
    1.6420   -6.9580   -3.0880 C   0  0  0  0  0  0  0  0  0  0  0  0
  1  2  1  0
  2  3  2  0
  2 17  1  0
  3  4  1  0
  4  5  2  0
  5  6  1  0
  5 16  1  0
  6  7  1  0
  6 14  1  0
  7  8  1  0
  8  9  2  0
  8 13  1  0
  9 10  1  0
 10 11  2  0
 11 12  1  0
 12 13  2  0
 13 14  1  0
 14 15  2  0
 16 17  2  0
 17 18  1  0
 18 19  1  1
 18 20  1  0
 18 40  1  0
 20 21  1  0
 21 22  1  6
 21 39  1  0
 22 23  1  0
 23 24  1  6
 23 25  1  0
 25 26  2  0
 25 38  1  0
 26 27  1  0
 27 28  1  0
 27 30  2  0
 28 29  3  0
 30 31  1  0
 31 32  1  0
 31 38  2  0
 32 33  1  0
 32 34  2  0
 34 35  1  0
 34 37  1  0
 35 36  1  0
 37 38  1  0
 40 39  1  6
 40 41  1  0
 41 42  1  6
 41 43  1  0
 43 44  1  0
 44 45  2  0
 46 44  1  1
 46 47  1  0
 46 48  1  0
 47 48  1  0
M  CHG  2  21   1  36   1
M  END
