
     RDKit          3D

 48 53  0  0  0  0  0  0  0  0999 V2000
   -0.2180   -5.9730   -1.2740 C   0  0  0  0  0  0  0  0  0  0  0  0
   -0.8640   -4.7440   -0.7050 C   0  0  0  0  0  0  0  0  0  0  0  0
   -2.0610   -4.7870   -0.0510 C   0  0  0  0  0  0  0  0  0  0  0  0
   -2.6130   -3.6080    0.4570 C   0  0  0  0  0  0  0  0  0  0  0  0
   -2.0260   -2.3770    0.3440 C   0  0  0  0  0  0  0  0  0  0  0  0
   -2.5170   -1.1930    0.8160 O   0  0  0  0  0  0  0  0  0  0  0  0
   -3.7030   -1.0270    1.4930 C   0  0  1  0  0  0  0  0  0  0  0  0
   -3.5190   -0.3950    2.8080 C   0  0  0  0  0  0  0  0  0  0  0  0
   -4.5310   -0.1850    3.7730 N   0  0  0  0  0  0  0  0  0  0  0  0
   -2.3330   -0.0150    3.0840 O   0  0  0  0  0  0  0  0  0  0  0  0
   -4.7180   -0.3220    0.6280 C   0  0  0  0  0  0  0  0  0  0  0  0
   -4.9590   -0.7700   -0.6610 C   0  0  0  0  0  0  0  0  0  0  0  0
   -5.8880   -0.1160   -1.4680 C   0  0  0  0  0  0  0  0  0  0  0  0
   -6.5840    0.9830   -1.0050 C   0  0  0  0  0  0  0  0  0  0  0  0
   -6.3430    1.4190    0.2620 C   0  0  0  0  0  0  0  0  0  0  0  0
   -5.4020    0.7540    1.0740 C   0  0  0  0  0  0  0  0  0  0  0  0
   -6.9250    2.5330    0.9900 C   0  0  0  0  0  0  0  0  0  0  0  0
   -8.3860    2.7520    0.7490 C   0  0  0  0  0  0  0  0  0  0  0  0
   -8.9350    1.6970   -0.2020 C   0  0  0  0  0  0  0  0  0  0  0  0
   -8.6370    2.1840   -1.5370 N   0  0  0  0  0  0  0  0  0  0  0  0
   -7.4850    1.4890   -2.0260 C   0  0  0  0  0  0  0  0  0  0  0  0
   -0.7770   -2.3370   -0.3400 C   0  0  0  0  0  0  0  0  0  0  0  0
   -0.1630   -1.0820   -0.4230 N   0  0  0  0  0  0  0  0  0  0  0  0
    0.9880   -0.7870   -1.2210 C   0  0  0  0  0  0  0  0  0  0  0  0
    1.4910   -1.6700   -1.9040 O   0  0  0  0  0  0  0  0  0  0  0  0
    1.5150    0.5710   -1.1810 C   0  0  0  0  0  0  0  0  0  0  0  0
    2.7460    0.9580   -1.8490 C   0  0  0  0  0  0  0  0  0  0  0  0
    4.0480    0.3920   -1.4670 C   0  0  1  0  0  0  0  0  0  0  0  0
    4.3730    0.6040   -0.0170 C   0  0  0  0  0  0  0  0  0  0  0  0
    4.6840    1.8440    0.4300 C   0  0  0  0  0  0  0  0  0  0  0  0
    4.9750    2.0100    1.7630 C   0  0  0  0  0  0  0  0  0  0  0  0
    4.9480    0.9210    2.6200 C   0  0  0  0  0  0  0  0  0  0  0  0
    4.6320   -0.3180    2.1490 C   0  0  0  0  0  0  0  0  0  0  0  0
    4.3360   -0.5040    0.8090 C   0  0  0  0  0  0  0  0  0  0  0  0
    4.3860   -0.8810   -1.9690 N   0  0  0  0  0  0  0  0  0  0  0  0
    5.8630   -0.9360   -1.9270 C   0  0  0  0  0  0  0  0  0  0  0  0
    6.5210   -1.9920   -1.7880 O   0  0  0  0  0  0  0  0  0  0  0  0
    6.3040    0.4100   -2.0750 N   0  0  0  0  0  0  0  0  0  0  0  0
    7.6930    0.8220   -2.1010 C   0  0  0  0  0  0  0  0  0  0  0  0
    8.1560    1.1170   -0.7380 C   0  0  0  0  0  0  0  0  0  0  0  0
    8.0810    2.4260   -0.2510 C   0  0  0  0  0  0  0  0  0  0  0  0
    8.5100    2.7280    1.0230 C   0  0  0  0  0  0  0  0  0  0  0  0
    9.0200    1.7490    1.8420 C   0  0  0  0  0  0  0  0  0  0  0  0
    9.0810    0.4590    1.3290 C   0  0  0  0  0  0  0  0  0  0  0  0
    8.6560    0.2010    0.0870 N   0  0  0  0  0  0  0  0  0  0  0  0
    5.1450    1.2140   -2.1950 C   0  0  0  0  0  0  0  0  0  0  0  0
    5.0240    2.3020   -2.7430 O   0  0  0  0  0  0  0  0  0  0  0  0
   -0.2390   -3.5070   -0.8380 C   0  0  0  0  0  0  0  0  0  0  0  0
  1  2  1  0
  2  3  2  0
  2 48  1  0
  3  4  1  0
  4  5  2  0
  5  6  1  0
  5 22  1  0
  7  6  1  6
  7  8  1  0
  7 11  1  0
  8  9  1  0
  8 10  2  0
 11 12  2  0
 11 16  1  0
 12 13  1  0
 13 14  2  0
 14 15  1  0
 14 21  1  0
 15 16  2  0
 15 17  1  0
 17 18  1  0
 18 19  1  0
 19 20  1  0
 20 21  1  0
 22 23  1  0
 22 48  2  0
 23 24  1  0
 24 25  2  0
 24 26  1  0
 26 27  1  0
 28 27  1  1
 28 29  1  0
 28 35  1  0
 28 46  1  0
 29 30  2  0
 29 34  1  0
 30 31  1  0
 31 32  2  0
 32 33  1  0
 33 34  2  0
 35 36  1  0
 36 37  2  0
 36 38  1  0
 38 39  1  0
 38 46  1  0
 39 40  1  0
 40 41  2  0
 40 45  1  0
 41 42  1  0
 42 43  2  0
 43 44  1  0
 44 45  2  0
 46 47  2  0
M  CHG  1  20   1
M  END
