
     RDKit          3D

 48 52  0  0  0  0  0  0  0  0999 V2000
   -1.1630   -3.9680    1.6630 C   0  0  0  0  0  0  0  0  0  0  0  0
   -2.3300   -3.4470    0.9130 C   0  0  0  0  0  0  0  0  0  0  0  0
   -3.5130   -4.1470    0.9950 C   0  0  0  0  0  0  0  0  0  0  0  0
   -4.7170   -3.7190    0.2790 C   0  0  0  0  0  0  0  0  0  0  0  0
   -4.6390   -2.6520   -0.4440 C   0  0  0  0  0  0  0  0  0  0  0  0
   -3.4610   -1.9190   -0.5560 C   0  0  0  0  0  0  0  0  0  0  0  0
   -2.3120   -2.3430    0.1440 C   0  0  0  0  0  0  0  0  0  0  0  0
   -1.1900   -1.3800    0.1070 C   0  0  0  0  0  0  0  0  0  0  0  0
   -0.3220   -1.2570    1.0440 C   0  0  0  0  0  0  0  0  0  0  0  0
    0.8310   -0.2460    0.9780 C   0  0  2  0  0  0  0  0  0  0  0  0
    1.1570    0.0990    2.3130 O   0  0  0  0  0  0  0  0  0  0  0  0
    0.4420    0.8940    0.1290 C   0  0  2  0  0  0  0  0  0  0  0  0
    1.3380    1.8990   -0.0450 O   0  0  0  0  0  0  0  0  0  0  0  0
    2.5790    2.0480   -0.4530 C   0  0  0  0  0  0  0  0  0  0  0  0
    3.0520    3.3680   -0.7510 C   0  0  0  0  0  0  0  0  0  0  0  0
    4.3050    3.6250   -1.1860 C   0  0  0  0  0  0  0  0  0  0  0  0
    5.2490    2.5920   -1.3770 C   0  0  0  0  0  0  0  0  0  0  0  0
    6.5790    2.9630   -1.8620 C   0  0  0  0  0  0  0  0  0  0  0  0
    4.8450    1.3340   -1.0950 C   0  0  0  0  0  0  0  0  0  0  0  0
    5.7310    0.2020   -1.2990 N   0  0  0  0  0  0  0  0  0  0  0  0
    5.6810   -0.8750   -0.4400 C   0  0  0  0  0  0  0  0  0  0  0  0
    4.8880   -0.8070    0.5990 O   0  0  0  0  0  0  0  0  0  0  0  0
    6.4220   -2.1340   -0.5550 N   0  0  0  0  0  0  0  0  0  0  0  0
    6.2270   -3.0250    0.5000 C   0  0  0  0  0  0  0  0  0  0  0  0
    6.3760   -2.4820    1.8060 C   0  0  0  0  0  0  0  0  0  0  0  0
    6.3350   -3.2220    2.8970 C   0  0  0  0  0  0  0  0  0  0  0  0
    6.1280   -4.6560    2.8020 C   0  0  0  0  0  0  0  0  0  0  0  0
    5.9800   -5.2130    1.5410 C   0  0  0  0  0  0  0  0  0  0  0  0
    6.0420   -4.3490    0.5040 C   0  0  0  0  0  0  0  0  0  0  0  0
    5.7030   -5.0010   -0.8540 C   0  0  0  0  0  0  0  0  0  0  0  0
    5.4730   -5.4600   -1.8260 N   0  0  0  0  0  0  0  0  0  0  0  0
    3.5860    1.1020   -0.6620 C   0  0  0  0  0  0  0  0  0  0  0  0
   -0.9100    1.4190    0.5070 C   0  0  0  0  0  0  0  0  0  0  0  0
   -1.5640    0.7330    1.3650 O   0  0  0  0  0  0  0  0  0  0  0  0
   -1.4970    2.5840   -0.0100 N   0  0  0  0  0  0  0  0  0  0  0  0
   -0.9200    3.3420   -1.0580 C   0  0  0  0  0  0  0  0  0  0  0  0
   -1.0200    4.8320   -0.8500 C   0  0  1  0  0  0  0  0  0  0  0  0
   -1.4190    5.5000   -2.1750 C   0  0  0  0  0  0  0  0  0  0  0  0
   -1.8080    5.3200    0.2820 C   0  0  0  0  0  0  0  0  0  0  0  0
   -2.3020    4.3580    1.2930 C   0  0  1  0  0  0  0  0  0  0  0  0
   -3.4280    4.9260    2.0430 N   0  0  0  0  0  0  0  0  0  0  0  0
   -2.7370    3.0810    0.6200 C   0  0  0  0  0  0  0  0  0  0  0  0
   -5.8490   -2.0860   -1.2040 C   0  0  1  0  0  0  0  0  0  0  0  0
   -6.2810   -0.7880   -0.6430 C   0  0  0  0  0  0  0  0  0  0  0  0
   -5.6390   -2.1580   -2.6290 C   0  0  0  0  0  0  0  0  0  0  0  0
   -6.9210   -3.1310   -0.7580 C   0  0  0  0  0  0  0  0  0  0  0  0
   -7.0650   -4.0640   -0.1410 C   0  0  0  0  0  0  0  0  0  0  0  0
   -5.7210   -4.6730    0.6590 N   0  0  0  0  0  0  0  0  0  0  0  0
  1  2  1  0
  2  3  2  0
  2  7  1  0
  3  4  1  0
  4  5  2  0
  4 48  1  0
  5  6  1  0
  5 43  1  0
  6  7  2  0
  7  8  1  0
  8  9  2  3
  9 10  1  0
 10 11  1  1
 10 12  1  0
 12 13  1  1
 12 33  1  0
 13 14  1  0
 14 15  2  0
 14 32  1  0
 15 16  1  0
 16 17  2  0
 17 18  1  0
 17 19  1  0
 19 20  1  0
 19 32  2  0
 20 21  1  0
 21 22  2  0
 21 23  1  0
 23 24  1  0
 24 25  2  0
 24 29  1  0
 25 26  1  0
 26 27  2  0
 27 28  1  0
 28 29  2  0
 29 30  1  0
 30 31  3  0
 33 34  2  0
 33 35  1  0
 35 36  1  0
 35 42  1  0
 36 37  1  0
 37 38  1  6
 37 39  1  0
 39 40  1  0
 40 41  1  6
 40 42  1  0
 43 44  1  1
 43 45  1  0
 43 46  1  0
 46 47  2  0
 47 48  1  0
M  CHG  1  41   1
M  END
