
     RDKit          3D

 33 35  0  0  0  0  0  0  0  0999 V2000
   -5.9200    1.6510    0.2300 C   0  0  0  0  0  0  0  0  0  0  0  0
   -4.6910    2.4320    0.4930 C   0  0  0  0  0  0  0  0  0  0  0  0
   -3.5190    1.9770   -0.0050 C   0  0  0  0  0  0  0  0  0  0  0  0
   -3.5320    0.7570   -0.7660 C   0  0  0  0  0  0  0  0  0  0  0  0
   -2.7690   -0.3610   -0.3800 N   0  0  0  0  0  0  0  0  0  0  0  0
   -1.3560   -0.4930   -0.3420 C   0  0  0  0  0  0  0  0  0  0  0  0
   -0.6670    0.4800   -0.7070 O   0  0  0  0  0  0  0  0  0  0  0  0
   -0.7030   -1.7770    0.1290 C   0  0  2  0  0  0  0  0  0  0  0  0
   -1.6980   -2.6270    0.4520 O   0  0  0  0  0  0  0  0  0  0  0  0
   -1.4790   -3.6880    1.2390 C   0  0  1  0  0  0  0  0  0  0  0  0
   -2.5360   -4.7540    0.9140 C   0  0  0  0  0  0  0  0  0  0  0  0
   -0.1210   -4.2950    1.2390 C   0  0  0  0  0  0  0  0  0  0  0  0
    1.0420   -2.9840    1.7620 S   0  0  0  0  0  0  0  0  0  0  0  0
    0.1930   -1.4280    1.3020 C   0  0  1  0  0  0  0  0  0  0  0  0
    1.1180   -0.3810    1.0130 N   0  0  0  0  0  0  0  0  0  0  0  0
    2.0550   -0.2340   -0.0390 C   0  0  0  0  0  0  0  0  0  0  0  0
    2.9520    0.8090    0.1460 C   0  0  0  0  0  0  0  0  0  0  0  0
    3.9380    1.1060   -0.7720 C   0  0  0  0  0  0  0  0  0  0  0  0
    4.8630    2.1580   -0.6100 N   0  0  0  0  0  0  0  0  0  0  0  0
    4.8650    3.0370    0.5450 C   0  0  0  0  0  0  0  0  0  0  0  0
    5.9470    4.0690    0.4740 C   0  0  1  0  0  0  0  0  0  0  0  0
    5.8960    4.8640    1.5900 F   0  0  0  0  0  0  0  0  0  0  0  0
    7.2040    3.4710    0.4360 F   0  0  0  0  0  0  0  0  0  0  0  0
    4.0080    0.3220   -1.9010 C   0  0  0  0  0  0  0  0  0  0  0  0
    5.2240    0.6060   -3.1430 Cl  0  0  0  0  0  0  0  0  0  0  0  0
    3.1180   -0.7330   -2.1130 C   0  0  0  0  0  0  0  0  0  0  0  0
    2.1400   -1.0100   -1.1780 C   0  0  0  0  0  0  0  0  0  0  0  0
    1.3290   -2.0840   -1.5200 O   0  0  0  0  0  0  0  0  0  0  0  0
    0.0410   -2.2890   -1.0370 C   0  0  0  0  0  0  0  0  0  0  0  0
   -0.6240   -3.0810   -1.7540 O   0  0  0  0  0  0  0  0  0  0  0  0
   -2.3400    2.7830    0.3120 C   0  0  2  0  0  0  0  0  0  0  0  0
   -1.6650    2.2060    1.3860 F   0  0  0  0  0  0  0  0  0  0  0  0
   -2.8270    4.4400    0.8450 Cl  0  0  0  0  0  0  0  0  0  0  0  0
  1  2  1  0
  2  3  2  3
  3  4  1  0
  3 31  1  0
  4  5  1  0
  5  6  1  0
  6  7  2  0
  8  6  1  6
  8  9  1  0
  8 14  1  0
  8 29  1  0
  9 10  1  0
 10 11  1  6
 10 12  1  0
 12 13  1  0
 13 14  1  0
 14 15  1  6
 15 16  1  0
 16 17  2  0
 16 27  1  0
 17 18  1  0
 18 19  1  0
 18 24  2  0
 19 20  1  0
 20 21  1  0
 21 22  1  1
 21 23  1  0
 24 25  1  0
 24 26  1  0
 26 27  2  0
 27 28  1  0
 28 29  1  0
 29 30  2  0
 31 32  1  1
 31 33  1  0
M  END
