
     RDKit          3D

 33 34  0  0  0  0  0  0  0  0999 V2000
    2.2720   -1.1180   -1.7050 C   0  0  0  0  0  0  0  0  0  0  0  0
    2.7800   -0.8790   -0.5070 C   0  0  0  0  0  0  0  0  0  0  0  0
    1.8160   -1.1380    0.6300 C   0  0  0  0  0  0  0  0  0  0  0  0
    0.5920   -0.9940    0.1510 O   0  0  0  0  0  0  0  0  0  0  0  0
   -0.6320   -1.1360   -0.2180 C   0  0  0  0  0  0  0  0  0  0  0  0
   -1.5530   -0.2700    0.2950 C   0  0  0  0  0  0  0  0  0  0  0  0
   -1.2720    0.7890    1.2240 C   0  0  0  0  0  0  0  0  0  0  0  0
   -2.2540    1.1510    2.0030 O   0  0  0  0  0  0  0  0  0  0  0  0
    0.1690    1.6970    1.5110 S   0  0  0  0  0  0  0  0  0  0  0  0
    1.2670    2.0960    0.1850 C   0  0  0  0  0  0  0  0  0  0  0  0
    2.5750    2.3740    0.8530 C   0  0  0  0  0  0  0  0  0  0  0  0
    2.5940    3.6420    1.2000 O   0  0  0  0  0  0  0  0  0  0  0  0
    3.6490    1.5210    1.1170 N   0  0  0  0  0  0  0  0  0  0  0  0
    4.5050    0.6650    0.3910 C   0  0  0  0  0  0  0  0  0  0  0  0
    5.9870    0.8500    0.5050 C   0  0  0  0  0  0  0  0  0  0  0  0
    6.5130    1.8640    1.1890 C   0  0  0  0  0  0  0  0  0  0  0  0
    8.2540    1.9760    1.2510 Cl  0  0  0  0  0  0  0  0  0  0  0  0
    4.1590   -0.4030   -0.3430 C   0  0  0  0  0  0  0  0  0  0  0  0
    5.1300   -1.1830   -1.1770 C   0  0  0  0  0  0  0  0  0  0  0  0
    5.2990   -2.8710   -0.6270 Cl  0  0  0  0  0  0  0  0  0  0  0  0
   -2.9640   -0.4670   -0.1870 C   0  0  2  0  0  0  0  0  0  0  0  0
   -3.8780    0.4840    0.4730 C   0  0  0  0  0  0  0  0  0  0  0  0
   -4.7000    0.1300    1.3520 O   0  0  0  0  0  0  0  0  0  0  0  0
   -3.8840    1.8850    0.1440 N   0  0  0  0  0  0  0  0  0  0  0  0
   -4.8020    2.7950    0.8130 C   0  0  0  0  0  0  0  0  0  0  0  0
   -6.2040    2.2890    0.5030 C   0  0  0  0  0  0  0  0  0  0  0  0
   -3.3010   -1.8130    0.3120 N   0  0  0  0  0  0  0  0  0  0  0  0
   -2.4220   -2.7600   -0.3250 C   0  0  1  0  0  0  0  0  0  0  0  0
   -3.2130   -3.7600   -1.1310 C   0  0  2  0  0  0  0  0  0  0  0  0
   -2.4000   -4.6810   -1.7530 F   0  0  0  0  0  0  0  0  0  0  0  0
   -4.0210   -3.1620   -2.0730 F   0  0  0  0  0  0  0  0  0  0  0  0
   -4.0180   -4.4630   -0.2390 F   0  0  0  0  0  0  0  0  0  0  0  0
   -1.3280   -2.1050   -1.1460 C   0  0  0  0  0  0  0  0  0  0  0  0
  1  2  2  0
  2  3  1  0
  2 18  1  0
  3  4  1  0
  4  5  1  0
  5  6  2  0
  5 33  1  0
  6  7  1  0
  6 21  1  0
  7  8  2  0
  7  9  1  0
  9 10  1  0
 10 11  1  0
 11 12  2  0
 11 13  1  0
 13 14  1  0
 14 15  1  0
 14 18  2  0
 15 16  2  3
 16 17  1  0
 18 19  1  0
 19 20  1  0
 21 22  1  1
 21 27  1  0
 22 23  2  0
 22 24  1  0
 24 25  1  0
 25 26  1  0
 27 28  1  0
 28 29  1  0
 28 33  1  6
 29 30  1  6
 29 31  1  0
 29 32  1  0
M  END
