
     RDKit          3D

 42 45  0  0  0  0  0  0  0  0999 V2000
   -2.0640   -5.8470   -0.1600 C   0  0  0  0  0  0  0  0  0  0  0  0
   -1.6070   -4.7370    0.7540 C   0  0  0  0  0  0  0  0  0  0  0  0
   -2.5620   -4.4430    1.8690 C   0  0  0  0  0  0  0  0  0  0  0  0
   -3.9230   -4.0140    1.4240 C   0  0  0  0  0  0  0  0  0  0  0  0
   -3.9310   -2.8250    0.6310 N   0  0  0  0  0  0  0  0  0  0  0  0
   -3.4290   -1.5830    1.1600 C   0  0  0  0  0  0  0  0  0  0  0  0
   -2.9890   -1.5960    2.3400 O   0  0  0  0  0  0  0  0  0  0  0  0
   -3.4700   -0.4220    0.2940 C   0  0  1  0  0  0  0  0  0  0  0  0
   -4.0130   -0.6960   -0.9510 O   0  0  0  0  0  0  0  0  0  0  0  0
   -4.6280    0.4960    0.8940 C   0  0  0  0  0  0  0  0  0  0  0  0
   -4.3670    1.8020    0.1210 C   0  0  0  0  0  0  0  0  0  0  0  0
   -2.9780    1.6510   -0.4960 C   0  0  1  0  0  0  0  0  0  0  0  0
   -2.2590    2.8010   -0.7600 N   0  0  0  0  0  0  0  0  0  0  0  0
   -1.8500    3.8240    0.0880 C   0  0  0  0  0  0  0  0  0  0  0  0
   -2.1120    3.9330    1.4270 C   0  0  0  0  0  0  0  0  0  0  0  0
   -1.6700    5.0020    2.2090 C   0  0  0  0  0  0  0  0  0  0  0  0
   -1.9830    5.0760    3.6610 C   0  0  0  0  0  0  0  0  0  0  0  0
   -0.9390    6.0060    1.6490 C   0  0  0  0  0  0  0  0  0  0  0  0
   -0.6650    5.9210    0.3200 C   0  0  0  0  0  0  0  0  0  0  0  0
   -1.0910    4.8780   -0.4660 C   0  0  0  0  0  0  0  0  0  0  0  0
   -0.7420    4.8600   -1.9290 C   0  0  0  0  0  0  0  0  0  0  0  0
   -2.4040    0.5810    0.3890 C   0  0  2  0  0  0  0  0  0  0  0  0
   -1.0100    0.4090    0.4220 C   0  0  0  0  0  0  0  0  0  0  0  0
   -0.5600    1.0290    1.5630 O   0  0  0  0  0  0  0  0  0  0  0  0
    0.1090   -0.1410   -0.2490 C   0  0  0  0  0  0  0  0  0  0  0  0
    0.0580   -0.8560   -1.3950 C   0  0  0  0  0  0  0  0  0  0  0  0
   -1.2120   -1.1620   -2.1190 C   0  0  0  0  0  0  0  0  0  0  0  0
    1.1890   -1.4040   -2.0300 C   0  0  0  0  0  0  0  0  0  0  0  0
    2.4120   -1.2050   -1.4570 C   0  0  0  0  0  0  0  0  0  0  0  0
    2.5400   -0.4880   -0.2910 C   0  0  0  0  0  0  0  0  0  0  0  0
    3.8550   -0.3500    0.2880 C   0  0  0  0  0  0  0  0  0  0  0  0
    4.0250    0.0900    1.4320 O   0  0  0  0  0  0  0  0  0  0  0  0
    5.0750   -0.7180   -0.4350 C   0  0  0  0  0  0  0  0  0  0  0  0
    5.3160   -0.3690   -1.7410 C   0  0  0  0  0  0  0  0  0  0  0  0
    6.4930   -0.7030   -2.3880 C   0  0  0  0  0  0  0  0  0  0  0  0
    6.7520   -0.3210   -3.8140 C   0  0  0  0  0  0  0  0  0  0  0  0
    7.4780   -1.4030   -1.7450 C   0  0  0  0  0  0  0  0  0  0  0  0
    7.2590   -1.7650   -0.4330 C   0  0  0  0  0  0  0  0  0  0  0  0
    6.0900   -1.4320    0.2050 C   0  0  0  0  0  0  0  0  0  0  0  0
    5.9460   -1.8690    1.6300 C   0  0  0  0  0  0  0  0  0  0  0  0
    1.4160    0.0310    0.2980 C   0  0  0  0  0  0  0  0  0  0  0  0
    1.5080    0.7510    1.4560 O   0  0  0  0  0  0  0  0  0  0  0  0
  1  2  1  0
  2  3  1  0
  3  4  1  0
  4  5  1  0
  5  6  1  0
  6  7  2  0
  6  8  1  0
  8  9  1  6
  8 10  1  0
  8 22  1  0
 10 11  1  0
 11 12  1  0
 12 13  1  1
 12 22  1  0
 13 14  1  0
 14 15  2  0
 14 20  1  0
 15 16  1  0
 16 17  1  0
 16 18  2  0
 18 19  1  0
 19 20  2  0
 20 21  1  0
 22 23  1  6
 23 24  2  0
 23 25  1  0
 25 26  2  0
 25 41  1  0
 26 27  1  0
 26 28  1  0
 28 29  2  0
 29 30  1  0
 30 31  1  0
 30 41  2  0
 31 32  2  0
 31 33  1  0
 33 34  2  0
 33 39  1  0
 34 35  1  0
 35 36  1  0
 35 37  2  0
 37 38  1  0
 38 39  2  0
 39 40  1  0
 41 42  1  0
M  END
