
     RDKit          3D

 29 29  0  0  0  0  0  0  0  0999 V2000
   -5.9050    0.9010   -1.7800 C   0  0  0  0  0  0  0  0  0  0  0  0
   -4.8830    0.1830   -1.1250 O   0  0  0  0  0  0  0  0  0  0  0  0
   -5.1300   -0.4380    0.0690 C   0  0  0  0  0  0  0  0  0  0  0  0
   -6.3300   -0.3010    0.5030 O   0  0  0  0  0  0  0  0  0  0  0  0
   -4.2070   -1.2100    0.8820 C   0  0  0  0  0  0  0  0  0  0  0  0
   -4.6270   -1.7250    2.0630 C   0  0  0  0  0  0  0  0  0  0  0  0
   -5.9860   -1.5980    2.6660 C   0  0  0  0  0  0  0  0  0  0  0  0
   -3.5950   -2.4100    2.6690 O   0  0  0  0  0  0  0  0  0  0  0  0
   -2.4690   -2.3660    1.9060 C   0  0  0  0  0  0  0  0  0  0  0  0
   -1.3670   -2.8750    2.1570 O   0  0  0  0  0  0  0  0  0  0  0  0
   -2.8170   -1.5660    0.6740 C   0  0  0  0  0  0  0  0  0  0  0  0
   -1.9950   -1.3810   -0.2960 C   0  0  0  0  0  0  0  0  0  0  0  0
   -2.0560   -0.7690   -1.5850 C   0  0  0  0  0  0  0  0  0  0  0  0
   -1.1690    0.4080   -1.7190 N   0  0  0  0  0  0  0  0  0  0  0  0
    0.2350    0.3320   -1.5620 C   0  0  0  0  0  0  0  0  0  0  0  0
    0.7360   -0.7930   -1.3010 O   0  0  0  0  0  0  0  0  0  0  0  0
    1.0960    1.4560   -1.6860 N   0  0  0  0  0  0  0  0  0  0  0  0
    2.5260    1.3000   -1.5110 C   0  0  1  0  0  0  0  0  0  0  0  0
    3.1550    1.7010   -2.8550 C   0  0  0  0  0  0  0  0  0  0  0  0
    2.6580    0.8510   -3.8440 O   0  0  0  0  0  0  0  0  0  0  0  0
    3.0690    2.2030   -0.4690 C   0  0  0  0  0  0  0  0  0  0  0  0
    2.8820    3.5650   -0.6810 O   0  0  0  0  0  0  0  0  0  0  0  0
    3.6990    1.7860    0.6130 C   0  0  0  0  0  0  0  0  0  0  0  0
    3.9340    0.3490    0.9040 C   0  0  2  0  0  0  0  0  0  0  0  0
    2.7000   -0.3150    1.4360 C   0  0  0  0  0  0  0  0  0  0  0  0
    5.2510    0.2140    2.1110 S   0  0  1  0  0  0  0  0  0  0  0  0
    5.6120   -1.4840    2.4230 C   0  0  0  0  0  0  0  0  0  0  0  0
    6.4510    0.9650    1.6510 O   0  0  0  0  0  0  0  0  0  0  0  0
    4.7370    0.8170    3.3980 O   0  0  0  0  0  0  0  0  0  0  0  0
  1  2  1  0
  2  3  1  0
  3  4  2  0
  3  5  1  0
  5  6  2  0
  5 11  1  0
  6  7  1  0
  6  8  1  0
  8  9  1  0
  9 10  2  0
  9 11  1  0
 11 12  2  3
 12 13  1  0
 13 14  1  0
 14 15  1  0
 15 16  2  0
 15 17  1  0
 17 18  1  0
 18 19  1  6
 18 21  1  0
 19 20  1  0
 21 22  1  0
 21 23  2  3
 23 24  1  0
 24 25  1  1
 24 26  1  0
 26 27  1  1
 26 28  2  0
 26 29  2  0
M  END
