
     RDKit          3D

 31 34  0  0  0  0  0  0  0  0999 V2000
    6.6110    0.9800   -3.0990 C   0  0  0  0  0  0  0  0  0  0  0  0
    5.9120    0.8960   -1.7890 C   0  0  0  0  0  0  0  0  0  0  0  0
    6.5450    0.8940   -0.5560 C   0  0  0  0  0  0  0  0  0  0  0  0
    5.5460    0.8060    0.3380 N   0  0  0  0  0  0  0  0  0  0  0  0
    4.3470    0.7550   -0.3000 C   0  0  0  0  0  0  0  0  0  0  0  0
    3.0630    0.6570    0.3530 N   0  0  0  0  0  0  0  0  0  0  0  0
    2.9800    0.6060    1.7580 C   0  0  0  0  0  0  0  0  0  0  0  0
    4.0940    0.6480    2.3890 O   0  0  0  0  0  0  0  0  0  0  0  0
    1.7910    0.5130    2.5540 C   0  0  0  0  0  0  0  0  0  0  0  0
    0.5040    0.4780    1.9940 N   0  0  1  0  0  0  0  0  0  0  0  0
    0.0500    1.7040    1.4030 C   0  0  0  0  0  0  0  0  0  0  0  0
   -1.4610    1.7040    1.3280 C   0  0  0  0  0  0  0  0  0  0  0  0
   -2.0110    0.3930    1.2110 N   0  0  0  0  0  0  0  0  0  0  0  0
   -3.4190    0.1110    1.4500 C   0  0  0  0  0  0  0  0  0  0  0  0
   -4.2910    0.8760    0.5320 C   0  0  0  0  0  0  0  0  0  0  0  0
   -4.6640    0.3360   -0.6760 C   0  0  0  0  0  0  0  0  0  0  0  0
   -5.4820    1.0230   -1.5650 C   0  0  0  0  0  0  0  0  0  0  0  0
   -5.9310    2.2750   -1.2320 C   0  0  0  0  0  0  0  0  0  0  0  0
   -5.5530    2.8110   -0.0200 C   0  0  0  0  0  0  0  0  0  0  0  0
   -4.7300    2.1310    0.8850 C   0  0  0  0  0  0  0  0  0  0  0  0
   -1.1490   -0.7000    0.8420 C   0  0  0  0  0  0  0  0  0  0  0  0
    0.1320   -0.6500    1.2440 C   0  0  0  0  0  0  0  0  0  0  0  0
    1.0270   -1.7290    0.8990 C   0  0  0  0  0  0  0  0  0  0  0  0
    0.5510   -2.7580    0.1780 C   0  0  0  0  0  0  0  0  0  0  0  0
    1.7050   -4.0120   -0.1900 Cl  0  0  0  0  0  0  0  0  0  0  0  0
   -0.8220   -2.8430   -0.2750 C   0  0  0  0  0  0  0  0  0  0  0  0
   -1.3860   -3.7810   -0.9720 C   0  0  0  0  0  0  0  0  0  0  0  0
   -0.8120   -5.0050   -1.4980 C   0  0  0  0  0  0  0  0  0  0  0  0
   -1.5050   -6.1110   -0.9510 F   0  0  0  0  0  0  0  0  0  0  0  0
   -1.6490   -1.7480    0.1020 O   0  0  0  0  0  0  0  0  0  0  0  0
    4.6260    0.8120   -1.5600 O   0  0  0  0  0  0  0  0  0  0  0  0
  1  2  1  0
  2  3  2  0
  2 31  1  0
  3  4  1  0
  4  5  2  0
  5  6  1  0
  5 31  1  0
  6  7  1  0
  7  8  2  0
  7  9  1  0
 10  9  1  6
 10 11  1  0
 10 22  1  0
 11 12  1  0
 12 13  1  0
 13 14  1  0
 13 21  1  0
 14 15  1  0
 15 16  2  0
 15 20  1  0
 16 17  1  0
 17 18  2  0
 18 19  1  0
 19 20  2  0
 21 22  2  0
 21 30  1  0
 22 23  1  0
 23 24  2  0
 24 25  1  0
 24 26  1  0
 26 27  2  3
 26 30  1  0
 27 28  1  0
 28 29  1  0
M  CHG  1  10   1
M  END
