
     RDKit          3D

 29 30  0  0  0  0  0  0  0  0999 V2000
   -3.4170    2.7770   -3.0320 C   0  0  0  0  0  0  0  0  0  0  0  0
   -4.5850    2.2370   -2.6000 O   0  0  0  0  0  0  0  0  0  0  0  0
   -4.4910    1.4200   -1.4440 C   0  0  0  0  0  0  0  0  0  0  0  0
   -3.6090    0.2590   -1.6610 C   0  0  2  0  0  0  0  0  0  0  0  0
   -4.0670   -0.5730   -2.7050 O   0  0  0  0  0  0  0  0  0  0  0  0
   -3.1750   -0.5500   -0.5270 C   0  0  0  0  0  0  0  0  0  0  0  0
   -3.8600   -0.7650    0.5640 C   0  0  0  0  0  0  0  0  0  0  0  0
   -5.2280   -0.1950    0.8040 C   0  0  0  0  0  0  0  0  0  0  0  0
   -3.2710   -1.6030    1.6520 C   0  0  0  0  0  0  0  0  0  0  0  0
   -2.0880   -2.2450    1.3360 O   0  0  0  0  0  0  0  0  0  0  0  0
   -1.3840   -2.0080    0.1870 C   0  0  0  0  0  0  0  0  0  0  0  0
   -0.0780   -2.6400   -0.0510 C   0  0  0  0  0  0  0  0  0  0  0  0
    0.8620   -2.1880    0.8680 O   0  0  0  0  0  0  0  0  0  0  0  0
    0.7860   -2.4090    2.2020 C   0  0  0  0  0  0  0  0  0  0  0  0
   -0.1450   -3.0520    2.7160 O   0  0  0  0  0  0  0  0  0  0  0  0
    1.8290   -1.8860    3.1520 C   0  0  0  0  0  0  0  0  0  0  0  0
    2.7940   -1.1880    2.3860 O   0  0  0  0  0  0  0  0  0  0  0  0
    2.5000   -0.1010    1.6120 C   0  0  0  0  0  0  0  0  0  0  0  0
    1.3140    0.3120    1.5670 O   0  0  0  0  0  0  0  0  0  0  0  0
    3.5650    0.5410    0.8660 C   0  0  0  0  0  0  0  0  0  0  0  0
    4.9150    0.2050    0.8130 C   0  0  0  0  0  0  0  0  0  0  0  0
    5.7050    0.9640    0.0410 C   0  0  0  0  0  0  0  0  0  0  0  0
    7.1780    0.7180   -0.1060 C   0  0  0  0  0  0  0  0  0  0  0  0
    7.6770   -0.2330    0.5140 O   0  0  0  0  0  0  0  0  0  0  0  0
    7.9750    1.5110   -0.9000 O   0  0  0  0  0  0  0  0  0  0  0  0
    5.1650    2.0120   -0.6460 C   0  0  0  0  0  0  0  0  0  0  0  0
    5.7240    2.9540   -1.5070 N   0  0  0  0  0  0  0  0  0  0  0  0
    3.4260    1.9150   -0.1670 S   0  0  0  0  0  0  0  0  0  0  0  0
   -1.8970   -1.2210   -0.6690 N   0  0  0  0  0  0  0  0  0  0  0  0
  1  2  1  0
  2  3  1  0
  3  4  1  0
  4  5  1  6
  4  6  1  0
  6  7  2  0
  6 29  1  0
  7  8  1  0
  7  9  1  0
  9 10  1  0
 10 11  1  0
 11 12  1  0
 11 29  2  0
 12 13  1  0
 13 14  1  0
 14 15  2  0
 14 16  1  0
 16 17  1  0
 17 18  1  0
 18 19  2  0
 18 20  1  0
 20 21  2  0
 20 28  1  0
 21 22  1  0
 22 23  1  0
 22 26  2  0
 23 24  2  0
 23 25  1  0
 26 27  1  0
 26 28  1  0
M  END
