
     RDKit          3D

 31 33  0  0  0  0  0  0  0  0999 V2000
    0.5150   -5.6660    1.7930 C   0  0  0  0  0  0  0  0  0  0  0  0
    0.3770   -5.0080    0.5650 O   0  0  0  0  0  0  0  0  0  0  0  0
    0.3720   -3.6050    0.7800 C   0  0  0  0  0  0  0  0  0  0  0  0
    0.2200   -2.9870   -0.5670 C   0  0  0  0  0  0  0  0  0  0  0  0
    0.1950   -1.5440   -0.5880 N   0  0  0  0  0  0  0  0  0  0  0  0
    1.3750   -0.7710   -0.7280 C   0  0  0  0  0  0  0  0  0  0  0  0
    1.2300    0.4990   -0.8020 O   0  0  0  0  0  0  0  0  0  0  0  0
    2.7130   -1.3420   -0.7910 C   0  0  0  0  0  0  0  0  0  0  0  0
    2.9080   -2.5710   -0.6800 O   0  0  0  0  0  0  0  0  0  0  0  0
    3.8400   -0.4970   -0.9830 N   0  0  0  0  0  0  0  0  0  0  0  0
    5.1870   -1.0160   -1.0460 C   0  0  0  0  0  0  0  0  0  0  0  0
    6.1990    0.0490   -1.2770 C   0  0  0  0  0  0  0  0  0  0  0  0
    6.2500    1.1070   -0.2670 C   0  0  0  0  0  0  0  0  0  0  0  0
    5.5180    1.2590    0.8360 C   0  0  0  0  0  0  0  0  0  0  0  0
    5.9280    2.4920    1.5550 C   0  0  0  0  0  0  0  0  0  0  0  0
    7.0100    3.0220    0.6930 C   0  0  0  0  0  0  0  0  0  0  0  0
    7.6840    4.1670    0.9840 F   0  0  0  0  0  0  0  0  0  0  0  0
    7.1960    2.2320   -0.3500 C   0  0  0  0  0  0  0  0  0  0  0  0
    8.3980    2.5380   -1.5960 Cl  0  0  0  0  0  0  0  0  0  0  0  0
   -1.0580   -0.8270   -0.4860 C   0  0  0  0  0  0  0  0  0  0  0  0
   -1.7630   -0.7320    0.6920 C   0  0  0  0  0  0  0  0  0  0  0  0
   -2.9540   -0.0530    0.7660 C   0  0  0  0  0  0  0  0  0  0  0  0
   -3.5090    0.5790   -0.3610 C   0  0  0  0  0  0  0  0  0  0  0  0
   -4.7410    1.2660   -0.2290 N   0  0  0  0  0  0  0  0  0  0  0  0
   -5.4360    1.3360    1.0600 C   0  0  0  0  0  0  0  0  0  0  0  0
   -6.7990    1.9220    0.9200 C   0  0  0  0  0  0  0  0  0  0  0  0
   -6.8470    3.2040    0.1430 C   0  0  0  0  0  0  0  0  0  0  0  0
   -5.7150    3.3300   -0.8470 C   0  0  0  0  0  0  0  0  0  0  0  0
   -5.3610    1.9150   -1.3420 C   0  0  0  0  0  0  0  0  0  0  0  0
   -2.8020    0.4710   -1.4930 N   0  0  0  0  0  0  0  0  0  0  0  0
   -1.6180   -0.2040   -1.5720 C   0  0  0  0  0  0  0  0  0  0  0  0
  1  2  1  0
  2  3  1  0
  3  4  1  0
  4  5  1  0
  5  6  1  0
  5 20  1  0
  6  7  2  0
  6  8  1  0
  8  9  2  0
  8 10  1  0
 10 11  1  0
 11 12  1  0
 12 13  1  0
 13 14  2  0
 13 18  1  0
 14 15  1  0
 15 16  1  0
 16 17  1  0
 16 18  2  0
 18 19  1  0
 20 21  2  0
 20 31  1  0
 21 22  1  0
 22 23  2  0
 23 24  1  0
 23 30  1  0
 24 25  1  0
 24 29  1  0
 25 26  1  0
 26 27  1  0
 27 28  1  0
 28 29  1  0
 30 31  2  0
M  CHG  1  30   1
M  END
