
     RDKit          3D

 29 30  0  0  0  0  0  0  0  0999 V2000
   -8.4720   -0.8190    2.6520 C   0  0  0  0  0  0  0  0  0  0  0  0
   -7.2490   -0.9130    1.7880 C   0  0  0  0  0  0  0  0  0  0  0  0
   -6.2200   -0.1060    1.7020 C   0  0  0  0  0  0  0  0  0  0  0  0
   -5.7990    1.1660    2.3470 C   0  0  0  0  0  0  0  0  0  0  0  0
   -6.4410    1.7970    3.2220 O   0  0  0  0  0  0  0  0  0  0  0  0
   -4.5910    1.4720    1.7810 O   0  0  0  0  0  0  0  0  0  0  0  0
   -4.2400    0.5050    0.8540 C   0  0  0  0  0  0  0  0  0  0  0  0
   -2.9580    0.6050    0.0900 C   0  0  0  0  0  0  0  0  0  0  0  0
   -2.8320   -0.4510   -0.7580 O   0  0  0  0  0  0  0  0  0  0  0  0
   -1.7180   -0.5000   -1.5320 C   0  0  0  0  0  0  0  0  0  0  0  0
   -0.4240   -0.5950   -0.8480 C   0  0  0  0  0  0  0  0  0  0  0  0
   -0.3460   -0.6630    0.4010 O   0  0  0  0  0  0  0  0  0  0  0  0
    0.7690   -0.6100   -1.6180 N   0  0  0  0  0  0  0  0  0  0  0  0
    2.0410   -0.7100   -0.8480 C   0  0  2  0  0  0  0  0  0  0  0  0
    2.8950    0.4760   -1.1650 C   0  0  0  0  0  0  0  0  0  0  0  0
    4.1580    0.5040   -0.4170 C   0  0  0  0  0  0  0  0  0  0  0  0
    4.4700   -0.2950    0.4920 O   0  0  0  0  0  0  0  0  0  0  0  0
    5.1370    1.4890   -0.7070 O   0  0  0  0  0  0  0  0  0  0  0  0
    6.3460    1.5100    0.0120 C   0  0  1  0  0  0  0  0  0  0  0  0
    7.5420    1.3120   -0.9040 C   0  0  0  0  0  0  0  0  0  0  0  0
    6.5470    2.8090    0.7190 C   0  0  0  0  0  0  0  0  0  0  0  0
    5.6830    3.6540    0.6010 O   0  0  0  0  0  0  0  0  0  0  0  0
    2.6790   -1.9450   -1.4320 C   0  0  0  0  0  0  0  0  0  0  0  0
    3.9160   -2.3860   -0.9230 N   0  0  0  0  0  0  0  0  0  0  0  0
    2.1310   -2.5990   -2.3700 O   0  0  0  0  0  0  0  0  0  0  0  0
   -5.1900   -0.4400    0.7890 C   0  0  0  0  0  0  0  0  0  0  0  0
   -5.3860   -1.6630    0.0320 C   0  0  0  0  0  0  0  0  0  0  0  0
   -4.6970   -2.2390   -0.8350 O   0  0  0  0  0  0  0  0  0  0  0  0
   -6.9650   -2.2480    0.6410 S   0  0  0  0  0  0  0  0  0  0  0  0
  1  2  1  0
  2  3  2  0
  2 29  1  0
  3  4  1  0
  3 26  1  0
  4  5  2  0
  4  6  1  0
  6  7  1  0
  7  8  1  0
  7 26  2  0
  8  9  1  0
  9 10  1  0
 10 11  1  0
 11 12  2  0
 11 13  1  0
 13 14  1  0
 14 15  1  6
 14 23  1  0
 15 16  1  0
 16 17  2  0
 16 18  1  0
 18 19  1  0
 19 20  1  6
 19 21  1  0
 21 22  2  0
 23 24  1  0
 23 25  2  0
 26 27  1  0
 27 28  2  0
 27 29  1  0
M  END
