
     RDKit          3D

 31 34  0  0  0  0  0  0  0  0999 V2000
    5.2410   -0.4980    3.9630 O   0  0  0  0  0  0  0  0  0  0  0  0
    4.9100    0.1390    2.8970 C   0  0  0  0  0  0  0  0  0  0  0  0
    4.5810    1.5360    3.0580 C   0  0  0  0  0  0  0  0  0  0  0  0
    3.8520    2.0560    1.9970 O   0  0  0  0  0  0  0  0  0  0  0  0
    2.5680    1.5830    1.6660 C   0  0  0  0  0  0  0  0  0  0  0  0
    1.9340    0.5760    2.3580 C   0  0  0  0  0  0  0  0  0  0  0  0
    0.6580    0.1640    1.9640 C   0  0  0  0  0  0  0  0  0  0  0  0
   -0.0030    0.7370    0.8900 C   0  0  0  0  0  0  0  0  0  0  0  0
   -1.3480    0.2230    0.5540 C   0  0  0  0  0  0  0  0  0  0  0  0
   -1.7630   -0.8360    1.0890 O   0  0  0  0  0  0  0  0  0  0  0  0
   -2.1800    0.8990   -0.3590 N   0  0  0  0  0  0  0  0  0  0  0  0
   -3.4680    0.5190   -0.7620 C   0  0  0  0  0  0  0  0  0  0  0  0
   -4.0880    1.3430   -1.7190 C   0  0  0  0  0  0  0  0  0  0  0  0
   -5.3500    1.0870   -2.1990 C   0  0  0  0  0  0  0  0  0  0  0  0
   -5.9040    1.9190   -3.1280 F   0  0  0  0  0  0  0  0  0  0  0  0
   -6.0780   -0.0020   -1.7610 C   0  0  0  0  0  0  0  0  0  0  0  0
   -5.4830   -0.8140   -0.8250 C   0  0  0  0  0  0  0  0  0  0  0  0
   -4.1970   -0.5450   -0.3430 C   0  0  0  0  0  0  0  0  0  0  0  0
   -6.4460   -1.8950   -0.5180 C   0  0  0  0  0  0  0  0  0  0  0  0
   -7.7630   -1.2380   -0.9520 C   0  0  0  0  0  0  0  0  0  0  0  0
   -7.3600   -0.4680   -2.0920 N   0  0  0  0  0  0  0  0  0  0  0  0
    0.6360    1.7350    0.2100 C   0  0  0  0  0  0  0  0  0  0  0  0
    1.9210    2.1560    0.6000 C   0  0  0  0  0  0  0  0  0  0  0  0
    4.8930   -0.5690    1.6430 C   0  0  0  0  0  0  0  0  0  0  0  0
    5.0420   -1.9530    1.4810 C   0  0  0  0  0  0  0  0  0  0  0  0
    5.0270   -2.2200    0.1740 N   0  0  0  0  0  0  0  0  0  0  0  0
    4.8800   -1.1080   -0.5050 N   0  0  0  0  0  0  0  0  0  0  0  0
    4.8100   -0.9070   -1.9380 C   0  0  0  0  0  0  0  0  0  0  0  0
    6.2280   -0.6790   -2.4470 C   0  0  0  0  0  0  0  0  0  0  0  0
    7.2250   -2.0900   -2.0750 Cl  0  0  0  0  0  0  0  0  0  0  0  0
    4.7970   -0.0750    0.3860 C   0  0  0  0  0  0  0  0  0  0  0  0
  1  2  2  0
  2  3  1  0
  2 24  1  0
  3  4  1  0
  4  5  1  0
  5  6  2  0
  5 23  1  0
  6  7  1  0
  7  8  2  0
  8  9  1  0
  8 22  1  0
  9 10  2  0
  9 11  1  0
 11 12  1  0
 12 13  2  0
 12 18  1  0
 13 14  1  0
 14 15  1  0
 14 16  2  0
 16 17  1  0
 16 21  1  0
 17 18  2  0
 17 19  1  0
 19 20  1  0
 20 21  1  0
 22 23  2  0
 24 25  1  0
 24 31  2  0
 25 26  2  0
 26 27  1  0
 27 28  1  0
 27 31  1  0
 28 29  1  0
 29 30  1  0
M  CHG  1  21   1
M  END
