
     RDKit          3D

 29 30  0  0  0  0  0  0  0  0999 V2000
   -4.5730   -2.7050    2.4110 C   0  0  0  0  0  0  0  0  0  0  0  0
   -5.0640   -1.4490    1.9940 O   0  0  0  0  0  0  0  0  0  0  0  0
   -4.4130   -0.7970    0.9620 C   0  0  0  0  0  0  0  0  0  0  0  0
   -3.3140   -1.3730    0.3650 C   0  0  0  0  0  0  0  0  0  0  0  0
   -2.6410   -0.7540   -0.6650 C   0  0  0  0  0  0  0  0  0  0  0  0
   -3.1160    0.4700   -1.0720 C   0  0  0  0  0  0  0  0  0  0  0  0
   -2.5110    1.1630   -2.0860 O   0  0  0  0  0  0  0  0  0  0  0  0
   -1.3780    0.7810   -2.8070 C   0  0  0  0  0  0  0  0  0  0  0  0
   -0.2150    0.6860   -1.9210 C   0  0  0  0  0  0  0  0  0  0  0  0
   -0.2960    0.9570   -0.6990 O   0  0  0  0  0  0  0  0  0  0  0  0
    1.0030    0.2940   -2.4270 O   0  0  0  0  0  0  0  0  0  0  0  0
    2.1510    0.1970   -1.5930 C   0  0  0  0  0  0  0  0  0  0  0  0
    1.9280   -0.7950   -0.5170 C   0  0  0  0  0  0  0  0  0  0  0  0
    0.8620   -1.4500   -0.5150 O   0  0  0  0  0  0  0  0  0  0  0  0
    3.0820   -1.1200    0.7880 S   0  0  0  0  0  0  0  0  0  0  0  0
    4.5070   -0.0580    0.6680 C   0  0  2  0  0  0  0  0  0  0  0  0
    5.4040   -0.3060   -0.5110 C   0  0  0  0  0  0  0  0  0  0  0  0
    6.7700    0.0960    0.0510 C   0  0  2  0  0  0  0  0  0  0  0  0
    7.8820   -0.4590   -0.8040 C   0  0  0  0  0  0  0  0  0  0  0  0
    9.0780   -0.1890   -0.1820 O   0  0  0  0  0  0  0  0  0  0  0  0
    6.7320   -0.4580    1.3310 O   0  0  0  0  0  0  0  0  0  0  0  0
    5.4510   -0.2760    1.8230 C   0  0  0  0  0  0  0  0  0  0  0  0
    5.0900   -0.2820    3.0050 O   0  0  0  0  0  0  0  0  0  0  0  0
   -4.2410    1.0720   -0.4690 C   0  0  0  0  0  0  0  0  0  0  0  0
   -4.9080    0.4530    0.5540 C   0  0  0  0  0  0  0  0  0  0  0  0
   -6.0360    0.9500    1.2300 N   0  0  0  0  0  0  0  0  0  0  0  0
   -6.6960    2.1760    0.9880 C   0  0  0  0  0  0  0  0  0  0  0  0
   -7.8540    2.5400    1.7810 N   0  0  0  0  0  0  0  0  0  0  0  0
   -6.2820    2.9330    0.0990 O   0  0  0  0  0  0  0  0  0  0  0  0
  1  2  1  0
  2  3  1  0
  3  4  2  0
  3 25  1  0
  4  5  1  0
  5  6  2  0
  6  7  1  0
  6 24  1  0
  7  8  1  0
  8  9  1  0
  9 10  2  0
  9 11  1  0
 11 12  1  0
 12 13  1  0
 13 14  2  0
 13 15  1  0
 16 15  1  1
 16 17  1  0
 16 22  1  0
 17 18  1  0
 18 19  1  6
 18 21  1  0
 19 20  1  0
 21 22  1  0
 22 23  2  0
 24 25  2  0
 25 26  1  0
 26 27  1  0
 27 28  1  0
 27 29  2  0
M  END
