
     RDKit          3D

 31 34  0  0  0  0  0  0  0  0999 V2000
    8.1950   -1.0870    2.0700 C   0  0  0  0  0  0  0  0  0  0  0  0
    6.8680   -0.4400    1.8450 C   0  0  0  0  0  0  0  0  0  0  0  0
    6.5350    0.7780    2.4090 C   0  0  0  0  0  0  0  0  0  0  0  0
    5.2840    1.0310    1.9880 N   0  0  0  0  0  0  0  0  0  0  0  0
    4.8650    0.0230    1.2050 C   0  0  0  0  0  0  0  0  0  0  0  0
    3.5870   -0.1020    0.5500 N   0  0  0  0  0  0  0  0  0  0  0  0
    2.5980    0.8840    0.6780 C   0  0  0  0  0  0  0  0  0  0  0  0
    2.8950    1.8920    1.4060 O   0  0  0  0  0  0  0  0  0  0  0  0
    1.2680    0.8770    0.0680 C   0  0  0  0  0  0  0  0  0  0  0  0
    0.9700   -0.2620   -0.7370 N   0  0  1  0  0  0  0  0  0  0  0  0
    0.5180   -1.4140   -0.0180 C   0  0  0  0  0  0  0  0  0  0  0  0
   -0.7870   -1.1880    0.7080 C   0  0  0  0  0  0  0  0  0  0  0  0
   -1.7760   -0.8370   -0.2850 N   0  0  0  0  0  0  0  0  0  0  0  0
   -3.1600   -1.1820   -0.0600 C   0  0  0  0  0  0  0  0  0  0  0  0
   -3.7120   -0.5570    1.1700 C   0  0  0  0  0  0  0  0  0  0  0  0
   -4.3170    0.6930    1.1010 C   0  0  0  0  0  0  0  0  0  0  0  0
   -4.8280    1.2720    2.2400 C   0  0  0  0  0  0  0  0  0  0  0  0
   -4.7150    0.5720    3.4260 C   0  0  0  0  0  0  0  0  0  0  0  0
   -4.1130   -0.6690    3.4900 C   0  0  0  0  0  0  0  0  0  0  0  0
   -3.5960   -1.2590    2.3520 C   0  0  0  0  0  0  0  0  0  0  0  0
   -1.3310   -0.1600   -1.4530 C   0  0  0  0  0  0  0  0  0  0  0  0
   -0.0490    0.1120   -1.6700 C   0  0  0  0  0  0  0  0  0  0  0  0
    0.3300    0.8100   -2.8900 C   0  0  0  0  0  0  0  0  0  0  0  0
   -0.5630    1.1900   -3.8080 C   0  0  0  0  0  0  0  0  0  0  0  0
   -0.1200    2.0220   -5.2650 Cl  0  0  0  0  0  0  0  0  0  0  0  0
   -1.9650    0.8880   -3.5610 C   0  0  0  0  0  0  0  0  0  0  0  0
   -2.9070    1.2470   -4.4490 C   0  0  0  0  0  0  0  0  0  0  0  0
   -4.3220    0.9170   -4.1530 C   0  0  0  0  0  0  0  0  0  0  0  0
   -5.1100    2.0700   -4.0850 F   0  0  0  0  0  0  0  0  0  0  0  0
   -2.2890    0.2250   -2.3930 O   0  0  0  0  0  0  0  0  0  0  0  0
    5.8520   -0.8380    1.1490 O   0  0  0  0  0  0  0  0  0  0  0  0
  1  2  1  0
  2  3  2  0
  2 31  1  0
  3  4  1  0
  4  5  2  0
  5  6  1  0
  5 31  1  0
  6  7  1  0
  7  8  2  0
  7  9  1  0
 10  9  1  1
 10 11  1  0
 10 22  1  0
 11 12  1  0
 12 13  1  0
 13 14  1  0
 13 21  1  0
 14 15  1  0
 15 16  2  0
 15 20  1  0
 16 17  1  0
 17 18  2  0
 18 19  1  0
 19 20  2  0
 21 22  2  0
 21 30  1  0
 22 23  1  0
 23 24  2  0
 24 25  1  0
 24 26  1  0
 26 27  2  3
 26 30  1  0
 27 28  1  0
 28 29  1  0
M  CHG  1  10   1
M  END
