
     RDKit          3D

 31 33  0  0  0  0  0  0  0  0999 V2000
    0.5830   -4.8580    0.2060 C   0  0  0  0  0  0  0  0  0  0  0  0
    1.3430   -4.3360   -0.8070 O   0  0  0  0  0  0  0  0  0  0  0  0
    0.9490   -3.0790   -1.1950 C   0  0  0  0  0  0  0  0  0  0  0  0
    1.0600   -2.0580   -0.0970 C   0  0  0  0  0  0  0  0  0  0  0  0
    0.6460   -0.7340   -0.5340 N   0  0  0  0  0  0  0  0  0  0  0  0
    1.6060    0.1350   -1.0800 C   0  0  0  0  0  0  0  0  0  0  0  0
    1.2790    1.3490   -1.3800 O   0  0  0  0  0  0  0  0  0  0  0  0
    2.9960   -0.1730   -1.3660 C   0  0  0  0  0  0  0  0  0  0  0  0
    3.5090   -1.2830   -1.2020 O   0  0  0  0  0  0  0  0  0  0  0  0
    3.8710    0.8480   -1.8790 N   0  0  0  0  0  0  0  0  0  0  0  0
    5.2600    0.5620   -2.1800 C   0  0  0  0  0  0  0  0  0  0  0  0
    6.0110    0.0980   -0.9650 C   0  0  0  0  0  0  0  0  0  0  0  0
    6.0030    1.1400    0.1280 C   0  0  0  0  0  0  0  0  0  0  0  0
    5.5170    1.0300    1.3360 C   0  0  0  0  0  0  0  0  0  0  0  0
    5.7400    2.3060    2.0410 C   0  0  0  0  0  0  0  0  0  0  0  0
    6.4270    3.1660    1.0700 C   0  0  0  0  0  0  0  0  0  0  0  0
    6.8640    4.4510    1.2150 F   0  0  0  0  0  0  0  0  0  0  0  0
    6.5640    2.4500   -0.0420 C   0  0  0  0  0  0  0  0  0  0  0  0
    7.3470    3.0590   -1.5150 Cl  0  0  0  0  0  0  0  0  0  0  0  0
   -0.7160   -0.3830   -0.3730 C   0  0  0  0  0  0  0  0  0  0  0  0
   -1.6210   -1.3470    0.0750 C   0  0  0  0  0  0  0  0  0  0  0  0
   -2.9780   -1.0410    0.2320 C   0  0  0  0  0  0  0  0  0  0  0  0
   -3.4830    0.2060   -0.0430 C   0  0  0  0  0  0  0  0  0  0  0  0
   -4.8810    0.4900    0.1090 N   0  0  0  0  0  0  0  0  0  0  0  0
   -5.4340    1.8020   -0.1620 C   0  0  0  0  0  0  0  0  0  0  0  0
   -6.4930    2.2360    0.7970 C   0  0  0  0  0  0  0  0  0  0  0  0
   -7.3350    1.1610    1.3850 C   0  0  0  0  0  0  0  0  0  0  0  0
   -6.4650   -0.0060    1.8270 C   0  0  0  0  0  0  0  0  0  0  0  0
   -5.8310   -0.5180    0.5220 C   0  0  0  0  0  0  0  0  0  0  0  0
   -2.6100    1.1140   -0.4670 N   0  0  0  0  0  0  0  0  0  0  0  0
   -1.2730    0.8470   -0.6310 C   0  0  0  0  0  0  0  0  0  0  0  0
  1  2  1  0
  2  3  1  0
  3  4  1  0
  4  5  1  0
  5  6  1  0
  5 20  1  0
  6  7  2  0
  6  8  1  0
  8  9  2  0
  8 10  1  0
 10 11  1  0
 11 12  1  0
 12 13  1  0
 13 14  2  0
 13 18  1  0
 14 15  1  0
 15 16  1  0
 16 17  1  0
 16 18  2  0
 18 19  1  0
 20 21  2  0
 20 31  1  0
 21 22  1  0
 22 23  2  0
 23 24  1  0
 23 30  1  0
 24 25  1  0
 24 29  1  0
 25 26  1  0
 26 27  1  0
 27 28  1  0
 28 29  1  0
 30 31  2  0
M  CHG  1  30   1
M  END
