
     RDKit          3D

 30 33  0  0  0  0  0  0  0  0999 V2000
    5.1520    1.6830    2.5790 C   0  0  0  0  0  0  0  0  0  0  0  0
    4.5600    1.4600    1.2040 C   0  0  0  0  0  0  0  0  0  0  0  0
    4.2330   -0.0060    0.9800 C   0  0  0  0  0  0  0  0  0  0  0  0
    3.6590   -0.2730   -0.3540 C   0  0  0  0  0  0  0  0  0  0  0  0
    2.3140   -0.4800   -0.5290 C   0  0  0  0  0  0  0  0  0  0  0  0
    1.8240   -0.7270   -1.7880 C   0  0  0  0  0  0  0  0  0  0  0  0
    0.4350   -0.9420   -2.1250 C   0  0  0  0  0  0  0  0  0  0  0  0
    0.1630   -1.5560   -3.1700 O   0  0  0  0  0  0  0  0  0  0  0  0
   -0.6170   -0.4490   -1.2610 C   0  0  0  0  0  0  0  0  0  0  0  0
   -0.7840    0.9360   -1.1290 C   0  0  0  0  0  0  0  0  0  0  0  0
   -1.8220    1.4450   -0.4090 C   0  0  0  0  0  0  0  0  0  0  0  0
   -1.9350    2.8290   -0.2540 C   0  0  0  0  0  0  0  0  0  0  0  0
   -2.9330    3.3870    0.5040 C   0  0  0  0  0  0  0  0  0  0  0  0
   -3.0350    4.8840    0.6540 C   0  0  0  0  0  0  0  0  0  0  0  0
   -3.8220    2.5600    1.1150 C   0  0  0  0  0  0  0  0  0  0  0  0
   -3.7450    1.1620    0.9840 C   0  0  0  0  0  0  0  0  0  0  0  0
   -2.7570    0.6220    0.2220 C   0  0  0  0  0  0  0  0  0  0  0  0
   -2.6240   -0.7510    0.1060 C   0  0  0  0  0  0  0  0  0  0  0  0
   -3.5220   -1.5990    0.6900 C   0  0  0  0  0  0  0  0  0  0  0  0
   -4.7780   -1.1920    1.3100 C   0  0  0  0  0  0  0  0  0  0  0  0
   -3.2710   -2.9830    0.5170 C   0  0  0  0  0  0  0  0  0  0  0  0
   -2.2320   -3.4440   -0.1770 N   0  0  0  0  0  0  0  0  0  0  0  0
   -2.0550   -4.8730   -0.2810 C   0  0  0  0  0  0  0  0  0  0  0  0
   -1.3710   -2.6250   -0.7530 C   0  0  0  0  0  0  0  0  0  0  0  0
   -0.3790   -3.0530   -1.4130 O   0  0  0  0  0  0  0  0  0  0  0  0
   -1.5270   -1.2650   -0.6450 C   0  0  0  0  0  0  0  0  0  0  0  0
    2.7530   -0.7540   -2.8430 C   0  0  0  0  0  0  0  0  0  0  0  0
    4.0920   -0.5500   -2.6880 C   0  0  0  0  0  0  0  0  0  0  0  0
    4.5580   -0.3040   -1.4200 C   0  0  0  0  0  0  0  0  0  0  0  0
    5.9270   -0.0920   -1.2430 O   0  0  0  0  0  0  0  0  0  0  0  0
  1  2  1  0
  2  3  1  0
  3  4  1  0
  4  5  2  0
  4 29  1  0
  5  6  1  0
  6  7  1  0
  6 27  2  0
  7  8  2  0
  7  9  1  0
  9 10  2  0
  9 26  1  0
 10 11  1  0
 11 12  2  0
 11 17  1  0
 12 13  1  0
 13 14  1  0
 13 15  2  0
 15 16  1  0
 16 17  2  0
 17 18  1  0
 18 19  1  0
 18 26  2  0
 19 20  1  0
 19 21  2  0
 21 22  1  0
 22 23  1  0
 22 24  1  0
 24 25  2  0
 24 26  1  0
 27 28  1  0
 28 29  2  0
 29 30  1  0
M  END
