
     RDKit          3D

 30 33  0  0  0  0  0  0  0  0999 V2000
    9.0740   -0.5170    1.3930 C   0  0  0  0  0  0  0  0  0  0  0  0
    7.6790   -0.2170    0.9650 C   0  0  0  0  0  0  0  0  0  0  0  0
    6.6730   -1.1560    1.0520 C   0  0  0  0  0  0  0  0  0  0  0  0
    5.3650   -0.8870    0.6550 C   0  0  0  0  0  0  0  0  0  0  0  0
    4.3680   -1.8190    0.7430 C   0  0  0  0  0  0  0  0  0  0  0  0
    3.0590   -1.5220    0.3360 C   0  0  0  0  0  0  0  0  0  0  0  0
    2.6990   -0.2990   -0.1670 C   0  0  0  0  0  0  0  0  0  0  0  0
    1.4140    0.0970   -0.5880 N   0  0  0  0  0  0  0  0  0  0  0  0
    0.2280   -0.6050   -0.3930 C   0  0  0  0  0  0  0  0  0  0  0  0
    0.2250   -1.6920    0.2060 O   0  0  0  0  0  0  0  0  0  0  0  0
   -1.1000   -0.1220   -0.8750 C   0  0  0  0  0  0  0  0  0  0  0  0
   -2.1940   -1.0820   -0.4820 C   0  0  0  0  0  0  0  0  0  0  0  0
   -3.5190   -0.6590   -0.9370 C   0  0  0  0  0  0  0  0  0  0  0  0
   -3.8440   -0.8540   -2.2780 C   0  0  0  0  0  0  0  0  0  0  0  0
   -2.9760   -1.4340   -3.1900 O   0  0  0  0  0  0  0  0  0  0  0  0
   -5.0850   -0.4530   -2.7170 C   0  0  0  0  0  0  0  0  0  0  0  0
   -5.4390   -0.6600   -4.1570 C   0  0  0  0  0  0  0  0  0  0  0  0
   -6.0160    0.1310   -1.8870 C   0  0  0  0  0  0  0  0  0  0  0  0
   -5.7110    0.3350   -0.5420 C   0  0  0  0  0  0  0  0  0  0  0  0
   -4.4730   -0.0650   -0.1060 C   0  0  0  0  0  0  0  0  0  0  0  0
   -4.3500    0.2190    1.2630 O   0  0  0  0  0  0  0  0  0  0  0  0
   -5.5930    0.5740    1.7870 C   0  0  1  0  0  0  0  0  0  0  0  0
   -6.1510   -0.6010    2.5630 C   0  0  0  0  0  0  0  0  0  0  0  0
   -5.5410    1.8260    2.6550 C   0  0  0  0  0  0  0  0  0  0  0  0
   -6.4520    0.9200    0.5980 C   0  0  0  0  0  0  0  0  0  0  0  0
    3.7470    0.6360   -0.2440 C   0  0  0  0  0  0  0  0  0  0  0  0
    5.0280    0.3490    0.1530 C   0  0  0  0  0  0  0  0  0  0  0  0
    6.0440    1.2920    0.0660 C   0  0  0  0  0  0  0  0  0  0  0  0
    7.3380    1.0240    0.4590 C   0  0  0  0  0  0  0  0  0  0  0  0
    8.4090    2.0600    0.3540 C   0  0  0  0  0  0  0  0  0  0  0  0
  1  2  1  0
  2  3  2  0
  2 29  1  0
  3  4  1  0
  4  5  2  0
  4 27  1  0
  5  6  1  0
  6  7  2  0
  7  8  1  0
  7 26  1  0
  8  9  1  0
  9 10  2  0
  9 11  1  0
 11 12  1  0
 12 13  1  0
 13 14  2  0
 13 20  1  0
 14 15  1  0
 14 16  1  0
 16 17  1  0
 16 18  2  0
 18 19  1  0
 19 20  2  0
 19 25  1  0
 20 21  1  0
 21 22  1  0
 22 23  1  1
 22 24  1  0
 22 25  1  0
 26 27  2  0
 27 28  1  0
 28 29  2  0
 29 30  1  0
M  END
