
     RDKit          3D

 30 33  0  0  0  0  0  0  0  0999 V2000
   -5.6870    2.0890    0.8390 C   0  0  0  0  0  0  0  0  0  0  0  0
   -4.7060    1.2050    0.0540 C   0  0  1  0  0  0  0  0  0  0  0  0
   -4.6530    1.7670   -1.3380 C   0  0  0  0  0  0  0  0  0  0  0  0
   -3.4040    1.2580    0.7710 C   0  0  0  0  0  0  0  0  0  0  0  0
   -2.5050    0.1460    0.3570 C   0  0  0  0  0  0  0  0  0  0  0  0
   -1.1290    0.3090    0.6000 C   0  0  0  0  0  0  0  0  0  0  0  0
   -0.2050   -0.6490    0.2600 C   0  0  0  0  0  0  0  0  0  0  0  0
    1.1480   -0.4670    0.5090 O   0  0  0  0  0  0  0  0  0  0  0  0
    1.7640   -0.8460    1.6570 C   0  0  0  0  0  0  0  0  0  0  0  0
    0.9210   -1.4050    2.5020 O   0  0  0  0  0  0  0  0  0  0  0  0
    3.1010   -0.7660    2.1160 C   0  0  0  0  0  0  0  0  0  0  0  0
    4.2320   -0.3190    1.7020 C   0  0  0  0  0  0  0  0  0  0  0  0
    4.7030    0.3490    0.5270 C   0  0  0  0  0  0  0  0  0  0  0  0
    3.8980    0.9790   -0.3860 C   0  0  0  0  0  0  0  0  0  0  0  0
    4.3810    1.5600   -1.5510 C   0  0  0  0  0  0  0  0  0  0  0  0
    5.7100    1.5160   -1.8210 C   0  0  0  0  0  0  0  0  0  0  0  0
    6.5690    0.8870   -0.9230 C   0  0  0  0  0  0  0  0  0  0  0  0
    7.9230    0.8540   -1.2320 C   0  0  0  0  0  0  0  0  0  0  0  0
    8.3110    1.4000   -2.3070 O   0  0  0  0  0  0  0  0  0  0  0  0
    8.7520    0.2500   -0.3890 N   0  0  0  0  0  0  0  0  0  0  0  0
    8.3580   -0.3300    0.7480 C   0  0  0  0  0  0  0  0  0  0  0  0
    6.9880   -0.3060    1.0790 C   0  0  0  0  0  0  0  0  0  0  0  0
    6.0900    0.3070    0.2380 C   0  0  0  0  0  0  0  0  0  0  0  0
   -0.6990   -1.7900   -0.3370 C   0  0  0  0  0  0  0  0  0  0  0  0
   -2.0390   -1.9690   -0.5840 C   0  0  0  0  0  0  0  0  0  0  0  0
   -2.9870   -0.9860   -0.2350 C   0  0  0  0  0  0  0  0  0  0  0  0
   -4.4100   -1.2190   -0.5180 C   0  0  2  0  0  0  0  0  0  0  0  0
   -4.8000   -2.5280    0.1940 C   0  0  0  0  0  0  0  0  0  0  0  0
   -4.6620   -1.4970   -1.9890 C   0  0  0  0  0  0  0  0  0  0  0  0
   -5.3000   -0.1720    0.0140 C   0  0  0  0  0  0  0  0  0  0  0  0
  2  1  1  1
  2  3  1  0
  2  4  1  0
  2 30  1  0
  4  5  1  0
  5  6  2  0
  5 26  1  0
  6  7  1  0
  7  8  1  0
  7 24  2  0
  8  9  1  0
  9 10  2  0
  9 11  1  0
 11 12  2  3
 12 13  1  0
 13 14  2  0
 13 23  1  0
 14 15  1  0
 15 16  2  0
 16 17  1  0
 17 18  1  0
 17 23  2  0
 18 19  2  0
 18 20  1  0
 20 21  1  0
 21 22  2  0
 22 23  1  0
 24 25  1  0
 25 26  2  0
 26 27  1  0
 27 28  1  1
 27 29  1  0
 27 30  1  0
M  END
