
     RDKit          3D

 31 33  0  0  0  0  0  0  0  0999 V2000
    8.1920    0.8050   -2.1420 N   0  0  0  0  0  0  0  0  0  0  0  0
    7.1790   -0.0650   -1.6570 C   0  0  0  0  0  0  0  0  0  0  0  0
    7.1350   -1.2540   -2.1160 N   0  0  0  0  0  0  0  0  0  0  0  0
    6.2100    0.3880   -0.6580 C   0  0  0  0  0  0  0  0  0  0  0  0
    5.2080   -0.3900   -0.1420 C   0  0  0  0  0  0  0  0  0  0  0  0
    4.3140    0.1070    0.8140 C   0  0  0  0  0  0  0  0  0  0  0  0
    4.4080    1.3890    1.2700 C   0  0  0  0  0  0  0  0  0  0  0  0
    3.4510    1.9160    2.2910 C   0  0  0  0  0  0  0  0  0  0  0  0
    2.4790    0.9000    2.6360 N   0  0  0  0  0  0  0  0  0  0  0  0
    1.3920    0.5440    1.8110 C   0  0  0  0  0  0  0  0  0  0  0  0
    1.2230    1.1190    0.7070 O   0  0  0  0  0  0  0  0  0  0  0  0
    0.4320   -0.5010    2.2140 C   0  0  2  0  0  0  0  0  0  0  0  0
    0.8500   -1.9070    2.0130 C   0  0  0  0  0  0  0  0  0  0  0  0
    0.2010   -1.7130    0.6330 C   0  0  0  0  0  0  0  0  0  0  0  0
   -0.6350   -0.7250    1.2160 N   0  0  0  0  0  0  0  0  0  0  0  0
   -1.8790   -0.1070    1.0490 C   0  0  0  0  0  0  0  0  0  0  0  0
   -2.2100    0.7730    1.9470 O   0  0  0  0  0  0  0  0  0  0  0  0
   -2.8900   -0.3000   -0.0030 C   0  0  2  0  0  0  0  0  0  0  0  0
   -2.4280   -1.1120   -1.0530 N   0  0  0  0  0  0  0  0  0  0  0  0
   -3.0140   -2.4560   -1.0210 C   0  0  0  0  0  0  0  0  0  0  0  0
   -3.3360   -2.9600   -2.3490 C   0  0  0  0  0  0  0  0  0  0  0  0
   -3.1120   -2.2580   -3.3580 O   0  0  0  0  0  0  0  0  0  0  0  0
   -3.8890   -4.2110   -2.5110 O   0  0  0  0  0  0  0  0  0  0  0  0
   -3.5560    0.9850   -0.4120 C   0  0  2  0  0  0  0  0  0  0  0  0
   -4.2740    1.6620    0.7270 C   0  0  0  0  0  0  0  0  0  0  0  0
   -5.5900    2.2820    0.3160 C   0  0  0  0  0  0  0  0  0  0  0  0
   -6.5060    1.2360   -0.2360 C   0  0  0  0  0  0  0  0  0  0  0  0
   -5.8210    0.2490   -1.1520 C   0  0  0  0  0  0  0  0  0  0  0  0
   -4.4920    0.8920   -1.5530 C   0  0  0  0  0  0  0  0  0  0  0  0
    5.4060    2.1850    0.7660 C   0  0  0  0  0  0  0  0  0  0  0  0
    6.2930    1.7020   -0.1780 C   0  0  0  0  0  0  0  0  0  0  0  0
  1  2  1  0
  2  3  2  0
  2  4  1  0
  4  5  2  0
  4 31  1  0
  5  6  1  0
  6  7  2  0
  7  8  1  0
  7 30  1  0
  8  9  1  0
  9 10  1  0
 10 11  2  0
 12 10  1  6
 12 13  1  0
 12 15  1  0
 13 14  1  0
 14 15  1  0
 15 16  1  0
 16 17  2  0
 16 18  1  0
 18 19  1  6
 18 24  1  0
 19 20  1  0
 20 21  1  0
 21 22  2  0
 21 23  1  0
 24 25  1  1
 24 29  1  0
 25 26  1  0
 26 27  1  0
 27 28  1  0
 28 29  1  0
 30 31  2  0
M  CHG  2   3   1  19   1
M  END
