
     RDKit          3D

 31 34  0  0  0  0  0  0  0  0999 V2000
   -9.3160    0.6620    1.4940 C   0  0  0  0  0  0  0  0  0  0  0  0
   -8.0440    1.1700    0.8670 C   0  0  0  0  0  0  0  0  0  0  0  0
   -7.3180    0.0220    0.2130 C   0  0  0  0  0  0  0  0  0  0  0  0
   -7.0240   -0.9250    1.1840 O   0  0  0  0  0  0  0  0  0  0  0  0
   -6.3570   -2.0110    0.6620 C   0  0  0  0  0  0  0  0  0  0  0  0
   -5.0690   -1.5660    0.0460 C   0  0  0  0  0  0  0  0  0  0  0  0
   -4.8120   -1.1670   -1.2550 C   0  0  0  0  0  0  0  0  0  0  0  0
   -3.5510   -0.8140   -1.5460 C   0  0  0  0  0  0  0  0  0  0  0  0
   -3.0780   -0.3770   -2.8110 C   0  0  0  0  0  0  0  0  0  0  0  0
   -3.8960   -0.2730   -3.8830 F   0  0  0  0  0  0  0  0  0  0  0  0
   -1.7760   -0.0490   -2.9700 C   0  0  0  0  0  0  0  0  0  0  0  0
   -0.8100   -0.0990   -1.9780 C   0  0  0  0  0  0  0  0  0  0  0  0
    0.5160    0.2650   -2.2090 N   0  0  0  0  0  0  0  0  0  0  0  0
    1.6030    0.1040   -1.3330 C   0  0  0  0  0  0  0  0  0  0  0  0
    1.4610   -0.4130   -0.2100 O   0  0  0  0  0  0  0  0  0  0  0  0
    2.9890    0.5440   -1.7020 C   0  0  0  0  0  0  0  0  0  0  0  0
    3.9500    0.2500   -0.5850 C   0  0  0  0  0  0  0  0  0  0  0  0
    3.5210   -0.2850    0.4430 O   0  0  0  0  0  0  0  0  0  0  0  0
    5.2850    0.6160   -0.8050 N   0  0  0  0  0  0  0  0  0  0  0  0
    6.2980    0.3930    0.1590 C   0  0  0  0  0  0  0  0  0  0  0  0
    6.1960   -0.4520    1.2310 C   0  0  0  0  0  0  0  0  0  0  0  0
    7.2290   -0.6000    2.1490 C   0  0  0  0  0  0  0  0  0  0  0  0
    8.3730    0.1340    1.9490 C   0  0  0  0  0  0  0  0  0  0  0  0
    8.4920    0.9870    0.8770 C   0  0  0  0  0  0  0  0  0  0  0  0
    7.4720    1.1250   -0.0170 C   0  0  0  0  0  0  0  0  0  0  0  0
    9.7550    1.6040    0.9180 O   0  0  0  0  0  0  0  0  0  0  0  0
   10.5210    0.8300    1.8280 C   0  0  0  0  0  0  0  0  0  0  0  0
    9.5630    0.2040    2.6800 O   0  0  0  0  0  0  0  0  0  0  0  0
   -1.2590   -0.5210   -0.7520 C   0  0  0  0  0  0  0  0  0  0  0  0
   -2.6060   -0.8610   -0.5830 C   0  0  0  0  0  0  0  0  0  0  0  0
   -3.5380   -1.4390    0.8370 S   0  0  0  0  0  0  0  0  0  0  0  0
  1  2  1  0
  2  3  1  0
  3  4  1  0
  4  5  1  0
  5  6  1  0
  6  7  2  0
  6 31  1  0
  7  8  1  0
  8  9  2  0
  8 30  1  0
  9 10  1  0
  9 11  1  0
 11 12  2  0
 12 13  1  0
 12 29  1  0
 13 14  1  0
 14 15  2  0
 14 16  1  0
 16 17  1  0
 17 18  2  0
 17 19  1  0
 19 20  1  0
 20 21  2  0
 20 25  1  0
 21 22  1  0
 22 23  2  0
 23 24  1  0
 23 28  1  0
 24 25  2  0
 24 26  1  0
 26 27  1  0
 27 28  1  0
 29 30  2  0
 30 31  1  0
M  END
