
     RDKit          3D

 30 33  0  0  0  0  0  0  0  0999 V2000
    8.5200    0.7680    0.2490 C   0  0  0  0  0  0  0  0  0  0  0  0
    7.0710    0.4310    0.2320 C   0  0  0  0  0  0  0  0  0  0  0  0
    6.3330    0.5630    1.3880 C   0  0  0  0  0  0  0  0  0  0  0  0
    4.9820    0.2730    1.4610 C   0  0  0  0  0  0  0  0  0  0  0  0
    4.3690   -0.1660    0.3130 C   0  0  0  0  0  0  0  0  0  0  0  0
    5.0960   -0.3070   -0.8690 C   0  0  0  0  0  0  0  0  0  0  0  0
    6.4430   -0.0110   -0.9140 C   0  0  0  0  0  0  0  0  0  0  0  0
    7.2650   -0.1440   -2.1460 C   0  0  0  0  0  0  0  0  0  0  0  0
    2.9630   -0.4000    0.6510 C   0  0  0  0  0  0  0  0  0  0  0  0
    1.9480   -0.8540   -0.2010 C   0  0  0  0  0  0  0  0  0  0  0  0
    0.6720   -1.0200    0.2860 C   0  0  0  0  0  0  0  0  0  0  0  0
   -0.4420   -1.5010   -0.5840 C   0  0  2  0  0  0  0  0  0  0  0  0
   -0.0660   -1.3050   -2.0370 C   0  0  0  0  0  0  0  0  0  0  0  0
   -1.5980   -0.6610   -0.3220 N   0  0  0  0  0  0  0  0  0  0  0  0
   -2.8180   -1.1850    0.1520 C   0  0  0  0  0  0  0  0  0  0  0  0
   -2.9480   -2.4420    0.3680 O   0  0  0  0  0  0  0  0  0  0  0  0
   -3.9770   -0.3590    0.4200 C   0  0  0  0  0  0  0  0  0  0  0  0
   -5.1320   -0.8850    0.8630 C   0  0  0  0  0  0  0  0  0  0  0  0
   -5.2640   -2.2280    1.0800 O   0  0  0  0  0  0  0  0  0  0  0  0
   -6.2300    0.0900    1.0910 C   0  0  0  0  0  0  0  0  0  0  0  0
   -6.4120    0.9950   -0.1250 C   0  0  1  0  0  0  0  0  0  0  0  0
   -6.7260    0.1780   -1.3600 C   0  0  0  0  0  0  0  0  0  0  0  0
   -7.6330    1.8610    0.1680 C   0  0  0  0  0  0  0  0  0  0  0  0
   -5.1640    1.8210   -0.2780 C   0  0  0  0  0  0  0  0  0  0  0  0
   -3.9860    1.0880    0.2480 C   0  0  0  0  0  0  0  0  0  0  0  0
   -2.9340    1.7450    0.5660 O   0  0  0  0  0  0  0  0  0  0  0  0
    0.4470   -0.7250    1.6130 C   0  0  0  0  0  0  0  0  0  0  0  0
    1.4460   -0.2790    2.4490 C   0  0  0  0  0  0  0  0  0  0  0  0
    2.7350   -0.1080    1.9720 C   0  0  0  0  0  0  0  0  0  0  0  0
    4.0090    0.3400    2.5740 C   0  0  0  0  0  0  0  0  0  0  0  0
  1  2  1  0
  2  3  2  0
  2  7  1  0
  3  4  1  0
  4  5  2  0
  4 30  1  0
  5  6  1  0
  5  9  1  0
  6  7  2  0
  7  8  1  0
  9 10  2  0
  9 29  1  0
 10 11  1  0
 11 12  1  0
 11 27  2  0
 12 13  1  6
 12 14  1  0
 14 15  1  0
 15 16  2  0
 15 17  1  0
 17 18  2  0
 17 25  1  0
 18 19  1  0
 18 20  1  0
 20 21  1  0
 21 22  1  6
 21 23  1  0
 21 24  1  0
 24 25  1  0
 25 26  2  0
 27 28  1  0
 28 29  2  0
 29 30  1  0
M  END
