
     RDKit          3D

 31 33  0  0  0  0  0  0  0  0999 V2000
   -0.7340   -0.3200   -0.5640 C   0  0  0  0  0  0  0  0  0  0  0  0
   -0.7710   -1.5070    0.3400 C   0  0  2  0  0  0  0  0  0  0  0  0
    0.5110   -1.9560    0.8970 C   0  0  0  0  0  0  0  0  0  0  0  0
    1.3290   -1.0870    1.7440 C   0  0  0  0  0  0  0  0  0  0  0  0
    1.9250    0.1080    1.1350 C   0  0  0  0  0  0  0  0  0  0  0  0
    1.9840    0.3700   -0.0710 O   0  0  0  0  0  0  0  0  0  0  0  0
    2.4980    1.0750    2.0090 O   0  0  0  0  0  0  0  0  0  0  0  0
    3.0850    2.2250    1.4810 C   0  0  0  0  0  0  0  0  0  0  0  0
    4.2570    1.9930    0.6280 C   0  0  0  0  0  0  0  0  0  0  0  0
    4.7690    3.0000    0.0300 O   0  0  0  0  0  0  0  0  0  0  0  0
    4.8340    0.7130    0.4460 N   0  0  0  0  0  0  0  0  0  0  0  0
    5.9830    0.5470   -0.4090 C   0  0  0  0  0  0  0  0  0  0  0  0
    5.9950   -0.2300   -1.4790 C   0  0  0  0  0  0  0  0  0  0  0  0
    7.3360   -0.1460   -2.0970 C   0  0  0  0  0  0  0  0  0  0  0  0
    8.0660    0.7870   -1.2180 C   0  0  0  0  0  0  0  0  0  0  0  0
    7.2860    1.1910   -0.2400 C   0  0  0  0  0  0  0  0  0  0  0  0
    7.6230    2.0530    0.7570 F   0  0  0  0  0  0  0  0  0  0  0  0
   -1.3340   -2.6960   -0.4750 C   0  0  0  0  0  0  0  0  0  0  0  0
   -2.7870   -2.8440   -0.1910 C   0  0  0  0  0  0  0  0  0  0  0  0
   -3.3110   -3.9930   -0.0880 O   0  0  0  0  0  0  0  0  0  0  0  0
   -3.5350   -1.6410   -0.0470 N   0  0  0  0  0  0  0  0  0  0  0  0
   -3.0830   -0.7480    0.7660 C   0  0  0  0  0  0  0  0  0  0  0  0
   -3.8070    0.8180    1.1280 S   0  0  0  0  0  0  0  0  0  0  0  0
   -5.3090    1.1130    0.2640 C   0  0  0  0  0  0  0  0  0  0  0  0
   -5.9870    2.3350    0.4670 C   0  0  0  0  0  0  0  0  0  0  0  0
   -7.1550    2.6060   -0.1810 C   0  0  0  0  0  0  0  0  0  0  0  0
   -7.7520    1.7330   -1.0620 C   0  0  0  0  0  0  0  0  0  0  0  0
   -7.1050    0.5410   -1.2690 C   0  0  0  0  0  0  0  0  0  0  0  0
   -7.6390   -0.3990   -2.1430 O   0  0  0  0  0  0  0  0  0  0  0  0
   -5.9050    0.2420   -0.6150 C   0  0  0  0  0  0  0  0  0  0  0  0
   -1.7890   -1.1700    1.4380 C   0  0  0  0  0  0  0  0  0  0  0  0
  2  1  1  6
  2  3  1  0
  2 18  1  0
  2 31  1  0
  3  4  1  0
  4  5  1  0
  5  6  2  0
  5  7  1  0
  7  8  1  0
  8  9  1  0
  9 10  2  0
  9 11  1  0
 11 12  1  0
 12 13  2  0
 12 16  1  0
 13 14  1  0
 14 15  1  0
 15 16  2  0
 16 17  1  0
 18 19  1  0
 19 20  2  0
 19 21  1  0
 21 22  2  0
 22 23  1  0
 22 31  1  0
 23 24  1  0
 24 25  2  0
 24 30  1  0
 25 26  1  0
 26 27  2  0
 27 28  1  0
 28 29  1  0
 28 30  2  0
M  END
