
     RDKit          3D

 30 33  0  0  0  0  0  0  0  0999 V2000
    4.6360   -0.8740    1.9870 C   0  0  0  0  0  0  0  0  0  0  0  0
    5.4140   -1.2920    0.7690 C   0  0  0  0  0  0  0  0  0  0  0  0
    5.7680   -2.5480    0.5710 C   0  0  0  0  0  0  0  0  0  0  0  0
    6.5030   -2.5840   -0.6960 C   0  0  0  0  0  0  0  0  0  0  0  0
    6.5240   -1.2010   -1.1830 C   0  0  0  0  0  0  0  0  0  0  0  0
    5.8750   -0.4480   -0.3080 C   0  0  0  0  0  0  0  0  0  0  0  0
    5.6700    1.0580   -0.4210 C   0  0  0  0  0  0  0  0  0  0  0  0
    4.4400    1.4230   -0.4690 O   0  0  0  0  0  0  0  0  0  0  0  0
    3.1990    1.7800   -0.4940 C   0  0  0  0  0  0  0  0  0  0  0  0
    2.2200    1.5680    0.4710 C   0  0  0  0  0  0  0  0  0  0  0  0
    0.9210    1.9830    0.3670 C   0  0  0  0  0  0  0  0  0  0  0  0
    0.0150    1.7630    1.4750 C   0  0  0  0  0  0  0  0  0  0  0  0
   -1.1490    1.2570    1.5560 C   0  0  0  0  0  0  0  0  0  0  0  0
   -1.7600    1.2390    2.9570 C   0  0  0  0  0  0  0  0  0  0  0  0
   -1.9030    0.5590    0.5480 C   0  0  0  0  0  0  0  0  0  0  0  0
   -3.3000    0.5750    0.7400 C   0  0  0  0  0  0  0  0  0  0  0  0
   -4.1050   -0.1120   -0.1240 C   0  0  0  0  0  0  0  0  0  0  0  0
   -3.5780   -0.8070   -1.1590 C   0  0  0  0  0  0  0  0  0  0  0  0
   -2.2660   -0.8170   -1.3300 N   0  0  0  0  0  0  0  0  0  0  0  0
   -1.4050   -0.1540   -0.5050 C   0  0  0  0  0  0  0  0  0  0  0  0
   -0.1780   -0.2140   -0.7170 O   0  0  0  0  0  0  0  0  0  0  0  0
   -4.5140   -1.5450   -2.0700 C   0  0  0  0  0  0  0  0  0  0  0  0
   -5.5150   -2.2290   -1.2020 C   0  0  0  0  0  0  0  0  0  0  0  0
   -6.3170   -1.2810   -0.3510 C   0  0  1  0  0  0  0  0  0  0  0  0
   -6.8580   -2.0610    0.8260 C   0  0  0  0  0  0  0  0  0  0  0  0
   -5.5810   -0.0720    0.0840 C   0  0  0  0  0  0  0  0  0  0  0  0
    0.5250    2.6730   -0.7870 C   0  0  0  0  0  0  0  0  0  0  0  0
    1.4660    2.8940   -1.7500 C   0  0  0  0  0  0  0  0  0  0  0  0
    2.7420    2.4830   -1.6420 C   0  0  0  0  0  0  0  0  0  0  0  0
    3.6340    2.7530   -2.6760 O   0  0  0  0  0  0  0  0  0  0  0  0
  1  2  1  0
  2  3  2  0
  2  6  1  0
  3  4  1  0
  4  5  1  0
  5  6  2  0
  6  7  1  0
  7  8  1  0
  8  9  1  0
  9 10  2  0
  9 29  1  0
 10 11  1  0
 11 12  1  0
 11 27  2  0
 12 13  2  3
 13 14  1  0
 13 15  1  0
 15 16  2  0
 15 20  1  0
 16 17  1  0
 17 18  2  0
 17 26  1  0
 18 19  1  0
 18 22  1  0
 19 20  1  0
 20 21  2  0
 22 23  1  0
 23 24  1  0
 24 25  1  1
 24 26  1  0
 27 28  1  0
 28 29  2  0
 29 30  1  0
M  END
