
     RDKit          3D

 20 22  0  0  0  0  0  0  0  0999 V2000
    7.0260    1.3220   -0.1160 N   0  0  0  0  0  0  0  0  0  0  0  0
    6.3870    0.0570    0.1890 C   0  0  0  0  0  0  0  0  0  0  0  0
    4.9240    0.1670   -0.1210 C   0  0  0  0  0  0  0  0  0  0  0  0
    4.3030   -1.0830    0.1830 O   0  0  0  0  0  0  0  0  0  0  0  0
    2.9250   -1.2250   -0.0260 C   0  0  0  0  0  0  0  0  0  0  0  0
    2.3300   -2.4810   -0.3400 N   0  0  0  0  0  0  0  0  0  0  0  0
    2.2170   -0.1510    0.0820 N   0  0  0  0  0  0  0  0  0  0  0  0
    0.8140   -0.1300   -0.1000 C   0  0  0  0  0  0  0  0  0  0  0  0
   -0.0310   -0.1060    0.9960 C   0  0  0  0  0  0  0  0  0  0  0  0
   -1.4040   -0.0850    0.7920 C   0  0  0  0  0  0  0  0  0  0  0  0
   -1.9360   -0.0860   -0.4690 C   0  0  0  0  0  0  0  0  0  0  0  0
   -1.0150   -0.1110   -1.5470 C   0  0  0  0  0  0  0  0  0  0  0  0
    0.3100   -0.1320   -1.3410 N   0  0  0  0  0  0  0  0  0  0  0  0
   -3.4020   -0.0440   -0.5470 C   0  0  2  0  0  0  0  0  0  0  0  0
   -3.8280   -0.6480   -1.7260 O   0  0  0  0  0  0  0  0  0  0  0  0
   -3.9460    1.3640   -0.4180 C   0  0  0  0  0  0  0  0  0  0  0  0
   -5.0060    1.3490    0.5430 N   0  0  0  0  0  0  0  0  0  0  0  0
   -5.3290   -0.0430    0.8060 C   0  0  0  0  0  0  0  0  0  0  0  0
   -4.0090   -0.7120    0.6560 C   0  0  2  0  0  0  0  0  0  0  0  0
   -2.8100   -0.0790    1.9160 S   0  0  0  0  0  0  0  0  0  0  0  0
  1  2  1  0
  2  3  1  0
  3  4  1  0
  4  5  1  0
  5  6  1  0
  5  7  2  3
  7  8  1  0
  8  9  2  0
  8 13  1  0
  9 10  1  0
 10 11  2  0
 10 20  1  0
 11 12  1  0
 11 14  1  0
 12 13  2  0
 14 15  1  6
 14 16  1  0
 14 19  1  0
 16 17  1  0
 17 18  1  0
 19 18  1  1
 19 20  1  0
M  CHG  1  17   1
M  END
