
     RDKit          3D

 20 22  0  0  0  0  0  0  0  0999 V2000
   -2.5020    1.0520    1.6990 O   0  0  0  0  0  0  0  0  0  0  0  0
   -2.7610    0.6760    0.5020 C   0  0  0  0  0  0  0  0  0  0  0  0
   -1.7270    0.4650   -0.4280 N   0  0  0  0  0  0  0  0  0  0  0  0
   -0.4100    0.6540   -0.0550 N   0  0  0  0  0  0  0  0  0  0  0  0
    0.1810    1.8780    0.3110 C   0  0  0  0  0  0  0  0  0  0  0  0
   -0.7050    3.2330    0.3250 S   0  0  0  0  0  0  0  0  0  0  0  0
    1.5420    1.9360    0.6740 N   0  0  0  0  0  0  0  0  0  0  0  0
    2.2460    0.7350    0.6560 N   0  0  0  0  0  0  0  0  0  0  0  0
    3.4000    0.5340   -0.1140 C   0  0  0  0  0  0  0  0  0  0  0  0
    3.8280    1.4880   -0.8260 O   0  0  0  0  0  0  0  0  0  0  0  0
    4.0850   -0.7850   -0.0680 C   0  0  1  0  0  0  0  0  0  0  0  0
    4.8290   -1.2610   -1.3330 C   0  0  0  0  0  0  0  0  0  0  0  0
    5.5220   -0.7650   -0.2100 C   0  0  1  0  0  0  0  0  0  0  0  0
    6.5010    0.2050    0.0920 C   0  0  0  0  0  0  0  0  0  0  0  0
    6.5610   -1.2540    0.6530 C   0  0  0  0  0  0  0  0  0  0  0  0
   -4.1950    0.4840    0.1950 C   0  0  2  0  0  0  0  0  0  0  0  0
   -4.7670   -0.6940    0.9840 C   0  0  0  0  0  0  0  0  0  0  0  0
   -6.0590   -0.9540    0.2560 C   0  0  0  0  0  0  0  0  0  0  0  0
   -5.7990   -0.4830   -1.1320 C   0  0  0  0  0  0  0  0  0  0  0  0
   -4.4530    0.0730   -1.1530 N   0  0  0  0  0  0  0  0  0  0  0  0
  1  2  2  0
  2  3  1  0
 16  2  1  6
  3  4  1  0
  4  5  1  0
  5  6  2  0
  5  7  1  0
  7  8  1  0
  8  9  1  0
  9 10  2  0
 11  9  1  6
 11 12  1  0
 11 13  1  0
 13 12  1  6
 13 14  1  0
 13 15  1  0
 14 15  1  0
 16 17  1  0
 16 20  1  0
 17 18  1  0
 18 19  1  0
 19 20  1  0
M  CHG  1  20   1
M  END
