
     RDKit          3D

 10 10  0  0  0  0  0  0  0  0999 V2000
    3.5890    0.7960   -0.5470 N   0  0  0  0  0  0  0  0  0  0  0  0
    2.2730    0.3280   -0.8020 C   0  0  0  0  0  0  0  0  0  0  0  0
    1.9590   -0.6130   -2.4270 Br  0  0  0  0  0  0  0  0  0  0  0  0
    1.2990    0.5420    0.0660 C   0  0  0  0  0  0  0  0  0  0  0  0
   -0.0170    0.1020   -0.1370 N   0  0  0  0  0  0  0  0  0  0  0  0
   -1.0560    1.0090   -0.5270 C   0  0  0  0  0  0  0  0  0  0  0  0
   -2.3650    0.5480    0.1130 C   0  0  0  0  0  0  0  0  0  0  0  0
   -2.0670   -0.1480    1.2810 O   0  0  0  0  0  0  0  0  0  0  0  0
   -1.4510   -1.3570    1.0770 C   0  0  0  0  0  0  0  0  0  0  0  0
   -0.3450   -1.2810    0.0470 C   0  0  0  0  0  0  0  0  0  0  0  0
  1  2  1  0
  2  3  1  0
  2  4  2  3
  4  5  1  0
  5  6  1  0
  5 10  1  0
  6  7  1  0
  7  8  1  0
  8  9  1  0
  9 10  1  0
M  END
