
     RDKit          3D

 20 22  0  0  0  0  0  0  0  0999 V2000
   -1.5570    3.8770   -0.6950 N   0  0  0  0  0  0  0  0  0  0  0  0
   -1.4820    2.5030   -0.3270 C   0  0  0  0  0  0  0  0  0  0  0  0
   -0.3350    1.8860    0.1340 C   0  0  0  0  0  0  0  0  0  0  0  0
   -0.2910    0.5620    0.4970 C   0  0  0  0  0  0  0  0  0  0  0  0
    0.9510   -0.0290    1.0560 C   0  0  0  0  0  0  0  0  0  0  0  0
    2.2600    1.2340    0.9640 S   0  0  0  0  0  0  0  0  0  0  0  0
    3.7630    0.4690    0.3020 C   0  0  0  0  0  0  0  0  0  0  0  0
    4.8840    1.0800   -0.0920 N   0  0  0  0  0  0  0  0  0  0  0  0
    5.7310    0.1340   -0.5200 C   0  0  0  0  0  0  0  0  0  0  0  0
    5.1090   -1.0950   -0.3840 C   0  0  0  0  0  0  0  0  0  0  0  0
    3.9020   -0.8590    0.1230 N   0  0  0  0  0  0  0  0  0  0  0  0
   -1.4300   -0.2060    0.4030 C   0  0  0  0  0  0  0  0  0  0  0  0
   -1.3710   -1.5180    0.7470 N   0  0  0  0  0  0  0  0  0  0  0  0
   -2.4680   -2.2980    0.6510 C   0  0  0  0  0  0  0  0  0  0  0  0
   -2.4290   -3.6940    0.9920 N   0  0  0  0  0  0  0  0  0  0  0  0
   -3.6040   -1.7410    0.2100 N   0  0  0  0  0  0  0  0  0  0  0  0
   -3.7010   -0.4440   -0.1420 C   0  0  0  0  0  0  0  0  0  0  0  0
   -4.7870    0.0700   -0.5570 O   0  0  0  0  0  0  0  0  0  0  0  0
   -2.5990    0.3650   -0.0530 C   0  0  0  0  0  0  0  0  0  0  0  0
   -2.6140    1.6920   -0.4070 C   0  0  0  0  0  0  0  0  0  0  0  0
  1  2  1  0
  2  3  2  0
  2 20  1  0
  3  4  1  0
  4  5  1  0
  4 12  2  0
  5  6  1  0
  6  7  1  0
  7  8  2  0
  7 11  1  0
  8  9  1  0
  9 10  2  0
 10 11  1  0
 12 13  1  0
 12 19  1  0
 13 14  2  0
 14 15  1  0
 14 16  1  0
 16 17  1  0
 17 18  2  0
 17 19  1  0
 19 20  2  0
M  END
