
     RDKit          3D

 28 30  0  0  0  0  0  0  0  0999 V2000
    6.7080    2.5780    0.9830 C   0  0  0  0  0  0  0  0  0  0  0  0
    6.5460    1.2030    0.4760 C   0  0  0  0  0  0  0  0  0  0  0  0
    7.6590    0.4080    0.3480 C   0  0  0  0  0  0  0  0  0  0  0  0
    7.5250   -0.8830   -0.1270 C   0  0  0  0  0  0  0  0  0  0  0  0
    8.7620   -1.6960   -0.2420 C   0  0  0  0  0  0  0  0  0  0  0  0
    6.2750   -1.3460   -0.4630 C   0  0  0  0  0  0  0  0  0  0  0  0
    5.1330   -0.5810   -0.3500 C   0  0  0  0  0  0  0  0  0  0  0  0
    3.8650   -1.1900   -0.7460 C   0  0  0  0  0  0  0  0  0  0  0  0
    2.7070   -0.5300   -0.1950 N   0  0  0  0  0  0  0  0  0  0  0  0
    1.4100   -1.0430   -0.6120 C   0  0  0  0  0  0  0  0  0  0  0  0
    1.3820   -2.0010   -1.4040 O   0  0  0  0  0  0  0  0  0  0  0  0
    0.2160   -0.4790   -0.1380 N   0  0  0  0  0  0  0  0  0  0  0  0
   -1.1170   -0.8470   -0.4300 C   0  0  0  0  0  0  0  0  0  0  0  0
   -1.3560   -1.9840   -1.1940 C   0  0  0  0  0  0  0  0  0  0  0  0
   -2.6430   -2.3820   -1.4880 C   0  0  0  0  0  0  0  0  0  0  0  0
   -3.6940   -1.6530   -1.0230 C   0  0  0  0  0  0  0  0  0  0  0  0
   -3.5180   -0.4900   -0.2420 C   0  0  0  0  0  0  0  0  0  0  0  0
   -2.2220   -0.1350    0.0220 C   0  0  0  0  0  0  0  0  0  0  0  0
   -1.8290    1.0520    0.7960 C   0  0  1  0  0  0  0  0  0  0  0  0
   -1.5790    2.1520   -0.1170 N   0  0  0  0  0  0  0  0  0  0  0  0
   -2.9160    1.4470    1.8020 C   0  0  0  0  0  0  0  0  0  0  0  0
   -3.9690    2.1640    1.0310 C   0  0  0  0  0  0  0  0  0  0  0  0
   -5.1090    1.2770    0.6810 C   0  0  0  0  0  0  0  0  0  0  0  0
   -4.8510   -0.0090    0.0520 C   0  0  1  0  0  0  0  0  0  0  0  0
   -5.6450   -0.1050   -1.2750 C   0  0  0  0  0  0  0  0  0  0  0  0
   -5.5100   -1.0740    0.9540 C   0  0  0  0  0  0  0  0  0  0  0  0
   -6.8580   -0.7130    1.3180 N   0  0  0  0  0  0  0  0  0  0  0  0
    5.2950    0.7020    0.1260 C   0  0  0  0  0  0  0  0  0  0  0  0
  1  2  1  0
  2  3  2  0
  2 28  1  0
  3  4  1  0
  4  5  1  0
  4  6  2  0
  6  7  1  0
  7  8  1  0
  7 28  2  0
  8  9  1  0
  9 10  1  0
 10 11  2  0
 10 12  1  0
 12 13  1  0
 13 14  2  0
 13 18  1  0
 14 15  1  0
 15 16  2  0
 16 17  1  0
 17 18  2  0
 17 24  1  0
 18 19  1  0
 19 20  1  6
 19 21  1  0
 21 22  1  0
 22 23  1  0
 23 24  1  0
 24 25  1  6
 24 26  1  0
 26 27  1  0
M  CHG  2  20   1  27   1
M  END
