
     RDKit          3D

 27 30  0  0  0  0  0  0  0  0999 V2000
   -4.9970    0.8640    0.4760 C   0  0  0  0  0  0  0  0  0  0  0  0
   -4.1670    0.2560   -0.3250 C   0  0  0  0  0  0  0  0  0  0  0  0
   -4.3050   -1.1010   -0.9820 C   0  0  0  0  0  0  0  0  0  0  0  0
   -2.9050   -1.6240   -0.9180 C   0  0  2  0  0  0  0  0  0  0  0  0
   -2.8180   -2.4850    0.3500 C   0  0  1  0  0  0  0  0  0  0  0  0
   -3.7460   -3.6260    0.3770 C   0  0  0  0  0  0  0  0  0  0  0  0
   -2.2550   -3.8350    0.2930 C   0  0  0  0  0  0  0  0  0  0  0  0
   -1.9750   -0.4840   -0.6880 C   0  0  0  0  0  0  0  0  0  0  0  0
   -0.7020   -0.5930   -0.4390 C   0  0  0  0  0  0  0  0  0  0  0  0
    0.2700    0.4310   -0.1990 C   0  0  0  0  0  0  0  0  0  0  0  0
    1.5310    0.1120    0.0270 C   0  0  0  0  0  0  0  0  0  0  0  0
    2.0800   -1.2070    0.0630 N   0  0  0  0  0  0  0  0  0  0  0  0
    3.3430   -1.1910    0.3070 C   0  0  0  0  0  0  0  0  0  0  0  0
    4.2450   -2.3810    0.4180 C   0  0  0  0  0  0  0  0  0  0  0  0
    4.8330   -2.4090    1.7180 N   0  0  0  0  0  0  0  0  0  0  0  0
    3.7640    0.1930    0.4600 C   0  0  0  0  0  0  0  0  0  0  0  0
    4.9900    0.7720    0.7260 C   0  0  0  0  0  0  0  0  0  0  0  0
    5.0580    2.1540    0.8120 C   0  0  0  0  0  0  0  0  0  0  0  0
    3.9650    2.9730    0.6450 C   0  0  0  0  0  0  0  0  0  0  0  0
    4.0870    4.3780    0.7420 N   0  0  0  0  0  0  0  0  0  0  0  0
    2.7350    2.3760    0.3770 C   0  0  0  0  0  0  0  0  0  0  0  0
    2.6620    1.0030    0.2910 C   0  0  0  0  0  0  0  0  0  0  0  0
   -2.8430    0.6920   -0.8430 C   0  0  0  0  0  0  0  0  0  0  0  0
   -2.5310    1.8300   -1.3710 C   0  0  0  0  0  0  0  0  0  0  0  0
   -3.3770    2.9710   -1.6050 C   0  0  0  0  0  0  0  0  0  0  0  0
   -2.8860    4.1880   -2.1750 N   0  0  0  0  0  0  0  0  0  0  0  0
   -4.6030    2.9300   -1.3120 O   0  0  0  0  0  0  0  0  0  0  0  0
  1  2  2  0
  2  3  1  0
  2 23  1  0
  4  3  1  1
  4  5  1  0
  4  8  1  0
  5  6  1  6
  5  7  1  0
  6  7  1  0
  8  9  2  3
  8 23  1  0
  9 10  1  0
 10 11  2  3
 11 12  1  0
 11 22  1  0
 12 13  2  0
 13 14  1  0
 13 16  1  0
 14 15  1  0
 16 17  2  0
 16 22  1  0
 17 18  1  0
 18 19  2  0
 19 20  1  0
 19 21  1  0
 21 22  2  0
 23 24  2  3
 24 25  1  0
 25 26  1  0
 25 27  2  0
M  CHG  1  15   1
M  END
