
     RDKit          3D

 22 23  0  0  0  0  0  0  0  0999 V2000
   -6.0070    0.0070    0.3760 N   0  0  0  0  0  0  0  0  0  0  0  0
   -4.8600    0.6750   -0.1080 C   0  0  0  0  0  0  0  0  0  0  0  0
   -4.9700    2.0640   -1.1900 Cl  0  0  0  0  0  0  0  0  0  0  0  0
   -3.6560    0.2370    0.2680 C   0  0  0  0  0  0  0  0  0  0  0  0
   -2.4580    0.8750   -0.1900 C   0  0  0  0  0  0  0  0  0  0  0  0
   -1.2580    0.4430    0.1810 C   0  0  0  0  0  0  0  0  0  0  0  0
   -0.1110    1.2140   -0.3820 C   0  0  0  0  0  0  0  0  0  0  0  0
    0.7990    0.4620   -1.1690 N   0  0  0  0  0  0  0  0  0  0  0  0
    0.4420    0.1360   -2.4800 C   0  0  0  0  0  0  0  0  0  0  0  0
    1.3940   -0.6470   -3.0370 C   0  0  0  0  0  0  0  0  0  0  0  0
    2.3620   -0.8270   -2.0970 C   0  0  0  0  0  0  0  0  0  0  0  0
    1.9620   -0.1240   -0.9500 C   0  0  0  0  0  0  0  0  0  0  0  0
    2.7950   -0.1330    0.2610 C   0  0  0  0  0  0  0  0  0  0  0  0
    2.6660    0.6860    1.3370 C   0  0  0  0  0  0  0  0  0  0  0  0
    3.4820    0.5230    2.4490 C   0  0  0  0  0  0  0  0  0  0  0  0
    4.4120   -0.4280    2.5090 N   0  0  0  0  0  0  0  0  0  0  0  0
    4.5790   -1.2580    1.4770 C   0  0  0  0  0  0  0  0  0  0  0  0
    3.7840   -1.1120    0.3730 C   0  0  0  0  0  0  0  0  0  0  0  0
   -1.1700   -0.7170    1.0770 C   0  0  1  0  0  0  0  0  0  0  0  0
    0.0970   -1.0850    1.4230 F   0  0  0  0  0  0  0  0  0  0  0  0
   -1.8790   -0.4390    2.2600 F   0  0  0  0  0  0  0  0  0  0  0  0
   -1.8210   -1.7740    0.4120 F   0  0  0  0  0  0  0  0  0  0  0  0
  1  2  1  0
  2  3  1  0
  2  4  2  3
  4  5  1  0
  5  6  2  3
  6  7  1  0
  6 19  1  0
  7  8  1  0
  8  9  1  0
  8 12  1  0
  9 10  2  0
 10 11  1  0
 11 12  2  0
 12 13  1  0
 13 14  2  0
 13 18  1  0
 14 15  1  0
 15 16  2  0
 16 17  1  0
 17 18  2  0
 19 20  1  1
 19 21  1  0
 19 22  1  0
M  END
