
     RDKit          3D

 18 19  0  0  0  0  0  0  0  0999 V2000
    5.0570   -0.0290    1.1970 C   0  0  0  0  0  0  0  0  0  0  0  0
    4.0280   -0.0350    0.1180 C   0  0  0  0  0  0  0  0  0  0  0  0
    3.1100   -1.2300    0.0350 C   0  0  0  0  0  0  0  0  0  0  0  0
    1.8420   -0.8310   -1.3210 S   0  0  0  0  0  0  0  0  0  0  0  0
    0.8580    0.4510   -0.5270 C   0  0  0  0  0  0  0  0  0  0  0  0
   -0.5360    0.6180   -0.9120 C   0  0  0  0  0  0  0  0  0  0  0  0
   -1.0290    1.5520   -1.7830 C   0  0  0  0  0  0  0  0  0  0  0  0
   -2.3880    1.8740   -1.7910 C   0  0  0  0  0  0  0  0  0  0  0  0
   -2.9110    2.8950   -2.6410 N   0  0  0  0  0  0  0  0  0  0  0  0
   -3.2810    1.2730   -0.9550 C   0  0  0  0  0  0  0  0  0  0  0  0
   -2.8150    0.3090   -0.0650 C   0  0  0  0  0  0  0  0  0  0  0  0
   -3.6720   -0.4750    0.7300 C   0  0  0  0  0  0  0  0  0  0  0  0
   -4.8880   -0.2250    0.7580 O   0  0  0  0  0  0  0  0  0  0  0  0
   -3.1440   -1.4720    1.4390 N   0  0  0  0  0  0  0  0  0  0  0  0
   -1.7980   -1.7680    1.4340 C   0  0  0  0  0  0  0  0  0  0  0  0
   -1.3490   -2.8850    2.1510 N   0  0  0  0  0  0  0  0  0  0  0  0
   -1.0160   -1.0050    0.6760 N   0  0  0  0  0  0  0  0  0  0  0  0
   -1.5160    0.0270   -0.0720 C   0  0  0  0  0  0  0  0  0  0  0  0
  1  2  1  0
  2  3  1  0
  3  4  1  0
  4  5  1  0
  5  6  1  0
  6  7  2  0
  6 18  1  0
  7  8  1  0
  8  9  1  0
  8 10  2  0
 10 11  1  0
 11 12  1  0
 11 18  2  0
 12 13  2  0
 12 14  1  0
 14 15  1  0
 15 16  1  0
 15 17  2  0
 17 18  1  0
M  END
