
     RDKit          3D

 39 40  0  0  0  0  0  0  0  0999 V2000
   11.5330    0.5050   -1.1530 C   0  0  0  0  0  0  0  0  0  0  0  0
   11.0380   -0.7820   -1.0710 O   0  0  0  0  0  0  0  0  0  0  0  0
    9.7680   -1.1040   -0.6790 C   0  0  0  0  0  0  0  0  0  0  0  0
    9.3550   -2.4180   -0.6350 C   0  0  0  0  0  0  0  0  0  0  0  0
    8.0840   -2.8180   -0.2500 C   0  0  0  0  0  0  0  0  0  0  0  0
    7.1790   -1.8480    0.1130 C   0  0  0  0  0  0  0  0  0  0  0  0
    5.7830   -2.2120    0.5590 C   0  0  0  0  0  0  0  0  0  0  0  0
    4.8030   -1.7680   -0.5300 C   0  0  0  0  0  0  0  0  0  0  0  0
    3.3760   -1.9690   -0.1940 C   0  0  0  0  0  0  0  0  0  0  0  0
    2.9190   -3.2430   -0.0220 O   0  0  0  0  0  0  0  0  0  0  0  0
    1.6420   -3.2730    0.5360 C   0  0  0  0  0  0  0  0  0  0  0  0
    0.6060   -2.4310   -0.0740 C   0  0  1  0  0  0  0  0  0  0  0  0
    0.9270   -1.0530   -0.0540 O   0  0  0  0  0  0  0  0  0  0  0  0
   -0.0450   -2.8510   -1.3480 C   0  0  0  0  0  0  0  0  0  0  0  0
   -1.0130   -1.7150   -1.6870 C   0  0  0  0  0  0  0  0  0  0  0  0
   -1.4180   -1.5190   -2.8560 O   0  0  0  0  0  0  0  0  0  0  0  0
   -1.4650   -0.8650   -0.7400 O   0  0  0  0  0  0  0  0  0  0  0  0
   -2.1990    0.1960   -0.5580 C   0  0  0  0  0  0  0  0  0  0  0  0
   -3.6050    0.4400   -0.8620 C   0  0  0  0  0  0  0  0  0  0  0  0
   -4.3850   -0.3160   -1.7210 C   0  0  0  0  0  0  0  0  0  0  0  0
   -5.7000    0.1080   -1.9490 C   0  0  0  0  0  0  0  0  0  0  0  0
   -6.4940   -0.6430   -2.8420 N   0  0  0  0  0  0  0  0  0  0  0  0
   -6.2160    1.2650   -1.3250 C   0  0  0  0  0  0  0  0  0  0  0  0
   -7.6350    1.6320   -1.5960 C   0  0  0  0  0  0  0  0  0  0  0  0
   -5.4500    1.9960   -0.4880 C   0  0  0  0  0  0  0  0  0  0  0  0
   -5.8770    3.2410    0.1880 C   0  0  0  0  0  0  0  0  0  0  0  0
   -6.1110    4.3100   -0.4630 O   0  0  0  0  0  0  0  0  0  0  0  0
   -6.0350    3.3230    1.5090 O   0  0  0  0  0  0  0  0  0  0  0  0
   -6.3330    4.1370    2.4910 C   0  0  2  0  0  0  0  0  0  0  0  0
   -5.3650    3.9430    3.6340 C   0  0  0  0  0  0  0  0  0  0  0  0
   -4.5930    3.7920    4.5140 N   0  0  0  0  0  0  0  0  0  0  0  0
   -7.6740    3.9290    3.2120 C   0  0  0  0  0  0  0  0  0  0  0  0
   -7.7890    2.5910    3.8320 C   0  0  0  0  0  0  0  0  0  0  0  0
   -6.8280    1.5650    3.6670 N   0  0  0  0  0  0  0  0  0  0  0  0
   -8.7790    2.3150    4.5470 O   0  0  0  0  0  0  0  0  0  0  0  0
   -4.1690    1.5670   -0.2790 C   0  0  0  0  0  0  0  0  0  0  0  0
    7.5590   -0.5330    0.0810 C   0  0  0  0  0  0  0  0  0  0  0  0
    6.6280    0.4380    0.4550 O   0  0  0  0  0  0  0  0  0  0  0  0
    8.8070   -0.1460   -0.2980 C   0  0  0  0  0  0  0  0  0  0  0  0
  1  2  1  0
  2  3  1  0
  3  4  2  0
  3 39  1  0
  4  5  1  0
  5  6  2  0
  6  7  1  0
  6 37  1  0
  7  8  1  0
  8  9  1  0
  9 10  1  0
 10 11  1  0
 11 12  1  0
 12 13  1  6
 12 14  1  0
 14 15  1  0
 15 16  2  0
 15 17  1  0
 17 18  1  0
 18 19  1  0
 19 20  2  0
 19 36  1  0
 20 21  1  0
 21 22  1  0
 21 23  2  0
 23 24  1  0
 23 25  1  0
 25 26  1  0
 25 36  2  0
 26 27  2  0
 26 28  1  0
 28 29  1  0
 29 30  1  1
 29 32  1  0
 30 31  3  0
 32 33  1  0
 33 34  1  0
 33 35  2  0
 37 38  1  0
 37 39  2  0
M  END
