
     RDKit          3D

 45 49  0  0  0  0  0  0  0  0999 V2000
   -5.8100   -2.1600   -1.6250 C   0  0  0  0  0  0  0  0  0  0  0  0
   -5.1870   -2.7570   -0.3790 C   0  0  1  0  0  0  0  0  0  0  0  0
   -6.3780   -3.1460    0.5110 C   0  0  0  0  0  0  0  0  0  0  0  0
   -4.4390   -4.0300   -0.6690 C   0  0  0  0  0  0  0  0  0  0  0  0
   -4.3990   -1.8100    0.3550 N   0  0  0  0  0  0  0  0  0  0  0  0
   -3.2660   -1.1120   -0.1390 C   0  0  0  0  0  0  0  0  0  0  0  0
   -2.9090   -1.3300   -1.3190 O   0  0  0  0  0  0  0  0  0  0  0  0
   -2.5150   -0.1390    0.7300 C   0  0  2  0  0  0  0  0  0  0  0  0
   -3.4910    0.8030    1.3130 C   0  0  0  0  0  0  0  0  0  0  0  0
   -3.1220    2.1940    1.2250 N   0  0  2  0  0  0  0  0  0  0  0  0
   -3.6160    2.7800    0.0190 C   0  0  0  0  0  0  0  0  0  0  0  0
   -4.6900    3.7990    0.2870 C   0  0  0  0  0  0  0  0  0  0  0  0
   -4.2990    5.1230    0.3330 C   0  0  0  0  0  0  0  0  0  0  0  0
   -5.2470    6.0860    0.5770 C   0  0  0  0  0  0  0  0  0  0  0  0
   -6.5520    5.6830    0.7650 C   0  0  0  0  0  0  0  0  0  0  0  0
   -6.9080    4.3760    0.7140 N   0  0  0  0  0  0  0  0  0  0  0  0
   -6.0110    3.4250    0.4800 C   0  0  0  0  0  0  0  0  0  0  0  0
   -1.7380    2.3720    1.4970 C   0  0  0  0  0  0  0  0  0  0  0  0
   -0.8800    1.6180    0.5320 C   0  0  0  0  0  0  0  0  0  0  0  0
   -1.4240    0.4260   -0.0070 N   0  0  1  0  0  0  0  0  0  0  0  0
   -0.4060   -0.5950   -0.1050 C   0  0  0  0  0  0  0  0  0  0  0  0
    0.3610   -0.5980   -1.3930 C   0  0  1  0  0  0  0  0  0  0  0  0
    1.0730    0.5610   -1.6510 O   0  0  0  0  0  0  0  0  0  0  0  0
    1.2930   -1.7700   -1.5170 C   0  0  0  0  0  0  0  0  0  0  0  0
    2.3380   -1.8650   -0.4640 C   0  0  1  0  0  0  0  0  0  0  0  0
    3.1380   -3.1520   -0.7790 C   0  0  0  0  0  0  0  0  0  0  0  0
    3.7560   -3.1070   -2.1190 C   0  0  0  0  0  0  0  0  0  0  0  0
    4.9970   -2.5740   -2.3650 C   0  0  0  0  0  0  0  0  0  0  0  0
    5.5120   -2.5790   -3.6290 C   0  0  0  0  0  0  0  0  0  0  0  0
    4.8090   -3.1130   -4.6790 C   0  0  0  0  0  0  0  0  0  0  0  0
    3.5560   -3.6520   -4.4340 C   0  0  0  0  0  0  0  0  0  0  0  0
    3.0350   -3.6470   -3.1590 C   0  0  0  0  0  0  0  0  0  0  0  0
    3.4020   -0.8000   -0.5680 C   0  0  0  0  0  0  0  0  0  0  0  0
    3.5950   -0.2340   -1.6540 O   0  0  0  0  0  0  0  0  0  0  0  0
    4.1930   -0.4300    0.5540 N   0  0  0  0  0  0  0  0  0  0  0  0
    5.2290    0.5750    0.5290 C   0  0  1  0  0  0  0  0  0  0  0  0
    4.9550    1.6980    1.4800 C   0  0  0  0  0  0  0  0  0  0  0  0
    4.2150    2.8460    1.3710 C   0  0  0  0  0  0  0  0  0  0  0  0
    4.1300    3.7660    2.4260 C   0  0  0  0  0  0  0  0  0  0  0  0
    4.7970    3.5190    3.5960 C   0  0  0  0  0  0  0  0  0  0  0  0
    5.5390    2.3800    3.7210 C   0  0  0  0  0  0  0  0  0  0  0  0
    5.6160    1.4690    2.6620 C   0  0  0  0  0  0  0  0  0  0  0  0
    6.3330    0.1910    2.5740 C   0  0  0  0  0  0  0  0  0  0  0  0
    6.4980   -0.0250    1.0940 C   0  0  1  0  0  0  0  0  0  0  0  0
    6.5170   -1.3950    0.8890 O   0  0  0  0  0  0  0  0  0  0  0  0
  2  1  1  6
  2  3  1  0
  2  4  1  0
  2  5  1  0
  5  6  1  0
  6  7  2  0
  8  6  1  6
  8  9  1  0
  8 20  1  0
  9 10  1  0
 10 11  1  6
 10 18  1  0
 11 12  1  0
 12 13  2  0
 12 17  1  0
 13 14  1  0
 14 15  2  0
 15 16  1  0
 16 17  2  0
 18 19  1  0
 19 20  1  0
 20 21  1  1
 21 22  1  0
 22 23  1  1
 22 24  1  0
 25 24  1  6
 25 26  1  0
 25 33  1  0
 26 27  1  0
 27 28  2  0
 27 32  1  0
 28 29  1  0
 29 30  2  0
 30 31  1  0
 31 32  2  0
 33 34  2  0
 33 35  1  0
 36 35  1  1
 36 37  1  0
 36 44  1  0
 37 38  2  0
 37 42  1  0
 38 39  1  0
 39 40  2  0
 40 41  1  0
 41 42  2  0
 42 43  1  0
 43 44  1  0
 44 45  1  1
M  CHG  2  10   1  20   1
M  END
