
     RDKit          3D

 39 40  0  0  0  0  0  0  0  0999 V2000
   -9.8070   -0.7880   -0.2860 C   0  0  0  0  0  0  0  0  0  0  0  0
   -8.4620   -0.1690   -0.4130 C   0  0  0  0  0  0  0  0  0  0  0  0
   -8.3440    1.0740    0.4780 C   0  0  2  0  0  0  0  0  0  0  0  0
   -8.5910    0.6490    1.8910 C   0  0  0  0  0  0  0  0  0  0  0  0
   -9.2910    2.1310    0.0050 C   0  0  0  0  0  0  0  0  0  0  0  0
   -6.9650    1.5850    0.3280 N   0  0  0  0  0  0  0  0  0  0  0  0
   -5.9000    0.7530    0.6810 C   0  0  0  0  0  0  0  0  0  0  0  0
   -6.1840   -0.3660    1.2260 O   0  0  0  0  0  0  0  0  0  0  0  0
   -4.4930    1.0120    0.4710 N   0  0  0  0  0  0  0  0  0  0  0  0
   -3.6380   -0.1270    0.7560 C   0  0  0  0  0  0  0  0  0  0  0  0
   -2.3770   -0.2020    0.0180 C   0  0  0  0  0  0  0  0  0  0  0  0
   -1.2230    0.5070    0.2350 C   0  0  0  0  0  0  0  0  0  0  0  0
   -0.0760    0.2190   -0.4570 C   0  0  0  0  0  0  0  0  0  0  0  0
    1.1540    0.8830   -0.2750 O   0  0  0  0  0  0  0  0  0  0  0  0
    1.2410    1.8620    0.7120 C   0  0  0  0  0  0  0  0  0  0  0  0
    2.4950    2.5890    0.8960 C   0  0  2  0  0  0  0  0  0  0  0  0
    2.8780    3.2170   -0.3100 O   0  0  0  0  0  0  0  0  0  0  0  0
    3.6350    1.9240    1.5450 C   0  0  0  0  0  0  0  0  0  0  0  0
    4.1860    0.7430    0.8800 C   0  0  0  0  0  0  0  0  0  0  0  0
    3.5560    0.0080    0.1140 O   0  0  0  0  0  0  0  0  0  0  0  0
    5.5590    0.4620    1.1610 N   0  0  0  0  0  0  0  0  0  0  0  0
    6.3280   -0.6000    0.6760 C   0  0  0  0  0  0  0  0  0  0  0  0
    5.8130   -1.8170    0.2670 C   0  0  0  0  0  0  0  0  0  0  0  0
    6.5850   -2.8690   -0.1280 C   0  0  0  0  0  0  0  0  0  0  0  0
    6.1510   -4.1020   -0.5490 O   0  0  0  0  0  0  0  0  0  0  0  0
    7.9630   -2.6920   -0.1130 C   0  0  0  0  0  0  0  0  0  0  0  0
    8.4910   -1.4960    0.2920 C   0  0  0  0  0  0  0  0  0  0  0  0
    7.7220   -0.4520    0.6840 C   0  0  0  0  0  0  0  0  0  0  0  0
    8.2460    0.7260    1.0810 O   0  0  0  0  0  0  0  0  0  0  0  0
    9.4200    1.3610    1.2520 C   0  0  0  0  0  0  0  0  0  0  0  0
   10.2990    1.6490    0.0810 C   0  0  0  0  0  0  0  0  0  0  0  0
   10.7490    0.6020   -0.6480 O   0  0  0  0  0  0  0  0  0  0  0  0
   -0.0830   -0.8040   -1.4040 C   0  0  0  0  0  0  0  0  0  0  0  0
    1.0750   -1.0530   -2.0820 O   0  0  0  0  0  0  0  0  0  0  0  0
    1.1780   -2.0510   -3.0550 C   0  0  0  0  0  0  0  0  0  0  0  0
   -1.2420   -1.5310   -1.6340 C   0  0  0  0  0  0  0  0  0  0  0  0
   -2.3750   -1.2580   -0.9510 C   0  0  0  0  0  0  0  0  0  0  0  0
   -3.5730   -1.9110   -1.0900 O   0  0  0  0  0  0  0  0  0  0  0  0
   -3.8310   -2.9650   -1.9460 C   0  0  0  0  0  0  0  0  0  0  0  0
  1  2  1  0
  2  3  1  0
  3  4  1  1
  3  5  1  0
  3  6  1  0
  6  7  1  0
  7  8  2  0
  7  9  1  0
  9 10  1  0
 10 11  1  0
 11 12  2  0
 11 37  1  0
 12 13  1  0
 13 14  1  0
 13 33  2  0
 14 15  1  0
 15 16  1  0
 16 17  1  6
 16 18  1  0
 18 19  1  0
 19 20  2  0
 19 21  1  0
 21 22  1  0
 22 23  2  0
 22 28  1  0
 23 24  1  0
 24 25  1  0
 24 26  2  0
 26 27  1  0
 27 28  2  0
 28 29  1  0
 29 30  1  0
 30 31  1  0
 31 32  1  0
 33 34  1  0
 33 36  1  0
 34 35  1  0
 36 37  2  0
 37 38  1  0
 38 39  1  0
M  END
