
     RDKit          3D

 39 40  0  0  0  0  0  0  0  0999 V2000
   13.5460    0.2910    1.7840 C   0  0  0  0  0  0  0  0  0  0  0  0
   12.0940   -0.1740    1.6490 C   0  0  0  0  0  0  0  0  0  0  0  0
   11.3670    0.3630    2.6820 O   0  0  0  0  0  0  0  0  0  0  0  0
   10.0310    0.0330    2.7040 C   0  0  0  0  0  0  0  0  0  0  0  0
    9.3740    0.5000    1.4500 C   0  0  0  0  0  0  0  0  0  0  0  0
    7.9400    0.1660    1.4370 N   0  0  0  0  0  0  0  0  0  0  0  0
    7.1080    0.5070    0.3520 C   0  0  0  0  0  0  0  0  0  0  0  0
    7.6220    1.1140   -0.6220 O   0  0  0  0  0  0  0  0  0  0  0  0
    5.6660    0.1700    0.3390 C   0  0  0  0  0  0  0  0  0  0  0  0
    5.2190   -0.4240    1.3210 O   0  0  0  0  0  0  0  0  0  0  0  0
    4.8290    0.5030   -0.7330 N   0  0  0  0  0  0  0  0  0  0  0  0
    3.4480    0.2430   -0.8720 C   0  0  0  0  0  0  0  0  0  0  0  0
    2.7330   -0.3990    0.0800 C   0  0  0  0  0  0  0  0  0  0  0  0
    1.3670   -0.6250   -0.1210 C   0  0  0  0  0  0  0  0  0  0  0  0
    0.7400   -0.2020   -1.2720 C   0  0  0  0  0  0  0  0  0  0  0  0
   -0.5720   -0.3740   -1.5450 O   0  0  0  0  0  0  0  0  0  0  0  0
   -1.5750   -0.9330   -0.7980 C   0  0  0  0  0  0  0  0  0  0  0  0
   -1.9130   -0.1960    0.4830 C   0  0  0  0  0  0  0  0  0  0  0  0
   -2.9260   -0.7800    1.2200 O   0  0  0  0  0  0  0  0  0  0  0  0
   -4.2430   -0.9480    0.9130 C   0  0  0  0  0  0  0  0  0  0  0  0
   -4.9010   -0.5330   -0.2080 C   0  0  0  0  0  0  0  0  0  0  0  0
   -6.2640   -0.7560   -0.4410 C   0  0  0  0  0  0  0  0  0  0  0  0
   -6.9010   -0.2740   -1.6860 C   0  0  2  0  0  0  0  0  0  0  0  0
   -6.1690    0.9220   -2.2310 C   0  0  0  0  0  0  0  0  0  0  0  0
   -8.3610    0.0590   -1.5300 C   0  0  0  0  0  0  0  0  0  0  0  0
   -8.5100    1.1460   -0.4890 C   0  0  1  0  0  0  0  0  0  0  0  0
   -7.8310    2.3010   -0.8480 O   0  0  0  0  0  0  0  0  0  0  0  0
   -9.9660    1.5200   -0.3060 C   0  0  0  0  0  0  0  0  0  0  0  0
  -10.6820    0.3150    0.0700 N   0  0  0  0  0  0  0  0  0  0  0  0
   -6.9990   -1.4270    0.4940 C   0  0  0  0  0  0  0  0  0  0  0  0
   -6.3490   -1.8520    1.6340 C   0  0  0  0  0  0  0  0  0  0  0  0
   -5.0190   -1.6310    1.8540 C   0  0  0  0  0  0  0  0  0  0  0  0
   -4.4300   -2.0860    3.0210 O   0  0  0  0  0  0  0  0  0  0  0  0
   -5.1870   -2.7680    3.9700 C   0  0  0  0  0  0  0  0  0  0  0  0
    1.4870    0.4650   -2.2600 C   0  0  0  0  0  0  0  0  0  0  0  0
    0.8430    0.8870   -3.4190 O   0  0  0  0  0  0  0  0  0  0  0  0
    2.8180    0.6690   -2.0320 C   0  0  0  0  0  0  0  0  0  0  0  0
    3.5610    1.3270   -3.0030 O   0  0  0  0  0  0  0  0  0  0  0  0
    4.2180    0.6430   -4.0550 C   0  0  0  0  0  0  0  0  0  0  0  0
  1  2  1  0
  2  3  1  0
  3  4  1  0
  4  5  1  0
  5  6  1  0
  6  7  1  0
  7  8  2  0
  7  9  1  0
  9 10  2  0
  9 11  1  0
 11 12  1  0
 12 13  2  0
 12 37  1  0
 13 14  1  0
 14 15  2  0
 15 16  1  0
 15 35  1  0
 16 17  1  0
 17 18  1  0
 18 19  1  0
 19 20  1  0
 20 21  2  0
 20 32  1  0
 21 22  1  0
 22 23  1  0
 22 30  2  0
 23 24  1  1
 23 25  1  0
 25 26  1  0
 26 27  1  6
 26 28  1  0
 28 29  1  0
 30 31  1  0
 31 32  2  0
 32 33  1  0
 33 34  1  0
 35 36  1  0
 35 37  2  0
 37 38  1  0
 38 39  1  0
M  END
