
     RDKit          3D

 33 34  0  0  0  0  0  0  0  0999 V2000
   -6.0550   -2.4500    2.6700 C   0  0  0  0  0  0  0  0  0  0  0  0
   -5.1370   -1.2470    2.8710 C   0  0  1  0  0  0  0  0  0  0  0  0
   -5.9650   -0.1020    3.3560 C   0  0  0  0  0  0  0  0  0  0  0  0
   -4.1750   -1.6440    3.9690 C   0  0  0  0  0  0  0  0  0  0  0  0
   -4.4880   -0.9990    1.6520 O   0  0  0  0  0  0  0  0  0  0  0  0
   -3.5760    0.0280    1.4470 C   0  0  0  0  0  0  0  0  0  0  0  0
   -3.3570    0.7620    2.4710 O   0  0  0  0  0  0  0  0  0  0  0  0
   -2.9360    0.2500    0.2050 N   0  0  0  0  0  0  0  0  0  0  0  0
   -2.0090    1.3260    0.0610 C   0  0  1  0  0  0  0  0  0  0  0  0
   -0.6280    0.8800   -0.2540 C   0  0  0  0  0  0  0  0  0  0  0  0
    0.4050    1.6790    0.0010 C   0  0  0  0  0  0  0  0  0  0  0  0
    0.3280    2.9940    0.5780 N   0  0  0  0  0  0  0  0  0  0  0  0
    1.6580    3.4880    0.6740 C   0  0  0  0  0  0  0  0  0  0  0  0
    2.0390    4.6150    1.1300 O   0  0  0  0  0  0  0  0  0  0  0  0
    2.5090    2.4890    0.1660 N   0  0  0  0  0  0  0  0  0  0  0  0
    1.7670    1.3730   -0.2520 N   0  0  0  0  0  0  0  0  0  0  0  0
    2.2940    0.1980   -0.8040 N   0  0  0  0  0  0  0  0  0  0  0  0
    3.5020   -0.3670   -0.2850 C   0  0  0  0  0  0  0  0  0  0  0  0
    4.0350    0.2690    0.6860 O   0  0  0  0  0  0  0  0  0  0  0  0
    4.1320   -1.6000   -0.8030 C   0  0  0  0  0  0  0  0  0  0  0  0
    5.4060   -1.8860   -0.0020 C   0  0  0  0  0  0  0  0  0  0  0  0
    6.0610   -3.0990   -0.4820 C   0  0  0  0  0  0  0  0  0  0  0  0
    7.1270   -3.0300   -1.1900 N   0  0  0  0  0  0  0  0  0  0  0  0
    7.7030   -1.8190   -1.5310 N   0  0  0  0  0  0  0  0  0  0  0  0
    8.6490   -1.1780   -0.6780 C   0  0  0  0  0  0  0  0  0  0  0  0
    9.2580    0.0650   -0.9990 N   0  0  0  0  0  0  0  0  0  0  0  0
    8.9480   -1.7540    0.4060 O   0  0  0  0  0  0  0  0  0  0  0  0
   -2.5510    2.2740   -0.9840 C   0  0  0  0  0  0  0  0  0  0  0  0
   -2.7270    1.6100   -2.2960 C   0  0  0  0  0  0  0  0  0  0  0  0
   -3.9260    1.5320   -2.8940 C   0  0  0  0  0  0  0  0  0  0  0  0
   -3.7940    0.8280   -4.1690 C   0  0  0  0  0  0  0  0  0  0  0  0
   -2.3250    0.5020   -4.2250 C   0  0  0  0  0  0  0  0  0  0  0  0
   -1.7390    0.9620   -3.1400 C   0  0  0  0  0  0  0  0  0  0  0  0
  2  1  1  6
  2  3  1  0
  2  4  1  0
  2  5  1  0
  5  6  1  0
  6  7  2  0
  6  8  1  0
  8  9  1  0
  9 10  1  0
  9 28  1  6
 10 11  2  3
 11 12  1  0
 11 16  1  0
 12 13  1  0
 13 14  2  0
 13 15  1  0
 15 16  1  0
 16 17  1  0
 17 18  1  0
 18 19  2  0
 18 20  1  0
 20 21  1  0
 21 22  1  0
 22 23  2  3
 23 24  1  0
 24 25  1  0
 25 26  1  0
 25 27  2  0
 28 29  1  0
 29 30  2  0
 29 33  1  0
 30 31  1  0
 31 32  1  0
 32 33  2  0
M  END
