
     RDKit          3D

 33 35  0  0  0  0  0  0  0  0999 V2000
   -5.7720    1.8830    3.0440 C   0  0  0  0  0  0  0  0  0  0  0  0
   -4.7550    1.2380    2.1530 C   0  0  0  0  0  0  0  0  0  0  0  0
   -5.0310    0.9160    0.9060 C   0  0  0  0  0  0  0  0  0  0  0  0
   -4.0660    0.3230    0.1200 O   0  0  0  0  0  0  0  0  0  0  0  0
   -3.1120   -0.5550    0.6720 C   0  0  2  0  0  0  0  0  0  0  0  0
   -2.2520   -0.9950   -0.5180 C   0  0  0  0  0  0  0  0  0  0  0  0
   -1.6370    0.1650   -1.0930 N   0  0  0  0  0  0  0  0  0  0  0  0
   -1.1390   -0.1840   -2.4110 C   0  0  0  0  0  0  0  0  0  0  0  0
   -0.0390   -1.1780   -2.2670 C   0  0  0  0  0  0  0  0  0  0  0  0
    1.0310   -0.4990   -1.5680 N   0  0  0  0  0  0  0  0  0  0  0  0
    2.3720   -0.8880   -1.8420 C   0  0  0  0  0  0  0  0  0  0  0  0
    2.5360   -1.8020   -2.7010 O   0  0  0  0  0  0  0  0  0  0  0  0
    3.4200   -0.2380   -1.1490 N   0  0  0  0  0  0  0  0  0  0  0  0
    4.7710   -0.5580   -1.3950 C   0  0  0  0  0  0  0  0  0  0  0  0
    5.1220   -0.9470   -2.7080 C   0  0  0  0  0  0  0  0  0  0  0  0
    6.4450   -1.0930   -3.0660 C   0  0  0  0  0  0  0  0  0  0  0  0
    7.3690   -0.8420   -2.0920 C   0  0  0  0  0  0  0  0  0  0  0  0
    7.0220   -0.4800   -0.8640 N   0  0  0  0  0  0  0  0  0  0  0  0
    5.7230   -0.3200   -0.4420 C   0  0  0  0  0  0  0  0  0  0  0  0
    5.5100    0.0460    0.9410 C   0  0  0  0  0  0  0  0  0  0  0  0
    4.4020    0.1640    1.7280 C   0  0  0  0  0  0  0  0  0  0  0  0
    4.7390    0.4580    3.0200 N   0  0  0  0  0  0  0  0  0  0  0  0
    6.0770    0.5210    3.0300 C   0  0  0  0  0  0  0  0  0  0  0  0
    6.8030    0.7680    4.0290 O   0  0  0  0  0  0  0  0  0  0  0  0
    6.5430    0.2780    1.8070 N   0  0  0  0  0  0  0  0  0  0  0  0
    0.7600    0.5530   -0.6460 C   0  0  0  0  0  0  0  0  0  0  0  0
   -0.6540    0.7750   -0.2650 C   0  0  0  0  0  0  0  0  0  0  0  0
   -3.7350   -1.7820    1.2260 C   0  0  0  0  0  0  0  0  0  0  0  0
   -5.1500   -1.9830    1.2030 N   0  0  0  0  0  0  0  0  0  0  0  0
   -3.0370   -2.6890    1.7370 O   0  0  0  0  0  0  0  0  0  0  0  0
   -6.3250    1.1480    0.2730 C   0  0  0  0  0  0  0  0  0  0  0  0
   -7.2600    1.6960    0.9550 N   0  0  0  0  0  0  0  0  0  0  0  0
   -6.5960    0.8030   -1.0430 O   0  0  0  0  0  0  0  0  0  0  0  0
  1  2  1  0
  2  3  2  3
  3  4  1  0
  3 31  1  0
  4  5  1  0
  5  6  1  6
  5 28  1  0
  6  7  1  0
  7  8  1  0
  7 27  1  0
  8  9  1  0
  9 10  1  0
 10 11  1  0
 10 26  1  0
 11 12  2  0
 11 13  1  0
 13 14  1  0
 14 15  2  0
 14 19  1  0
 15 16  1  0
 16 17  2  0
 17 18  1  0
 18 19  2  0
 19 20  1  0
 20 21  2  0
 20 25  1  0
 21 22  1  0
 22 23  1  0
 23 24  2  0
 23 25  1  0
 26 27  1  0
 28 29  1  0
 28 30  2  0
 31 32  2  0
 31 33  1  0
M  END
