
     RDKit          3D

 33 35  0  0  0  0  0  0  0  0999 V2000
   -4.7920    0.0280    3.4290 C   0  0  0  0  0  0  0  0  0  0  0  0
   -4.5900   -0.6910    2.2270 O   0  0  0  0  0  0  0  0  0  0  0  0
   -5.1700   -0.3760    1.0320 C   0  0  0  0  0  0  0  0  0  0  0  0
   -6.5690   -0.3810    0.8960 N   0  0  0  0  0  0  0  0  0  0  0  0
   -4.4210   -0.0610   -0.0130 C   0  0  0  0  0  0  0  0  0  0  0  0
   -2.9760   -0.0710    0.1870 C   0  0  0  0  0  0  0  0  0  0  0  0
   -2.5850   -0.4180    1.3680 O   0  0  0  0  0  0  0  0  0  0  0  0
   -1.9500    0.2720   -0.7970 C   0  0  0  0  0  0  0  0  0  0  0  0
   -0.6070    0.2120   -0.1730 N   0  0  0  0  0  0  0  0  0  0  0  0
    0.0260    1.1870    0.4270 N   0  0  0  0  0  0  0  0  0  0  0  0
    1.2210    0.7330    0.8570 C   0  0  0  0  0  0  0  0  0  0  0  0
    2.1860    1.5460    1.5970 C   0  0  0  0  0  0  0  0  0  0  0  0
    3.5140    0.9440    1.8520 C   0  0  0  0  0  0  0  0  0  0  0  0
    4.3440    0.6200    0.6620 C   0  0  0  0  0  0  0  0  0  0  0  0
    5.6060    0.0270    1.1430 N   0  0  0  0  0  0  0  0  0  0  0  0
    6.6100   -0.3850    0.2470 C   0  0  0  0  0  0  0  0  0  0  0  0
    6.4360   -0.2480   -0.9990 O   0  0  0  0  0  0  0  0  0  0  0  0
    7.8360   -0.9610    0.6650 N   0  0  0  0  0  0  0  0  0  0  0  0
    8.8640   -1.3800   -0.2630 C   0  0  1  0  0  0  0  0  0  0  0  0
   10.3150   -1.1750    0.0590 C   0  0  0  0  0  0  0  0  0  0  0  0
    9.7210   -2.5600   -0.0120 C   0  0  0  0  0  0  0  0  0  0  0  0
    1.3150   -0.5540    0.5090 N   0  0  0  0  0  0  0  0  0  0  0  0
    0.1750   -0.8690   -0.1310 C   0  0  0  0  0  0  0  0  0  0  0  0
   -0.1120   -2.0200   -0.6190 O   0  0  0  0  0  0  0  0  0  0  0  0
   -5.0530    0.3240   -1.2770 C   0  0  0  0  0  0  0  0  0  0  0  0
   -5.8280    1.4830   -1.2740 C   0  0  0  0  0  0  0  0  0  0  0  0
   -5.9440    2.2930   -0.0330 C   0  0  0  0  0  0  0  0  0  0  0  0
   -6.4620    1.8330   -2.4480 C   0  0  0  0  0  0  0  0  0  0  0  0
   -6.3220    1.0590   -3.5580 N   0  0  0  0  0  0  0  0  0  0  0  0
   -5.5670   -0.0660   -3.5480 C   0  0  0  0  0  0  0  0  0  0  0  0
   -5.4130   -0.8680   -4.6720 O   0  0  0  0  0  0  0  0  0  0  0  0
   -4.9050   -0.4600   -2.3760 C   0  0  0  0  0  0  0  0  0  0  0  0
   -4.1540   -1.6540   -2.3510 N   0  0  0  0  0  0  0  0  0  0  0  0
  1  2  1  0
  2  3  1  0
  3  4  1  0
  3  5  2  3
  5  6  1  0
  5 25  1  0
  6  7  2  0
  6  8  1  0
  8  9  1  0
  9 10  1  0
  9 23  1  0
 10 11  2  0
 11 12  1  0
 11 22  1  0
 12 13  1  0
 13 14  1  0
 14 15  1  0
 15 16  1  0
 16 17  2  0
 16 18  1  0
 19 18  1  1
 19 20  1  0
 19 21  1  0
 20 21  1  0
 22 23  1  0
 23 24  2  0
 25 26  2  0
 25 32  1  0
 26 27  1  0
 26 28  1  0
 28 29  2  0
 29 30  1  0
 30 31  1  0
 30 32  2  0
 32 33  1  0
M  END
