
     RDKit          3D

 35 40  0  0  0  0  0  0  0  0999 V2000
   -3.1740   -3.2330   -1.3740 C   0  0  0  0  0  0  0  0  0  0  0  0
   -2.3990   -2.0970   -1.9430 C   0  0  0  0  0  0  0  0  0  0  0  0
   -1.7150   -1.2270   -0.8820 C   0  0  2  0  0  0  0  0  0  0  0  0
   -0.8190   -2.0130   -0.0700 N   0  0  0  0  0  0  0  0  0  0  0  0
    0.5110   -2.4590   -0.3130 C   0  0  0  0  0  0  0  0  0  0  0  0
    0.5040   -3.7850   -0.4660 O   0  0  0  0  0  0  0  0  0  0  0  0
    1.6700   -1.6640   -0.3820 N   0  0  0  0  0  0  0  0  0  0  0  0
    2.2440   -0.9530   -1.5290 C   0  0  0  0  0  0  0  0  0  0  0  0
    1.8230    0.4730   -1.3070 C   0  0  0  0  0  0  0  0  0  0  0  0
    0.9930    1.2240   -2.0410 C   0  0  0  0  0  0  0  0  0  0  0  0
    0.6610    2.5150   -1.5560 C   0  0  0  0  0  0  0  0  0  0  0  0
    1.1730    2.9740   -0.3660 C   0  0  0  0  0  0  0  0  0  0  0  0
    2.0430    2.2340    0.4140 C   0  0  0  0  0  0  0  0  0  0  0  0
    2.3680    0.9680   -0.0660 C   0  0  0  0  0  0  0  0  0  0  0  0
    3.2660   -0.0520    0.5610 C   0  0  0  0  0  0  0  0  0  0  0  0
    2.5310   -1.3680    0.8000 C   0  0  2  0  0  0  0  0  0  0  0  0
    3.6190   -2.3580    0.9660 C   0  0  0  0  0  0  0  0  0  0  0  0
    4.0500   -2.9850    2.0830 C   0  0  0  0  0  0  0  0  0  0  0  0
    5.0880   -3.8140    1.7260 C   0  0  0  0  0  0  0  0  0  0  0  0
    5.2510   -3.6520    0.3700 C   0  0  0  0  0  0  0  0  0  0  0  0
    4.3650   -2.7890   -0.0200 O   0  0  0  0  0  0  0  0  0  0  0  0
    0.3840    4.1720   -0.0400 C   0  0  2  0  0  0  0  0  0  0  0  0
   -0.9460    3.5590    0.4980 C   0  0  0  0  0  0  0  0  0  0  0  0
   -0.8800    3.1460    1.8890 C   0  0  0  0  0  0  0  0  0  0  0  0
   -0.9280    1.8650    2.2230 C   0  0  0  0  0  0  0  0  0  0  0  0
   -1.0470    0.7010    1.3350 C   0  0  0  0  0  0  0  0  0  0  0  0
   -2.4330    0.4220    0.8670 C   0  0  0  0  0  0  0  0  0  0  0  0
   -3.4100    1.0910    1.4750 N   0  0  0  0  0  0  0  0  0  0  0  0
   -4.7080    0.9770    1.1500 C   0  0  0  0  0  0  0  0  0  0  0  0
   -5.0730    0.1310    0.1370 C   0  0  0  0  0  0  0  0  0  0  0  0
   -4.0540   -0.5740   -0.5050 C   0  0  0  0  0  0  0  0  0  0  0  0
   -2.7220   -0.4540   -0.1650 C   0  0  0  0  0  0  0  0  0  0  0  0
    0.0630    4.7530   -1.3660 C   0  0  0  0  0  0  0  0  0  0  0  0
   -0.0910    5.9390   -1.7130 O   0  0  0  0  0  0  0  0  0  0  0  0
   -0.0290    3.5990   -2.1710 N   0  0  0  0  0  0  0  0  0  0  0  0
  1  2  1  0
  3  2  1  6
  3  4  1  0
  3 32  1  0
  4  5  1  0
  5  6  2  0
  5  7  1  0
  7  8  1  0
  7 16  1  0
  8  9  1  0
  9 10  2  0
  9 14  1  0
 10 11  1  0
 11 12  2  0
 11 35  1  0
 12 13  1  0
 12 22  1  0
 13 14  2  0
 14 15  1  0
 15 16  1  0
 16 17  1  6
 17 18  2  0
 17 21  1  0
 18 19  1  0
 19 20  2  0
 20 21  1  0
 22 23  1  6
 22 33  1  0
 23 24  1  0
 24 25  2  0
 25 26  1  0
 26 27  1  0
 27 28  2  0
 27 32  1  0
 28 29  1  0
 29 30  2  0
 30 31  1  0
 31 32  2  0
 33 34  2  0
 33 35  1  0
M  CHG  1  28   1
M  END
