
     RDKit          3D

 34 37  0  0  0  0  0  0  0  0999 V2000
   -7.2340    0.2530    2.3770 C   0  0  0  0  0  0  0  0  0  0  0  0
   -6.2770   -0.7680    1.9730 C   0  0  0  0  0  0  0  0  0  0  0  0
   -5.3600   -0.7640    1.0190 C   0  0  0  0  0  0  0  0  0  0  0  0
   -5.1450    0.3780    0.1280 C   0  0  0  0  0  0  0  0  0  0  0  0
   -6.1480    1.2960   -0.1440 N   0  0  0  0  0  0  0  0  0  0  0  0
   -5.6690    2.2420   -0.9640 C   0  0  0  0  0  0  0  0  0  0  0  0
   -4.3620    1.9400   -1.2230 C   0  0  0  0  0  0  0  0  0  0  0  0
   -3.3320    2.8920   -2.2280 Cl  0  0  0  0  0  0  0  0  0  0  0  0
   -4.0280    0.7580   -0.5280 C   0  0  0  0  0  0  0  0  0  0  0  0
   -2.6600    0.2320   -0.4860 C   0  0  0  0  0  0  0  0  0  0  0  0
   -2.0790   -0.4750    0.4770 N   0  0  0  0  0  0  0  0  0  0  0  0
   -0.7610   -0.6970    0.2000 C   0  0  0  0  0  0  0  0  0  0  0  0
   -0.4940   -0.1010   -0.9970 C   0  0  0  0  0  0  0  0  0  0  0  0
    0.7100   -0.0320   -1.8120 C   0  0  0  0  0  0  0  0  0  0  0  0
    0.5560    0.5500   -2.9920 O   0  0  0  0  0  0  0  0  0  0  0  0
    1.9920   -0.4640   -1.5820 N   0  0  0  0  0  0  0  0  0  0  0  0
    2.9500   -0.2570   -2.7200 C   0  0  0  0  0  0  0  0  0  0  0  0
    3.4640    1.1390   -2.6880 C   0  0  0  0  0  0  0  0  0  0  0  0
    4.1310    1.5510   -1.5730 O   0  0  0  0  0  0  0  0  0  0  0  0
    2.5030   -1.0330   -0.3890 C   0  0  1  0  0  0  0  0  0  0  0  0
    2.5530   -2.5980   -0.8050 C   0  0  0  0  0  0  0  0  0  0  0  0
    3.9070   -0.7810   -0.0300 C   0  0  0  0  0  0  0  0  0  0  0  0
    4.9680   -1.1710   -0.7520 N   0  0  0  0  0  0  0  0  0  0  0  0
    6.0530   -0.7730   -0.1220 N   0  0  0  0  0  0  0  0  0  0  0  0
    5.6880   -0.1280    1.0050 C   0  0  0  0  0  0  0  0  0  0  0  0
    4.3740   -0.1320    1.0620 N   0  0  0  0  0  0  0  0  0  0  0  0
    3.9240    0.5570    2.2690 C   0  0  0  0  0  0  0  0  0  0  0  0
    5.1370    1.3290    2.7200 C   0  0  0  0  0  0  0  0  0  0  0  0
    6.3210    0.5660    2.1650 C   0  0  0  0  0  0  0  0  0  0  0  0
   -1.6920    0.4570   -1.3820 N   0  0  0  0  0  0  0  0  0  0  0  0
   -4.6500   -2.0740    0.8780 C   0  0  2  0  0  0  0  0  0  0  0  0
   -4.1320   -2.3410   -0.3290 F   0  0  0  0  0  0  0  0  0  0  0  0
   -5.7720   -3.0030    0.9370 F   0  0  0  0  0  0  0  0  0  0  0  0
   -3.7290   -2.4560    2.3080 Cl  0  0  0  0  0  0  0  0  0  0  0  0
  1  2  1  0
  2  3  2  3
  3  4  1  0
  3 31  1  0
  4  5  1  0
  4  9  2  0
  5  6  1  0
  6  7  2  0
  7  8  1  0
  7  9  1  0
  9 10  1  0
 10 11  2  0
 10 30  1  0
 11 12  1  0
 12 13  2  0
 13 14  1  0
 13 30  1  0
 14 15  2  0
 14 16  1  0
 16 17  1  0
 16 20  1  0
 17 18  1  0
 18 19  1  0
 20 21  1  6
 20 22  1  0
 22 23  2  0
 22 26  1  0
 23 24  1  0
 24 25  2  0
 25 26  1  0
 25 29  1  0
 26 27  1  0
 27 28  1  0
 28 29  1  0
 31 32  1  6
 31 33  1  0
 31 34  1  0
M  END
