
     RDKit          3D

 35 40  0  0  0  0  0  0  0  0999 V2000
   -6.8850    0.7130   -2.4460 C   0  0  0  0  0  0  0  0  0  0  0  0
   -5.5330    0.5680   -1.8600 C   0  0  0  0  0  0  0  0  0  0  0  0
   -4.5750   -0.1740   -2.5190 C   0  0  0  0  0  0  0  0  0  0  0  0
   -3.3220   -0.2730   -1.9170 C   0  0  0  0  0  0  0  0  0  0  0  0
   -3.0480    0.3430   -0.7130 C   0  0  0  0  0  0  0  0  0  0  0  0
   -4.0180    1.0690   -0.0880 C   0  0  0  0  0  0  0  0  0  0  0  0
   -5.2850    1.1940   -0.6560 C   0  0  0  0  0  0  0  0  0  0  0  0
   -6.2030    1.9420    0.0380 O   0  0  0  0  0  0  0  0  0  0  0  0
   -6.2020    2.0070    1.4510 C   0  0  1  0  0  0  0  0  0  0  0  0
   -7.0850    0.8470    1.9290 C   0  0  0  0  0  0  0  0  0  0  0  0
   -4.8430    1.9600    2.0560 C   0  0  0  0  0  0  0  0  0  0  0  0
   -3.8120    1.7060    1.1090 O   0  0  0  0  0  0  0  0  0  0  0  0
   -1.7140    0.2410   -0.0650 C   0  0  0  0  0  0  0  0  0  0  0  0
   -0.7360    0.0970   -1.1130 N   0  0  0  0  0  0  0  0  0  0  0  0
    0.6190    0.1330   -0.6420 C   0  0  0  0  0  0  0  0  0  0  0  0
    1.0200   -1.0300    0.1950 C   0  0  2  0  0  0  0  0  0  0  0  0
    2.5050   -1.1930    0.0540 C   0  0  0  0  0  0  0  0  0  0  0  0
    3.0610   -2.2450   -0.4000 N   0  0  0  0  0  0  0  0  0  0  0  0
    4.4630   -2.4090   -0.5360 C   0  0  0  0  0  0  0  0  0  0  0  0
    4.9510   -3.6040   -1.0450 C   0  0  0  0  0  0  0  0  0  0  0  0
    6.3030   -3.8210   -1.2010 C   0  0  0  0  0  0  0  0  0  0  0  0
    7.1870   -2.8450   -0.8500 C   0  0  0  0  0  0  0  0  0  0  0  0
    6.7030   -1.6360   -0.3350 C   0  0  0  0  0  0  0  0  0  0  0  0
    5.3640   -1.4160   -0.1790 C   0  0  0  0  0  0  0  0  0  0  0  0
    4.7860   -0.1750    0.3520 C   0  0  0  0  0  0  0  0  0  0  0  0
    5.5730    0.8180    0.7150 C   0  0  0  0  0  0  0  0  0  0  0  0
    5.1100    2.0860    1.2520 C   0  0  0  0  0  0  0  0  0  0  0  0
    5.9460    3.0470    1.6000 C   0  0  0  0  0  0  0  0  0  0  0  0
    5.5050    4.2910    2.1260 N   0  0  0  0  0  0  0  0  0  0  0  0
    3.3730   -0.1090    0.4500 N   0  0  0  0  0  0  0  0  0  0  0  0
    0.3100   -2.2950   -0.0360 C   0  0  0  0  0  0  0  0  0  0  0  0
   -0.8100   -2.2940   -0.9970 C   0  0  0  0  0  0  0  0  0  0  0  0
   -0.9060   -1.1050   -1.8870 C   0  0  1  0  0  0  0  0  0  0  0  0
   -2.2410   -1.0370   -2.5360 C   0  0  0  0  0  0  0  0  0  0  0  0
   -2.5120   -1.6140   -3.6230 O   0  0  0  0  0  0  0  0  0  0  0  0
  1  2  1  0
  2  3  2  0
  2  7  1  0
  3  4  1  0
  4  5  2  0
  4 34  1  0
  5  6  1  0
  5 13  1  0
  6  7  2  0
  6 12  1  0
  7  8  1  0
  8  9  1  0
  9 10  1  1
  9 11  1  0
 11 12  1  0
 13 14  1  0
 14 15  1  0
 14 33  1  0
 15 16  1  0
 16 17  1  6
 16 31  1  0
 17 18  2  0
 17 30  1  0
 18 19  1  0
 19 20  2  0
 19 24  1  0
 20 21  1  0
 21 22  2  0
 22 23  1  0
 23 24  2  0
 24 25  1  0
 25 26  2  3
 25 30  1  0
 26 27  1  0
 27 28  2  3
 28 29  1  0
 31 32  1  0
 33 32  1  1
 33 34  1  0
 34 35  2  0
M  CHG  1  29   1
M  END
