
     RDKit          3D

 35 40  0  0  0  0  0  0  0  0999 V2000
   -3.3730    1.6030   -0.6120 O   0  0  0  0  0  0  0  0  0  0  0  0
   -2.3460    0.9320   -0.3040 C   0  0  0  0  0  0  0  0  0  0  0  0
   -1.3990    1.5550    0.5960 C   0  0  2  0  0  0  0  0  0  0  0  0
   -2.2010    1.9300    1.8610 C   0  0  2  0  0  0  0  0  0  0  0  0
   -3.1690    3.0250    1.6880 C   0  0  0  0  0  0  0  0  0  0  0  0
   -2.3100    4.1650    1.1490 C   0  0  0  0  0  0  0  0  0  0  0  0
   -0.8890    3.6610    1.3300 C   0  0  1  0  0  0  0  0  0  0  0  0
   -1.0540    2.7250    2.5240 C   0  0  0  0  0  0  0  0  0  0  0  0
   -0.7060    2.7440    0.1800 N   0  0  0  0  0  0  0  0  0  0  0  0
   -0.0260    3.0170   -1.0260 C   0  0  0  0  0  0  0  0  0  0  0  0
   -0.5590    4.0280   -1.6740 O   0  0  0  0  0  0  0  0  0  0  0  0
    1.0890    2.4260   -1.6510 N   0  0  0  0  0  0  0  0  0  0  0  0
    2.1550    1.5680   -1.2410 C   0  0  0  0  0  0  0  0  0  0  0  0
    2.1720    0.4550   -0.4150 C   0  0  0  0  0  0  0  0  0  0  0  0
    3.3390   -0.2220   -0.1850 C   0  0  0  0  0  0  0  0  0  0  0  0
    4.5210    0.2390   -0.8060 C   0  0  0  0  0  0  0  0  0  0  0  0
    4.5770    1.3300   -1.6320 C   0  0  0  0  0  0  0  0  0  0  0  0
    3.3800    1.9650   -1.8250 C   0  0  0  0  0  0  0  0  0  0  0  0
    3.4480    3.0940   -2.6850 O   0  0  0  0  0  0  0  0  0  0  0  0
    3.5980   -1.4420    0.6350 C   0  0  0  0  0  0  0  0  0  0  0  0
    3.1140   -1.4650    2.0190 C   0  0  0  0  0  0  0  0  0  0  0  0
    2.5310   -2.3790    2.7160 C   0  0  0  0  0  0  0  0  0  0  0  0
    2.1350   -3.7390    2.3850 C   0  0  0  0  0  0  0  0  0  0  0  0
    1.4430   -4.1790    1.4220 N   0  0  0  0  0  0  0  0  0  0  0  0
    0.7790   -3.5900    0.2930 C   0  0  0  0  0  0  0  0  0  0  0  0
    0.9090   -4.4550   -0.8230 C   0  0  0  0  0  0  0  0  0  0  0  0
    0.4200   -4.1710   -2.0710 C   0  0  0  0  0  0  0  0  0  0  0  0
   -0.2170   -2.9700   -2.1760 C   0  0  0  0  0  0  0  0  0  0  0  0
   -0.3760   -2.0630   -1.0910 C   0  0  0  0  0  0  0  0  0  0  0  0
    0.1260   -2.3870    0.1470 C   0  0  0  0  0  0  0  0  0  0  0  0
   -1.0380   -0.8160   -1.5670 C   0  0  0  0  0  0  0  0  0  0  0  0
   -2.2300   -0.3680   -0.8770 N   0  0  0  0  0  0  0  0  0  0  0  0
   -3.3210   -1.3010   -0.8180 C   0  0  2  0  0  0  0  0  0  0  0  0
   -4.6700   -0.7580   -1.3810 C   0  0  0  0  0  0  0  0  0  0  0  0
   -4.4970   -1.1800    0.0280 C   0  0  0  0  0  0  0  0  0  0  0  0
  1  2  2  0
  3  2  1  6
  2 32  1  0
  3  4  1  0
  3  9  1  0
  4  5  1  6
  4  8  1  0
  5  6  1  0
  7  6  1  6
  7  8  1  0
  7  9  1  0
  9 10  1  0
 10 11  2  0
 10 12  1  0
 12 13  1  0
 13 14  1  0
 13 18  2  0
 14 15  2  0
 15 16  1  0
 15 20  1  0
 16 17  2  0
 17 18  1  0
 18 19  1  0
 20 21  1  0
 21 22  2  0
 22 23  1  0
 23 24  2  0
 24 25  1  0
 25 26  1  0
 25 30  2  0
 26 27  2  0
 27 28  1  0
 28 29  2  0
 29 30  1  0
 29 31  1  0
 31 32  1  0
 33 32  1  1
 33 34  1  0
 33 35  1  0
 34 35  1  0
M  CHG  1  24   1
M  END
