
     RDKit          3D

 43 48  0  0  0  0  0  0  0  0999 V2000
  -11.4410   -2.2910    0.7770 C   0  0  0  0  0  0  0  0  0  0  0  0
  -12.0780   -1.0380    0.6490 O   0  0  0  0  0  0  0  0  0  0  0  0
  -11.2870    0.0880    0.4380 C   0  0  0  0  0  0  0  0  0  0  0  0
  -11.9150    1.3060    0.3150 C   0  0  0  0  0  0  0  0  0  0  0  0
  -11.0890    2.3850    0.1080 C   0  0  0  0  0  0  0  0  0  0  0  0
   -9.7390    2.2720    0.0280 C   0  0  0  0  0  0  0  0  0  0  0  0
   -8.9310    3.4110   -0.1870 O   0  0  0  0  0  0  0  0  0  0  0  0
   -9.5480    4.6870   -0.3150 C   0  0  0  0  0  0  0  0  0  0  0  0
   -9.0900    1.0280    0.1540 C   0  0  0  0  0  0  0  0  0  0  0  0
   -7.6420    0.9840    0.0870 C   0  0  0  0  0  0  0  0  0  0  0  0
   -6.9070    2.0860   -0.2470 N   0  0  0  0  0  0  0  0  0  0  0  0
   -5.6380    1.7880   -0.2090 N   0  0  0  0  0  0  0  0  0  0  0  0
   -5.5120    0.4790    0.1520 C   0  0  0  0  0  0  0  0  0  0  0  0
   -6.7360   -0.0090    0.3310 N   0  0  0  0  0  0  0  0  0  0  0  0
   -6.9250   -1.3860    0.7080 C   0  0  0  0  0  0  0  0  0  0  0  0
   -5.7270   -2.1800    1.0080 C   0  0  0  0  0  0  0  0  0  0  0  0
   -4.4110   -1.5740    0.7530 C   0  0  0  0  0  0  0  0  0  0  0  0
   -3.2680   -2.2970    0.9330 C   0  0  0  0  0  0  0  0  0  0  0  0
   -3.2840   -3.7160    1.3690 C   0  0  0  0  0  0  0  0  0  0  0  0
   -2.0310   -1.6860    0.7030 C   0  0  0  0  0  0  0  0  0  0  0  0
   -1.8950   -0.3960    0.3040 C   0  0  0  0  0  0  0  0  0  0  0  0
   -0.7070    0.3200    0.0510 N   0  0  0  0  0  0  0  0  0  0  0  0
    0.6080   -0.1950    0.1770 C   0  0  0  0  0  0  0  0  0  0  0  0
    0.7530   -1.3790    0.5410 O   0  0  0  0  0  0  0  0  0  0  0  0
    1.7390    0.6490   -0.1130 N   0  0  0  0  0  0  0  0  0  0  0  0
    3.0640    0.2350   -0.0090 C   0  0  0  0  0  0  0  0  0  0  0  0
    3.4800   -0.8850    0.6350 C   0  0  0  0  0  0  0  0  0  0  0  0
    4.8440   -1.2350    0.6760 C   0  0  0  0  0  0  0  0  0  0  0  0
    5.7760   -0.4350    0.0570 C   0  0  0  0  0  0  0  0  0  0  0  0
    7.1240   -0.7400    0.0730 O   0  0  0  0  0  0  0  0  0  0  0  0
    8.0650    0.0900   -0.5670 C   0  0  0  0  0  0  0  0  0  0  0  0
    9.4750   -0.4450   -0.4110 C   0  0  0  0  0  0  0  0  0  0  0  0
   10.4370    0.4100   -1.0690 N   0  0  2  0  0  0  0  0  0  0  0  0
   10.8170   -0.1240   -2.3550 C   0  0  0  0  0  0  0  0  0  0  0  0
   12.2160   -0.6810   -2.1890 C   0  0  0  0  0  0  0  0  0  0  0  0
   12.8110    0.3520   -1.2290 C   0  0  0  0  0  0  0  0  0  0  0  0
   11.6500    0.5630   -0.2890 C   0  0  1  0  0  0  0  0  0  0  0  0
   11.7730    1.9430    0.3200 C   0  0  0  0  0  0  0  0  0  0  0  0
    5.3800    0.7160   -0.6080 C   0  0  0  0  0  0  0  0  0  0  0  0
    4.0430    1.0090   -0.6180 C   0  0  0  0  0  0  0  0  0  0  0  0
   -3.0720    0.2870    0.1360 N   0  0  0  0  0  0  0  0  0  0  0  0
   -4.2810   -0.2570    0.3450 C   0  0  0  0  0  0  0  0  0  0  0  0
   -9.8990   -0.0550    0.3600 C   0  0  0  0  0  0  0  0  0  0  0  0
  1  2  1  0
  2  3  1  0
  3  4  2  0
  3 43  1  0
  4  5  1  0
  5  6  2  0
  6  7  1  0
  6  9  1  0
  7  8  1  0
  9 10  1  0
  9 43  2  0
 10 11  2  0
 10 14  1  0
 11 12  1  0
 12 13  2  0
 13 14  1  0
 13 42  1  0
 14 15  1  0
 15 16  1  0
 16 17  1  0
 17 18  2  0
 17 42  1  0
 18 19  1  0
 18 20  1  0
 20 21  2  0
 21 22  1  0
 21 41  1  0
 22 23  1  0
 23 24  2  0
 23 25  1  0
 25 26  1  0
 26 27  2  0
 26 40  1  0
 27 28  1  0
 28 29  2  0
 29 30  1  0
 29 39  1  0
 30 31  1  0
 31 32  1  0
 33 32  1  1
 33 34  1  0
 33 37  1  0
 34 35  1  0
 35 36  1  0
 36 37  1  0
 37 38  1  6
 39 40  2  0
 41 42  2  0
M  CHG  1  33   1
M  END
