
     RDKit          3D

 42 46  0  0  0  0  0  0  0  0999 V2000
   -4.5010    5.5670   -0.0440 C   0  0  0  0  0  0  0  0  0  0  0  0
   -4.5720    4.6370   -1.2290 C   0  0  0  0  0  0  0  0  0  0  0  0
   -4.6080    3.2920   -0.8110 O   0  0  0  0  0  0  0  0  0  0  0  0
   -5.6810    2.8950   -0.0020 C   0  0  0  0  0  0  0  0  0  0  0  0
   -6.6410    3.7440    0.3670 N   0  0  0  0  0  0  0  0  0  0  0  0
   -7.6780    3.3860    1.1390 C   0  0  0  0  0  0  0  0  0  0  0  0
   -7.7490    2.0810    1.5670 C   0  0  0  0  0  0  0  0  0  0  0  0
   -6.7380    1.1790    1.1800 C   0  0  0  0  0  0  0  0  0  0  0  0
   -6.8560   -0.1160    1.6360 O   0  0  0  0  0  0  0  0  0  0  0  0
   -5.6790    1.5320    0.3960 C   0  0  0  0  0  0  0  0  0  0  0  0
   -4.5600    0.7230   -0.0730 C   0  0  0  0  0  0  0  0  0  0  0  0
   -4.5620   -0.6330    0.3010 N   0  0  0  0  0  0  0  0  0  0  0  0
   -3.3960   -1.4340   -0.0850 C   0  0  0  0  0  0  0  0  0  0  0  0
   -2.3380   -0.8750   -0.7650 C   0  0  0  0  0  0  0  0  0  0  0  0
   -1.2270   -1.6160   -1.1400 C   0  0  0  0  0  0  0  0  0  0  0  0
   -0.1160   -0.9610   -1.8590 C   0  0  0  0  0  0  0  0  0  0  0  0
    0.9380   -0.5120   -1.0360 N   0  0  0  0  0  0  0  0  0  0  0  0
    1.9640    0.1190   -1.7620 C   0  0  0  0  0  0  0  0  0  0  0  0
    2.2720    1.4960   -1.1340 C   0  0  0  0  0  0  0  0  0  0  0  0
    2.6430    1.2090    0.1980 N   0  0  0  0  0  0  0  0  0  0  0  0
    3.8400    1.1680    0.8320 C   0  0  0  0  0  0  0  0  0  0  0  0
    3.7780    0.9830    2.1320 O   0  0  0  0  0  0  0  0  0  0  0  0
    5.2470    1.2820    0.3940 C   0  0  0  0  0  0  0  0  0  0  0  0
    5.7920    1.4210   -0.7690 C   0  0  0  0  0  0  0  0  0  0  0  0
    5.1360    1.5020   -2.0180 O   0  0  0  0  0  0  0  0  0  0  0  0
    5.4700    0.6340   -3.0810 C   0  0  0  0  0  0  0  0  0  0  0  0
    7.2900    1.4950   -0.6550 C   0  0  0  0  0  0  0  0  0  0  0  0
    7.4580    1.9800    0.7810 C   0  0  2  0  0  0  0  0  0  0  0  0
    7.2220    3.4480    0.9170 C   0  0  0  0  0  0  0  0  0  0  0  0
    8.8040    1.5290    1.2730 C   0  0  0  0  0  0  0  0  0  0  0  0
    6.3440    1.2270    1.4540 C   0  0  0  0  0  0  0  0  0  0  0  0
    1.4420    0.8080    1.0200 C   0  0  0  0  0  0  0  0  0  0  0  0
    0.7360   -0.3120    0.3210 C   0  0  0  0  0  0  0  0  0  0  0  0
   -1.2260   -2.9180   -0.8080 N   0  0  0  0  0  0  0  0  0  0  0  0
   -2.2610   -3.4930   -0.1360 C   0  0  0  0  0  0  0  0  0  0  0  0
   -2.2730   -4.8620    0.2160 N   0  0  0  0  0  0  0  0  0  0  0  0
   -1.6930   -5.2720    1.4720 C   0  0  0  0  0  0  0  0  0  0  0  0
   -2.3120   -6.4920    2.0170 C   0  0  0  0  0  0  0  0  0  0  0  0
   -2.7830   -7.4170    1.2070 C   0  0  0  0  0  0  0  0  0  0  0  0
   -2.6900   -7.2330   -0.2470 C   0  0  0  0  0  0  0  0  0  0  0  0
   -2.8700   -5.8040   -0.7000 C   0  0  0  0  0  0  0  0  0  0  0  0
   -3.3180   -2.7390    0.2090 N   0  0  0  0  0  0  0  0  0  0  0  0
  1  2  1  0
  2  3  1  0
  3  4  1  0
  4  5  2  0
  4 10  1  0
  5  6  1  0
  6  7  2  0
  7  8  1  0
  8  9  1  0
  8 10  2  0
 10 11  1  0
 11 12  1  0
 12 13  1  0
 13 14  2  0
 13 42  1  0
 14 15  1  0
 15 16  1  0
 15 34  2  0
 16 17  1  0
 17 18  1  0
 17 33  1  0
 18 19  1  0
 19 20  1  0
 20 21  1  0
 20 32  1  0
 21 22  2  0
 21 23  1  0
 23 24  2  0
 23 31  1  0
 24 25  1  0
 24 27  1  0
 25 26  1  0
 27 28  1  0
 28 29  1  6
 28 30  1  0
 28 31  1  0
 32 33  1  0
 34 35  1  0
 35 36  1  0
 35 42  2  0
 36 37  1  0
 36 41  1  0
 37 38  1  0
 38 39  2  0
 39 40  1  0
 40 41  1  0
M  CHG  1  34   1
M  END
