
     RDKit          3D

 42 47  0  0  0  0  0  0  0  0999 V2000
    0.7100   -4.5760   -0.8300 C   0  0  0  0  0  0  0  0  0  0  0  0
   -0.7150   -4.2740   -1.1200 C   0  0  0  0  0  0  0  0  0  0  0  0
   -1.6810   -5.1870   -1.0140 N   0  0  0  0  0  0  0  0  0  0  0  0
   -2.9600   -4.9790   -1.2640 C   0  0  0  0  0  0  0  0  0  0  0  0
   -3.3760   -3.7830   -1.6570 N   0  0  0  0  0  0  0  0  0  0  0  0
   -4.7620   -3.4620   -1.9370 C   0  0  2  0  0  0  0  0  0  0  0  0
   -5.7400   -3.3770   -0.8260 C   0  0  0  0  0  0  0  0  0  0  0  0
   -5.7810   -4.5500   -1.7690 C   0  0  0  0  0  0  0  0  0  0  0  0
   -2.4400   -2.8100   -1.7840 C   0  0  0  0  0  0  0  0  0  0  0  0
   -2.9000   -1.6840   -2.1700 O   0  0  0  0  0  0  0  0  0  0  0  0
   -1.0880   -2.9810   -1.5320 C   0  0  0  0  0  0  0  0  0  0  0  0
   -0.2510   -2.0000   -1.6800 O   0  0  0  0  0  0  0  0  0  0  0  0
    0.5040   -1.0380   -1.2350 C   0  0  0  0  0  0  0  0  0  0  0  0
    1.8800   -1.1030   -1.5730 C   0  0  0  0  0  0  0  0  0  0  0  0
    2.7790   -0.1500   -1.1720 C   0  0  0  0  0  0  0  0  0  0  0  0
    2.3980    0.9080   -0.4290 C   0  0  0  0  0  0  0  0  0  0  0  0
    3.2250    1.9430    0.0580 N   0  0  0  0  0  0  0  0  0  0  0  0
    4.6130    2.1370   -0.0610 C   0  0  2  0  0  0  0  0  0  0  0  0
    5.2070    2.3050   -1.4050 C   0  0  0  0  0  0  0  0  0  0  0  0
    6.6590    1.9810   -1.1400 C   0  0  0  0  0  0  0  0  0  0  0  0
    7.7150    2.3000   -1.8590 N   0  0  0  0  0  0  0  0  0  0  0  0
    8.9660    1.8600   -1.3620 C   0  0  0  0  0  0  0  0  0  0  0  0
    9.1140    1.1730   -0.2540 C   0  0  0  0  0  0  0  0  0  0  0  0
    7.9910    0.7930    0.5830 C   0  0  1  0  0  0  0  0  0  0  0  0
    8.1290    1.3000    2.0120 C   0  0  0  0  0  0  0  0  0  0  0  0
    6.7360    1.2460    0.0440 N   0  0  0  0  0  0  0  0  0  0  0  0
    5.3830    1.0330    0.6090 C   0  0  0  0  0  0  0  0  0  0  0  0
    1.0440    0.9870   -0.0860 C   0  0  0  0  0  0  0  0  0  0  0  0
    0.1090    0.0440   -0.4710 C   0  0  0  0  0  0  0  0  0  0  0  0
   -1.2360    0.0980   -0.0160 N   0  0  0  0  0  0  0  0  0  0  0  0
   -1.9600    1.2180    0.4240 C   0  0  0  0  0  0  0  0  0  0  0  0
   -1.3730    2.3530    0.4120 O   0  0  0  0  0  0  0  0  0  0  0  0
   -3.3630    1.1970    0.9090 C   0  0  2  0  0  0  0  0  0  0  0  0
   -3.3670    0.6020    2.3230 C   0  0  0  0  0  0  0  0  0  0  0  0
   -4.2590    0.3560    0.0700 C   0  0  0  0  0  0  0  0  0  0  0  0
   -3.8090    2.5260    1.0760 O   0  0  0  0  0  0  0  0  0  0  0  0
   -5.0600    2.7850    1.5580 C   0  0  0  0  0  0  0  0  0  0  0  0
   -6.1700    2.8770    0.7500 C   0  0  0  0  0  0  0  0  0  0  0  0
   -7.4210    3.1430    1.2890 C   0  0  0  0  0  0  0  0  0  0  0  0
   -7.5890    3.3220    2.6370 C   0  0  0  0  0  0  0  0  0  0  0  0
   -6.4870    3.2360    3.4730 C   0  0  0  0  0  0  0  0  0  0  0  0
   -5.2550    2.9740    2.9430 C   0  0  0  0  0  0  0  0  0  0  0  0
  1  2  1  0
  2  3  1  0
  2 11  2  0
  3  4  2  0
  4  5  1  0
  6  5  1  1
  5  9  1  0
  6  7  1  0
  6  8  1  0
  7  8  1  0
  9 10  2  0
  9 11  1  0
 11 12  1  0
 12 13  1  0
 13 14  2  0
 13 29  1  0
 14 15  1  0
 15 16  2  0
 16 17  1  0
 16 28  1  0
 18 17  1  6
 18 19  1  0
 18 27  1  0
 19 20  1  0
 20 21  2  0
 20 26  1  0
 21 22  1  0
 22 23  2  0
 23 24  1  0
 24 25  1  1
 24 26  1  0
 26 27  1  0
 28 29  2  0
 29 30  1  0
 30 31  1  0
 31 32  2  0
 31 33  1  0
 33 34  1  1
 33 35  1  0
 33 36  1  0
 36 37  1  0
 37 38  2  0
 37 42  1  0
 38 39  1  0
 39 40  2  0
 40 41  1  0
 41 42  2  0
M  CHG  1  21   1
M  END
