
     RDKit          3D

 20 21  0  0  0  0  0  0  0  0999 V2000
    4.9760    1.5930    1.5170 C   0  0  0  0  0  0  0  0  0  0  0  0
    4.0730    1.1800    0.3840 C   0  0  1  0  0  0  0  0  0  0  0  0
    4.4330   -0.1080   -0.3150 C   0  0  0  0  0  0  0  0  0  0  0  0
    3.1950    0.0070    0.5500 C   0  0  2  0  0  0  0  0  0  0  0  0
    1.9460   -0.1000   -0.1470 N   0  0  0  0  0  0  0  0  0  0  0  0
    1.5910   -1.4330   -0.4680 C   0  0  0  0  0  0  0  0  0  0  0  0
    2.4630   -2.3210   -0.5360 O   0  0  0  0  0  0  0  0  0  0  0  0
    0.2300   -1.7430   -0.7100 N   0  0  0  0  0  0  0  0  0  0  0  0
   -0.7260   -0.7230   -0.6250 N   0  0  0  0  0  0  0  0  0  0  0  0
   -1.8520   -0.8140    0.2380 C   0  0  0  0  0  0  0  0  0  0  0  0
   -1.9340   -1.8700    0.9200 O   0  0  0  0  0  0  0  0  0  0  0  0
   -2.8110    0.2810    0.2820 C   0  0  2  0  0  0  0  0  0  0  0  0
   -4.2110   -0.0940   -0.1210 C   0  0  0  0  0  0  0  0  0  0  0  0
   -5.0620    1.0070    0.1960 N   0  0  0  0  0  0  0  0  0  0  0  0
   -4.5180    2.3070    0.0710 C   0  0  0  0  0  0  0  0  0  0  0  0
   -3.0630    2.4420   -0.1530 C   0  0  0  0  0  0  0  0  0  0  0  0
   -2.4180    1.2930   -0.5910 O   0  0  0  0  0  0  0  0  0  0  0  0
   -0.1890   -3.0550   -1.0350 C   0  0  0  0  0  0  0  0  0  0  0  0
    0.7820   -4.0770   -1.1160 N   0  0  0  0  0  0  0  0  0  0  0  0
   -1.3950   -3.2780   -1.2400 O   0  0  0  0  0  0  0  0  0  0  0  0
  2  1  1  1
  2  3  1  0
  2  4  1  0
  3  4  1  0
  4  5  1  6
  5  6  1  0
  6  7  2  0
  6  8  1  0
  8  9  1  0
  8 18  1  0
  9 10  1  0
 10 11  2  0
 12 10  1  6
 12 13  1  0
 12 17  1  0
 13 14  1  0
 14 15  1  0
 15 16  1  0
 16 17  1  0
 18 19  1  0
 18 20  2  0
M  CHG  1   5   1
M  END
