
     RDKit          3D

 20 21  0  0  0  0  0  0  0  0999 V2000
   -6.9730   -0.4300   -0.5930 O   0  0  0  0  0  0  0  0  0  0  0  0
   -5.8290   -0.0990   -0.1520 C   0  0  0  0  0  0  0  0  0  0  0  0
   -5.7810    0.7290    0.9900 N   0  0  0  0  0  0  0  0  0  0  0  0
   -4.5960    1.1380    1.5390 N   0  0  0  0  0  0  0  0  0  0  0  0
   -3.4440    0.6930    0.9110 C   0  0  0  0  0  0  0  0  0  0  0  0
   -3.3930   -0.0700   -0.1420 C   0  0  0  0  0  0  0  0  0  0  0  0
   -2.1570   -0.5460   -0.8140 C   0  0  0  0  0  0  0  0  0  0  0  0
   -0.9220   -0.1230   -0.2460 N   0  0  0  0  0  0  0  0  0  0  0  0
    0.3410   -0.5390   -0.8350 C   0  0  0  0  0  0  0  0  0  0  0  0
    0.2540   -1.2590   -1.8270 O   0  0  0  0  0  0  0  0  0  0  0  0
    1.5700   -0.1280   -0.2840 N   0  0  0  0  0  0  0  0  0  0  0  0
    2.8380   -0.5010   -0.8140 C   0  0  0  0  0  0  0  0  0  0  0  0
    2.9810   -1.2770   -1.9010 C   0  0  0  0  0  0  0  0  0  0  0  0
    4.4290   -1.4560   -2.1610 C   0  0  0  0  0  0  0  0  0  0  0  0
    5.1050   -0.7550   -1.1900 O   0  0  0  0  0  0  0  0  0  0  0  0
    4.1540   -0.1480   -0.3310 C   0  0  0  0  0  0  0  0  0  0  0  0
    4.5580    0.5710    0.6730 C   0  0  0  0  0  0  0  0  0  0  0  0
    3.9320    1.3220    1.7320 C   0  0  0  0  0  0  0  0  0  0  0  0
    4.3710    0.7570    2.9780 O   0  0  0  0  0  0  0  0  0  0  0  0
   -4.6340   -0.5250   -0.7540 N   0  0  0  0  0  0  0  0  0  0  0  0
  1  2  2  0
  2  3  1  0
  2 20  1  0
  3  4  1  0
  4  5  1  0
  5  6  2  0
  6  7  1  0
  6 20  1  0
  7  8  1  0
  8  9  1  0
  9 10  2  0
  9 11  1  0
 11 12  1  0
 12 13  2  0
 12 16  1  0
 13 14  1  0
 14 15  1  0
 15 16  1  0
 16 17  2  3
 17 18  1  0
 18 19  1  0
M  CHG  1   4   1
M  END
