
     RDKit          3D

 20 21  0  0  0  0  0  0  0  0999 V2000
   -2.9520    1.6950   -1.9720 O   0  0  0  0  0  0  0  0  0  0  0  0
   -2.7160    1.1880   -0.8460 C   0  0  0  0  0  0  0  0  0  0  0  0
   -3.5710    0.0720   -0.3020 C   0  0  0  0  0  0  0  0  0  0  0  0
   -2.7500   -0.9390    0.4370 C   0  0  0  0  0  0  0  0  0  0  0  0
   -1.2340   -0.6260    0.2710 C   0  0  2  0  0  0  0  0  0  0  0  0
   -1.1130   -0.4990   -1.1410 O   0  0  0  0  0  0  0  0  0  0  0  0
   -0.4540   -1.7840    0.7060 C   0  0  0  0  0  0  0  0  0  0  0  0
    0.4540   -2.3020   -0.3300 N   0  0  0  0  0  0  0  0  0  0  0  0
    1.8470   -2.0000    0.0060 C   0  0  0  0  0  0  0  0  0  0  0  0
    2.2830   -0.8280   -0.8090 C   0  0  0  0  0  0  0  0  0  0  0  0
    3.4500   -0.2000   -0.2750 N   0  0  0  0  0  0  0  0  0  0  0  0
    3.6980    1.0660   -0.2110 C   0  0  0  0  0  0  0  0  0  0  0  0
    2.8780    2.1260   -0.6510 N   0  0  0  0  0  0  0  0  0  0  0  0
    1.7010    2.6610   -0.0910 C   0  0  0  0  0  0  0  0  0  0  0  0
    1.1480    3.6550   -0.7370 O   0  0  0  0  0  0  0  0  0  0  0  0
    1.0160    2.2800    1.0890 N   0  0  0  0  0  0  0  0  0  0  0  0
    0.2520    1.1230    1.3810 C   0  0  0  0  0  0  0  0  0  0  0  0
    0.8000    0.3390    2.2420 O   0  0  0  0  0  0  0  0  0  0  0  0
   -1.0400    0.6980    0.8650 C   0  0  1  0  0  0  0  0  0  0  0  0
   -1.6460    1.6420   -0.0560 N   0  0  0  0  0  0  0  0  0  0  0  0
  1  2  2  0
  2  3  1  0
  2 20  1  0
  3  4  1  0
  4  5  1  0
  5  6  1  6
  5  7  1  0
  5 19  1  0
  7  8  1  0
  8  9  1  0
  9 10  1  0
 10 11  1  0
 11 12  2  0
 12 13  1  0
 13 14  1  0
 14 15  2  0
 14 16  1  0
 16 17  1  0
 17 18  2  0
 17 19  1  0
 19 20  1  6
M  CHG  1   8   1
M  END
