
     RDKit          3D

 30 30  0  0  0  0  0  0  0  0999 V2000
    6.0640    1.3760    1.4560 C   0  0  0  0  0  0  0  0  0  0  0  0
    4.5630    1.1800    1.5250 C   0  0  0  0  0  0  0  0  0  0  0  0
    3.9880    1.1050    0.2660 O   0  0  0  0  0  0  0  0  0  0  0  0
    2.2810    0.8820    0.4860 P   0  0  0  0  0  0  0  0  0  0  0  0
    2.0690   -0.4610    1.5650 O   0  0  0  0  0  0  0  0  0  0  0  0
    1.5130    0.4460   -1.0610 O   0  0  0  0  0  0  0  0  0  0  0  0
    0.3190   -0.3620   -1.0450 C   0  0  0  0  0  0  0  0  0  0  0  0
    0.4440   -1.5490   -1.4230 C   0  0  0  0  0  0  0  0  0  0  0  0
    1.6170   -2.2750   -1.8940 C   0  0  0  0  0  0  0  0  0  0  0  0
    1.4290   -3.5800   -2.2350 C   0  0  0  0  0  0  0  0  0  0  0  0
    0.1890   -4.1780   -2.1370 O   0  0  0  0  0  0  0  0  0  0  0  0
    2.4530   -4.3220   -2.6780 F   0  0  0  0  0  0  0  0  0  0  0  0
    2.9780   -1.7870   -2.0560 C   0  0  2  0  0  0  0  0  0  0  0  0
    3.6340   -1.7030   -0.8640 F   0  0  0  0  0  0  0  0  0  0  0  0
    3.0200   -0.5500   -2.7080 F   0  0  0  0  0  0  0  0  0  0  0  0
    3.7350   -2.6760   -2.8540 F   0  0  0  0  0  0  0  0  0  0  0  0
   -0.9160    0.3300   -0.5700 C   0  0  0  0  0  0  0  0  0  0  0  0
   -0.7030    1.6170   -0.3030 C   0  0  0  0  0  0  0  0  0  0  0  0
   -1.4760    2.7320    0.1340 C   0  0  0  0  0  0  0  0  0  0  0  0
   -0.8550    3.8980    0.4350 C   0  0  0  0  0  0  0  0  0  0  0  0
   -1.5100    5.1300    0.8980 C   0  0  0  0  0  0  0  0  0  0  0  0
   -2.8860    5.1210    0.6730 O   0  0  0  0  0  0  0  0  0  0  0  0
   -3.5870    3.9850    0.3630 C   0  0  0  0  0  0  0  0  0  0  0  0
   -2.9270    2.8410    0.1040 C   0  0  0  0  0  0  0  0  0  0  0  0
   -2.0270   -0.4030   -0.0520 C   0  0  0  0  0  0  0  0  0  0  0  0
   -2.8100    0.2880    0.9430 O   0  0  0  0  0  0  0  0  0  0  0  0
   -2.4860   -1.5870   -0.2670 C   0  0  0  0  0  0  0  0  0  0  0  0
   -3.6830   -2.1460    0.4180 C   0  0  0  0  0  0  0  0  0  0  0  0
   -4.0830   -3.3800    0.1250 C   0  0  0  0  0  0  0  0  0  0  0  0
   -5.5430   -4.1180    0.9340 P   0  0  0  0  0  0  0  0  0  0  0  0
  1  2  1  0
  2  3  1  0
  3  4  1  0
  4  5  1  0
  4  6  1  0
  6  7  1  0
  7  8  2  3
  7 17  1  0
  8  9  1  0
  9 10  2  3
  9 13  1  0
 10 11  1  0
 10 12  1  0
 13 14  1  1
 13 15  1  0
 13 16  1  0
 17 18  2  3
 17 25  1  0
 18 19  1  0
 19 20  2  0
 19 24  1  0
 20 21  1  0
 21 22  1  0
 22 23  1  0
 23 24  2  0
 25 26  1  0
 25 27  2  3
 27 28  1  0
 28 29  2  3
 29 30  1  0
M  END
