
     RDKit          3D

 30 31  0  0  0  0  0  0  0  0999 V2000
   -4.7040    3.2600   -1.2410 C   0  0  0  0  0  0  0  0  0  0  0  0
   -3.6310    2.2970   -0.8780 C   0  0  0  0  0  0  0  0  0  0  0  0
   -3.9660    1.0500   -0.6040 C   0  0  0  0  0  0  0  0  0  0  0  0
   -2.9570    0.0790   -0.2460 C   0  0  0  0  0  0  0  0  0  0  0  0
   -3.2320   -1.1830    0.0380 C   0  0  0  0  0  0  0  0  0  0  0  0
   -2.2230   -2.1520    0.3950 C   0  0  0  0  0  0  0  0  0  0  0  0
   -2.5460   -3.4020    0.6720 C   0  0  0  0  0  0  0  0  0  0  0  0
   -3.9500   -3.8210    0.6170 C   0  0  2  0  0  0  0  0  0  0  0  0
   -4.5190   -3.6510   -0.6420 F   0  0  0  0  0  0  0  0  0  0  0  0
   -4.7510   -3.1070    1.5130 F   0  0  0  0  0  0  0  0  0  0  0  0
   -4.0330   -5.1620    0.9430 F   0  0  0  0  0  0  0  0  0  0  0  0
   -0.4350   -1.7050    0.4870 P   0  0  0  0  0  0  0  0  0  0  0  0
    0.4500   -2.9290    1.3400 O   0  0  0  0  0  0  0  0  0  0  0  0
   -0.2490   -0.1860    1.3310 O   0  0  0  0  0  0  0  0  0  0  0  0
    0.9260    0.5240    1.1770 C   0  0  0  0  0  0  0  0  0  0  0  0
    1.0300    1.7250    1.8660 C   0  0  0  0  0  0  0  0  0  0  0  0
    0.0430    2.2030    2.6580 F   0  0  0  0  0  0  0  0  0  0  0  0
    2.1820    2.4720    1.7460 C   0  0  0  0  0  0  0  0  0  0  0  0
    3.2150    2.0210    0.9470 C   0  0  0  0  0  0  0  0  0  0  0  0
    4.3910    2.7390    0.7980 O   0  0  0  0  0  0  0  0  0  0  0  0
    4.5190    3.9670    1.4910 C   0  0  0  0  0  0  0  0  0  0  0  0
    3.0740    0.8160    0.2750 C   0  0  0  0  0  0  0  0  0  0  0  0
    1.9260    0.0420    0.3760 C   0  0  0  0  0  0  0  0  0  0  0  0
    1.6400   -1.1730   -0.2300 O   0  0  0  0  0  0  0  0  0  0  0  0
    2.5320   -2.0020   -0.9780 C   0  0  0  0  0  0  0  0  0  0  0  0
    3.9300   -1.9130   -0.4250 C   0  0  0  0  0  0  0  0  0  0  0  0
    4.6880   -0.7260   -0.9750 C   0  0  0  0  0  0  0  0  0  0  0  0
    4.1900    0.4980   -0.4840 O   0  0  0  0  0  0  0  0  0  0  0  0
   -5.7080    0.4920   -0.6620 P   0  0  0  0  0  0  0  0  0  0  0  0
   -6.2310   -0.1730   -1.9610 O   0  0  0  0  0  0  0  0  0  0  0  0
  1  2  1  0
  2  3  2  3
  3  4  1  0
  3 29  1  0
  4  5  2  3
  5  6  1  0
  6  7  2  3
  6 12  1  0
  7  8  1  0
  8  9  1  6
  8 10  1  0
  8 11  1  0
 12 13  1  0
 12 14  1  0
 14 15  1  0
 15 16  2  0
 15 23  1  0
 16 17  1  0
 16 18  1  0
 18 19  2  0
 19 20  1  0
 19 22  1  0
 20 21  1  0
 22 23  2  0
 22 28  1  0
 23 24  1  0
 24 25  1  0
 25 26  1  0
 26 27  1  0
 27 28  1  0
 29 30  2  0
M  END
