
     RDKit          3D

 30 31  0  0  0  0  0  0  0  0999 V2000
    6.5960    0.8050    1.4800 C   0  0  0  0  0  0  0  0  0  0  0  0
    4.8290    1.3420    1.3140 P   0  0  0  0  0  0  0  0  0  0  0  0
    4.7690    3.0200    0.5860 C   0  0  0  0  0  0  0  0  0  0  0  0
    4.1340    3.1890   -0.5620 C   0  0  0  0  0  0  0  0  0  0  0  0
    4.1550    4.4930   -1.0110 F   0  0  0  0  0  0  0  0  0  0  0  0
    3.4630    2.2100   -1.3460 C   0  0  0  0  0  0  0  0  0  0  0  0
    3.3590    0.9360   -1.0490 C   0  0  0  0  0  0  0  0  0  0  0  0
    2.6590    0.0700   -1.9230 O   0  0  0  0  0  0  0  0  0  0  0  0
    1.3280    0.4780   -2.2200 C   0  0  0  0  0  0  0  0  0  0  0  0
    0.4960    0.5630   -0.9760 C   0  0  0  0  0  0  0  0  0  0  0  0
    0.9470    1.4440   -0.0440 F   0  0  0  0  0  0  0  0  0  0  0  0
   -0.5990   -0.1690   -0.8100 C   0  0  0  0  0  0  0  0  0  0  0  0
   -0.9250   -1.0130   -1.8510 F   0  0  0  0  0  0  0  0  0  0  0  0
   -1.4590   -0.1350    0.3740 C   0  0  2  0  0  0  0  0  0  0  0  0
   -2.8570    0.3180    0.1430 C   0  0  0  0  0  0  0  0  0  0  0  0
   -3.3370    1.3230    0.7120 O   0  0  0  0  0  0  0  0  0  0  0  0
   -3.6600   -0.3870   -0.7270 O   0  0  0  0  0  0  0  0  0  0  0  0
   -4.9730   -0.1400   -1.0750 C   0  0  0  0  0  0  0  0  0  0  0  0
   -5.9780   -0.1960    0.0220 C   0  0  1  0  0  0  0  0  0  0  0  0
   -7.3550    0.1020   -0.5830 C   0  0  0  0  0  0  0  0  0  0  0  0
   -6.0700   -1.6200    0.5610 C   0  0  0  0  0  0  0  0  0  0  0  0
   -5.7630    0.6640    1.0590 F   0  0  0  0  0  0  0  0  0  0  0  0
   -0.8580    0.2270    1.6890 C   0  0  0  0  0  0  0  0  0  0  0  0
   -1.4030   -0.9140    2.3090 O   0  0  0  0  0  0  0  0  0  0  0  0
   -1.4480   -1.5050    1.0470 C   0  0  0  0  0  0  0  0  0  0  0  0
    3.9090    0.2870    0.1340 C   0  0  0  0  0  0  0  0  0  0  0  0
    3.7490   -1.0050    0.3430 C   0  0  0  0  0  0  0  0  0  0  0  0
    3.0740   -1.8470   -0.4990 O   0  0  0  0  0  0  0  0  0  0  0  0
    3.9200   -3.0840   -1.4190 P   0  0  0  0  0  0  0  0  0  0  0  0
    5.4790   -2.5650   -1.9160 O   0  0  0  0  0  0  0  0  0  0  0  0
  1  2  1  0
  2  3  1  0
  2 26  1  0
  3  4  2  0
  4  5  1  0
  4  6  1  0
  6  7  2  0
  7  8  1  0
  7 26  1  0
  8  9  1  0
  9 10  1  0
 10 11  1  0
 10 12  2  3
 12 13  1  0
 14 12  1  6
 14 15  1  0
 14 23  1  0
 14 25  1  0
 15 16  2  0
 15 17  1  0
 17 18  1  0
 18 19  1  0
 19 20  1  6
 19 21  1  0
 19 22  1  0
 23 24  1  0
 24 25  1  0
 26 27  2  3
 27 28  1  0
 28 29  1  0
 29 30  1  0
M  END
