
     RDKit          3D

 30 31  0  0  0  0  0  0  0  0999 V2000
   -3.1690   -1.2500    0.0870 C   0  0  0  0  0  0  0  0  0  0  0  0
   -2.4260   -0.0400    0.5900 C   0  0  0  0  0  0  0  0  0  0  0  0
   -3.0550    1.1170    0.5130 C   0  0  0  0  0  0  0  0  0  0  0  0
   -2.4200    2.2280    0.9680 F   0  0  0  0  0  0  0  0  0  0  0  0
   -4.3380    1.3700   -0.1110 C   0  0  0  0  0  0  0  0  0  0  0  0
   -4.6160    1.1550   -1.4460 C   0  0  0  0  0  0  0  0  0  0  0  0
   -3.6070    0.7340   -2.2580 F   0  0  0  0  0  0  0  0  0  0  0  0
   -5.8830    1.3970   -1.9460 C   0  0  0  0  0  0  0  0  0  0  0  0
   -6.9030    1.8560   -1.1450 C   0  0  0  0  0  0  0  0  0  0  0  0
   -8.1420    2.0950   -1.6220 F   0  0  0  0  0  0  0  0  0  0  0  0
   -6.6390    2.0780    0.1970 C   0  0  0  0  0  0  0  0  0  0  0  0
   -5.3770    1.8370    0.6970 C   0  0  0  0  0  0  0  0  0  0  0  0
   -5.0930    2.0500    2.0220 F   0  0  0  0  0  0  0  0  0  0  0  0
   -1.0490   -0.2160    1.0790 C   0  0  1  0  0  0  0  0  0  0  0  0
   -0.3500    1.0670    1.4700 C   0  0  0  0  0  0  0  0  0  0  0  0
    0.9860    0.7800    1.9250 O   0  0  0  0  0  0  0  0  0  0  0  0
    1.8950    0.2830    1.0400 C   0  0  0  0  0  0  0  0  0  0  0  0
    1.6820    0.0540   -0.1620 O   0  0  0  0  0  0  0  0  0  0  0  0
    3.2870   -0.0180    1.5420 C   0  0  0  0  0  0  0  0  0  0  0  0
    4.2150    0.7180    0.5910 C   0  0  0  0  0  0  0  0  0  0  0  0
    3.8990    0.0950   -1.1220 P   0  0  0  0  0  0  0  0  0  0  0  0
    4.7080   -1.4210   -1.3320 O   0  0  0  0  0  0  0  0  0  0  0  0
    6.0700   -1.2000   -1.1910 C   0  0  0  0  0  0  0  0  0  0  0  0
    6.5350    0.0720   -1.8540 C   0  0  0  0  0  0  0  0  0  0  0  0
    5.6160    0.5860   -2.9110 C   0  0  0  0  0  0  0  0  0  0  0  0
    4.5160    1.1940   -2.3140 O   0  0  0  0  0  0  0  0  0  0  0  0
   -0.9810   -1.1280    2.2700 C   0  0  0  0  0  0  0  0  0  0  0  0
   -1.5500   -2.8540    1.9840 P   0  0  0  0  0  0  0  0  0  0  0  0
   -2.0690   -3.5410    3.5160 O   0  0  0  0  0  0  0  0  0  0  0  0
   -0.2800   -3.8680    1.3700 O   0  0  0  0  0  0  0  0  0  0  0  0
  1  2  1  0
  2  3  2  3
  2 14  1  0
  3  4  1  0
  3  5  1  0
  5  6  2  0
  5 12  1  0
  6  7  1  0
  6  8  1  0
  8  9  2  0
  9 10  1  0
  9 11  1  0
 11 12  2  0
 12 13  1  0
 14 15  1  1
 14 27  1  0
 15 16  1  0
 16 17  1  0
 17 18  2  0
 17 19  1  0
 19 20  1  0
 20 21  1  0
 21 22  1  0
 21 26  1  0
 22 23  1  0
 23 24  1  0
 24 25  1  0
 25 26  1  0
 27 28  1  0
 28 29  1  0
 28 30  1  0
M  END
