
     RDKit          3D

 29 30  0  0  0  0  0  0  0  0999 V2000
    6.9960    0.0250    0.3920 C   0  0  0  0  0  0  0  0  0  0  0  0
    7.1490    0.5560   -1.0080 C   0  0  0  0  0  0  0  0  0  0  0  0
    6.0860   -0.5670   -2.0820 P   0  0  0  0  0  0  0  0  0  0  0  0
    6.7140   -2.1850   -1.8070 O   0  0  0  0  0  0  0  0  0  0  0  0
    4.3930   -0.5110   -1.3590 C   0  0  0  0  0  0  0  0  0  0  0  0
    3.9370    0.6190   -0.7090 C   0  0  0  0  0  0  0  0  0  0  0  0
    2.6800    0.7110   -0.1330 C   0  0  0  0  0  0  0  0  0  0  0  0
    1.8410   -0.3620   -0.2050 C   0  0  0  0  0  0  0  0  0  0  0  0
    0.5330   -0.3100    0.4140 C   0  0  0  0  0  0  0  0  0  0  0  0
   -0.2340   -1.3050    0.3480 O   0  0  0  0  0  0  0  0  0  0  0  0
    0.0310    0.8110    1.1160 O   0  0  0  0  0  0  0  0  0  0  0  0
   -1.3050    0.6840    1.6610 C   0  0  0  0  0  0  0  0  0  0  0  0
   -2.2080    0.4430    0.6780 O   0  0  0  0  0  0  0  0  0  0  0  0
   -3.5380    0.1680    0.6430 C   0  0  0  0  0  0  0  0  0  0  0  0
   -4.3350    0.0200    1.7520 C   0  0  0  0  0  0  0  0  0  0  0  0
   -5.6930   -0.2790    1.6210 C   0  0  0  0  0  0  0  0  0  0  0  0
   -6.5400   -0.4420    2.8350 C   0  0  1  0  0  0  0  0  0  0  0  0
   -5.9460   -1.3670    3.7090 F   0  0  0  0  0  0  0  0  0  0  0  0
   -6.6670    0.7520    3.5290 F   0  0  0  0  0  0  0  0  0  0  0  0
   -7.7800   -0.9100    2.4970 F   0  0  0  0  0  0  0  0  0  0  0  0
   -6.2510   -0.4260    0.3520 C   0  0  0  0  0  0  0  0  0  0  0  0
   -5.4730   -0.2790   -0.7870 C   0  0  0  0  0  0  0  0  0  0  0  0
   -6.0750   -0.4290   -2.1010 C   0  0  0  0  0  0  0  0  0  0  0  0
   -7.2860   -0.6640   -2.1980 O   0  0  0  0  0  0  0  0  0  0  0  0
   -5.3100   -0.3140   -3.2410 O   0  0  0  0  0  0  0  0  0  0  0  0
   -4.1540    0.0090   -0.5930 C   0  0  0  0  0  0  0  0  0  0  0  0
   -3.3590    0.1440   -1.6990 F   0  0  0  0  0  0  0  0  0  0  0  0
    2.2710   -1.5110   -0.8530 C   0  0  0  0  0  0  0  0  0  0  0  0
    3.5190   -1.5930   -1.4210 C   0  0  0  0  0  0  0  0  0  0  0  0
  1  2  1  0
  2  3  1  0
  3  4  1  0
  3  5  1  0
  5  6  2  0
  5 29  1  0
  6  7  1  0
  7  8  2  0
  8  9  1  0
  8 28  1  0
  9 10  2  0
  9 11  1  0
 11 12  1  0
 12 13  1  0
 13 14  1  0
 14 15  2  0
 14 26  1  0
 15 16  1  0
 16 17  1  0
 16 21  2  0
 17 18  1  1
 17 19  1  0
 17 20  1  0
 21 22  1  0
 22 23  1  0
 22 26  2  0
 23 24  2  0
 23 25  1  0
 26 27  1  0
 28 29  2  0
M  END
