
     RDKit          3D

 12 11  0  0  0  0  0  0  0  0999 V2000
   -3.7300    4.1540    0.5300 O   0  0  0  0  0  0  0  0  0  0  0  0
   -3.1430    3.0890    0.3800 C   0  0  0  0  0  0  0  0  0  0  0  0
   -2.2180    1.8620   -0.2410 P   0  0  0  0  0  0  0  0  0  0  0  0
   -1.2380    0.5240    1.1970 P   0  0  0  0  0  0  0  0  0  0  0  0
    0.1440   -0.2190    0.4000 O   0  0  0  0  0  0  0  0  0  0  0  0
    1.2020    0.5730    0.0050 C   0  0  0  0  0  0  0  0  0  0  0  0
    2.4000    0.0610   -0.2270 C   0  0  0  0  0  0  0  0  0  0  0  0
    3.5050    0.9000   -0.6410 C   0  0  0  0  0  0  0  0  0  0  0  0
    4.9830    0.2260   -0.9210 P   0  0  0  0  0  0  0  0  0  0  0  0
   -2.3670   -0.6930    1.7100 O   0  0  0  0  0  0  0  0  0  0  0  0
   -2.2220   -1.7930    0.8730 C   0  0  0  0  0  0  0  0  0  0  0  0
   -3.1210   -2.7830    1.2700 O   0  0  0  0  0  0  0  0  0  0  0  0
  1  2  2  0
  2  3  2  0
  3  4  1  0
  4  5  1  0
  4 10  1  0
  5  6  1  0
  6  7  2  3
  7  8  1  0
  8  9  2  0
 10 11  1  0
 11 12  1  0
M  END
