
     RDKit          3D

 12 12  0  0  0  0  0  0  0  0999 V2000
    1.6120   -1.1660   -1.1400 O   0  0  0  0  0  0  0  0  0  0  0  0
    1.2870   -0.1180   -0.5420 C   0  0  0  0  0  0  0  0  0  0  0  0
    2.4090    1.2900   -0.6270 P   0  0  0  0  0  0  0  0  0  0  0  0
    3.9120    1.3140    0.0380 C   0  0  0  0  0  0  0  0  0  0  0  0
    4.6830    2.4450   -0.0890 O   0  0  0  0  0  0  0  0  0  0  0  0
   -0.0120   -0.0980    0.2060 C   0  0  0  0  0  0  0  0  0  0  0  0
   -0.8360   -1.0910    0.2870 C   0  0  0  0  0  0  0  0  0  0  0  0
   -0.5410   -2.7360   -0.5260 P   0  0  0  0  0  0  0  0  0  0  0  0
   -2.0690   -0.9040    1.0620 C   0  0  0  0  0  0  0  0  0  0  0  0
   -2.0850    0.9760    1.1330 P   0  0  0  0  0  0  0  0  0  0  0  0
   -3.2400    1.8660   -0.4480 P   0  0  0  0  0  0  0  0  0  0  0  0
   -0.3450    1.0750    0.8570 O   0  0  0  0  0  0  0  0  0  0  0  0
  1  2  2  0
  2  3  1  0
  2  6  1  0
  3  4  2  3
  4  5  1  0
  6  7  2  0
  6 12  1  0
  7  8  1  0
  7  9  1  0
  9 10  1  0
 10 11  1  0
 10 12  1  0
M  END
