
     RDKit          3D

 12 11  0  0  0  0  0  0  0  0999 V2000
   -2.7000    1.1580   -1.2610 C   0  0  0  0  0  0  0  0  0  0  0  0
   -2.4940   -0.6710   -1.0780 P   0  0  0  0  0  0  0  0  0  0  0  0
   -0.9800   -1.1340   -0.1600 C   0  0  0  0  0  0  0  0  0  0  0  0
    0.0900   -0.1160   -0.2430 C   0  0  0  0  0  0  0  0  0  0  0  0
   -0.1080    0.8930   -0.8800 O   0  0  0  0  0  0  0  0  0  0  0  0
    1.6950   -0.3450    0.5870 P   0  0  0  0  0  0  0  0  0  0  0  0
    2.8140    0.8760    0.6450 C   0  0  0  0  0  0  0  0  0  0  0  0
    4.4240    0.6530    1.4760 P   0  0  0  0  0  0  0  0  0  0  0  0
    5.6070   -0.2540    0.7740 C   0  0  0  0  0  0  0  0  0  0  0  0
    5.3540   -0.8410   -0.4570 O   0  0  0  0  0  0  0  0  0  0  0  0
   -3.9080   -1.4540   -0.5300 O   0  0  0  0  0  0  0  0  0  0  0  0
   -4.3980   -1.0120    1.0480 P   0  0  0  0  0  0  0  0  0  0  0  0
  1  2  1  0
  2  3  1  0
  2 11  1  0
  3  4  1  0
  4  5  2  0
  4  6  1  0
  6  7  2  3
  7  8  1  0
  8  9  2  3
  9 10  1  0
 11 12  1  0
M  END
