
     RDKit          3D

 13 14  0  0  0  0  0  0  0  0999 V2000
   -4.1610    0.3100    0.2380 C   0  0  0  0  0  0  0  0  0  0  0  0
   -2.8400   -0.3400    0.3080 C   0  0  0  0  0  0  0  0  0  0  0  0
   -2.6510   -1.6620    0.5370 N   0  0  0  0  0  0  0  0  0  0  0  0
   -1.3340   -1.9140    0.5350 N   0  0  0  0  0  0  0  0  0  0  0  0
   -0.6830   -0.7670    0.3090 C   0  0  0  0  0  0  0  0  0  0  0  0
    0.7440   -0.5900    0.2280 C   0  0  0  0  0  0  0  0  0  0  0  0
    1.4760    0.5620   -0.0030 C   0  0  0  0  0  0  0  0  0  0  0  0
    2.7780    0.2720    0.0030 N   0  0  0  0  0  0  0  0  0  0  0  0
    3.8280    1.2490   -0.2070 C   0  0  0  0  0  0  0  0  0  0  0  0
    2.8880   -1.0220    0.2300 N   0  0  0  0  0  0  0  0  0  0  0  0
    1.7020   -1.5960    0.3730 C   0  0  0  0  0  0  0  0  0  0  0  0
    1.4080   -3.2960    0.6860 Cl  0  0  0  0  0  0  0  0  0  0  0  0
   -1.6090    0.1840    0.1720 N   0  0  0  0  0  0  0  0  0  0  0  0
  1  2  1  0
  2  3  2  0
  2 13  1  0
  3  4  1  0
  4  5  2  0
  5  6  1  0
  5 13  1  0
  6  7  2  0
  6 11  1  0
  7  8  1  0
  8  9  1  0
  8 10  1  0
 10 11  2  0
 11 12  1  0
M  END
