
     RDKit          3D

 13 14  0  0  0  0  0  0  0  0999 V2000
   -0.2900    2.3910   -0.7120 C   0  0  0  0  0  0  0  0  0  0  0  0
    0.5140    1.2010   -0.3900 C   0  0  0  0  0  0  0  0  0  0  0  0
    1.8580    1.0930   -0.4060 N   0  0  0  0  0  0  0  0  0  0  0  0
    2.2380   -0.1080   -0.0650 N   0  0  0  0  0  0  0  0  0  0  0  0
    3.6060   -0.5890    0.0280 C   0  0  0  0  0  0  0  0  0  0  0  0
    1.1310   -0.8280    0.1870 C   0  0  0  0  0  0  0  0  0  0  0  0
    1.1220   -2.5080    0.6840 Cl  0  0  0  0  0  0  0  0  0  0  0  0
    0.0320   -0.0410   -0.0060 C   0  0  0  0  0  0  0  0  0  0  0  0
   -1.3530   -0.4630    0.1690 C   0  0  0  0  0  0  0  0  0  0  0  0
   -2.0860   -0.3930    1.3000 N   0  0  0  0  0  0  0  0  0  0  0  0
   -3.3260   -0.8740    1.0940 C   0  0  0  0  0  0  0  0  0  0  0  0
   -3.3680   -1.2540   -0.1960 N   0  0  0  0  0  0  0  0  0  0  0  0
   -2.1840   -1.0050   -0.7440 N   0  0  0  0  0  0  0  0  0  0  0  0
  1  2  1  0
  2  3  2  0
  2  8  1  0
  3  4  1  0
  4  5  1  0
  4  6  1  0
  6  7  1  0
  6  8  2  0
  8  9  1  0
  9 10  1  0
  9 13  2  0
 10 11  2  0
 11 12  1  0
 12 13  1  0
M  END
