
     RDKit          3D

 13 14  0  0  0  0  0  0  0  0999 V2000
   -2.9610   -0.8180    0.3080 C   0  0  0  0  0  0  0  0  0  0  0  0
   -1.6720   -1.4590    0.4490 N   0  0  0  0  0  0  0  0  0  0  0  0
   -0.4480   -0.7530    0.2210 C   0  0  0  0  0  0  0  0  0  0  0  0
    0.7440   -1.3590    0.3550 N   0  0  0  0  0  0  0  0  0  0  0  0
    1.9100   -0.7280    0.1500 C   0  0  0  0  0  0  0  0  0  0  0  0
    3.1590   -1.5050    0.3300 C   0  0  0  0  0  0  0  0  0  0  0  0
    1.9010    0.5650   -0.2060 N   0  0  0  0  0  0  0  0  0  0  0  0
    0.7280    1.2200   -0.3540 C   0  0  0  0  0  0  0  0  0  0  0  0
    0.4220    2.5230   -0.7050 C   0  0  0  0  0  0  0  0  0  0  0  0
    1.5900    3.7710   -1.0800 Cl  0  0  0  0  0  0  0  0  0  0  0  0
   -0.9570    2.5940   -0.6870 C   0  0  0  0  0  0  0  0  0  0  0  0
   -1.4460    1.3860   -0.3410 N   0  0  0  0  0  0  0  0  0  0  0  0
   -0.4250    0.5430   -0.1360 N   0  0  0  0  0  0  0  0  0  0  0  0
  1  2  1  0
  2  3  1  0
  3  4  2  0
  3 13  1  0
  4  5  1  0
  5  6  1  0
  5  7  2  0
  7  8  1  0
  8  9  2  0
  8 13  1  0
  9 10  1  0
  9 11  1  0
 11 12  2  0
 12 13  1  0
M  END
