
     RDKit          3D

 24 26  0  0  0  0  0  0  0  0999 V2000
   -2.1750    1.6340    1.4400 C   0  0  0  0  0  0  0  0  0  0  0  0
   -2.3790    1.8030   -0.0700 C   0  0  1  0  0  0  0  0  0  0  0  0
   -3.7610    1.7370   -0.2780 O   0  0  0  0  0  0  0  0  0  0  0  0
   -1.9830    3.0840   -0.3810 O   0  0  0  0  0  0  0  0  0  0  0  0
   -0.6510    3.2800   -0.5320 C   0  0  0  0  0  0  0  0  0  0  0  0
    0.1300    2.1100   -0.6090 O   0  0  0  0  0  0  0  0  0  0  0  0
   -0.3950    0.9250   -1.1130 C   0  0  0  0  0  0  0  0  0  0  0  0
    0.3660   -0.0720   -1.8770 C   0  0  0  0  0  0  0  0  0  0  0  0
    1.4320   -0.6290   -1.2390 O   0  0  0  0  0  0  0  0  0  0  0  0
    2.4310    0.1990   -0.8310 C   0  0  2  0  0  0  0  0  0  0  0  0
    3.7930   -0.1560   -1.3760 C   0  0  0  0  0  0  0  0  0  0  0  0
    4.8130    0.3250   -0.3620 C   0  0  0  0  0  0  0  0  0  0  0  0
    4.7640   -0.6940    0.7850 C   0  0  1  0  0  0  0  0  0  0  0  0
    5.3540   -0.1720    1.9250 O   0  0  0  0  0  0  0  0  0  0  0  0
    3.2680   -0.9610    0.9960 C   0  0  0  0  0  0  0  0  0  0  0  0
    2.5120    0.1240    0.5630 O   0  0  0  0  0  0  0  0  0  0  0  0
   -1.7020    0.7520   -0.8390 C   0  0  0  0  0  0  0  0  0  0  0  0
   -2.3740   -0.3830   -1.2740 O   0  0  0  0  0  0  0  0  0  0  0  0
   -3.0210   -1.2610   -0.4190 C   0  0  0  0  0  0  0  0  0  0  0  0
   -2.3160   -1.9460    0.4440 C   0  0  0  0  0  0  0  0  0  0  0  0
   -2.9390   -2.8910    1.3770 C   0  0  0  0  0  0  0  0  0  0  0  0
   -4.3100   -2.9720    1.2450 O   0  0  0  0  0  0  0  0  0  0  0  0
   -5.0580   -2.2580    0.3430 C   0  0  0  0  0  0  0  0  0  0  0  0
   -4.4610   -1.3980   -0.5010 C   0  0  0  0  0  0  0  0  0  0  0  0
  2  1  1  1
  2  3  1  0
  2  4  1  0
  2 17  1  0
  4  5  1  0
  5  6  1  0
  6  7  1  0
  7  8  1  0
  7 17  2  0
  8  9  1  0
 10  9  1  6
 10 11  1  0
 10 16  1  0
 11 12  1  0
 12 13  1  0
 13 14  1  1
 13 15  1  0
 15 16  1  0
 17 18  1  0
 18 19  1  0
 19 20  2  0
 19 24  1  0
 20 21  1  0
 21 22  1  0
 22 23  1  0
 23 24  2  0
M  END
