
     RDKit          3D

 23 25  0  0  0  0  0  0  0  0999 V2000
    2.9600   -3.5450   -0.5070 O   0  0  0  0  0  0  0  0  0  0  0  0
    3.3160   -2.5740    0.5830 S   0  0  1  0  0  0  0  0  0  0  0  0
    3.3420   -3.2370    1.9330 O   0  0  0  0  0  0  0  0  0  0  0  0
    4.8460   -1.8030    0.2280 C   0  0  0  0  0  0  0  0  0  0  0  0
    4.8540   -0.4960    0.0560 C   0  0  0  0  0  0  0  0  0  0  0  0
    3.7670    0.3520    0.1270 N   0  0  0  0  0  0  0  0  0  0  0  0
    2.5570    0.0630    0.3710 C   0  0  0  0  0  0  0  0  0  0  0  0
    1.5780    1.1480    0.3880 C   0  0  0  0  0  0  0  0  0  0  0  0
    1.8060    2.3100    1.0950 C   0  0  0  0  0  0  0  0  0  0  0  0
    0.9060    3.3510    1.1200 C   0  0  0  0  0  0  0  0  0  0  0  0
   -0.2560    3.2150    0.4110 C   0  0  0  0  0  0  0  0  0  0  0  0
   -0.5310    2.0740   -0.3130 C   0  0  0  0  0  0  0  0  0  0  0  0
    0.4100    1.0320   -0.3160 C   0  0  0  0  0  0  0  0  0  0  0  0
    0.1620   -0.1210   -1.0970 N   0  0  0  0  0  0  0  0  0  0  0  0
   -1.1220   -0.2620   -1.7540 C   0  0  0  0  0  0  0  0  0  0  0  0
   -2.2470   -0.4280   -0.8090 C   0  0  0  0  0  0  0  0  0  0  0  0
   -2.0640   -0.4770    0.5450 C   0  0  0  0  0  0  0  0  0  0  0  0
   -3.1570   -0.6470    1.3920 C   0  0  0  0  0  0  0  0  0  0  0  0
   -4.4380   -0.7700    0.8980 C   0  0  0  0  0  0  0  0  0  0  0  0
   -4.6180   -0.7210   -0.4580 C   0  0  0  0  0  0  0  0  0  0  0  0
   -3.5370   -0.5520   -1.3000 C   0  0  0  0  0  0  0  0  0  0  0  0
   -3.7280   -0.5040   -2.6580 O   0  0  0  0  0  0  0  0  0  0  0  0
    2.1880   -1.2760    0.6740 N   0  0  0  0  0  0  0  0  0  0  0  0
  1  2  2  0
  2  3  2  0
  2  4  1  0
  2 23  1  1
  4  5  2  0
  5  6  1  0
  6  7  2  0
  7  8  1  0
  7 23  1  0
  8  9  2  0
  8 13  1  0
  9 10  1  0
 10 11  2  0
 11 12  1  0
 12 13  2  0
 13 14  1  0
 14 15  1  0
 15 16  1  0
 16 17  2  0
 16 21  1  0
 17 18  1  0
 18 19  2  0
 19 20  1  0
 20 21  2  0
 21 22  1  0
M  END
