
     RDKit          3D

 24 25  0  0  0  0  0  0  0  0999 V2000
    2.9990    1.3220   -1.5880 C   0  0  0  0  0  0  0  0  0  0  0  0
    3.6860    0.6730   -0.6520 C   0  0  0  0  0  0  0  0  0  0  0  0
    4.9060   -0.0320   -0.9500 C   0  0  0  0  0  0  0  0  0  0  0  0
    5.3670   -0.0130   -2.2790 O   0  0  0  0  0  0  0  0  0  0  0  0
    5.5780   -0.6740   -0.0390 C   0  0  0  0  0  0  0  0  0  0  0  0
    6.7560   -1.3420   -0.3820 O   0  0  0  0  0  0  0  0  0  0  0  0
    3.1750    0.7030    0.7430 C   0  0  1  0  0  0  0  0  0  0  0  0
    4.1750    1.4220    1.6250 C   0  0  0  0  0  0  0  0  0  0  0  0
    1.9600    1.4150    0.7940 O   0  0  0  0  0  0  0  0  0  0  0  0
    0.8340    0.7740    1.2680 C   0  0  0  0  0  0  0  0  0  0  0  0
    0.9420   -0.4210    1.6350 O   0  0  0  0  0  0  0  0  0  0  0  0
   -0.4500    1.5240    1.3230 C   0  0  0  0  0  0  0  0  0  0  0  0
   -1.3360    1.2210    0.1510 C   0  0  0  0  0  0  0  0  0  0  0  0
   -1.6910   -0.2580    0.0880 C   0  0  2  0  0  0  0  0  0  0  0  0
   -2.5740   -0.5730   -1.0810 C   0  0  0  0  0  0  0  0  0  0  0  0
   -4.0370   -0.6260   -0.7450 C   0  0  1  0  0  0  0  0  0  0  0  0
   -4.6400    0.7540   -0.7750 C   0  0  0  0  0  0  0  0  0  0  0  0
   -4.6950   -1.4080   -1.7300 O   0  0  0  0  0  0  0  0  0  0  0  0
   -5.3870   -2.4570   -1.1420 C   0  0  0  0  0  0  0  0  0  0  0  0
   -6.2940   -3.1860   -1.6230 O   0  0  0  0  0  0  0  0  0  0  0  0
   -4.9070   -2.6070    0.1490 O   0  0  0  0  0  0  0  0  0  0  0  0
   -4.3170   -1.3750    0.5310 C   0  0  1  0  0  0  0  0  0  0  0  0
   -3.0530   -1.7020    1.2910 C   0  0  0  0  0  0  0  0  0  0  0  0
   -2.2540   -0.5820    1.3090 O   0  0  0  0  0  0  0  0  0  0  0  0
  1  2  2  0
  2  3  1  0
  2  7  1  0
  3  4  1  0
  3  5  2  3
  5  6  1  0
  7  8  1  1
  7  9  1  0
  9 10  1  0
 10 11  2  0
 10 12  1  0
 12 13  1  0
 14 13  1  1
 14 15  1  0
 14 24  1  0
 15 16  1  0
 16 17  1  1
 16 18  1  0
 16 22  1  0
 18 19  1  0
 19 20  2  0
 19 21  1  0
 21 22  1  0
 22 23  1  6
 23 24  1  0
M  END
