
     RDKit          3D

 23 25  0  0  0  0  0  0  0  0999 V2000
    1.3500   -1.1160   -0.8580 O   0  0  0  0  0  0  0  0  0  0  0  0
    1.9220   -0.3910   -0.1320 C   0  0  0  0  0  0  0  0  0  0  0  0
    3.2920   -0.3810    0.2800 C   0  0  0  0  0  0  0  0  0  0  0  0
    3.7980   -1.4040    1.2410 C   0  0  0  0  0  0  0  0  0  0  0  0
    5.2640   -1.1200    1.3910 C   0  0  0  0  0  0  0  0  0  0  0  0
    5.8800   -0.7090    2.4750 C   0  0  0  0  0  0  0  0  0  0  0  0
    7.3060   -0.5760    2.1460 C   0  0  0  0  0  0  0  0  0  0  0  0
    7.3920   -0.9990    0.7340 C   0  0  0  0  0  0  0  0  0  0  0  0
    6.2050   -1.3100    0.2920 C   0  0  0  0  0  0  0  0  0  0  0  0
    0.9930    0.8780    0.5810 N   0  0  0  0  0  0  0  0  0  0  0  0
   -0.1410    0.7340   -0.2400 C   0  0  0  0  0  0  0  0  0  0  0  0
   -0.3330    0.1590   -1.2640 O   0  0  0  0  0  0  0  0  0  0  0  0
   -1.2830    1.4620    0.4100 N   0  0  0  0  0  0  0  0  0  0  0  0
   -2.5340    1.3610   -0.1350 C   0  0  0  0  0  0  0  0  0  0  0  0
   -3.6910    1.6920    0.0110 N   0  0  0  0  0  0  0  0  0  0  0  0
   -4.7190    1.4020   -0.6600 C   0  0  0  0  0  0  0  0  0  0  0  0
   -4.5000    0.5450   -1.7790 C   0  0  0  0  0  0  0  0  0  0  0  0
   -2.7960    0.2740   -1.6990 S   0  0  0  0  0  0  0  0  0  0  0  0
   -5.6020    0.1610   -2.6230 C   0  0  0  0  0  0  0  0  0  0  0  0
   -5.3460   -0.1490   -3.8230 O   0  0  0  0  0  0  0  0  0  0  0  0
   -7.0120    0.1040   -2.1580 C   0  0  0  0  0  0  0  0  0  0  0  0
   -7.0210    0.5330   -0.6890 C   0  0  0  0  0  0  0  0  0  0  0  0
   -6.1680    1.7570   -0.4760 C   0  0  0  0  0  0  0  0  0  0  0  0
  1  2  2  0
  2  3  1  0
  2 10  1  0
  3  4  1  0
  4  5  1  0
  5  6  2  0
  5  9  1  0
  6  7  1  0
  7  8  1  0
  8  9  2  0
 10 11  1  0
 11 12  2  0
 11 13  1  0
 13 14  1  0
 14 15  2  0
 14 18  1  0
 15 16  1  0
 16 17  2  0
 16 23  1  0
 17 18  1  0
 17 19  1  0
 19 20  2  0
 19 21  1  0
 21 22  1  0
 22 23  1  0
M  END
