
     RDKit          3D

 24 25  0  0  0  0  0  0  0  0999 V2000
   -4.7500   -0.6210   -2.1160 C   0  0  0  0  0  0  0  0  0  0  0  0
   -4.3820   -0.7320   -0.6550 C   0  0  2  0  0  0  0  0  0  0  0  0
   -5.4770   -0.1500    0.2330 C   0  0  0  0  0  0  0  0  0  0  0  0
   -5.2590   -0.7900    1.5060 O   0  0  0  0  0  0  0  0  0  0  0  0
   -3.9150   -1.1310    1.7510 C   0  0  0  0  0  0  0  0  0  0  0  0
   -3.6250   -2.1280    2.4520 O   0  0  0  0  0  0  0  0  0  0  0  0
   -2.8160   -0.2940    1.1680 C   0  0  2  0  0  0  0  0  0  0  0  0
   -2.6110    0.8470    1.8510 O   0  0  0  0  0  0  0  0  0  0  0  0
   -1.4520    1.1670    2.4350 C   0  0  0  0  0  0  0  0  0  0  0  0
   -0.2260    1.3840    1.6430 C   0  0  1  0  0  0  0  0  0  0  0  0
    0.7880    1.7610    2.5840 O   0  0  0  0  0  0  0  0  0  0  0  0
    0.3560    0.2220    0.9100 C   0  0  0  0  0  0  0  0  0  0  0  0
    1.8210    0.6250    0.6320 C   0  0  1  0  0  0  0  0  0  0  0  0
    2.4370   -0.4750   -0.1460 C   0  0  0  0  0  0  0  0  0  0  0  0
    1.7810   -1.5220   -0.4710 O   0  0  0  0  0  0  0  0  0  0  0  0
    3.7520   -0.4380   -0.5660 O   0  0  0  0  0  0  0  0  0  0  0  0
    4.3870   -1.4480   -1.3030 C   0  0  2  0  0  0  0  0  0  0  0  0
    5.6700   -1.9160   -0.6660 C   0  0  0  0  0  0  0  0  0  0  0  0
    4.7720   -0.8250   -2.6510 C   0  0  0  0  0  0  0  0  0  0  0  0
    5.4190   -1.7830   -3.4520 O   0  0  0  0  0  0  0  0  0  0  0  0
    1.7940    1.9300   -0.1270 C   0  0  0  0  0  0  0  0  0  0  0  0
    0.3840    2.4300   -0.3410 C   0  0  0  0  0  0  0  0  0  0  0  0
   -0.3580    2.4860    0.8070 O   0  0  0  0  0  0  0  0  0  0  0  0
   -3.1010   -0.0450   -0.3230 C   0  0  0  0  0  0  0  0  0  0  0  0
  2  1  1  6
  2  3  1  0
  2 24  1  0
  3  4  1  0
  4  5  1  0
  5  6  2  0
  5  7  1  0
  7  8  1  1
  7 24  1  0
  8  9  1  0
  9 10  1  0
 10 11  1  1
 10 12  1  0
 10 23  1  0
 12 13  1  0
 13 14  1  6
 13 21  1  0
 14 15  2  0
 14 16  1  0
 16 17  1  0
 17 18  1  1
 17 19  1  0
 19 20  1  0
 21 22  1  0
 22 23  1  0
M  END
