
     RDKit          3D

 20 20  0  0  0  0  0  0  0  0999 V2000
   -3.6830    1.1480    1.6120 C   0  0  0  0  0  0  0  0  0  0  0  0
   -3.7630   -0.3030    1.3770 C   0  0  0  0  0  0  0  0  0  0  0  0
   -3.1150   -0.8570    0.3840 C   0  0  0  0  0  0  0  0  0  0  0  0
   -3.2790   -2.3310    0.2540 C   0  0  0  0  0  0  0  0  0  0  0  0
   -3.0000   -3.0950   -0.7960 C   0  0  0  0  0  0  0  0  0  0  0  0
   -2.4860   -2.6100   -1.9940 O   0  0  0  0  0  0  0  0  0  0  0  0
   -2.8550   -1.4390   -2.6500 C   0  0  0  0  0  0  0  0  0  0  0  0
   -2.8030   -0.1540   -1.9690 C   0  0  0  0  0  0  0  0  0  0  0  0
   -2.2780   -0.0950   -0.5570 C   0  0  1  0  0  0  0  0  0  0  0  0
   -1.9890    1.1880   -0.2140 O   0  0  0  0  0  0  0  0  0  0  0  0
   -0.6410    1.4730   -0.0510 C   0  0  0  0  0  0  0  0  0  0  0  0
    0.0490    0.6950    1.0160 C   0  0  0  0  0  0  0  0  0  0  0  0
    1.5190    1.0580    1.1350 C   0  0  0  0  0  0  0  0  0  0  0  0
    2.4520    0.7450   -0.4160 P   0  0  0  0  0  0  0  0  0  0  0  0
    3.5740    2.0070   -0.7920 O   0  0  0  0  0  0  0  0  0  0  0  0
    4.2740    2.3190    0.3750 C   0  0  0  0  0  0  0  0  0  0  0  0
    5.2690    3.4120    0.1200 C   0  0  0  0  0  0  0  0  0  0  0  0
    3.2030   -0.8100   -0.4300 O   0  0  0  0  0  0  0  0  0  0  0  0
    2.3180   -1.7310    0.1020 C   0  0  0  0  0  0  0  0  0  0  0  0
    2.9490   -3.1250    0.1070 C   0  0  0  0  0  0  0  0  0  0  0  0
  1  2  1  0
  2  3  2  3
  3  4  1  0
  3  9  1  0
  4  5  2  0
  5  6  1  0
  6  7  1  0
  7  8  1  0
  8  9  1  0
  9 10  1  1
 10 11  1  0
 11 12  1  0
 12 13  1  0
 13 14  1  0
 14 15  1  0
 14 18  1  0
 15 16  1  0
 16 17  1  0
 18 19  1  0
 19 20  1  0
M  END
