
     RDKit          3D

 27 28  0  0  0  0  0  0  0  0999 V2000
   -5.8940   -3.2310    0.6270 O   0  0  0  0  0  0  0  0  0  0  0  0
   -4.6740   -3.1010    0.3720 C   0  0  0  0  0  0  0  0  0  0  0  0
   -3.8440   -4.1960   -0.2270 C   0  0  0  0  0  0  0  0  0  0  0  0
   -3.1760   -3.6210   -1.3010 O   0  0  0  0  0  0  0  0  0  0  0  0
   -2.1630   -2.7870   -0.9180 C   0  0  0  0  0  0  0  0  0  0  0  0
   -2.5570   -1.8880    0.1740 C   0  0  0  0  0  0  0  0  0  0  0  0
   -1.7730   -1.0780    0.7430 N   0  0  0  0  0  0  0  0  0  0  0  0
   -0.4860   -0.7370    0.6300 N   0  0  0  0  0  0  0  0  0  0  0  0
    0.6550   -1.3500    0.2870 C   0  0  0  0  0  0  0  0  0  0  0  0
    1.7320   -0.5590    0.3820 C   0  0  0  0  0  0  0  0  0  0  0  0
    3.0990   -0.5960    0.1970 O   0  0  0  0  0  0  0  0  0  0  0  0
    4.0270   -1.4150    0.6790 C   0  0  0  0  0  0  0  0  0  0  0  0
    3.6350   -2.4210    1.3950 O   0  0  0  0  0  0  0  0  0  0  0  0
    5.4630   -1.2020    0.4570 C   0  0  0  0  0  0  0  0  0  0  0  0
    5.8900   -1.3690   -0.8110 O   0  0  0  0  0  0  0  0  0  0  0  0
    7.2360   -1.2510   -0.7560 O   0  0  0  0  0  0  0  0  0  0  0  0
    1.2150    0.6820    0.8010 N   0  0  0  0  0  0  0  0  0  0  0  0
   -0.0650    0.5150    0.9140 C   0  0  0  0  0  0  0  0  0  0  0  0
   -0.9730    1.6430    1.1810 N   0  0  0  0  0  0  0  0  0  0  0  0
   -1.1360    2.4670    0.0090 C   0  0  1  0  0  0  0  0  0  0  0  0
   -1.5530    3.9100    0.4200 C   0  0  0  0  0  0  0  0  0  0  0  0
   -2.2230    4.2490   -0.7260 O   0  0  0  0  0  0  0  0  0  0  0  0
   -1.9950    5.2510   -1.4060 O   0  0  0  0  0  0  0  0  0  0  0  0
    0.2740    2.6540   -0.6250 C   0  0  0  0  0  0  0  0  0  0  0  0
    0.3670    3.7140   -1.5200 O   0  0  0  0  0  0  0  0  0  0  0  0
    1.7220    3.8030   -1.7320 O   0  0  0  0  0  0  0  0  0  0  0  0
   -3.9370   -1.9360    0.6260 N   0  0  0  0  0  0  0  0  0  0  0  0
  1  2  2  0
  2  3  1  0
  2 27  1  0
  3  4  1  0
  4  5  1  0
  5  6  1  0
  6  7  2  3
  6 27  1  0
  7  8  1  0
  8  9  1  0
  8 18  1  0
  9 10  2  0
 10 11  1  0
 10 17  1  0
 11 12  1  0
 12 13  2  0
 12 14  1  0
 14 15  1  0
 15 16  1  0
 17 18  2  0
 18 19  1  0
 19 20  1  0
 20 21  1  1
 20 24  1  0
 21 22  1  0
 22 23  1  0
 24 25  1  0
 25 26  1  0
M  END
