
     RDKit          3D

 20 20  0  0  0  0  0  0  0  0999 V2000
   -5.9180   -0.3810    2.2660 C   0  0  0  0  0  0  0  0  0  0  0  0
   -4.9260   -0.2590    3.0440 C   0  0  0  0  0  0  0  0  0  0  0  0
   -3.5060   -0.1570    2.6820 C   0  0  0  0  0  0  0  0  0  0  0  0
   -2.6580   -0.0360    3.6650 C   0  0  0  0  0  0  0  0  0  0  0  0
   -1.2400    0.0770    3.5510 C   0  0  0  0  0  0  0  0  0  0  0  0
   -0.5360    0.1910    4.6220 O   0  0  0  0  0  0  0  0  0  0  0  0
   -3.1210   -0.1940    1.3080 C   0  0  0  0  0  0  0  0  0  0  0  0
   -4.0180   -0.3150    0.4070 O   0  0  0  0  0  0  0  0  0  0  0  0
   -1.8180   -0.1100    0.8050 O   0  0  0  0  0  0  0  0  0  0  0  0
   -1.7070   -0.1710   -0.5980 C   0  0  0  0  0  0  0  0  0  0  0  0
   -0.2920   -0.0730   -1.0140 C   0  0  0  0  0  0  0  0  0  0  0  0
    0.7470    0.0550   -0.2180 C   0  0  0  0  0  0  0  0  0  0  0  0
    1.9810    0.1180   -1.0440 C   0  0  1  0  0  0  0  0  0  0  0  0
    3.1620   -0.4590   -0.3090 C   0  0  0  0  0  0  0  0  0  0  0  0
    4.3260   -0.4270   -1.0250 O   0  0  0  0  0  0  0  0  0  0  0  0
    4.7430    0.8230   -1.3970 C   0  0  0  0  0  0  0  0  0  0  0  0
    5.0010    1.7550   -0.2520 C   0  0  0  0  0  0  0  0  0  0  0  0
    1.5930   -0.6780   -2.2580 C   0  0  0  0  0  0  0  0  0  0  0  0
    0.1790   -0.1130   -2.4630 C   0  0  1  0  0  0  0  0  0  0  0  0
   -0.7110   -1.0750   -3.1850 C   0  0  0  0  0  0  0  0  0  0  0  0
  1  2  2  0
  2  3  1  0
  3  4  2  3
  3  7  1  0
  4  5  1  0
  5  6  2  0
  7  8  2  0
  7  9  1  0
  9 10  1  0
 10 11  1  0
 11 12  2  0
 11 19  1  0
 12 13  1  0
 13 14  1  1
 13 18  1  0
 14 15  1  0
 15 16  1  0
 16 17  1  0
 18 19  1  0
 19 20  1  6
M  END
