
     RDKit          3D

 27 28  0  0  0  0  0  0  0  0999 V2000
    4.0940   -0.7430   -2.1590 O   0  0  0  0  0  0  0  0  0  0  0  0
    3.7270   -1.4310   -1.1730 C   0  0  0  0  0  0  0  0  0  0  0  0
    2.5490   -1.0970   -0.5310 O   0  0  0  0  0  0  0  0  0  0  0  0
    1.8090   -0.0040   -1.0030 C   0  0  0  0  0  0  0  0  0  0  0  0
    0.5430    0.2050   -0.1640 C   0  0  2  0  0  0  0  0  0  0  0  0
   -0.2700   -1.0800   -0.4020 C   0  0  0  0  0  0  0  0  0  0  0  0
   -1.2800   -1.2510    0.5110 O   0  0  0  0  0  0  0  0  0  0  0  0
   -1.5790   -2.6050    0.6190 C   0  0  0  0  0  0  0  0  0  0  0  0
   -2.9960   -2.8760    0.1720 C   0  0  0  0  0  0  0  0  0  0  0  0
   -3.9750   -1.8770    0.7610 C   0  0  0  0  0  0  0  0  0  0  0  0
   -3.4710   -0.5000    0.6750 C   0  0  0  0  0  0  0  0  0  0  0  0
   -3.3370    0.0910   -0.5160 N   0  0  0  0  0  0  0  0  0  0  0  0
   -2.8530    1.3390   -0.6090 N   0  0  0  0  0  0  0  0  0  0  0  0
   -2.5100    1.9700    0.5240 C   0  0  0  0  0  0  0  0  0  0  0  0
   -2.6380    1.3990    1.7280 N   0  0  0  0  0  0  0  0  0  0  0  0
   -3.1220    0.1570    1.7840 N   0  0  0  0  0  0  0  0  0  0  0  0
   -2.0070    3.2520    0.4460 O   0  0  0  0  0  0  0  0  0  0  0  0
   -0.9170    3.5380   -0.3630 C   0  0  0  0  0  0  0  0  0  0  0  0
    0.2120    2.5200   -0.2910 C   0  0  1  0  0  0  0  0  0  0  0  0
    0.9190    2.7070    0.9800 C   0  0  0  0  0  0  0  0  0  0  0  0
    0.2720    2.4420    2.1710 O   0  0  0  0  0  0  0  0  0  0  0  0
    2.1340    3.1160    1.0510 N   0  0  0  0  0  0  0  0  0  0  0  0
    2.8870    3.4170   -0.0540 O   0  0  0  0  0  0  0  0  0  0  0  0
   -0.1970    1.2550   -0.5890 O   0  0  0  0  0  0  0  0  0  0  0  0
    4.5210   -2.4980   -0.7710 O   0  0  0  0  0  0  0  0  0  0  0  0
    5.6570   -2.8000   -1.4090 O   0  0  0  0  0  0  0  0  0  0  0  0
    6.5320   -3.3600   -0.6220 O   0  0  0  0  0  0  0  0  0  0  0  0
  1  2  2  0
  2  3  1  0
  2 25  1  0
  3  4  1  0
  5  4  1  6
  5  6  1  0
  5 24  1  0
  6  7  1  0
  7  8  1  0
  8  9  1  0
  9 10  1  0
 10 11  1  0
 11 12  2  0
 11 16  1  0
 12 13  1  0
 13 14  2  0
 14 15  1  0
 14 17  1  0
 15 16  2  0
 17 18  1  0
 18 19  1  0
 19 20  1  1
 19 24  1  0
 20 21  1  0
 20 22  2  3
 22 23  1  0
 25 26  1  0
 26 27  1  0
M  END
