
     RDKit          3D

 40 46  0  0  0  0  0  0  0  0999 V2000
   -5.5600   -0.9950    3.4860 C   0  0  0  0  0  0  0  0  0  0  0  0
   -4.4370   -0.7100    2.5640 C   0  0  0  0  0  0  0  0  0  0  0  0
   -3.6920   -1.7620    2.0870 C   0  0  0  0  0  0  0  0  0  0  0  0
   -2.6110   -1.5640    1.2090 C   0  0  0  0  0  0  0  0  0  0  0  0
   -1.8360   -2.6940    0.7380 C   0  0  0  0  0  0  0  0  0  0  0  0
   -1.4850   -2.8040   -0.5840 C   0  0  0  0  0  0  0  0  0  0  0  0
   -0.8270   -3.9110   -1.0960 C   0  0  0  0  0  0  0  0  0  0  0  0
   -0.5350   -4.9220   -0.2000 C   0  0  0  0  0  0  0  0  0  0  0  0
    0.0840   -6.0980   -0.3940 N   0  0  0  0  0  0  0  0  0  0  0  0
    0.1210   -6.7140    0.7740 N   0  0  0  0  0  0  0  0  0  0  0  0
   -0.4760   -5.9130    1.6820 C   0  0  0  0  0  0  0  0  0  0  0  0
   -0.9000   -4.7680    1.0800 N   0  0  0  0  0  0  0  0  0  0  0  0
   -1.5210   -3.7210    1.5660 N   0  0  0  0  0  0  0  0  0  0  0  0
   -2.3320   -0.2760    0.8560 C   0  0  0  0  0  0  0  0  0  0  0  0
   -3.0830    0.8090    1.3270 C   0  0  0  0  0  0  0  0  0  0  0  0
   -4.0970    0.5210    2.1600 N   0  0  0  0  0  0  0  0  0  0  0  0
   -2.8100    2.1160    0.8730 N   0  0  0  0  0  0  0  0  0  0  0  0
   -1.5300    2.4940    0.3540 C   0  0  1  0  0  0  0  0  0  0  0  0
   -1.7920    3.2990   -0.8050 O   0  0  0  0  0  0  0  0  0  0  0  0
   -0.8000    3.3520    1.3340 C   0  0  0  0  0  0  0  0  0  0  0  0
    0.4720    3.8090    1.1550 C   0  0  0  0  0  0  0  0  0  0  0  0
    1.1030    4.6090    2.1260 C   0  0  0  0  0  0  0  0  0  0  0  0
    0.4540    4.9530    3.2850 C   0  0  0  0  0  0  0  0  0  0  0  0
    1.2340    5.9580    4.5140 Cl  0  0  0  0  0  0  0  0  0  0  0  0
   -0.8340    4.4920    3.4680 C   0  0  0  0  0  0  0  0  0  0  0  0
   -1.4460    3.7080    2.5120 C   0  0  0  0  0  0  0  0  0  0  0  0
   -0.7670    1.3610   -0.1460 C   0  0  0  0  0  0  0  0  0  0  0  0
    0.4120    1.5030   -0.9450 N   0  0  0  0  0  0  0  0  0  0  0  0
    0.3300    2.2480   -2.1790 C   0  0  0  0  0  0  0  0  0  0  0  0
    1.6190    2.0660   -2.9740 C   0  0  0  0  0  0  0  0  0  0  0  0
    2.0980    0.6490   -2.9320 C   0  0  0  0  0  0  0  0  0  0  0  0
    2.2140    0.0140   -1.6010 C   0  0  1  0  0  0  0  0  0  0  0  0
    3.6610   -0.2650   -1.2880 C   0  0  0  0  0  0  0  0  0  0  0  0
    4.2880   -1.1580   -2.2360 N   0  0  0  0  0  0  0  0  0  0  0  0
    4.2960   -2.5010   -2.0970 C   0  0  0  0  0  0  0  0  0  0  0  0
    4.9840   -2.9930   -3.1790 C   0  0  0  0  0  0  0  0  0  0  0  0
    5.3900   -1.9380   -3.9710 C   0  0  0  0  0  0  0  0  0  0  0  0
    4.9260   -0.8460   -3.3270 N   0  0  0  0  0  0  0  0  0  0  0  0
    1.6380    0.8920   -0.5180 C   0  0  0  0  0  0  0  0  0  0  0  0
   -1.1530    0.1120    0.1020 C   0  0  0  0  0  0  0  0  0  0  0  0
  1  2  1  0
  2  3  2  0
  2 16  1  0
  3  4  1  0
  4  5  1  0
  4 14  2  0
  5  6  1  0
  5 13  2  0
  6  7  2  0
  7  8  1  0
  8  9  2  0
  8 12  1  0
  9 10  1  0
 10 11  2  0
 11 12  1  0
 12 13  1  0
 14 15  1  0
 14 40  1  0
 15 16  2  0
 15 17  1  0
 17 18  1  0
 18 19  1  6
 18 20  1  0
 18 27  1  0
 20 21  2  0
 20 26  1  0
 21 22  1  0
 22 23  2  0
 23 24  1  0
 23 25  1  0
 25 26  2  0
 27 28  1  0
 27 40  2  0
 28 29  1  0
 28 39  1  0
 29 30  1  0
 30 31  1  0
 31 32  1  0
 32 33  1  1
 32 39  1  0
 33 34  1  0
 34 35  1  0
 34 38  1  0
 35 36  2  0
 36 37  1  0
 37 38  2  0
M  END
