
     RDKit          3D

 40 46  0  0  0  0  0  0  0  0999 V2000
   -2.4420    0.6690    1.9800 O   0  0  0  0  0  0  0  0  0  0  0  0
   -1.3490    0.6440    1.3050 C   0  0  0  0  0  0  0  0  0  0  0  0
   -0.1170    1.0290    2.0910 C   0  0  0  0  0  0  0  0  0  0  0  0
    1.0150    0.9110    1.2280 N   0  0  0  0  0  0  0  0  0  0  0  0
    1.5050   -0.3750    0.7970 C   0  0  0  0  0  0  0  0  0  0  0  0
    0.9100   -1.4540    1.0140 N   0  0  0  0  0  0  0  0  0  0  0  0
    1.6750   -2.5070    0.4520 C   0  0  0  0  0  0  0  0  0  0  0  0
    1.6570   -3.8700    0.3000 N   0  0  0  0  0  0  0  0  0  0  0  0
    2.7600   -4.1790   -0.3710 C   0  0  0  0  0  0  0  0  0  0  0  0
    3.4250   -3.0850   -0.6240 N   0  0  0  0  0  0  0  0  0  0  0  0
    2.7650   -2.0300   -0.1180 N   0  0  0  0  0  0  0  0  0  0  0  0
    2.7810   -0.6130    0.0530 C   0  0  2  0  0  0  0  0  0  0  0  0
    3.8030   -0.1410    1.0000 C   0  0  0  0  0  0  0  0  0  0  0  0
    3.5300   -0.0370    2.3720 C   0  0  0  0  0  0  0  0  0  0  0  0
    4.4240    0.3610    3.3170 C   0  0  0  0  0  0  0  0  0  0  0  0
    5.6520    0.6750    2.9090 N   0  0  0  0  0  0  0  0  0  0  0  0
    5.9860    0.5990    1.6080 C   0  0  0  0  0  0  0  0  0  0  0  0
    7.2400    0.9250    1.2200 N   0  0  0  0  0  0  0  0  0  0  0  0
    7.6490    0.8780   -0.0570 C   0  0  0  0  0  0  0  0  0  0  0  0
    8.9370    1.2210   -0.3980 C   0  0  0  0  0  0  0  0  0  0  0  0
    9.3750    1.1760   -1.7130 C   0  0  0  0  0  0  0  0  0  0  0  0
    8.5190    0.7830   -2.7130 C   0  0  0  0  0  0  0  0  0  0  0  0
    7.2270    0.4400   -2.3750 C   0  0  0  0  0  0  0  0  0  0  0  0
    6.8100    0.4900   -1.0660 C   0  0  0  0  0  0  0  0  0  0  0  0
    5.5010    0.1450   -0.6880 C   0  0  0  0  0  0  0  0  0  0  0  0
    4.4190   -0.3340   -1.9630 Cl  0  0  0  0  0  0  0  0  0  0  0  0
    5.0720    0.1890    0.6100 C   0  0  0  0  0  0  0  0  0  0  0  0
   -1.3370    0.2870   -0.0420 N   0  0  0  0  0  0  0  0  0  0  0  0
   -2.4880   -0.0650   -0.7700 C   0  0  0  0  0  0  0  0  0  0  0  0
   -2.3760   -0.8590   -1.9170 C   0  0  0  0  0  0  0  0  0  0  0  0
   -3.4650   -1.1920   -2.6500 C   0  0  0  0  0  0  0  0  0  0  0  0
   -4.7180   -0.7530   -2.2790 C   0  0  0  0  0  0  0  0  0  0  0  0
   -4.9020    0.0400   -1.1490 C   0  0  0  0  0  0  0  0  0  0  0  0
   -6.1890    0.4860   -0.7540 N   0  0  0  0  0  0  0  0  0  0  0  0
   -7.3940   -0.1800   -1.2020 C   0  0  0  0  0  0  0  0  0  0  0  0
   -8.3270   -0.4120   -0.0600 C   0  0  0  0  0  0  0  0  0  0  0  0
   -8.3900    0.6690    0.9610 C   0  0  0  0  0  0  0  0  0  0  0  0
   -7.0120    1.1470    1.3880 C   0  0  0  0  0  0  0  0  0  0  0  0
   -6.3580    1.6370    0.0950 C   0  0  0  0  0  0  0  0  0  0  0  0
   -3.7540    0.3530   -0.4330 C   0  0  0  0  0  0  0  0  0  0  0  0
  1  2  2  0
  2  3  1  0
  2 28  1  0
  3  4  1  0
  4  5  1  0
  5  6  2  0
  5 12  1  0
  6  7  1  0
  7  8  2  0
  7 11  1  0
  8  9  1  0
  9 10  2  0
 10 11  1  0
 11 12  1  0
 12 13  1  1
 13 14  2  0
 13 27  1  0
 14 15  1  0
 15 16  2  0
 16 17  1  0
 17 18  2  0
 17 27  1  0
 18 19  1  0
 19 20  2  0
 19 24  1  0
 20 21  1  0
 21 22  2  0
 22 23  1  0
 23 24  2  0
 24 25  1  0
 25 26  1  0
 25 27  2  0
 28 29  1  0
 29 30  2  0
 29 40  1  0
 30 31  1  0
 31 32  2  0
 32 33  1  0
 33 34  1  0
 33 40  2  0
 34 35  1  0
 34 39  1  0
 35 36  1  0
 36 37  1  0
 37 38  1  0
 38 39  1  0
M  END
