
     RDKit          3D

 40 43  0  0  0  0  0  0  0  0999 V2000
    8.6440   -2.3620    1.3150 C   0  0  0  0  0  0  0  0  0  0  0  0
    7.3180   -1.9090    1.1350 O   0  0  0  0  0  0  0  0  0  0  0  0
    7.0210   -0.5920    1.3400 C   0  0  0  0  0  0  0  0  0  0  0  0
    7.9910    0.1620    1.6910 O   0  0  0  0  0  0  0  0  0  0  0  0
    5.6770   -0.0020    1.1840 C   0  0  0  0  0  0  0  0  0  0  0  0
    5.3860    1.2820    1.3780 N   0  0  0  0  0  0  0  0  0  0  0  0
    4.0710    1.5160    1.1540 C   0  0  0  0  0  0  0  0  0  0  0  0
    3.4990    2.8810    1.3170 C   0  0  0  0  0  0  0  0  0  0  0  0
    3.4940    0.3250    0.7980 C   0  0  0  0  0  0  0  0  0  0  0  0
    2.1270    0.0560    0.4360 C   0  0  0  0  0  0  0  0  0  0  0  0
    1.8750   -1.1880    0.1510 O   0  0  0  0  0  0  0  0  0  0  0  0
    0.9920    0.9200    0.3330 C   0  0  0  0  0  0  0  0  0  0  0  0
    0.9840    2.1480    0.5340 O   0  0  0  0  0  0  0  0  0  0  0  0
   -0.3060    0.4010   -0.0350 N   0  0  0  0  0  0  0  0  0  0  0  0
   -1.4780    1.1290   -0.1680 C   0  0  0  0  0  0  0  0  0  0  0  0
   -1.6170    2.4660    0.0340 C   0  0  0  0  0  0  0  0  0  0  0  0
   -2.8140    3.1640   -0.1090 C   0  0  0  0  0  0  0  0  0  0  0  0
   -2.9110    4.5980    0.1150 C   0  0  2  0  0  0  0  0  0  0  0  0
   -2.1320    5.4400   -0.8370 C   0  0  0  0  0  0  0  0  0  0  0  0
   -0.9450    6.0880   -0.1770 C   0  0  0  0  0  0  0  0  0  0  0  0
   -1.3840    7.1620    0.6350 O   0  0  0  0  0  0  0  0  0  0  0  0
   -1.7330    6.6890    1.9020 C   0  0  0  0  0  0  0  0  0  0  0  0
   -2.3720    4.9920    1.8070 S   0  0  0  0  0  0  0  0  0  0  0  0
   -3.9220    2.4450   -0.4780 C   0  0  0  0  0  0  0  0  0  0  0  0
   -3.8400    1.0760   -0.6980 C   0  0  0  0  0  0  0  0  0  0  0  0
   -2.6470    0.4270   -0.5470 C   0  0  0  0  0  0  0  0  0  0  0  0
   -2.5420   -0.9160   -0.7580 O   0  0  0  0  0  0  0  0  0  0  0  0
   -3.5470   -1.8050   -1.1460 C   0  0  1  0  0  0  0  0  0  0  0  0
   -3.0180   -2.5340   -2.3900 C   0  0  0  0  0  0  0  0  0  0  0  0
   -3.9500   -3.6340   -2.7930 C   0  0  0  0  0  0  0  0  0  0  0  0
   -4.0720   -4.6690   -1.6720 C   0  0  0  0  0  0  0  0  0  0  0  0
   -4.6560   -3.9330   -0.4860 C   0  0  1  0  0  0  0  0  0  0  0  0
   -4.8190   -4.8300    0.5460 O   0  0  0  0  0  0  0  0  0  0  0  0
   -6.1400   -4.8770    1.0230 C   0  0  0  0  0  0  0  0  0  0  0  0
   -3.6280   -2.8980   -0.0730 C   0  0  0  0  0  0  0  0  0  0  0  0
    4.5190   -0.6250    0.8230 C   0  0  0  0  0  0  0  0  0  0  0  0
    4.4240   -2.0560    0.5200 C   0  0  0  0  0  0  0  0  0  0  0  0
    4.9340   -2.3690   -0.8560 C   0  0  0  0  0  0  0  0  0  0  0  0
    4.9060   -3.7080   -1.2870 N   0  0  0  0  0  0  0  0  0  0  0  0
    5.3570   -1.4150   -1.5430 O   0  0  0  0  0  0  0  0  0  0  0  0
  1  2  1  0
  2  3  1  0
  3  4  2  0
  3  5  1  0
  5  6  1  0
  5 36  2  0
  6  7  1  0
  7  8  1  0
  7  9  2  0
  9 10  1  0
  9 36  1  0
 10 11  2  0
 10 12  1  0
 12 13  2  0
 12 14  1  0
 14 15  1  0
 15 16  2  0
 15 26  1  0
 16 17  1  0
 18 17  1  6
 17 24  2  0
 18 19  1  0
 18 23  1  0
 19 20  1  0
 20 21  1  0
 21 22  1  0
 22 23  1  0
 24 25  1  0
 25 26  2  0
 26 27  1  0
 28 27  1  1
 28 29  1  0
 28 35  1  0
 29 30  1  0
 30 31  1  0
 31 32  1  0
 32 33  1  1
 32 35  1  0
 33 34  1  0
 36 37  1  0
 37 38  1  0
 38 39  1  0
 38 40  2  0
M  END
