
     RDKit          3D

 40 46  0  0  0  0  0  0  0  0999 V2000
   -0.8660    0.6630    0.6090 O   0  0  0  0  0  0  0  0  0  0  0  0
   -0.3950    0.4140   -0.4990 C   0  0  0  0  0  0  0  0  0  0  0  0
    0.9850    0.3640   -0.7330 N   0  0  0  0  0  0  0  0  0  0  0  0
    1.9820    0.5840    0.2570 C   0  0  0  0  0  0  0  0  0  0  0  0
    1.7430    1.1540    1.4840 C   0  0  0  0  0  0  0  0  0  0  0  0
    2.8190    1.2710    2.3390 C   0  0  0  0  0  0  0  0  0  0  0  0
    4.0780    0.8390    1.9870 C   0  0  0  0  0  0  0  0  0  0  0  0
    4.3160    0.2700    0.7590 C   0  0  0  0  0  0  0  0  0  0  0  0
    3.2610    0.1430   -0.1030 C   0  0  0  0  0  0  0  0  0  0  0  0
    5.6540   -0.1970    0.4140 N   0  0  0  0  0  0  0  0  0  0  0  0
    5.7000   -0.6960   -0.9320 C   0  0  0  0  0  0  0  0  0  0  0  0
    7.0500   -0.5680   -1.6140 C   0  0  0  0  0  0  0  0  0  0  0  0
    8.1700   -1.1870   -0.9410 C   0  0  0  0  0  0  0  0  0  0  0  0
    9.0670   -2.0180   -1.7760 C   0  0  0  0  0  0  0  0  0  0  0  0
    9.7540   -0.9100   -3.0170 Cl  0  0  0  0  0  0  0  0  0  0  0  0
    8.5280   -1.1280    0.3080 N   0  0  0  0  0  0  0  0  0  0  0  0
    7.9160   -0.4360    1.3650 N   0  0  0  0  0  0  0  0  0  0  0  0
    6.6650   -0.0400    1.3940 C   0  0  0  0  0  0  0  0  0  0  0  0
    6.3920    0.5560    2.6680 N   0  0  0  0  0  0  0  0  0  0  0  0
    7.1730    0.8020    3.7200 N   0  0  0  0  0  0  0  0  0  0  0  0
    6.4140    1.3800    4.6620 C   0  0  0  0  0  0  0  0  0  0  0  0
    5.1650    1.4870    4.1820 N   0  0  0  0  0  0  0  0  0  0  0  0
    5.1570    0.9720    2.9400 C   0  0  0  0  0  0  0  0  0  0  0  0
   -1.3890    0.1580   -1.6230 C   0  0  2  0  0  0  0  0  0  0  0  0
   -2.5140    1.0080   -1.3660 N   0  0  0  0  0  0  0  0  0  0  0  0
   -3.8240    0.5560   -1.1290 C   0  0  0  0  0  0  0  0  0  0  0  0
   -4.8910    1.5740   -0.9290 C   0  0  0  0  0  0  0  0  0  0  0  0
   -6.1840    1.0620   -0.6970 N   0  0  0  0  0  0  0  0  0  0  0  0
   -6.4530    0.4080    0.5250 C   0  0  0  0  0  0  0  0  0  0  0  0
   -7.3140    1.2280    1.4710 C   0  0  0  0  0  0  0  0  0  0  0  0
   -8.4350    1.9380    0.7680 C   0  0  0  0  0  0  0  0  0  0  0  0
   -8.5970    1.4760   -0.6480 C   0  0  0  0  0  0  0  0  0  0  0  0
   -7.2770    1.6740   -1.3600 C   0  0  0  0  0  0  0  0  0  0  0  0
   -4.0410   -0.7370   -1.1050 C   0  0  0  0  0  0  0  0  0  0  0  0
   -2.9860   -1.7160   -1.3160 C   0  0  0  0  0  0  0  0  0  0  0  0
   -3.2740   -3.0820   -1.2680 C   0  0  0  0  0  0  0  0  0  0  0  0
   -2.2510   -3.9780   -1.4630 C   0  0  0  0  0  0  0  0  0  0  0  0
   -0.9550   -3.5800   -1.7040 C   0  0  0  0  0  0  0  0  0  0  0  0
   -0.6870   -2.2120   -1.7480 C   0  0  0  0  0  0  0  0  0  0  0  0
   -1.7150   -1.2980   -1.5520 C   0  0  0  0  0  0  0  0  0  0  0  0
  1  2  2  0
  2  3  1  0
 24  2  1  1
  3  4  1  0
  4  5  2  0
  4  9  1  0
  5  6  1  0
  6  7  2  0
  7  8  1  0
  7 23  1  0
  8  9  2  0
  8 10  1  0
 10 11  1  0
 10 18  1  0
 11 12  1  0
 12 13  1  0
 13 14  1  0
 13 16  2  0
 14 15  1  0
 16 17  1  0
 17 18  2  0
 18 19  1  0
 19 20  1  0
 19 23  1  0
 20 21  2  0
 21 22  1  0
 22 23  2  0
 24 25  1  0
 24 40  1  0
 25 26  1  0
 26 27  1  0
 26 34  2  0
 27 28  1  0
 28 29  1  0
 28 33  1  0
 29 30  1  0
 30 31  1  0
 31 32  1  0
 32 33  1  0
 34 35  1  0
 35 36  2  0
 35 40  1  0
 36 37  1  0
 37 38  2  0
 38 39  1  0
 39 40  2  0
M  END
