
     RDKit          3D

 12 12  0  0  0  0  0  0  0  0999 V2000
    3.8790    0.7570    0.1220 C   0  0  0  0  0  0  0  0  0  0  0  0
    3.3940   -0.1280    1.0820 O   0  0  0  0  0  0  0  0  0  0  0  0
    2.6590   -1.2380    0.8630 N   0  0  0  0  0  0  0  0  0  0  0  0
    1.4110   -1.0880    0.4850 C   0  0  0  0  0  0  0  0  0  0  0  0
    0.4680   -2.1890    0.2030 C   0  0  0  0  0  0  0  0  0  0  0  0
   -0.7300   -1.4810   -0.2010 N   0  0  0  0  0  0  0  0  0  0  0  0
   -0.5020   -0.0730   -0.1180 C   0  0  0  0  0  0  0  0  0  0  0  0
   -1.5440    0.9540   -0.4430 C   0  0  0  0  0  0  0  0  0  0  0  0
   -2.9890    0.7340    0.6670 P   0  0  0  0  0  0  0  0  0  0  0  0
   -4.2680   -0.0330   -0.2210 O   0  0  0  0  0  0  0  0  0  0  0  0
   -3.5890    2.3110    1.1430 O   0  0  0  0  0  0  0  0  0  0  0  0
    0.7110    0.1200    0.2710 N   0  0  0  0  0  0  0  0  0  0  0  0
  1  2  1  0
  2  3  1  0
  3  4  2  3
  4  5  1  0
  4 12  1  0
  5  6  1  0
  6  7  1  0
  7  8  1  0
  7 12  2  0
  8  9  1  0
  9 10  1  0
  9 11  1  0
M  END
