
     RDKit          3D

 13 13  0  0  0  0  0  0  0  0999 V2000
   -0.8820   -1.4670   -2.0480 O   0  0  0  0  0  0  0  0  0  0  0  0
   -1.4350   -1.0560   -0.9900 C   0  0  0  0  0  0  0  0  0  0  0  0
   -2.5510   -1.6380   -0.4760 N   0  0  0  0  0  0  0  0  0  0  0  0
   -2.8490   -0.9400    0.6390 C   0  0  0  0  0  0  0  0  0  0  0  0
   -1.9300    0.0370    0.7860 N   0  0  0  0  0  0  0  0  0  0  0  0
   -1.0610   -0.0270   -0.2080 N   0  0  0  0  0  0  0  0  0  0  0  0
    0.0860    0.8070   -0.4650 C   0  0  1  0  0  0  0  0  0  0  0  0
   -0.1490    2.2430   -0.0520 C   0  0  0  0  0  0  0  0  0  0  0  0
   -0.4290    2.3680    1.2940 O   0  0  0  0  0  0  0  0  0  0  0  0
    1.3160    0.3300    0.2810 C   0  0  0  0  0  0  0  0  0  0  0  0
    1.8090   -1.3810   -0.1750 P   0  0  0  0  0  0  0  0  0  0  0  0
    2.5880   -2.1610    1.1850 O   0  0  0  0  0  0  0  0  0  0  0  0
    2.9640   -1.3340   -1.4700 O   0  0  0  0  0  0  0  0  0  0  0  0
  1  2  2  0
  2  3  1  0
  2  6  1  0
  3  4  1  0
  4  5  2  0
  5  6  1  0
  6  7  1  0
  7  8  1  1
  7 10  1  0
  8  9  1  0
 10 11  1  0
 11 12  1  0
 11 13  1  0
M  END
