
     RDKit          3D

 21 22  0  0  0  0  0  0  0  0999 V2000
    5.1000    2.8930    0.9910 O   0  0  0  0  0  0  0  0  0  0  0  0
    4.2490    2.0680    0.5950 C   0  0  0  0  0  0  0  0  0  0  0  0
    4.6150    1.1680   -0.3860 C   0  0  0  0  0  0  0  0  0  0  0  0
    3.6920    0.2840   -0.8050 N   0  0  0  0  0  0  0  0  0  0  0  0
    2.4520    0.2750   -0.2880 N   0  0  0  0  0  0  0  0  0  0  0  0
    1.4580   -0.6790   -0.7410 C   0  0  2  0  0  0  0  0  0  0  0  0
    0.2170   -0.0670   -0.8050 O   0  0  0  0  0  0  0  0  0  0  0  0
   -0.7450   -1.0200   -0.5920 C   0  0  2  0  0  0  0  0  0  0  0  0
   -1.9070   -0.4130    0.1540 C   0  0  0  0  0  0  0  0  0  0  0  0
   -2.4590    0.6140   -0.5640 O   0  0  0  0  0  0  0  0  0  0  0  0
   -3.7370    1.2110    0.3480 P   0  0  0  0  0  0  0  0  0  0  0  0
   -2.7670    2.3230    0.7730 O   0  0  0  0  0  0  0  0  0  0  0  0
   -4.4760   -0.0780   -0.0400 O   0  0  0  0  0  0  0  0  0  0  0  0
   -4.8130    2.2260   -0.3260 O   0  0  0  0  0  0  0  0  0  0  0  0
   -0.1440   -2.1870    0.0990 C   0  0  1  0  0  0  0  0  0  0  0  0
   -0.3870   -3.4050   -0.5480 O   0  0  0  0  0  0  0  0  0  0  0  0
    1.3330   -1.8730    0.1480 C   0  0  1  0  0  0  0  0  0  0  0  0
    2.0930   -2.9210   -0.4070 O   0  0  0  0  0  0  0  0  0  0  0  0
    2.1360    1.1690    0.6660 C   0  0  0  0  0  0  0  0  0  0  0  0
    0.9690    1.1390    1.1330 O   0  0  0  0  0  0  0  0  0  0  0  0
    3.0110    2.0810    1.1320 N   0  0  0  0  0  0  0  0  0  0  0  0
  1  2  2  0
  2  3  1  0
  2 21  1  0
  3  4  2  0
  4  5  1  0
  6  5  1  1
  5 19  1  0
  6  7  1  0
  6 17  1  0
  7  8  1  0
  8  9  1  1
  8 15  1  0
  9 10  1  0
 10 11  1  0
 11 12  1  0
 11 13  1  0
 11 14  1  0
 15 16  1  6
 15 17  1  0
 17 18  1  6
 19 20  2  0
 19 21  1  0
M  END
