
     RDKit          3D

 13 13  0  0  0  0  0  0  0  0999 V2000
    3.2950    1.3980    1.7130 O   0  0  0  0  0  0  0  0  0  0  0  0
    2.7690    0.5700    0.9800 C   0  0  0  0  0  0  0  0  0  0  0  0
    1.5920   -0.2030    1.3980 C   0  0  0  0  0  0  0  0  0  0  0  0
    0.6770   -0.1360    0.1530 C   0  0  2  0  0  0  0  0  0  0  0  0
   -0.6570   -0.4920    0.4400 N   0  0  0  0  0  0  0  0  0  0  0  0
   -1.5180    0.3550   -0.3890 C   0  0  0  0  0  0  0  0  0  0  0  0
   -3.2900    0.0580    0.0080 P   0  0  0  0  0  0  0  0  0  0  0  0
   -3.6270   -1.6080    0.1210 O   0  0  0  0  0  0  0  0  0  0  0  0
   -4.3580    0.9130   -1.0130 O   0  0  0  0  0  0  0  0  0  0  0  0
   -4.0400    2.1950   -1.0310 O   0  0  0  0  0  0  0  0  0  0  0  0
    1.3200   -0.8610   -0.9650 C   0  0  0  0  0  0  0  0  0  0  0  0
    2.7550   -0.8670   -0.9700 N   0  0  0  0  0  0  0  0  0  0  0  0
    3.2260    0.2810   -0.3300 N   0  0  0  0  0  0  0  0  0  0  0  0
  1  2  2  0
  2  3  1  0
  2 13  1  0
  3  4  1  0
  4  5  1  1
  4 11  1  0
  5  6  1  0
  6  7  1  0
  7  8  1  0
  7  9  1  0
  9 10  1  0
 11 12  1  0
 12 13  1  0
M  END
