
     RDKit          3D

 14 15  0  0  0  0  0  0  0  0999 V2000
    3.8930    1.2720    0.2010 C   0  0  0  0  0  0  0  0  0  0  0  0
    2.6730    0.3750    0.0380 C   0  0  0  0  0  0  0  0  0  0  0  0
    2.7920   -0.9520    0.3270 C   0  0  0  0  0  0  0  0  0  0  0  0
    1.5860   -1.6490    0.3620 C   0  0  0  0  0  0  0  0  0  0  0  0
    0.3900   -1.0440    0.1210 C   0  0  0  0  0  0  0  0  0  0  0  0
   -0.8200   -1.8220    0.2080 C   0  0  0  0  0  0  0  0  0  0  0  0
   -2.0120   -1.1430   -0.0300 C   0  0  0  0  0  0  0  0  0  0  0  0
   -3.2640   -1.8340    0.0010 O   0  0  0  0  0  0  0  0  0  0  0  0
   -2.0970    0.1790   -0.3220 C   0  0  0  0  0  0  0  0  0  0  0  0
   -3.4230    0.7620   -0.6200 C   0  0  0  0  0  0  0  0  0  0  0  0
   -3.6620    1.8760    0.2460 O   0  0  0  0  0  0  0  0  0  0  0  0
   -0.9390    0.9360   -0.4100 C   0  0  0  0  0  0  0  0  0  0  0  0
    0.2640    0.2810   -0.1860 C   0  0  0  0  0  0  0  0  0  0  0  0
    1.4730    0.9980   -0.2150 C   0  0  0  0  0  0  0  0  0  0  0  0
  1  2  1  0
  2  3  2  0
  2 14  1  0
  3  4  1  0
  4  5  2  0
  5  6  1  0
  5 13  1  0
  6  7  2  0
  7  8  1  0
  7  9  1  0
  9 10  1  0
  9 12  2  0
 10 11  1  0
 12 13  1  0
 13 14  2  0
M  END
