
     RDKit          3D

 14 15  0  0  0  0  0  0  0  0999 V2000
   -2.0250    2.5780   -0.3420 C   0  0  0  0  0  0  0  0  0  0  0  0
   -1.0110    1.7580   -0.1340 C   0  0  0  0  0  0  0  0  0  0  0  0
    0.3720    2.1860    0.1550 C   0  0  0  0  0  0  0  0  0  0  0  0
    1.1600    0.9680    0.3140 C   0  0  0  0  0  0  0  0  0  0  0  0
    2.4960    0.7960    0.5900 C   0  0  0  0  0  0  0  0  0  0  0  0
    3.0970   -0.4350    0.7090 C   0  0  0  0  0  0  0  0  0  0  0  0
    2.3440   -1.5730    0.5480 C   0  0  0  0  0  0  0  0  0  0  0  0
    2.9230   -2.8520    0.6630 O   0  0  0  0  0  0  0  0  0  0  0  0
    1.0040   -1.4210    0.2710 C   0  0  0  0  0  0  0  0  0  0  0  0
    0.3990   -0.1810    0.1510 C   0  0  0  0  0  0  0  0  0  0  0  0
   -0.9730    0.2780   -0.1320 C   0  0  0  0  0  0  0  0  0  0  0  0
   -2.0290   -0.4750   -0.3550 C   0  0  0  0  0  0  0  0  0  0  0  0
   -1.9830   -1.9440   -0.3510 C   0  0  0  0  0  0  0  0  0  0  0  0
   -3.2630    0.1660   -0.6090 O   0  0  0  0  0  0  0  0  0  0  0  0
  1  2  2  0
  2  3  1  0
  2 11  1  0
  3  4  1  0
  4  5  2  0
  4 10  1  0
  5  6  1  0
  6  7  2  0
  7  8  1  0
  7  9  1  0
  9 10  2  0
 10 11  1  0
 11 12  2  3
 12 13  1  0
 12 14  1  0
M  END
