
     RDKit          3D

 14 14  0  0  0  0  0  0  0  0999 V2000
   -1.7400   -2.3420   -0.1670 C   0  0  0  0  0  0  0  0  0  0  0  0
   -2.0540   -0.8940    0.0490 C   0  0  0  0  0  0  0  0  0  0  0  0
   -3.1210   -0.3860   -0.5040 C   0  0  0  0  0  0  0  0  0  0  0  0
   -3.9160   -1.2670   -1.2850 O   0  0  0  0  0  0  0  0  0  0  0  0
   -3.5080    1.0170   -0.3490 C   0  0  0  0  0  0  0  0  0  0  0  0
   -2.5960    1.8170    0.4930 C   0  0  0  0  0  0  0  0  0  0  0  0
   -1.4440    1.1320    1.0500 C   0  0  0  0  0  0  0  0  0  0  0  0
   -1.1330   -0.1390    0.8800 C   0  0  0  0  0  0  0  0  0  0  0  0
    0.0030   -0.6380    1.4810 O   0  0  0  0  0  0  0  0  0  0  0  0
    1.2620   -0.7300    0.8240 C   0  0  0  0  0  0  0  0  0  0  0  0
    1.6440    0.6780    0.4270 C   0  0  0  0  0  0  0  0  0  0  0  0
    2.9610    0.7410   -0.2820 C   0  0  1  0  0  0  0  0  0  0  0  0
    4.0830    0.2070    0.6010 C   0  0  0  0  0  0  0  0  0  0  0  0
    2.9230    0.0500   -1.6170 C   0  0  0  0  0  0  0  0  0  0  0  0
  1  2  1  0
  2  3  2  0
  2  8  1  0
  3  4  1  0
  3  5  1  0
  5  6  1  0
  6  7  1  0
  7  8  2  0
  8  9  1  0
  9 10  1  0
 10 11  1  0
 11 12  1  0
 12 13  1  1
 12 14  1  0
M  END
