
     RDKit          3D

 14 15  0  0  0  0  0  0  0  0999 V2000
    3.9040   -1.1990    0.1780 C   0  0  0  0  0  0  0  0  0  0  0  0
    2.6790   -0.3680    0.2360 C   0  0  0  0  0  0  0  0  0  0  0  0
    2.7740    0.9630    0.5380 C   0  0  0  0  0  0  0  0  0  0  0  0
    1.6250    1.7240    0.5880 C   0  0  0  0  0  0  0  0  0  0  0  0
    0.3760    1.1880    0.3450 C   0  0  0  0  0  0  0  0  0  0  0  0
   -0.7870    1.9150    0.3860 C   0  0  0  0  0  0  0  0  0  0  0  0
   -2.0400    1.3880    0.1440 C   0  0  0  0  0  0  0  0  0  0  0  0
   -2.1070    0.0290   -0.1610 C   0  0  0  0  0  0  0  0  0  0  0  0
   -3.4370   -0.5710   -0.4270 C   0  0  0  0  0  0  0  0  0  0  0  0
   -4.4010    0.3970   -0.3120 O   0  0  0  0  0  0  0  0  0  0  0  0
   -0.9560   -0.7430   -0.2140 C   0  0  0  0  0  0  0  0  0  0  0  0
   -1.0620   -2.0890   -0.5200 O   0  0  0  0  0  0  0  0  0  0  0  0
    0.2660   -0.1660    0.0360 C   0  0  0  0  0  0  0  0  0  0  0  0
    1.4350   -0.9140   -0.0100 C   0  0  0  0  0  0  0  0  0  0  0  0
  1  2  1  0
  2  3  2  0
  2 14  1  0
  3  4  1  0
  4  5  2  0
  5  6  1  0
  5 13  1  0
  6  7  2  0
  7  8  1  0
  8  9  1  0
  8 11  2  0
  9 10  1  0
 11 12  1  0
 11 13  1  0
 13 14  2  0
M  END
