
     RDKit          3D

 10  9  0  0  0  0  0  0  0  0999 V2000
    2.9330    1.6040    0.1520 O   0  0  0  0  0  0  0  0  0  0  0  0
    2.7670    0.4540   -0.3740 C   0  0  0  0  0  0  0  0  0  0  0  0
    3.6780    0.0030   -1.3230 O   0  0  0  0  0  0  0  0  0  0  0  0
    1.6500   -0.2900    0.0520 N   0  0  0  0  0  0  0  0  0  0  0  0
    0.7090    0.2240    1.0590 C   0  0  0  0  0  0  0  0  0  0  0  0
   -0.3850   -0.7740    1.3240 C   0  0  0  0  0  0  0  0  0  0  0  0
   -1.1760   -1.0890    0.0930 C   0  0  0  0  0  0  0  0  0  0  0  0
   -2.0050    0.3670   -0.6490 P   0  0  0  0  0  0  0  0  0  0  0  0
   -3.6770    0.0330   -0.9620 O   0  0  0  0  0  0  0  0  0  0  0  0
   -1.8840    1.7900    0.3030 O   0  0  0  0  0  0  0  0  0  0  0  0
  1  2  2  0
  2  3  1  0
  2  4  1  0
  4  5  1  0
  5  6  1  0
  6  7  1  0
  7  8  1  0
  8  9  1  0
  8 10  1  0
M  END
