
     RDKit          3D

 11 10  0  0  0  0  0  0  0  0999 V2000
    3.6770    0.3060    1.3730 C   0  0  0  0  0  0  0  0  0  0  0  0
    2.3170    0.2690    1.0320 O   0  0  0  0  0  0  0  0  0  0  0  0
    2.0090    0.5890   -0.3730 C   0  0  0  0  0  0  0  0  0  0  0  0
    2.9230    0.8010   -1.1030 O   0  0  0  0  0  0  0  0  0  0  0  0
    0.5700    0.6450   -0.6460 C   0  0  0  0  0  0  0  0  0  0  0  0
   -0.1850   -0.5650   -0.4740 N   0  0  0  0  0  0  0  0  0  0  0  0
   -1.4540   -0.3600   -1.1090 C   0  0  0  0  0  0  0  0  0  0  0  0
   -2.8220   -1.4340   -0.5230 P   0  0  0  0  0  0  0  0  0  0  0  0
   -2.3970   -2.3010    0.9280 O   0  0  0  0  0  0  0  0  0  0  0  0
   -4.2290   -0.4150   -0.1940 O   0  0  0  0  0  0  0  0  0  0  0  0
   -3.9040    0.5870    0.5590 O   0  0  0  0  0  0  0  0  0  0  0  0
  1  2  1  0
  2  3  1  0
  3  4  2  0
  3  5  1  0
  5  6  1  0
  6  7  1  0
  7  8  1  0
  8  9  1  0
  8 10  1  0
 10 11  1  0
M  END
