
     RDKit          3D

 10  9  0  0  0  0  0  0  0  0999 V2000
    2.3440   -0.0030   -1.6540 O   0  0  0  0  0  0  0  0  0  0  0  0
    2.8060    0.2460   -0.5150 C   0  0  0  0  0  0  0  0  0  0  0  0
    4.1560    0.6480   -0.4620 O   0  0  0  0  0  0  0  0  0  0  0  0
    1.9360    0.1120    0.6790 C   0  0  0  0  0  0  0  0  0  0  0  0
    0.5530    0.2580    0.3690 N   0  0  0  0  0  0  0  0  0  0  0  0
   -0.0470   -0.8000   -0.3420 C   0  0  0  0  0  0  0  0  0  0  0  0
   -1.4330   -0.4050   -0.8410 C   0  0  0  0  0  0  0  0  0  0  0  0
   -2.5860    0.1110    0.4870 P   0  0  0  0  0  0  0  0  0  0  0  0
   -3.8920   -1.0100    0.7220 O   0  0  0  0  0  0  0  0  0  0  0  0
   -3.3200    1.6440    0.0590 O   0  0  0  0  0  0  0  0  0  0  0  0
  1  2  2  0
  2  3  1  0
  2  4  1  0
  4  5  1  0
  5  6  1  0
  6  7  1  0
  7  8  1  0
  8  9  1  0
  8 10  1  0
M  END
