
     RDKit          3D

 11 10  0  0  0  0  0  0  0  0999 V2000
   -4.1400    0.9340   -0.1910 O   0  0  0  0  0  0  0  0  0  0  0  0
   -2.8640    0.7520    0.0220 C   0  0  0  0  0  0  0  0  0  0  0  0
   -2.1700    1.9370    0.0290 O   0  0  0  0  0  0  0  0  0  0  0  0
   -2.4280   -0.6250    0.1790 C   0  0  0  0  0  0  0  0  0  0  0  0
   -1.1010   -0.8590   -0.4630 N   0  0  0  0  0  0  0  0  0  0  0  0
   -0.1370   -0.5200    0.5620 C   0  0  0  0  0  0  0  0  0  0  0  0
    0.9750    0.3820    0.2080 C   0  0  0  0  0  0  0  0  0  0  0  0
    2.2520   -0.2970   -0.9380 P   0  0  0  0  0  0  0  0  0  0  0  0
    2.9400   -1.7700   -0.2950 O   0  0  0  0  0  0  0  0  0  0  0  0
    3.5870    0.8580   -0.9140 O   0  0  0  0  0  0  0  0  0  0  0  0
    4.0250    1.0120    0.2970 O   0  0  0  0  0  0  0  0  0  0  0  0
  1  2  2  0
  2  3  1  0
  2  4  1  0
  4  5  1  0
  5  6  1  0
  6  7  1  0
  7  8  1  0
  8  9  1  0
  8 10  1  0
 10 11  1  0
M  END
