
     RDKit          3D

 10  9  0  0  0  0  0  0  0  0999 V2000
    3.5400    0.0650    0.6090 O   0  0  0  0  0  0  0  0  0  0  0  0
    3.3700    1.3900    0.2210 C   0  0  0  0  0  0  0  0  0  0  0  0
    2.0030    1.6770    0.3960 O   0  0  0  0  0  0  0  0  0  0  0  0
    1.3000    0.8440   -0.3740 N   0  0  0  0  0  0  0  0  0  0  0  0
    0.2400    0.1560    0.3460 C   0  0  0  0  0  0  0  0  0  0  0  0
   -0.4530   -0.7430   -0.6670 C   0  0  0  0  0  0  0  0  0  0  0  0
   -1.5890   -1.5230   -0.0360 C   0  0  0  0  0  0  0  0  0  0  0  0
   -2.8250   -0.3190    0.6430 P   0  0  0  0  0  0  0  0  0  0  0  0
   -4.4490   -0.8760    0.4210 O   0  0  0  0  0  0  0  0  0  0  0  0
   -2.5730    1.2490   -0.0340 O   0  0  0  0  0  0  0  0  0  0  0  0
  1  2  1  0
  2  3  1  0
  3  4  1  0
  4  5  1  0
  5  6  1  0
  6  7  1  0
  7  8  1  0
  8  9  1  0
  8 10  1  0
M  END
