
     RDKit          3D

 16 15  0  0  0  0  0  0  0  0999 V2000
    3.4540   -0.5460   -2.8710 O   0  0  0  0  0  0  0  0  0  0  0  0
    3.3960    0.5860   -2.2610 N   0  0  0  0  0  0  0  0  0  0  0  0
    3.4390    0.4790   -0.8030 C   0  0  0  0  0  0  0  0  0  0  0  0
    4.3540    1.0430   -0.2510 O   0  0  0  0  0  0  0  0  0  0  0  0
    2.4070   -0.3470   -0.2110 C   0  0  1  0  0  0  0  0  0  0  0  0
    2.9350   -1.2970    0.7040 O   0  0  0  0  0  0  0  0  0  0  0  0
    1.3640    0.4440    0.6340 C   0  0  2  0  0  0  0  0  0  0  0  0
    2.0400    0.5380    1.8870 O   0  0  0  0  0  0  0  0  0  0  0  0
    0.1460   -0.3860    0.7830 C   0  0  2  0  0  0  0  0  0  0  0  0
    0.5720   -1.7310    0.9250 O   0  0  0  0  0  0  0  0  0  0  0  0
   -0.8920   -0.2920   -0.3000 C   0  0  0  0  0  0  0  0  0  0  0  0
   -1.6390    0.8740   -0.1360 O   0  0  0  0  0  0  0  0  0  0  0  0
   -3.2570    0.5740   -0.0670 P   0  0  0  0  0  0  0  0  0  0  0  0
   -3.7420   -0.0350    1.4460 O   0  0  0  0  0  0  0  0  0  0  0  0
   -3.2060   -0.7940   -0.6830 O   0  0  0  0  0  0  0  0  0  0  0  0
   -4.4280    1.0680   -1.0720 O   0  0  0  0  0  0  0  0  0  0  0  0
  1  2  2  0
  2  3  1  0
  3  4  2  0
  3  5  1  0
  5  6  1  1
  5  7  1  0
  7  8  1  1
  7  9  1  0
  9 10  1  6
  9 11  1  0
 11 12  1  0
 12 13  1  0
 13 14  1  0
 13 15  1  0
 13 16  1  0
M  END
