
     RDKit          3D

 10  9  0  0  0  0  0  0  0  0999 V2000
    3.4200    1.7510   -0.5060 O   0  0  0  0  0  0  0  0  0  0  0  0
    2.5360    0.8110   -0.8380 O   0  0  0  0  0  0  0  0  0  0  0  0
    2.5110   -0.0810    0.1940 C   0  0  0  0  0  0  0  0  0  0  0  0
    1.5880   -1.2240    0.0040 C   0  0  0  0  0  0  0  0  0  0  0  0
    0.2080   -0.9230   -0.1640 N   0  0  0  0  0  0  0  0  0  0  0  0
   -0.4290   -0.3650    0.9800 C   0  0  0  0  0  0  0  0  0  0  0  0
   -1.9100   -0.3360    0.9720 C   0  0  0  0  0  0  0  0  0  0  0  0
   -2.7790    0.5110   -0.3540 P   0  0  0  0  0  0  0  0  0  0  0  0
   -4.3490    1.0980    0.1690 O   0  0  0  0  0  0  0  0  0  0  0  0
   -1.9840    1.8200   -1.1180 O   0  0  0  0  0  0  0  0  0  0  0  0
  1  2  1  0
  2  3  1  0
  3  4  1  0
  4  5  1  0
  5  6  1  0
  6  7  1  0
  7  8  1  0
  8  9  1  0
  8 10  1  0
M  END
