
     RDKit          3D

 11 10  0  0  0  0  0  0  0  0999 V2000
   -4.1380   -0.2340   -0.1720 O   0  0  0  0  0  0  0  0  0  0  0  0
   -3.3030    0.6550   -0.5100 C   0  0  0  0  0  0  0  0  0  0  0  0
   -3.7090    1.7610   -1.2650 O   0  0  0  0  0  0  0  0  0  0  0  0
   -1.9510    0.4970   -0.1030 N   0  0  0  0  0  0  0  0  0  0  0  0
   -1.5150   -0.6470    0.6810 C   0  0  0  0  0  0  0  0  0  0  0  0
   -0.0560   -0.5990    0.9900 C   0  0  0  0  0  0  0  0  0  0  0  0
    0.8200   -0.5850   -0.2240 C   0  0  0  0  0  0  0  0  0  0  0  0
    2.5890   -0.5250    0.3540 P   0  0  0  0  0  0  0  0  0  0  0  0
    2.9770    0.9810    1.0930 O   0  0  0  0  0  0  0  0  0  0  0  0
    3.6910   -0.9780   -0.8850 O   0  0  0  0  0  0  0  0  0  0  0  0
    4.9040   -0.7010   -0.4680 O   0  0  0  0  0  0  0  0  0  0  0  0
  1  2  2  0
  2  3  1  0
  2  4  1  0
  4  5  1  0
  5  6  1  0
  6  7  1  0
  7  8  1  0
  8  9  1  0
  8 10  1  0
 10 11  1  0
M  END
