
     RDKit          3D

 29 30  0  0  0  0  0  0  0  0999 V2000
   -7.0510    1.7100   -0.9990 C   0  0  0  0  0  0  0  0  0  0  0  0
   -6.3330    2.8660   -1.6780 C   0  0  0  0  0  0  0  0  0  0  0  0
   -5.2260    3.3690   -0.7740 C   0  0  0  0  0  0  0  0  0  0  0  0
   -4.2350    2.2240   -0.5200 C   0  0  0  0  0  0  0  0  0  0  0  0
   -3.2410    2.7210    0.3200 O   0  0  0  0  0  0  0  0  0  0  0  0
   -2.1540    2.0000    0.8010 C   0  0  0  0  0  0  0  0  0  0  0  0
   -1.9970    0.7040    0.4460 C   0  0  0  0  0  0  0  0  0  0  0  0
   -0.9220   -0.1340    0.8820 C   0  0  0  0  0  0  0  0  0  0  0  0
   -1.0200   -1.5260    0.4860 C   0  0  1  0  0  0  0  0  0  0  0  0
   -1.8630   -1.6930   -0.7790 C   0  0  0  0  0  0  0  0  0  0  0  0
   -0.0650   -2.5140    0.6610 N   0  0  0  0  0  0  0  0  0  0  0  0
    1.0250   -2.6180   -0.2420 C   0  0  0  0  0  0  0  0  0  0  0  0
    1.1310   -4.0180   -0.8900 C   0  0  0  0  0  0  0  0  0  0  0  0
    2.2100   -4.0660   -1.7580 O   0  0  0  0  0  0  0  0  0  0  0  0
   -0.0250    0.4720    1.7020 C   0  0  0  0  0  0  0  0  0  0  0  0
    1.2130   -0.1310    2.1880 C   0  0  0  0  0  0  0  0  0  0  0  0
    2.2790    0.0920    1.1230 C   0  0  0  0  0  0  0  0  0  0  0  0
    2.0100    0.7030    0.0770 O   0  0  0  0  0  0  0  0  0  0  0  0
    3.5950   -0.3970    1.3220 N   0  0  0  0  0  0  0  0  0  0  0  0
    4.6900   -0.2760    0.4560 C   0  0  0  0  0  0  0  0  0  0  0  0
    5.8390   -1.0120    0.7420 C   0  0  0  0  0  0  0  0  0  0  0  0
    6.9790   -0.9650   -0.0340 C   0  0  0  0  0  0  0  0  0  0  0  0
    7.0220   -0.1620   -1.1520 C   0  0  0  0  0  0  0  0  0  0  0  0
    8.1860   -0.1080   -1.9500 O   0  0  0  0  0  0  0  0  0  0  0  0
    5.9140    0.5770   -1.4680 C   0  0  0  0  0  0  0  0  0  0  0  0
    4.7680    0.5120   -0.6650 C   0  0  0  0  0  0  0  0  0  0  0  0
   -0.1780    1.8270    2.0820 C   0  0  0  0  0  0  0  0  0  0  0  0
   -1.2280    2.5780    1.6360 C   0  0  0  0  0  0  0  0  0  0  0  0
   -1.4070    3.9140    1.9920 O   0  0  0  0  0  0  0  0  0  0  0  0
  1  2  1  0
  2  3  1  0
  3  4  1  0
  4  5  1  0
  5  6  1  0
  6  7  2  0
  6 28  1  0
  7  8  1  0
  8  9  1  0
  8 15  2  0
  9 10  1  6
  9 11  1  0
 11 12  1  0
 12 13  1  0
 13 14  1  0
 15 16  1  0
 15 27  1  0
 16 17  1  0
 17 18  2  0
 17 19  1  0
 19 20  1  0
 20 21  2  0
 20 26  1  0
 21 22  1  0
 22 23  2  0
 23 24  1  0
 23 25  1  0
 25 26  2  0
 27 28  2  0
 28 29  1  0
M  CHG  1  11   1
M  END
