
     RDKit          3D

 31 32  0  0  0  0  0  0  0  0999 V2000
   -8.8720    1.2350    0.9650 C   0  0  0  0  0  0  0  0  0  0  0  0
   -7.5430    0.5590    0.8570 C   0  0  0  0  0  0  0  0  0  0  0  0
   -6.9580    0.3780   -0.3760 C   0  0  0  0  0  0  0  0  0  0  0  0
   -7.5990    0.8390   -1.6310 C   0  0  0  0  0  0  0  0  0  0  0  0
   -5.7160   -0.2680   -0.4050 C   0  0  0  0  0  0  0  0  0  0  0  0
   -5.1170   -0.6970    0.7540 C   0  0  0  0  0  0  0  0  0  0  0  0
   -5.7300   -0.5010    1.9850 C   0  0  0  0  0  0  0  0  0  0  0  0
   -5.0370   -0.9870    3.2040 C   0  0  0  0  0  0  0  0  0  0  0  0
   -6.9530    0.1330    2.0310 C   0  0  0  0  0  0  0  0  0  0  0  0
   -7.5860    0.3390    3.2640 O   0  0  0  0  0  0  0  0  0  0  0  0
   -3.7820   -1.4000    0.7430 C   0  0  0  0  0  0  0  0  0  0  0  0
   -3.6710   -1.9630   -0.6620 C   0  0  0  0  0  0  0  0  0  0  0  0
   -3.7830   -0.8840   -1.6950 C   0  0  2  0  0  0  0  0  0  0  0  0
   -3.6900   -1.5960   -3.0480 C   0  0  0  0  0  0  0  0  0  0  0  0
   -2.8840    0.2650   -1.5890 C   0  0  0  0  0  0  0  0  0  0  0  0
   -1.4290    0.1560   -1.6550 C   0  0  0  0  0  0  0  0  0  0  0  0
   -0.6760   -0.6030   -0.6420 C   0  0  0  0  0  0  0  0  0  0  0  0
    0.8340   -0.5690   -0.9340 C   0  0  2  0  0  0  0  0  0  0  0  0
    1.5800   -1.3430    0.1040 C   0  0  0  0  0  0  0  0  0  0  0  0
    1.3640    0.7940   -1.1980 C   0  0  0  0  0  0  0  0  0  0  0  0
    2.8290    0.6510   -1.4450 C   0  0  0  0  0  0  0  0  0  0  0  0
    3.6970    1.2680   -0.6700 C   0  0  0  0  0  0  0  0  0  0  0  0
    5.1610    1.1250   -0.9160 C   0  0  2  0  0  0  0  0  0  0  0  0
    5.3930    0.1290   -2.0580 C   0  0  0  0  0  0  0  0  0  0  0  0
    5.8480    0.5340    0.2730 C   0  0  0  0  0  0  0  0  0  0  0  0
    6.8340    1.1540    0.9110 C   0  0  0  0  0  0  0  0  0  0  0  0
    7.5250    0.5730    2.0960 C   0  0  0  0  0  0  0  0  0  0  0  0
    9.0110    0.3990    1.8110 C   0  0  1  0  0  0  0  0  0  0  0  0
    9.6760    1.7060    1.4900 C   0  0  0  0  0  0  0  0  0  0  0  0
    9.7050   -0.3290    2.9270 C   0  0  0  0  0  0  0  0  0  0  0  0
   -5.1670   -0.4280   -1.6650 O   0  0  0  0  0  0  0  0  0  0  0  0
  1  2  1  0
  2  3  2  0
  2  9  1  0
  3  4  1  0
  3  5  1  0
  5  6  2  0
  5 31  1  0
  6  7  1  0
  6 11  1  0
  7  8  1  0
  7  9  2  0
  9 10  1  0
 11 12  1  0
 12 13  1  0
 13 14  1  6
 13 15  1  0
 13 31  1  0
 15 16  1  0
 16 17  1  0
 17 18  1  0
 18 19  1  1
 18 20  1  0
 20 21  1  0
 21 22  2  3
 22 23  1  0
 23 24  1  6
 23 25  1  0
 25 26  2  3
 26 27  1  0
 27 28  1  0
 28 29  1  1
 28 30  1  0
M  END
