
     RDKit          3D

 29 30  0  0  0  0  0  0  0  0999 V2000
   -7.0800    0.5270    2.9220 C   0  0  0  0  0  0  0  0  0  0  0  0
   -6.4080    1.4500    1.9720 C   0  0  0  0  0  0  0  0  0  0  0  0
   -5.5090    0.7730    1.0100 C   0  0  0  0  0  0  0  0  0  0  0  0
   -6.0440    0.0980   -0.0770 C   0  0  0  0  0  0  0  0  0  0  0  0
   -7.5290    0.0770   -0.2330 C   0  0  0  0  0  0  0  0  0  0  0  0
   -5.2260   -0.5370   -0.9890 C   0  0  0  0  0  0  0  0  0  0  0  0
   -3.8520   -0.5310   -0.8650 C   0  0  0  0  0  0  0  0  0  0  0  0
   -3.0320   -1.1690   -1.7870 C   0  0  0  0  0  0  0  0  0  0  0  0
   -1.6590   -1.1640   -1.6700 C   0  0  0  0  0  0  0  0  0  0  0  0
   -0.8590   -1.8060   -2.6010 O   0  0  0  0  0  0  0  0  0  0  0  0
   -1.4960   -2.4680   -3.6760 C   0  0  0  0  0  0  0  0  0  0  0  0
   -1.1130   -0.4860   -0.5780 C   0  0  0  0  0  0  0  0  0  0  0  0
    0.2700   -0.5020   -0.4920 O   0  0  0  0  0  0  0  0  0  0  0  0
    0.9870    0.1320    0.5460 C   0  0  0  0  0  0  0  0  0  0  0  0
    2.4690   -0.0340    0.4030 C   0  0  2  0  0  0  0  0  0  0  0  0
    3.0800    0.6260    1.4770 O   0  0  0  0  0  0  0  0  0  0  0  0
    2.9940    0.6490   -0.8520 C   0  0  0  0  0  0  0  0  0  0  0  0
    4.4350    0.5560   -0.9700 N   0  0  0  0  0  0  0  0  0  0  0  0
    5.1180   -0.6820   -1.0520 C   0  0  0  0  0  0  0  0  0  0  0  0
    4.4160   -1.7480   -1.0310 O   0  0  0  0  0  0  0  0  0  0  0  0
    6.5720   -0.8570   -1.1650 C   0  0  0  0  0  0  0  0  0  0  0  0
    7.3530    0.2370   -0.9430 O   0  0  0  0  0  0  0  0  0  0  0  0
    7.3770    0.7460    0.3240 C   0  0  0  0  0  0  0  0  0  0  0  0
    7.9130   -0.2790    1.3270 C   0  0  0  0  0  0  0  0  0  0  0  0
    7.8940    0.3620    2.6300 N   0  0  0  0  0  0  0  0  0  0  0  0
   -1.9300    0.1470    0.3370 C   0  0  0  0  0  0  0  0  0  0  0  0
   -3.3050    0.1390    0.2160 C   0  0  0  0  0  0  0  0  0  0  0  0
   -4.1370    0.7800    1.1360 C   0  0  0  0  0  0  0  0  0  0  0  0
   -3.5370    1.4780    2.2900 C   0  0  0  0  0  0  0  0  0  0  0  0
  1  2  1  0
  2  3  1  0
  3  4  2  0
  3 28  1  0
  4  5  1  0
  4  6  1  0
  6  7  2  0
  7  8  1  0
  7 27  1  0
  8  9  2  0
  9 10  1  0
  9 12  1  0
 10 11  1  0
 12 13  1  0
 12 26  2  0
 13 14  1  0
 14 15  1  0
 15 16  1  1
 15 17  1  0
 17 18  1  0
 18 19  1  0
 19 20  2  0
 19 21  1  0
 21 22  1  0
 22 23  1  0
 23 24  1  0
 24 25  1  0
 26 27  1  0
 27 28  2  0
 28 29  1  0
M  CHG  1  25   1
M  END
