
     RDKit          3D

 29 30  0  0  0  0  0  0  0  0999 V2000
   -2.0720   -5.8540   -2.2520 C   0  0  0  0  0  0  0  0  0  0  0  0
   -2.4140   -4.5630   -1.7960 O   0  0  0  0  0  0  0  0  0  0  0  0
   -1.3700   -3.6720   -1.5560 C   0  0  0  0  0  0  0  0  0  0  0  0
   -0.0540   -4.0110   -1.7500 C   0  0  0  0  0  0  0  0  0  0  0  0
    1.0080   -3.1150   -1.5090 C   0  0  0  0  0  0  0  0  0  0  0  0
    2.3950   -3.5560   -1.7860 C   0  0  0  0  0  0  0  0  0  0  0  0
    0.7060   -1.8630   -1.0630 C   0  0  0  0  0  0  0  0  0  0  0  0
    1.6940   -0.8530   -0.7200 C   0  0  0  0  0  0  0  0  0  0  0  0
    3.0380   -0.9340   -0.6090 C   0  0  0  0  0  0  0  0  0  0  0  0
    3.5000    0.3650   -0.2410 C   0  0  0  0  0  0  0  0  0  0  0  0
    4.9120    0.6180   -0.0140 C   0  0  0  0  0  0  0  0  0  0  0  0
    5.7870   -0.1750   -0.4470 O   0  0  0  0  0  0  0  0  0  0  0  0
    5.3400    1.7540    0.6980 N   0  0  0  0  0  0  0  0  0  0  0  0
    6.7940    1.9240    0.8700 C   0  0  0  0  0  0  0  0  0  0  0  0
    7.1260    3.1590    1.6450 C   0  0  0  0  0  0  0  0  0  0  0  0
    8.5130    3.2200    1.7470 O   0  0  0  0  0  0  0  0  0  0  0  0
    2.3920    1.1410   -0.1550 C   0  0  0  0  0  0  0  0  0  0  0  0
    2.3490    2.5950    0.2000 C   0  0  0  0  0  0  0  0  0  0  0  0
    1.3860    0.3960   -0.4380 O   0  0  0  0  0  0  0  0  0  0  0  0
   -0.6450   -1.4870   -0.8570 C   0  0  0  0  0  0  0  0  0  0  0  0
   -0.9410   -0.1960   -0.4010 O   0  0  0  0  0  0  0  0  0  0  0  0
   -2.3130    0.1130   -0.2180 C   0  0  0  0  0  0  0  0  0  0  0  0
   -2.5050    1.5120    0.2620 C   0  0  0  0  0  0  0  0  0  0  0  0
   -4.0230    1.7530    0.3820 C   0  0  2  0  0  0  0  0  0  0  0  0
   -4.2930    3.1210    0.8640 C   0  0  0  0  0  0  0  0  0  0  0  0
   -4.6950    0.6060    0.9840 C   0  0  0  0  0  0  0  0  0  0  0  0
   -6.1670    0.7330    1.1480 C   0  0  0  0  0  0  0  0  0  0  0  0
   -6.5450    1.7540    2.0730 N   0  0  0  0  0  0  0  0  0  0  0  0
   -1.6380   -2.4000   -1.1080 C   0  0  0  0  0  0  0  0  0  0  0  0
  1  2  1  0
  2  3  1  0
  3  4  2  0
  3 29  1  0
  4  5  1  0
  5  6  1  0
  5  7  2  0
  7  8  1  0
  7 20  1  0
  8  9  2  0
  8 19  1  0
  9 10  1  0
 10 11  1  0
 10 17  2  0
 11 12  2  0
 11 13  1  0
 13 14  1  0
 14 15  1  0
 15 16  1  0
 17 18  1  0
 17 19  1  0
 20 21  1  0
 20 29  2  0
 21 22  1  0
 22 23  1  0
 23 24  1  0
 24 25  1  1
 24 26  1  0
 26 27  1  0
 27 28  1  0
M  CHG  1  28   1
M  END
