
     RDKit          3D

 13 13  0  0  0  0  0  0  0  0999 V2000
   -3.1740    0.7110    0.3710 O   0  0  0  0  0  0  0  0  0  0  0  0
   -2.8720   -0.3760   -0.4580 C   0  0  0  0  0  0  0  0  0  0  0  0
   -1.4220   -0.1570   -0.9080 C   0  0  1  0  0  0  0  0  0  0  0  0
   -1.3740    1.0300   -1.5750 O   0  0  0  0  0  0  0  0  0  0  0  0
   -0.5780   -0.2210    0.3340 C   0  0  2  0  0  0  0  0  0  0  0  0
   -0.9400    0.7240    1.2660 O   0  0  0  0  0  0  0  0  0  0  0  0
    0.8880   -0.1800    0.0890 C   0  0  1  0  0  0  0  0  0  0  0  0
    1.4490    1.1900   -0.1460 C   0  0  0  0  0  0  0  0  0  0  0  0
    1.1530    1.7380   -1.3570 O   0  0  0  0  0  0  0  0  0  0  0  0
    1.5710   -0.6860    1.3710 C   0  0  0  0  0  0  0  0  0  0  0  0
    2.7760   -1.1200    0.8820 O   0  0  0  0  0  0  0  0  0  0  0  0
    2.6580   -1.3390   -0.4700 C   0  0  0  0  0  0  0  0  0  0  0  0
    1.3390   -1.0930   -0.8310 O   0  0  0  0  0  0  0  0  0  0  0  0
  1  2  1  0
  2  3  1  0
  3  4  1  1
  3  5  1  0
  5  6  1  1
  5  7  1  0
  7  8  1  6
  7 10  1  0
  7 13  1  0
  8  9  1  0
 10 11  1  0
 11 12  1  0
 12 13  1  0
M  END
