
     RDKit          3D

 13 13  0  0  0  0  0  0  0  0999 V2000
   -1.3350    2.3850   -0.3590 O   0  0  0  0  0  0  0  0  0  0  0  0
   -0.1590    2.0230   -0.5740 C   0  0  0  0  0  0  0  0  0  0  0  0
    0.7110    2.9000   -1.1850 O   0  0  0  0  0  0  0  0  0  0  0  0
    0.2880    0.6960   -0.1850 C   0  0  2  0  0  0  0  0  0  0  0  0
    0.7740   -0.1060   -1.4010 C   0  0  0  0  0  0  0  0  0  0  0  0
    1.6010   -1.2500   -0.8410 C   0  0  1  0  0  0  0  0  0  0  0  0
    2.9280   -0.8360   -0.8190 O   0  0  0  0  0  0  0  0  0  0  0  0
    1.2380   -1.5290    0.4860 O   0  0  0  0  0  0  0  0  0  0  0  0
   -0.1690   -1.5600    0.6030 C   0  0  0  0  0  0  0  0  0  0  0  0
   -0.7390   -0.1420    0.5000 C   0  0  2  0  0  0  0  0  0  0  0  0
   -1.8910   -0.2470   -0.2770 O   0  0  0  0  0  0  0  0  0  0  0  0
   -1.1280    0.3800    1.8590 C   0  0  0  0  0  0  0  0  0  0  0  0
   -2.0270   -0.5010    2.4590 O   0  0  0  0  0  0  0  0  0  0  0  0
  1  2  2  0
  2  3  1  0
  4  2  1  6
  4  5  1  0
  4 10  1  0
  5  6  1  0
  6  7  1  1
  6  8  1  0
  8  9  1  0
  9 10  1  0
 10 11  1  6
 10 12  1  0
 12 13  1  0
M  END
