
     RDKit          3D

 13 13  0  0  0  0  0  0  0  0999 V2000
    2.7090    0.7810    1.4980 O   0  0  0  0  0  0  0  0  0  0  0  0
    2.8690   -0.4750    0.9590 C   0  0  0  0  0  0  0  0  0  0  0  0
    2.4880   -0.4680   -0.4910 C   0  0  1  0  0  0  0  0  0  0  0  0
    2.6350   -1.7170   -1.0720 O   0  0  0  0  0  0  0  0  0  0  0  0
    1.0960    0.0880   -0.6680 C   0  0  0  0  0  0  0  0  0  0  0  0
    0.1250   -0.7340   -0.0960 O   0  0  0  0  0  0  0  0  0  0  0  0
   -1.0930   -0.1410   -0.3120 C   0  0  1  0  0  0  0  0  0  0  0  0
   -1.3630    0.0140   -1.6800 O   0  0  0  0  0  0  0  0  0  0  0  0
   -2.2550   -0.9140    0.2700 C   0  0  0  0  0  0  0  0  0  0  0  0
   -3.2860    0.2230    0.2870 C   0  0  0  0  0  0  0  0  0  0  0  0
   -2.5770    1.2920    0.7760 O   0  0  0  0  0  0  0  0  0  0  0  0
   -1.2660    1.1780    0.3850 C   0  0  2  0  0  0  0  0  0  0  0  0
   -0.9550    2.2350   -0.4690 O   0  0  0  0  0  0  0  0  0  0  0  0
  1  2  1  0
  2  3  1  0
  3  4  1  1
  3  5  1  0
  5  6  1  0
  6  7  1  0
  7  8  1  6
  7  9  1  0
  7 12  1  0
  9 10  1  0
 10 11  1  0
 11 12  1  0
 12 13  1  6
M  END
