
     RDKit          3D

 12 12  0  0  0  0  0  0  0  0999 V2000
   -0.8160    1.7590    0.5580 C   0  0  0  0  0  0  0  0  0  0  0  0
   -0.3350    0.8800   -0.5760 C   0  0  1  0  0  0  0  0  0  0  0  0
    1.0340    0.8350   -0.5780 O   0  0  0  0  0  0  0  0  0  0  0  0
    1.5800   -0.3940   -0.3130 C   0  0  1  0  0  0  0  0  0  0  0  0
    3.0700   -0.2340   -0.1100 C   0  0  0  0  0  0  0  0  0  0  0  0
    3.3920    0.6020    0.9310 O   0  0  0  0  0  0  0  0  0  0  0  0
    1.0060   -0.9200    0.8400 O   0  0  0  0  0  0  0  0  0  0  0  0
   -0.3290   -1.2090    0.6670 C   0  0  1  0  0  0  0  0  0  0  0  0
   -0.9880   -0.7710    1.8410 O   0  0  0  0  0  0  0  0  0  0  0  0
   -0.9700   -0.4930   -0.4830 C   0  0  1  0  0  0  0  0  0  0  0  0
   -2.4630   -0.3250   -0.3010 C   0  0  0  0  0  0  0  0  0  0  0  0
   -0.8060   -1.1700   -1.7010 O   0  0  0  0  0  0  0  0  0  0  0  0
  2  1  1  1
  2  3  1  0
  2 10  1  0
  3  4  1  0
  4  5  1  1
  4  7  1  0
  5  6  1  0
  7  8  1  0
  8  9  1  1
  8 10  1  0
 10 11  1  1
 10 12  1  0
M  END
