
     RDKit          3D

 13 13  0  0  0  0  0  0  0  0999 V2000
    3.4850   -0.1520   -1.3080 O   0  0  0  0  0  0  0  0  0  0  0  0
    3.2530    0.3690   -0.0370 C   0  0  1  0  0  0  0  0  0  0  0  0
    3.9610    1.4980    0.4140 O   0  0  0  0  0  0  0  0  0  0  0  0
    2.1600   -0.1830    0.8200 C   0  0  2  0  0  0  0  0  0  0  0  0
    2.3600   -1.5330    1.0750 O   0  0  0  0  0  0  0  0  0  0  0  0
    0.8700    0.0150    0.0890 C   0  0  0  0  0  0  0  0  0  0  0  0
   -0.2160   -0.4500    0.8280 O   0  0  0  0  0  0  0  0  0  0  0  0
   -1.3470   -0.2320    0.0930 C   0  0  1  0  0  0  0  0  0  0  0  0
   -2.1310   -1.5360   -0.1010 C   0  0  0  0  0  0  0  0  0  0  0  0
   -3.4550   -1.2440    0.0990 O   0  0  0  0  0  0  0  0  0  0  0  0
   -3.6290    0.1230    0.0480 C   0  0  0  0  0  0  0  0  0  0  0  0
   -2.3870    0.6030    0.8140 C   0  0  2  0  0  0  0  0  0  0  0  0
   -2.2330    1.9530    0.6170 O   0  0  0  0  0  0  0  0  0  0  0  0
  2  1  1  6
  2  3  1  0
  2  4  1  0
  4  5  1  6
  4  6  1  0
  6  7  1  0
  8  7  1  1
  8  9  1  0
  8 12  1  0
  9 10  1  0
 10 11  1  0
 11 12  1  0
 12 13  1  6
M  END
