
     RDKit          3D

 23 24  0  0  0  0  0  0  0  0999 V2000
    4.4270    0.6670    1.5780 O   0  0  0  0  0  0  0  0  0  0  0  0
    3.6400    0.9810    0.6210 C   0  0  0  0  0  0  0  0  0  0  0  0
    3.8440    0.2290   -0.6420 C   0  0  0  0  0  0  0  0  0  0  0  0
    3.9150   -1.2570   -0.4410 C   0  0  0  0  0  0  0  0  0  0  0  0
    3.2040   -1.7080    0.6940 O   0  0  0  0  0  0  0  0  0  0  0  0
    1.9800   -2.3350    0.6720 C   0  0  0  0  0  0  0  0  0  0  0  0
    1.7490   -3.3610    1.3420 O   0  0  0  0  0  0  0  0  0  0  0  0
    0.8950   -1.7860   -0.1680 C   0  0  0  0  0  0  0  0  0  0  0  0
    0.0540   -0.9350    0.6720 C   0  0  0  0  0  0  0  0  0  0  0  0
    0.3980   -0.5540    1.8000 O   0  0  0  0  0  0  0  0  0  0  0  0
   -1.3200   -0.4270    0.2700 C   0  0  2  0  0  0  0  0  0  0  0  0
   -2.2830   -1.3170    0.9300 C   0  0  0  0  0  0  0  0  0  0  0  0
   -3.7320   -1.1170    0.7550 C   0  0  0  0  0  0  0  0  0  0  0  0
   -4.3640   -2.1360    1.5220 O   0  0  0  0  0  0  0  0  0  0  0  0
   -1.3600   -0.5680   -1.2320 C   0  0  0  0  0  0  0  0  0  0  0  0
   -2.1920    0.6070   -1.6680 C   0  0  0  0  0  0  0  0  0  0  0  0
   -1.6370    1.7040   -0.7500 C   0  0  0  0  0  0  0  0  0  0  0  0
   -1.3680    1.0170    0.5630 C   0  0  1  0  0  0  0  0  0  0  0  0
   -2.4340    1.3940    1.4130 O   0  0  0  0  0  0  0  0  0  0  0  0
   -0.2330    1.4330    1.1980 O   0  0  0  0  0  0  0  0  0  0  0  0
    0.3620    2.5710    0.7820 C   0  0  0  0  0  0  0  0  0  0  0  0
    1.6080    2.2270   -0.0250 C   0  0  0  0  0  0  0  0  0  0  0  0
    2.7040    1.9510    0.8270 O   0  0  0  0  0  0  0  0  0  0  0  0
  1  2  2  0
  2  3  1  0
  2 23  1  0
  3  4  1  0
  4  5  1  0
  5  6  1  0
  6  7  2  0
  6  8  1  0
  8  9  1  0
  9 10  2  0
  9 11  1  0
 11 12  1  1
 11 15  1  0
 11 18  1  0
 12 13  1  0
 13 14  1  0
 15 16  1  0
 16 17  1  0
 17 18  1  0
 18 19  1  1
 18 20  1  0
 20 21  1  0
 21 22  1  0
 22 23  1  0
M  END
