
     RDKit          3D

 22 23  0  0  0  0  0  0  0  0999 V2000
   -3.0940    3.1130   -0.2710 C   0  0  0  0  0  0  0  0  0  0  0  0
   -3.0680    1.7030   -0.0010 O   0  0  0  0  0  0  0  0  0  0  0  0
   -2.0500    0.9110   -0.4880 C   0  0  0  0  0  0  0  0  0  0  0  0
   -1.1440    1.4360   -1.1710 O   0  0  0  0  0  0  0  0  0  0  0  0
   -2.0390   -0.5490   -0.2040 C   0  0  1  0  0  0  0  0  0  0  0  0
   -2.4960   -0.9050    1.1970 C   0  0  0  0  0  0  0  0  0  0  0  0
   -3.0310   -1.1490   -1.1400 C   0  0  0  0  0  0  0  0  0  0  0  0
   -2.2930   -2.1270   -1.9110 C   0  0  0  0  0  0  0  0  0  0  0  0
   -2.7420   -2.9230   -2.7980 O   0  0  0  0  0  0  0  0  0  0  0  0
   -0.8860   -2.0280   -1.4670 C   0  0  0  0  0  0  0  0  0  0  0  0
    0.0610   -2.8660   -2.1110 O   0  0  0  0  0  0  0  0  0  0  0  0
   -0.7180   -1.1570   -0.5170 C   0  0  0  0  0  0  0  0  0  0  0  0
    0.5580   -0.8210    0.1400 C   0  0  0  0  0  0  0  0  0  0  0  0
    0.6870    0.0680    1.1100 C   0  0  0  0  0  0  0  0  0  0  0  0
   -0.4120    0.7610    1.5830 O   0  0  0  0  0  0  0  0  0  0  0  0
    1.9950    0.3980    1.7680 C   0  0  0  0  0  0  0  0  0  0  0  0
    3.1520    0.1750    0.8560 C   0  0  2  0  0  0  0  0  0  0  0  0
    4.4610    0.2270    1.6110 C   0  0  0  0  0  0  0  0  0  0  0  0
    3.2140    1.1190   -0.2980 C   0  0  0  0  0  0  0  0  0  0  0  0
    3.0280   -1.1450    0.3600 O   0  0  0  0  0  0  0  0  0  0  0  0
    1.7850   -1.4720   -0.2690 C   0  0  0  0  0  0  0  0  0  0  0  0
    1.9180   -2.3380   -1.1530 O   0  0  0  0  0  0  0  0  0  0  0  0
  1  2  1  0
  2  3  1  0
  3  4  2  0
  3  5  1  0
  5  6  1  1
  5  7  1  0
  5 12  1  0
  7  8  1  0
  8  9  2  0
  8 10  1  0
 10 11  1  0
 10 12  2  0
 12 13  1  0
 13 14  2  0
 13 21  1  0
 14 15  1  0
 14 16  1  0
 16 17  1  0
 17 18  1  1
 17 19  1  0
 17 20  1  0
 20 21  1  0
 21 22  2  0
M  END
