
     RDKit          3D

 23 24  0  0  0  0  0  0  0  0999 V2000
   -3.7190   -2.9910    0.4820 C   0  0  0  0  0  0  0  0  0  0  0  0
   -2.8640   -2.5560   -0.6530 C   0  0  0  0  0  0  0  0  0  0  0  0
   -2.1900   -1.3840   -0.6660 C   0  0  0  0  0  0  0  0  0  0  0  0
   -2.3320   -0.6130    0.4180 O   0  0  0  0  0  0  0  0  0  0  0  0
   -1.8680    0.5430    0.9380 C   0  0  0  0  0  0  0  0  0  0  0  0
   -1.9330    1.7820    0.0760 C   0  0  0  0  0  0  0  0  0  0  0  0
   -1.3280    2.8820    0.7170 O   0  0  0  0  0  0  0  0  0  0  0  0
   -0.0620    2.9120    1.2830 C   0  0  0  0  0  0  0  0  0  0  0  0
   -0.0160    3.4520    2.4550 O   0  0  0  0  0  0  0  0  0  0  0  0
    1.0180    2.4020    0.6230 O   0  0  0  0  0  0  0  0  0  0  0  0
    1.7540    2.9080   -0.4340 C   0  0  0  0  0  0  0  0  0  0  0  0
    2.0860    1.9650   -1.5440 C   0  0  0  0  0  0  0  0  0  0  0  0
    2.8020    0.8530   -1.1250 O   0  0  0  0  0  0  0  0  0  0  0  0
    2.5630   -0.0240   -0.0770 C   0  0  0  0  0  0  0  0  0  0  0  0
    1.3820   -0.6070    0.1320 C   0  0  0  0  0  0  0  0  0  0  0  0
    1.5150   -1.4640    1.3350 C   0  0  0  0  0  0  0  0  0  0  0  0
    2.9140   -1.2780    1.7520 C   0  0  0  0  0  0  0  0  0  0  0  0
    3.5040   -0.4600    0.9490 C   0  0  0  0  0  0  0  0  0  0  0  0
    4.8660   -0.1250    1.1500 O   0  0  0  0  0  0  0  0  0  0  0  0
    0.4140   -0.2900   -0.7480 O   0  0  0  0  0  0  0  0  0  0  0  0
   -0.1690   -0.6160   -1.8950 C   0  0  0  0  0  0  0  0  0  0  0  0
   -1.4020   -1.1360   -1.8740 C   0  0  0  0  0  0  0  0  0  0  0  0
   -1.9530   -1.4570   -3.1400 O   0  0  0  0  0  0  0  0  0  0  0  0
  1  2  1  0
  2  3  2  3
  3  4  1  0
  3 22  1  0
  4  5  1  0
  5  6  1  0
  6  7  1  0
  7  8  1  0
  8  9  2  0
  8 10  1  0
 10 11  1  0
 11 12  1  0
 12 13  1  0
 13 14  1  0
 14 15  2  0
 14 18  1  0
 15 16  1  0
 15 20  1  0
 16 17  1  0
 17 18  2  0
 18 19  1  0
 20 21  1  0
 21 22  2  0
 22 23  1  0
M  END
