
     RDKit          3D

 23 24  0  0  0  0  0  0  0  0999 V2000
    6.0720    1.8010   -1.9100 C   0  0  0  0  0  0  0  0  0  0  0  0
    5.0420    0.8440   -2.4470 C   0  0  0  0  0  0  0  0  0  0  0  0
    4.2030    0.3130   -1.4740 O   0  0  0  0  0  0  0  0  0  0  0  0
    3.3720    1.0300   -0.6510 C   0  0  0  0  0  0  0  0  0  0  0  0
    3.3620    2.2780   -0.7790 O   0  0  0  0  0  0  0  0  0  0  0  0
    2.4860    0.4440    0.3790 C   0  0  1  0  0  0  0  0  0  0  0  0
    1.0260    0.7570    0.1410 C   0  0  0  0  0  0  0  0  0  0  0  0
    0.1500   -0.4410    0.5320 C   0  0  2  0  0  0  0  0  0  0  0  0
   -1.1600    0.0350    0.6300 O   0  0  0  0  0  0  0  0  0  0  0  0
   -2.2200   -0.4020   -0.1530 C   0  0  0  0  0  0  0  0  0  0  0  0
   -1.9760   -1.2870   -1.0070 O   0  0  0  0  0  0  0  0  0  0  0  0
   -3.5570    0.1580    0.0240 C   0  0  0  0  0  0  0  0  0  0  0  0
   -4.6230   -0.1970   -0.6750 C   0  0  0  0  0  0  0  0  0  0  0  0
   -4.6990   -1.1430   -1.6900 O   0  0  0  0  0  0  0  0  0  0  0  0
   -5.7720    0.5740   -0.2180 C   0  0  0  0  0  0  0  0  0  0  0  0
   -7.0430    0.3820   -0.5010 C   0  0  0  0  0  0  0  0  0  0  0  0
   -7.4980   -0.6340   -1.3170 O   0  0  0  0  0  0  0  0  0  0  0  0
   -5.2140    1.6420    0.6490 C   0  0  0  0  0  0  0  0  0  0  0  0
   -3.9180    1.1220    0.9250 O   0  0  0  0  0  0  0  0  0  0  0  0
    0.6890   -0.9580    1.8410 C   0  0  0  0  0  0  0  0  0  0  0  0
    2.1360   -1.3540    1.6750 C   0  0  1  0  0  0  0  0  0  0  0  0
    2.3070   -2.8580    1.7400 C   0  0  0  0  0  0  0  0  0  0  0  0
    2.5870   -0.9460    0.4250 O   0  0  0  0  0  0  0  0  0  0  0  0
  1  2  1  0
  2  3  1  0
  3  4  1  0
  4  5  2  0
  6  4  1  6
  6  7  1  0
  6 23  1  0
  7  8  1  0
  8  9  1  1
  8 20  1  0
  9 10  1  0
 10 11  2  0
 10 12  1  0
 12 13  2  0
 12 19  1  0
 13 14  1  0
 13 15  1  0
 15 16  2  3
 15 18  1  0
 16 17  1  0
 18 19  1  0
 20 21  1  0
 21 22  1  6
 21 23  1  0
M  END
