
     RDKit          3D

 16 16  0  0  0  0  0  0  0  0999 V2000
    4.3700    0.2810   -0.5760 N   0  0  0  0  0  0  0  0  0  0  0  0
    3.0790   -0.2300   -0.8580 C   0  0  0  0  0  0  0  0  0  0  0  0
    2.9810   -1.1360   -1.7200 O   0  0  0  0  0  0  0  0  0  0  0  0
    1.8750    0.2540   -0.1910 C   0  0  0  0  0  0  0  0  0  0  0  0
    1.9820    1.1630    0.6730 O   0  0  0  0  0  0  0  0  0  0  0  0
    0.5920   -0.2710   -0.4880 N   0  0  0  0  0  0  0  0  0  0  0  0
   -0.5570    0.2460    0.2030 C   0  0  0  0  0  0  0  0  0  0  0  0
   -0.4440    1.5490    1.4470 S   0  0  0  0  0  0  0  0  0  0  0  0
   -2.3020    1.5160    1.7210 C   0  0  0  0  0  0  0  0  0  0  0  0
   -3.1070    2.5500    2.8560 Cl  0  0  0  0  0  0  0  0  0  0  0  0
   -2.7570    0.5570    0.8670 C   0  0  0  0  0  0  0  0  0  0  0  0
   -4.5240    0.2260    0.8370 Cl  0  0  0  0  0  0  0  0  0  0  0  0
   -1.8590   -0.0880    0.0940 C   0  0  0  0  0  0  0  0  0  0  0  0
   -2.3070   -1.3720   -1.0750 S   0  0  1  0  0  0  0  0  0  0  0  0
   -2.3000   -0.8290   -2.4630 O   0  0  0  0  0  0  0  0  0  0  0  0
   -1.3150   -2.4940   -0.9570 O   0  0  0  0  0  0  0  0  0  0  0  0
  1  2  1  0
  2  3  2  0
  2  4  1  0
  4  5  2  0
  4  6  1  0
  6  7  1  0
  7  8  1  0
  7 13  2  0
  8  9  1  0
  9 10  1  0
  9 11  2  0
 11 12  1  0
 11 13  1  0
 14 13  1  1
 14 15  2  0
 14 16  2  0
M  END
