
     RDKit          3D

 23 24  0  0  0  0  0  0  0  0999 V2000
    4.1930   -0.1930   -1.2410 C   0  0  0  0  0  0  0  0  0  0  0  0
    3.6020   -1.2950   -0.3890 C   0  0  0  0  0  0  0  0  0  0  0  0
    2.2140   -1.0440   -0.2740 O   0  0  0  0  0  0  0  0  0  0  0  0
    1.6910    0.0910    0.2750 C   0  0  0  0  0  0  0  0  0  0  0  0
    2.4860    0.9380    0.6900 O   0  0  0  0  0  0  0  0  0  0  0  0
    0.1770    0.3140    0.3750 C   0  0  0  0  0  0  0  0  0  0  0  0
   -0.1470    1.4090    0.9000 C   0  0  0  0  0  0  0  0  0  0  0  0
    1.0190    2.2130    1.2890 O   0  0  0  0  0  0  0  0  0  0  0  0
   -1.3450    2.0990    1.2300 C   0  0  0  0  0  0  0  0  0  0  0  0
   -2.6620    1.7470    1.0640 O   0  0  0  0  0  0  0  0  0  0  0  0
   -1.2330    3.3340    1.8180 C   0  0  0  0  0  0  0  0  0  0  0  0
   -2.3100    4.0930    2.1800 O   0  0  0  0  0  0  0  0  0  0  0  0
   -0.6070   -0.7900   -0.1480 C   0  0  2  0  0  0  0  0  0  0  0  0
   -0.1360   -1.0560   -1.5860 C   0  0  0  0  0  0  0  0  0  0  0  0
   -1.2230   -1.2520   -2.5720 C   0  0  0  0  0  0  0  0  0  0  0  0
   -2.2430   -0.2320   -2.4760 O   0  0  0  0  0  0  0  0  0  0  0  0
   -2.8670   -0.2620   -1.2040 C   0  0  0  0  0  0  0  0  0  0  0  0
   -4.0420    0.1100   -1.0700 O   0  0  0  0  0  0  0  0  0  0  0  0
   -2.0510   -0.7560   -0.0610 C   0  0  0  0  0  0  0  0  0  0  0  0
   -2.4510   -1.2980    1.0990 C   0  0  0  0  0  0  0  0  0  0  0  0
   -1.2290   -1.7250    1.8260 C   0  0  0  0  0  0  0  0  0  0  0  0
   -1.0490   -1.7590    3.0390 O   0  0  0  0  0  0  0  0  0  0  0  0
   -0.3480   -2.0760    0.6550 C   0  0  0  0  0  0  0  0  0  0  0  0
  1  2  1  0
  2  3  1  0
  3  4  1  0
  4  5  2  0
  4  6  1  0
  6  7  2  3
 13  6  1  1
  7  8  1  0
  7  9  1  0
  9 10  1  0
  9 11  2  3
 11 12  1  0
 13 14  1  0
 13 19  1  0
 13 23  1  0
 14 15  1  0
 15 16  1  0
 16 17  1  0
 17 18  2  0
 17 19  1  0
 19 20  2  0
 20 21  1  0
 21 22  2  0
 21 23  1  0
M  END
