
     RDKit          3D

 33 36  0  0  0  0  0  0  0  0999 V2000
    0.2100    1.3470    0.3720 C   0  0  0  0  0  0  0  0  0  0  0  0
    0.2680    0.0550    1.0290 C   0  0  0  0  0  0  0  0  0  0  0  0
    1.4960   -0.4950    1.4450 C   0  0  0  0  0  0  0  0  0  0  0  0
    2.9560    0.5310    1.1490 S   0  0  0  0  0  0  0  0  0  0  0  0
    3.6370    0.1320   -0.4620 C   0  0  0  0  0  0  0  0  0  0  0  0
    3.0270   -0.6640   -1.2290 O   0  0  0  0  0  0  0  0  0  0  0  0
    4.8410    0.6950   -0.8750 N   0  0  0  0  0  0  0  0  0  0  0  0
    5.4030    0.3780   -2.1830 C   0  0  0  0  0  0  0  0  0  0  0  0
    6.8160   -0.0970   -1.9950 C   0  0  2  0  0  0  0  0  0  0  0  0
    6.9660   -1.5450   -2.4640 C   0  0  0  0  0  0  0  0  0  0  0  0
    7.1860   -0.0250   -0.6760 O   0  0  0  0  0  0  0  0  0  0  0  0
    7.0580    1.2360   -0.0960 C   0  0  2  0  0  0  0  0  0  0  0  0
    7.6440    1.1960    1.2740 C   0  0  0  0  0  0  0  0  0  0  0  0
    5.5710    1.5950    0.0190 C   0  0  0  0  0  0  0  0  0  0  0  0
    1.6250   -1.7380    2.0090 C   0  0  0  0  0  0  0  0  0  0  0  0
    2.7510   -2.1500    2.3520 O   0  0  0  0  0  0  0  0  0  0  0  0
    0.5290   -2.4580    2.1690 N   0  0  0  0  0  0  0  0  0  0  0  0
   -0.6890   -2.0150    1.8010 C   0  0  0  0  0  0  0  0  0  0  0  0
   -1.7550   -2.8030    1.9630 N   0  0  0  0  0  0  0  0  0  0  0  0
   -2.9780   -2.4460    1.6030 C   0  0  0  0  0  0  0  0  0  0  0  0
   -4.1890   -3.0460    1.6310 N   0  0  0  0  0  0  0  0  0  0  0  0
   -5.1130   -2.2550    1.1190 C   0  0  0  0  0  0  0  0  0  0  0  0
   -4.5010   -1.0440    0.7170 C   0  0  0  0  0  0  0  0  0  0  0  0
   -5.2310    0.0750    0.0730 C   0  0  0  0  0  0  0  0  0  0  0  0
   -6.5400   -0.5390   -0.4900 C   0  0  0  0  0  0  0  0  0  0  0  0
   -7.3790    0.5210   -1.1490 C   0  0  2  0  0  0  0  0  0  0  0  0
   -6.7380    1.1570   -2.2010 O   0  0  0  0  0  0  0  0  0  0  0  0
   -7.8240    1.5940   -0.1600 C   0  0  0  0  0  0  0  0  0  0  0  0
   -8.7290    2.4490   -0.8050 O   0  0  0  0  0  0  0  0  0  0  0  0
   -3.1780   -1.1890    1.0320 C   0  0  0  0  0  0  0  0  0  0  0  0
   -2.0910   -0.3020    0.8360 C   0  0  0  0  0  0  0  0  0  0  0  0
   -2.3130    1.0500    0.3560 C   0  0  0  0  0  0  0  0  0  0  0  0
   -0.8460   -0.7310    1.2190 C   0  0  0  0  0  0  0  0  0  0  0  0
  1  2  1  0
  2  3  2  0
  2 33  1  0
  3  4  1  0
  3 15  1  0
  4  5  1  0
  5  6  2  0
  5  7  1  0
  7  8  1  0
  7 14  1  0
  8  9  1  0
  9 10  1  1
  9 11  1  0
 11 12  1  0
 12 13  1  1
 12 14  1  0
 15 16  2  0
 15 17  1  0
 17 18  1  0
 18 19  2  0
 18 33  1  0
 19 20  1  0
 20 21  1  0
 20 30  2  0
 21 22  1  0
 22 23  2  0
 23 24  1  0
 23 30  1  0
 24 25  1  0
 25 26  1  0
 26 27  1  6
 26 28  1  0
 28 29  1  0
 30 31  1  0
 31 32  1  0
 31 33  2  0
M  END
