
     RDKit          3D

 21 22  0  0  0  0  0  0  0  0999 V2000
   -0.4170   -2.4750    0.6320 C   0  0  0  0  0  0  0  0  0  0  0  0
   -1.1800   -1.2820    0.2350 N   0  0  0  0  0  0  0  0  0  0  0  0
   -2.5160   -1.2230    0.3740 N   0  0  0  0  0  0  0  0  0  0  0  0
   -2.9590   -0.0890   -0.1200 C   0  0  0  0  0  0  0  0  0  0  0  0
   -4.3930    0.3440   -0.1360 C   0  0  2  0  0  0  0  0  0  0  0  0
   -5.2170   -0.6200    0.6610 C   0  0  0  0  0  0  0  0  0  0  0  0
   -4.8510    0.3760   -1.5650 C   0  0  0  0  0  0  0  0  0  0  0  0
   -4.4890    1.6930    0.5220 C   0  0  0  0  0  0  0  0  0  0  0  0
   -1.8590    0.5850   -0.5810 C   0  0  0  0  0  0  0  0  0  0  0  0
   -0.6880   -0.1940   -0.3440 C   0  0  0  0  0  0  0  0  0  0  0  0
    0.5570    0.3410   -0.6190 N   0  0  0  0  0  0  0  0  0  0  0  0
    1.8160    0.0080   -0.1210 C   0  0  0  0  0  0  0  0  0  0  0  0
    1.9100   -0.9020    0.7480 O   0  0  0  0  0  0  0  0  0  0  0  0
    3.0090    0.6650   -0.5540 N   0  0  0  0  0  0  0  0  0  0  0  0
    4.3080    0.4050   -0.0830 C   0  0  0  0  0  0  0  0  0  0  0  0
    5.1670    1.4920    0.1860 C   0  0  0  0  0  0  0  0  0  0  0  0
    6.4520    1.3750    0.6140 C   0  0  0  0  0  0  0  0  0  0  0  0
    6.9700    0.1000    0.8060 C   0  0  0  0  0  0  0  0  0  0  0  0
    8.6090   -0.0300    1.3540 Cl  0  0  0  0  0  0  0  0  0  0  0  0
    6.1700   -0.9950    0.5570 C   0  0  0  0  0  0  0  0  0  0  0  0
    4.8530   -0.8430    0.1160 C   0  0  0  0  0  0  0  0  0  0  0  0
  1  2  1  0
  2  3  1  0
  2 10  1  0
  3  4  2  0
  4  5  1  0
  4  9  1  0
  5  6  1  1
  5  7  1  0
  5  8  1  0
  9 10  2  0
 10 11  1  0
 11 12  1  0
 12 13  2  0
 12 14  1  0
 14 15  1  0
 15 16  2  0
 15 21  1  0
 16 17  1  0
 17 18  2  0
 18 19  1  0
 18 20  1  0
 20 21  2  0
M  END
