
     RDKit          3D

 20 22  0  0  0  0  0  0  0  0999 V2000
   -4.4240   -2.2170    0.0810 N   0  0  0  0  0  0  0  0  0  0  0  0
   -3.1480   -1.7080   -0.1620 C   0  0  0  0  0  0  0  0  0  0  0  0
   -2.2670   -2.3040   -0.9410 O   0  0  0  0  0  0  0  0  0  0  0  0
   -1.1310   -1.6200   -0.9990 C   0  0  0  0  0  0  0  0  0  0  0  0
   -1.2600   -0.5000   -0.2200 C   0  0  0  0  0  0  0  0  0  0  0  0
   -2.5430   -0.5640    0.3060 C   0  0  0  0  0  0  0  0  0  0  0  0
   -3.2090    0.4060    1.1810 C   0  0  0  0  0  0  0  0  0  0  0  0
   -2.4730    1.5410    1.6130 N   0  0  0  0  0  0  0  0  0  0  0  0
   -0.1370    0.4130   -0.0560 C   0  0  0  0  0  0  0  0  0  0  0  0
    0.9780    0.3610   -1.0460 C   0  0  1  0  0  0  0  0  0  0  0  0
    2.2650    0.1640   -0.2710 C   0  0  0  0  0  0  0  0  0  0  0  0
    2.9460   -1.0070   -0.1060 C   0  0  0  0  0  0  0  0  0  0  0  0
    4.1370   -0.7410    0.5450 N   0  0  0  0  0  0  0  0  0  0  0  0
    4.1710    0.5560    0.7660 N   0  0  0  0  0  0  0  0  0  0  0  0
    3.0570    1.1370    0.2900 C   0  0  0  0  0  0  0  0  0  0  0  0
    2.7690    2.5010    0.3660 O   0  0  0  0  0  0  0  0  0  0  0  0
    3.8060    3.6130    1.1860 S   0  0  0  0  0  0  0  0  0  0  0  0
    4.8730    4.2380    0.3580 O   0  0  0  0  0  0  0  0  0  0  0  0
    0.8270   -0.6730   -2.0800 C   0  0  0  0  0  0  0  0  0  0  0  0
    0.0990   -1.9340   -1.7480 C   0  0  0  0  0  0  0  0  0  0  0  0
  1  2  1  0
  2  3  1  0
  2  6  2  0
  3  4  1  0
  4  5  2  0
  4 20  1  0
  5  6  1  0
  5  9  1  0
  6  7  1  0
  7  8  1  0
  9 10  1  0
 10 11  1  1
 10 19  1  0
 11 12  2  0
 11 15  1  0
 12 13  1  0
 13 14  1  0
 14 15  2  0
 15 16  1  0
 16 17  1  0
 17 18  2  0
 19 20  1  0
M  CHG  1   8   1
M  END
