
     RDKit          3D

 23 24  0  0  0  0  0  0  0  0999 V2000
    0.3260    0.4390    2.1420 C   0  0  0  0  0  0  0  0  0  0  0  0
    0.0990    0.3330    0.7300 N   0  0  0  0  0  0  0  0  0  0  0  0
    0.0280    1.5670    0.0440 C   0  0  0  0  0  0  0  0  0  0  0  0
   -0.7690    1.6050   -1.1860 C   0  0  0  0  0  0  0  0  0  0  0  0
   -0.2980    1.0210   -2.2290 O   0  0  0  0  0  0  0  0  0  0  0  0
   -2.0670    2.2350   -1.4040 C   0  0  0  0  0  0  0  0  0  0  0  0
   -2.1490    2.8920   -2.5180 O   0  0  0  0  0  0  0  0  0  0  0  0
   -3.1420    2.1740   -0.5470 O   0  0  0  0  0  0  0  0  0  0  0  0
   -3.9260    1.1420   -0.1010 C   0  0  0  0  0  0  0  0  0  0  0  0
   -3.3840   -0.2120   -0.3960 C   0  0  0  0  0  0  0  0  0  0  0  0
   -3.8260   -1.1220   -1.2720 N   0  0  0  0  0  0  0  0  0  0  0  0
   -3.0260   -2.1700   -1.1900 N   0  0  0  0  0  0  0  0  0  0  0  0
   -2.0800   -1.9310   -0.2690 C   0  0  0  0  0  0  0  0  0  0  0  0
   -2.3270   -0.7180    0.2030 N   0  0  0  0  0  0  0  0  0  0  0  0
   -0.9550   -2.6750    0.2460 N   0  0  0  0  0  0  0  0  0  0  0  0
    0.2240   -2.0420    0.6930 C   0  0  0  0  0  0  0  0  0  0  0  0
    0.8670   -2.6070    1.6470 O   0  0  0  0  0  0  0  0  0  0  0  0
    0.7570   -0.7540    0.1120 C   0  0  2  0  0  0  0  0  0  0  0  0
    2.2410   -0.7970    0.2950 C   0  0  0  0  0  0  0  0  0  0  0  0
    2.9170    0.2960   -0.1930 O   0  0  0  0  0  0  0  0  0  0  0  0
    4.6130    0.2080    0.0360 P   0  0  0  0  0  0  0  0  0  0  0  0
    5.3450   -0.6160   -1.3160 O   0  0  0  0  0  0  0  0  0  0  0  0
    5.2360    1.8170    0.1880 O   0  0  0  0  0  0  0  0  0  0  0  0
  1  2  1  0
  2  3  1  0
  2 18  1  0
  3  4  1  0
  4  5  2  0
  4  6  1  0
  6  7  2  0
  6  8  1  0
  8  9  1  0
  9 10  1  0
 10 11  2  0
 10 14  1  0
 11 12  1  0
 12 13  1  0
 13 14  2  0
 13 15  1  0
 15 16  1  0
 16 17  2  0
 16 18  1  0
 18 19  1  1
 19 20  1  0
 20 21  1  0
 21 22  1  0
 21 23  1  0
M  END
