
     RDKit          3D

 23 25  0  0  0  0  0  0  0  0999 V2000
   -1.9650   -1.5460   -0.4010 O   0  0  0  0  0  0  0  0  0  0  0  0
   -2.3390   -0.3660   -0.3150 C   0  0  0  0  0  0  0  0  0  0  0  0
   -3.7450   -0.2200   -0.3210 O   0  0  0  0  0  0  0  0  0  0  0  0
   -4.8310   -1.5730   -0.4380 P   0  0  0  0  0  0  0  0  0  0  0  0
   -4.1910   -2.9990    0.3140 O   0  0  0  0  0  0  0  0  0  0  0  0
   -6.2840   -1.1520    0.4520 O   0  0  0  0  0  0  0  0  0  0  0  0
   -1.4910    0.8070   -0.2150 C   0  0  0  0  0  0  0  0  0  0  0  0
   -1.9650    2.1020   -0.1210 N   0  0  0  0  0  0  0  0  0  0  0  0
   -0.9370    2.9540   -0.0430 C   0  0  0  0  0  0  0  0  0  0  0  0
   -0.9710    4.3360    0.0630 O   0  0  0  0  0  0  0  0  0  0  0  0
    0.1560    2.2160   -0.0870 N   0  0  0  0  0  0  0  0  0  0  0  0
   -0.1300    0.8840   -0.1930 C   0  0  0  0  0  0  0  0  0  0  0  0
    0.8440   -0.1910   -0.2640 C   0  0  0  0  0  0  0  0  0  0  0  0
    0.5070   -1.5090   -0.3690 N   0  0  0  0  0  0  0  0  0  0  0  0
    1.6010   -2.2750   -0.4150 C   0  0  0  0  0  0  0  0  0  0  0  0
    2.6920   -1.4380   -0.3370 C   0  0  0  0  0  0  0  0  0  0  0  0
    4.0190   -1.6190   -0.3350 N   0  0  0  0  0  0  0  0  0  0  0  0
    4.8690   -0.5790   -0.2450 C   0  0  0  0  0  0  0  0  0  0  0  0
    6.1140   -0.8440   -0.2510 O   0  0  0  0  0  0  0  0  0  0  0  0
    4.4080    0.6720   -0.1540 N   0  0  0  0  0  0  0  0  0  0  0  0
    3.0480    0.8420   -0.1580 C   0  0  0  0  0  0  0  0  0  0  0  0
    2.6310    2.0320   -0.0710 O   0  0  0  0  0  0  0  0  0  0  0  0
    2.1890   -0.1880   -0.2470 N   0  0  0  0  0  0  0  0  0  0  0  0
  1  2  2  0
  2  3  1  0
  2  7  1  0
  3  4  1  0
  4  5  1  0
  4  6  1  0
  7  8  1  0
  7 12  2  0
  8  9  1  0
  9 10  1  0
  9 11  2  0
 11 12  1  0
 12 13  1  0
 13 14  2  0
 13 23  1  0
 14 15  1  0
 15 16  2  0
 16 17  1  0
 16 23  1  0
 17 18  1  0
 18 19  2  0
 18 20  1  0
 20 21  1  0
 21 22  2  0
 21 23  1  0
M  END
