
     RDKit          3D

 16 16  0  0  0  0  0  0  0  0999 V2000
    5.7770    0.7920    0.7880 O   0  0  0  0  0  0  0  0  0  0  0  0
    5.0130   -0.1060    0.6650 O   0  0  0  0  0  0  0  0  0  0  0  0
    4.2300   -0.6810   -0.2220 C   0  0  0  0  0  0  0  0  0  0  0  0
    2.9310    0.3360   -0.4510 C   0  0  0  0  0  0  0  0  0  0  0  0
    2.1350   -0.3790   -1.1490 O   0  0  0  0  0  0  0  0  0  0  0  0
    0.8950   -0.1820   -1.4720 O   0  0  0  0  0  0  0  0  0  0  0  0
    0.4030   -0.5810   -0.1300 C   0  0  0  0  0  0  0  0  0  0  0  0
   -1.0920   -0.6640   -0.0140 C   0  0  0  0  0  0  0  0  0  0  0  0
   -1.8410    0.5510   -0.2110 C   0  0  1  0  0  0  0  0  0  0  0  0
   -1.5760    1.7390    1.2700 Br  0  0  0  0  0  0  0  0  0  0  0  0
   -2.1450    1.1290   -1.3200 O   0  0  0  0  0  0  0  0  0  0  0  0
   -3.3640    1.5180   -1.4010 O   0  0  0  0  0  0  0  0  0  0  0  0
   -4.0100    1.2090   -0.2060 C   0  0  0  0  0  0  0  0  0  0  0  0
   -3.3310   -0.0470    0.1440 C   0  0  2  0  0  0  0  0  0  0  0  0
   -3.3250   -0.3550    1.4940 O   0  0  0  0  0  0  0  0  0  0  0  0
   -3.5510   -1.6430    1.6350 O   0  0  0  0  0  0  0  0  0  0  0  0
  1  2  1  0
  2  3  1  0
  3  4  1  0
  4  5  1  0
  5  6  1  0
  6  7  1  0
  7  8  1  0
  8  9  1  0
  9 10  1  1
  9 11  1  0
  9 14  1  0
 11 12  1  0
 12 13  1  0
 13 14  1  0
 14 15  1  1
 15 16  1  0
M  END
