
     RDKit          3D

 23 25  0  0  0  0  0  0  0  0999 V2000
    2.0670   -0.4000    1.7670 O   0  0  0  0  0  0  0  0  0  0  0  0
    1.6790   -0.0950    0.6170 C   0  0  0  0  0  0  0  0  0  0  0  0
    2.5740    0.1670   -0.5390 C   0  0  0  0  0  0  0  0  0  0  0  0
    3.9580    0.0330   -0.2590 N   0  0  0  0  0  0  0  0  0  0  0  0
    4.7860    0.9880    0.1850 C   0  0  0  0  0  0  0  0  0  0  0  0
    4.4720    2.1850    0.4440 O   0  0  0  0  0  0  0  0  0  0  0  0
    6.0290    0.4370    0.3080 N   0  0  0  0  0  0  0  0  0  0  0  0
    5.9880   -0.8310   -0.0480 N   0  0  0  0  0  0  0  0  0  0  0  0
    4.7150   -1.0760   -0.3960 C   0  0  0  0  0  0  0  0  0  0  0  0
    4.2720   -2.1900   -0.8000 O   0  0  0  0  0  0  0  0  0  0  0  0
    0.2750    0.0160    0.3710 N   0  0  0  0  0  0  0  0  0  0  0  0
   -0.3050    0.3340   -0.8140 C   0  0  0  0  0  0  0  0  0  0  0  0
   -1.6340    0.3490   -0.6960 N   0  0  0  0  0  0  0  0  0  0  0  0
   -1.9240    0.0380    0.5790 C   0  0  0  0  0  0  0  0  0  0  0  0
   -3.3010   -0.0570    1.1480 C   0  0  2  0  0  0  0  0  0  0  0  0
   -3.2310   -0.2670    2.5000 O   0  0  0  0  0  0  0  0  0  0  0  0
   -4.1120   -1.1210    0.4860 C   0  0  0  0  0  0  0  0  0  0  0  0
   -3.9430   -1.2010   -1.0080 C   0  0  0  0  0  0  0  0  0  0  0  0
   -4.2140   -0.0320   -1.6750 O   0  0  0  0  0  0  0  0  0  0  0  0
   -3.8310    1.4070   -0.8430 P   0  0  0  0  0  0  0  0  0  0  0  0
   -4.6990    2.7680   -1.4060 O   0  0  0  0  0  0  0  0  0  0  0  0
   -3.9350    1.1730    0.8530 O   0  0  0  0  0  0  0  0  0  0  0  0
   -0.7440   -0.1570    1.1950 N   0  0  0  0  0  0  0  0  0  0  0  0
  1  2  2  0
  2  3  1  0
  2 11  1  0
  3  4  1  0
  4  5  1  0
  4  9  1  0
  5  6  2  0
  5  7  1  0
  7  8  1  0
  8  9  1  0
  9 10  2  0
 11 12  1  0
 11 23  1  0
 12 13  2  0
 13 14  1  0
 14 15  1  0
 14 23  2  0
 15 16  1  1
 15 17  1  0
 15 22  1  0
 17 18  1  0
 18 19  1  0
 19 20  1  0
 20 21  1  0
 20 22  1  0
M  END
