
     RDKit          3D

 26 28  0  0  0  0  0  0  0  0999 V2000
    7.7570    1.9200    2.2190 C   0  0  0  0  0  0  0  0  0  0  0  0
    6.4050    1.4050    1.7120 C   0  0  0  0  0  0  0  0  0  0  0  0
    5.2230    2.1590    1.9770 C   0  0  0  0  0  0  0  0  0  0  0  0
    3.9750    1.1480    1.1970 S   0  0  0  0  0  0  0  0  0  0  0  0
    5.1700   -0.1550    0.6120 C   0  0  0  0  0  0  0  0  0  0  0  0
    4.7540   -1.3270   -0.1370 C   0  0  0  0  0  0  0  0  0  0  0  0
    5.8390   -2.1660   -0.4800 C   0  0  0  0  0  0  0  0  0  0  0  0
    5.5830   -3.3110   -1.1940 C   0  0  0  0  0  0  0  0  0  0  0  0
    4.3070   -3.6430   -1.5720 C   0  0  0  0  0  0  0  0  0  0  0  0
    3.3250   -2.8060   -1.2150 N   0  0  0  0  0  0  0  0  0  0  0  0
    3.5060   -1.6610   -0.5110 C   0  0  0  0  0  0  0  0  0  0  0  0
    2.3470   -0.9200   -0.2280 N   0  0  0  0  0  0  0  0  0  0  0  0
    1.0580   -1.3810   -0.6890 C   0  0  0  0  0  0  0  0  0  0  0  0
    0.9500   -2.4260   -1.3390 O   0  0  0  0  0  0  0  0  0  0  0  0
   -0.1080   -0.6140   -0.3860 N   0  0  0  0  0  0  0  0  0  0  0  0
   -1.4160   -1.0030   -0.8080 C   0  0  0  0  0  0  0  0  0  0  0  0
   -2.4470    0.0350   -0.3000 C   0  0  2  0  0  0  0  0  0  0  0  0
   -2.0670    1.3870   -0.8860 C   0  0  0  0  0  0  0  0  0  0  0  0
   -2.3040    0.0900    1.1870 C   0  0  0  0  0  0  0  0  0  0  0  0
   -3.8210   -0.3780   -0.7740 C   0  0  0  0  0  0  0  0  0  0  0  0
   -4.8220    0.5140   -0.3800 N   0  0  0  0  0  0  0  0  0  0  0  0
   -5.2280    0.6360    0.9500 C   0  0  0  0  0  0  0  0  0  0  0  0
   -6.5640    1.4020    0.8870 C   0  0  0  0  0  0  0  0  0  0  0  0
   -6.7070    1.7780   -0.5860 C   0  0  0  0  0  0  0  0  0  0  0  0
   -5.9830    0.5720   -1.2050 C   0  0  0  0  0  0  0  0  0  0  0  0
    6.1920    0.3170    1.0430 N   0  0  0  0  0  0  0  0  0  0  0  0
  1  2  1  0
  2  3  2  0
  2 26  1  0
  3  4  1  0
  4  5  1  0
  5  6  1  0
  5 26  2  0
  6  7  2  0
  6 11  1  0
  7  8  1  0
  8  9  2  0
  9 10  1  0
 10 11  2  0
 11 12  1  0
 12 13  1  0
 13 14  2  0
 13 15  1  0
 15 16  1  0
 16 17  1  0
 17 18  1  6
 17 19  1  0
 17 20  1  0
 20 21  1  0
 21 22  1  0
 21 25  1  0
 22 23  1  0
 23 24  1  0
 24 25  1  0
M  END
