
     RDKit          3D

 26 28  0  0  0  0  0  0  0  0999 V2000
   -4.4950   -3.0010    2.1390 C   0  0  0  0  0  0  0  0  0  0  0  0
   -4.4560   -2.6190    0.6970 C   0  0  0  0  0  0  0  0  0  0  0  0
   -3.5220   -1.5160    0.4120 C   0  0  0  0  0  0  0  0  0  0  0  0
   -3.8910   -0.2460    0.1710 N   0  0  0  0  0  0  0  0  0  0  0  0
   -2.8530    0.5170   -0.0500 N   0  0  0  0  0  0  0  0  0  0  0  0
   -2.9180    1.9310   -0.3350 C   0  0  0  0  0  0  0  0  0  0  0  0
   -3.9590    2.4340   -1.1070 C   0  0  0  0  0  0  0  0  0  0  0  0
   -4.0000    3.7900   -1.3620 C   0  0  0  0  0  0  0  0  0  0  0  0
   -3.0390    4.6230   -0.8670 C   0  0  0  0  0  0  0  0  0  0  0  0
   -2.0260    4.0820   -0.1070 C   0  0  0  0  0  0  0  0  0  0  0  0
   -2.0020    2.7690    0.1300 N   0  0  0  0  0  0  0  0  0  0  0  0
   -1.7650   -0.2600    0.0450 C   0  0  0  0  0  0  0  0  0  0  0  0
   -0.3520    0.1700   -0.1280 C   0  0  0  0  0  0  0  0  0  0  0  0
    0.3650    0.3200    1.1880 C   0  0  0  0  0  0  0  0  0  0  0  0
    1.7190    0.7290    0.9430 N   0  0  0  0  0  0  0  0  0  0  0  0
    2.6500   -0.0990    0.2100 C   0  0  0  0  0  0  0  0  0  0  0  0
    2.2360   -1.1860   -0.1930 O   0  0  0  0  0  0  0  0  0  0  0  0
    3.9640    0.3290   -0.0240 N   0  0  0  0  0  0  0  0  0  0  0  0
    4.9630   -0.4610   -0.7480 C   0  0  0  0  0  0  0  0  0  0  0  0
    4.7980   -1.6980   -1.2420 C   0  0  0  0  0  0  0  0  0  0  0  0
    5.7870   -2.3390   -1.8840 C   0  0  0  0  0  0  0  0  0  0  0  0
    7.1420   -1.1190   -1.8250 S   0  0  0  0  0  0  0  0  0  0  0  0
    6.2570    0.1010   -0.9610 C   0  0  0  0  0  0  0  0  0  0  0  0
    6.7170    1.4450   -0.5280 C   0  0  0  0  0  0  0  0  0  0  0  0
   -2.1330   -1.5540    0.3350 C   0  0  0  0  0  0  0  0  0  0  0  0
   -1.3180   -2.7750    0.5380 C   0  0  0  0  0  0  0  0  0  0  0  0
  1  2  1  0
  2  3  1  0
  3  4  2  0
  3 25  1  0
  4  5  1  0
  5  6  1  0
  5 12  1  0
  6  7  2  0
  6 11  1  0
  7  8  1  0
  8  9  2  0
  9 10  1  0
 10 11  2  0
 12 13  1  0
 12 25  2  0
 13 14  1  0
 14 15  1  0
 15 16  1  0
 16 17  2  0
 16 18  1  0
 18 19  1  0
 19 20  1  0
 19 23  2  0
 20 21  2  0
 21 22  1  0
 22 23  1  0
 23 24  1  0
 25 26  1  0
M  END
