
     RDKit          3D

 26 28  0  0  0  0  0  0  0  0999 V2000
   -5.2630    3.0410    1.5190 C   0  0  0  0  0  0  0  0  0  0  0  0
   -5.5810    1.9300    0.8790 C   0  0  0  0  0  0  0  0  0  0  0  0
   -4.6980    0.8400    0.7700 N   0  0  0  0  0  0  0  0  0  0  0  0
   -5.0100   -0.3920    1.4400 C   0  0  0  0  0  0  0  0  0  0  0  0
   -4.2780   -1.5750    0.8780 C   0  0  0  0  0  0  0  0  0  0  0  0
   -3.0010   -1.2960    0.3270 N   0  0  0  0  0  0  0  0  0  0  0  0
   -2.7880   -1.8180   -0.9920 C   0  0  0  0  0  0  0  0  0  0  0  0
   -1.4170   -1.4560   -1.4260 C   0  0  0  0  0  0  0  0  0  0  0  0
   -0.3820   -2.3040   -1.0420 C   0  0  0  0  0  0  0  0  0  0  0  0
    0.9280   -2.0720   -1.3860 C   0  0  0  0  0  0  0  0  0  0  0  0
    1.9300   -2.9900   -0.9590 N   0  0  0  0  0  0  0  0  0  0  0  0
    3.3260   -2.7380   -1.2410 C   0  0  0  0  0  0  0  0  0  0  0  0
    3.6780   -1.4910   -0.5390 C   0  0  0  0  0  0  0  0  0  0  0  0
    2.9830   -0.7310    0.3420 C   0  0  0  0  0  0  0  0  0  0  0  0
    3.5960    0.3410    0.7900 N   0  0  0  0  0  0  0  0  0  0  0  0
    4.6570    0.7330    0.5380 C   0  0  0  0  0  0  0  0  0  0  0  0
    5.5630    1.8630    0.8810 C   0  0  1  0  0  0  0  0  0  0  0  0
    4.8960    3.1590    0.4980 C   0  0  0  0  0  0  0  0  0  0  0  0
    5.7790    1.8080    2.3810 C   0  0  0  0  0  0  0  0  0  0  0  0
    5.2240   -0.6000   -0.6820 S   0  0  0  0  0  0  0  0  0  0  0  0
    1.2020   -0.9590   -2.1350 C   0  0  0  0  0  0  0  0  0  0  0  0
    0.1740   -0.1000   -2.5270 C   0  0  0  0  0  0  0  0  0  0  0  0
    0.4190    0.9230   -3.2140 O   0  0  0  0  0  0  0  0  0  0  0  0
   -1.1120   -0.3730   -2.1600 N   0  0  0  0  0  0  0  0  0  0  0  0
   -2.4850    0.0110    0.5640 C   0  0  0  0  0  0  0  0  0  0  0  0
   -3.4840    1.0100   -0.0310 C   0  0  0  0  0  0  0  0  0  0  0  0
  1  2  2  0
  2  3  1  0
  3  4  1  0
  3 26  1  0
  4  5  1  0
  5  6  1  0
  6  7  1  0
  6 25  1  0
  7  8  1  0
  8  9  2  0
  8 24  1  0
  9 10  1  0
 10 11  1  0
 10 21  2  0
 11 12  1  0
 12 13  1  0
 13 14  2  0
 13 20  1  0
 14 15  1  0
 15 16  2  0
 16 17  1  0
 16 20  1  0
 17 18  1  1
 17 19  1  0
 21 22  1  0
 22 23  2  0
 22 24  1  0
 25 26  1  0
M  END
