
     RDKit          3D

 26 28  0  0  0  0  0  0  0  0999 V2000
   -5.5560   -2.0790    1.9500 C   0  0  0  0  0  0  0  0  0  0  0  0
   -6.2550   -1.3290    0.8500 C   0  0  0  0  0  0  0  0  0  0  0  0
   -7.5830   -1.5060    0.5570 N   0  0  0  0  0  0  0  0  0  0  0  0
   -7.9360   -0.7360   -0.4730 C   0  0  0  0  0  0  0  0  0  0  0  0
   -6.8240   -0.0340   -0.8720 C   0  0  0  0  0  0  0  0  0  0  0  0
   -5.7920   -0.4190   -0.0350 C   0  0  0  0  0  0  0  0  0  0  0  0
   -4.4670    0.1530   -0.1550 C   0  0  0  0  0  0  0  0  0  0  0  0
   -4.1380    0.7540   -1.2470 O   0  0  0  0  0  0  0  0  0  0  0  0
   -3.4850    0.1160    0.8330 N   0  0  0  0  0  0  0  0  0  0  0  0
   -2.1910    0.6570    0.7170 C   0  0  0  0  0  0  0  0  0  0  0  0
   -1.5670    0.8940   -0.4760 C   0  0  0  0  0  0  0  0  0  0  0  0
   -0.2860    1.4670   -0.4380 C   0  0  0  0  0  0  0  0  0  0  0  0
    0.3800    1.8010    0.6950 C   0  0  0  0  0  0  0  0  0  0  0  0
    2.0070    2.4970    0.7980 S   0  0  0  0  0  0  0  0  0  0  0  0
    2.9010    2.5160   -0.7510 C   0  0  0  0  0  0  0  0  0  0  0  0
    3.3240    1.1360   -1.1000 C   0  0  0  0  0  0  0  0  0  0  0  0
    2.7060    0.2770   -1.9370 C   0  0  0  0  0  0  0  0  0  0  0  0
    3.2030   -0.9840   -2.1500 C   0  0  0  0  0  0  0  0  0  0  0  0
    4.3250   -1.3920   -1.5260 N   0  0  0  0  0  0  0  0  0  0  0  0
    4.9950   -0.5830   -0.6750 C   0  0  0  0  0  0  0  0  0  0  0  0
    6.1880   -1.0010   -0.0030 N   0  0  0  0  0  0  0  0  0  0  0  0
    6.2000   -1.6040    1.3050 C   0  0  0  0  0  0  0  0  0  0  0  0
    7.4280   -0.7710   -0.7530 C   0  0  0  0  0  0  0  0  0  0  0  0
    4.4980    0.6790   -0.4610 C   0  0  0  0  0  0  0  0  0  0  0  0
   -0.2690    1.5510    1.8720 N   0  0  0  0  0  0  0  0  0  0  0  0
   -1.4880    1.0090    1.8900 C   0  0  0  0  0  0  0  0  0  0  0  0
  1  2  1  0
  2  3  1  0
  2  6  2  0
  3  4  1  0
  4  5  2  0
  5  6  1  0
  6  7  1  0
  7  8  2  0
  7  9  1  0
  9 10  1  0
 10 11  2  0
 10 26  1  0
 11 12  1  0
 12 13  2  0
 13 14  1  0
 13 25  1  0
 14 15  1  0
 15 16  1  0
 16 17  2  0
 16 24  1  0
 17 18  1  0
 18 19  2  0
 19 20  1  0
 20 21  1  0
 20 24  2  0
 21 22  1  0
 21 23  1  0
 25 26  2  0
M  END
