
     RDKit          3D

 26 28  0  0  0  0  0  0  0  0999 V2000
   -6.0410   -2.7540    0.9210 C   0  0  0  0  0  0  0  0  0  0  0  0
   -5.9030   -1.3940    0.3720 C   0  0  0  0  0  0  0  0  0  0  0  0
   -6.8530   -0.4190    0.6930 C   0  0  0  0  0  0  0  0  0  0  0  0
   -6.7150    0.8290    0.1740 C   0  0  0  0  0  0  0  0  0  0  0  0
   -7.9360    2.0760    0.5770 S   0  0  0  0  0  0  0  0  0  0  0  0
   -5.6910    1.1160   -0.6270 N   0  0  0  0  0  0  0  0  0  0  0  0
   -4.7450    0.1690   -0.9550 C   0  0  0  0  0  0  0  0  0  0  0  0
   -3.6510    0.5750   -1.8590 C   0  0  0  0  0  0  0  0  0  0  0  0
   -2.4800    1.1080   -1.1180 C   0  0  0  0  0  0  0  0  0  0  0  0
   -1.8120    0.1910   -0.2430 N   0  0  0  0  0  0  0  0  0  0  0  0
   -0.7150    0.7450    0.5120 C   0  0  0  0  0  0  0  0  0  0  0  0
   -0.9090    1.9280    1.1840 C   0  0  0  0  0  0  0  0  0  0  0  0
    0.1760    2.4820    1.8420 C   0  0  0  0  0  0  0  0  0  0  0  0
    1.3960    1.8470    1.8050 C   0  0  0  0  0  0  0  0  0  0  0  0
    1.5990    0.6660    1.1350 C   0  0  0  0  0  0  0  0  0  0  0  0
    2.9210    0.0920    1.0910 N   0  0  0  0  0  0  0  0  0  0  0  0
    3.7090    0.2010   -0.0220 C   0  0  0  0  0  0  0  0  0  0  0  0
    4.8710   -0.4400    0.2990 C   0  0  0  0  0  0  0  0  0  0  0  0
    6.0890   -0.6150   -0.5530 C   0  0  1  0  0  0  0  0  0  0  0  0
    7.3350   -0.4880    0.2770 C   0  0  0  0  0  0  0  0  0  0  0  0
    5.9710   -1.9390   -1.2450 C   0  0  0  0  0  0  0  0  0  0  0  0
    6.0440    0.3790   -1.5440 O   0  0  0  0  0  0  0  0  0  0  0  0
    4.7540   -0.9130    1.5830 C   0  0  0  0  0  0  0  0  0  0  0  0
    3.5470   -0.5690    2.0380 N   0  0  0  0  0  0  0  0  0  0  0  0
    0.5200    0.1100    0.4800 C   0  0  0  0  0  0  0  0  0  0  0  0
   -4.8910   -1.0460   -0.4410 N   0  0  0  0  0  0  0  0  0  0  0  0
  1  2  1  0
  2  3  2  0
  2 26  1  0
  3  4  1  0
  4  5  1  0
  4  6  2  0
  6  7  1  0
  7  8  1  0
  7 26  2  0
  8  9  1  0
  9 10  1  0
 10 11  1  0
 11 12  2  0
 11 25  1  0
 12 13  1  0
 13 14  2  0
 14 15  1  0
 15 16  1  0
 15 25  2  0
 16 17  1  0
 16 24  1  0
 17 18  2  0
 18 19  1  0
 18 23  1  0
 19 20  1  1
 19 21  1  0
 19 22  1  0
 23 24  2  0
M  END
