
     RDKit          3D

 41 44  0  0  0  0  0  0  0  0999 V2000
   -7.3340    1.2570   -0.9390 C   0  0  0  0  0  0  0  0  0  0  0  0
   -7.2910    0.8990    0.5170 C   0  0  0  0  0  0  0  0  0  0  0  0
   -8.3900    0.4030    1.1600 C   0  0  0  0  0  0  0  0  0  0  0  0
   -8.2800   -0.0410    2.4640 C   0  0  0  0  0  0  0  0  0  0  0  0
   -7.0480    0.0250    3.0760 C   0  0  0  0  0  0  0  0  0  0  0  0
   -5.9480    0.5340    2.3890 C   0  0  0  0  0  0  0  0  0  0  0  0
   -6.0220    0.9820    1.1180 C   0  0  0  0  0  0  0  0  0  0  0  0
   -5.0050    1.7760    0.4470 C   0  0  0  0  0  0  0  0  0  0  0  0
   -3.8640    1.2740   -0.1430 N   0  0  0  0  0  0  0  0  0  0  0  0
   -2.8310    0.3910    0.1640 C   0  0  0  0  0  0  0  0  0  0  0  0
   -2.8450   -0.1340    1.2980 O   0  0  0  0  0  0  0  0  0  0  0  0
   -1.7680    0.1190   -0.8700 C   0  0  1  0  0  0  0  0  0  0  0  0
   -0.5910   -0.5080   -0.3070 N   0  0  0  0  0  0  0  0  0  0  0  0
    0.6280    0.1470    0.0290 C   0  0  0  0  0  0  0  0  0  0  0  0
    0.7740    1.3480   -0.2520 O   0  0  0  0  0  0  0  0  0  0  0  0
    1.7710   -0.5370    0.7170 C   0  0  1  0  0  0  0  0  0  0  0  0
    1.2530   -1.7190    1.3060 O   0  0  0  0  0  0  0  0  0  0  0  0
    2.7970   -0.8280   -0.2790 C   0  0  2  0  0  0  0  0  0  0  0  0
    3.8630   -1.8440    0.0600 C   0  0  0  0  0  0  0  0  0  0  0  0
    3.3930   -3.1930    0.3610 C   0  0  0  0  0  0  0  0  0  0  0  0
    3.1700   -4.1400   -0.6320 C   0  0  0  0  0  0  0  0  0  0  0  0
    2.7530   -5.4270   -0.3440 C   0  0  0  0  0  0  0  0  0  0  0  0
    2.5450   -5.7990    0.9600 C   0  0  0  0  0  0  0  0  0  0  0  0
    2.7570   -4.8780    1.9790 C   0  0  0  0  0  0  0  0  0  0  0  0
    3.1770   -3.5890    1.6740 C   0  0  0  0  0  0  0  0  0  0  0  0
    3.5130    0.3370   -0.8300 N   0  0  0  0  0  0  0  0  0  0  0  0
    4.3870    1.0540    0.0140 C   0  0  0  0  0  0  0  0  0  0  0  0
    4.4530    0.6740    1.2500 O   0  0  0  0  0  0  0  0  0  0  0  0
    5.2510    2.1760   -0.3020 C   0  0  0  0  0  0  0  0  0  0  0  0
    6.0490    2.1300   -1.4240 C   0  0  0  0  0  0  0  0  0  0  0  0
    6.9660    3.1020   -1.7310 C   0  0  0  0  0  0  0  0  0  0  0  0
    7.1040    4.1810   -0.8740 C   0  0  0  0  0  0  0  0  0  0  0  0
    6.3250    4.2660    0.2590 C   0  0  0  0  0  0  0  0  0  0  0  0
    6.4920    5.3380    1.0990 O   0  0  0  0  0  0  0  0  0  0  0  0
    5.4080    3.2800    0.5390 C   0  0  0  0  0  0  0  0  0  0  0  0
    4.5150    3.2790    1.7420 C   0  0  0  0  0  0  0  0  0  0  0  0
   -0.7800   -1.9420   -0.1780 C   0  0  0  0  0  0  0  0  0  0  0  0
   -1.6770   -2.3010   -1.7390 S   0  0  0  0  0  0  0  0  0  0  0  0
   -2.1920   -0.5510   -2.0930 C   0  0  2  0  0  0  0  0  0  0  0  0
   -1.3920   -0.0600   -3.2890 C   0  0  0  0  0  0  0  0  0  0  0  0
   -3.6230   -0.6730   -2.4550 C   0  0  0  0  0  0  0  0  0  0  0  0
  1  2  1  0
  2  3  2  0
  2  7  1  0
  3  4  1  0
  4  5  2  0
  5  6  1  0
  6  7  2  0
  7  8  1  0
  8  9  1  0
  9 10  1  0
 10 11  2  0
 12 10  1  1
 12 13  1  0
 12 39  1  0
 13 14  1  0
 13 37  1  0
 14 15  2  0
 14 16  1  0
 16 17  1  6
 16 18  1  0
 18 19  1  1
 18 26  1  0
 19 20  1  0
 20 21  2  0
 20 25  1  0
 21 22  1  0
 22 23  2  0
 23 24  1  0
 24 25  2  0
 26 27  1  0
 27 28  2  0
 27 29  1  0
 29 30  2  0
 29 35  1  0
 30 31  1  0
 31 32  2  0
 32 33  1  0
 33 34  1  0
 33 35  2  0
 35 36  1  0
 37 38  1  0
 38 39  1  0
 39 40  1  6
 39 41  1  0
M  END
