
     RDKit          3D

 46 50  0  0  0  0  0  0  0  0999 V2000
    8.4390    3.0330   -5.1880 C   0  0  0  0  0  0  0  0  0  0  0  0
    7.2970    3.2330   -4.4160 O   0  0  0  0  0  0  0  0  0  0  0  0
    6.9460    2.4940   -3.3090 C   0  0  0  0  0  0  0  0  0  0  0  0
    7.7530    1.4470   -2.8790 C   0  0  0  0  0  0  0  0  0  0  0  0
    7.4270    0.6920   -1.7730 C   0  0  0  0  0  0  0  0  0  0  0  0
    6.2570    1.0090   -1.0910 C   0  0  0  0  0  0  0  0  0  0  0  0
    5.9400    0.2490    0.0150 O   0  0  0  0  0  0  0  0  0  0  0  0
    6.7530   -0.8060    0.4580 C   0  0  0  0  0  0  0  0  0  0  0  0
    5.4410    2.0270   -1.4830 C   0  0  0  0  0  0  0  0  0  0  0  0
    4.2880    2.3720   -0.8400 O   0  0  0  0  0  0  0  0  0  0  0  0
    3.2170    1.5410   -0.6450 C   0  0  0  0  0  0  0  0  0  0  0  0
    2.2170    1.2980   -1.5780 C   0  0  0  0  0  0  0  0  0  0  0  0
    1.1560    0.4490   -1.3170 C   0  0  0  0  0  0  0  0  0  0  0  0
    1.0370   -0.1960   -0.1290 C   0  0  0  0  0  0  0  0  0  0  0  0
   -0.0700   -1.0640    0.2520 C   0  0  0  0  0  0  0  0  0  0  0  0
   -0.9880   -0.5560    1.1750 C   0  0  0  0  0  0  0  0  0  0  0  0
   -1.0920    0.6100    1.8690 C   0  0  0  0  0  0  0  0  0  0  0  0
   -0.2910    1.5650    1.7900 O   0  0  0  0  0  0  0  0  0  0  0  0
   -2.1970    0.5390    2.6380 N   0  0  0  0  0  0  0  0  0  0  0  0
   -2.6150    1.6250    3.5310 C   0  0  0  0  0  0  0  0  0  0  0  0
   -3.5150    2.5630    2.8660 C   0  0  0  0  0  0  0  0  0  0  0  0
   -4.7580    2.3640    2.9620 O   0  0  0  0  0  0  0  0  0  0  0  0
   -3.0790    3.6810    2.1180 N   0  0  0  0  0  0  0  0  0  0  0  0
   -4.0710    4.5300    1.5110 C   0  0  2  0  0  0  0  0  0  0  0  0
   -4.8870    3.6580    0.5560 C   0  0  0  0  0  0  0  0  0  0  0  0
   -3.4660    5.7030    0.7690 C   0  0  0  0  0  0  0  0  0  0  0  0
   -4.9060    5.0830    2.5860 C   0  0  0  0  0  0  0  0  0  0  0  0
   -5.5730    5.5030    3.4390 N   0  0  0  0  0  0  0  0  0  0  0  0
   -2.7900   -0.6140    2.4580 N   0  0  0  0  0  0  0  0  0  0  0  0
   -2.1140   -1.3690    1.5640 C   0  0  0  0  0  0  0  0  0  0  0  0
   -2.3210   -2.6170    1.0650 N   0  0  0  0  0  0  0  0  0  0  0  0
   -3.4850   -3.3610    1.4950 C   0  0  0  0  0  0  0  0  0  0  0  0
   -4.6880   -3.0720    0.6260 C   0  0  1  0  0  0  0  0  0  0  0  0
   -4.5370   -3.3920   -0.7000 O   0  0  0  0  0  0  0  0  0  0  0  0
   -5.9460   -3.6190    1.2570 C   0  0  0  0  0  0  0  0  0  0  0  0
   -5.9060   -5.3980    1.5190 S   0  0  0  0  0  0  0  0  0  0  0  0
   -5.8760   -6.3220   -0.0250 C   0  0  0  0  0  0  0  0  0  0  0  0
   -1.4220   -3.0780    0.1810 C   0  0  0  0  0  0  0  0  0  0  0  0
   -1.5920   -4.3430   -0.3460 C   0  0  0  0  0  0  0  0  0  0  0  0
   -0.6860   -4.8470   -1.2520 C   0  0  0  0  0  0  0  0  0  0  0  0
    0.3930   -4.0850   -1.6330 C   0  0  0  0  0  0  0  0  0  0  0  0
    0.5990   -2.8240   -1.1330 C   0  0  0  0  0  0  0  0  0  0  0  0
   -0.3100   -2.3230   -0.2270 C   0  0  0  0  0  0  0  0  0  0  0  0
    2.0380    0.0440    0.8090 C   0  0  0  0  0  0  0  0  0  0  0  0
    3.0900    0.8820    0.5600 C   0  0  0  0  0  0  0  0  0  0  0  0
    5.7850    2.7950   -2.6200 C   0  0  0  0  0  0  0  0  0  0  0  0
  1  2  1  0
  2  3  1  0
  3  4  2  0
  3 46  1  0
  4  5  1  0
  5  6  2  0
  6  7  1  0
  6  9  1  0
  7  8  1  0
  9 10  1  0
  9 46  2  0
 10 11  1  0
 11 12  2  0
 11 45  1  0
 12 13  1  0
 13 14  2  0
 14 15  1  0
 14 44  1  0
 15 16  2  0
 15 43  1  0
 16 17  1  0
 16 30  1  0
 17 18  2  0
 17 19  1  0
 19 20  1  0
 19 29  1  0
 20 21  1  0
 21 22  2  0
 21 23  1  0
 23 24  1  0
 24 25  1  6
 24 26  1  0
 24 27  1  0
 27 28  3  0
 29 30  2  0
 30 31  1  0
 31 32  1  0
 31 38  1  0
 32 33  1  0
 33 34  1  6
 33 35  1  0
 35 36  1  0
 36 37  1  0
 38 39  2  0
 38 43  1  0
 39 40  1  0
 40 41  2  0
 41 42  1  0
 42 43  2  0
 44 45  2  0
M  END
