
     RDKit          3D

 46 50  0  0  0  0  0  0  0  0999 V2000
   10.7130    0.2730   -1.9430 C   0  0  0  0  0  0  0  0  0  0  0  0
   10.6810    1.6410   -1.3090 C   0  0  0  0  0  0  0  0  0  0  0  0
   10.2240    1.5540    0.0160 O   0  0  0  0  0  0  0  0  0  0  0  0
    8.9720    1.0810    0.3340 C   0  0  0  0  0  0  0  0  0  0  0  0
    8.0240    0.6490   -0.5430 C   0  0  0  0  0  0  0  0  0  0  0  0
    6.7700    0.1810   -0.1330 C   0  0  0  0  0  0  0  0  0  0  0  0
    6.4540    0.1450    1.2080 C   0  0  0  0  0  0  0  0  0  0  0  0
    5.1460   -0.3410    1.6840 C   0  0  1  0  0  0  0  0  0  0  0  0
    4.0300    0.5450    1.2110 C   0  0  0  0  0  0  0  0  0  0  0  0
    4.0010    1.7910    1.3720 O   0  0  0  0  0  0  0  0  0  0  0  0
    3.0420   -0.2510    0.5680 N   0  0  0  0  0  0  0  0  0  0  0  0
    1.9710    0.2730   -0.1860 C   0  0  0  0  0  0  0  0  0  0  0  0
    0.7410   -0.3410   -0.3050 C   0  0  0  0  0  0  0  0  0  0  0  0
   -0.2860    0.2130   -1.0580 C   0  0  0  0  0  0  0  0  0  0  0  0
   -0.1190    1.3990   -1.7180 C   0  0  0  0  0  0  0  0  0  0  0  0
   -1.2430    1.9610   -2.5160 C   0  0  0  0  0  0  0  0  0  0  0  0
   -2.4120    1.1360   -2.5100 N   0  0  0  0  0  0  0  0  0  0  0  0
   -2.7280    0.1030   -3.4230 C   0  0  0  0  0  0  0  0  0  0  0  0
   -2.0510   -0.2910   -4.4050 O   0  0  0  0  0  0  0  0  0  0  0  0
   -4.0270   -0.4670   -3.0350 C   0  0  0  0  0  0  0  0  0  0  0  0
   -4.8180   -1.4720   -3.5420 C   0  0  0  0  0  0  0  0  0  0  0  0
   -6.0230   -1.8150   -2.9770 C   0  0  0  0  0  0  0  0  0  0  0  0
   -6.5160   -1.1530   -1.8390 C   0  0  0  0  0  0  0  0  0  0  0  0
   -7.7630   -1.5450   -1.3200 N   0  0  0  0  0  0  0  0  0  0  0  0
   -8.3610   -1.1730   -0.1030 C   0  0  0  0  0  0  0  0  0  0  0  0
   -7.7220   -0.4070    0.6370 O   0  0  0  0  0  0  0  0  0  0  0  0
   -9.6300   -1.6170    0.3190 N   0  0  0  0  0  0  0  0  0  0  0  0
  -10.3370   -1.2970    1.5140 C   0  0  0  0  0  0  0  0  0  0  0  0
  -10.7910    0.0710    1.7760 C   0  0  1  0  0  0  0  0  0  0  0  0
   -9.7600    1.1290    1.8820 C   0  0  0  0  0  0  0  0  0  0  0  0
  -11.9340    0.4970    0.8450 C   0  0  0  0  0  0  0  0  0  0  0  0
  -12.9730   -0.3990    1.0780 O   0  0  0  0  0  0  0  0  0  0  0  0
   -5.7220   -0.1610   -1.3470 C   0  0  0  0  0  0  0  0  0  0  0  0
   -4.4900    0.1930   -1.9230 C   0  0  0  0  0  0  0  0  0  0  0  0
   -3.4850    1.1960   -1.5900 C   0  0  0  0  0  0  0  0  0  0  0  0
   -3.6110    1.9840   -0.6030 O   0  0  0  0  0  0  0  0  0  0  0  0
    1.0970    2.0310   -1.6150 C   0  0  0  0  0  0  0  0  0  0  0  0
    2.1190    1.4850   -0.8690 C   0  0  0  0  0  0  0  0  0  0  0  0
    3.3570   -1.5920    0.8350 C   0  0  0  0  0  0  0  0  0  0  0  0
    2.5860   -2.5630    0.8020 O   0  0  0  0  0  0  0  0  0  0  0  0
    4.8160   -1.7080    1.1830 C   0  0  2  0  0  0  0  0  0  0  0  0
    4.9760   -3.0030    2.4200 S   0  0  0  0  0  0  0  0  0  0  0  0
    6.7490   -3.1320    2.8520 C   0  0  0  0  0  0  0  0  0  0  0  0
    7.4100    0.5790    2.0790 C   0  0  0  0  0  0  0  0  0  0  0  0
    8.6430    1.0400    1.6920 C   0  0  0  0  0  0  0  0  0  0  0  0
    9.6270    1.4970    2.7170 C   0  0  0  0  0  0  0  0  0  0  0  0
  1  2  1  0
  2  3  1  0
  3  4  1  0
  4  5  2  0
  4 45  1  0
  5  6  1  0
  6  7  2  0
  8  7  1  6
  7 44  1  0
  8  9  1  0
  8 41  1  0
  9 10  2  0
  9 11  1  0
 11 12  1  0
 11 39  1  0
 12 13  2  0
 12 38  1  0
 13 14  1  0
 14 15  2  0
 15 16  1  0
 15 37  1  0
 16 17  1  0
 17 18  1  0
 17 35  1  0
 18 19  2  0
 18 20  1  0
 20 21  2  0
 20 34  1  0
 21 22  1  0
 22 23  2  0
 23 24  1  0
 23 33  1  0
 24 25  1  0
 25 26  2  0
 25 27  1  0
 27 28  1  0
 28 29  1  0
 29 30  1  6
 29 31  1  0
 31 32  1  0
 33 34  2  0
 34 35  1  0
 35 36  2  0
 37 38  2  0
 39 40  2  0
 39 41  1  0
 41 42  1  1
 42 43  1  0
 44 45  2  0
 45 46  1  0
M  END
