
     RDKit          3D

 46 50  0  0  0  0  0  0  0  0999 V2000
    8.2060   -4.0590   -2.6700 C   0  0  0  0  0  0  0  0  0  0  0  0
    8.2130   -4.2370   -1.1690 C   0  0  0  0  0  0  0  0  0  0  0  0
    7.0910   -3.7280   -0.5220 O   0  0  0  0  0  0  0  0  0  0  0  0
    5.8260   -4.2400   -0.7890 C   0  0  0  0  0  0  0  0  0  0  0  0
    5.6040   -5.2700   -1.6730 C   0  0  0  0  0  0  0  0  0  0  0  0
    4.3200   -5.7120   -1.8800 C   0  0  0  0  0  0  0  0  0  0  0  0
    3.2830   -5.1530   -1.2310 N   0  0  0  0  0  0  0  0  0  0  0  0
    3.4290   -4.1460   -0.3560 C   0  0  0  0  0  0  0  0  0  0  0  0
    2.3370   -3.5730    0.3140 O   0  0  0  0  0  0  0  0  0  0  0  0
    1.7070   -2.5430   -0.3640 C   0  0  0  0  0  0  0  0  0  0  0  0
    2.0840   -2.1500   -1.5000 O   0  0  0  0  0  0  0  0  0  0  0  0
    0.5430   -1.8350    0.2150 C   0  0  0  0  0  0  0  0  0  0  0  0
    0.8200   -0.7220    0.9840 C   0  0  0  0  0  0  0  0  0  0  0  0
    2.0080   -0.1440    1.3120 N   0  0  0  0  0  0  0  0  0  0  0  0
    2.9510    0.5000    1.4850 C   0  0  0  0  0  0  0  0  0  0  0  0
    3.1250    1.8580    0.9290 C   0  0  0  0  0  0  0  0  0  0  0  0
    4.2670    2.5760    1.1700 C   0  0  0  0  0  0  0  0  0  0  0  0
    4.4540    3.8310    0.6460 C   0  0  0  0  0  0  0  0  0  0  0  0
    3.4990    4.4310   -0.1520 C   0  0  0  0  0  0  0  0  0  0  0  0
    3.7010    5.7890   -0.7330 C   0  0  0  0  0  0  0  0  0  0  0  0
    4.1530    5.7190   -2.0480 O   0  0  0  0  0  0  0  0  0  0  0  0
    5.3560    5.0370   -2.0640 C   0  0  0  0  0  0  0  0  0  0  0  0
    2.3560    3.6850   -0.3800 C   0  0  0  0  0  0  0  0  0  0  0  0
    2.1480    2.4260    0.1360 C   0  0  0  0  0  0  0  0  0  0  0  0
   -0.7950   -0.1210    1.5230 S   0  0  0  0  0  0  0  0  0  0  0  0
   -1.6710   -1.4270    0.6590 C   0  0  0  0  0  0  0  0  0  0  0  0
   -3.1760   -1.6120    0.6440 C   0  0  0  0  0  0  0  0  0  0  0  0
   -3.8250   -0.5780    1.3980 N   0  0  0  0  0  0  0  0  0  0  0  0
   -4.1210   -0.7650    2.7990 C   0  0  0  0  0  0  0  0  0  0  0  0
   -5.4040   -1.4500    3.0940 C   0  0  2  0  0  0  0  0  0  0  0  0
   -6.6580   -0.7360    2.7490 C   0  0  0  0  0  0  0  0  0  0  0  0
   -6.8110    0.2720    3.8570 C   0  0  0  0  0  0  0  0  0  0  0  0
   -6.0110   -0.3610    4.9660 C   0  0  0  0  0  0  0  0  0  0  0  0
   -5.5270   -1.5560    4.4960 O   0  0  0  0  0  0  0  0  0  0  0  0
   -4.2060    0.6260    0.7640 C   0  0  0  0  0  0  0  0  0  0  0  0
   -4.7880    1.5000    1.4950 O   0  0  0  0  0  0  0  0  0  0  0  0
   -3.9900    0.9490   -0.6380 C   0  0  0  0  0  0  0  0  0  0  0  0
   -3.3940    0.1590   -1.3900 O   0  0  0  0  0  0  0  0  0  0  0  0
   -4.4550    2.1640   -1.1730 N   0  0  0  0  0  0  0  0  0  0  0  0
   -4.2580    2.5250   -2.5860 C   0  0  2  0  0  0  0  0  0  0  0  0
   -4.2970    4.0180   -2.8640 C   0  0  0  0  0  0  0  0  0  0  0  0
   -5.4400    3.1610   -3.2850 C   0  0  2  0  0  0  0  0  0  0  0  0
   -6.7400    3.2770   -2.5120 C   0  0  0  0  0  0  0  0  0  0  0  0
   -0.7180   -2.1840    0.0560 C   0  0  0  0  0  0  0  0  0  0  0  0
   -1.1600   -3.3850   -0.7660 C   0  0  0  0  0  0  0  0  0  0  0  0
    4.7090   -3.6990   -0.1450 C   0  0  0  0  0  0  0  0  0  0  0  0
  1  2  1  0
  2  3  1  0
  3  4  1  0
  4  5  2  0
  4 46  1  0
  5  6  1  0
  6  7  2  0
  7  8  1  0
  8  9  1  0
  8 46  2  0
  9 10  1  0
 10 11  2  0
 10 12  1  0
 12 13  2  0
 12 44  1  0
 13 14  1  0
 13 25  1  0
 14 15  2  3
 15 16  1  0
 16 17  2  0
 16 24  1  0
 17 18  1  0
 18 19  2  0
 19 20  1  0
 19 23  1  0
 20 21  1  0
 21 22  1  0
 23 24  2  0
 25 26  1  0
 26 27  1  0
 26 44  2  0
 27 28  1  0
 28 29  1  0
 28 35  1  0
 30 29  1  1
 30 31  1  0
 30 34  1  0
 31 32  1  0
 32 33  1  0
 33 34  1  0
 35 36  2  0
 35 37  1  0
 37 38  2  0
 37 39  1  0
 40 39  1  1
 40 41  1  0
 40 42  1  0
 41 42  1  0
 42 43  1  1
 44 45  1  0
M  END
