
     RDKit          3D

 46 51  0  0  0  0  0  0  0  0999 V2000
   -1.6270   -2.0290   -2.4850 C   0  0  0  0  0  0  0  0  0  0  0  0
   -2.7830   -1.9260   -1.5100 C   0  0  0  0  0  0  0  0  0  0  0  0
   -2.8460   -1.0660   -0.5390 C   0  0  0  0  0  0  0  0  0  0  0  0
   -1.8460   -0.0800   -0.2380 C   0  0  0  0  0  0  0  0  0  0  0  0
   -2.0110    0.5060    0.9550 O   0  0  0  0  0  0  0  0  0  0  0  0
   -0.6850    0.4820   -0.8680 C   0  0  0  0  0  0  0  0  0  0  0  0
   -0.4920    0.6900   -2.2100 C   0  0  0  0  0  0  0  0  0  0  0  0
    0.6750    1.1170   -2.7440 N   0  0  0  0  0  0  0  0  0  0  0  0
    1.7290    1.3680   -1.9710 C   0  0  0  0  0  0  0  0  0  0  0  0
    2.8010    1.7640   -2.4980 O   0  0  0  0  0  0  0  0  0  0  0  0
    1.6670    1.1990   -0.5650 C   0  0  0  0  0  0  0  0  0  0  0  0
    2.7330    1.4660    0.1180 O   0  0  0  0  0  0  0  0  0  0  0  0
    3.7960    1.7310    0.8000 C   0  0  0  0  0  0  0  0  0  0  0  0
    4.2790    0.4830    1.5830 C   0  0  0  0  0  0  0  0  0  0  0  0
    5.7960    0.8650    2.5150 S   0  0  0  0  0  0  0  0  0  0  0  0
    7.1270    1.1860    1.3340 C   0  0  0  0  0  0  0  0  0  0  0  0
    7.5040    2.3380    0.7820 N   0  0  0  0  0  0  0  0  0  0  0  0
    8.5370    2.1410   -0.0650 C   0  0  0  0  0  0  0  0  0  0  0  0
    9.2560    3.1460   -0.8840 C   0  0  0  0  0  0  0  0  0  0  0  0
    8.7930    0.7890   -0.0160 C   0  0  0  0  0  0  0  0  0  0  0  0
    7.9320    0.2100    0.8370 N   0  0  0  0  0  0  0  0  0  0  0  0
    7.7910   -1.1780    1.2290 C   0  0  0  0  0  0  0  0  0  0  0  0
    9.1070   -1.9120    1.1910 C   0  0  0  0  0  0  0  0  0  0  0  0
   10.2390   -0.9290    1.4200 C   0  0  0  0  0  0  0  0  0  0  0  0
   10.8720   -0.4920    0.1400 C   0  0  0  0  0  0  0  0  0  0  0  0
    9.8560    0.1090   -0.8020 C   0  0  0  0  0  0  0  0  0  0  0  0
    0.4540    0.7620   -0.0810 C   0  0  0  0  0  0  0  0  0  0  0  0
   -4.0930   -0.9140    0.3440 C   0  0  1  0  0  0  0  0  0  0  0  0
   -4.8170    0.3180   -0.0920 C   0  0  0  0  0  0  0  0  0  0  0  0
   -5.4590    0.3500   -1.3130 C   0  0  0  0  0  0  0  0  0  0  0  0
   -6.1540    1.4920   -1.7270 C   0  0  0  0  0  0  0  0  0  0  0  0
   -6.2070    2.6070   -0.9170 C   0  0  0  0  0  0  0  0  0  0  0  0
   -6.9580    3.8290   -1.3830 C   0  0  0  0  0  0  0  0  0  0  0  0
   -8.2920    3.7840   -1.0140 O   0  0  0  0  0  0  0  0  0  0  0  0
   -5.5790    2.5830    0.2860 C   0  0  0  0  0  0  0  0  0  0  0  0
   -4.8890    1.4370    0.6890 C   0  0  0  0  0  0  0  0  0  0  0  0
   -4.9470   -2.0500    0.3400 N   0  0  0  0  0  0  0  0  0  0  0  0
   -5.8990   -2.2640    1.4410 C   0  0  0  0  0  0  0  0  0  0  0  0
   -7.2240   -1.6020    1.1380 C   0  0  2  0  0  0  0  0  0  0  0  0
   -8.1780   -2.0170    2.2330 C   0  0  0  0  0  0  0  0  0  0  0  0
   -9.5100   -1.9630    1.5610 C   0  0  0  0  0  0  0  0  0  0  0  0
   -9.1710   -2.0120    0.0980 C   0  0  0  0  0  0  0  0  0  0  0  0
   -7.8080   -2.0890   -0.0170 O   0  0  0  0  0  0  0  0  0  0  0  0
   -4.8680   -2.9640   -0.7350 C   0  0  0  0  0  0  0  0  0  0  0  0
   -5.7870   -3.8370   -0.8520 O   0  0  0  0  0  0  0  0  0  0  0  0
   -3.8150   -2.9260   -1.6550 N   0  0  0  0  0  0  0  0  0  0  0  0
  1  2  1  0
  2  3  2  0
  2 46  1  0
  3  4  1  0
  3 28  1  0
  4  5  2  0
  4  6  1  0
  6  7  2  0
  6 27  1  0
  7  8  1  0
  8  9  1  0
  9 10  2  0
  9 11  1  0
 11 12  1  0
 11 27  2  0
 12 13  1  0
 13 14  1  0
 14 15  1  0
 15 16  1  0
 16 17  2  0
 16 21  1  0
 17 18  1  0
 18 19  1  0
 18 20  2  0
 20 21  1  0
 20 26  1  0
 21 22  1  0
 22 23  1  0
 23 24  1  0
 24 25  1  0
 25 26  1  0
 28 29  1  6
 28 37  1  0
 29 30  2  0
 29 36  1  0
 30 31  1  0
 31 32  2  0
 32 33  1  0
 32 35  1  0
 33 34  1  0
 35 36  2  0
 37 38  1  0
 37 44  1  0
 39 38  1  1
 39 40  1  0
 39 43  1  0
 40 41  1  0
 41 42  1  0
 42 43  1  0
 44 45  2  0
 44 46  1  0
M  END
