
     RDKit          3D

 26 29  0  0  0  0  0  0  0  0999 V2000
   -3.9070    4.2460   -0.0620 N   0  0  0  0  0  0  0  0  0  0  0  0
   -4.2450    3.1910    0.1680 C   0  0  0  0  0  0  0  0  0  0  0  0
   -4.6850    1.7860    0.5000 C   0  0  0  0  0  0  0  0  0  0  0  0
   -3.4490    0.9690    0.6370 C   0  0  0  0  0  0  0  0  0  0  0  0
   -2.2460    1.5380    0.9080 N   0  0  0  0  0  0  0  0  0  0  0  0
   -1.3200    0.5410    0.9570 C   0  0  0  0  0  0  0  0  0  0  0  0
    0.1210    0.7670    1.2250 C   0  0  1  0  0  0  0  0  0  0  0  0
    0.8300   -0.4630    1.5310 C   0  0  0  0  0  0  0  0  0  0  0  0
    2.2240   -0.6110    1.0060 C   0  0  0  0  0  0  0  0  0  0  0  0
    2.5910    0.1880   -0.0990 N   0  0  0  0  0  0  0  0  0  0  0  0
    3.7600    0.9880    0.1190 C   0  0  0  0  0  0  0  0  0  0  0  0
    4.9360    0.0710    0.2000 C   0  0  0  0  0  0  0  0  0  0  0  0
    5.7040   -0.1370    1.2080 N   0  0  0  0  0  0  0  0  0  0  0  0
    6.7420   -1.0910    0.9250 C   0  0  0  0  0  0  0  0  0  0  0  0
    6.4920   -1.4590   -0.4820 C   0  0  0  0  0  0  0  0  0  0  0  0
    5.4410   -0.7770   -0.8860 C   0  0  0  0  0  0  0  0  0  0  0  0
    1.5540    0.7940   -0.8320 C   0  0  0  0  0  0  0  0  0  0  0  0
    0.6380    1.5750    0.0590 C   0  0  0  0  0  0  0  0  0  0  0  0
   -1.9470   -0.6010    0.7240 N   0  0  0  0  0  0  0  0  0  0  0  0
   -3.2930   -0.3660    0.5170 C   0  0  0  0  0  0  0  0  0  0  0  0
   -4.2840   -1.4210    0.2100 C   0  0  0  0  0  0  0  0  0  0  0  0
   -4.5900   -1.5420   -1.1850 N   0  0  0  0  0  0  0  0  0  0  0  0
   -5.5590   -0.9550   -1.8680 C   0  0  0  0  0  0  0  0  0  0  0  0
   -5.4500   -1.3510   -3.1600 N   0  0  0  0  0  0  0  0  0  0  0  0
   -4.4410   -2.1610   -3.2650 N   0  0  0  0  0  0  0  0  0  0  0  0
   -3.8910   -2.2950   -2.0520 C   0  0  0  0  0  0  0  0  0  0  0  0
  1  2  3  0
  2  3  1  0
  3  4  1  0
  4  5  1  0
  4 20  2  0
  5  6  1  0
  7  6  1  6
  6 19  2  0
  7  8  1  0
  7 18  1  0
  8  9  1  0
  9 10  1  0
 10 11  1  0
 10 17  1  0
 11 12  1  0
 12 13  2  0
 12 16  1  0
 13 14  1  0
 14 15  1  0
 15 16  2  0
 17 18  1  0
 19 20  1  0
 20 21  1  0
 21 22  1  0
 22 23  1  0
 22 26  1  0
 23 24  2  0
 24 25  1  0
 25 26  2  0
M  CHG  1  19   1
M  END
