
     RDKit          3D

 26 28  0  0  0  0  0  0  0  0999 V2000
   -4.8070   -0.0430    2.7700 C   0  0  0  0  0  0  0  0  0  0  0  0
   -5.0460   -0.1730    1.5100 C   0  0  0  0  0  0  0  0  0  0  0  0
   -4.1970   -0.1890    0.3750 C   0  0  0  0  0  0  0  0  0  0  0  0
   -4.8160   -0.4000   -0.8110 C   0  0  0  0  0  0  0  0  0  0  0  0
   -4.1530   -0.4550   -2.0940 C   0  0  0  0  0  0  0  0  0  0  0  0
   -2.7970   -0.0750    0.3400 N   0  0  0  0  0  0  0  0  0  0  0  0
   -2.0170   -0.5900   -0.6600 N   0  0  0  0  0  0  0  0  0  0  0  0
   -0.7320   -0.2700   -0.4940 C   0  0  0  0  0  0  0  0  0  0  0  0
    0.4230   -0.6270   -1.3080 C   0  0  0  0  0  0  0  0  0  0  0  0
    1.7230   -0.3100   -1.0840 C   0  0  0  0  0  0  0  0  0  0  0  0
    2.2930    0.4460   -0.0320 N   0  0  0  0  0  0  0  0  0  0  0  0
    2.7210   -0.2230    1.2070 C   0  0  0  0  0  0  0  0  0  0  0  0
    3.2500    0.8570    2.1330 C   0  0  0  0  0  0  0  0  0  0  0  0
    4.3120    1.6000    1.5330 N   0  0  0  0  0  0  0  0  0  0  0  0
    5.5490    0.8900    1.4090 C   0  0  0  0  0  0  0  0  0  0  0  0
    3.9310    2.2380    0.2890 C   0  0  0  0  0  0  0  0  0  0  0  0
    2.5120    1.8730   -0.0960 C   0  0  0  0  0  0  0  0  0  0  0  0
    2.5020   -0.8490   -2.0790 N   0  0  0  0  0  0  0  0  0  0  0  0
    1.6780   -1.4910   -2.9040 C   0  0  0  0  0  0  0  0  0  0  0  0
    0.4040   -1.3530   -2.4290 N   0  0  0  0  0  0  0  0  0  0  0  0
   -0.7340   -1.9380   -3.1340 C   0  0  0  0  0  0  0  0  0  0  0  0
   -1.0830   -3.3050   -2.6580 C   0  0  0  0  0  0  0  0  0  0  0  0
   -0.6740    0.4550    0.6140 N   0  0  0  0  0  0  0  0  0  0  0  0
   -1.9370    0.5790    1.1270 C   0  0  0  0  0  0  0  0  0  0  0  0
   -2.2020    1.2790    2.1660 N   0  0  0  0  0  0  0  0  0  0  0  0
   -1.2460    1.9580    2.9740 C   0  0  0  0  0  0  0  0  0  0  0  0
  1  2  2  0
  2  3  1  0
  3  4  2  3
  3  6  1  0
  4  5  1  0
  6  7  1  0
  6 24  1  0
  7  8  2  0
  8  9  1  0
  8 23  1  0
  9 10  2  0
  9 20  1  0
 10 11  1  0
 10 18  1  0
 11 12  1  0
 11 17  1  0
 12 13  1  0
 13 14  1  0
 14 15  1  0
 14 16  1  0
 16 17  1  0
 18 19  2  0
 19 20  1  0
 20 21  1  0
 21 22  1  0
 23 24  1  0
 24 25  2  3
 25 26  1  0
M  CHG  1  18   1
M  END
