
     RDKit          3D

 26 29  0  0  0  0  0  0  0  0999 V2000
    7.2790    1.1600    0.4670 C   0  0  0  0  0  0  0  0  0  0  0  0
    6.7990   -0.2750    0.5680 C   0  0  0  0  0  0  0  0  0  0  0  0
    5.5010   -0.3450   -0.1210 N   0  0  0  0  0  0  0  0  0  0  0  0
    5.3240   -0.6160   -1.4160 C   0  0  0  0  0  0  0  0  0  0  0  0
    3.9760   -0.5960   -1.6900 C   0  0  0  0  0  0  0  0  0  0  0  0
    3.3940   -0.8570   -2.9850 C   0  0  0  0  0  0  0  0  0  0  0  0
    2.1760   -0.8310   -3.3330 N   0  0  0  0  0  0  0  0  0  0  0  0
    1.1020   -0.5240   -2.4790 C   0  0  0  0  0  0  0  0  0  0  0  0
    0.7190    0.7710   -2.2930 N   0  0  0  0  0  0  0  0  0  0  0  0
   -0.3030    1.1190   -1.5060 C   0  0  0  0  0  0  0  0  0  0  0  0
   -0.6880    2.5400   -1.3310 C   0  0  0  0  0  0  0  0  0  0  0  0
   -1.0190    0.1480   -0.8410 C   0  0  0  0  0  0  0  0  0  0  0  0
   -0.6010   -1.1570   -1.0530 C   0  0  0  0  0  0  0  0  0  0  0  0
    0.4150   -1.4780   -1.8370 N   0  0  0  0  0  0  0  0  0  0  0  0
   -1.2690   -2.3440   -0.4160 C   0  0  0  0  0  0  0  0  0  0  0  0
   -1.5310   -2.0300    1.0250 C   0  0  0  0  0  0  0  0  0  0  0  0
   -2.8320   -1.2730    1.2200 C   0  0  0  0  0  0  0  0  0  0  0  0
   -3.0710   -0.3110    0.2260 N   0  0  0  0  0  0  0  0  0  0  0  0
   -4.4110   -0.1160   -0.1860 C   0  0  0  0  0  0  0  0  0  0  0  0
   -5.2680    0.4960    0.8800 C   0  0  0  0  0  0  0  0  0  0  0  0
   -5.9730    1.5490    0.9640 N   0  0  0  0  0  0  0  0  0  0  0  0
   -6.3880    1.2870    2.2810 C   0  0  0  0  0  0  0  0  0  0  0  0
   -5.6070    0.1210    2.1870 N   0  0  0  0  0  0  0  0  0  0  0  0
   -2.1230    0.6960   -0.0100 C   0  0  0  0  0  0  0  0  0  0  0  0
    3.3670   -0.3010   -0.4960 C   0  0  0  0  0  0  0  0  0  0  0  0
    4.3350   -0.1510    0.4550 N   0  0  0  0  0  0  0  0  0  0  0  0
  1  2  1  0
  2  3  1  0
  3  4  1  0
  3 26  1  0
  4  5  2  0
  5  6  1  0
  5 25  1  0
  6  7  2  3
  7  8  1  0
  8  9  2  0
  8 14  1  0
  9 10  1  0
 10 11  1  0
 10 12  2  0
 12 13  1  0
 12 24  1  0
 13 14  2  0
 13 15  1  0
 15 16  1  0
 16 17  1  0
 17 18  1  0
 18 19  1  0
 18 24  1  0
 19 20  1  0
 20 21  2  0
 20 23  1  0
 21 22  1  0
 22 23  1  0
 25 26  2  0
M  CHG  1  21   1
M  END
