
     RDKit          3D

 26 29  0  0  0  0  0  0  0  0999 V2000
    7.5000    1.4250    2.4860 C   0  0  0  0  0  0  0  0  0  0  0  0
    6.7860    1.5290    1.1540 C   0  0  0  0  0  0  0  0  0  0  0  0
    5.4460    0.9860    1.2370 N   0  0  0  0  0  0  0  0  0  0  0  0
    4.6430    0.9770    0.0700 C   0  0  0  0  0  0  0  0  0  0  0  0
    3.3690    0.4790    0.0840 N   0  0  0  0  0  0  0  0  0  0  0  0
    2.6320    0.4780   -1.0330 C   0  0  0  0  0  0  0  0  0  0  0  0
    1.3220   -0.0300   -1.0260 N   0  0  0  0  0  0  0  0  0  0  0  0
    0.4860   -0.1050   -2.2330 C   0  0  0  0  0  0  0  0  0  0  0  0
   -0.2960   -1.3730   -1.9350 C   0  0  0  0  0  0  0  0  0  0  0  0
   -0.6470   -1.1300   -0.5000 C   0  0  0  0  0  0  0  0  0  0  0  0
   -1.8120   -1.3960    0.0850 C   0  0  0  0  0  0  0  0  0  0  0  0
   -2.9150   -1.9810   -0.6460 C   0  0  0  0  0  0  0  0  0  0  0  0
   -2.7000   -3.0390   -1.5410 C   0  0  0  0  0  0  0  0  0  0  0  0
   -3.7780   -3.4990   -2.1750 N   0  0  0  0  0  0  0  0  0  0  0  0
   -5.0250   -3.0220   -2.0100 C   0  0  0  0  0  0  0  0  0  0  0  0
   -5.1960   -2.0000   -1.1380 N   0  0  0  0  0  0  0  0  0  0  0  0
   -4.1740   -1.4650   -0.4500 C   0  0  0  0  0  0  0  0  0  0  0  0
   -4.3660   -0.3910    0.4550 N   0  0  0  0  0  0  0  0  0  0  0  0
   -3.8370    0.9490    0.4860 C   0  0  0  0  0  0  0  0  0  0  0  0
   -4.8520    1.8020    1.1980 C   0  0  0  0  0  0  0  0  0  0  0  0
   -5.9710    0.8450    1.5450 C   0  0  0  0  0  0  0  0  0  0  0  0
   -5.2360   -0.4760    1.6350 C   0  0  0  0  0  0  0  0  0  0  0  0
    0.5610   -0.5520    0.0990 C   0  0  0  0  0  0  0  0  0  0  0  0
    3.1650    0.9720   -2.1540 N   0  0  0  0  0  0  0  0  0  0  0  0
    4.4090    1.4670   -2.2000 C   0  0  0  0  0  0  0  0  0  0  0  0
    5.1390    1.4640   -1.0800 N   0  0  0  0  0  0  0  0  0  0  0  0
  1  2  1  0
  2  3  1  0
  3  4  1  0
  4  5  2  0
  4 26  1  0
  5  6  1  0
  6  7  1  0
  6 24  2  0
  7  8  1  0
  7 23  1  0
  8  9  1  0
  9 10  1  0
 10 11  2  3
 10 23  1  0
 11 12  1  0
 12 13  2  0
 12 17  1  0
 13 14  1  0
 14 15  2  0
 15 16  1  0
 16 17  2  0
 17 18  1  0
 18 19  1  0
 18 22  1  0
 19 20  1  0
 20 21  1  0
 21 22  1  0
 24 25  1  0
 25 26  2  0
M  CHG  1  26   1
M  END
