
     RDKit          3D

 19 20  0  0  0  0  0  0  0  0999 V2000
   -3.1900    1.3230    2.4220 O   0  0  0  0  0  0  0  0  0  0  0  0
   -2.5510    0.4180    1.8290 C   0  0  0  0  0  0  0  0  0  0  0  0
   -1.9000   -0.4880    2.6270 O   0  0  0  0  0  0  0  0  0  0  0  0
   -2.5480    0.3980    0.3840 C   0  0  0  0  0  0  0  0  0  0  0  0
   -3.4680    1.6560   -0.6010 S   0  0  0  0  0  0  0  0  0  0  0  0
   -2.9370    0.8870   -2.1940 C   0  0  0  0  0  0  0  0  0  0  0  0
   -2.1650   -0.1790   -1.8380 C   0  0  0  0  0  0  0  0  0  0  0  0
   -1.9730   -0.4180   -0.5200 C   0  0  0  0  0  0  0  0  0  0  0  0
   -0.9660   -1.7800    0.0570 S   0  0  2  0  0  0  0  0  0  0  0  0
   -0.5210   -2.6300   -1.0730 O   0  0  0  0  0  0  0  0  0  0  0  0
   -1.8940   -2.5850    0.9410 O   0  0  0  0  0  0  0  0  0  0  0  0
    0.3860   -1.2490    0.9430 N   0  0  0  0  0  0  0  0  0  0  0  0
    1.4120   -0.4210    0.3960 C   0  0  0  0  0  0  0  0  0  0  0  0
    1.1670    0.7000   -0.3690 C   0  0  0  0  0  0  0  0  0  0  0  0
    2.1940    1.4740   -0.8770 C   0  0  0  0  0  0  0  0  0  0  0  0
    3.5150    1.1580   -0.6410 C   0  0  0  0  0  0  0  0  0  0  0  0
    4.8110    2.1480   -1.2910 Cl  0  0  0  0  0  0  0  0  0  0  0  0
    3.7840    0.0390    0.1230 C   0  0  0  0  0  0  0  0  0  0  0  0
    2.7550   -0.7270    0.6260 C   0  0  0  0  0  0  0  0  0  0  0  0
  1  2  2  0
  2  3  1  0
  2  4  1  0
  4  5  1  0
  4  8  2  0
  5  6  1  0
  6  7  2  0
  7  8  1  0
  8  9  1  0
  9 10  2  0
  9 11  2  0
  9 12  1  1
 12 13  1  0
 13 14  2  0
 13 19  1  0
 14 15  1  0
 15 16  2  0
 16 17  1  0
 16 18  1  0
 18 19  2  0
M  END
