
     RDKit          3D

 30 31  0  0  0  0  0  0  0  0999 V2000
    3.7120    2.0790    0.5810 N   0  0  0  0  0  0  0  0  0  0  0  0
    2.7930    1.3130    0.0990 C   0  0  0  0  0  0  0  0  0  0  0  0
    2.4630    1.5110   -1.2870 N   0  0  0  0  0  0  0  0  0  0  0  0
    3.6520    2.1070   -2.4870 P   0  0  0  0  0  0  0  0  0  0  0  0
    3.5570    1.0150   -3.8610 O   0  0  0  0  0  0  0  0  0  0  0  0
    5.2750    2.0090   -1.8980 O   0  0  0  0  0  0  0  0  0  0  0  0
    2.1410    0.3270    0.8780 N   0  0  0  0  0  0  0  0  0  0  0  0
    0.8840   -0.2070    0.5040 C   0  0  0  0  0  0  0  0  0  0  0  0
   -0.2340    0.7640    0.5970 C   0  0  0  0  0  0  0  0  0  0  0  0
   -0.0430    1.9460    0.9820 O   0  0  0  0  0  0  0  0  0  0  0  0
   -1.5290    0.2910    0.2290 N   0  0  0  0  0  0  0  0  0  0  0  0
   -2.7070    1.1330    0.2670 C   0  0  0  0  0  0  0  0  0  0  0  0
   -3.8320    0.1800   -0.0460 C   0  0  1  0  0  0  0  0  0  0  0  0
   -4.1900   -0.4290    1.1530 O   0  0  0  0  0  0  0  0  0  0  0  0
   -5.0130    0.8650   -0.7010 C   0  0  0  0  0  0  0  0  0  0  0  0
   -5.5880    1.8840    0.1190 N   0  0  0  0  0  0  0  0  0  0  0  0
   -3.1570   -0.7710   -0.9950 C   0  0  2  0  0  0  0  0  0  0  0  0
   -3.8750   -1.8500   -1.3560 O   0  0  0  0  0  0  0  0  0  0  0  0
   -4.1110   -2.8180   -0.4250 C   0  0  0  0  0  0  0  0  0  0  0  0
   -3.1120   -2.9940    0.5490 O   0  0  0  0  0  0  0  0  0  0  0  0
   -2.2550   -1.9470    0.9020 C   0  0  0  0  0  0  0  0  0  0  0  0
   -1.8520   -1.8030    2.0770 O   0  0  0  0  0  0  0  0  0  0  0  0
   -1.8840   -1.0480   -0.2340 C   0  0  2  0  0  0  0  0  0  0  0  0
    2.9280   -0.2510    2.3660 P   0  0  0  0  0  0  0  0  0  0  0  0
    4.0440    0.8940    3.0140 O   0  0  0  0  0  0  0  0  0  0  0  0
    5.2300    0.4090    3.2120 O   0  0  0  0  0  0  0  0  0  0  0  0
    3.6650   -1.7770    2.0320 O   0  0  0  0  0  0  0  0  0  0  0  0
    5.0540   -1.6200    1.0140 P   0  0  0  0  0  0  0  0  0  0  0  0
    5.9600   -3.0760    0.9550 O   0  0  0  0  0  0  0  0  0  0  0  0
    4.6890   -0.9610   -0.5250 O   0  0  0  0  0  0  0  0  0  0  0  0
  1  2  2  0
  2  3  1  0
  2  7  1  0
  3  4  1  0
  4  5  1  0
  4  6  1  0
  7  8  1  0
  7 24  1  0
  8  9  1  0
  9 10  2  0
  9 11  1  0
 11 12  1  0
 23 11  1  1
 12 13  1  0
 13 14  1  1
 13 15  1  0
 13 17  1  0
 15 16  1  0
 17 18  1  1
 17 23  1  0
 18 19  1  0
 19 20  1  0
 20 21  1  0
 21 22  2  0
 21 23  1  0
 24 25  1  0
 24 27  1  0
 25 26  1  0
 27 28  1  0
 28 29  1  0
 28 30  1  0
M  END
