
     RDKit          3D

 31 33  0  0  0  0  0  0  0  0999 V2000
   -0.7460    1.2710   -3.2290 O   0  0  0  0  0  0  0  0  0  0  0  0
   -1.4800    1.0560   -2.2330 C   0  0  0  0  0  0  0  0  0  0  0  0
   -1.0100    0.4280   -1.0700 O   0  0  0  0  0  0  0  0  0  0  0  0
   -1.8070   -0.3920   -0.2710 C   0  0  1  0  0  0  0  0  0  0  0  0
   -1.5000   -1.8320   -0.4660 C   0  0  0  0  0  0  0  0  0  0  0  0
   -0.5930   -2.1270   -1.2890 O   0  0  0  0  0  0  0  0  0  0  0  0
   -2.1730   -2.8150    0.2210 O   0  0  0  0  0  0  0  0  0  0  0  0
   -1.7080   -0.1040    1.1820 C   0  0  0  0  0  0  0  0  0  0  0  0
   -0.6700    0.2620    1.8410 N   0  0  0  0  0  0  0  0  0  0  0  0
    0.5590    0.4510    1.2660 O   0  0  0  0  0  0  0  0  0  0  0  0
    1.6690   -0.8840    1.0710 P   0  0  0  0  0  0  0  0  0  0  0  0
    2.6790   -1.0970    2.4790 O   0  0  0  0  0  0  0  0  0  0  0  0
    2.7540   -0.6030   -0.2760 O   0  0  0  0  0  0  0  0  0  0  0  0
    3.8380    0.6840    0.1590 P   0  0  0  0  0  0  0  0  0  0  0  0
    3.7410    1.9310   -1.0640 O   0  0  0  0  0  0  0  0  0  0  0  0
    5.5280    0.1150    0.2730 N   0  0  0  0  0  0  0  0  0  0  0  0
    6.2840   -0.6970   -0.6710 C   0  0  0  0  0  0  0  0  0  0  0  0
    7.7400   -0.4290   -0.3310 C   0  0  0  0  0  0  0  0  0  0  0  0
    7.6550   -0.1970    1.0750 O   0  0  0  0  0  0  0  0  0  0  0  0
    6.4170    0.3810    1.3390 C   0  0  0  0  0  0  0  0  0  0  0  0
    6.1230    1.0490    2.3800 O   0  0  0  0  0  0  0  0  0  0  0  0
   -3.0010   -0.3130    1.7260 N   0  0  0  0  0  0  0  0  0  0  0  0
   -3.8890   -0.3510    0.7690 C   0  0  0  0  0  0  0  0  0  0  0  0
   -5.2770   -0.5450    0.9690 N   0  0  0  0  0  0  0  0  0  0  0  0
   -6.0030   -0.5140    2.6310 P   0  0  0  0  0  0  0  0  0  0  0  0
   -7.6160    0.1540    2.4720 O   0  0  0  0  0  0  0  0  0  0  0  0
   -5.1170    0.6050    3.6530 O   0  0  0  0  0  0  0  0  0  0  0  0
   -3.2360   -0.1670   -0.4850 N   0  0  0  0  0  0  0  0  0  0  0  0
   -3.6880    0.1710   -1.8220 C   0  0  0  0  0  0  0  0  0  0  0  0
   -2.9310    1.4520   -2.1990 C   0  0  1  0  0  0  0  0  0  0  0  0
   -3.0510    2.3570   -1.1350 O   0  0  0  0  0  0  0  0  0  0  0  0
  1  2  2  0
  2  3  1  0
  2 30  1  0
  3  4  1  0
  4  5  1  1
  4  8  1  0
  4 28  1  0
  5  6  2  0
  5  7  1  0
  8  9  2  3
  8 22  1  0
  9 10  1  0
 10 11  1  0
 11 12  1  0
 11 13  1  0
 13 14  1  0
 14 15  1  0
 14 16  1  0
 16 17  1  0
 16 20  1  0
 17 18  1  0
 18 19  1  0
 19 20  1  0
 20 21  2  0
 22 23  2  0
 23 24  1  0
 23 28  1  0
 24 25  1  0
 25 26  1  0
 25 27  1  0
 28 29  1  0
 29 30  1  0
 30 31  1  1
M  END
