
     RDKit          3D

 30 31  0  0  0  0  0  0  0  0999 V2000
    4.6500   -1.4100    0.6570 N   0  0  0  0  0  0  0  0  0  0  0  0
    5.3900   -0.6430   -0.0560 C   0  0  0  0  0  0  0  0  0  0  0  0
    4.7850    0.1790   -1.0340 N   0  0  0  0  0  0  0  0  0  0  0  0
    3.4350    0.4870   -0.9700 O   0  0  0  0  0  0  0  0  0  0  0  0
    2.9620    1.3390    0.0220 C   0  0  0  0  0  0  0  0  0  0  0  0
    3.8060    1.7960    0.8290 O   0  0  0  0  0  0  0  0  0  0  0  0
    1.5000    1.6870    0.1110 C   0  0  1  0  0  0  0  0  0  0  0  0
    1.0300    2.3660   -1.1590 C   0  0  0  0  0  0  0  0  0  0  0  0
   -0.0540    1.6980   -1.7180 O   0  0  0  0  0  0  0  0  0  0  0  0
    0.2550    0.3780   -2.0380 C   0  0  0  0  0  0  0  0  0  0  0  0
    0.9240   -0.2760   -1.0300 O   0  0  0  0  0  0  0  0  0  0  0  0
    0.7640    0.3630    0.2000 C   0  0  2  0  0  0  0  0  0  0  0  0
   -0.6860    0.5660    0.4530 C   0  0  0  0  0  0  0  0  0  0  0  0
   -1.3560    1.6240    0.8960 N   0  0  0  0  0  0  0  0  0  0  0  0
   -2.6340    1.3220    0.9560 O   0  0  0  0  0  0  0  0  0  0  0  0
   -2.8310    0.0920    0.5640 C   0  0  0  0  0  0  0  0  0  0  0  0
   -4.1290   -0.6390    0.4810 C   0  0  1  0  0  0  0  0  0  0  0  0
   -4.7280   -0.7560    1.8530 C   0  0  0  0  0  0  0  0  0  0  0  0
   -4.9680    0.4950    2.4280 O   0  0  0  0  0  0  0  0  0  0  0  0
   -5.4880    0.3180    3.6180 O   0  0  0  0  0  0  0  0  0  0  0  0
   -5.2760    0.1820   -0.7030 P   0  0  0  0  0  0  0  0  0  0  0  0
   -5.6820    1.7840   -0.1390 O   0  0  0  0  0  0  0  0  0  0  0  0
   -7.0960   -1.0440   -0.8910 P   0  0  0  0  0  0  0  0  0  0  0  0
   -7.1970   -1.6290   -2.5240 O   0  0  0  0  0  0  0  0  0  0  0  0
   -6.9940   -2.4440    0.1410 O   0  0  0  0  0  0  0  0  0  0  0  0
   -1.6150   -0.3940    0.2450 N   0  0  0  0  0  0  0  0  0  0  0  0
    6.8120   -0.5950    0.1080 N   0  0  0  0  0  0  0  0  0  0  0  0
    7.5170   -1.6920    1.3430 P   0  0  0  0  0  0  0  0  0  0  0  0
    8.2180   -3.0400    0.5130 O   0  0  0  0  0  0  0  0  0  0  0  0
    8.7740   -0.8550    2.1960 O   0  0  0  0  0  0  0  0  0  0  0  0
  1  2  2  0
  2  3  1  0
  2 27  1  0
  3  4  1  0
  4  5  1  0
  5  6  2  0
  7  5  1  6
  7  8  1  0
  7 12  1  0
  8  9  1  0
  9 10  1  0
 10 11  1  0
 11 12  1  0
 12 13  1  6
 13 14  2  0
 13 26  1  0
 14 15  1  0
 15 16  1  0
 16 17  1  0
 16 26  2  0
 17 18  1  1
 17 21  1  0
 18 19  1  0
 19 20  1  0
 21 22  1  0
 21 23  1  0
 23 24  1  0
 23 25  1  0
 27 28  1  0
 28 29  1  0
 28 30  1  0
M  END
