
     RDKit          3D

 30 31  0  0  0  0  0  0  0  0999 V2000
   -4.2210   -2.1710    3.6140 O   0  0  0  0  0  0  0  0  0  0  0  0
   -3.4650   -0.8880    3.1190 P   0  0  0  0  0  0  0  0  0  0  0  0
   -2.3570   -0.8580    1.8580 O   0  0  0  0  0  0  0  0  0  0  0  0
   -2.4450    0.0780    0.8670 C   0  0  1  0  0  0  0  0  0  0  0  0
   -3.6630    0.0050    0.1500 N   0  0  0  0  0  0  0  0  0  0  0  0
   -4.9420    0.4140    0.5920 C   0  0  0  0  0  0  0  0  0  0  0  0
   -5.0660    0.9110    1.7160 O   0  0  0  0  0  0  0  0  0  0  0  0
   -6.1270    0.2780   -0.2060 N   0  0  0  0  0  0  0  0  0  0  0  0
   -7.7100    0.8190    0.4400 P   0  0  0  0  0  0  0  0  0  0  0  0
   -7.5760    2.4730    0.9400 O   0  0  0  0  0  0  0  0  0  0  0  0
   -8.0540   -0.1320    1.8450 O   0  0  0  0  0  0  0  0  0  0  0  0
   -2.1300    1.4550    1.3950 C   0  0  0  0  0  0  0  0  0  0  0  0
   -0.7990    1.4940    1.7650 O   0  0  0  0  0  0  0  0  0  0  0  0
    0.0680    1.3300    0.7160 C   0  0  0  0  0  0  0  0  0  0  0  0
   -0.6620    0.7360   -0.4620 C   0  0  1  0  0  0  0  0  0  0  0  0
    0.3610    0.2630   -1.4620 C   0  0  0  0  0  0  0  0  0  0  0  0
    1.6060    0.4880   -1.2740 N   0  0  0  0  0  0  0  0  0  0  0  0
    2.7080    0.1190   -2.1080 C   0  0  1  0  0  0  0  0  0  0  0  0
    3.7230   -0.4820   -1.3860 O   0  0  0  0  0  0  0  0  0  0  0  0
    4.9140    0.2030   -1.3640 C   0  0  0  0  0  0  0  0  0  0  0  0
    5.8900   -0.6290   -0.5220 C   0  0  0  0  0  0  0  0  0  0  0  0
    5.4170   -0.7970    0.7650 O   0  0  0  0  0  0  0  0  0  0  0  0
    6.5660   -1.7340    1.6650 P   0  0  0  0  0  0  0  0  0  0  0  0
    5.7570   -3.0440    2.5060 O   0  0  0  0  0  0  0  0  0  0  0  0
    7.4080   -0.7840    2.8420 O   0  0  0  0  0  0  0  0  0  0  0  0
    2.3170   -0.6500   -3.2970 C   0  0  0  0  0  0  0  0  0  0  0  0
    3.2020   -1.0650   -4.0820 O   0  0  0  0  0  0  0  0  0  0  0  0
    0.9350   -0.8950   -3.5120 N   0  0  0  0  0  0  0  0  0  0  0  0
   -0.0420   -0.4550   -2.6200 N   0  0  0  0  0  0  0  0  0  0  0  0
   -1.4280   -0.3110   -0.0570 O   0  0  0  0  0  0  0  0  0  0  0  0
  1  2  2  0
  2  3  1  0
  3  4  1  0
  4  5  1  6
  4 12  1  0
  4 30  1  0
  5  6  1  0
  6  7  2  0
  6  8  1  0
  8  9  1  0
  9 10  1  0
  9 11  1  0
 12 13  1  0
 13 14  1  0
 14 15  1  0
 15 16  1  6
 15 30  1  0
 16 17  2  0
 16 29  1  0
 17 18  1  0
 18 19  1  1
 18 26  1  0
 19 20  1  0
 20 21  1  0
 21 22  1  0
 22 23  1  0
 23 24  1  0
 23 25  1  0
 26 27  2  0
 26 28  1  0
 28 29  1  0
M  END
