
     RDKit          3D

 31 33  0  0  0  0  0  0  0  0999 V2000
    7.9780   -0.2280    1.5640 N   0  0  0  0  0  0  0  0  0  0  0  0
    6.9320    0.4430    0.8950 C   0  0  0  0  0  0  0  0  0  0  0  0
    7.0910    1.6960    0.4430 N   0  0  0  0  0  0  0  0  0  0  0  0
    6.0900    2.3510   -0.2030 C   0  0  0  0  0  0  0  0  0  0  0  0
    4.9280    1.6950   -0.3730 N   0  0  0  0  0  0  0  0  0  0  0  0
    4.7140    0.4400    0.0590 C   0  0  0  0  0  0  0  0  0  0  0  0
    5.7340   -0.2100    0.7100 C   0  0  0  0  0  0  0  0  0  0  0  0
    5.2440   -1.4270    1.0220 N   0  0  0  0  0  0  0  0  0  0  0  0
    3.9690   -1.5000    0.5710 C   0  0  0  0  0  0  0  0  0  0  0  0
    3.6190   -0.3700   -0.0230 N   0  0  0  0  0  0  0  0  0  0  0  0
    2.3890   -0.0020   -0.6370 C   0  0  2  0  0  0  0  0  0  0  0  0
    1.3010   -0.0110    0.2620 O   0  0  0  0  0  0  0  0  0  0  0  0
    0.2640    0.3370   -0.6050 C   0  0  2  0  0  0  0  0  0  0  0  0
   -1.0810    0.2900    0.0780 C   0  0  0  0  0  0  0  0  0  0  0  0
   -1.3750   -0.9720    0.5680 O   0  0  0  0  0  0  0  0  0  0  0  0
   -2.8890   -0.9230    1.3100 P   0  0  1  0  0  0  0  0  0  0  0  0
   -2.9880   -2.1380    2.2310 O   0  0  0  0  0  0  0  0  0  0  0  0
   -3.0410    0.4460    2.2810 O   0  0  0  0  0  0  0  0  0  0  0  0
   -4.1420   -1.0380    0.2050 O   0  0  0  0  0  0  0  0  0  0  0  0
   -5.1270    0.3170    0.1680 P   0  0  2  0  0  0  0  0  0  0  0  0
   -4.3400    1.5590   -0.1880 O   0  0  0  0  0  0  0  0  0  0  0  0
   -5.9750    0.5440    1.6030 O   0  0  0  0  0  0  0  0  0  0  0  0
   -6.2730    0.0840   -1.0660 O   0  0  0  0  0  0  0  0  0  0  0  0
   -7.8200   -0.0740   -0.4390 P   0  0  1  0  0  0  0  0  0  0  0  0
   -8.8040    0.3020   -1.5290 O   0  0  0  0  0  0  0  0  0  0  0  0
   -8.0250   -1.6740    0.0610 O   0  0  0  0  0  0  0  0  0  0  0  0
   -8.0090    1.0100    0.8510 O   0  0  0  0  0  0  0  0  0  0  0  0
    0.3970   -0.6790   -1.6950 C   0  0  1  0  0  0  0  0  0  0  0  0
    0.0280   -0.1530   -2.9460 O   0  0  0  0  0  0  0  0  0  0  0  0
    1.9090   -0.9420   -1.6980 C   0  0  1  0  0  0  0  0  0  0  0  0
    2.4790   -0.5440   -2.9080 O   0  0  0  0  0  0  0  0  0  0  0  0
  1  2  1  0
  2  3  2  0
  2  7  1  0
  3  4  1  0
  4  5  2  0
  5  6  1  0
  6  7  2  0
  6 10  1  0
  7  8  1  0
  8  9  2  0
  9 10  1  0
 11 10  1  1
 11 12  1  0
 11 30  1  0
 12 13  1  0
 13 14  1  1
 13 28  1  0
 14 15  1  0
 15 16  1  0
 16 17  2  0
 16 18  1  1
 16 19  1  0
 19 20  1  0
 20 21  2  0
 20 22  1  1
 20 23  1  0
 23 24  1  0
 24 25  2  0
 24 26  1  1
 24 27  1  0
 28 29  1  6
 28 30  1  0
 30 31  1  6
M  END
