
     RDKit          3D

  6  7  0  0  0  0  0  0  0  0999 V2000
    1.6590    0.7420    0.0420 C   0  0  0  0  0  0  0  0  0  0  0  0
    1.8580   -0.6580    0.5390 C   0  0  0  0  0  0  0  0  0  0  0  0
    0.6620   -0.2730   -0.3580 C   0  0  1  0  0  0  0  0  0  0  0  0
   -0.6790   -0.3600    0.3160 C   0  0  1  0  0  0  0  0  0  0  0  0
   -1.6220    0.7860    0.2940 C   0  0  0  0  0  0  0  0  0  0  0  0
   -1.8810   -0.3470   -0.6450 C   0  0  0  0  0  0  0  0  0  0  0  0
  1  2  1  0
  3  1  1  1
  2  3  1  0
  3  4  1  0
  4  5  1  1
  4  6  1  0
  5  6  1  0
M  END
