
     RDKit          3D

  5  5  0  0  0  0  0  0  0  0999 V2000
    1.8910    0.1680   -0.4770 C   0  0  0  0  0  0  0  0  0  0  0  0
    0.6180   -0.3630   -1.1070 C   0  0  0  0  0  0  0  0  0  0  0  0
   -0.4700   -0.5890   -0.1210 C   0  0  1  0  0  0  0  0  0  0  0  0
   -1.0210    0.5040    0.7120 C   0  0  0  0  0  0  0  0  0  0  0  0
   -1.8020    0.0480   -0.4830 C   0  0  0  0  0  0  0  0  0  0  0  0
  1  2  1  0
  3  2  1  6
  3  4  1  0
  3  5  1  0
  4  5  1  0
M  END
