
     RDKit          3D

  6  6  0  0  0  0  0  0  0  0999 V2000
    2.2720   -0.2110    0.0250 C   0  0  0  0  0  0  0  0  0  0  0  0
    0.8520   -0.3910    0.5250 C   0  0  1  0  0  0  0  0  0  0  0  0
    0.1170    0.9020    0.7300 C   0  0  0  0  0  0  0  0  0  0  0  0
   -0.9540    0.4780   -0.2350 C   0  0  2  0  0  0  0  0  0  0  0  0
   -2.2290   -0.0030    0.4030 C   0  0  0  0  0  0  0  0  0  0  0  0
   -0.0700   -0.6700   -0.6550 C   0  0  0  0  0  0  0  0  0  0  0  0
  2  1  1  6
  2  3  1  0
  2  6  1  0
  3  4  1  0
  4  5  1  1
  4  6  1  0
M  END
