
     RDKit          3D

  6  5  0  0  0  0  0  0  0  0999 V2000
    2.0470    0.5300    0.1170 C   0  0  0  0  0  0  0  0  0  0  0  0
    0.9640   -0.0840   -0.7290 C   0  0  0  0  0  0  0  0  0  0  0  0
   -0.3720   -0.1210   -0.0460 C   0  0  2  0  0  0  0  0  0  0  0  0
   -0.8750    1.2550    0.3280 C   0  0  0  0  0  0  0  0  0  0  0  0
   -0.3870   -0.9900    1.1790 C   0  0  0  0  0  0  0  0  0  0  0  0
   -1.3730   -0.7000   -1.0250 C   0  0  0  0  0  0  0  0  0  0  0  0
  1  2  1  0
  2  3  1  0
  3  4  1  1
  3  5  1  0
  3  6  1  0
M  END
