
     RDKit          3D

  6  5  0  0  0  0  0  0  0  0999 V2000
    1.2040   -1.5260   -0.2230 C   0  0  0  0  0  0  0  0  0  0  0  0
    0.6620   -0.2630    0.3340 C   0  0  1  0  0  0  0  0  0  0  0  0
    1.6880    0.8380    0.1680 C   0  0  0  0  0  0  0  0  0  0  0  0
   -0.6400    0.1670   -0.2780 C   0  0  1  0  0  0  0  0  0  0  0  0
   -1.7470   -0.8120   -0.1140 C   0  0  0  0  0  0  0  0  0  0  0  0
   -1.0940    1.5160    0.2320 C   0  0  0  0  0  0  0  0  0  0  0  0
  2  1  1  6
  2  3  1  0
  2  4  1  0
  4  5  1  1
  4  6  1  0
M  END
