
     RDKit          3D

  6  5  0  0  0  0  0  0  0  0999 V2000
    2.2810    0.0170    0.2760 C   0  0  0  0  0  0  0  0  0  0  0  0
    1.3410   -0.9750   -0.3210 C   0  0  0  0  0  0  0  0  0  0  0  0
    0.1430   -0.3300   -0.9810 C   0  0  0  0  0  0  0  0  0  0  0  0
   -0.6620    0.4850    0.0100 C   0  0  2  0  0  0  0  0  0  0  0  0
   -1.1700   -0.3580    1.1310 C   0  0  0  0  0  0  0  0  0  0  0  0
   -1.8340    1.0750   -0.7310 C   0  0  0  0  0  0  0  0  0  0  0  0
  1  2  1  0
  2  3  1  0
  3  4  1  0
  4  5  1  1
  4  6  1  0
M  END
