
     RDKit          3D

  6  6  0  0  0  0  0  0  0  0999 V2000
    1.9940   -0.9560    0.1350 C   0  0  0  0  0  0  0  0  0  0  0  0
    1.1220   -0.3770   -0.9570 C   0  0  0  0  0  0  0  0  0  0  0  0
    0.3300    0.8090   -0.4710 C   0  0  0  0  0  0  0  0  0  0  0  0
   -0.5860    0.5150    0.6570 C   0  0  2  0  0  0  0  0  0  0  0  0
   -1.6900   -0.5190    0.4740 C   0  0  0  0  0  0  0  0  0  0  0  0
   -2.0210    0.9570    0.4480 C   0  0  0  0  0  0  0  0  0  0  0  0
  1  2  1  0
  2  3  1  0
  4  3  1  6
  4  5  1  0
  4  6  1  0
  5  6  1  0
M  END
