
     RDKit          3D

 33 36  0  0  0  0  0  0  0  0999 V2000
    4.3180    2.6880    0.4700 C   0  0  0  0  0  0  0  0  0  0  0  0
    3.6820    1.3090    0.4370 C   0  0  0  0  0  0  0  0  0  0  0  0
    2.2960    1.4600    0.6040 O   0  0  0  0  0  0  0  0  0  0  0  0
    1.5940   -0.1210    0.5630 P   0  0  0  0  0  0  0  0  0  0  0  0
    2.6500   -1.1850   -0.3090 O   0  0  0  0  0  0  0  0  0  0  0  0
   -0.1270   -0.1160   -0.0960 C   0  0  1  0  0  0  0  0  0  0  0  0
   -0.6140    1.1710   -0.4420 N   0  0  0  0  0  0  0  0  0  0  0  0
   -0.4610    1.6810   -1.6120 C   0  0  0  0  0  0  0  0  0  0  0  0
   -0.1060    0.8040   -2.6650 N   0  0  0  0  0  0  0  0  0  0  0  0
    0.0700   -0.4520   -2.5230 C   0  0  0  0  0  0  0  0  0  0  0  0
   -0.1160   -1.0200   -1.2450 N   0  0  0  0  0  0  0  0  0  0  0  0
   -0.2890   -2.3890   -0.9900 C   0  0  0  0  0  0  0  0  0  0  0  0
   -0.3490   -3.1560   -1.9720 O   0  0  0  0  0  0  0  0  0  0  0  0
   -0.3960   -2.9290    0.3650 C   0  0  2  0  0  0  0  0  0  0  0  0
    0.8610   -3.7050    0.6940 C   0  0  0  0  0  0  0  0  0  0  0  0
    0.3530   -4.8000    1.4320 O   0  0  0  0  0  0  0  0  0  0  0  0
   -0.8520   -5.1440    0.8730 C   0  0  0  0  0  0  0  0  0  0  0  0
   -1.3280   -6.3250    0.8220 O   0  0  0  0  0  0  0  0  0  0  0  0
   -1.4240   -3.9400    0.3840 N   0  0  0  0  0  0  0  0  0  0  0  0
   -0.5810   -1.9710    1.3480 O   0  0  0  0  0  0  0  0  0  0  0  0
   -1.0890   -0.7850    0.8830 C   0  0  1  0  0  0  0  0  0  0  0  0
   -1.3040    0.0760    1.9360 O   0  0  0  0  0  0  0  0  0  0  0  0
    0.1630    0.4270    2.7570 P   0  0  0  0  0  0  0  0  0  0  0  0
    0.9670   -0.7150    3.4240 O   0  0  0  0  0  0  0  0  0  0  0  0
   -2.3060   -0.9260    0.2220 O   0  0  0  0  0  0  0  0  0  0  0  0
   -3.3180   -0.4380    0.8540 O   0  0  0  0  0  0  0  0  0  0  0  0
   -3.5980    0.8840    0.6370 C   0  0  0  0  0  0  0  0  0  0  0  0
   -3.7470    1.2510   -0.6780 O   0  0  0  0  0  0  0  0  0  0  0  0
   -3.8160    2.5640   -0.7350 O   0  0  0  0  0  0  0  0  0  0  0  0
   -2.9010    3.1450    0.0100 O   0  0  0  0  0  0  0  0  0  0  0  0
   -1.8850    4.0680   -1.0380 P   0  0  0  0  0  0  0  0  0  0  0  0
   -1.2800    5.4940   -0.3110 O   0  0  0  0  0  0  0  0  0  0  0  0
   -0.6490    3.0930   -1.8420 N   0  0  0  0  0  0  0  0  0  0  0  0
  1  2  1  0
  2  3  1  0
  3  4  1  0
  4  5  1  0
  6  4  1  1
  6  7  1  0
  6 11  1  0
  6 21  1  0
  7  8  2  0
  8  9  1  0
  8 33  1  0
  9 10  2  0
 10 11  1  0
 11 12  1  0
 12 13  2  0
 12 14  1  0
 14 15  1  1
 14 19  1  0
 14 20  1  0
 15 16  1  0
 16 17  1  0
 17 18  2  0
 17 19  1  0
 20 21  1  0
 21 22  1  1
 21 25  1  0
 22 23  1  0
 23 24  2  0
 25 26  1  0
 26 27  1  0
 27 28  1  0
 28 29  1  0
 29 30  1  0
 30 31  1  0
 31 32  1  0
 31 33  1  0
M  END
