
     RDKit          3D

 33 33  0  0  0  0  0  0  0  0999 V2000
    9.2640   -4.1230    2.7820 O   0  0  0  0  0  0  0  0  0  0  0  0
    9.3130   -2.7830    2.0140 P   0  0  0  0  0  0  0  0  0  0  0  0
    8.5980   -1.3810    2.7390 O   0  0  0  0  0  0  0  0  0  0  0  0
    7.4820   -1.0720    1.9360 C   0  0  0  0  0  0  0  0  0  0  0  0
    6.7920    0.1710    2.4290 C   0  0  0  0  0  0  0  0  0  0  0  0
    5.6310    0.3790    1.4660 N   0  0  0  0  0  0  0  0  0  0  0  0
    4.6770   -0.4430    1.3740 C   0  0  0  0  0  0  0  0  0  0  0  0
    4.6750   -1.4400    2.1700 O   0  0  0  0  0  0  0  0  0  0  0  0
    3.2360   -0.9070    0.6280 N   0  0  0  0  0  0  0  0  0  0  0  0
    3.0760    0.0290   -0.3330 C   0  0  0  0  0  0  0  0  0  0  0  0
    3.7200    0.8400   -0.8920 O   0  0  0  0  0  0  0  0  0  0  0  0
    1.6200   -0.0510   -0.7760 N   0  0  0  0  0  0  0  0  0  0  0  0
    1.2720    0.7670   -1.8540 C   0  0  0  0  0  0  0  0  0  0  0  0
   -0.1510    0.6160   -2.1740 C   0  0  1  0  0  0  0  0  0  0  0  0
   -1.1230    1.0700   -1.3010 O   0  0  0  0  0  0  0  0  0  0  0  0
   -2.2830    0.4810   -0.9160 C   0  0  0  0  0  0  0  0  0  0  0  0
   -2.5390   -0.6710   -1.4460 O   0  0  0  0  0  0  0  0  0  0  0  0
   -3.2320    1.0160    0.0030 N   0  0  0  0  0  0  0  0  0  0  0  0
   -4.4420    0.3050    0.2680 C   0  0  1  0  0  0  0  0  0  0  0  0
   -4.5180   -0.2470    1.6700 C   0  0  0  0  0  0  0  0  0  0  0  0
   -5.8930   -0.5740    1.7250 O   0  0  0  0  0  0  0  0  0  0  0  0
   -6.5100    0.4010    1.0070 C   0  0  1  0  0  0  0  0  0  0  0  0
   -7.2470    1.3010    1.9120 C   0  0  0  0  0  0  0  0  0  0  0  0
   -7.8500    2.3280    1.4310 O   0  0  0  0  0  0  0  0  0  0  0  0
   -7.3110    1.0600    3.3000 N   0  0  0  0  0  0  0  0  0  0  0  0
   -8.0190    1.9370    4.0740 O   0  0  0  0  0  0  0  0  0  0  0  0
   -5.5700    1.1380    0.2880 O   0  0  0  0  0  0  0  0  0  0  0  0
   -0.4910    1.3070   -3.8930 P   0  0  0  0  0  0  0  0  0  0  0  0
    0.5360    2.6790   -4.1920 O   0  0  0  0  0  0  0  0  0  0  0  0
   -0.1140    0.1180   -5.1060 O   0  0  0  0  0  0  0  0  0  0  0  0
   -0.7600   -1.4250   -4.7990 P   0  0  0  0  0  0  0  0  0  0  0  0
   -2.4590   -1.4870   -4.6450 O   0  0  0  0  0  0  0  0  0  0  0  0
    0.0630   -2.3490   -3.6130 O   0  0  0  0  0  0  0  0  0  0  0  0
  1  2  2  0
  2  3  1  0
  3  4  1  0
  4  5  1  0
  5  6  1  0
  6  7  1  0
  7  8  2  0
  7  9  1  0
  9 10  1  0
 10 11  2  0
 10 12  1  0
 12 13  1  0
 14 13  1  1
 14 15  1  0
 14 28  1  0
 15 16  1  0
 16 17  2  0
 16 18  1  0
 19 18  1  1
 19 20  1  0
 19 27  1  0
 20 21  1  0
 21 22  1  0
 22 23  1  1
 22 27  1  0
 23 24  2  0
 23 25  1  0
 25 26  1  0
 28 29  1  0
 28 30  1  0
 30 31  1  0
 31 32  1  0
 31 33  1  0
M  END
