
     RDKit          3D

 32 33  0  0  0  0  0  0  0  0999 V2000
    2.4910   -0.5630   -4.4610 N   0  0  0  0  0  0  0  0  0  0  0  0
    2.3750   -0.7670   -3.0680 C   0  0  0  0  0  0  0  0  0  0  0  0
    2.8460   -1.8690   -2.6320 O   0  0  0  0  0  0  0  0  0  0  0  0
    1.7780    0.1780   -2.1930 N   0  0  0  0  0  0  0  0  0  0  0  0
    1.7250   -0.1620   -0.7830 C   0  0  1  0  0  0  0  0  0  0  0  0
    3.4700   -0.4330   -0.2280 P   0  0  0  0  0  0  0  0  0  0  0  0
    4.3290    1.0510   -0.4070 O   0  0  0  0  0  0  0  0  0  0  0  0
    4.2460    1.5560   -2.0730 P   0  0  0  0  0  0  0  0  0  0  0  0
    5.3800    1.2600   -3.0790 O   0  0  0  0  0  0  0  0  0  0  0  0
    3.5420   -0.9320    1.4340 O   0  0  0  0  0  0  0  0  0  0  0  0
    5.2230   -1.1190    1.8280 P   0  0  0  0  0  0  0  0  0  0  0  0
    5.9820    0.4320    1.5310 O   0  0  0  0  0  0  0  0  0  0  0  0
    5.4160   -1.5740    3.4970 O   0  0  0  0  0  0  0  0  0  0  0  0
    1.0760    0.9230    0.0200 C   0  0  0  0  0  0  0  0  0  0  0  0
   -0.2670    1.0130   -0.0460 O   0  0  0  0  0  0  0  0  0  0  0  0
   -1.0180   -0.0980   -0.2050 C   0  0  2  0  0  0  0  0  0  0  0  0
   -2.2380    0.2930   -1.0550 C   0  0  0  0  0  0  0  0  0  0  0  0
   -3.1380    1.1280   -0.2940 N   0  0  0  0  0  0  0  0  0  0  0  0
   -3.6210    2.3570   -0.8100 C   0  0  0  0  0  0  0  0  0  0  0  0
   -3.2040    2.7620   -2.1000 N   0  0  0  0  0  0  0  0  0  0  0  0
   -4.4120    3.0950   -0.1480 O   0  0  0  0  0  0  0  0  0  0  0  0
   -3.5560    0.7220    0.9950 C   0  0  0  0  0  0  0  0  0  0  0  0
   -4.6440    1.0940    1.5100 O   0  0  0  0  0  0  0  0  0  0  0  0
   -2.7050   -0.1430    1.7370 N   0  0  0  0  0  0  0  0  0  0  0  0
   -3.1040   -0.5810    3.0700 C   0  0  0  0  0  0  0  0  0  0  0  0
   -3.9080   -1.8820    2.9560 C   0  0  0  0  0  0  0  0  0  0  0  0
   -5.0400   -1.7130    2.1970 O   0  0  0  0  0  0  0  0  0  0  0  0
   -1.4900   -0.5430    1.1330 C   0  0  0  0  0  0  0  0  0  0  0  0
   -0.7460   -1.3400    1.7770 O   0  0  0  0  0  0  0  0  0  0  0  0
   -0.4410   -1.1970   -0.8260 O   0  0  0  0  0  0  0  0  0  0  0  0
    0.9170   -1.4050   -0.6780 C   0  0  0  0  0  0  0  0  0  0  0  0
    1.4810   -2.4910   -0.4760 O   0  0  0  0  0  0  0  0  0  0  0  0
  1  2  1  0
  2  3  2  0
  2  4  1  0
  5  4  1  6
  5  6  1  0
  5 14  1  0
  5 31  1  0
  6  7  1  0
  6 10  1  0
  7  8  1  0
  8  9  2  0
 10 11  1  0
 11 12  1  0
 11 13  1  0
 14 15  1  0
 15 16  1  0
 16 17  1  6
 16 28  1  0
 16 30  1  0
 17 18  1  0
 18 19  1  0
 18 22  1  0
 19 20  1  0
 19 21  2  0
 22 23  2  0
 22 24  1  0
 24 25  1  0
 24 28  1  0
 25 26  1  0
 26 27  1  0
 28 29  2  0
 30 31  1  0
 31 32  2  0
M  END
