
     RDKit          3D

 32 33  0  0  0  0  0  0  0  0999 V2000
    8.8840    2.3960   -2.4650 O   0  0  0  0  0  0  0  0  0  0  0  0
    8.1990    1.0300   -2.7270 P   0  0  0  0  0  0  0  0  0  0  0  0
    7.3680    0.2260   -1.3630 N   0  0  0  0  0  0  0  0  0  0  0  0
    5.9710    0.3810   -1.2090 C   0  0  0  0  0  0  0  0  0  0  0  0
    5.1330    1.1040   -2.0060 N   0  0  0  0  0  0  0  0  0  0  0  0
    3.9030    1.0100   -1.5450 N   0  0  0  0  0  0  0  0  0  0  0  0
    3.8960    0.2440   -0.4630 C   0  0  0  0  0  0  0  0  0  0  0  0
    2.8430   -0.1560    0.3800 N   0  0  0  0  0  0  0  0  0  0  0  0
    1.4930    0.2990    0.0580 C   0  0  0  0  0  0  0  0  0  0  0  0
    1.1310   -0.2710   -1.2890 C   0  0  0  0  0  0  0  0  0  0  0  0
   -0.1720    0.1560   -1.6220 O   0  0  0  0  0  0  0  0  0  0  0  0
   -1.2690   -0.1830   -0.8510 C   0  0  0  0  0  0  0  0  0  0  0  0
   -1.1810   -0.8900    0.1860 O   0  0  0  0  0  0  0  0  0  0  0  0
   -2.5580    0.2400   -1.1720 O   0  0  0  0  0  0  0  0  0  0  0  0
   -3.6830   -0.1090   -0.3800 C   0  0  2  0  0  0  0  0  0  0  0  0
   -4.7230   -0.8310   -1.2090 C   0  0  0  0  0  0  0  0  0  0  0  0
   -5.8380   -0.6590   -0.4030 O   0  0  0  0  0  0  0  0  0  0  0  0
   -5.6670    0.4920    0.3110 C   0  0  2  0  0  0  0  0  0  0  0  0
   -5.7590    0.3340    1.8110 C   0  0  0  0  0  0  0  0  0  0  0  0
   -4.8080   -0.5440    2.2890 O   0  0  0  0  0  0  0  0  0  0  0  0
   -6.7170    1.4820   -0.2010 C   0  0  0  0  0  0  0  0  0  0  0  0
   -8.0740    0.9400   -0.0170 C   0  0  0  0  0  0  0  0  0  0  0  0
   -9.1020    1.6590   -0.2640 O   0  0  0  0  0  0  0  0  0  0  0  0
   -8.3020   -0.3550    0.4250 O   0  0  0  0  0  0  0  0  0  0  0  0
   -4.3860    1.0070    0.0420 O   0  0  0  0  0  0  0  0  0  0  0  0
    3.0720   -1.1860    1.8200 P   0  0  0  0  0  0  0  0  0  0  0  0
    4.5630   -0.8830    2.6340 O   0  0  0  0  0  0  0  0  0  0  0  0
    1.7120   -0.9870    2.8790 O   0  0  0  0  0  0  0  0  0  0  0  0
    5.1770   -0.1430   -0.2590 N   0  0  0  0  0  0  0  0  0  0  0  0
    8.3200   -0.7570   -0.2210 P   0  0  0  0  0  0  0  0  0  0  0  0
    8.4580   -2.4030   -0.7050 O   0  0  0  0  0  0  0  0  0  0  0  0
    9.8820   -0.0420    0.0420 O   0  0  0  0  0  0  0  0  0  0  0  0
  1  2  2  0
  2  3  1  0
  3  4  1  0
  3 30  1  0
  4  5  2  0
  4 29  1  0
  5  6  1  0
  6  7  2  0
  7  8  1  0
  7 29  1  0
  8  9  1  0
  8 26  1  0
  9 10  1  0
 10 11  1  0
 11 12  1  0
 12 13  2  0
 12 14  1  0
 15 14  1  6
 15 16  1  0
 15 25  1  0
 16 17  1  0
 17 18  1  0
 18 19  1  1
 18 21  1  0
 18 25  1  0
 19 20  1  0
 21 22  1  0
 22 23  2  0
 22 24  1  0
 26 27  1  0
 26 28  1  0
 30 31  1  0
 30 32  1  0
M  END
