
     RDKit          3D

 30 32  0  0  0  0  0  0  0  0999 V2000
   -5.6770    1.1280   -0.2760 C   0  0  0  0  0  0  0  0  0  0  0  0
   -5.1560   -0.0350   -0.9080 N   0  0  0  0  0  0  0  0  0  0  0  0
   -5.1740   -1.2270   -0.1360 C   0  0  0  0  0  0  0  0  0  0  0  0
   -4.7990   -1.0370    1.3150 C   0  0  0  0  0  0  0  0  0  0  0  0
   -3.5930   -0.2140    1.4360 N   0  0  0  0  0  0  0  0  0  0  0  0
   -3.4310    0.3820    2.6940 C   0  0  0  0  0  0  0  0  0  0  0  0
   -4.2260    0.1570    3.6710 O   0  0  0  0  0  0  0  0  0  0  0  0
   -2.5930    0.0770    0.4840 C   0  0  0  0  0  0  0  0  0  0  0  0
   -1.3470    0.1800    1.0770 C   0  0  0  0  0  0  0  0  0  0  0  0
   -0.2440    0.4650    0.2790 C   0  0  0  0  0  0  0  0  0  0  0  0
   -0.3900    0.6400   -1.0790 C   0  0  0  0  0  0  0  0  0  0  0  0
    0.7910    0.9400   -1.9200 C   0  0  0  0  0  0  0  0  0  0  0  0
    2.0500    0.8070   -1.1860 N   0  0  0  0  0  0  0  0  0  0  0  0
    2.4070   -0.4930   -0.7330 C   0  0  0  0  0  0  0  0  0  0  0  0
    1.5970   -1.5900   -1.1020 C   0  0  0  0  0  0  0  0  0  0  0  0
    1.9280   -2.8590   -0.6950 C   0  0  0  0  0  0  0  0  0  0  0  0
    3.0560   -3.0380    0.0720 C   0  0  0  0  0  0  0  0  0  0  0  0
    3.8530   -1.9810    0.4380 C   0  0  0  0  0  0  0  0  0  0  0  0
    3.5260   -0.6710    0.0280 C   0  0  0  0  0  0  0  0  0  0  0  0
    4.4060    0.4000    0.4590 C   0  0  0  0  0  0  0  0  0  0  0  0
    4.2530    1.6030    0.1920 O   0  0  0  0  0  0  0  0  0  0  0  0
    5.5220    0.1090    1.2320 O   0  0  0  0  0  0  0  0  0  0  0  0
    6.4010    1.0740    1.6690 C   0  0  0  0  0  0  0  0  0  0  0  0
    7.1550    1.8520    0.6520 C   0  0  2  0  0  0  0  0  0  0  0  0
    7.9430    1.0160   -0.1540 F   0  0  0  0  0  0  0  0  0  0  0  0
    8.1220    2.5890    1.3760 F   0  0  0  0  0  0  0  0  0  0  0  0
    6.4530    2.7740   -0.0570 F   0  0  0  0  0  0  0  0  0  0  0  0
   -1.6490    0.5310   -1.6440 C   0  0  0  0  0  0  0  0  0  0  0  0
   -2.7700    0.2480   -0.8810 C   0  0  0  0  0  0  0  0  0  0  0  0
   -3.9970    0.1760   -1.7200 C   0  0  0  0  0  0  0  0  0  0  0  0
  1  2  1  0
  2  3  1  0
  2 30  1  0
  3  4  1  0
  4  5  1  0
  5  6  1  0
  5  8  1  0
  6  7  2  0
  8  9  2  0
  8 29  1  0
  9 10  1  0
 10 11  2  0
 11 12  1  0
 11 28  1  0
 12 13  1  0
 13 14  1  0
 14 15  2  0
 14 19  1  0
 15 16  1  0
 16 17  2  0
 17 18  1  0
 18 19  2  0
 19 20  1  0
 20 21  2  0
 20 22  1  0
 22 23  1  0
 23 24  1  0
 24 25  1  6
 24 26  1  0
 24 27  1  0
 28 29  2  0
 29 30  1  0
M  END
