
     RDKit          3D

 30 32  0  0  0  0  0  0  0  0999 V2000
    4.4510    2.3360   -2.8470 C   0  0  0  0  0  0  0  0  0  0  0  0
    4.6090    1.3290   -1.9360 C   0  0  0  0  0  0  0  0  0  0  0  0
    3.7000    1.4020   -0.8020 C   0  0  0  0  0  0  0  0  0  0  0  0
    2.6030    0.3760   -0.9570 C   0  0  2  0  0  0  0  0  0  0  0  0
    1.8710    0.6330   -2.1480 O   0  0  0  0  0  0  0  0  0  0  0  0
    1.6490    0.6070    0.1960 C   0  0  1  0  0  0  0  0  0  0  0  0
    0.4930   -0.3600    0.0800 C   0  0  0  0  0  0  0  0  0  0  0  0
   -0.3440   -0.1100    1.2360 N   0  0  0  0  0  0  0  0  0  0  0  0
   -1.4700   -0.9110    1.4570 C   0  0  0  0  0  0  0  0  0  0  0  0
   -1.7600   -1.8300    0.6660 O   0  0  0  0  0  0  0  0  0  0  0  0
   -2.3120   -0.6560    2.6410 C   0  0  0  0  0  0  0  0  0  0  0  0
   -3.4880   -1.5630    2.6460 C   0  0  0  0  0  0  0  0  0  0  0  0
   -4.4280   -1.4590    1.5020 C   0  0  0  0  0  0  0  0  0  0  0  0
   -5.0710   -0.1260    1.3490 C   0  0  0  0  0  0  0  0  0  0  0  0
   -4.8220    0.8150    2.1710 O   0  0  0  0  0  0  0  0  0  0  0  0
   -5.9620    0.1120    0.2980 N   0  0  0  0  0  0  0  0  0  0  0  0
   -6.3410   -0.8560   -0.7170 C   0  0  0  0  0  0  0  0  0  0  0  0
   -7.8400   -0.5770   -0.8100 C   0  0  0  0  0  0  0  0  0  0  0  0
   -8.0060    0.8810   -0.4280 C   0  0  0  0  0  0  0  0  0  0  0  0
   -6.6520    1.3650    0.0510 C   0  0  0  0  0  0  0  0  0  0  0  0
    0.0530    0.9800    2.1060 C   0  0  0  0  0  0  0  0  0  0  0  0
    1.5260    0.9270    2.4300 C   0  0  0  0  0  0  0  0  0  0  0  0
    2.2760    0.3780    1.4110 O   0  0  0  0  0  0  0  0  0  0  0  0
    5.6120    0.3460   -2.1570 C   0  0  0  0  0  0  0  0  0  0  0  0
    6.4330    0.5230   -3.4500 C   0  0  0  0  0  0  0  0  0  0  0  0
    5.9580   -0.6740   -1.4290 C   0  0  0  0  0  0  0  0  0  0  0  0
    5.4820   -1.1700   -0.1810 C   0  0  0  0  0  0  0  0  0  0  0  0
    6.0980   -2.3100    0.1130 C   0  0  0  0  0  0  0  0  0  0  0  0
    6.9890   -2.6380   -0.8750 O   0  0  0  0  0  0  0  0  0  0  0  0
    7.0600   -1.6400   -1.8490 C   0  0  0  0  0  0  0  0  0  0  0  0
  1  2  2  0
  2  3  1  0
  2 24  1  0
  3  4  1  0
  4  5  1  6
  4  6  1  0
  6  7  1  6
  6 23  1  0
  7  8  1  0
  8  9  1  0
  8 21  1  0
  9 10  2  0
  9 11  1  0
 11 12  1  0
 12 13  1  0
 13 14  1  0
 14 15  2  0
 14 16  1  0
 16 17  1  0
 16 20  1  0
 17 18  1  0
 18 19  1  0
 19 20  1  0
 21 22  1  0
 22 23  1  0
 24 25  1  0
 24 26  2  3
 26 27  1  0
 26 30  1  0
 27 28  2  0
 28 29  1  0
 29 30  1  0
M  END
