
     RDKit          3D

 30 31  0  0  0  0  0  0  0  0999 V2000
   -6.5340   -2.5110   -2.4780 C   0  0  0  0  0  0  0  0  0  0  0  0
   -5.6800   -2.6050   -1.6720 C   0  0  0  0  0  0  0  0  0  0  0  0
   -4.1670   -2.2800   -1.7330 C   0  0  0  0  0  0  0  0  0  0  0  0
   -3.9430   -1.3800   -0.7940 O   0  0  0  0  0  0  0  0  0  0  0  0
   -3.3070   -0.5290   -0.0420 C   0  0  0  0  0  0  0  0  0  0  0  0
   -1.9500   -0.2400   -0.2520 C   0  0  0  0  0  0  0  0  0  0  0  0
   -1.3470    0.6930    0.6220 C   0  0  0  0  0  0  0  0  0  0  0  0
    0.1430    0.8620    0.4450 C   0  0  0  0  0  0  0  0  0  0  0  0
    0.6440    2.0640    0.4950 C   0  0  0  0  0  0  0  0  0  0  0  0
   -0.2150    3.2550    0.7010 C   0  0  0  0  0  0  0  0  0  0  0  0
    0.2040    4.3110   -0.3580 C   0  0  0  0  0  0  0  0  0  0  0  0
    1.6410    4.6250   -0.1330 C   0  0  0  0  0  0  0  0  0  0  0  0
    0.8630   -0.3940    0.3450 C   0  0  0  0  0  0  0  0  0  0  0  0
    0.1400   -1.4600    0.2760 O   0  0  0  0  0  0  0  0  0  0  0  0
    2.2620   -0.5880    0.3130 N   0  0  0  0  0  0  0  0  0  0  0  0
    3.3290    0.3410    0.4340 C   0  0  0  0  0  0  0  0  0  0  0  0
    4.6060   -0.4350    0.6200 C   0  0  0  0  0  0  0  0  0  0  0  0
    4.2860   -1.8400    0.2840 C   0  0  2  0  0  0  0  0  0  0  0  0
    4.6480   -2.6590    1.3860 O   0  0  0  0  0  0  0  0  0  0  0  0
    5.0590   -2.3620   -0.9200 C   0  0  0  0  0  0  0  0  0  0  0  0
    6.5350   -2.2970   -0.6630 C   0  0  0  0  0  0  0  0  0  0  0  0
    7.2080   -2.8010   -1.7980 O   0  0  0  0  0  0  0  0  0  0  0  0
    2.8310   -1.9280    0.1040 C   0  0  0  0  0  0  0  0  0  0  0  0
   -2.0260    1.2790    1.6110 C   0  0  0  0  0  0  0  0  0  0  0  0
   -3.3820    1.0100    1.8410 C   0  0  0  0  0  0  0  0  0  0  0  0
   -3.9640    0.1090    0.9950 C   0  0  0  0  0  0  0  0  0  0  0  0
   -5.3200   -0.1980    1.1830 O   0  0  0  0  0  0  0  0  0  0  0  0
   -6.0630    0.4170    2.2100 C   0  0  0  0  0  0  0  0  0  0  0  0
   -6.1180    1.8750    1.9850 C   0  0  0  0  0  0  0  0  0  0  0  0
   -6.1490    2.9930    1.8020 N   0  0  0  0  0  0  0  0  0  0  0  0
  1  2  2  0
  2  3  1  0
  3  4  1  0
  4  5  1  0
  5  6  2  0
  5 26  1  0
  6  7  1  0
  7  8  1  0
  7 24  2  0
  8  9  2  3
  8 13  1  0
  9 10  1  0
 10 11  1  0
 11 12  1  0
 13 14  2  0
 13 15  1  0
 15 16  1  0
 15 23  1  0
 16 17  1  0
 17 18  1  0
 18 19  1  1
 18 20  1  0
 18 23  1  0
 20 21  1  0
 21 22  1  0
 24 25  1  0
 25 26  2  0
 26 27  1  0
 27 28  1  0
 28 29  1  0
 29 30  3  0
M  END
