
     RDKit          3D

 30 32  0  0  0  0  0  0  0  0999 V2000
    7.0840    2.1240    1.2150 C   0  0  0  0  0  0  0  0  0  0  0  0
    5.9080    1.5170    0.5010 C   0  0  0  0  0  0  0  0  0  0  0  0
    6.1190    1.0570   -0.6380 O   0  0  0  0  0  0  0  0  0  0  0  0
    4.6270    1.4610    1.0710 N   0  0  0  0  0  0  0  0  0  0  0  0
    3.4500    0.9200    0.5050 C   0  0  0  0  0  0  0  0  0  0  0  0
    3.3860    0.1890   -0.6500 C   0  0  0  0  0  0  0  0  0  0  0  0
    2.1980   -0.3190   -1.1910 C   0  0  0  0  0  0  0  0  0  0  0  0
    2.2810   -1.0990   -2.4570 C   0  0  0  0  0  0  0  0  0  0  0  0
    1.0310   -0.0650   -0.5140 C   0  0  0  0  0  0  0  0  0  0  0  0
    1.0340    0.6670    0.6570 C   0  0  0  0  0  0  0  0  0  0  0  0
   -0.2230    0.9500    1.3930 C   0  0  0  0  0  0  0  0  0  0  0  0
   -1.3220    0.2260    0.9670 O   0  0  0  0  0  0  0  0  0  0  0  0
   -1.5220   -1.1220    0.9540 C   0  0  0  0  0  0  0  0  0  0  0  0
   -0.5680   -1.9940    1.4090 C   0  0  0  0  0  0  0  0  0  0  0  0
   -0.7760   -3.3680    1.3950 C   0  0  0  0  0  0  0  0  0  0  0  0
   -1.9810   -3.8190    0.9060 C   0  0  0  0  0  0  0  0  0  0  0  0
   -2.9610   -2.9640    0.4400 C   0  0  0  0  0  0  0  0  0  0  0  0
   -2.7350   -1.6190    0.4630 C   0  0  0  0  0  0  0  0  0  0  0  0
   -3.7360   -0.7200   -0.0150 N   0  0  0  0  0  0  0  0  0  0  0  0
   -3.3550    0.3060   -0.7820 N   0  0  0  0  0  0  0  0  0  0  0  0
   -4.2570    1.1870   -1.2540 C   0  0  0  0  0  0  0  0  0  0  0  0
   -3.8060    2.3380   -2.1140 C   0  0  1  0  0  0  0  0  0  0  0  0
   -3.4650    3.3500   -1.2550 F   0  0  0  0  0  0  0  0  0  0  0  0
   -2.7220    1.8960   -2.8720 F   0  0  0  0  0  0  0  0  0  0  0  0
   -4.8600    2.7080   -2.9110 F   0  0  0  0  0  0  0  0  0  0  0  0
   -5.5950    1.0610   -0.9660 C   0  0  0  0  0  0  0  0  0  0  0  0
   -6.0030   -0.0010   -0.1700 C   0  0  0  0  0  0  0  0  0  0  0  0
   -5.0320   -0.8940    0.3000 C   0  0  0  0  0  0  0  0  0  0  0  0
   -5.4300   -1.8480    1.0170 O   0  0  0  0  0  0  0  0  0  0  0  0
    2.2230    1.1460    1.1520 C   0  0  0  0  0  0  0  0  0  0  0  0
  1  2  1  0
  2  3  2  0
  2  4  1  0
  4  5  1  0
  5  6  2  0
  5 30  1  0
  6  7  1  0
  7  8  1  0
  7  9  2  0
  9 10  1  0
 10 11  1  0
 10 30  2  0
 11 12  1  0
 12 13  1  0
 13 14  2  0
 13 18  1  0
 14 15  1  0
 15 16  2  0
 16 17  1  0
 17 18  2  0
 18 19  1  0
 19 20  1  0
 19 28  1  0
 20 21  2  0
 21 22  1  0
 21 26  1  0
 22 23  1  1
 22 24  1  0
 22 25  1  0
 26 27  2  0
 27 28  1  0
 28 29  2  0
M  END
