
     RDKit          3D

 30 31  0  0  0  0  0  0  0  0999 V2000
    7.1220   -2.8520   -0.8780 C   0  0  0  0  0  0  0  0  0  0  0  0
    6.1440   -2.0650   -1.2580 C   0  0  0  0  0  0  0  0  0  0  0  0
    4.8570   -1.9380   -0.5750 C   0  0  0  0  0  0  0  0  0  0  0  0
    3.9160   -1.1340   -1.0010 C   0  0  0  0  0  0  0  0  0  0  0  0
    2.6050   -1.0000   -0.3060 C   0  0  0  0  0  0  0  0  0  0  0  0
    2.0240    0.1510   -0.4150 C   0  0  0  0  0  0  0  0  0  0  0  0
    0.8600    0.7860    0.0030 N   0  0  0  0  0  0  0  0  0  0  0  0
    0.6670    2.1730   -0.3610 C   0  0  0  0  0  0  0  0  0  0  0  0
    1.5480    2.7840   -1.0330 O   0  0  0  0  0  0  0  0  0  0  0  0
   -0.5220    2.9670    0.0010 C   0  0  0  0  0  0  0  0  0  0  0  0
   -0.6180    4.2230   -0.3740 C   0  0  0  0  0  0  0  0  0  0  0  0
   -1.6570    5.2050   -0.1550 C   0  0  0  0  0  0  0  0  0  0  0  0
   -2.2380    5.6740   -1.4860 C   0  0  0  0  0  0  0  0  0  0  0  0
   -1.5330    2.2770    0.7670 C   0  0  0  0  0  0  0  0  0  0  0  0
   -2.5910    2.8860    1.1220 O   0  0  0  0  0  0  0  0  0  0  0  0
   -1.3620    0.9130    1.1340 N   0  0  0  0  0  0  0  0  0  0  0  0
   -2.3680    0.2750    1.9270 C   0  0  0  0  0  0  0  0  0  0  0  0
   -3.5350   -0.2970    1.2340 C   0  0  0  0  0  0  0  0  0  0  0  0
   -3.3420   -1.3130    0.2590 N   0  0  0  0  0  0  0  0  0  0  0  0
   -4.4580   -1.9100   -0.4410 C   0  0  0  0  0  0  0  0  0  0  0  0
   -4.3680   -3.1800   -0.7460 C   0  0  0  0  0  0  0  0  0  0  0  0
   -5.6530   -1.1470   -0.8050 C   0  0  2  0  0  0  0  0  0  0  0  0
   -6.5400   -1.9600   -1.4550 F   0  0  0  0  0  0  0  0  0  0  0  0
   -5.3860   -0.0370   -1.5770 F   0  0  0  0  0  0  0  0  0  0  0  0
   -6.2760   -0.7070    0.3520 F   0  0  0  0  0  0  0  0  0  0  0  0
   -0.1760    0.2000    0.7480 C   0  0  0  0  0  0  0  0  0  0  0  0
   -0.1500   -0.9870    1.1380 O   0  0  0  0  0  0  0  0  0  0  0  0
    2.1600   -2.1940    0.4070 C   0  0  0  0  0  0  0  0  0  0  0  0
    3.1890   -3.3410    0.3320 C   0  0  0  0  0  0  0  0  0  0  0  0
    4.5680   -2.7670    0.6390 C   0  0  0  0  0  0  0  0  0  0  0  0
  1  2  2  0
  2  3  1  0
  3  4  2  0
  3 30  1  0
  4  5  1  0
  5  6  2  3
  5 28  1  0
  6  7  1  0
  7  8  1  0
  7 26  1  0
  8  9  2  0
  8 10  1  0
 10 11  2  3
 10 14  1  0
 11 12  1  0
 12 13  1  0
 14 15  2  0
 14 16  1  0
 16 17  1  0
 16 26  1  0
 17 18  1  0
 18 19  1  0
 19 20  1  0
 20 21  2  0
 20 22  1  0
 22 23  1  6
 22 24  1  0
 22 25  1  0
 26 27  2  0
 28 29  1  0
 29 30  1  0
M  END
