
     RDKit          3D

 31 34  0  0  0  0  0  0  0  0999 V2000
    7.5300    2.4810   -0.2130 O   0  0  0  0  0  0  0  0  0  0  0  0
    7.4960    1.3150    0.2260 C   0  0  0  0  0  0  0  0  0  0  0  0
    8.6490    0.7010    0.6760 O   0  0  0  0  0  0  0  0  0  0  0  0
    6.2160    0.5710    0.2710 C   0  0  0  0  0  0  0  0  0  0  0  0
    6.2530   -0.5820    0.7180 O   0  0  0  0  0  0  0  0  0  0  0  0
    5.0150    1.1350   -0.1700 N   0  0  0  0  0  0  0  0  0  0  0  0
    3.7190    0.5980   -0.2630 C   0  0  0  0  0  0  0  0  0  0  0  0
    2.2800    1.7150   -0.0900 S   0  0  0  0  0  0  0  0  0  0  0  0
    1.0600    0.5570   -0.3010 C   0  0  0  0  0  0  0  0  0  0  0  0
    1.7510   -0.6430   -0.5000 C   0  0  0  0  0  0  0  0  0  0  0  0
    3.0980   -0.5630   -0.4770 C   0  0  0  0  0  0  0  0  0  0  0  0
    3.8740   -1.7540   -0.9820 C   0  0  0  0  0  0  0  0  0  0  0  0
    3.3330   -2.8840   -1.1320 O   0  0  0  0  0  0  0  0  0  0  0  0
    5.1980   -1.7100   -1.3300 O   0  0  0  0  0  0  0  0  0  0  0  0
    0.7420   -1.7760   -0.6790 C   0  0  0  0  0  0  0  0  0  0  0  0
   -0.2200   -1.6340    0.4940 C   0  0  0  0  0  0  0  0  0  0  0  0
   -0.9510   -0.4770    0.4830 O   0  0  0  0  0  0  0  0  0  0  0  0
   -0.4400    0.4880   -0.3410 C   0  0  1  0  0  0  0  0  0  0  0  0
   -1.0090    1.8440   -0.0680 C   0  0  0  0  0  0  0  0  0  0  0  0
   -2.3970    1.9090   -0.2380 O   0  0  0  0  0  0  0  0  0  0  0  0
   -3.2840    1.1130    0.5260 C   0  0  0  0  0  0  0  0  0  0  0  0
   -2.9360    0.7930    1.7090 N   0  0  0  0  0  0  0  0  0  0  0  0
   -4.1990   -0.1650    2.3850 S   0  0  2  0  0  0  0  0  0  0  0  0
   -4.8180    0.4760    3.5790 O   0  0  0  0  0  0  0  0  0  0  0  0
   -3.6840   -1.5410    2.6580 O   0  0  0  0  0  0  0  0  0  0  0  0
   -5.2470   -0.1210    0.9850 C   0  0  0  0  0  0  0  0  0  0  0  0
   -6.4720   -0.6780    0.7750 C   0  0  0  0  0  0  0  0  0  0  0  0
   -7.1020   -0.4940   -0.4330 C   0  0  0  0  0  0  0  0  0  0  0  0
   -6.4450    0.2590   -1.3810 C   0  0  0  0  0  0  0  0  0  0  0  0
   -5.2090    0.8180   -1.1630 C   0  0  0  0  0  0  0  0  0  0  0  0
   -4.5540    0.6350    0.0730 C   0  0  0  0  0  0  0  0  0  0  0  0
  1  2  2  0
  2  3  1  0
  2  4  1  0
  4  5  2  0
  4  6  1  0
  6  7  1  0
  7  8  1  0
  7 11  2  0
  8  9  1  0
  9 10  2  0
  9 18  1  0
 10 11  1  0
 10 15  1  0
 11 12  1  0
 12 13  2  0
 12 14  1  0
 15 16  1  0
 16 17  1  0
 17 18  1  0
 18 19  1  1
 19 20  1  0
 20 21  1  0
 21 22  2  0
 21 31  1  0
 23 22  1  6
 23 24  2  0
 23 25  2  0
 23 26  1  0
 26 27  2  0
 26 31  1  0
 27 28  1  0
 28 29  2  0
 29 30  1  0
 30 31  2  0
M  END
