
     RDKit          3D

 15 16  0  0  0  0  0  0  0  0999 V2000
    4.5780    1.3320    0.4160 C   0  0  0  0  0  0  0  0  0  0  0  0
    4.1590   -0.1050    0.2010 C   0  0  0  0  0  0  0  0  0  0  0  0
    2.8020   -0.1450   -0.4210 C   0  0  0  0  0  0  0  0  0  0  0  0
    2.5750   -0.1490   -1.7590 N   0  0  0  0  0  0  0  0  0  0  0  0
    1.2630   -0.1880   -2.0000 C   0  0  0  0  0  0  0  0  0  0  0  0
    0.6350   -0.2100   -0.7730 C   0  0  0  0  0  0  0  0  0  0  0  0
    1.6040   -0.1820    0.1560 N   0  0  0  0  0  0  0  0  0  0  0  0
    1.0420   -0.2020    1.4960 C   0  0  0  0  0  0  0  0  0  0  0  0
   -0.4250   -0.3930    1.3290 C   0  0  0  0  0  0  0  0  0  0  0  0
   -0.6920   -0.2510   -0.1200 C   0  0  0  0  0  0  0  0  0  0  0  0
   -1.8380   -0.1720   -0.7600 C   0  0  0  0  0  0  0  0  0  0  0  0
   -3.1180   -0.2200   -0.0400 C   0  0  0  0  0  0  0  0  0  0  0  0
   -3.1560   -0.3390    1.2070 O   0  0  0  0  0  0  0  0  0  0  0  0
   -4.3520   -0.1360   -0.7210 N   0  0  0  0  0  0  0  0  0  0  0  0
   -5.6250   -0.1820   -0.0240 C   0  0  0  0  0  0  0  0  0  0  0  0
  1  2  1  0
  2  3  1  0
  3  4  2  0
  3  7  1  0
  4  5  1  0
  5  6  2  0
  6  7  1  0
  6 10  1  0
  7  8  1  0
  8  9  1  0
  9 10  1  0
 10 11  2  3
 11 12  1  0
 12 13  2  0
 12 14  1  0
 14 15  1  0
M  END
