
     RDKit          3D

 16 17  0  0  0  0  0  0  0  0999 V2000
   -0.4930    2.5450   -0.7810 O   0  0  0  0  0  0  0  0  0  0  0  0
   -1.7310    1.9840   -0.4640 C   0  0  0  0  0  0  0  0  0  0  0  0
   -1.8000    1.0210    0.4340 C   0  0  0  0  0  0  0  0  0  0  0  0
   -3.1770    0.5330    0.6590 C   0  0  0  0  0  0  0  0  0  0  0  0
   -3.3450   -0.9080    0.2020 C   0  0  0  0  0  0  0  0  0  0  0  0
   -2.1110   -1.2450   -0.6090 C   0  0  0  0  0  0  0  0  0  0  0  0
   -1.0340   -1.6420    0.3450 C   0  0  0  0  0  0  0  0  0  0  0  0
    0.0140   -0.6050    0.4460 N   0  0  0  0  0  0  0  0  0  0  0  0
    0.9780   -1.1640    1.3650 C   0  0  0  0  0  0  0  0  0  0  0  0
    2.1840   -0.3610    1.6340 C   0  0  0  0  0  0  0  0  0  0  0  0
    3.0390   -0.0640    0.4710 C   0  0  0  0  0  0  0  0  0  0  0  0
    4.0920   -0.7920   -0.0500 C   0  0  0  0  0  0  0  0  0  0  0  0
    4.5470   -0.1060   -1.1000 N   0  0  0  0  0  0  0  0  0  0  0  0
    3.8580    0.9980   -1.2760 N   0  0  0  0  0  0  0  0  0  0  0  0
    2.9180    1.0550   -0.3230 C   0  0  0  0  0  0  0  0  0  0  0  0
   -0.5420    0.5950    1.0500 C   0  0  0  0  0  0  0  0  0  0  0  0
  1  2  1  0
  2  3  2  3
  3  4  1  0
  3 16  1  0
  4  5  1  0
  5  6  1  0
  6  7  1  0
  7  8  1  0
  8  9  1  0
  8 16  1  0
  9 10  1  0
 10 11  1  0
 11 12  1  0
 11 15  2  0
 12 13  2  0
 13 14  1  0
 14 15  1  0
M  END
