
     RDKit          3D

 16 17  0  0  0  0  0  0  0  0999 V2000
    4.5970   -1.9960   -0.9870 C   0  0  0  0  0  0  0  0  0  0  0  0
    3.5780   -1.2590   -0.5800 C   0  0  0  0  0  0  0  0  0  0  0  0
    2.1940   -1.6190   -0.8550 C   0  0  0  0  0  0  0  0  0  0  0  0
    1.2140   -0.8430   -0.4220 C   0  0  0  0  0  0  0  0  0  0  0  0
   -0.1790   -1.2280   -0.7140 C   0  0  0  0  0  0  0  0  0  0  0  0
   -0.3700   -2.2850   -1.3660 O   0  0  0  0  0  0  0  0  0  0  0  0
   -1.2690   -0.4180   -0.2640 N   0  0  0  0  0  0  0  0  0  0  0  0
   -1.2110    0.8080    0.4920 C   0  0  0  0  0  0  0  0  0  0  0  0
   -2.6530    1.0560    0.8760 C   0  0  0  0  0  0  0  0  0  0  0  0
   -3.3830    0.5600   -0.3520 C   0  0  2  0  0  0  0  0  0  0  0  0
   -4.8470    0.3810   -0.1470 C   0  0  0  0  0  0  0  0  0  0  0  0
   -2.6530   -0.7760   -0.5490 C   0  0  0  0  0  0  0  0  0  0  0  0
    1.5160    0.3400    0.3090 N   0  0  0  0  0  0  0  0  0  0  0  0
    2.6930    0.7470    0.6040 C   0  0  0  0  0  0  0  0  0  0  0  0
    2.9450    2.0020    1.3780 C   0  0  0  0  0  0  0  0  0  0  0  0
    3.7930   -0.0650    0.1550 N   0  0  0  0  0  0  0  0  0  0  0  0
  1  2  2  0
  2  3  1  0
  2 16  1  0
  3  4  2  0
  4  5  1  0
  4 13  1  0
  5  6  2  0
  5  7  1  0
  7  8  1  0
  7 12  1  0
  8  9  1  0
  9 10  1  0
 10 11  1  1
 10 12  1  0
 13 14  2  0
 14 15  1  0
 14 16  1  0
M  END
