
     RDKit          3D

 11 10  0  0  0  0  0  0  0  0999 V2000
   -4.1830    0.1180    0.0040 C   0  0  0  0  0  0  0  0  0  0  0  0
   -2.8600    0.3770   -0.3530 O   0  0  0  0  0  0  0  0  0  0  0  0
   -1.7780    0.3720    0.5180 C   0  0  0  0  0  0  0  0  0  0  0  0
   -2.0000    0.1140    1.7280 O   0  0  0  0  0  0  0  0  0  0  0  0
   -0.4210    0.6690   -0.0240 C   0  0  0  0  0  0  0  0  0  0  0  0
    0.4110   -0.5700   -0.0950 C   0  0  0  0  0  0  0  0  0  0  0  0
   -0.0770   -1.6250    0.2680 O   0  0  0  0  0  0  0  0  0  0  0  0
    1.7960   -0.5300   -0.5940 C   0  0  0  0  0  0  0  0  0  0  0  0
    2.9320   -0.2160    0.8310 P   0  0  0  0  0  0  0  0  0  0  0  0
    3.3630    1.4580    0.9730 O   0  0  0  0  0  0  0  0  0  0  0  0
    4.3390   -1.2290    0.7950 O   0  0  0  0  0  0  0  0  0  0  0  0
  1  2  1  0
  2  3  1  0
  3  4  2  0
  3  5  1  0
  5  6  1  0
  6  7  2  0
  6  8  1  0
  8  9  1  0
  9 10  1  0
  9 11  1  0
M  END
