
     RDKit          3D

 10  9  0  0  0  0  0  0  0  0999 V2000
   -1.7920   -1.0200   -1.1760 O   0  0  0  0  0  0  0  0  0  0  0  0
   -1.0810   -0.3550   -0.3720 C   0  0  0  0  0  0  0  0  0  0  0  0
    0.3740   -0.6570   -0.3420 C   0  0  0  0  0  0  0  0  0  0  0  0
    1.0710    0.2330    0.6770 C   0  0  0  0  0  0  0  0  0  0  0  0
    2.8630   -0.1990    0.6570 P   0  0  0  0  0  0  0  0  0  0  0  0
    3.3500   -0.9410   -0.8300 O   0  0  0  0  0  0  0  0  0  0  0  0
    3.8880    1.1200    1.0290 O   0  0  0  0  0  0  0  0  0  0  0  0
   -1.6750    0.6080    0.4310 O   0  0  0  0  0  0  0  0  0  0  0  0
   -3.0890    0.7950    0.2980 C   0  0  0  0  0  0  0  0  0  0  0  0
   -3.6690   -0.4270    0.6150 O   0  0  0  0  0  0  0  0  0  0  0  0
  1  2  2  0
  2  3  1  0
  2  8  1  0
  3  4  1  0
  4  5  1  0
  5  6  1  0
  5  7  1  0
  8  9  1  0
  9 10  1  0
M  END
