
     RDKit          3D

 11 10  0  0  0  0  0  0  0  0999 V2000
    2.8340    0.0950    1.2250 O   0  0  0  0  0  0  0  0  0  0  0  0
    3.4310    0.4300    0.1730 C   0  0  0  0  0  0  0  0  0  0  0  0
    4.8280    0.6160    0.1500 O   0  0  0  0  0  0  0  0  0  0  0  0
    2.6580    0.6070   -0.9550 O   0  0  0  0  0  0  0  0  0  0  0  0
    1.2560    0.4280   -0.9660 C   0  0  0  0  0  0  0  0  0  0  0  0
    0.8290   -0.9470   -0.5990 C   0  0  0  0  0  0  0  0  0  0  0  0
   -0.6720   -1.0580   -0.6430 C   0  0  0  0  0  0  0  0  0  0  0  0
   -1.3960   -0.1380    0.2870 C   0  0  0  0  0  0  0  0  0  0  0  0
   -3.2540   -0.3780    0.1450 P   0  0  0  0  0  0  0  0  0  0  0  0
   -3.8740    0.8060   -0.9880 O   0  0  0  0  0  0  0  0  0  0  0  0
   -4.0280   -0.0680    1.6690 O   0  0  0  0  0  0  0  0  0  0  0  0
  1  2  2  0
  2  3  1  0
  2  4  1  0
  4  5  1  0
  5  6  1  0
  6  7  1  0
  7  8  1  0
  8  9  1  0
  9 10  1  0
  9 11  1  0
M  END
