
     RDKit          3D

 11 10  0  0  0  0  0  0  0  0999 V2000
   -3.9510    0.3030   -0.8930 C   0  0  0  0  0  0  0  0  0  0  0  0
   -2.8620   -0.4950   -1.2410 O   0  0  0  0  0  0  0  0  0  0  0  0
   -2.1270   -1.2330    0.1020 P   0  0  0  0  0  0  0  0  0  0  0  0
   -3.1850   -1.7380    1.3300 O   0  0  0  0  0  0  0  0  0  0  0  0
   -0.6350   -0.3280    0.7230 C   0  0  0  0  0  0  0  0  0  0  0  0
    0.4680   -0.5360   -0.2620 C   0  0  0  0  0  0  0  0  0  0  0  0
    1.7270    0.1250    0.0940 C   0  0  0  0  0  0  0  0  0  0  0  0
    1.9210    0.8180    1.1210 O   0  0  0  0  0  0  0  0  0  0  0  0
    2.8060   -0.0160   -0.7670 O   0  0  0  0  0  0  0  0  0  0  0  0
    4.0530    0.6020   -0.4760 C   0  0  0  0  0  0  0  0  0  0  0  0
    4.4750    0.0680    0.7550 O   0  0  0  0  0  0  0  0  0  0  0  0
  1  2  1  0
  2  3  1  0
  3  4  1  0
  3  5  1  0
  5  6  1  0
  6  7  1  0
  7  8  2  0
  7  9  1  0
  9 10  1  0
 10 11  1  0
M  END
