
     RDKit          3D

 20 19  0  0  0  0  0  0  0  0999 V2000
   -6.4830   -0.6600   -0.8160 N   0  0  0  0  0  0  0  0  0  0  0  0
   -6.4610   -1.3960    0.3940 C   0  0  0  0  0  0  0  0  0  0  0  0
   -7.5670   -1.8300    0.7990 O   0  0  0  0  0  0  0  0  0  0  0  0
   -5.1680   -1.6250    1.1250 C   0  0  0  0  0  0  0  0  0  0  0  0
   -4.1910   -1.0500    0.4600 O   0  0  0  0  0  0  0  0  0  0  0  0
   -2.8990   -1.0730    0.8570 C   0  0  1  0  0  0  0  0  0  0  0  0
   -1.9330   -1.7790    0.0410 C   0  0  0  0  0  0  0  0  0  0  0  0
   -0.5800   -1.6550    0.3330 O   0  0  0  0  0  0  0  0  0  0  0  0
    0.2110   -0.5550    0.0500 C   0  0  0  0  0  0  0  0  0  0  0  0
   -0.2470    0.4560   -0.5430 O   0  0  0  0  0  0  0  0  0  0  0  0
    1.9230   -0.6310    0.5680 S   0  0  0  0  0  0  0  0  0  0  0  0
    2.7970    0.9110    0.1140 C   0  0  0  0  0  0  0  0  0  0  0  0
    4.2160    0.7400    0.5940 C   0  0  0  0  0  0  0  0  0  0  0  0
    4.4810    1.0920    1.7100 O   0  0  0  0  0  0  0  0  0  0  0  0
    5.1940    0.1420   -0.3550 C   0  0  0  0  0  0  0  0  0  0  0  0
    6.1070    1.2600   -0.8180 C   0  0  0  0  0  0  0  0  0  0  0  0
    6.7670    1.8030    0.3390 N   0  0  0  0  0  0  0  0  0  0  0  0
   -2.5130    0.2420    1.3400 C   0  0  0  0  0  0  0  0  0  0  0  0
   -3.2680    1.4240    1.1150 N   0  0  0  0  0  0  0  0  0  0  0  0
   -1.4410    0.4520    2.0220 O   0  0  0  0  0  0  0  0  0  0  0  0
  1  2  1  0
  2  3  2  0
  2  4  1  0
  4  5  1  0
  5  6  1  0
  6  7  1  6
  6 18  1  0
  7  8  1  0
  8  9  1  0
  9 10  2  0
  9 11  1  0
 11 12  1  0
 12 13  1  0
 13 14  2  0
 13 15  1  0
 15 16  1  0
 16 17  1  0
 18 19  1  0
 18 20  2  0
M  CHG  1  17   1
M  END
