
     RDKit          3D

 20 19  0  0  0  0  0  0  0  0999 V2000
   -4.3780   -0.5810    0.3360 N   0  0  0  0  0  0  0  0  0  0  0  0
   -3.7770    0.5040   -0.4200 C   0  0  1  0  0  0  0  0  0  0  0  0
   -3.0240   -0.0280   -1.6180 C   0  0  0  0  0  0  0  0  0  0  0  0
   -1.9260   -0.9750   -1.2790 C   0  0  0  0  0  0  0  0  0  0  0  0
   -0.8780   -0.3840   -0.4250 C   0  0  0  0  0  0  0  0  0  0  0  0
   -0.9200    0.8300   -0.0880 O   0  0  0  0  0  0  0  0  0  0  0  0
    0.2280   -1.1170    0.0710 N   0  0  0  0  0  0  0  0  0  0  0  0
    1.2200   -0.4890    0.8960 C   0  0  1  0  0  0  0  0  0  0  0  0
    1.4300   -1.1830    2.2190 C   0  0  0  0  0  0  0  0  0  0  0  0
    1.9730   -2.9000    1.9840 S   0  0  0  0  0  0  0  0  0  0  0  0
    2.5530   -0.4510    0.2320 C   0  0  0  0  0  0  0  0  0  0  0  0
    2.8700   -1.2690   -0.6750 O   0  0  0  0  0  0  0  0  0  0  0  0
    3.5480    0.5140    0.5790 N   0  0  0  0  0  0  0  0  0  0  0  0
    4.8400    0.5070   -0.0910 C   0  0  0  0  0  0  0  0  0  0  0  0
    5.6970    1.6420    0.3610 C   0  0  0  0  0  0  0  0  0  0  0  0
    5.2550    2.4600    1.2390 O   0  0  0  0  0  0  0  0  0  0  0  0
    6.9660    1.8340   -0.1490 O   0  0  0  0  0  0  0  0  0  0  0  0
   -4.8680    1.3530   -0.9430 C   0  0  0  0  0  0  0  0  0  0  0  0
   -6.0570    1.0320   -0.7240 O   0  0  0  0  0  0  0  0  0  0  0  0
   -4.6420    2.5160   -1.6840 O   0  0  0  0  0  0  0  0  0  0  0  0
  2  1  1  6
  2  3  1  0
  2 18  1  0
  3  4  1  0
  4  5  1  0
  5  6  2  0
  5  7  1  0
  7  8  1  0
  8  9  1  1
  8 11  1  0
  9 10  1  0
 11 12  2  0
 11 13  1  0
 13 14  1  0
 14 15  1  0
 15 16  2  0
 15 17  1  0
 18 19  2  0
 18 20  1  0
M  CHG  1   1   1
M  END
