
     RDKit          3D

 19 18  0  0  0  0  0  0  0  0999 V2000
   -2.0040   -2.6780   -0.4310 C   0  0  0  0  0  0  0  0  0  0  0  0
   -1.5550   -1.6380    0.4490 N   0  0  0  0  0  0  0  0  0  0  0  0
   -0.3610   -1.0270   -0.0240 C   0  0  1  0  0  0  0  0  0  0  0  0
    0.6580   -2.0830   -0.3420 C   0  0  0  0  0  0  0  0  0  0  0  0
    0.9680   -2.8650    0.9120 C   0  0  0  0  0  0  0  0  0  0  0  0
    1.9340   -3.8590    0.6500 O   0  0  0  0  0  0  0  0  0  0  0  0
   -0.5670   -0.1390   -1.2280 C   0  0  0  0  0  0  0  0  0  0  0  0
   -1.5230    0.9900   -0.9370 C   0  0  0  0  0  0  0  0  0  0  0  0
   -1.7170    1.8240   -2.0630 O   0  0  0  0  0  0  0  0  0  0  0  0
   -2.5550    2.9180   -2.0100 C   0  0  0  0  0  0  0  0  0  0  0  0
   -2.7940    3.7900   -3.0960 N   0  0  0  0  0  0  0  0  0  0  0  0
   -3.1460    3.1550   -0.9250 O   0  0  0  0  0  0  0  0  0  0  0  0
    0.2660   -0.1460    1.0180 C   0  0  0  0  0  0  0  0  0  0  0  0
   -0.2890   -0.0380    2.1400 O   0  0  0  0  0  0  0  0  0  0  0  0
    1.4280    0.5570    0.8060 O   0  0  0  0  0  0  0  0  0  0  0  0
    2.0400    1.3940    1.7690 C   0  0  0  0  0  0  0  0  0  0  0  0
    3.2640    1.9590    1.1440 C   0  0  0  0  0  0  0  0  0  0  0  0
    4.1080    2.8490    1.8640 N   0  0  0  0  0  0  0  0  0  0  0  0
    3.6110    1.6790   -0.0490 O   0  0  0  0  0  0  0  0  0  0  0  0
  1  2  1  0
  2  3  1  0
  3  4  1  6
  3  7  1  0
  3 13  1  0
  4  5  1  0
  5  6  1  0
  7  8  1  0
  8  9  1  0
  9 10  1  0
 10 11  1  0
 10 12  2  0
 13 14  2  0
 13 15  1  0
 15 16  1  0
 16 17  1  0
 17 18  1  0
 17 19  2  0
M  CHG  1   2   1
M  END
