
     RDKit          3D

 20 19  0  0  0  0  0  0  0  0999 V2000
    4.9150    2.2410    0.4580 C   0  0  0  0  0  0  0  0  0  0  0  0
    4.4300    0.8780    0.0230 C   0  0  2  0  0  0  0  0  0  0  0  0
    2.9960    0.9440    0.0460 O   0  0  0  0  0  0  0  0  0  0  0  0
    2.2490    0.7720   -1.0980 C   0  0  0  0  0  0  0  0  0  0  0  0
    2.8660    0.5550   -2.1730 O   0  0  0  0  0  0  0  0  0  0  0  0
    0.7410    0.8380   -1.0860 C   0  0  0  0  0  0  0  0  0  0  0  0
    0.3080    1.0850    0.1980 O   0  0  0  0  0  0  0  0  0  0  0  0
   -1.0480    1.1970    0.3570 C   0  0  0  0  0  0  0  0  0  0  0  0
   -1.7250   -0.0760   -0.0640 C   0  0  0  0  0  0  0  0  0  0  0  0
   -3.1090    0.1390    0.1440 O   0  0  0  0  0  0  0  0  0  0  0  0
   -3.7630   -1.0210   -0.2370 C   0  0  2  0  0  0  0  0  0  0  0  0
   -4.7220   -0.6930   -1.3120 C   0  0  0  0  0  0  0  0  0  0  0  0
   -4.8170    0.6550   -1.7520 N   0  0  0  0  0  0  0  0  0  0  0  0
   -5.4340   -1.6090   -1.8140 O   0  0  0  0  0  0  0  0  0  0  0  0
   -4.4710   -1.5400    0.9790 C   0  0  0  0  0  0  0  0  0  0  0  0
   -5.2230   -2.7290    0.8610 N   0  0  0  0  0  0  0  0  0  0  0  0
   -4.4100   -0.9460    2.0830 O   0  0  0  0  0  0  0  0  0  0  0  0
    4.9350   -0.1280    0.9780 C   0  0  0  0  0  0  0  0  0  0  0  0
    4.6610   -1.5230    0.8620 N   0  0  0  0  0  0  0  0  0  0  0  0
    5.7360    0.2860    2.0770 S   0  0  0  0  0  0  0  0  0  0  0  0
  2  1  1  1
  2  3  1  0
  2 18  1  0
  3  4  1  0
  4  5  2  0
  4  6  1  0
  6  7  1  0
  7  8  1  0
  8  9  1  0
  9 10  1  0
 11 10  1  1
 11 12  1  0
 11 15  1  0
 12 13  1  0
 12 14  2  0
 15 16  1  0
 15 17  2  0
 18 19  1  0
 18 20  2  0
M  CHG  1  19   1
M  END
