
     RDKit          3D

 20 19  0  0  0  0  0  0  0  0999 V2000
   -2.7930    2.3310    2.1230 C   0  0  0  0  0  0  0  0  0  0  0  0
   -2.6780    1.8330    0.8250 O   0  0  0  0  0  0  0  0  0  0  0  0
   -1.7550    0.7830    0.7540 C   0  0  0  0  0  0  0  0  0  0  0  0
   -1.7220    0.3360   -0.6870 C   0  0  1  0  0  0  0  0  0  0  0  0
   -0.7700   -0.7940   -0.9230 C   0  0  0  0  0  0  0  0  0  0  0  0
    0.6130   -0.4440   -0.5740 N   0  0  0  0  0  0  0  0  0  0  0  0
    1.5040   -0.7110   -1.6840 C   0  0  0  0  0  0  0  0  0  0  0  0
    2.9900   -1.4620   -1.1360 S   0  0  0  0  0  0  0  0  0  0  0  0
    4.1310   -0.5560   -0.1640 C   0  0  2  0  0  0  0  0  0  0  0  0
    3.5280   -0.2430    1.1870 C   0  0  0  0  0  0  0  0  0  0  0  0
    3.1860   -1.4010    1.8790 O   0  0  0  0  0  0  0  0  0  0  0  0
    4.5760    0.7440   -0.7250 C   0  0  0  0  0  0  0  0  0  0  0  0
    5.5040    1.4780    0.0650 N   0  0  0  0  0  0  0  0  0  0  0  0
    4.2250    1.2450   -1.7980 O   0  0  0  0  0  0  0  0  0  0  0  0
   -3.0690   -0.0890   -1.1150 C   0  0  0  0  0  0  0  0  0  0  0  0
   -3.6790    0.4750   -2.0720 O   0  0  0  0  0  0  0  0  0  0  0  0
   -3.7680   -1.1580   -0.4810 N   0  0  0  0  0  0  0  0  0  0  0  0
   -5.0730   -1.5580   -0.9070 C   0  0  0  0  0  0  0  0  0  0  0  0
   -5.6120   -0.9600   -1.8520 O   0  0  0  0  0  0  0  0  0  0  0  0
   -5.7680   -2.5910   -0.3070 O   0  0  0  0  0  0  0  0  0  0  0  0
  1  2  1  0
  2  3  1  0
  4  3  1  1
  4  5  1  0
  4 15  1  0
  5  6  1  0
  6  7  1  0
  7  8  1  0
  8  9  1  0
  9 10  1  1
  9 12  1  0
 10 11  1  0
 12 13  1  0
 12 14  2  0
 15 16  2  0
 15 17  1  0
 17 18  1  0
 18 19  2  0
 18 20  1  0
M  CHG  1   6   1
M  END
