
     RDKit          3D

 21 21  0  0  0  0  0  0  0  0999 V2000
    0.4670    0.1770    2.3390 C   0  0  0  0  0  0  0  0  0  0  0  0
   -0.8410   -0.2760    2.0310 O   0  0  0  0  0  0  0  0  0  0  0  0
   -1.1790   -0.8070    0.7850 C   0  0  0  0  0  0  0  0  0  0  0  0
   -2.1720   -0.3300    0.0670 C   0  0  0  0  0  0  0  0  0  0  0  0
   -2.9920    0.7810    0.5130 C   0  0  0  0  0  0  0  0  0  0  0  0
   -2.7280    1.2920    1.6250 O   0  0  0  0  0  0  0  0  0  0  0  0
   -4.1150    1.3240   -0.2930 C   0  0  0  0  0  0  0  0  0  0  0  0
   -4.2640    0.6390   -1.4940 O   0  0  0  0  0  0  0  0  0  0  0  0
   -5.2480    1.1330   -2.1740 O   0  0  0  0  0  0  0  0  0  0  0  0
   -0.4110   -1.8950    0.2990 N   0  0  0  0  0  0  0  0  0  0  0  0
    0.6990   -1.7410   -0.3250 C   0  0  0  0  0  0  0  0  0  0  0  0
    1.1970   -0.5110   -0.5510 N   0  0  0  0  0  0  0  0  0  0  0  0
    2.3560   -0.3160   -1.2020 C   0  0  0  0  0  0  0  0  0  0  0  0
    2.7880    0.9780   -1.3880 O   0  0  0  0  0  0  0  0  0  0  0  0
    3.5940    1.6610   -0.5040 C   0  0  0  0  0  0  0  0  0  0  0  0
    3.9530    1.0480    0.5420 O   0  0  0  0  0  0  0  0  0  0  0  0
    4.0130    2.9570   -0.7150 O   0  0  0  0  0  0  0  0  0  0  0  0
    3.0160   -1.4020   -1.6260 N   0  0  0  0  0  0  0  0  0  0  0  0
    2.5270   -2.6560   -1.4060 C   0  0  0  0  0  0  0  0  0  0  0  0
    3.1830   -3.6450   -1.8240 O   0  0  0  0  0  0  0  0  0  0  0  0
    1.3580   -2.8110   -0.7480 N   0  0  0  0  0  0  0  0  0  0  0  0
  1  2  1  0
  2  3  1  0
  3  4  2  3
  3 10  1  0
  4  5  1  0
  5  6  2  0
  5  7  1  0
  7  8  1  0
  8  9  1  0
 10 11  2  3
 11 12  1  0
 11 21  1  0
 12 13  2  0
 13 14  1  0
 13 18  1  0
 14 15  1  0
 15 16  2  0
 15 17  1  0
 18 19  1  0
 19 20  2  0
 19 21  1  0
M  END
