
     RDKit          3D

 10  9  0  0  0  0  0  0  0  0999 V2000
   -2.1570    0.3280   -1.3030 C   0  0  0  0  0  0  0  0  0  0  0  0
   -1.7790    0.3030    0.1880 C   0  0  1  0  0  0  0  0  0  0  0  0
   -2.3130   -0.9260    0.7720 C   0  0  0  0  0  0  0  0  0  0  0  0
   -0.3700    0.6810    0.3910 C   0  0  0  0  0  0  0  0  0  0  0  0
    0.6930   -0.1270   -0.2450 C   0  0  2  0  0  0  0  0  0  0  0  0
    0.6130   -1.4960    0.2450 N   0  0  0  0  0  0  0  0  0  0  0  0
    2.2460    0.6540   -0.1870 P   0  0  0  0  0  0  0  0  0  0  0  0
    3.3410    0.5340   -1.3790 O   0  0  0  0  0  0  0  0  0  0  0  0
    2.9710   -0.3060    0.7580 O   0  0  0  0  0  0  0  0  0  0  0  0
    2.5420    1.8590    1.0030 O   0  0  0  0  0  0  0  0  0  0  0  0
  2  1  1  6
  2  3  1  0
  2  4  1  0
  4  5  1  0
  5  6  1  1
  5  7  1  0
  7  8  1  0
  7  9  1  0
  7 10  1  0
M  CHG  1   6   1
M  END
