
     RDKit          3D

 21 21  0  0  0  0  0  0  0  0999 V2000
    4.6910    1.0690   -0.1300 C   0  0  0  0  0  0  0  0  0  0  0  0
    4.1550   -0.2200   -0.6550 C   0  0  2  0  0  0  0  0  0  0  0  0
    4.5550   -0.5230   -1.9570 O   0  0  0  0  0  0  0  0  0  0  0  0
    5.0310   -1.7300   -1.9410 O   0  0  0  0  0  0  0  0  0  0  0  0
    6.3420   -1.7010   -1.7360 O   0  0  0  0  0  0  0  0  0  0  0  0
    2.6850   -0.2350   -0.6590 C   0  0  0  0  0  0  0  0  0  0  0  0
    1.9620   -0.5520   -1.6310 O   0  0  0  0  0  0  0  0  0  0  0  0
    1.9420    0.1290    0.4720 N   0  0  0  0  0  0  0  0  0  0  0  0
    0.5710    0.0600    0.5130 C   0  0  0  0  0  0  0  0  0  0  0  0
    0.2150    0.9730    1.4220 N   0  0  0  0  0  0  0  0  0  0  0  0
   -1.1770    1.0330    1.5480 O   0  0  0  0  0  0  0  0  0  0  0  0
   -1.7680    2.0910    0.7700 C   0  0  0  0  0  0  0  0  0  0  0  0
   -3.2050    1.7630    0.5730 C   0  0  0  0  0  0  0  0  0  0  0  0
   -3.6750    0.7380    1.3700 O   0  0  0  0  0  0  0  0  0  0  0  0
   -4.7090    0.0510    0.6930 C   0  0  0  0  0  0  0  0  0  0  0  0
   -4.0830   -1.0400   -0.1500 C   0  0  0  0  0  0  0  0  0  0  0  0
   -3.4050   -1.9930    0.5860 O   0  0  0  0  0  0  0  0  0  0  0  0
   -2.4160   -1.8810    1.5130 C   0  0  0  0  0  0  0  0  0  0  0  0
   -2.6660   -2.4700    2.6400 O   0  0  0  0  0  0  0  0  0  0  0  0
   -1.1920   -1.2290    1.4130 N   0  0  0  0  0  0  0  0  0  0  0  0
   -0.5740   -0.7790    0.1340 C   0  0  0  0  0  0  0  0  0  0  0  0
  2  1  1  6
  2  3  1  0
  2  6  1  0
  3  4  1  0
  4  5  1  0
  6  7  2  0
  6  8  1  0
  8  9  1  0
  9 10  2  0
  9 21  1  0
 10 11  1  0
 11 12  1  0
 12 13  1  0
 13 14  1  0
 14 15  1  0
 15 16  1  0
 16 17  1  0
 17 18  1  0
 18 19  2  0
 18 20  1  0
 20 21  1  0
M  END
