
     RDKit          3D

 39 41  0  0  0  0  0  0  0  0999 V2000
   -4.8250   -1.8180   -2.8060 C   0  0  0  0  0  0  0  0  0  0  0  0
   -5.0370   -2.7000   -1.6310 C   0  0  0  0  0  0  0  0  0  0  0  0
   -5.1730   -4.0550   -1.9280 C   0  0  0  0  0  0  0  0  0  0  0  0
   -5.4030   -4.9660   -0.9510 C   0  0  0  0  0  0  0  0  0  0  0  0
   -5.4990   -4.5270    0.3380 C   0  0  0  0  0  0  0  0  0  0  0  0
   -5.3650   -3.1900    0.6390 C   0  0  0  0  0  0  0  0  0  0  0  0
   -5.4790   -2.7790    2.0530 C   0  0  0  0  0  0  0  0  0  0  0  0
   -5.1260   -2.2230   -0.3520 C   0  0  0  0  0  0  0  0  0  0  0  0
   -4.9950   -0.9370   -0.0410 O   0  0  0  0  0  0  0  0  0  0  0  0
   -4.0640   -0.0600    0.3720 C   0  0  0  0  0  0  0  0  0  0  0  0
   -2.8510    0.2070   -0.3800 C   0  0  0  0  0  0  0  0  0  0  0  0
   -2.4590   -0.3000   -1.4430 O   0  0  0  0  0  0  0  0  0  0  0  0
   -1.9710    1.2100    0.1920 N   0  0  0  0  0  0  0  0  0  0  0  0
   -0.7210    1.5940   -0.4330 C   0  0  1  0  0  0  0  0  0  0  0  0
   -0.8850    2.9840   -0.9310 C   0  0  0  0  0  0  0  0  0  0  0  0
   -1.2400    4.0150    0.0480 C   0  0  0  0  0  0  0  0  0  0  0  0
   -2.6070    4.1980    0.3330 C   0  0  0  0  0  0  0  0  0  0  0  0
   -3.0620    5.1390    1.2200 C   0  0  0  0  0  0  0  0  0  0  0  0
   -2.1880    5.9640    1.8850 C   0  0  0  0  0  0  0  0  0  0  0  0
   -0.8570    5.8170    1.6340 C   0  0  0  0  0  0  0  0  0  0  0  0
   -0.4120    4.8590    0.7330 C   0  0  0  0  0  0  0  0  0  0  0  0
    0.4970    1.2530    0.3490 C   0  0  1  0  0  0  0  0  0  0  0  0
    0.5380   -0.0950    0.6170 O   0  0  0  0  0  0  0  0  0  0  0  0
    1.7550    1.8330   -0.2050 C   0  0  0  0  0  0  0  0  0  0  0  0
    2.9990    1.4460    0.5740 C   0  0  2  0  0  0  0  0  0  0  0  0
    4.1920    2.1910    0.0810 C   0  0  0  0  0  0  0  0  0  0  0  0
    4.6840    2.0660   -1.2880 C   0  0  1  0  0  0  0  0  0  0  0  0
    5.8860    3.0590   -1.4860 C   0  0  0  0  0  0  0  0  0  0  0  0
    5.3890    0.7020   -1.4510 C   0  0  0  0  0  0  0  0  0  0  0  0
    3.2060    0.0370    0.6760 N   0  0  0  0  0  0  0  0  0  0  0  0
    2.9100   -0.9300   -0.2950 C   0  0  0  0  0  0  0  0  0  0  0  0
    2.4240   -0.5540   -1.3860 O   0  0  0  0  0  0  0  0  0  0  0  0
    3.1280   -2.3720   -0.1270 C   0  0  0  0  0  0  0  0  0  0  0  0
    2.7500   -3.2600   -1.1020 C   0  0  0  0  0  0  0  0  0  0  0  0
    2.9570   -4.6010   -0.9450 C   0  0  0  0  0  0  0  0  0  0  0  0
    3.5480   -5.1060    0.1910 C   0  0  0  0  0  0  0  0  0  0  0  0
    3.9320   -4.2260    1.1770 C   0  0  0  0  0  0  0  0  0  0  0  0
    4.5510   -4.7030    2.3760 N   0  0  0  0  0  0  0  0  0  0  0  0
    3.7180   -2.8520    1.0100 C   0  0  0  0  0  0  0  0  0  0  0  0
  1  2  1  0
  2  3  2  0
  2  8  1  0
  3  4  1  0
  4  5  2  0
  5  6  1  0
  6  7  1  0
  6  8  2  0
  8  9  1  0
  9 10  1  0
 10 11  1  0
 11 12  2  0
 11 13  1  0
 13 14  1  0
 14 15  1  1
 14 22  1  0
 15 16  1  0
 16 17  2  0
 16 21  1  0
 17 18  1  0
 18 19  2  0
 19 20  1  0
 20 21  2  0
 22 23  1  6
 22 24  1  0
 25 24  1  6
 25 26  1  0
 25 30  1  0
 26 27  1  0
 27 28  1  1
 27 29  1  0
 30 31  1  0
 31 32  2  0
 31 33  1  0
 33 34  2  0
 33 39  1  0
 34 35  1  0
 35 36  2  0
 36 37  1  0
 37 38  1  0
 37 39  2  0
M  END
