
     RDKit          3D

 38 39  0  0  0  0  0  0  0  0999 V2000
    4.3270   -3.0870    1.5270 C   0  0  0  0  0  0  0  0  0  0  0  0
    3.4250   -3.0590    0.4450 O   0  0  0  0  0  0  0  0  0  0  0  0
    2.2110   -2.2090    0.6060 C   0  0  0  0  0  0  0  0  0  0  0  0
    2.5630   -0.9680    0.5990 C   0  0  0  0  0  0  0  0  0  0  0  0
    1.7850    0.2790    0.7210 C   0  0  2  0  0  0  0  0  0  0  0  0
    2.1490    1.1290   -0.4210 N   0  0  0  0  0  0  0  0  0  0  0  0
    3.5130    1.4560   -0.2880 N   0  0  0  0  0  0  0  0  0  0  0  0
    4.1310    2.3640   -1.2300 C   0  0  0  0  0  0  0  0  0  0  0  0
    3.3980    2.8260   -2.1380 O   0  0  0  0  0  0  0  0  0  0  0  0
    5.4700    2.7140   -1.1410 O   0  0  0  0  0  0  0  0  0  0  0  0
    2.0410    1.1050    1.9340 C   0  0  0  0  0  0  0  0  0  0  0  0
    2.3780    2.4930    1.5990 C   0  0  0  0  0  0  0  0  0  0  0  0
    1.5120    3.3710    1.1210 C   0  0  0  0  0  0  0  0  0  0  0  0
    0.0730    3.0950    0.8510 C   0  0  0  0  0  0  0  0  0  0  0  0
   -0.3310    3.2970   -0.5660 C   0  0  2  0  0  0  0  0  0  0  0  0
   -1.1860    4.5240   -0.6410 C   0  0  0  0  0  0  0  0  0  0  0  0
   -2.3900    4.4710   -1.3710 N   0  0  0  0  0  0  0  0  0  0  0  0
   -0.8490    5.5750   -0.0720 O   0  0  0  0  0  0  0  0  0  0  0  0
   -0.9000    2.3020   -1.2690 O   0  0  0  0  0  0  0  0  0  0  0  0
   -1.2050    0.9990   -1.2600 C   0  0  0  0  0  0  0  0  0  0  0  0
   -0.4530    0.1090   -1.7580 O   0  0  0  0  0  0  0  0  0  0  0  0
   -2.4700    0.4060   -0.6670 C   0  0  2  0  0  0  0  0  0  0  0  0
   -2.6590    0.9500    0.7260 C   0  0  0  0  0  0  0  0  0  0  0  0
   -3.8770    0.5190    1.4220 C   0  0  0  0  0  0  0  0  0  0  0  0
   -4.1050    0.9040    2.7890 N   0  0  0  0  0  0  0  0  0  0  0  0
   -4.7980   -0.1840    0.9470 O   0  0  0  0  0  0  0  0  0  0  0  0
   -2.5990   -1.0300   -0.8030 C   0  0  2  0  0  0  0  0  0  0  0  0
   -4.0060   -1.2920   -1.4340 C   0  0  0  0  0  0  0  0  0  0  0  0
   -2.7360   -1.5900    0.4970 O   0  0  0  0  0  0  0  0  0  0  0  0
   -1.6120   -1.8530   -1.5770 C   0  0  0  0  0  0  0  0  0  0  0  0
   -0.6700   -2.6560   -1.2340 C   0  0  0  0  0  0  0  0  0  0  0  0
   -0.0850   -3.1550   -2.4640 O   0  0  0  0  0  0  0  0  0  0  0  0
   -0.5080   -2.3980   -3.5340 C   0  0  0  0  0  0  0  0  0  0  0  0
   -1.6550   -1.7970   -3.0030 O   0  0  0  0  0  0  0  0  0  0  0  0
   -0.1200   -3.1280    0.0460 C   0  0  0  0  0  0  0  0  0  0  0  0
   -1.0350   -4.0650    0.7170 O   0  0  0  0  0  0  0  0  0  0  0  0
   -0.6020   -5.4070    0.8350 C   0  0  0  0  0  0  0  0  0  0  0  0
    0.9770   -2.9400    0.7270 C   0  0  0  0  0  0  0  0  0  0  0  0
  1  2  1  0
  2  3  1  0
  3  4  2  0
  3 38  1  0
  4  5  1  0
  5  6  1  6
  5 11  1  0
  6  7  1  0
  7  8  1  0
  8  9  2  0
  8 10  1  0
 11 12  1  0
 12 13  2  0
 13 14  1  0
 14 15  1  0
 15 16  1  1
 15 19  1  0
 16 17  1  0
 16 18  2  0
 19 20  1  0
 20 21  2  0
 20 22  1  0
 22 23  1  1
 22 27  1  0
 23 24  1  0
 24 25  1  0
 24 26  2  0
 27 28  1  6
 27 29  1  0
 27 30  1  0
 30 31  2  0
 30 34  1  0
 31 32  1  0
 31 35  1  0
 32 33  1  0
 33 34  1  0
 35 36  1  0
 35 38  2  0
 36 37  1  0
M  END
