
     RDKit          3D

 38 39  0  0  0  0  0  0  0  0999 V2000
   -9.6020    0.5820    2.9980 N   0  0  0  0  0  0  0  0  0  0  0  0
   -8.9530   -0.0050    1.8850 C   0  0  0  0  0  0  0  0  0  0  0  0
   -9.6780   -0.2810    0.8920 O   0  0  0  0  0  0  0  0  0  0  0  0
   -7.5160   -0.2590    1.9330 C   0  0  0  0  0  0  0  0  0  0  0  0
   -6.9550   -0.8450    0.6640 C   0  0  2  0  0  0  0  0  0  0  0  0
   -5.4710   -1.1170    0.7400 C   0  0  0  0  0  0  0  0  0  0  0  0
   -4.6000    0.0470    1.0070 C   0  0  2  0  0  0  0  0  0  0  0  0
   -4.6960    1.0440    0.0310 O   0  0  0  0  0  0  0  0  0  0  0  0
   -3.1430   -0.3760    1.0070 C   0  0  0  0  0  0  0  0  0  0  0  0
   -2.6900   -0.9670   -0.3050 C   0  0  2  0  0  0  0  0  0  0  0  0
   -1.2660   -1.3480   -0.1890 C   0  0  0  0  0  0  0  0  0  0  0  0
   -0.2990   -0.1940   -0.5030 C   0  0  1  0  0  0  0  0  0  0  0  0
   -0.3640    0.7830    0.4510 O   0  0  0  0  0  0  0  0  0  0  0  0
    1.0620   -0.8020   -0.6180 C   0  0  0  0  0  0  0  0  0  0  0  0
    1.2170   -1.6290   -1.5350 O   0  0  0  0  0  0  0  0  0  0  0  0
    2.1430   -0.5080    0.2210 N   0  0  0  0  0  0  0  0  0  0  0  0
    3.4630   -1.1540    0.0580 C   0  0  2  0  0  0  0  0  0  0  0  0
    3.5960   -2.2950    1.0340 C   0  0  0  0  0  0  0  0  0  0  0  0
    4.4950   -1.9950    2.1540 C   0  0  0  0  0  0  0  0  0  0  0  0
    4.1460   -2.3770    3.3150 O   0  0  0  0  0  0  0  0  0  0  0  0
    5.6510   -1.3290    1.9090 O   0  0  0  0  0  0  0  0  0  0  0  0
    5.7420   -0.3690    0.9030 C   0  0  1  0  0  0  0  0  0  0  0  0
    7.0670   -0.6170    0.2120 C   0  0  2  0  0  0  0  0  0  0  0  0
    8.0820   -0.5300    1.2020 O   0  0  0  0  0  0  0  0  0  0  0  0
    7.4380    0.4730   -0.7840 C   0  0  0  0  0  0  0  0  0  0  0  0
    8.6970    0.1440   -1.2380 O   0  0  0  0  0  0  0  0  0  0  0  0
    9.2870    0.9070   -2.1750 C   0  0  0  0  0  0  0  0  0  0  0  0
    9.4950    2.3260   -1.7320 C   0  0  0  0  0  0  0  0  0  0  0  0
    8.3500    3.0170   -1.4170 O   0  0  0  0  0  0  0  0  0  0  0  0
    4.5860   -0.1930    0.0100 C   0  0  2  0  0  0  0  0  0  0  0  0
    4.0150    1.0930    0.2210 O   0  0  0  0  0  0  0  0  0  0  0  0
   -0.7210    0.3030   -1.8560 C   0  0  0  0  0  0  0  0  0  0  0  0
   -2.1430    0.7360   -1.7960 C   0  0  0  0  0  0  0  0  0  0  0  0
   -3.0340   -0.2220   -1.3950 O   0  0  0  0  0  0  0  0  0  0  0  0
   -7.4000   -0.2540   -0.5440 N   0  0  0  0  0  0  0  0  0  0  0  0
   -7.7110    1.1020   -0.5620 C   0  0  0  0  0  0  0  0  0  0  0  0
   -7.6090    1.9140    0.3660 O   0  0  0  0  0  0  0  0  0  0  0  0
   -8.2000    1.6200   -1.7700 O   0  0  0  0  0  0  0  0  0  0  0  0
  1  2  1  0
  2  3  2  0
  2  4  1  0
  5  4  1  1
  5  6  1  0
  5 35  1  0
  6  7  1  0
  7  8  1  6
  7  9  1  0
 10  9  1  1
 10 11  1  0
 10 34  1  0
 11 12  1  0
 12 13  1  1
 12 14  1  0
 12 32  1  0
 14 15  2  0
 14 16  1  0
 17 16  1  1
 17 18  1  0
 17 30  1  0
 18 19  1  0
 19 20  2  0
 19 21  1  0
 22 21  1  1
 22 23  1  0
 22 30  1  0
 23 24  1  1
 23 25  1  0
 25 26  1  0
 26 27  1  0
 27 28  1  0
 28 29  1  0
 30 31  1  1
 32 33  1  0
 33 34  1  0
 35 36  1  0
 36 37  2  0
 36 38  1  0
M  CHG  1  35   1
M  END
