
     RDKit          3D

 39 39  0  0  0  0  0  0  0  0999 V2000
   -2.1270    6.9260    0.0970 C   0  0  0  0  0  0  0  0  0  0  0  0
   -2.5400    5.5950    0.3900 O   0  0  0  0  0  0  0  0  0  0  0  0
   -1.8150    4.5240   -0.0500 C   0  0  0  0  0  0  0  0  0  0  0  0
   -0.7700    4.7220   -0.7200 O   0  0  0  0  0  0  0  0  0  0  0  0
   -2.1880    3.1060    0.2170 C   0  0  1  0  0  0  0  0  0  0  0  0
   -3.6130    2.9360   -0.2310 C   0  0  0  0  0  0  0  0  0  0  0  0
   -4.2500    1.6670    0.2370 C   0  0  0  0  0  0  0  0  0  0  0  0
   -5.0790    0.9870   -0.8330 C   0  0  1  0  0  0  0  0  0  0  0  0
   -5.1250    1.8450   -1.9280 O   0  0  0  0  0  0  0  0  0  0  0  0
   -4.5000   -0.3890   -1.2050 C   0  0  0  0  0  0  0  0  0  0  0  0
   -3.3580   -0.5620   -0.4950 O   0  0  0  0  0  0  0  0  0  0  0  0
   -2.7780   -1.4440    0.3210 C   0  0  0  0  0  0  0  0  0  0  0  0
   -2.8920   -1.5490    1.5890 O   0  0  0  0  0  0  0  0  0  0  0  0
   -1.8700   -2.4540   -0.2860 C   0  0  2  0  0  0  0  0  0  0  0  0
   -2.5280   -2.9810   -1.5310 C   0  0  0  0  0  0  0  0  0  0  0  0
   -1.7680   -3.9570   -2.1720 O   0  0  0  0  0  0  0  0  0  0  0  0
   -1.6440   -3.6030    0.6680 C   0  0  1  0  0  0  0  0  0  0  0  0
   -1.0450   -3.0720    1.8460 O   0  0  0  0  0  0  0  0  0  0  0  0
   -2.9020   -4.2210    1.1110 C   0  0  0  0  0  0  0  0  0  0  0  0
   -3.7180   -5.0120    0.2890 N   0  0  0  0  0  0  0  0  0  0  0  0
   -3.2950   -4.0480    2.3060 O   0  0  0  0  0  0  0  0  0  0  0  0
   -0.5210   -1.8060   -0.6280 C   0  0  1  0  0  0  0  0  0  0  0  0
   -0.5450   -1.1510   -1.8310 O   0  0  0  0  0  0  0  0  0  0  0  0
    0.0060   -0.9470    0.4570 C   0  0  0  0  0  0  0  0  0  0  0  0
    0.4340    0.4430    0.0520 C   0  0  2  0  0  0  0  0  0  0  0  0
    0.4110    0.6730   -1.3090 O   0  0  0  0  0  0  0  0  0  0  0  0
    1.8170    0.7670    0.6290 C   0  0  0  0  0  0  0  0  0  0  0  0
    2.8230   -0.0810   -0.0170 N   0  0  0  0  0  0  0  0  0  0  0  0
    4.1940    0.0130    0.3300 C   0  0  0  0  0  0  0  0  0  0  0  0
    4.5080    0.8610    1.2220 O   0  0  0  0  0  0  0  0  0  0  0  0
    5.2530   -0.8140   -0.2860 C   0  0  2  0  0  0  0  0  0  0  0  0
    4.9650   -2.2680    0.0770 C   0  0  0  0  0  0  0  0  0  0  0  0
    4.9410   -2.3740    1.4610 O   0  0  0  0  0  0  0  0  0  0  0  0
    6.4890   -0.4850    0.2630 O   0  0  0  0  0  0  0  0  0  0  0  0
    7.3660   -0.1030   -0.7430 C   0  0  0  0  0  0  0  0  0  0  0  0
    8.7270    0.2650   -0.1850 C   0  0  0  0  0  0  0  0  0  0  0  0
    9.3190   -0.8000    0.4920 O   0  0  0  0  0  0  0  0  0  0  0  0
   -0.5090    1.4790    0.6650 C   0  0  0  0  0  0  0  0  0  0  0  0
   -1.2690    2.1840   -0.3570 N   0  0  0  0  0  0  0  0  0  0  0  0
  1  2  1  0
  2  3  1  0
  3  4  2  0
  5  3  1  6
  5  6  1  0
  5 39  1  0
  6  7  1  0
  7  8  1  0
  8  9  1  6
  8 10  1  0
 10 11  1  0
 11 12  1  0
 12 13  2  0
 12 14  1  0
 14 15  1  6
 14 17  1  0
 14 22  1  0
 15 16  1  0
 17 18  1  1
 17 19  1  0
 19 20  1  0
 19 21  2  0
 22 23  1  6
 22 24  1  0
 24 25  1  0
 25 26  1  6
 25 27  1  0
 25 38  1  0
 27 28  1  0
 28 29  1  0
 29 30  2  0
 29 31  1  0
 31 32  1  1
 31 34  1  0
 32 33  1  0
 34 35  1  0
 35 36  1  0
 36 37  1  0
 38 39  1  0
M  CHG  1  39   1
M  END
