
     RDKit          3D

 38 39  0  0  0  0  0  0  0  0999 V2000
    1.9420    6.9190   -1.6060 C   0  0  0  0  0  0  0  0  0  0  0  0
    1.4080    5.7460   -0.9860 O   0  0  0  0  0  0  0  0  0  0  0  0
    0.8930    4.7440   -1.7980 C   0  0  0  0  0  0  0  0  0  0  0  0
    0.9220    4.9140   -3.0390 O   0  0  0  0  0  0  0  0  0  0  0  0
    0.3160    3.4890   -1.2490 C   0  0  2  0  0  0  0  0  0  0  0  0
    1.3610    2.8640   -0.3690 C   0  0  0  0  0  0  0  0  0  0  0  0
    1.5920    1.4040   -0.6980 C   0  0  1  0  0  0  0  0  0  0  0  0
    2.4230    0.7510    0.3200 C   0  0  0  0  0  0  0  0  0  0  0  0
    2.7180    1.4060    1.3520 O   0  0  0  0  0  0  0  0  0  0  0  0
    2.8950   -0.5400    0.2030 O   0  0  0  0  0  0  0  0  0  0  0  0
    3.6910   -1.2000    1.1550 C   0  0  0  0  0  0  0  0  0  0  0  0
    5.0000   -0.5270    1.4030 C   0  0  1  0  0  0  0  0  0  0  0  0
    5.8400   -1.2510    2.4320 C   0  0  0  0  0  0  0  0  0  0  0  0
    5.1540   -1.3460    3.7670 C   0  0  0  0  0  0  0  0  0  0  0  0
    4.8770   -0.0790    4.2770 O   0  0  0  0  0  0  0  0  0  0  0  0
    5.7260   -0.2380    0.1440 C   0  0  2  0  0  0  0  0  0  0  0  0
    4.9650    0.6000   -0.6650 O   0  0  0  0  0  0  0  0  0  0  0  0
    6.1300   -1.4140   -0.6850 C   0  0  0  0  0  0  0  0  0  0  0  0
    5.0960   -2.1530   -1.2070 O   0  0  0  0  0  0  0  0  0  0  0  0
    0.1820    0.8000   -0.7990 C   0  0  2  0  0  0  0  0  0  0  0  0
   -0.4990    1.1700    0.3290 O   0  0  0  0  0  0  0  0  0  0  0  0
    0.2440   -0.6870   -1.0540 C   0  0  0  0  0  0  0  0  0  0  0  0
   -1.0250   -1.3240   -1.2310 N   0  0  0  0  0  0  0  0  0  0  0  0
   -2.0340   -1.3760   -0.2460 C   0  0  0  0  0  0  0  0  0  0  0  0
   -1.9080   -0.8770    0.8790 O   0  0  0  0  0  0  0  0  0  0  0  0
   -3.2950   -2.0270   -0.5010 N   0  0  0  0  0  0  0  0  0  0  0  0
   -4.3260   -2.0760    0.5150 C   0  0  2  0  0  0  0  0  0  0  0  0
   -4.6450   -3.4920    0.8980 C   0  0  0  0  0  0  0  0  0  0  0  0
   -3.7950   -4.1650    1.5380 O   0  0  0  0  0  0  0  0  0  0  0  0
   -5.8410   -4.0780    0.5690 O   0  0  0  0  0  0  0  0  0  0  0  0
   -6.7170   -3.5730   -0.4230 C   0  0  0  0  0  0  0  0  0  0  0  0
   -6.2100   -2.3040   -1.0530 C   0  0  0  0  0  0  0  0  0  0  0  0
   -5.5570   -1.4090   -0.0080 C   0  0  2  0  0  0  0  0  0  0  0  0
   -5.2150   -0.2060   -0.5880 O   0  0  0  0  0  0  0  0  0  0  0  0
   -6.5700   -1.1410    1.0820 C   0  0  0  0  0  0  0  0  0  0  0  0
   -7.7310   -0.5120    0.4510 N   0  0  0  0  0  0  0  0  0  0  0  0
   -0.4100    1.4150   -2.0560 C   0  0  0  0  0  0  0  0  0  0  0  0
   -0.0980    2.7120   -2.2820 O   0  0  0  0  0  0  0  0  0  0  0  0
  1  2  1  0
  2  3  1  0
  3  4  2  0
  5  3  1  6
  5  6  1  0
  5 38  1  0
  6  7  1  0
  7  8  1  1
  7 20  1  0
  8  9  2  0
  8 10  1  0
 10 11  1  0
 12 11  1  6
 12 13  1  0
 12 16  1  0
 13 14  1  0
 14 15  1  0
 16 17  1  6
 16 18  1  0
 18 19  1  0
 20 21  1  1
 20 22  1  0
 20 37  1  0
 22 23  1  0
 23 24  1  0
 24 25  2  0
 24 26  1  0
 27 26  1  6
 27 28  1  0
 27 33  1  0
 28 29  2  0
 28 30  1  0
 30 31  1  0
 31 32  1  0
 32 33  1  0
 33 34  1  6
 33 35  1  0
 35 36  1  0
 37 38  1  0
M  CHG  1  36   1
M  END
