
     RDKit          3D

 38 39  0  0  0  0  0  0  0  0999 V2000
    8.4380    1.7640    1.0070 C   0  0  0  0  0  0  0  0  0  0  0  0
    8.5350    0.6740   -0.0710 C   0  0  0  0  0  0  0  0  0  0  0  0
    7.8980   -0.5510    0.4830 C   0  0  1  0  0  0  0  0  0  0  0  0
    6.4550   -0.2690    0.8380 C   0  0  0  0  0  0  0  0  0  0  0  0
    5.5960   -0.9970    0.3480 O   0  0  0  0  0  0  0  0  0  0  0  0
    6.0770    0.7230    1.6510 O   0  0  0  0  0  0  0  0  0  0  0  0
    4.8720    1.1510    2.0920 C   0  0  0  0  0  0  0  0  0  0  0  0
    3.8300    1.6680    1.2100 C   0  0  0  0  0  0  0  0  0  0  0  0
    3.2130    0.9970    0.2320 O   0  0  0  0  0  0  0  0  0  0  0  0
    2.4350   -0.0790    0.5270 C   0  0  1  0  0  0  0  0  0  0  0  0
    1.0570    0.5500    0.5230 O   0  0  0  0  0  0  0  0  0  0  0  0
    1.1130    1.1130   -0.7490 C   0  0  2  0  0  0  0  0  0  0  0  0
   -0.2690    1.3490   -1.2860 C   0  0  0  0  0  0  0  0  0  0  0  0
   -0.3500    1.8520   -2.4140 O   0  0  0  0  0  0  0  0  0  0  0  0
   -1.4380    1.0250   -0.5680 N   0  0  0  0  0  0  0  0  0  0  0  0
   -2.7100    1.2530   -1.0920 N   0  0  0  0  0  0  0  0  0  0  0  0
   -3.8680    0.9790   -0.3150 C   0  0  0  0  0  0  0  0  0  0  0  0
   -3.6890    0.5300    0.8510 O   0  0  0  0  0  0  0  0  0  0  0  0
   -5.1700    1.1710   -0.7540 O   0  0  0  0  0  0  0  0  0  0  0  0
   -6.2350    0.8550    0.1230 C   0  0  1  0  0  0  0  0  0  0  0  0
   -7.0470    2.0860    0.3560 C   0  0  0  0  0  0  0  0  0  0  0  0
   -8.2550    1.7330    1.1980 C   0  0  1  0  0  0  0  0  0  0  0  0
   -8.9910    2.8780    1.5190 O   0  0  0  0  0  0  0  0  0  0  0  0
   -9.1180    0.7870    0.3520 C   0  0  0  0  0  0  0  0  0  0  0  0
   -8.3390   -0.4820    0.2080 C   0  0  1  0  0  0  0  0  0  0  0  0
   -7.9890   -0.8950    1.5080 O   0  0  0  0  0  0  0  0  0  0  0  0
   -9.0840   -1.6130   -0.4130 C   0  0  0  0  0  0  0  0  0  0  0  0
   -9.5390   -1.3970   -1.7500 N   0  0  0  0  0  0  0  0  0  0  0  0
   -7.0420   -0.2520   -0.5360 C   0  0  0  0  0  0  0  0  0  0  0  0
    1.7310    0.0860   -1.6770 C   0  0  0  0  0  0  0  0  0  0  0  0
    2.1680   -0.9650   -0.6240 C   0  0  1  0  0  0  0  0  0  0  0  0
    3.2160   -1.6980   -1.0700 O   0  0  0  0  0  0  0  0  0  0  0  0
    0.9650   -1.8860   -0.3600 C   0  0  0  0  0  0  0  0  0  0  0  0
    0.6530   -2.5030   -1.5670 O   0  0  0  0  0  0  0  0  0  0  0  0
    7.9440   -1.7330   -0.4240 C   0  0  2  0  0  0  0  0  0  0  0  0
    7.2970   -2.8420    0.1830 O   0  0  0  0  0  0  0  0  0  0  0  0
    9.3390   -2.2320   -0.7060 C   0  0  0  0  0  0  0  0  0  0  0  0
   10.1740   -1.3480   -1.3310 O   0  0  0  0  0  0  0  0  0  0  0  0
  1  2  1  0
  3  2  1  6
  3  4  1  0
  3 35  1  0
  4  5  2  0
  4  6  1  0
  6  7  1  0
  7  8  1  0
  8  9  1  0
 10  9  1  6
 10 11  1  0
 10 31  1  0
 11 12  1  0
 12 13  1  6
 12 30  1  0
 13 14  2  0
 13 15  1  0
 15 16  1  0
 16 17  1  0
 17 18  2  0
 17 19  1  0
 20 19  1  6
 20 21  1  0
 20 29  1  0
 21 22  1  0
 22 23  1  6
 22 24  1  0
 24 25  1  0
 25 26  1  1
 25 27  1  0
 25 29  1  0
 27 28  1  0
 30 31  1  0
 31 32  1  6
 31 33  1  0
 33 34  1  0
 35 36  1  1
 35 37  1  0
 37 38  1  0
M  CHG  1  28   1
M  END
