
     RDKit          3D

 39 41  0  0  0  0  0  0  0  0999 V2000
   -6.6210    1.3050   -0.7860 C   0  0  0  0  0  0  0  0  0  0  0  0
   -5.7860    2.3320   -1.4760 C   0  0  0  0  0  0  0  0  0  0  0  0
   -4.3680    2.1320   -1.6720 C   0  0  0  0  0  0  0  0  0  0  0  0
   -3.8040    1.0450   -2.5500 C   0  0  0  0  0  0  0  0  0  0  0  0
   -4.2690   -0.2840   -2.0950 C   0  0  0  0  0  0  0  0  0  0  0  0
   -5.2000   -1.0230   -2.7850 C   0  0  0  0  0  0  0  0  0  0  0  0
   -5.7950   -2.1760   -2.2760 C   0  0  0  0  0  0  0  0  0  0  0  0
   -5.4220   -2.5820   -1.0020 C   0  0  0  0  0  0  0  0  0  0  0  0
   -4.4890   -1.8390   -0.3250 C   0  0  0  0  0  0  0  0  0  0  0  0
   -4.1780   -2.2620    1.1380 C   0  0  0  0  0  0  0  0  0  0  0  0
   -5.4990   -2.0280    1.7800 N   0  0  0  0  0  0  0  0  0  0  0  0
   -5.7070   -2.3430    3.1120 C   0  0  2  0  0  0  0  0  0  0  0  0
   -4.5600   -2.6010    3.8110 F   0  0  0  0  0  0  0  0  0  0  0  0
   -6.6140   -3.3630    3.3500 F   0  0  0  0  0  0  0  0  0  0  0  0
   -6.2460   -1.1930    3.8040 F   0  0  0  0  0  0  0  0  0  0  0  0
   -3.8740   -0.7110   -0.7940 C   0  0  0  0  0  0  0  0  0  0  0  0
   -2.9560    0.0210   -0.1670 O   0  0  0  0  0  0  0  0  0  0  0  0
   -1.6750    0.2770    0.0050 C   0  0  0  0  0  0  0  0  0  0  0  0
   -0.5570   -0.5470    0.4940 C   0  0  2  0  0  0  0  0  0  0  0  0
   -0.6210   -1.0620    1.8940 C   0  0  0  0  0  0  0  0  0  0  0  0
   -0.7580   -0.0380    2.9670 C   0  0  0  0  0  0  0  0  0  0  0  0
   -1.8810    0.7560    2.9070 O   0  0  0  0  0  0  0  0  0  0  0  0
    0.6970    0.2870    0.3650 C   0  0  0  0  0  0  0  0  0  0  0  0
    1.4890    0.2930    1.3520 O   0  0  0  0  0  0  0  0  0  0  0  0
    1.0630    1.0420   -0.6990 O   0  0  0  0  0  0  0  0  0  0  0  0
    2.1870    1.8400   -0.7700 C   0  0  0  0  0  0  0  0  0  0  0  0
    3.4470    1.1110   -0.6820 C   0  0  0  0  0  0  0  0  0  0  0  0
    3.6900   -0.0740   -0.8060 O   0  0  0  0  0  0  0  0  0  0  0  0
    4.6440    1.8260   -0.4190 N   0  0  0  0  0  0  0  0  0  0  0  0
    5.8020    1.0300   -0.2630 C   0  0  0  0  0  0  0  0  0  0  0  0
    6.7640    1.6220   -0.7390 N   0  0  0  0  0  0  0  0  0  0  0  0
    8.0380    1.1200   -0.7650 C   0  0  0  0  0  0  0  0  0  0  0  0
    8.9810    2.1020   -1.5020 C   0  0  0  0  0  0  0  0  0  0  0  0
    8.5440    0.0090   -0.3400 C   0  0  0  0  0  0  0  0  0  0  0  0
    9.9080   -0.5740   -0.3560 C   0  0  0  0  0  0  0  0  0  0  0  0
    9.4470   -2.2900   -0.9360 S   0  0  0  0  0  0  0  0  0  0  0  0
    7.6180   -2.1130   -0.6660 C   0  0  0  0  0  0  0  0  0  0  0  0
    7.6820   -1.0290    0.3890 C   0  0  2  0  0  0  0  0  0  0  0  0
    6.1470   -0.3330    0.8510 S   0  0  0  0  0  0  0  0  0  0  0  0
  1  2  1  0
  2  3  1  0
  3  4  1  0
  4  5  1  0
  5  6  2  0
  5 16  1  0
  6  7  1  0
  7  8  2  0
  8  9  1  0
  9 10  1  0
  9 16  2  0
 10 11  1  0
 11 12  1  0
 12 13  1  1
 12 14  1  0
 12 15  1  0
 16 17  1  0
 17 18  1  0
 19 18  1  1
 19 20  1  0
 19 23  1  0
 20 21  1  0
 21 22  1  0
 23 24  2  0
 23 25  1  0
 25 26  1  0
 26 27  1  0
 27 28  2  0
 27 29  1  0
 29 30  1  0
 30 31  2  0
 30 39  1  0
 31 32  1  0
 32 33  1  0
 32 34  2  0
 34 35  1  0
 34 38  1  0
 35 36  1  0
 36 37  1  0
 38 37  1  6
 38 39  1  0
M  END
