
     RDKit          3D

 39 42  0  0  0  0  0  0  0  0999 V2000
    8.1720   -1.0890    1.6310 C   0  0  0  0  0  0  0  0  0  0  0  0
    7.3920   -0.1780    2.5370 C   0  0  0  0  0  0  0  0  0  0  0  0
    7.6440    1.1240    2.5780 C   0  0  0  0  0  0  0  0  0  0  0  0
    6.8690    2.0000    3.4720 C   0  0  0  0  0  0  0  0  0  0  0  0
    6.0180    3.2930    2.6190 S   0  0  0  0  0  0  0  0  0  0  0  0
    4.6550    2.8040    1.6460 C   0  0  0  0  0  0  0  0  0  0  0  0
    3.8190    3.5910    1.0150 N   0  0  0  0  0  0  0  0  0  0  0  0
    2.8020    2.8680    0.3560 C   0  0  0  0  0  0  0  0  0  0  0  0
    1.8570    3.3130   -0.3560 O   0  0  0  0  0  0  0  0  0  0  0  0
    3.0320    1.4770    0.6430 N   0  0  0  0  0  0  0  0  0  0  0  0
    2.0660    0.3910    0.5300 C   0  0  0  0  0  0  0  0  0  0  0  0
    2.0300   -0.3200   -0.7710 C   0  0  0  0  0  0  0  0  0  0  0  0
    0.7510   -1.5930   -0.6900 S   0  0  1  0  0  0  0  0  0  0  0  0
    0.7690   -2.4350   -1.9020 O   0  0  0  0  0  0  0  0  0  0  0  0
    1.1500   -2.4430    0.5080 O   0  0  0  0  0  0  0  0  0  0  0  0
   -0.7720   -0.7600   -0.3820 C   0  0  0  0  0  0  0  0  0  0  0  0
   -1.9630   -1.6980   -0.3220 C   0  0  0  0  0  0  0  0  0  0  0  0
   -3.1730   -0.8880   -0.0380 C   0  0  0  0  0  0  0  0  0  0  0  0
   -3.0070    0.2750    0.4050 O   0  0  0  0  0  0  0  0  0  0  0  0
   -4.4700   -1.3500   -0.2330 N   0  0  0  0  0  0  0  0  0  0  0  0
   -4.8920   -2.6160   -0.7590 C   0  0  0  0  0  0  0  0  0  0  0  0
   -5.9130   -2.2060   -1.8080 C   0  0  0  0  0  0  0  0  0  0  0  0
   -6.4370   -0.8810   -1.2610 C   0  0  1  0  0  0  0  0  0  0  0  0
   -6.0310    0.2370   -2.2020 C   0  0  0  0  0  0  0  0  0  0  0  0
   -6.4830    1.4600   -1.7350 O   0  0  0  0  0  0  0  0  0  0  0  0
   -7.8880   -0.9110   -1.1370 C   0  0  0  0  0  0  0  0  0  0  0  0
   -8.7270   -0.1040   -1.7550 C   0  0  0  0  0  0  0  0  0  0  0  0
  -10.1160   -0.4510   -1.3660 C   0  0  0  0  0  0  0  0  0  0  0  0
   -9.9620   -1.5860   -0.4240 C   0  0  0  0  0  0  0  0  0  0  0  0
   -8.6870   -1.8300   -0.3120 C   0  0  0  0  0  0  0  0  0  0  0  0
   -8.1570   -2.8000    0.4630 F   0  0  0  0  0  0  0  0  0  0  0  0
   -5.7110   -0.6520    0.0420 C   0  0  0  0  0  0  0  0  0  0  0  0
    4.3540    1.4180    1.1480 C   0  0  1  0  0  0  0  0  0  0  0  0
    5.3810    1.1550    0.0430 C   0  0  2  0  0  0  0  0  0  0  0  0
    5.8040    2.1550   -0.9320 C   0  0  0  0  0  0  0  0  0  0  0  0
    4.7530    1.2570   -1.3970 C   0  0  0  0  0  0  0  0  0  0  0  0
    8.7230    1.7240    1.7520 C   0  0  1  0  0  0  0  0  0  0  0  0
    8.2120    2.7680    1.0140 F   0  0  0  0  0  0  0  0  0  0  0  0
    9.7260    2.2390    2.5670 F   0  0  0  0  0  0  0  0  0  0  0  0
  1  2  1  0
  2  3  2  3
  3  4  1  0
  3 37  1  0
  4  5  1  0
  5  6  1  0
  6  7  2  0
  6 33  1  0
  7  8  1  0
  8  9  2  0
  8 10  1  0
 10 11  1  0
 33 10  1  6
 11 12  1  0
 13 12  1  6
 13 14  2  0
 13 15  2  0
 13 16  1  0
 16 17  1  0
 17 18  1  0
 18 19  2  0
 18 20  1  0
 20 21  1  0
 20 32  1  0
 21 22  1  0
 22 23  1  0
 23 24  1  6
 23 26  1  0
 23 32  1  0
 24 25  1  0
 26 27  2  0
 26 30  1  0
 27 28  1  0
 28 29  1  0
 29 30  2  0
 30 31  1  0
 33 34  1  0
 34 35  1  6
 34 36  1  0
 35 36  1  0
 37 38  1  1
 37 39  1  0
M  END
