
     RDKit          3D

 39 41  0  0  0  0  0  0  0  0999 V2000
   -2.8770    3.5360   -1.0180 C   0  0  0  0  0  0  0  0  0  0  0  0
   -3.3090    2.5720   -0.0680 O   0  0  0  0  0  0  0  0  0  0  0  0
   -3.1930    1.2050   -0.3390 C   0  0  0  0  0  0  0  0  0  0  0  0
   -2.0940    0.5250   -0.0990 C   0  0  0  0  0  0  0  0  0  0  0  0
   -0.9620    1.3090    0.4840 C   0  0  0  0  0  0  0  0  0  0  0  0
   -1.1780    2.3270    1.1780 O   0  0  0  0  0  0  0  0  0  0  0  0
    0.4210    0.9050    0.2560 C   0  0  0  0  0  0  0  0  0  0  0  0
    0.5970   -0.2350   -0.5260 C   0  0  0  0  0  0  0  0  0  0  0  0
    1.8890   -0.6540   -0.7800 C   0  0  0  0  0  0  0  0  0  0  0  0
    2.9580    0.0660   -0.2560 C   0  0  0  0  0  0  0  0  0  0  0  0
    2.7760    1.1840    0.5090 C   0  0  0  0  0  0  0  0  0  0  0  0
    4.1160    2.0770    1.1300 S   0  0  1  0  0  0  0  0  0  0  0  0
    4.0430    3.5340    0.6570 O   0  0  0  0  0  0  0  0  0  0  0  0
    3.9310    2.0900    2.6580 O   0  0  0  0  0  0  0  0  0  0  0  0
    5.6530    1.5100    0.8100 N   0  0  0  0  0  0  0  0  0  0  0  0
    6.1110    1.3960   -0.5220 C   0  0  1  0  0  0  0  0  0  0  0  0
    6.8910    2.7510   -0.8190 C   0  0  0  0  0  0  0  0  0  0  0  0
    7.0470    0.2920   -0.8530 C   0  0  1  0  0  0  0  0  0  0  0  0
    6.5410   -1.0900   -0.5840 C   0  0  0  0  0  0  0  0  0  0  0  0
    7.4050    0.3900   -2.3230 C   0  0  0  0  0  0  0  0  0  0  0  0
    1.4890    1.6180    0.7750 C   0  0  0  0  0  0  0  0  0  0  0  0
    1.2240    2.8280    1.6040 C   0  0  0  0  0  0  0  0  0  0  0  0
   -0.5210   -0.9270   -1.0450 N   0  0  0  0  0  0  0  0  0  0  0  0
   -1.7980   -0.8820   -0.3100 C   0  0  2  0  0  0  0  0  0  0  0  0
   -2.7490   -1.7710   -0.9850 C   0  0  1  0  0  0  0  0  0  0  0  0
   -3.5730   -2.4830    0.0510 C   0  0  0  0  0  0  0  0  0  0  0  0
   -3.3760   -2.2080    1.2500 O   0  0  0  0  0  0  0  0  0  0  0  0
   -4.5590   -3.4440   -0.2590 N   0  0  0  0  0  0  0  0  0  0  0  0
   -5.3310   -4.1040    0.7550 C   0  0  0  0  0  0  0  0  0  0  0  0
   -4.5260   -4.8920    1.7430 C   0  0  0  0  0  0  0  0  0  0  0  0
   -5.4120   -5.5600    2.7830 C   0  0  0  0  0  0  0  0  0  0  0  0
   -4.6280   -6.2700    3.6690 F   0  0  0  0  0  0  0  0  0  0  0  0
   -3.9780   -0.8550   -1.9810 S   0  0  0  0  0  0  0  0  0  0  0  0
   -4.3840    0.5700   -0.9190 C   0  0  0  0  0  0  0  0  0  0  0  0
   -5.6190    0.9260   -0.7340 C   0  0  0  0  0  0  0  0  0  0  0  0
   -6.0690    2.0280    0.0870 C   0  0  0  0  0  0  0  0  0  0  0  0
   -7.3840    2.2630    0.1670 C   0  0  0  0  0  0  0  0  0  0  0  0
   -7.9020    3.2780    0.9150 F   0  0  0  0  0  0  0  0  0  0  0  0
   -8.2870    1.5010   -0.4990 F   0  0  0  0  0  0  0  0  0  0  0  0
  1  2  1  0
  2  3  1  0
  3  4  2  0
  3 34  1  0
  4  5  1  0
  4 24  1  0
  5  6  2  0
  5  7  1  0
  7  8  2  0
  7 21  1  0
  8  9  1  0
  8 23  1  0
  9 10  2  0
 10 11  1  0
 11 12  1  0
 11 21  2  0
 12 13  2  0
 12 14  2  0
 12 15  1  1
 15 16  1  0
 16 17  1  1
 16 18  1  0
 18 19  1  6
 18 20  1  0
 21 22  1  0
 24 23  1  6
 24 25  1  0
 25 26  1  1
 25 33  1  0
 26 27  2  0
 26 28  1  0
 28 29  1  0
 29 30  1  0
 30 31  1  0
 31 32  1  0
 33 34  1  0
 34 35  2  3
 35 36  1  0
 36 37  2  3
 37 38  1  0
 37 39  1  0
M  END
