
     RDKit          3D

 39 41  0  0  0  0  0  0  0  0999 V2000
   -5.7440    4.4770   -0.4100 C   0  0  0  0  0  0  0  0  0  0  0  0
   -4.6960    4.4340   -1.4890 C   0  0  0  0  0  0  0  0  0  0  0  0
   -3.5600    3.5880   -1.0410 C   0  0  0  0  0  0  0  0  0  0  0  0
   -2.4080    3.2450   -1.6400 C   0  0  0  0  0  0  0  0  0  0  0  0
   -1.5380    2.4480   -0.9920 C   0  0  0  0  0  0  0  0  0  0  0  0
   -1.8690    2.0240    0.2520 C   0  0  0  0  0  0  0  0  0  0  0  0
   -1.1140    1.1360    1.2250 C   0  0  1  0  0  0  0  0  0  0  0  0
   -1.8620    0.9380    2.4430 C   0  0  0  0  0  0  0  0  0  0  0  0
   -3.2680    0.8030    2.4510 N   0  0  0  0  0  0  0  0  0  0  0  0
   -1.1230    0.8520    3.8880 S   0  0  0  0  0  0  0  0  0  0  0  0
   -0.6010    0.0450    0.4920 N   0  0  0  0  0  0  0  0  0  0  0  0
    0.8150   -0.0400    0.3080 C   0  0  0  0  0  0  0  0  0  0  0  0
    1.3520   -0.9780   -0.3310 O   0  0  0  0  0  0  0  0  0  0  0  0
    1.6970    0.9880    0.8720 C   0  0  0  0  0  0  0  0  0  0  0  0
    3.0640    0.7210    0.5780 O   0  0  0  0  0  0  0  0  0  0  0  0
    3.5390    0.6420   -0.7260 C   0  0  0  0  0  0  0  0  0  0  0  0
    2.7300    0.8130   -1.6780 O   0  0  0  0  0  0  0  0  0  0  0  0
    4.9460    0.3650   -0.9280 C   0  0  0  0  0  0  0  0  0  0  0  0
    5.4300    0.2840   -2.2130 C   0  0  0  0  0  0  0  0  0  0  0  0
    6.7800    0.0160   -2.4630 C   0  0  0  0  0  0  0  0  0  0  0  0
    7.5910   -0.1610   -1.3540 C   0  0  0  0  0  0  0  0  0  0  0  0
    7.1510   -0.0890   -0.0680 C   0  0  0  0  0  0  0  0  0  0  0  0
    8.0800   -0.2910    1.0290 C   0  0  0  0  0  0  0  0  0  0  0  0
    7.7150   -0.2320    2.2340 O   0  0  0  0  0  0  0  0  0  0  0  0
    9.4100   -0.5570    0.7820 O   0  0  0  0  0  0  0  0  0  0  0  0
   10.3070   -0.7520    1.8660 C   0  0  0  0  0  0  0  0  0  0  0  0
    5.7940    0.1800    0.1350 C   0  0  0  0  0  0  0  0  0  0  0  0
   -1.3430   -1.0140   -0.1480 C   0  0  2  0  0  0  0  0  0  0  0  0
   -2.4080   -0.6210   -1.0870 C   0  0  0  0  0  0  0  0  0  0  0  0
   -3.1420   -1.9380   -1.3370 C   0  0  0  0  0  0  0  0  0  0  0  0
   -2.8460   -2.8250   -0.1750 C   0  0  2  0  0  0  0  0  0  0  0  0
   -3.9930   -3.2680    0.5650 N   0  0  0  0  0  0  0  0  0  0  0  0
   -4.8920   -4.0790   -0.2330 C   0  0  0  0  0  0  0  0  0  0  0  0
   -6.0480   -4.4830    0.6550 C   0  0  2  0  0  0  0  0  0  0  0  0
   -5.4830   -5.2060    1.7130 F   0  0  0  0  0  0  0  0  0  0  0  0
   -6.9520   -5.2720   -0.0330 F   0  0  0  0  0  0  0  0  0  0  0  0
   -6.6190   -3.3270    1.1500 F   0  0  0  0  0  0  0  0  0  0  0  0
   -1.9760   -2.0060    0.7920 C   0  0  0  0  0  0  0  0  0  0  0  0
   -3.4530    2.7700    0.5140 S   0  0  0  0  0  0  0  0  0  0  0  0
  1  2  1  0
  2  3  1  0
  3  4  2  0
  3 39  1  0
  4  5  1  0
  5  6  2  0
  6  7  1  0
  6 39  1  0
  7  8  1  0
  7 11  1  6
  8  9  1  0
  8 10  2  0
 11 12  1  0
 28 11  1  1
 12 13  2  0
 12 14  1  0
 14 15  1  0
 15 16  1  0
 16 17  2  0
 16 18  1  0
 18 19  2  0
 18 27  1  0
 19 20  1  0
 20 21  2  0
 21 22  1  0
 22 23  1  0
 22 27  2  0
 23 24  2  0
 23 25  1  0
 25 26  1  0
 28 29  1  0
 28 38  1  0
 29 30  1  0
 30 31  1  0
 31 32  1  1
 31 38  1  0
 32 33  1  0
 33 34  1  0
 34 35  1  1
 34 36  1  0
 34 37  1  0
M  END
