
     RDKit          3D

 28 30  0  0  0  0  0  0  0  0999 V2000
    4.7220    0.5140   -2.6660 C   0  0  0  0  0  0  0  0  0  0  0  0
    4.5890    0.3520   -1.3220 C   0  0  0  0  0  0  0  0  0  0  0  0
    3.4450   -0.0270   -0.6900 C   0  0  0  0  0  0  0  0  0  0  0  0
    3.4490   -0.1500    0.6410 C   0  0  0  0  0  0  0  0  0  0  0  0
    5.1210    0.2800    1.0700 S   0  0  0  0  0  0  0  0  0  0  0  0
    5.6860    0.5880   -0.5440 C   0  0  0  0  0  0  0  0  0  0  0  0
    6.9080    0.9600   -0.8600 C   0  0  0  0  0  0  0  0  0  0  0  0
    7.8620    1.1320    0.1680 N   0  0  0  0  0  0  0  0  0  0  0  0
    8.2110    2.4220    0.4640 O   0  0  0  0  0  0  0  0  0  0  0  0
    8.1930    2.5010    1.7810 O   0  0  0  0  0  0  0  0  0  0  0  0
    2.1320   -0.5690    1.1740 C   0  0  0  0  0  0  0  0  0  0  0  0
    1.8920   -0.7480    2.3780 O   0  0  0  0  0  0  0  0  0  0  0  0
    1.2680   -0.7060    0.0410 N   0  0  0  0  0  0  0  0  0  0  0  0
   -0.1140   -1.1030    0.1430 C   0  0  0  0  0  0  0  0  0  0  0  0
   -1.0250    0.0310    0.3050 C   0  0  0  0  0  0  0  0  0  0  0  0
   -0.5640    1.1940    0.3400 O   0  0  0  0  0  0  0  0  0  0  0  0
   -2.4230   -0.1620    0.4230 N   0  0  0  0  0  0  0  0  0  0  0  0
   -2.9600   -1.5200    0.3810 C   0  0  0  0  0  0  0  0  0  0  0  0
   -4.0780   -1.6640    1.3910 C   0  0  2  0  0  0  0  0  0  0  0  0
   -4.5140   -3.0970    1.4550 C   0  0  0  0  0  0  0  0  0  0  0  0
   -5.4600   -0.6240    0.7750 S   0  0  0  0  0  0  0  0  0  0  0  0
   -4.6450    0.7490   -0.1300 C   0  0  1  0  0  0  0  0  0  0  0  0
   -4.4470    0.4200   -1.5720 C   0  0  0  0  0  0  0  0  0  0  0  0
   -5.4710    1.9980    0.0710 C   0  0  0  0  0  0  0  0  0  0  0  0
   -4.7680    3.3750   -0.7610 Cl  0  0  0  0  0  0  0  0  0  0  0  0
   -3.3240    0.9780    0.5840 C   0  0  0  0  0  0  0  0  0  0  0  0
    2.0500   -0.3830   -1.0820 C   0  0  0  0  0  0  0  0  0  0  0  0
    1.5660   -0.4090   -2.2590 O   0  0  0  0  0  0  0  0  0  0  0  0
  1  2  2  0
  2  3  1  0
  2  6  1  0
  3  4  2  0
  3 27  1  0
  4  5  1  0
  4 11  1  0
  5  6  1  0
  6  7  2  3
  7  8  1  0
  8  9  1  0
  9 10  1  0
 11 12  2  0
 11 13  1  0
 13 14  1  0
 13 27  1  0
 14 15  1  0
 15 16  2  0
 15 17  1  0
 17 18  1  0
 17 26  1  0
 18 19  1  0
 19 20  1  6
 19 21  1  0
 21 22  1  0
 22 23  1  6
 22 24  1  0
 22 26  1  0
 24 25  1  0
 27 28  2  0
M  END
