
     RDKit          3D

 28 30  0  0  0  0  0  0  0  0999 V2000
    2.3710    2.1860   -2.5310 C   0  0  0  0  0  0  0  0  0  0  0  0
    2.4780    0.9500   -1.5290 S   0  0  2  0  0  0  0  0  0  0  0  0
    1.9340   -0.1690   -2.4160 O   0  0  0  0  0  0  0  0  0  0  0  0
    1.5730    1.1520   -0.1100 N   0  0  0  0  0  0  0  0  0  0  0  0
    0.6290    0.1160    0.1510 C   0  0  2  0  0  0  0  0  0  0  0  0
   -0.1030    0.3860    1.4010 C   0  0  0  0  0  0  0  0  0  0  0  0
    0.0590    1.4010    2.1190 O   0  0  0  0  0  0  0  0  0  0  0  0
   -1.0620   -0.5820    1.8160 N   0  0  0  0  0  0  0  0  0  0  0  0
   -2.1320   -0.3050    2.7260 C   0  0  0  0  0  0  0  0  0  0  0  0
   -3.3300    0.1450    1.9810 C   0  0  0  0  0  0  0  0  0  0  0  0
   -4.3590    0.4310    2.6180 O   0  0  0  0  0  0  0  0  0  0  0  0
   -3.3610    0.2650    0.6010 O   0  0  0  0  0  0  0  0  0  0  0  0
   -4.5790    0.7130   -0.0300 C   0  0  0  0  0  0  0  0  0  0  0  0
   -4.8070    1.9900   -0.2440 C   0  0  0  0  0  0  0  0  0  0  0  0
   -5.9520    2.4300   -0.8400 C   0  0  0  0  0  0  0  0  0  0  0  0
   -6.8110    0.8130   -1.1300 S   0  0  0  0  0  0  0  0  0  0  0  0
   -5.5490   -0.2390   -0.4280 C   0  0  0  0  0  0  0  0  0  0  0  0
   -0.8980   -1.9020    1.2550 C   0  0  0  0  0  0  0  0  0  0  0  0
   -1.7120   -2.7840    1.5880 O   0  0  0  0  0  0  0  0  0  0  0  0
    0.1520   -2.1940    0.3560 N   0  0  0  0  0  0  0  0  0  0  0  0
    0.1320   -3.3820   -0.4530 C   0  0  0  0  0  0  0  0  0  0  0  0
    1.2440   -1.2570    0.2780 C   0  0  2  0  0  0  0  0  0  0  0  0
    2.1130   -1.3600    1.8490 Cl  0  0  0  0  0  0  0  0  0  0  0  0
    4.1470    0.6270   -1.0890 C   0  0  0  0  0  0  0  0  0  0  0  0
    5.1020    1.5450   -0.9100 C   0  0  0  0  0  0  0  0  0  0  0  0
    6.3510    0.8680   -0.5520 C   0  0  0  0  0  0  0  0  0  0  0  0
    6.0280   -0.4160   -0.5410 C   0  0  0  0  0  0  0  0  0  0  0  0
    4.7850   -0.6530   -0.8440 C   0  0  0  0  0  0  0  0  0  0  0  0
  1  2  2  0
  2  3  2  0
  2  4  1  1
  2 24  1  0
  5  4  1  1
  5  6  1  0
  5 22  1  0
  6  7  2  0
  6  8  1  0
  8  9  1  0
  8 18  1  0
  9 10  1  0
 10 11  2  0
 10 12  1  0
 12 13  1  0
 13 14  1  0
 13 17  2  0
 14 15  2  0
 15 16  1  0
 16 17  1  0
 18 19  2  0
 18 20  1  0
 20 21  1  0
 20 22  1  0
 22 23  1  1
 24 25  2  0
 24 28  1  0
 25 26  1  0
 26 27  2  0
 27 28  2  0
M  END
