
     RDKit          3D

 28 29  0  0  0  0  0  0  0  0999 V2000
   -4.7600    2.7960    1.8770 C   0  0  0  0  0  0  0  0  0  0  0  0
   -4.8780    1.7700    1.0440 C   0  0  0  0  0  0  0  0  0  0  0  0
   -3.6650    1.0630    0.6450 C   0  0  0  0  0  0  0  0  0  0  0  0
   -3.6720    0.0430   -0.1690 C   0  0  0  0  0  0  0  0  0  0  0  0
   -5.1080   -0.6750   -0.9360 S   0  0  0  0  0  0  0  0  0  0  0  0
   -4.2210   -1.8700   -2.0260 C   0  0  2  0  0  0  0  0  0  0  0  0
   -4.1640   -3.4970   -1.2610 S   0  0  0  0  0  0  0  0  0  0  0  0
   -5.8760   -4.1230   -1.1790 C   0  0  0  0  0  0  0  0  0  0  0  0
   -2.8730   -1.1950   -2.0800 C   0  0  0  0  0  0  0  0  0  0  0  0
   -2.5570   -0.7820   -0.6740 C   0  0  1  0  0  0  0  0  0  0  0  0
   -1.3040   -0.1960   -0.5180 O   0  0  0  0  0  0  0  0  0  0  0  0
   -0.2740   -0.6890    0.2660 C   0  0  0  0  0  0  0  0  0  0  0  0
   -0.5020   -1.7580    0.8860 O   0  0  0  0  0  0  0  0  0  0  0  0
    1.0110   -0.0140    0.3760 C   0  0  0  0  0  0  0  0  0  0  0  0
    1.2670    1.0710   -0.2430 N   0  0  0  0  0  0  0  0  0  0  0  0
    2.4780    1.7330   -0.1570 N   0  0  0  0  0  0  0  0  0  0  0  0
    3.7430    1.1050   -0.0860 C   0  0  0  0  0  0  0  0  0  0  0  0
    3.8040   -0.1420   -0.1000 O   0  0  0  0  0  0  0  0  0  0  0  0
    4.9790    1.9050    0.0040 C   0  0  0  0  0  0  0  0  0  0  0  0
    6.1650    1.0920    0.0690 N   0  0  0  0  0  0  0  0  0  0  0  0
    6.9380    0.6280   -1.0310 C   0  0  0  0  0  0  0  0  0  0  0  0
    6.8620    1.0310   -2.2370 O   0  0  0  0  0  0  0  0  0  0  0  0
    7.8850   -0.4210   -0.6100 C   0  0  0  0  0  0  0  0  0  0  0  0
    7.9680   -0.2410    0.8780 C   0  0  0  0  0  0  0  0  0  0  0  0
    6.7960    0.5940    1.2560 C   0  0  0  0  0  0  0  0  0  0  0  0
    6.4210    0.8240    2.4210 O   0  0  0  0  0  0  0  0  0  0  0  0
   -6.2190    1.3740    0.5450 C   0  0  0  0  0  0  0  0  0  0  0  0
   -7.4630    2.4700    1.2490 Cl  0  0  0  0  0  0  0  0  0  0  0  0
  1  2  2  0
  2  3  1  0
  2 27  1  0
  3  4  2  3
  4  5  1  0
  4 10  1  0
  5  6  1  0
  6  7  1  1
  6  9  1  0
  7  8  1  0
  9 10  1  0
 10 11  1  6
 11 12  1  0
 12 13  2  0
 12 14  1  0
 14 15  2  3
 15 16  1  0
 16 17  1  0
 17 18  2  0
 17 19  1  0
 19 20  1  0
 20 21  1  0
 20 25  1  0
 21 22  2  0
 21 23  1  0
 23 24  1  0
 24 25  1  0
 25 26  2  0
 27 28  1  0
M  END
