
     RDKit          3D

 15 16  0  0  0  0  0  0  0  0999 V2000
   -3.6130    1.4910   -0.3640 O   0  0  0  0  0  0  0  0  0  0  0  0
   -2.7060    0.4760   -0.1250 C   0  0  0  0  0  0  0  0  0  0  0  0
   -3.1970   -0.7970    0.1990 C   0  0  0  0  0  0  0  0  0  0  0  0
   -2.3350   -1.8420    0.4470 C   0  0  0  0  0  0  0  0  0  0  0  0
   -0.9800   -1.5910    0.3660 C   0  0  0  0  0  0  0  0  0  0  0  0
   -0.4980   -0.3280    0.0460 C   0  0  0  0  0  0  0  0  0  0  0  0
    0.9550   -0.1440   -0.0240 C   0  0  0  0  0  0  0  0  0  0  0  0
    1.6960   -0.7580   -1.0120 C   0  0  0  0  0  0  0  0  0  0  0  0
    3.0620   -0.5960   -1.0830 C   0  0  0  0  0  0  0  0  0  0  0  0
    3.7150    0.1810   -0.1730 C   0  0  0  0  0  0  0  0  0  0  0  0
    2.9740    0.8060    0.8300 C   0  0  0  0  0  0  0  0  0  0  0  0
    1.6020    0.6410    0.8970 C   0  0  0  0  0  0  0  0  0  0  0  0
    0.6390    1.4110    2.1380 Cl  0  0  0  0  0  0  0  0  0  0  0  0
   -1.3480    0.7290   -0.2060 C   0  0  0  0  0  0  0  0  0  0  0  0
   -0.8630    1.9930   -0.5260 O   0  0  0  0  0  0  0  0  0  0  0  0
  1  2  1  0
  2  3  2  0
  2 14  1  0
  3  4  1  0
  4  5  2  0
  5  6  1  0
  6  7  1  0
  6 14  2  0
  7  8  2  0
  7 12  1  0
  8  9  1  0
  9 10  2  0
 10 11  1  0
 11 12  2  0
 12 13  1  0
 14 15  1  0
M  END
