
     RDKit          3D

 27 29  0  0  0  0  0  0  0  0999 V2000
   -1.9950    5.7030   -0.7980 C   0  0  0  0  0  0  0  0  0  0  0  0
   -1.5600    4.4610   -0.8820 C   0  0  0  0  0  0  0  0  0  0  0  0
   -0.4520    4.1510   -1.6470 O   0  0  0  0  0  0  0  0  0  0  0  0
    0.0150    2.8420   -1.7530 C   0  0  0  0  0  0  0  0  0  0  0  0
    1.0280    2.6480   -2.4630 O   0  0  0  0  0  0  0  0  0  0  0  0
   -0.6770    1.7420   -1.0430 C   0  0  0  0  0  0  0  0  0  0  0  0
    0.0050    0.6890   -0.7440 C   0  0  0  0  0  0  0  0  0  0  0  0
    1.7280    0.6180   -1.2080 S   0  0  0  0  0  0  0  0  0  0  0  0
    2.5360   -0.8720   -0.6450 C   0  0  1  0  0  0  0  0  0  0  0  0
    3.9910   -0.8080   -1.1230 C   0  0  0  0  0  0  0  0  0  0  0  0
    4.8300   -1.8640   -0.4780 C   0  0  0  0  0  0  0  0  0  0  0  0
    4.7130   -1.9290    0.9000 O   0  0  0  0  0  0  0  0  0  0  0  0
    3.4020   -2.2140    1.2150 C   0  0  0  0  0  0  0  0  0  0  0  0
    2.5280   -1.0100    0.8640 C   0  0  0  0  0  0  0  0  0  0  0  0
   -0.4940   -0.4210   -0.0150 N   0  0  0  0  0  0  0  0  0  0  0  0
   -1.6770   -0.5070    0.4360 C   0  0  0  0  0  0  0  0  0  0  0  0
   -2.0800   -1.6660    1.1510 N   0  0  0  0  0  0  0  0  0  0  0  0
   -3.2810   -1.6170    1.9910 C   0  0  0  0  0  0  0  0  0  0  0  0
   -1.3620   -2.9140    1.0990 C   0  0  0  0  0  0  0  0  0  0  0  0
   -1.5100   -3.4860   -0.2870 C   0  0  0  0  0  0  0  0  0  0  0  0
   -0.9820   -4.5750   -0.6170 O   0  0  0  0  0  0  0  0  0  0  0  0
   -2.2430   -2.8190   -1.2570 O   0  0  0  0  0  0  0  0  0  0  0  0
   -2.8280    0.8030    0.2350 S   0  0  0  0  0  0  0  0  0  0  0  0
   -2.1140    2.0350   -0.8200 C   0  0  1  0  0  0  0  0  0  0  0  0
   -2.2400    3.3880   -0.1720 C   0  0  0  0  0  0  0  0  0  0  0  0
   -2.8730    3.4950    0.9540 C   0  0  0  0  0  0  0  0  0  0  0  0
   -3.0610    4.9290    1.8840 Cl  0  0  0  0  0  0  0  0  0  0  0  0
  1  2  2  0
  2  3  1  0
  2 25  1  0
  3  4  1  0
  4  5  2  0
  4  6  1  0
  6  7  2  0
  6 24  1  0
  7  8  1  0
  7 15  1  0
  9  8  1  1
  9 10  1  0
  9 14  1  0
 10 11  1  0
 11 12  1  0
 12 13  1  0
 13 14  1  0
 15 16  2  0
 16 17  1  0
 16 23  1  0
 17 18  1  0
 17 19  1  0
 19 20  1  0
 20 21  2  0
 20 22  1  0
 24 23  1  1
 24 25  1  0
 25 26  2  3
 26 27  1  0
M  END
