
     RDKit          3D

  8  8  0  0  0  0  0  0  0  0999 V2000
    2.3050   -0.2480   -0.0360 N   0  0  0  0  0  0  0  0  0  0  0  0
    0.8870   -0.0970   -0.0150 C   0  0  0  0  0  0  0  0  0  0  0  0
    0.2950    1.1450   -0.1590 C   0  0  0  0  0  0  0  0  0  0  0  0
   -1.0750    1.3260   -0.1430 C   0  0  0  0  0  0  0  0  0  0  0  0
   -1.9110    0.2420    0.0200 C   0  0  0  0  0  0  0  0  0  0  0  0
   -1.3390   -1.0040    0.1650 C   0  0  0  0  0  0  0  0  0  0  0  0
    0.0330   -1.1710    0.1470 C   0  0  0  0  0  0  0  0  0  0  0  0
    0.6080   -2.3970    0.2890 F   0  0  0  0  0  0  0  0  0  0  0  0
  1  2  1  0
  2  3  2  0
  2  7  1  0
  3  4  1  0
  4  5  2  0
  5  6  1  0
  6  7  2  0
  7  8  1  0
M  END
