
     RDKit          3D

 21 23  0  0  0  0  0  0  0  0999 V2000
   -2.4350   -1.5610    2.6040 C   0  0  0  0  0  0  0  0  0  0  0  0
   -2.9850   -0.7860    1.4450 C   0  0  0  0  0  0  0  0  0  0  0  0
   -4.2740   -0.4060    1.3890 N   0  0  0  0  0  0  0  0  0  0  0  0
   -4.7650    0.2940    0.3420 C   0  0  0  0  0  0  0  0  0  0  0  0
   -5.9760    0.6380    0.3140 O   0  0  0  0  0  0  0  0  0  0  0  0
   -4.0090    0.6560   -0.7080 N   0  0  0  0  0  0  0  0  0  0  0  0
   -4.5830    1.4110   -1.8150 C   0  0  0  0  0  0  0  0  0  0  0  0
   -2.7060    0.2910   -0.6860 C   0  0  0  0  0  0  0  0  0  0  0  0
   -2.0020    0.6370   -1.6810 O   0  0  0  0  0  0  0  0  0  0  0  0
   -2.1830   -0.4230    0.3720 C   0  0  0  0  0  0  0  0  0  0  0  0
   -0.8150   -0.7990    0.3810 N   0  0  0  0  0  0  0  0  0  0  0  0
    0.1640    0.0450    0.9460 C   0  0  0  0  0  0  0  0  0  0  0  0
   -0.1550    1.1420    1.4500 O   0  0  0  0  0  0  0  0  0  0  0  0
    1.5960   -0.3450    0.9570 C   0  0  1  0  0  0  0  0  0  0  0  0
    2.1930   -0.3680   -0.4160 C   0  0  0  0  0  0  0  0  0  0  0  0
    3.5990    0.0360   -0.1760 C   0  0  0  0  0  0  0  0  0  0  0  0
    4.6910   -0.2240   -1.1540 C   0  0  2  0  0  0  0  0  0  0  0  0
    6.0760    0.2100   -0.8610 C   0  0  0  0  0  0  0  0  0  0  0  0
    5.2170    0.9960   -1.8710 C   0  0  0  0  0  0  0  0  0  0  0  0
    3.6470    0.6060    0.9610 N   0  0  0  0  0  0  0  0  0  0  0  0
    2.4010    0.6550    1.5750 O   0  0  0  0  0  0  0  0  0  0  0  0
  1  2  1  0
  2  3  1  0
  2 10  2  0
  3  4  1  0
  4  5  2  0
  4  6  1  0
  6  7  1  0
  6  8  1  0
  8  9  2  0
  8 10  1  0
 10 11  1  0
 11 12  1  0
 12 13  2  0
 14 12  1  6
 14 15  1  0
 14 21  1  0
 15 16  1  0
 17 16  1  1
 16 20  2  0
 17 18  1  0
 17 19  1  0
 18 19  1  0
 20 21  1  0
M  END
