
     RDKit          3D

 20 22  0  0  0  0  0  0  0  0999 V2000
    4.4050    0.7430    0.2070 C   0  0  0  0  0  0  0  0  0  0  0  0
    3.0250    0.8880   -0.2180 N   0  0  0  0  0  0  0  0  0  0  0  0
    2.1720    1.1220    0.8750 N   0  0  0  0  0  0  0  0  0  0  0  0
    0.9510    0.4380    0.6240 C   0  0  0  0  0  0  0  0  0  0  0  0
    1.2060   -0.4390   -0.3110 C   0  0  0  0  0  0  0  0  0  0  0  0
    0.1260   -1.2720   -0.7540 N   0  0  0  0  0  0  0  0  0  0  0  0
   -1.1810   -1.1570   -0.2030 C   0  0  0  0  0  0  0  0  0  0  0  0
   -1.3940   -0.2560    0.7410 C   0  0  0  0  0  0  0  0  0  0  0  0
   -2.7440   -0.1670    1.2820 C   0  0  0  0  0  0  0  0  0  0  0  0
   -2.9840    0.3760    2.4090 O   0  0  0  0  0  0  0  0  0  0  0  0
   -3.9300   -0.6990    0.5640 C   0  0  0  0  0  0  0  0  0  0  0  0
   -3.6070   -1.4930   -0.6460 C   0  0  0  0  0  0  0  0  0  0  0  0
   -2.2340   -2.0530   -0.7160 C   0  0  0  0  0  0  0  0  0  0  0  0
   -0.3710    0.6490    1.2730 C   0  0  2  0  0  0  0  0  0  0  0  0
   -0.7720    2.1040    1.2360 C   0  0  0  0  0  0  0  0  0  0  0  0
   -0.8750    2.6120   -0.1470 C   0  0  0  0  0  0  0  0  0  0  0  0
   -1.2000    3.8070   -0.3550 O   0  0  0  0  0  0  0  0  0  0  0  0
   -0.6240    1.8120   -1.2520 O   0  0  0  0  0  0  0  0  0  0  0  0
    2.5920   -0.3450   -0.6860 N   0  0  0  0  0  0  0  0  0  0  0  0
    3.3290   -1.3770   -1.4110 C   0  0  0  0  0  0  0  0  0  0  0  0
  1  2  1  0
  2  3  1  0
  2 19  1  0
  3  4  1  0
  4  5  2  0
  4 14  1  0
  5  6  1  0
  5 19  1  0
  6  7  1  0
  7  8  2  0
  7 13  1  0
  8  9  1  0
  8 14  1  0
  9 10  2  0
  9 11  1  0
 11 12  1  0
 12 13  1  0
 14 15  1  6
 15 16  1  0
 16 17  2  0
 16 18  1  0
 19 20  1  0
M  END
