
     RDKit          3D

 21 23  0  0  0  0  0  0  0  0999 V2000
   -5.4330    2.6440   -1.2160 C   0  0  0  0  0  0  0  0  0  0  0  0
   -4.2020    2.4520   -0.5930 O   0  0  0  0  0  0  0  0  0  0  0  0
   -3.5200    1.2440   -0.5660 C   0  0  0  0  0  0  0  0  0  0  0  0
   -2.2990    1.1620    0.0820 C   0  0  0  0  0  0  0  0  0  0  0  0
   -1.5720   -0.0010    0.1460 C   0  0  0  0  0  0  0  0  0  0  0  0
   -0.2910   -0.0180    0.8470 C   0  0  1  0  0  0  0  0  0  0  0  0
   -0.2090   -1.1990    1.6820 N   0  0  0  0  0  0  0  0  0  0  0  0
    1.0260   -1.7610    2.0960 C   0  0  0  0  0  0  0  0  0  0  0  0
    1.0900   -2.5760    3.0450 O   0  0  0  0  0  0  0  0  0  0  0  0
    2.2610   -1.3730    1.3870 C   0  0  0  0  0  0  0  0  0  0  0  0
    3.4050   -1.8510    1.7200 N   0  0  0  0  0  0  0  0  0  0  0  0
    4.5810   -1.5030    1.0730 O   0  0  0  0  0  0  0  0  0  0  0  0
    4.5410   -0.6040    0.0170 C   0  0  0  0  0  0  0  0  0  0  0  0
    5.6630   -0.2790   -0.5930 C   0  0  0  0  0  0  0  0  0  0  0  0
    6.8750   -0.8200   -0.1990 O   0  0  0  0  0  0  0  0  0  0  0  0
    3.2350   -0.0740   -0.3440 C   0  0  0  0  0  0  0  0  0  0  0  0
    2.1100   -0.4280    0.3020 C   0  0  0  0  0  0  0  0  0  0  0  0
    0.8500    0.0800   -0.0440 N   0  0  0  0  0  0  0  0  0  0  0  0
   -2.0880   -1.1200   -0.4610 C   0  0  0  0  0  0  0  0  0  0  0  0
   -3.3240   -1.0120   -1.1110 C   0  0  0  0  0  0  0  0  0  0  0  0
   -3.9990    0.1460   -1.1480 N   0  0  0  0  0  0  0  0  0  0  0  0
  1  2  1  0
  2  3  1  0
  3  4  2  0
  3 21  1  0
  4  5  1  0
  6  5  1  6
  5 19  2  0
  6  7  1  0
  6 18  1  0
  7  8  1  0
  8  9  2  0
  8 10  1  0
 10 11  2  0
 10 17  1  0
 11 12  1  0
 12 13  1  0
 13 14  2  3
 13 16  1  0
 14 15  1  0
 16 17  2  0
 17 18  1  0
 19 20  1  0
 20 21  2  0
M  END
