
     RDKit          3D

 16 17  0  0  0  0  0  0  0  0999 V2000
    4.3880    0.8350    3.0450 C   0  0  0  0  0  0  0  0  0  0  0  0
    3.5610    0.4030    1.8670 C   0  0  0  0  0  0  0  0  0  0  0  0
    2.2450    0.4630    1.7400 C   0  0  0  0  0  0  0  0  0  0  0  0
    1.9300   -0.0800    0.4060 C   0  0  0  0  0  0  0  0  0  0  0  0
    0.7170   -0.1820   -0.0790 C   0  0  0  0  0  0  0  0  0  0  0  0
    0.4480   -0.7210   -1.3930 C   0  0  0  0  0  0  0  0  0  0  0  0
   -0.8060   -0.7930   -1.8160 C   0  0  0  0  0  0  0  0  0  0  0  0
   -1.8580   -0.3540   -1.0040 N   0  0  0  0  0  0  0  0  0  0  0  0
   -2.5250   -1.2630   -0.1160 C   0  0  0  0  0  0  0  0  0  0  0  0
   -3.7110   -0.5140    0.4700 C   0  0  0  0  0  0  0  0  0  0  0  0
   -4.4430    0.0390   -0.5720 O   0  0  0  0  0  0  0  0  0  0  0  0
   -3.7960    1.1270   -1.1470 C   0  0  0  0  0  0  0  0  0  0  0  0
   -2.2910    1.0130   -1.0450 C   0  0  0  0  0  0  0  0  0  0  0  0
    3.2130   -0.4380   -0.1700 C   0  0  0  0  0  0  0  0  0  0  0  0
    3.4680   -0.9870   -1.4020 O   0  0  0  0  0  0  0  0  0  0  0  0
    4.1450   -0.1460    0.7010 N   0  0  0  0  0  0  0  0  0  0  0  0
  1  2  1  0
  2  3  2  0
  2 16  1  0
  3  4  1  0
  4  5  2  3
  4 14  1  0
  5  6  1  0
  6  7  2  3
  7  8  1  0
  8  9  1  0
  8 13  1  0
  9 10  1  0
 10 11  1  0
 11 12  1  0
 12 13  1  0
 14 15  1  0
 14 16  2  0
M  END
