
     RDKit          3D

 16 17  0  0  0  0  0  0  0  0999 V2000
    4.5240   -0.6180   -0.9460 C   0  0  0  0  0  0  0  0  0  0  0  0
    3.1950   -0.6840   -0.8630 C   0  0  0  0  0  0  0  0  0  0  0  0
    2.4310    0.2500   -0.0550 C   0  0  0  0  0  0  0  0  0  0  0  0
    1.1340    0.2120    0.0470 C   0  0  0  0  0  0  0  0  0  0  0  0
    0.3100   -0.7670   -0.6330 C   0  0  0  0  0  0  0  0  0  0  0  0
   -1.0350   -0.7520   -0.4850 C   0  0  0  0  0  0  0  0  0  0  0  0
   -1.8040   -1.7780   -1.2070 C   0  0  0  0  0  0  0  0  0  0  0  0
   -1.2700   -2.6370   -1.9330 O   0  0  0  0  0  0  0  0  0  0  0  0
   -3.2100   -1.7430   -1.0370 N   0  0  0  0  0  0  0  0  0  0  0  0
   -3.8550   -0.7880   -0.2250 C   0  0  0  0  0  0  0  0  0  0  0  0
   -5.1430   -0.8080   -0.1090 O   0  0  0  0  0  0  0  0  0  0  0  0
   -3.1210    0.2370    0.5010 C   0  0  0  0  0  0  0  0  0  0  0  0
   -1.6990    0.1900    0.3190 N   0  0  0  0  0  0  0  0  0  0  0  0
   -0.8800    1.1760    1.0060 C   0  0  0  0  0  0  0  0  0  0  0  0
    0.4160    1.1790    0.8760 C   0  0  0  0  0  0  0  0  0  0  0  0
    1.2200    2.2040    1.5950 C   0  0  0  0  0  0  0  0  0  0  0  0
  1  2  2  0
  2  3  1  0
  3  4  2  3
  4  5  1  0
  4 15  1  0
  5  6  2  0
  6  7  1  0
  6 13  1  0
  7  8  2  0
  7  9  1  0
  9 10  1  0
 10 11  2  0
 10 12  1  0
 12 13  1  0
 13 14  1  0
 14 15  2  0
 15 16  1  0
M  END
