
     RDKit          3D

 16 18  0  0  0  0  0  0  0  0999 V2000
    4.7590    0.8110   -0.3710 O   0  0  0  0  0  0  0  0  0  0  0  0
    3.6080    0.1290    0.0480 C   0  0  0  0  0  0  0  0  0  0  0  0
    3.6750   -1.0290    0.7920 C   0  0  0  0  0  0  0  0  0  0  0  0
    2.5570   -1.7180    1.2150 C   0  0  0  0  0  0  0  0  0  0  0  0
    1.3160   -1.1990    0.8610 C   0  0  0  0  0  0  0  0  0  0  0  0
    0.1780   -1.8140    1.2360 N   0  0  0  0  0  0  0  0  0  0  0  0
   -1.0030   -1.3050    0.8900 N   0  0  0  0  0  0  0  0  0  0  0  0
   -1.1560   -0.2000    0.1780 C   0  0  0  0  0  0  0  0  0  0  0  0
   -2.4970    0.2960   -0.1630 C   0  0  0  0  0  0  0  0  0  0  0  0
   -3.6950   -0.2790    0.1850 C   0  0  0  0  0  0  0  0  0  0  0  0
   -4.7220    0.4960   -0.3300 C   0  0  0  0  0  0  0  0  0  0  0  0
   -4.0770    1.5320   -0.9830 C   0  0  0  0  0  0  0  0  0  0  0  0
   -2.7970    1.3650   -0.8550 O   0  0  0  0  0  0  0  0  0  0  0  0
   -0.0290    0.4760   -0.2370 C   0  0  0  0  0  0  0  0  0  0  0  0
    1.2150   -0.0400    0.1160 C   0  0  0  0  0  0  0  0  0  0  0  0
    2.3670    0.6090   -0.2820 C   0  0  0  0  0  0  0  0  0  0  0  0
  1  2  1  0
  2  3  2  0
  2 16  1  0
  3  4  1  0
  4  5  2  0
  5  6  1  0
  5 15  1  0
  6  7  2  0
  7  8  1  0
  8  9  1  0
  8 14  2  0
  9 10  2  0
  9 13  1  0
 10 11  1  0
 11 12  2  0
 12 13  1  0
 14 15  1  0
 15 16  2  0
M  END
