
     RDKit          3D

 16 17  0  0  0  0  0  0  0  0999 V2000
   -1.3320   -2.7460    0.6620 C   0  0  0  0  0  0  0  0  0  0  0  0
   -1.7670   -1.7180    0.0350 C   0  0  0  0  0  0  0  0  0  0  0  0
   -1.2010   -0.4740   -0.2520 C   0  0  0  0  0  0  0  0  0  0  0  0
   -1.9930    0.4620   -0.8170 C   0  0  0  0  0  0  0  0  0  0  0  0
   -1.8120    1.8650   -1.2540 C   0  0  0  0  0  0  0  0  0  0  0  0
   -1.0190    2.8000   -0.6930 C   0  0  0  0  0  0  0  0  0  0  0  0
   -0.0860    2.8460    0.4650 C   0  0  0  0  0  0  0  0  0  0  0  0
    0.7540    1.9780    1.0200 C   0  0  0  0  0  0  0  0  0  0  0  0
    1.0350    0.5780    0.6120 C   0  0  0  0  0  0  0  0  0  0  0  0
    2.3260    0.3380    0.7680 N   0  0  0  0  0  0  0  0  0  0  0  0
    2.8330   -0.8310    0.3010 C   0  0  0  0  0  0  0  0  0  0  0  0
    4.0550   -1.0240    0.4690 O   0  0  0  0  0  0  0  0  0  0  0  0
    2.0900   -1.7760   -0.3250 N   0  0  0  0  0  0  0  0  0  0  0  0
    0.7710   -1.5320   -0.4860 C   0  0  0  0  0  0  0  0  0  0  0  0
    0.0070   -2.3590   -1.0910 O   0  0  0  0  0  0  0  0  0  0  0  0
    0.2380   -0.3760   -0.0180 C   0  0  0  0  0  0  0  0  0  0  0  0
  1  2  2  0
  2  3  1  0
  3  4  2  0
  3 16  1  0
  4  5  1  0
  5  6  2  0
  6  7  1  0
  7  8  2  0
  8  9  1  0
  9 10  1  0
  9 16  2  0
 10 11  1  0
 11 12  2  0
 11 13  1  0
 13 14  1  0
 14 15  2  0
 14 16  1  0
M  END
