
     RDKit          3D

  7  7  0  0  0  0  0  0  0  0999 V2000
    2.2090   -0.2830    1.0510 O   0  0  0  0  0  0  0  0  0  0  0  0
    1.9400    0.2280   -0.2140 C   0  0  0  0  0  0  0  0  0  0  0  0
    0.4690    0.2690   -0.4820 C   0  0  2  0  0  0  0  0  0  0  0  0
   -0.3040    1.1140    0.4780 C   0  0  0  0  0  0  0  0  0  0  0  0
   -1.7130    0.5760    0.3730 C   0  0  0  0  0  0  0  0  0  0  0  0
   -1.6360   -0.7070   -0.4170 C   0  0  0  0  0  0  0  0  0  0  0  0
   -0.1710   -1.0990   -0.2170 C   0  0  0  0  0  0  0  0  0  0  0  0
  1  2  1  0
  3  2  1  1
  3  4  1  0
  3  7  1  0
  4  5  1  0
  5  6  1  0
  6  7  1  0
M  END
