
     RDKit          3D

  7  7  0  0  0  0  0  0  0  0999 V2000
    2.9480    0.0170    0.6120 O   0  0  0  0  0  0  0  0  0  0  0  0
    2.4150    0.2300   -0.6490 C   0  0  0  0  0  0  0  0  0  0  0  0
    1.0730   -0.4560   -0.7500 C   0  0  0  0  0  0  0  0  0  0  0  0
    0.1140    0.0900    0.2850 C   0  0  0  0  0  0  0  0  0  0  0  0
   -1.2260   -0.5610    0.2220 C   0  0  1  0  0  0  0  0  0  0  0  0
   -2.3170   -0.1670    1.1570 C   0  0  0  0  0  0  0  0  0  0  0  0
   -2.3500    0.3030   -0.2910 C   0  0  0  0  0  0  0  0  0  0  0  0
  1  2  1  0
  2  3  1  0
  3  4  1  0
  5  4  1  1
  5  6  1  0
  5  7  1  0
  6  7  1  0
M  END
