
     RDKit          3D

  7  7  0  0  0  0  0  0  0  0999 V2000
    2.5720   -0.2920    0.1260 C   0  0  0  0  0  0  0  0  0  0  0  0
    1.4210    0.4200   -0.5620 C   0  0  0  0  0  0  0  0  0  0  0  0
    0.1750    0.2860    0.3000 C   0  0  1  0  0  0  0  0  0  0  0  0
   -0.9830    0.9870   -0.3640 C   0  0  0  0  0  0  0  0  0  0  0  0
   -2.1430    0.0870    0.0010 C   0  0  0  0  0  0  0  0  0  0  0  0
   -1.5000   -1.1950    0.3970 C   0  0  0  0  0  0  0  0  0  0  0  0
   -0.1440   -1.0350    0.4380 O   0  0  0  0  0  0  0  0  0  0  0  0
  1  2  1  0
  3  2  1  6
  3  4  1  0
  3  7  1  0
  4  5  1  0
  5  6  1  0
  6  7  1  0
M  END
