
     RDKit          3D

  8  7  0  0  0  0  0  0  0  0999 V2000
    3.1200   -0.4270   -0.3840 C   0  0  0  0  0  0  0  0  0  0  0  0
    1.8070    0.0780    0.1460 C   0  0  0  0  0  0  0  0  0  0  0  0
    0.7030   -0.4150   -0.5950 O   0  0  0  0  0  0  0  0  0  0  0  0
   -0.5620   -0.0240   -0.2090 C   0  0  0  0  0  0  0  0  0  0  0  0
   -0.8440    1.3510    0.2680 C   0  0  0  0  0  0  0  0  0  0  0  0
   -1.5420   -0.8910   -0.2660 C   0  0  0  0  0  0  0  0  0  0  0  0
   -2.9100   -0.4760    0.1490 C   0  0  0  0  0  0  0  0  0  0  0  0
   -1.2030   -2.5140   -0.8310 Cl  0  0  0  0  0  0  0  0  0  0  0  0
  1  2  1  0
  2  3  1  0
  3  4  1  0
  4  5  1  0
  4  6  2  3
  6  7  1  0
  6  8  1  0
M  END
