
     RDKit          3D

  7  7  0  0  0  0  0  0  0  0999 V2000
    3.4380   -0.2630   -0.4780 Cl  0  0  0  0  0  0  0  0  0  0  0  0
    2.1210   -0.6210    0.5730 O   0  0  0  0  0  0  0  0  0  0  0  0
    0.9830   -0.1670   -0.0430 C   0  0  1  0  0  0  0  0  0  0  0  0
   -0.1090   -1.2170   -0.1390 C   0  0  0  0  0  0  0  0  0  0  0  0
   -1.2620   -0.3450   -0.6540 C   0  0  0  0  0  0  0  0  0  0  0  0
   -1.0770    0.9660    0.1050 C   0  0  0  0  0  0  0  0  0  0  0  0
    0.2360    0.8520    0.8260 C   0  0  0  0  0  0  0  0  0  0  0  0
  1  2  1  0
  3  2  1  1
  3  4  1  0
  3  7  1  0
  4  5  1  0
  5  6  1  0
  6  7  1  0
M  END
