
     RDKit          3D

  7  7  0  0  0  0  0  0  0  0999 V2000
   -2.0270   -0.3270   -0.0940 C   0  0  0  0  0  0  0  0  0  0  0  0
   -0.6210    0.0370    0.2160 C   0  0  2  0  0  0  0  0  0  0  0  0
   -0.4500    0.7520    1.3850 O   0  0  0  0  0  0  0  0  0  0  0  0
    0.0740    0.7450   -0.9580 C   0  0  0  0  0  0  0  0  0  0  0  0
    1.5040    0.7830   -0.4270 C   0  0  0  0  0  0  0  0  0  0  0  0
    1.6590   -0.4770    0.4140 C   0  0  0  0  0  0  0  0  0  0  0  0
    0.3000   -1.1830    0.3130 C   0  0  0  0  0  0  0  0  0  0  0  0
  2  1  1  6
  2  3  1  0
  2  4  1  0
  2  7  1  0
  4  5  1  0
  5  6  1  0
  6  7  1  0
M  END
