
     RDKit          3D

  8  7  0  0  0  0  0  0  0  0999 V2000
   -2.0200    0.7190    0.6320 C   0  0  0  0  0  0  0  0  0  0  0  0
   -0.9800   -0.1370   -0.0240 C   0  0  2  0  0  0  0  0  0  0  0  0
   -1.2800   -0.2490   -1.5140 C   0  0  0  0  0  0  0  0  0  0  0  0
   -1.0400   -1.3990    0.5750 O   0  0  0  0  0  0  0  0  0  0  0  0
    0.4150    0.4140    0.1240 C   0  0  0  0  0  0  0  0  0  0  0  0
    1.4210   -0.4890   -0.5560 C   0  0  0  0  0  0  0  0  0  0  0  0
    2.8010    0.1420   -0.3580 C   0  0  0  0  0  0  0  0  0  0  0  0
    3.0920    0.2430    1.3910 Cl  0  0  0  0  0  0  0  0  0  0  0  0
  2  1  1  1
  2  3  1  0
  2  4  1  0
  2  5  1  0
  5  6  1  0
  6  7  1  0
  7  8  1  0
M  END
