
     RDKit          3D

 21 22  0  0  0  0  0  0  0  0999 V2000
   -3.7050    4.7220    0.4810 C   0  0  0  0  0  0  0  0  0  0  0  0
   -3.1680    3.3950    0.8890 C   0  0  0  0  0  0  0  0  0  0  0  0
   -3.5550    2.9290    1.9420 O   0  0  0  0  0  0  0  0  0  0  0  0
   -2.1940    2.7170   -0.0110 C   0  0  0  0  0  0  0  0  0  0  0  0
   -1.8090    1.3980    0.6290 C   0  0  0  0  0  0  0  0  0  0  0  0
   -0.8550    0.6760   -0.1950 N   0  0  0  0  0  0  0  0  0  0  0  0
    0.4550    1.2050   -0.3400 C   0  0  0  0  0  0  0  0  0  0  0  0
    1.4740    0.3660   -0.2570 C   0  0  0  0  0  0  0  0  0  0  0  0
    2.8090    0.9470   -0.4110 C   0  0  0  0  0  0  0  0  0  0  0  0
    3.8490    0.1240   -0.3320 C   0  0  0  0  0  0  0  0  0  0  0  0
    5.2530    0.4770   -0.4540 C   0  0  0  0  0  0  0  0  0  0  0  0
    6.0090   -0.5940   -0.3210 C   0  0  0  0  0  0  0  0  0  0  0  0
    5.1660   -1.7690   -0.0970 C   0  0  0  0  0  0  0  0  0  0  0  0
    3.8070   -1.2780   -0.1100 N   0  0  0  0  0  0  0  0  0  0  0  0
   -1.1550   -0.5240   -0.8620 C   0  0  0  0  0  0  0  0  0  0  0  0
   -1.3960   -1.6520   -0.2190 C   0  0  0  0  0  0  0  0  0  0  0  0
   -1.7230   -2.9770   -0.8500 C   0  0  0  0  0  0  0  0  0  0  0  0
   -2.6700   -3.5380    0.2190 C   0  0  0  0  0  0  0  0  0  0  0  0
   -1.8240   -3.2590    1.4640 C   0  0  0  0  0  0  0  0  0  0  0  0
   -1.3980   -1.8630    1.2160 C   0  0  0  0  0  0  0  0  0  0  0  0
   -1.0980   -1.0310    2.0990 O   0  0  0  0  0  0  0  0  0  0  0  0
  1  2  1  0
  2  3  2  0
  2  4  1  0
  4  5  1  0
  5  6  1  0
  6  7  1  0
  6 15  1  0
  7  8  2  3
  8  9  1  0
  9 10  2  3
 10 11  1  0
 10 14  1  0
 11 12  2  0
 12 13  1  0
 13 14  1  0
 15 16  2  3
 16 17  1  0
 16 20  1  0
 17 18  1  0
 18 19  1  0
 19 20  1  0
 20 21  2  0
M  END
