
     RDKit          3D

 22 25  0  0  0  0  0  0  0  0999 V2000
   -2.1910    2.5590    2.2110 C   0  0  0  0  0  0  0  0  0  0  0  0
   -2.7300    1.5500    1.2310 C   0  0  0  0  0  0  0  0  0  0  0  0
   -1.8550    0.8010    0.6040 C   0  0  0  0  0  0  0  0  0  0  0  0
   -0.5170    0.9550    0.8510 N   0  0  0  0  0  0  0  0  0  0  0  0
    0.4360    0.2340    0.2550 C   0  0  0  0  0  0  0  0  0  0  0  0
    1.8480    0.4460    0.5630 C   0  0  0  0  0  0  0  0  0  0  0  0
    2.2600    1.3920    1.4730 C   0  0  0  0  0  0  0  0  0  0  0  0
    3.6020    1.5680    1.7410 C   0  0  0  0  0  0  0  0  0  0  0  0
    4.5550    0.8090    1.1110 C   0  0  0  0  0  0  0  0  0  0  0  0
    5.8980    0.7740    1.1830 N   0  0  0  0  0  0  0  0  0  0  0  0
    6.3390   -0.1630    0.3460 N   0  0  0  0  0  0  0  0  0  0  0  0
    5.2870   -0.7190   -0.2520 N   0  0  0  0  0  0  0  0  0  0  0  0
    4.1570   -0.1460    0.1920 C   0  0  0  0  0  0  0  0  0  0  0  0
    2.8010   -0.3170   -0.0720 C   0  0  0  0  0  0  0  0  0  0  0  0
    0.0250   -0.6840   -0.6300 N   0  0  0  0  0  0  0  0  0  0  0  0
   -1.2750   -0.8870   -0.9200 C   0  0  0  0  0  0  0  0  0  0  0  0
   -2.2810   -0.1420   -0.3060 C   0  0  0  0  0  0  0  0  0  0  0  0
   -3.5510   -0.3520   -0.6000 C   0  0  0  0  0  0  0  0  0  0  0  0
   -3.9950   -1.3540   -1.5660 C   0  0  0  0  0  0  0  0  0  0  0  0
   -2.9370   -2.1330   -2.2070 C   0  0  0  0  0  0  0  0  0  0  0  0
   -1.6880   -1.8980   -1.8910 C   0  0  0  0  0  0  0  0  0  0  0  0
   -0.6310   -2.7050   -2.5590 C   0  0  0  0  0  0  0  0  0  0  0  0
  1  2  1  0
  2  3  2  3
  3  4  1  0
  3 17  1  0
  4  5  2  0
  5  6  1  0
  5 15  1  0
  6  7  2  0
  6 14  1  0
  7  8  1  0
  8  9  2  0
  9 10  1  0
  9 13  1  0
 10 11  1  0
 11 12  2  0
 12 13  1  0
 13 14  2  0
 15 16  2  0
 16 17  1  0
 16 21  1  0
 17 18  2  0
 18 19  1  0
 19 20  1  0
 20 21  2  0
 21 22  1  0
M  END
