
     RDKit          3D

 21 22  0  0  0  0  0  0  0  0999 V2000
   -4.5090   -2.3560    0.5610 C   0  0  0  0  0  0  0  0  0  0  0  0
   -3.7830   -1.0820    0.2580 C   0  0  0  0  0  0  0  0  0  0  0  0
   -2.4680   -1.1150    0.3000 C   0  0  0  0  0  0  0  0  0  0  0  0
   -1.4240   -0.0420    0.0530 C   0  0  0  0  0  0  0  0  0  0  0  0
   -0.1370   -0.5520   -0.2460 C   0  0  0  0  0  0  0  0  0  0  0  0
   -0.2420   -1.9420   -0.1540 O   0  0  0  0  0  0  0  0  0  0  0  0
    1.1720   -0.3430   -0.5860 N   0  0  0  0  0  0  0  0  0  0  0  0
    1.9520    0.7840   -0.9260 C   0  0  0  0  0  0  0  0  0  0  0  0
    2.7050    1.2880    0.2920 C   0  0  0  0  0  0  0  0  0  0  0  0
    4.0180    0.5240    0.3930 C   0  0  1  0  0  0  0  0  0  0  0  0
    4.8830    1.0960    1.4940 C   0  0  0  0  0  0  0  0  0  0  0  0
    3.6370   -0.7830    0.7830 O   0  0  0  0  0  0  0  0  0  0  0  0
    3.3560   -1.5460   -0.3440 C   0  0  1  0  0  0  0  0  0  0  0  0
    3.8900   -2.9700   -0.0830 C   0  0  0  0  0  0  0  0  0  0  0  0
    1.8980   -1.6960   -0.5540 C   0  0  0  0  0  0  0  0  0  0  0  0
   -1.7460    1.2320    0.1150 C   0  0  0  0  0  0  0  0  0  0  0  0
   -0.6620    2.2020   -0.1270 C   0  0  0  0  0  0  0  0  0  0  0  0
   -3.0310    1.8550    0.3560 N   0  0  0  0  0  0  0  0  0  0  0  0
   -4.3020    1.3270    0.0210 C   0  0  0  0  0  0  0  0  0  0  0  0
   -5.3760    2.2820   -0.3010 C   0  0  0  0  0  0  0  0  0  0  0  0
   -4.6520    0.0430   -0.0290 C   0  0  0  0  0  0  0  0  0  0  0  0
  1  2  1  0
  2  3  2  0
  2 21  1  0
  3  4  1  0
  4  5  1  0
  4 16  2  0
  5  6  2  0
  5  7  1  0
  7  8  1  0
  7 15  1  0
  8  9  1  0
  9 10  1  0
 10 11  1  1
 10 12  1  0
 12 13  1  0
 13 14  1  1
 13 15  1  0
 16 17  1  0
 16 18  1  0
 18 19  1  0
 19 20  1  0
 19 21  2  0
M  END
