
     RDKit          3D

 28 31  0  0  0  0  0  0  0  0999 V2000
   -1.9430   -1.0840    3.1430 C   0  0  0  0  0  0  0  0  0  0  0  0
   -1.2360   -1.2280    1.7620 C   0  0  2  0  0  0  0  0  0  0  0  0
   -0.4350   -2.5180    2.0460 C   0  0  0  0  0  0  0  0  0  0  0  0
   -1.2820   -3.5730    2.3690 O   0  0  0  0  0  0  0  0  0  0  0  0
   -0.3300   -0.1000    1.5260 C   0  0  0  0  0  0  0  0  0  0  0  0
   -0.0460    0.4200    0.1570 C   0  0  2  0  0  0  0  0  0  0  0  0
    1.0550   -0.4270   -0.3890 C   0  0  0  0  0  0  0  0  0  0  0  0
    2.3330   -0.6530    0.2660 C   0  0  1  0  0  0  0  0  0  0  0  0
    3.1200   -1.6260   -0.6590 C   0  0  0  0  0  0  0  0  0  0  0  0
    4.4370   -1.0470   -1.0630 C   0  0  0  0  0  0  0  0  0  0  0  0
    5.2550   -0.6380   -0.0450 O   0  0  0  0  0  0  0  0  0  0  0  0
    4.5670   -0.3970    1.1150 C   0  0  0  0  0  0  0  0  0  0  0  0
    3.2960    0.4040    0.6320 C   0  0  1  0  0  0  0  0  0  0  0  0
    3.7000    1.2780   -0.3430 O   0  0  0  0  0  0  0  0  0  0  0  0
    0.3720    1.8480    0.0750 C   0  0  1  0  0  0  0  0  0  0  0  0
    0.6190    2.3370   -1.3190 C   0  0  0  0  0  0  0  0  0  0  0  0
    0.1110    3.7850   -1.4050 C   0  0  0  0  0  0  0  0  0  0  0  0
   -1.2450    3.8840   -1.2060 O   0  0  0  0  0  0  0  0  0  0  0  0
   -1.6350    3.4210    0.0490 C   0  0  0  0  0  0  0  0  0  0  0  0
   -0.4720    2.8630    0.7950 C   0  0  0  0  0  0  0  0  0  0  0  0
   -1.2270    0.1770   -0.7860 C   0  0  1  0  0  0  0  0  0  0  0  0
   -0.9720   -0.6830   -1.9650 C   0  0  0  0  0  0  0  0  0  0  0  0
   -2.1780   -0.4290   -2.9170 C   0  0  0  0  0  0  0  0  0  0  0  0
   -3.3400   -1.1400   -2.2570 C   0  0  0  0  0  0  0  0  0  0  0  0
   -3.6410   -0.4160   -0.9830 C   0  0  0  0  0  0  0  0  0  0  0  0
   -2.4730   -0.2650   -0.0640 C   0  0  1  0  0  0  0  0  0  0  0  0
   -2.2770   -1.5140    0.7620 C   0  0  1  0  0  0  0  0  0  0  0  0
   -2.1310   -2.6450    0.0130 O   0  0  0  0  0  0  0  0  0  0  0  0
  2  1  1  1
  2  3  1  0
  2  5  1  0
  2 27  1  0
  3  4  1  0
  5  6  1  0
  6  7  1  6
  6 15  1  0
  6 21  1  0
  8  7  1  6
  8  9  1  0
  8 13  1  0
  9 10  1  0
 10 11  1  0
 11 12  1  0
 12 13  1  0
 13 14  1  6
 15 16  1  6
 15 20  1  0
 16 17  1  0
 17 18  1  0
 18 19  1  0
 19 20  1  0
 21 22  1  6
 21 26  1  0
 22 23  1  0
 23 24  1  0
 24 25  1  0
 26 25  1  6
 26 27  1  0
 27 28  1  6
M  END
