
     RDKit          3D

 28 31  0  0  0  0  0  0  0  0999 V2000
   -1.9330   -1.7880    2.8210 C   0  0  0  0  0  0  0  0  0  0  0  0
   -2.4050   -1.5890    1.3610 C   0  0  2  0  0  0  0  0  0  0  0  0
   -3.3800   -2.6940    1.1380 C   0  0  0  0  0  0  0  0  0  0  0  0
   -1.2480   -1.5950    0.3800 C   0  0  0  0  0  0  0  0  0  0  0  0
   -1.2430   -0.2130   -0.3300 C   0  0  2  0  0  0  0  0  0  0  0  0
   -1.1530   -0.4210   -1.8400 C   0  0  0  0  0  0  0  0  0  0  0  0
   -0.8110    0.7920   -2.6100 C   0  0  0  0  0  0  0  0  0  0  0  0
    0.3350    1.6180   -2.1550 C   0  0  0  0  0  0  0  0  0  0  0  0
    0.2170    1.7140   -0.6660 C   0  0  2  0  0  0  0  0  0  0  0  0
    0.9860    2.7580    0.0010 C   0  0  1  0  0  0  0  0  0  0  0  0
    0.8100    3.9240   -0.7950 O   0  0  0  0  0  0  0  0  0  0  0  0
    0.3400    3.1260    1.3300 C   0  0  1  0  0  0  0  0  0  0  0  0
   -0.7240    3.9990    1.0910 O   0  0  0  0  0  0  0  0  0  0  0  0
   -0.0360    1.8980    2.0630 C   0  0  0  0  0  0  0  0  0  0  0  0
    0.4430    0.6160    1.4230 C   0  0  0  0  0  0  0  0  0  0  0  0
    0.0980    0.3570    0.0300 C   0  0  1  0  0  0  0  0  0  0  0  0
    1.0890   -0.6150   -0.5350 C   0  0  0  0  0  0  0  0  0  0  0  0
    2.5320   -0.5220   -0.3800 C   0  0  1  0  0  0  0  0  0  0  0  0
    3.2350    0.5430   -0.8230 O   0  0  0  0  0  0  0  0  0  0  0  0
    3.1110   -0.9940    0.9350 C   0  0  0  0  0  0  0  0  0  0  0  0
    4.1300   -2.1080    0.7030 C   0  0  0  0  0  0  0  0  0  0  0  0
    5.0830   -1.7220   -0.2360 O   0  0  0  0  0  0  0  0  0  0  0  0
    4.5000   -1.6370   -1.4970 C   0  0  0  0  0  0  0  0  0  0  0  0
    3.0310   -1.6490   -1.3490 C   0  0  0  0  0  0  0  0  0  0  0  0
   -2.5210    0.2390    0.0500 C   0  0  1  0  0  0  0  0  0  0  0  0
   -3.0970    1.5880    0.0790 C   0  0  0  0  0  0  0  0  0  0  0  0
   -3.5830   -0.4590   -0.8460 C   0  0  0  0  0  0  0  0  0  0  0  0
   -2.8390   -0.3150    1.3230 O   0  0  0  0  0  0  0  0  0  0  0  0
  2  1  1  1
  2  3  1  0
  2  4  1  0
  2 28  1  0
  5  4  1  1
  5  6  1  0
  5 16  1  0
  5 25  1  0
  6  7  1  0
  7  8  1  0
  9  8  1  6
  9 10  1  0
  9 16  1  0
 10 11  1  6
 10 12  1  0
 12 13  1  6
 12 14  1  0
 14 15  1  0
 15 16  1  0
 16 17  1  6
 17 18  1  0
 18 19  1  6
 18 20  1  0
 18 24  1  0
 20 21  1  0
 21 22  1  0
 22 23  1  0
 23 24  1  0
 25 26  1  1
 25 27  1  0
 25 28  1  0
M  END
