
     RDKit          3D

 28 31  0  0  0  0  0  0  0  0999 V2000
    4.8150    1.8480   -0.6700 C   0  0  0  0  0  0  0  0  0  0  0  0
    4.1520    1.1150    0.4920 C   0  0  1  0  0  0  0  0  0  0  0  0
    3.9310    2.0780    1.6490 C   0  0  0  0  0  0  0  0  0  0  0  0
    2.8920    0.6420    0.1270 O   0  0  0  0  0  0  0  0  0  0  0  0
    2.9970   -0.1070   -1.0660 C   0  0  2  0  0  0  0  0  0  0  0  0
    1.5950   -0.3540   -1.5420 C   0  0  2  0  0  0  0  0  0  0  0  0
    0.9770    1.0230   -1.7730 C   0  0  0  0  0  0  0  0  0  0  0  0
   -0.5300    0.9680   -1.7010 C   0  0  1  0  0  0  0  0  0  0  0  0
   -0.9280   -0.4050   -2.1690 C   0  0  0  0  0  0  0  0  0  0  0  0
   -0.6650   -1.2170   -0.8830 C   0  0  1  0  0  0  0  0  0  0  0  0
    0.7990   -1.2090   -0.6050 C   0  0  0  0  0  0  0  0  0  0  0  0
   -1.4510   -0.3550    0.1010 C   0  0  2  0  0  0  0  0  0  0  0  0
   -2.8310   -0.7900    0.1220 C   0  0  1  0  0  0  0  0  0  0  0  0
   -2.8860   -2.1890    0.7740 C   0  0  0  0  0  0  0  0  0  0  0  0
   -2.6850   -2.0640    2.2710 C   0  0  0  0  0  0  0  0  0  0  0  0
   -3.5800   -1.0910    2.9500 C   0  0  0  0  0  0  0  0  0  0  0  0
   -3.5830    0.2510    2.2480 C   0  0  0  0  0  0  0  0  0  0  0  0
   -3.9050   -0.0430    0.7950 C   0  0  1  0  0  0  0  0  0  0  0  0
   -4.5740    1.0660    0.0650 C   0  0  0  0  0  0  0  0  0  0  0  0
   -5.1900    0.6090   -1.1270 O   0  0  0  0  0  0  0  0  0  0  0  0
   -5.8090    1.6300   -1.8030 C   0  0  0  0  0  0  0  0  0  0  0  0
   -4.8110    2.5810   -2.1190 O   0  0  0  0  0  0  0  0  0  0  0  0
   -1.0150    0.9870   -0.2470 C   0  0  0  0  0  0  0  0  0  0  0  0
    3.8160   -1.3250   -0.8740 C   0  0  0  0  0  0  0  0  0  0  0  0
    4.2840   -1.3710    0.5740 C   0  0  1  0  0  0  0  0  0  0  0  0
    5.1390   -2.4310    0.7540 O   0  0  0  0  0  0  0  0  0  0  0  0
    5.0040   -0.0650    0.8950 C   0  0  1  0  0  0  0  0  0  0  0  0
    6.2410   -0.0410    0.2540 O   0  0  0  0  0  0  0  0  0  0  0  0
  2  1  1  6
  2  3  1  0
  2  4  1  0
  2 27  1  0
  4  5  1  0
  5  6  1  0
  5 24  1  1
  6  7  1  1
  6 11  1  0
  8  7  1  1
  8  9  1  0
  8 23  1  0
  9 10  1  0
 10 11  1  1
 10 12  1  0
 12 13  1  0
 12 23  1  6
 13 14  1  1
 13 18  1  0
 14 15  1  0
 15 16  1  0
 16 17  1  0
 17 18  1  0
 18 19  1  6
 19 20  1  0
 20 21  1  0
 21 22  1  0
 24 25  1  0
 25 26  1  6
 25 27  1  0
 27 28  1  6
M  END
