
     RDKit          3D

 28 31  0  0  0  0  0  0  0  0999 V2000
   -3.7540   -2.5100   -0.7240 C   0  0  0  0  0  0  0  0  0  0  0  0
   -4.0050   -1.2200   -0.0430 C   0  0  2  0  0  0  0  0  0  0  0  0
   -5.0100   -0.5590   -0.7950 O   0  0  0  0  0  0  0  0  0  0  0  0
   -5.6910    0.3350    0.0260 C   0  0  1  0  0  0  0  0  0  0  0  0
   -6.3210    1.3870   -0.8750 C   0  0  0  0  0  0  0  0  0  0  0  0
   -6.7340   -0.4420    0.7800 C   0  0  0  0  0  0  0  0  0  0  0  0
   -4.6840    0.9990    0.9200 C   0  0  0  0  0  0  0  0  0  0  0  0
   -3.3630    1.0620    0.1240 C   0  0  2  0  0  0  0  0  0  0  0  0
   -3.7370    1.4600   -1.1550 O   0  0  0  0  0  0  0  0  0  0  0  0
   -2.8160   -0.3250    0.1650 C   0  0  2  0  0  0  0  0  0  0  0  0
   -1.7290   -0.6720   -0.7300 C   0  0  2  0  0  0  0  0  0  0  0  0
   -1.3730   -2.0210   -0.4440 O   0  0  0  0  0  0  0  0  0  0  0  0
   -0.4730    0.0530   -0.7620 C   0  0  1  0  0  0  0  0  0  0  0  0
   -0.4570    1.4980   -1.0870 C   0  0  0  0  0  0  0  0  0  0  0  0
    0.9750    1.8230   -1.5600 C   0  0  0  0  0  0  0  0  0  0  0  0
    1.8530    0.8060   -1.1930 O   0  0  0  0  0  0  0  0  0  0  0  0
    1.7630    0.4240    0.1190 C   0  0  2  0  0  0  0  0  0  0  0  0
    2.1970    1.5680    0.9930 C   0  0  0  0  0  0  0  0  0  0  0  0
    3.6090    1.9280    0.6080 C   0  0  0  0  0  0  0  0  0  0  0  0
    4.2010    1.0250   -0.2430 O   0  0  0  0  0  0  0  0  0  0  0  0
    4.1760   -0.2730    0.1930 C   0  0  1  0  0  0  0  0  0  0  0  0
    4.8010   -1.1370   -0.8910 C   0  0  0  0  0  0  0  0  0  0  0  0
    6.2570   -0.8790   -1.0770 C   0  0  0  0  0  0  0  0  0  0  0  0
    6.9950   -0.8470    0.2400 C   0  0  0  0  0  0  0  0  0  0  0  0
    6.1060   -1.4350    1.3070 C   0  0  0  0  0  0  0  0  0  0  0  0
    4.9300   -0.5000    1.4780 C   0  0  0  0  0  0  0  0  0  0  0  0
    2.7450   -0.7070    0.3360 C   0  0  0  0  0  0  0  0  0  0  0  0
    0.3810   -0.1010    0.5060 C   0  0  0  0  0  0  0  0  0  0  0  0
  2  1  1  6
  2  3  1  0
 10  2  1  6
  3  4  1  0
  4  5  1  6
  4  6  1  0
  4  7  1  0
  7  8  1  0
  8  9  1  6
  8 10  1  0
 10 11  1  0
 11 12  1  1
 11 13  1  0
 13 14  1  1
 13 28  1  0
 14 15  1  0
 15 16  1  0
 16 17  1  0
 17 18  1  1
 17 27  1  0
 17 28  1  0
 18 19  1  0
 19 20  1  0
 20 21  1  0
 21 22  1  6
 21 26  1  0
 21 27  1  0
 22 23  1  0
 23 24  1  0
 24 25  1  0
 25 26  1  0
M  END
