
     RDKit          3D

 27 31  0  0  0  0  0  0  0  0999 V2000
    1.5610    1.5940   -1.7490 O   0  0  0  0  0  0  0  0  0  0  0  0
    1.0280    1.6890   -0.4990 C   0  0  2  0  0  0  0  0  0  0  0  0
    1.6580    2.6790    0.4240 C   0  0  0  0  0  0  0  0  0  0  0  0
    3.0670    2.9870    0.3480 C   0  0  0  0  0  0  0  0  0  0  0  0
    3.9740    2.2200   -0.5410 C   0  0  0  0  0  0  0  0  0  0  0  0
    4.3000    0.8340   -0.0850 C   0  0  0  0  0  0  0  0  0  0  0  0
    3.2390   -0.1770   -0.2550 C   0  0  0  0  0  0  0  0  0  0  0  0
    2.1460   -0.0600    0.7630 C   0  0  2  0  0  0  0  0  0  0  0  0
    1.9880   -1.2940    1.5250 O   0  0  0  0  0  0  0  0  0  0  0  0
    1.5410   -2.3380    0.7270 C   0  0  0  0  0  0  0  0  0  0  0  0
    1.9860   -3.6140    1.0080 C   0  0  0  0  0  0  0  0  0  0  0  0
    1.5650   -4.6890    0.2240 C   0  0  0  0  0  0  0  0  0  0  0  0
    0.7150   -4.4290   -0.8060 C   0  0  0  0  0  0  0  0  0  0  0  0
    0.2830   -3.1460   -1.0680 C   0  0  0  0  0  0  0  0  0  0  0  0
    0.6840   -2.0420   -0.3010 C   0  0  0  0  0  0  0  0  0  0  0  0
    0.1560   -0.6950   -0.6120 C   0  0  1  0  0  0  0  0  0  0  0  0
   -1.3410   -0.7870   -0.4620 C   0  0  1  0  0  0  0  0  0  0  0  0
   -1.7920   -1.0970    0.9320 C   0  0  0  0  0  0  0  0  0  0  0  0
   -3.2660   -1.0360    1.1220 C   0  0  0  0  0  0  0  0  0  0  0  0
   -3.9910   -0.0910    0.2660 C   0  0  1  0  0  0  0  0  0  0  0  0
   -5.0120    0.7960    0.8540 C   0  0  0  0  0  0  0  0  0  0  0  0
   -5.1490    1.8150   -0.0930 O   0  0  0  0  0  0  0  0  0  0  0  0
   -3.9700    1.9440   -0.7940 C   0  0  0  0  0  0  0  0  0  0  0  0
   -2.9810    0.9730   -0.2080 C   0  0  1  0  0  0  0  0  0  0  0  0
   -2.3260    1.5740    0.8160 O   0  0  0  0  0  0  0  0  0  0  0  0
   -2.1420    0.2290   -1.2060 C   0  0  0  0  0  0  0  0  0  0  0  0
    0.8170    0.3340    0.1940 C   0  0  2  0  0  0  0  0  0  0  0  0
  2  1  1  6
  2  3  1  0
 27  2  1  6
  3  4  1  0
  4  5  1  0
  5  6  1  0
  6  7  1  0
  8  7  1  6
  8  9  1  0
  8 27  1  0
  9 10  1  0
 10 11  2  0
 10 15  1  0
 11 12  1  0
 12 13  2  0
 13 14  1  0
 14 15  2  0
 16 15  1  1
 16 17  1  0
 16 27  1  0
 17 18  1  1
 17 26  1  0
 18 19  1  0
 20 19  1  1
 20 21  1  0
 20 24  1  0
 21 22  1  0
 22 23  1  0
 23 24  1  0
 24 25  1  1
 24 26  1  0
M  END
