
     RDKit          3D

 27 30  0  0  0  0  0  0  0  0999 V2000
   -2.3560    0.2990   -2.1550 C   0  0  0  0  0  0  0  0  0  0  0  0
   -2.7840   -0.1010   -0.7770 C   0  0  2  0  0  0  0  0  0  0  0  0
   -3.7560    0.9270   -0.1780 C   0  0  0  0  0  0  0  0  0  0  0  0
   -4.2850    0.4270    1.1160 C   0  0  1  0  0  0  0  0  0  0  0  0
   -5.3370   -0.6070    0.9240 C   0  0  0  0  0  0  0  0  0  0  0  0
   -6.5510   -0.1470    0.1600 C   0  0  0  0  0  0  0  0  0  0  0  0
   -7.4430   -1.2200    0.0740 O   0  0  0  0  0  0  0  0  0  0  0  0
   -3.2010   -0.0240    2.0710 C   0  0  1  0  0  0  0  0  0  0  0  0
   -3.7910   -0.7340    3.1150 O   0  0  0  0  0  0  0  0  0  0  0  0
   -2.2060   -0.9450    1.3970 C   0  0  0  0  0  0  0  0  0  0  0  0
   -1.6470   -0.1970    0.2040 C   0  0  1  0  0  0  0  0  0  0  0  0
   -0.4120   -0.8170   -0.3500 C   0  0  0  0  0  0  0  0  0  0  0  0
    0.6790    0.2000   -0.5760 C   0  0  2  0  0  0  0  0  0  0  0  0
    1.8910   -0.4600   -1.2010 C   0  0  2  0  0  0  0  0  0  0  0  0
    2.4720   -1.5500   -0.3780 C   0  0  0  0  0  0  0  0  0  0  0  0
    3.8890   -1.8390   -0.8970 C   0  0  0  0  0  0  0  0  0  0  0  0
    4.6800   -0.6280   -0.4520 C   0  0  0  0  0  0  0  0  0  0  0  0
    4.1610    0.5360   -0.8100 C   0  0  0  0  0  0  0  0  0  0  0  0
    2.8790    0.5740   -1.6010 C   0  0  0  0  0  0  0  0  0  0  0  0
    4.8460    1.7620   -0.4320 C   0  0  0  0  0  0  0  0  0  0  0  0
    4.6340    2.8260   -1.0950 O   0  0  0  0  0  0  0  0  0  0  0  0
    5.7720    1.7080    0.7260 C   0  0  0  0  0  0  0  0  0  0  0  0
    6.6750    0.5140    0.4810 C   0  0  0  0  0  0  0  0  0  0  0  0
    5.9150   -0.7530    0.3110 C   0  0  0  0  0  0  0  0  0  0  0  0
    1.0010    1.0150    0.6430 C   0  0  0  0  0  0  0  0  0  0  0  0
   -0.2730    1.1570    1.4860 C   0  0  0  0  0  0  0  0  0  0  0  0
   -1.3700    1.0990    0.6410 O   0  0  0  0  0  0  0  0  0  0  0  0
  2  1  1  6
  2  3  1  0
  2 11  1  0
  3  4  1  0
  4  5  1  6
  4  8  1  0
  5  6  1  0
  6  7  1  0
  8  9  1  1
  8 10  1  0
 11 10  1  1
 11 12  1  0
 11 27  1  0
 13 12  1  1
 13 14  1  0
 13 25  1  0
 14 15  1  1
 14 19  1  0
 15 16  1  0
 16 17  1  0
 17 18  2  0
 17 24  1  0
 18 19  1  0
 18 20  1  0
 20 21  2  0
 20 22  1  0
 22 23  1  0
 23 24  1  0
 25 26  1  0
 26 27  1  0
M  END
