
     RDKit          3D

 27 31  0  0  0  0  0  0  0  0999 V2000
   -2.1070    1.9470    0.0800 C   0  0  0  0  0  0  0  0  0  0  0  0
   -2.3400    0.4680   -0.2510 C   0  0  2  0  0  0  0  0  0  0  0  0
   -3.0870    0.3830   -1.5390 C   0  0  0  0  0  0  0  0  0  0  0  0
   -4.4140   -0.3130   -1.4490 C   0  0  0  0  0  0  0  0  0  0  0  0
   -5.1480    0.3100   -0.2800 C   0  0  2  0  0  0  0  0  0  0  0  0
   -5.1870    1.6860   -0.4170 O   0  0  0  0  0  0  0  0  0  0  0  0
   -4.4680   -0.1040    0.9700 C   0  0  0  0  0  0  0  0  0  0  0  0
   -2.9880   -0.1760    0.9140 C   0  0  1  0  0  0  0  0  0  0  0  0
   -2.5070   -1.6210    1.1120 C   0  0  0  0  0  0  0  0  0  0  0  0
   -1.0340   -1.6150    1.4980 C   0  0  0  0  0  0  0  0  0  0  0  0
   -0.3480   -0.4080    0.8480 C   0  0  2  0  0  0  0  0  0  0  0  0
   -0.9820   -0.1710   -0.4630 C   0  0  2  0  0  0  0  0  0  0  0  0
   -0.1590    0.6240   -1.4320 C   0  0  0  0  0  0  0  0  0  0  0  0
    1.2890    0.2870   -1.4260 C   0  0  0  0  0  0  0  0  0  0  0  0
    1.9340    0.1460   -0.0920 C   0  0  2  0  0  0  0  0  0  0  0  0
    2.2800    1.4810    0.5370 C   0  0  0  0  0  0  0  0  0  0  0  0
    3.1860   -0.7140   -0.3150 C   0  0  1  0  0  0  0  0  0  0  0  0
    4.4340    0.0470   -0.2490 C   0  0  0  0  0  0  0  0  0  0  0  0
    5.4570   -0.0560    0.5840 C   0  0  0  0  0  0  0  0  0  0  0  0
    6.5000    0.9100    0.2860 C   0  0  0  0  0  0  0  0  0  0  0  0
    7.6050    1.0920    0.8710 O   0  0  0  0  0  0  0  0  0  0  0  0
    6.0590    1.6310   -0.7950 O   0  0  0  0  0  0  0  0  0  0  0  0
    4.7990    1.1290   -1.1980 C   0  0  0  0  0  0  0  0  0  0  0  0
    3.0890   -1.8050    0.7360 C   0  0  0  0  0  0  0  0  0  0  0  0
    1.5630   -2.0300    0.7120 C   0  0  0  0  0  0  0  0  0  0  0  0
    1.1130   -0.6160    0.8810 C   0  0  2  0  0  0  0  0  0  0  0  0
    1.5550   -0.2300    2.1750 O   0  0  0  0  0  0  0  0  0  0  0  0
  2  1  1  1
  2  3  1  0
  2  8  1  0
  2 12  1  0
  3  4  1  0
  4  5  1  0
  5  6  1  6
  5  7  1  0
  8  7  1  6
  8  9  1  0
  9 10  1  0
 11 10  1  6
 11 12  1  0
 11 26  1  0
 12 13  1  6
 13 14  1  0
 14 15  1  0
 15 16  1  1
 15 17  1  0
 15 26  1  0
 17 18  1  1
 17 24  1  0
 18 19  2  0
 18 23  1  0
 19 20  1  0
 20 21  2  0
 20 22  1  0
 22 23  1  0
 24 25  1  0
 25 26  1  0
 26 27  1  1
M  END
