
     RDKit          3D

 14 14  0  0  0  0  0  0  0  0999 V2000
    3.5130    1.5180   -0.9250 O   0  0  0  0  0  0  0  0  0  0  0  0
    4.1870    0.9260   -0.0720 N   0  0  0  0  0  0  0  0  0  0  0  0
    3.5180    0.4150    1.0170 O   0  0  0  0  0  0  0  0  0  0  0  0
    3.4970   -0.9080    1.1890 O   0  0  0  0  0  0  0  0  0  0  0  0
    2.4820   -1.4440    0.5460 O   0  0  0  0  0  0  0  0  0  0  0  0
    1.4240   -0.6890    0.6380 O   0  0  0  0  0  0  0  0  0  0  0  0
    0.3980   -1.2370   -0.1300 C   0  0  0  0  0  0  0  0  0  0  0  0
   -0.8340   -0.4140   -0.0600 C   0  0  0  0  0  0  0  0  0  0  0  0
   -1.9260   -0.9270    0.3950 N   0  0  0  0  0  0  0  0  0  0  0  0
   -3.1220   -0.1410    0.4670 C   0  0  0  0  0  0  0  0  0  0  0  0
   -4.2010   -0.6180    0.9070 O   0  0  0  0  0  0  0  0  0  0  0  0
   -3.0320    1.2370    0.0060 C   0  0  0  0  0  0  0  0  0  0  0  0
   -1.8640    1.7580   -0.1620 C   0  0  0  0  0  0  0  0  0  0  0  0
   -0.8800    0.9720   -0.4850 C   0  0  0  0  0  0  0  0  0  0  0  0
  1  2  2  0
  2  3  1  0
  3  4  1  0
  4  5  1  0
  5  6  1  0
  6  7  1  0
  7  8  1  0
  8  9  2  0
  8 14  1  0
  9 10  1  0
 10 11  2  0
 10 12  1  0
 12 13  2  0
 13 14  2  0
M  END
