
     RDKit          3D

 14 14  0  0  0  0  0  0  0  0999 V2000
    3.7680    1.6580    0.0550 C   0  0  0  0  0  0  0  0  0  0  0  0
    2.4010    1.5840   -0.2300 O   0  0  0  0  0  0  0  0  0  0  0  0
    1.8600    0.6750    0.7010 C   0  0  0  0  0  0  0  0  0  0  0  0
    0.4320    0.5170    0.4980 N   0  0  0  0  0  0  0  0  0  0  0  0
   -0.0090   -0.3610    1.4200 O   0  0  0  0  0  0  0  0  0  0  0  0
   -1.2810   -0.6400    1.2870 O   0  0  0  0  0  0  0  0  0  0  0  0
   -1.6330   -0.9920   -0.0080 C   0  0  1  0  0  0  0  0  0  0  0  0
   -2.2970   -2.2250   -0.0490 O   0  0  0  0  0  0  0  0  0  0  0  0
   -2.5780   -0.0080   -0.5280 N   0  0  0  0  0  0  0  0  0  0  0  0
   -2.0430    1.2330   -0.5470 O   0  0  0  0  0  0  0  0  0  0  0  0
   -3.3150    2.3940   -0.2800 P   0  0  0  0  0  0  0  0  0  0  0  0
   -0.4590   -1.0760   -0.8190 N   0  0  0  0  0  0  0  0  0  0  0  0
    0.2820   -2.2510   -0.4800 C   0  0  0  0  0  0  0  0  0  0  0  0
    0.2540    0.0490   -0.7630 O   0  0  0  0  0  0  0  0  0  0  0  0
  1  2  1  0
  2  3  1  0
  3  4  1  0
  4  5  1  0
  4 14  1  0
  5  6  1  0
  6  7  1  0
  7  8  1  1
  7  9  1  0
  7 12  1  0
  9 10  1  0
 10 11  1  0
 12 13  1  0
 12 14  1  0
M  END
