
     RDKit          3D

 14 13  0  0  0  0  0  0  0  0999 V2000
   -3.3770    0.4810   -1.3070 C   0  0  0  0  0  0  0  0  0  0  0  0
   -3.0470   -0.4000   -0.3840 C   0  0  0  0  0  0  0  0  0  0  0  0
   -3.8250   -1.5810   -0.2820 N   0  0  0  0  0  0  0  0  0  0  0  0
   -1.6640   -0.1270    0.7110 P   0  0  0  0  0  0  0  0  0  0  0  0
   -1.0250    1.5430    0.7700 C   0  0  0  0  0  0  0  0  0  0  0  0
   -1.0650    2.1770    1.8120 O   0  0  0  0  0  0  0  0  0  0  0  0
   -0.5110   -1.3680    0.7760 O   0  0  0  0  0  0  0  0  0  0  0  0
    0.7640   -1.2270   -0.3540 P   0  0  0  0  0  0  0  0  0  0  0  0
    0.7400   -2.4630   -1.5510 F   0  0  0  0  0  0  0  0  0  0  0  0
    2.2700   -1.2730    0.5160 O   0  0  0  0  0  0  0  0  0  0  0  0
    2.8780   -0.0920    0.3130 O   0  0  0  0  0  0  0  0  0  0  0  0
    4.1510    0.1780    0.8100 C   0  0  0  0  0  0  0  0  0  0  0  0
    4.7950    1.4340    0.5940 N   0  0  0  0  0  0  0  0  0  0  0  0
    4.7240   -0.7360    1.4680 O   0  0  0  0  0  0  0  0  0  0  0  0
  1  2  2  0
  2  3  1  0
  2  4  1  0
  4  5  1  0
  4  7  1  0
  5  6  2  0
  7  8  1  0
  8  9  1  0
  8 10  1  0
 10 11  1  0
 11 12  1  0
 12 13  1  0
 12 14  2  0
M  END
