
     RDKit          3D

 22 23  0  0  0  0  0  0  0  0999 V2000
   -5.4320    1.6210   -2.1160 O   0  0  0  0  0  0  0  0  0  0  0  0
   -4.3820    1.2260   -1.5180 C   0  0  0  0  0  0  0  0  0  0  0  0
   -3.9910   -0.0960   -1.6220 C   0  0  0  0  0  0  0  0  0  0  0  0
   -2.8380   -0.5180   -0.9620 C   0  0  0  0  0  0  0  0  0  0  0  0
   -2.3850   -1.8110   -1.0160 O   0  0  0  0  0  0  0  0  0  0  0  0
   -2.1330    0.3670   -0.2420 N   0  0  0  0  0  0  0  0  0  0  0  0
   -0.9710    0.0480    0.4530 C   0  0  2  0  0  0  0  0  0  0  0  0
    0.2040    0.6740   -0.0270 O   0  0  0  0  0  0  0  0  0  0  0  0
    1.0700    0.3210    1.0090 C   0  0  2  0  0  0  0  0  0  0  0  0
    2.5110    0.5560    0.6540 C   0  0  0  0  0  0  0  0  0  0  0  0
    2.9100   -0.1760   -0.4570 O   0  0  0  0  0  0  0  0  0  0  0  0
    4.5390    0.1870   -0.7340 P   0  0  2  0  0  0  0  0  0  0  0  0
    5.3330   -0.2750    0.4770 O   0  0  0  0  0  0  0  0  0  0  0  0
    4.7950    1.8390   -0.9150 O   0  0  0  0  0  0  0  0  0  0  0  0
    5.1080   -0.6830   -2.0630 O   0  0  0  0  0  0  0  0  0  0  0  0
    0.7870   -1.1160    1.3740 C   0  0  1  0  0  0  0  0  0  0  0  0
    0.4590   -1.1600    2.7210 O   0  0  0  0  0  0  0  0  0  0  0  0
   -0.5240   -1.3460    0.5890 C   0  0  1  0  0  0  0  0  0  0  0  0
   -1.3210   -2.1670    1.3600 O   0  0  0  0  0  0  0  0  0  0  0  0
   -2.5450    1.6710   -0.1580 C   0  0  0  0  0  0  0  0  0  0  0  0
   -1.8840    2.5160    0.5220 O   0  0  0  0  0  0  0  0  0  0  0  0
   -3.6540    2.0930   -0.7880 N   0  0  0  0  0  0  0  0  0  0  0  0
  1  2  2  0
  2  3  1  0
  2 22  1  0
  3  4  2  0
  4  5  1  0
  4  6  1  0
  7  6  1  6
  6 20  1  0
  7  8  1  0
  7 18  1  0
  8  9  1  0
  9 10  1  6
  9 16  1  0
 10 11  1  0
 11 12  1  0
 12 13  2  0
 12 14  1  6
 12 15  1  0
 16 17  1  1
 16 18  1  0
 18 19  1  1
 20 21  2  0
 20 22  1  0
M  END
