
     RDKit          3D

 14 14  0  0  0  0  0  0  0  0999 V2000
   -1.3680   -2.5220    0.3410 C   0  0  0  0  0  0  0  0  0  0  0  0
   -1.3680   -1.2250    0.1030 C   0  0  0  0  0  0  0  0  0  0  0  0
   -2.5970   -0.6050   -0.0480 O   0  0  0  0  0  0  0  0  0  0  0  0
   -3.5750   -1.1970   -0.7660 O   0  0  0  0  0  0  0  0  0  0  0  0
   -0.1220   -0.4900    0.0060 N   0  0  0  0  0  0  0  0  0  0  0  0
    0.9650   -1.1670    0.1630 O   0  0  0  0  0  0  0  0  0  0  0  0
    2.3650   -0.2860    0.0430 P   0  0  0  0  0  0  0  0  0  0  0  0
    4.0990   -0.9400    0.1720 C   0  0  0  0  0  0  0  0  0  0  0  0
    2.0250    1.3970   -0.2760 C   0  0  0  0  0  0  0  0  0  0  0  0
    2.9570    2.2240   -0.4000 O   0  0  0  0  0  0  0  0  0  0  0  0
    0.7590    1.6440   -0.3590 O   0  0  0  0  0  0  0  0  0  0  0  0
   -0.2140    0.8010   -0.2340 N   0  0  0  0  0  0  0  0  0  0  0  0
   -1.8620    1.5670   -0.4240 P   0  0  0  0  0  0  0  0  0  0  0  0
   -1.8500    3.1230    0.4970 N   0  0  0  0  0  0  0  0  0  0  0  0
  1  2  2  0
  2  3  1  0
  2  5  1  0
  3  4  1  0
  5  6  1  0
  5 12  1  0
  6  7  1  0
  7  8  1  0
  7  9  1  0
  9 10  2  0
  9 11  1  0
 11 12  1  0
 12 13  1  0
 13 14  1  0
M  END
