
     RDKit          3D

 19 19  0  0  0  0  0  0  0  0999 V2000
    4.7820    1.6390    0.5450 C   0  0  0  0  0  0  0  0  0  0  0  0
    3.4330    1.7890   -0.1130 C   0  0  0  0  0  0  0  0  0  0  0  0
    2.4160    0.8610    0.4420 C   0  0  0  0  0  0  0  0  0  0  0  0
    2.0270    1.0890    1.5610 O   0  0  0  0  0  0  0  0  0  0  0  0
    1.8760   -0.3110   -0.3010 C   0  0  2  0  0  0  0  0  0  0  0  0
    3.0280   -1.2560   -0.4090 C   0  0  0  0  0  0  0  0  0  0  0  0
    1.5730    0.2790   -1.6930 C   0  0  0  0  0  0  0  0  0  0  0  0
    0.6530   -0.7610    0.3850 C   0  0  1  0  0  0  0  0  0  0  0  0
   -0.3390    0.3940    0.2920 C   0  0  0  0  0  0  0  0  0  0  0  0
   -1.6670    0.1710    0.9060 C   0  0  0  0  0  0  0  0  0  0  0  0
   -2.4550    1.4900    0.7910 C   0  0  2  0  0  0  0  0  0  0  0  0
   -3.8260    1.3110    1.4280 C   0  0  0  0  0  0  0  0  0  0  0  0
   -4.7870    1.2180    0.2640 C   0  0  0  0  0  0  0  0  0  0  0  0
   -3.9510    1.0990   -0.9880 C   0  0  0  0  0  0  0  0  0  0  0  0
   -2.7210    1.9060   -0.6140 C   0  0  0  0  0  0  0  0  0  0  0  0
    0.0740   -2.0770    0.1390 C   0  0  1  0  0  0  0  0  0  0  0  0
   -0.3720   -2.4020   -1.2390 C   0  0  0  0  0  0  0  0  0  0  0  0
    1.0040   -3.2350    0.5700 C   0  0  0  0  0  0  0  0  0  0  0  0
   -1.0340   -2.2430    0.9730 O   0  0  0  0  0  0  0  0  0  0  0  0
  1  2  1  0
  2  3  1  0
  3  4  2  0
  3  5  1  0
  5  6  1  6
  5  7  1  0
  5  8  1  0
  8  9  1  6
  8 16  1  0
  9 10  1  0
 11 10  1  6
 11 12  1  0
 11 15  1  0
 12 13  1  0
 13 14  1  0
 14 15  1  0
 16 17  1  6
 16 18  1  0
 16 19  1  0
M  END
