
     RDKit          3D

 19 19  0  0  0  0  0  0  0  0999 V2000
    0.0580    4.7480   -0.4130 C   0  0  0  0  0  0  0  0  0  0  0  0
   -0.6830    3.9470   -1.1570 C   0  0  0  0  0  0  0  0  0  0  0  0
   -0.0550    2.8060   -1.8950 C   0  0  0  0  0  0  0  0  0  0  0  0
   -0.6030    1.5110   -1.4880 C   0  0  0  0  0  0  0  0  0  0  0  0
   -0.1590    0.4930   -0.8540 C   0  0  0  0  0  0  0  0  0  0  0  0
   -1.1440   -0.5710   -0.7230 O   0  0  0  0  0  0  0  0  0  0  0  0
   -2.3030   -0.3010    0.0420 C   0  0  0  0  0  0  0  0  0  0  0  0
   -3.2330   -1.4660    0.1000 C   0  0  1  0  0  0  0  0  0  0  0  0
   -4.4780   -1.1790    0.8790 C   0  0  0  0  0  0  0  0  0  0  0  0
   -3.6570   -1.9350   -1.2830 C   0  0  0  0  0  0  0  0  0  0  0  0
   -2.5570   -2.5470    0.6840 O   0  0  0  0  0  0  0  0  0  0  0  0
    1.1260    0.2040   -0.2370 C   0  0  0  0  0  0  0  0  0  0  0  0
    2.1370    1.0990   -0.0320 C   0  0  0  0  0  0  0  0  0  0  0  0
    3.3800    0.7590    0.5260 C   0  0  0  0  0  0  0  0  0  0  0  0
    3.6100   -0.5470    0.8950 C   0  0  0  0  0  0  0  0  0  0  0  0
    4.8970   -0.9270    1.4790 C   0  0  0  0  0  0  0  0  0  0  0  0
    2.6100   -1.4780    0.7050 C   0  0  0  0  0  0  0  0  0  0  0  0
    2.9010   -2.8830    1.1200 C   0  0  0  0  0  0  0  0  0  0  0  0
    1.4150   -1.1180    0.1600 C   0  0  0  0  0  0  0  0  0  0  0  0
  1  2  2  0
  2  3  1  0
  3  4  1  0
  4  5  2  3
  5  6  1  0
  5 12  1  0
  6  7  1  0
  7  8  1  0
  8  9  1  1
  8 10  1  0
  8 11  1  0
 12 13  2  0
 12 19  1  0
 13 14  1  0
 14 15  2  0
 15 16  1  0
 15 17  1  0
 17 18  1  0
 17 19  2  0
M  END
