
     RDKit          3D

 19 19  0  0  0  0  0  0  0  0999 V2000
   -5.1010    0.0850    1.1060 C   0  0  0  0  0  0  0  0  0  0  0  0
   -4.0990    1.2260    0.9640 C   0  0  0  0  0  0  0  0  0  0  0  0
   -2.7170    0.7560    1.0320 C   0  0  0  0  0  0  0  0  0  0  0  0
   -1.8000    0.8910    0.1020 C   0  0  0  0  0  0  0  0  0  0  0  0
   -2.0660    1.5640   -1.1770 C   0  0  0  0  0  0  0  0  0  0  0  0
   -1.9030    0.6410   -2.3420 C   0  0  0  0  0  0  0  0  0  0  0  0
   -2.0060    1.1240   -3.4890 O   0  0  0  0  0  0  0  0  0  0  0  0
   -1.6460   -0.7100   -2.2040 O   0  0  0  0  0  0  0  0  0  0  0  0
   -0.4270    0.3420    0.2990 C   0  0  0  0  0  0  0  0  0  0  0  0
   -0.1760   -0.4320    1.5330 C   0  0  0  0  0  0  0  0  0  0  0  0
    0.5160    0.4870   -0.5990 C   0  0  0  0  0  0  0  0  0  0  0  0
    1.8440   -0.0610   -0.3660 C   0  0  0  0  0  0  0  0  0  0  0  0
    2.5510    0.1210    0.8060 C   0  0  0  0  0  0  0  0  0  0  0  0
    3.8040   -0.4150    1.0170 C   0  0  0  0  0  0  0  0  0  0  0  0
    4.5580   -0.2200    2.2770 C   0  0  0  0  0  0  0  0  0  0  0  0
    4.3330   -1.1580   -0.0180 C   0  0  0  0  0  0  0  0  0  0  0  0
    3.6580   -1.3610   -1.2030 C   0  0  0  0  0  0  0  0  0  0  0  0
    2.4040   -0.8180   -1.3980 C   0  0  0  0  0  0  0  0  0  0  0  0
    1.6370   -1.0010   -2.6450 C   0  0  0  0  0  0  0  0  0  0  0  0
  1  2  1  0
  2  3  1  0
  3  4  2  3
  4  5  1  0
  4  9  1  0
  5  6  1  0
  6  7  2  0
  6  8  1  0
  9 10  1  0
  9 11  2  3
 11 12  1  0
 12 13  2  0
 12 18  1  0
 13 14  1  0
 14 15  1  0
 14 16  2  0
 16 17  1  0
 17 18  2  0
 18 19  1  0
M  END
