
     RDKit          3D

 19 18  0  0  0  0  0  0  0  0999 V2000
   -3.1310    2.6590   -0.2170 C   0  0  0  0  0  0  0  0  0  0  0  0
   -3.7550    1.7120    0.4320 C   0  0  0  0  0  0  0  0  0  0  0  0
   -3.4180    0.2670    0.2180 C   0  0  0  0  0  0  0  0  0  0  0  0
   -4.1000   -0.5840    0.9100 C   0  0  0  0  0  0  0  0  0  0  0  0
   -4.0420   -2.0400    0.9590 C   0  0  0  0  0  0  0  0  0  0  0  0
   -2.3640    0.0350   -0.7640 C   0  0  0  0  0  0  0  0  0  0  0  0
   -1.9920   -1.3750   -1.0810 C   0  0  0  0  0  0  0  0  0  0  0  0
   -0.8160   -1.3840   -2.0430 C   0  0  0  0  0  0  0  0  0  0  0  0
    0.4150   -0.9130   -1.4250 C   0  0  0  0  0  0  0  0  0  0  0  0
    0.5380   -0.6360   -0.1700 C   0  0  0  0  0  0  0  0  0  0  0  0
    1.6970   -0.1610    0.5470 C   0  0  0  0  0  0  0  0  0  0  0  0
    2.9680    0.0850   -0.1000 C   0  0  0  0  0  0  0  0  0  0  0  0
    3.9830    0.5080    0.5640 O   0  0  0  0  0  0  0  0  0  0  0  0
    3.2500   -0.0920   -1.4440 O   0  0  0  0  0  0  0  0  0  0  0  0
    4.5180    0.1670   -2.0160 C   0  0  0  0  0  0  0  0  0  0  0  0
    4.9300    1.6060   -1.8360 C   0  0  0  0  0  0  0  0  0  0  0  0
    1.6050    0.0640    1.8500 C   0  0  0  0  0  0  0  0  0  0  0  0
    0.2860   -0.1870    2.5420 C   0  0  0  0  0  0  0  0  0  0  0  0
    2.7280    0.5520    2.6920 C   0  0  0  0  0  0  0  0  0  0  0  0
  1  2  2  0
  2  3  1  0
  3  4  2  3
  3  6  1  0
  4  5  1  0
  6  7  1  0
  7  8  1  0
  8  9  1  0
  9 10  2  3
 10 11  1  0
 11 12  1  0
 11 17  2  3
 12 13  2  0
 12 14  1  0
 14 15  1  0
 15 16  1  0
 17 18  1  0
 17 19  1  0
M  END
