
     RDKit          3D

 19 20  0  0  0  0  0  0  0  0999 V2000
    3.6700   -2.6810   -1.7320 C   0  0  0  0  0  0  0  0  0  0  0  0
    2.7970   -1.8730   -1.1480 C   0  0  0  0  0  0  0  0  0  0  0  0
    1.3500   -1.9970   -1.2110 C   0  0  0  0  0  0  0  0  0  0  0  0
    0.6510   -3.0010   -1.9070 O   0  0  0  0  0  0  0  0  0  0  0  0
    0.8430   -0.9890   -0.4920 C   0  0  0  0  0  0  0  0  0  0  0  0
   -0.5820   -0.7790   -0.3200 C   0  0  0  0  0  0  0  0  0  0  0  0
   -1.3630   -1.6150   -0.8940 O   0  0  0  0  0  0  0  0  0  0  0  0
   -1.2140    0.3000    0.4490 C   0  0  0  0  0  0  0  0  0  0  0  0
   -2.7290    0.2780    0.4010 C   0  0  1  0  0  0  0  0  0  0  0  0
   -3.3170   -1.0030    0.9320 C   0  0  0  0  0  0  0  0  0  0  0  0
   -3.1860    1.3670    1.4010 C   0  0  0  0  0  0  0  0  0  0  0  0
   -3.2830    0.5890   -0.9660 C   0  0  0  0  0  0  0  0  0  0  0  0
   -4.7960    0.5450   -0.9100 C   0  0  0  0  0  0  0  0  0  0  0  0
    1.8880   -0.1610    0.0730 C   0  0  0  0  0  0  0  0  0  0  0  0
    3.0520   -0.7020   -0.3270 C   0  0  0  0  0  0  0  0  0  0  0  0
    4.2840   -0.0210    0.1330 C   0  0  0  0  0  0  0  0  0  0  0  0
    4.1830    1.4360   -0.2880 C   0  0  0  0  0  0  0  0  0  0  0  0
    2.8900    2.0510    0.1590 C   0  0  0  0  0  0  0  0  0  0  0  0
    2.0150    1.0480    0.9240 C   0  0  0  0  0  0  0  0  0  0  0  0
  1  2  2  0
  2  3  1  0
  2 15  1  0
  3  4  1  0
  3  5  2  0
  5  6  1  0
  5 14  1  0
  6  7  2  0
  6  8  1  0
  8  9  1  0
  9 10  1  1
  9 11  1  0
  9 12  1  0
 12 13  1  0
 14 15  2  0
 14 19  1  0
 15 16  1  0
 16 17  1  0
 17 18  1  0
 18 19  1  0
M  END
