
     RDKit          3D

 19 19  0  0  0  0  0  0  0  0999 V2000
   -1.2460   -3.7790    1.1070 C   0  0  0  0  0  0  0  0  0  0  0  0
   -1.5710   -3.1300    0.1880 C   0  0  0  0  0  0  0  0  0  0  0  0
   -1.9770   -2.2930   -1.0200 C   0  0  0  0  0  0  0  0  0  0  0  0
   -1.9420   -1.0730   -0.8270 O   0  0  0  0  0  0  0  0  0  0  0  0
   -2.1270    0.2380   -0.5580 C   0  0  0  0  0  0  0  0  0  0  0  0
   -3.3330    0.8880   -0.4350 C   0  0  0  0  0  0  0  0  0  0  0  0
   -3.4620    2.2120   -0.2720 C   0  0  0  0  0  0  0  0  0  0  0  0
   -4.6960    3.0160   -0.1450 C   0  0  0  0  0  0  0  0  0  0  0  0
   -2.2230    2.9660   -0.2400 C   0  0  0  0  0  0  0  0  0  0  0  0
   -1.0260    2.3540   -0.3340 C   0  0  0  0  0  0  0  0  0  0  0  0
   -0.9510    0.9720   -0.4830 C   0  0  0  0  0  0  0  0  0  0  0  0
    0.3010    0.2920   -0.1900 C   0  0  0  0  0  0  0  0  0  0  0  0
    1.3750    0.7440    0.3330 C   0  0  0  0  0  0  0  0  0  0  0  0
    2.6180   -0.1300    0.5650 C   0  0  0  0  0  0  0  0  0  0  0  0
    3.5070    0.4250    1.3520 C   0  0  0  0  0  0  0  0  0  0  0  0
    4.7700   -0.3200    1.6820 C   0  0  0  0  0  0  0  0  0  0  0  0
    2.9180   -1.1470   -0.3370 C   0  0  0  0  0  0  0  0  0  0  0  0
    2.2490   -1.9360   -1.1460 C   0  0  0  0  0  0  0  0  0  0  0  0
    4.3310   -1.4870   -0.5610 O   0  0  0  0  0  0  0  0  0  0  0  0
  1  2  3  0
  2  3  1  0
  3  4  1  0
  4  5  1  0
  5  6  2  0
  5 11  1  0
  6  7  1  0
  7  8  1  0
  7  9  2  0
  9 10  1  0
 10 11  2  0
 11 12  1  0
 12 13  2  3
 13 14  1  0
 14 15  2  3
 14 17  1  0
 15 16  1  0
 17 18  2  0
 17 19  1  0
M  END
