
     RDKit          3D

 19 19  0  0  0  0  0  0  0  0999 V2000
    5.5610   -0.4240   -0.9670 C   0  0  0  0  0  0  0  0  0  0  0  0
    4.4830    0.5820   -0.5400 C   0  0  0  0  0  0  0  0  0  0  0  0
    4.3290    0.4170    0.9590 C   0  0  0  0  0  0  0  0  0  0  0  0
    3.2980    1.3820    1.4500 C   0  0  0  0  0  0  0  0  0  0  0  0
    1.9760    1.1320    0.7780 C   0  0  0  0  0  0  0  0  0  0  0  0
    1.5280   -0.2600    1.0740 C   0  0  0  0  0  0  0  0  0  0  0  0
    0.2130   -0.5500    0.4470 C   0  0  0  0  0  0  0  0  0  0  0  0
   -0.8590   -0.7870   -0.0420 C   0  0  0  0  0  0  0  0  0  0  0  0
   -2.1630   -1.0920   -0.6170 C   0  0  0  0  0  0  0  0  0  0  0  0
   -2.3590   -2.3190   -1.1980 C   0  0  0  0  0  0  0  0  0  0  0  0
   -3.5860   -2.6220   -1.7340 C   0  0  0  0  0  0  0  0  0  0  0  0
   -4.5920   -1.6980   -1.6820 C   0  0  0  0  0  0  0  0  0  0  0  0
   -4.3900   -0.4460   -1.0900 C   0  0  0  0  0  0  0  0  0  0  0  0
   -3.1790   -0.1080   -0.5430 C   0  0  0  0  0  0  0  0  0  0  0  0
   -2.8020    1.1560    0.0290 C   0  0  0  0  0  0  0  0  0  0  0  0
   -3.4980    2.1140    0.5240 C   0  0  0  0  0  0  0  0  0  0  0  0
   -4.8370    2.4280    0.7640 C   0  0  0  0  0  0  0  0  0  0  0  0
   -5.1040    3.5960    1.2860 O   0  0  0  0  0  0  0  0  0  0  0  0
   -5.9440    1.6860    0.5400 O   0  0  0  0  0  0  0  0  0  0  0  0
  1  2  1  0
  2  3  1  0
  3  4  1  0
  4  5  1  0
  5  6  1  0
  6  7  1  0
  7  8  3  0
  8  9  1  0
  9 10  2  0
  9 14  1  0
 10 11  1  0
 11 12  2  0
 12 13  1  0
 13 14  2  0
 14 15  1  0
 15 16  2  3
 16 17  1  0
 17 18  2  0
 17 19  1  0
M  END
