
     RDKit          3D

 46 50  0  0  0  0  0  0  0  0999 V2000
    8.9060   -1.0040    4.1020 C   0  0  0  0  0  0  0  0  0  0  0  0
    9.1820   -2.3170    3.5900 O   0  0  0  0  0  0  0  0  0  0  0  0
    8.5900   -2.7550    2.4190 C   0  0  0  0  0  0  0  0  0  0  0  0
    8.8270   -3.9950    1.9020 C   0  0  0  0  0  0  0  0  0  0  0  0
    8.2390   -4.4310    0.7370 C   0  0  0  0  0  0  0  0  0  0  0  0
    7.3760   -3.5870    0.0620 C   0  0  0  0  0  0  0  0  0  0  0  0
    7.1160   -2.3370    0.5530 C   0  0  0  0  0  0  0  0  0  0  0  0
    6.0070   -1.2570   -0.3180 S   0  0  2  0  0  0  0  0  0  0  0  0
    5.2480   -0.4750    0.6800 O   0  0  0  0  0  0  0  0  0  0  0  0
    5.0160   -2.1320   -1.0750 O   0  0  0  0  0  0  0  0  0  0  0  0
    6.9450   -0.3350   -1.4420 C   0  0  0  0  0  0  0  0  0  0  0  0
    8.3260   -0.5800   -1.5160 C   0  0  0  0  0  0  0  0  0  0  0  0
    9.1550    0.0440   -2.4170 C   0  0  0  0  0  0  0  0  0  0  0  0
    8.5780    0.9500   -3.2820 C   0  0  0  0  0  0  0  0  0  0  0  0
    7.2300    1.2160   -3.2380 C   0  0  0  0  0  0  0  0  0  0  0  0
    6.4010    0.5610   -2.2990 C   0  0  0  0  0  0  0  0  0  0  0  0
    4.9920    0.9220   -2.2350 C   0  0  0  0  0  0  0  0  0  0  0  0
    4.3030    0.6440   -3.2850 O   0  0  0  0  0  0  0  0  0  0  0  0
    4.3330    1.5310   -1.1700 N   0  0  0  0  0  0  0  0  0  0  0  0
    2.9700    1.8830   -1.0690 C   0  0  0  0  0  0  0  0  0  0  0  0
    2.4450    2.2060    0.1780 C   0  0  0  0  0  0  0  0  0  0  0  0
    1.1370    2.5760    0.3920 C   0  0  0  0  0  0  0  0  0  0  0  0
    0.2670    2.6420   -0.6630 C   0  0  0  0  0  0  0  0  0  0  0  0
   -1.0890    3.0110   -0.4820 N   0  0  0  0  0  0  0  0  0  0  0  0
   -1.4600    4.4100   -0.4900 C   0  0  0  0  0  0  0  0  0  0  0  0
   -2.0440    2.0180   -0.3070 N   0  0  0  0  0  0  0  0  0  0  0  0
   -3.3900    2.3460   -0.0810 C   0  0  0  0  0  0  0  0  0  0  0  0
   -3.7610    3.5270   -0.0280 O   0  0  0  0  0  0  0  0  0  0  0  0
   -4.4000    1.2780    0.0980 C   0  0  0  0  0  0  0  0  0  0  0  0
   -3.9640    0.1100    0.0320 O   0  0  0  0  0  0  0  0  0  0  0  0
   -5.7560    1.5960    0.3270 N   0  0  0  0  0  0  0  0  0  0  0  0
   -6.7730    0.6500    0.5010 C   0  0  0  0  0  0  0  0  0  0  0  0
   -6.6020   -0.7040    0.4520 C   0  0  0  0  0  0  0  0  0  0  0  0
   -7.6580   -1.5970    0.6220 C   0  0  0  0  0  0  0  0  0  0  0  0
   -8.9220   -1.1070    0.8480 C   0  0  0  0  0  0  0  0  0  0  0  0
   -9.1180    0.2750    0.9010 C   0  0  0  0  0  0  0  0  0  0  0  0
   -8.0660    1.1410    0.7310 C   0  0  0  0  0  0  0  0  0  0  0  0
   -8.3100    2.4980    0.7930 O   0  0  0  0  0  0  0  0  0  0  0  0
   -9.5700    3.0620    1.0180 C   0  0  0  0  0  0  0  0  0  0  0  0
  -10.0070   -2.0880    1.0180 C   0  0  0  0  0  0  0  0  0  0  0  0
   -9.9190   -3.2560    0.0940 C   0  0  0  0  0  0  0  0  0  0  0  0
   -8.5340   -3.5940   -0.3670 C   0  0  0  0  0  0  0  0  0  0  0  0
   -7.4520   -3.0600    0.5620 C   0  0  0  0  0  0  0  0  0  0  0  0
    0.7480    2.3310   -1.9120 C   0  0  0  0  0  0  0  0  0  0  0  0
    2.0860    1.9540   -2.1210 C   0  0  0  0  0  0  0  0  0  0  0  0
    7.7130   -1.9290    1.7120 C   0  0  0  0  0  0  0  0  0  0  0  0
  1  2  1  0
  2  3  1  0
  3  4  2  0
  3 46  1  0
  4  5  1  0
  5  6  2  0
  6  7  1  0
  8  7  1  1
  7 46  2  0
  8  9  2  0
  8 10  2  0
  8 11  1  0
 11 12  2  0
 11 16  1  0
 12 13  1  0
 13 14  2  0
 14 15  1  0
 15 16  2  0
 16 17  1  0
 17 18  2  0
 17 19  1  0
 19 20  1  0
 20 21  2  0
 20 45  1  0
 21 22  1  0
 22 23  2  0
 23 24  1  0
 23 44  1  0
 24 25  1  0
 24 26  1  0
 26 27  1  0
 27 28  2  0
 27 29  1  0
 29 30  2  0
 29 31  1  0
 31 32  1  0
 32 33  2  0
 32 37  1  0
 33 34  1  0
 34 35  2  0
 34 43  1  0
 35 36  1  0
 35 40  1  0
 36 37  2  0
 37 38  1  0
 38 39  1  0
 40 41  1  0
 41 42  1  0
 42 43  1  0
 44 45  2  0
M  END
