
     RDKit          3D

 46 49  0  0  0  0  0  0  0  0999 V2000
    7.5530   -4.3570    0.9290 C   0  0  0  0  0  0  0  0  0  0  0  0
    8.3200   -3.2710    0.5590 O   0  0  0  0  0  0  0  0  0  0  0  0
    8.4780   -2.0490    1.1470 C   0  0  0  0  0  0  0  0  0  0  0  0
    7.8670   -1.8400    2.2160 O   0  0  0  0  0  0  0  0  0  0  0  0
    9.3610   -1.0330    0.4860 C   0  0  0  0  0  0  0  0  0  0  0  0
    8.8080   -0.6580   -0.8280 C   0  0  2  0  0  0  0  0  0  0  0  0
    9.6590    0.3340   -1.6230 C   0  0  0  0  0  0  0  0  0  0  0  0
    8.7160    0.4260   -2.8570 C   0  0  0  0  0  0  0  0  0  0  0  0
    7.4210    0.6310   -2.1180 C   0  0  0  0  0  0  0  0  0  0  0  0
    6.2920    1.3260   -2.4620 C   0  0  0  0  0  0  0  0  0  0  0  0
    5.2070    1.4560   -1.6200 C   0  0  0  0  0  0  0  0  0  0  0  0
    4.0710    2.1570   -1.9870 O   0  0  0  0  0  0  0  0  0  0  0  0
    3.8910    3.5250   -1.8290 C   0  0  0  0  0  0  0  0  0  0  0  0
    2.6050    4.1660   -2.2690 C   0  0  0  0  0  0  0  0  0  0  0  0
    4.7830    4.2110   -1.3270 O   0  0  0  0  0  0  0  0  0  0  0  0
    5.2420    0.8720   -0.3810 C   0  0  0  0  0  0  0  0  0  0  0  0
    4.2610    0.9360    0.5320 O   0  0  0  0  0  0  0  0  0  0  0  0
    3.7060    0.6750    1.6630 C   0  0  0  0  0  0  0  0  0  0  0  0
    2.2880    1.2450    1.7440 C   0  0  0  0  0  0  0  0  0  0  0  0
    1.7620    1.5810    0.6540 O   0  0  0  0  0  0  0  0  0  0  0  0
    1.6180    1.3870    2.9500 N   0  0  0  0  0  0  0  0  0  0  0  0
    0.2800    1.8830    3.1510 C   0  0  0  0  0  0  0  0  0  0  0  0
   -0.6610    0.9020    2.4760 C   0  0  0  0  0  0  0  0  0  0  0  0
   -0.2030   -0.0740    1.9050 O   0  0  0  0  0  0  0  0  0  0  0  0
   -2.0490    1.2080    2.5810 N   0  0  0  0  0  0  0  0  0  0  0  0
   -3.0410    0.3560    2.0480 C   0  0  0  0  0  0  0  0  0  0  0  0
   -4.3480    0.8720    1.9840 C   0  0  0  0  0  0  0  0  0  0  0  0
   -5.4040    0.0960    1.5480 C   0  0  0  0  0  0  0  0  0  0  0  0
   -5.2650   -1.2040    1.1530 C   0  0  0  0  0  0  0  0  0  0  0  0
   -6.3390   -2.0990    0.7430 C   0  0  0  0  0  0  0  0  0  0  0  0
   -6.4470   -3.3430    1.4200 C   0  0  0  0  0  0  0  0  0  0  0  0
   -7.4490   -4.2240    1.1050 C   0  0  0  0  0  0  0  0  0  0  0  0
   -8.3670   -3.8940    0.1130 C   0  0  0  0  0  0  0  0  0  0  0  0
   -8.2840   -2.7000   -0.5560 C   0  0  0  0  0  0  0  0  0  0  0  0
   -9.2590   -2.3310   -1.6020 C   0  0  0  0  0  0  0  0  0  0  0  0
   -7.2540   -1.8140   -0.2210 C   0  0  0  0  0  0  0  0  0  0  0  0
   -7.2380   -0.6060   -0.9490 N   0  0  0  0  0  0  0  0  0  0  0  0
   -8.0720    0.4960   -0.6740 C   0  0  0  0  0  0  0  0  0  0  0  0
   -9.1470    0.3990    0.5440 S   0  0  0  0  0  0  0  0  0  0  0  0
   -8.0250    1.7030   -1.4280 N   0  0  0  0  0  0  0  0  0  0  0  0
   -7.0900    1.8540   -2.5470 C   0  0  0  0  0  0  0  0  0  0  0  0
   -8.8850    2.8180   -1.1170 C   0  0  0  0  0  0  0  0  0  0  0  0
   -3.9620   -1.7190    1.2130 C   0  0  0  0  0  0  0  0  0  0  0  0
   -2.9080   -0.9370    1.6510 C   0  0  0  0  0  0  0  0  0  0  0  0
    6.4160    0.1500   -0.0310 C   0  0  0  0  0  0  0  0  0  0  0  0
    7.4900    0.0150   -0.8550 C   0  0  0  0  0  0  0  0  0  0  0  0
  1  2  1  0
  2  3  1  0
  3  4  2  0
  3  5  1  0
  6  5  1  1
  6  7  1  0
  6 46  1  0
  7  8  1  0
  8  9  1  0
  9 10  2  0
  9 46  1  0
 10 11  1  0
 11 12  1  0
 11 16  2  0
 12 13  1  0
 13 14  1  0
 13 15  2  0
 16 17  1  0
 16 45  1  0
 17 18  1  0
 18 19  1  0
 19 20  2  0
 19 21  1  0
 21 22  1  0
 22 23  1  0
 23 24  2  0
 23 25  1  0
 25 26  1  0
 26 27  2  0
 26 44  1  0
 27 28  1  0
 28 29  2  0
 29 30  1  0
 29 43  1  0
 30 31  2  0
 30 36  1  0
 31 32  1  0
 32 33  2  0
 33 34  1  0
 34 35  1  0
 34 36  2  0
 36 37  1  0
 37 38  1  0
 38 39  2  0
 38 40  1  0
 40 41  1  0
 40 42  1  0
 43 44  2  0
 45 46  2  0
M  END
