
     RDKit          3D

 46 50  0  0  0  0  0  0  0  0999 V2000
   10.3550    4.9280    0.3800 C   0  0  0  0  0  0  0  0  0  0  0  0
   10.1130    3.5510    0.1540 O   0  0  0  0  0  0  0  0  0  0  0  0
    8.8360    3.1400   -0.2500 C   0  0  0  0  0  0  0  0  0  0  0  0
    7.9300    4.0100   -0.4030 O   0  0  0  0  0  0  0  0  0  0  0  0
    8.5310    1.7770   -0.4920 N   0  0  0  0  0  0  0  0  0  0  0  0
    7.1950    1.4050   -0.9090 C   0  0  0  0  0  0  0  0  0  0  0  0
    7.0790   -0.0900   -1.1140 C   0  0  1  0  0  0  0  0  0  0  0  0
    7.9970   -0.4610   -2.1070 O   0  0  0  0  0  0  0  0  0  0  0  0
    7.3550   -0.8150    0.1770 C   0  0  0  0  0  0  0  0  0  0  0  0
    7.1090   -2.2900    0.0040 C   0  0  2  0  0  0  0  0  0  0  0  0
    8.0940   -2.9320   -0.9520 C   0  0  0  0  0  0  0  0  0  0  0  0
    5.7200   -2.5880   -0.4940 C   0  0  0  0  0  0  0  0  0  0  0  0
    5.0440   -1.3380   -0.7360 N   0  0  0  0  0  0  0  0  0  0  0  0
    3.7960   -1.0760   -0.1350 C   0  0  0  0  0  0  0  0  0  0  0  0
    3.2420    0.0470   -0.3810 O   0  0  0  0  0  0  0  0  0  0  0  0
    3.1860   -2.0940    0.7420 C   0  0  0  0  0  0  0  0  0  0  0  0
    1.8760   -1.5980    1.2610 N   0  0  0  0  0  0  0  0  0  0  0  0
    1.9250   -0.8760    2.5000 C   0  0  0  0  0  0  0  0  0  0  0  0
    0.7370   -1.8730    0.5210 C   0  0  0  0  0  0  0  0  0  0  0  0
    0.9480   -2.5610   -0.5720 O   0  0  0  0  0  0  0  0  0  0  0  0
   -0.6440   -1.5330    0.7470 C   0  0  0  0  0  0  0  0  0  0  0  0
   -1.1300   -0.7940    1.8010 C   0  0  0  0  0  0  0  0  0  0  0  0
   -2.4940   -0.5110    1.9570 C   0  0  0  0  0  0  0  0  0  0  0  0
   -3.4240   -0.9590    1.0610 C   0  0  0  0  0  0  0  0  0  0  0  0
   -4.8420   -0.6630    1.2230 C   0  0  0  0  0  0  0  0  0  0  0  0
   -5.7870   -1.6990    1.1170 C   0  0  0  0  0  0  0  0  0  0  0  0
   -7.1340   -1.4440    1.2770 C   0  0  0  0  0  0  0  0  0  0  0  0
   -7.5830   -0.1640    1.5440 C   0  0  0  0  0  0  0  0  0  0  0  0
   -8.9630    0.0350    1.7000 N   0  0  0  0  0  0  0  0  0  0  0  0
   -9.8360    0.3300    0.8430 C   0  0  0  0  0  0  0  0  0  0  0  0
  -11.5670    0.5410    1.2590 S   0  0  0  0  0  0  0  0  0  0  0  0
  -12.1160    0.9500   -0.3810 C   0  0  0  0  0  0  0  0  0  0  0  0
  -11.0710    0.9050   -1.1630 C   0  0  0  0  0  0  0  0  0  0  0  0
  -11.0860    1.1820   -2.6210 C   0  0  0  0  0  0  0  0  0  0  0  0
  -12.1500    1.4790   -3.2240 O   0  0  0  0  0  0  0  0  0  0  0  0
   -9.9410    1.1230   -3.3570 O   0  0  0  0  0  0  0  0  0  0  0  0
   -8.7140    0.7810   -2.8390 C   0  0  0  0  0  0  0  0  0  0  0  0
   -8.7560    0.5320   -1.3920 C   0  0  0  0  0  0  0  0  0  0  0  0
   -9.8140    0.5820   -0.5950 C   0  0  0  0  0  0  0  0  0  0  0  0
   -6.6460    0.8460    1.6450 C   0  0  0  0  0  0  0  0  0  0  0  0
   -7.0920    2.2200    1.9290 C   0  0  0  0  0  0  0  0  0  0  0  0
   -5.2930    0.6140    1.4890 C   0  0  0  0  0  0  0  0  0  0  0  0
   -4.3700    1.7460    1.6030 C   0  0  0  0  0  0  0  0  0  0  0  0
   -2.9460   -1.6990    0.0040 C   0  0  0  0  0  0  0  0  0  0  0  0
   -1.6220   -1.9850   -0.1660 C   0  0  0  0  0  0  0  0  0  0  0  0
    5.6980   -0.3770   -1.6150 C   0  0  0  0  0  0  0  0  0  0  0  0
  1  2  1  0
  2  3  1  0
  3  4  2  0
  3  5  1  0
  5  6  1  0
  6  7  1  0
  7  8  1  6
  7  9  1  0
  7 46  1  0
  9 10  1  0
 10 11  1  6
 10 12  1  0
 12 13  1  0
 13 14  1  0
 13 46  1  0
 14 15  2  0
 14 16  1  0
 16 17  1  0
 17 18  1  0
 17 19  1  0
 19 20  2  0
 19 21  1  0
 21 22  2  0
 21 45  1  0
 22 23  1  0
 23 24  2  0
 24 25  1  0
 24 44  1  0
 25 26  2  0
 25 42  1  0
 26 27  1  0
 27 28  2  0
 28 29  1  0
 28 40  1  0
 29 30  2  3
 30 31  1  0
 30 39  1  0
 31 32  1  0
 32 33  2  0
 33 34  1  0
 33 39  1  0
 34 35  2  0
 34 36  1  0
 36 37  1  0
 37 38  1  0
 38 39  2  0
 40 41  1  0
 40 42  2  0
 42 43  1  0
 44 45  2  0
M  END
