
     RDKit          3D

 46 50  0  0  0  0  0  0  0  0999 V2000
  -13.2660   -1.1070    1.1800 C   0  0  0  0  0  0  0  0  0  0  0  0
  -12.6230   -1.1010    0.0200 C   0  0  0  0  0  0  0  0  0  0  0  0
  -11.2880   -1.6820   -0.1650 C   0  0  0  0  0  0  0  0  0  0  0  0
  -10.3840   -0.7320   -0.5960 O   0  0  0  0  0  0  0  0  0  0  0  0
  -10.0510    0.4430    0.0850 C   0  0  0  0  0  0  0  0  0  0  0  0
  -10.6050    0.6860    1.1620 O   0  0  0  0  0  0  0  0  0  0  0  0
   -9.0070    1.3470   -0.5450 C   0  0  0  0  0  0  0  0  0  0  0  0
   -7.8840    1.1100    0.4100 N   0  0  0  0  0  0  0  0  0  0  0  0
   -7.5160   -0.2740    0.3340 C   0  0  0  0  0  0  0  0  0  0  0  0
   -6.1280   -0.6280    0.0230 C   0  0  0  0  0  0  0  0  0  0  0  0
   -5.6580    0.3240   -0.9000 O   0  0  0  0  0  0  0  0  0  0  0  0
   -5.5260    1.4820   -0.1680 C   0  0  1  0  0  0  0  0  0  0  0  0
   -4.4370    2.2930   -0.7530 C   0  0  0  0  0  0  0  0  0  0  0  0
   -3.2100    1.5140   -0.5330 N   0  0  0  0  0  0  0  0  0  0  0  0
   -3.0520    0.2250   -1.0540 C   0  0  0  0  0  0  0  0  0  0  0  0
   -3.7840   -0.4340   -1.7640 O   0  0  0  0  0  0  0  0  0  0  0  0
   -1.7760   -0.4580   -0.6580 C   0  0  0  0  0  0  0  0  0  0  0  0
   -0.7710    0.1640   -1.2420 N   0  0  0  0  0  0  0  0  0  0  0  0
    0.4750   -0.2790   -0.9150 C   0  0  0  0  0  0  0  0  0  0  0  0
    1.5770    0.3230   -1.6600 C   0  0  0  0  0  0  0  0  0  0  0  0
    2.5680    0.9530   -0.9260 C   0  0  0  0  0  0  0  0  0  0  0  0
    3.6440    0.1930   -0.6570 O   0  0  0  0  0  0  0  0  0  0  0  0
    2.7430    2.2940   -0.3860 N   0  0  0  0  0  0  0  0  0  0  0  0
    4.0720    2.3640    0.2070 C   0  0  0  0  0  0  0  0  0  0  0  0
    5.0500    1.9420   -0.7490 C   0  0  0  0  0  0  0  0  0  0  0  0
    6.3070    1.6220   -0.3330 C   0  0  0  0  0  0  0  0  0  0  0  0
    6.6840    1.6910    0.9730 C   0  0  0  0  0  0  0  0  0  0  0  0
    8.0000    1.2880    1.3580 O   0  0  0  0  0  0  0  0  0  0  0  0
    8.6300    0.5770    0.2880 C   0  0  0  0  0  0  0  0  0  0  0  0
    9.9630    0.0340    0.4170 C   0  0  0  0  0  0  0  0  0  0  0  0
   11.0800    0.7670    0.4840 C   0  0  0  0  0  0  0  0  0  0  0  0
   12.3070    0.1040    0.2900 C   0  0  0  0  0  0  0  0  0  0  0  0
   12.4210   -1.2400    0.0520 C   0  0  0  0  0  0  0  0  0  0  0  0
   11.2660   -1.9850   -0.0070 C   0  0  0  0  0  0  0  0  0  0  0  0
   11.2780   -3.4670   -0.1870 C   0  0  0  0  0  0  0  0  0  0  0  0
   10.0790   -1.3490    0.1740 C   0  0  0  0  0  0  0  0  0  0  0  0
    8.9050   -2.0970    0.1310 O   0  0  0  0  0  0  0  0  0  0  0  0
    5.7690    2.1110    1.9160 C   0  0  0  0  0  0  0  0  0  0  0  0
    4.4380    2.4480    1.4890 C   0  0  0  0  0  0  0  0  0  0  0  0
    0.6080   -1.2850   -0.0430 C   0  0  0  0  0  0  0  0  0  0  0  0
    2.0390   -2.0790    0.6640 S   0  0  0  0  0  0  0  0  0  0  0  0
    1.0870   -3.2540    1.7540 C   0  0  0  0  0  0  0  0  0  0  0  0
   -0.1860   -2.9080    1.4480 C   0  0  0  0  0  0  0  0  0  0  0  0
   -0.4260   -1.9220    0.5540 C   0  0  0  0  0  0  0  0  0  0  0  0
   -1.7040   -1.4530    0.2000 N   0  0  0  0  0  0  0  0  0  0  0  0
   -6.8130    2.0610    0.1290 C   0  0  0  0  0  0  0  0  0  0  0  0
  1  2  2  0
  2  3  1  0
  3  4  1  0
  4  5  1  0
  5  6  2  0
  5  7  1  0
  7  8  1  0
  8  9  1  0
  8 46  1  0
  9 10  1  0
 10 11  1  0
 11 12  1  0
 12 13  1  6
 12 46  1  0
 13 14  1  0
 14 15  1  0
 15 16  2  0
 15 17  1  0
 17 18  2  0
 17 45  1  0
 18 19  1  0
 19 20  1  0
 19 40  2  0
 20 21  1  0
 21 22  2  0
 21 23  1  0
 23 24  1  0
 24 25  2  0
 24 39  1  0
 25 26  1  0
 26 27  2  0
 27 28  1  0
 27 38  1  0
 28 29  1  0
 29 30  1  0
 30 31  2  0
 30 36  1  0
 31 32  1  0
 32 33  2  0
 33 34  1  0
 34 35  1  0
 34 36  2  0
 36 37  1  0
 38 39  2  0
 40 41  1  0
 40 44  1  0
 41 42  1  0
 42 43  2  0
 43 44  1  0
 44 45  2  0
M  END
