
     RDKit          3D

 31 33  0  0  0  0  0  0  0  0999 V2000
   -4.5060    2.8860   -1.3960 O   0  0  0  0  0  0  0  0  0  0  0  0
   -4.6810    3.0720   -0.1670 C   0  0  0  0  0  0  0  0  0  0  0  0
   -4.9750    4.3560    0.2760 O   0  0  0  0  0  0  0  0  0  0  0  0
   -4.5700    1.9800    0.6730 O   0  0  0  0  0  0  0  0  0  0  0  0
   -4.2720    0.7250    0.1530 C   0  0  2  0  0  0  0  0  0  0  0  0
   -5.3840   -0.2830    0.3840 C   0  0  1  0  0  0  0  0  0  0  0  0
   -5.6290   -1.0440   -0.7390 O   0  0  0  0  0  0  0  0  0  0  0  0
   -4.9880   -1.1720    1.5290 C   0  0  0  0  0  0  0  0  0  0  0  0
   -3.9120   -2.1120    1.0530 C   0  0  0  0  0  0  0  0  0  0  0  0
   -2.8780   -1.2970    0.2830 C   0  0  2  0  0  0  0  0  0  0  0  0
   -1.6320   -1.8010    0.6510 O   0  0  0  0  0  0  0  0  0  0  0  0
   -0.9770   -2.3500   -0.4690 C   0  0  0  0  0  0  0  0  0  0  0  0
    0.2500   -2.8500   -0.1170 O   0  0  0  0  0  0  0  0  0  0  0  0
    1.1270   -1.9300    0.4180 C   0  0  0  0  0  0  0  0  0  0  0  0
    1.3740   -0.8470   -0.5890 C   0  0  2  0  0  0  0  0  0  0  0  0
    1.9210   -1.4500   -1.7270 O   0  0  0  0  0  0  0  0  0  0  0  0
    2.4330    0.1430   -0.1010 C   0  0  0  0  0  0  0  0  0  0  0  0
    2.6600    1.0840   -1.1620 N   0  0  0  0  0  0  0  0  0  0  0  0
    4.0400    1.4370   -1.3510 C   0  0  2  0  0  0  0  0  0  0  0  0
    4.7730    0.4770   -2.2070 C   0  0  0  0  0  0  0  0  0  0  0  0
    4.4390    0.1280   -3.3680 O   0  0  0  0  0  0  0  0  0  0  0  0
    5.8700    0.0650   -1.4650 O   0  0  0  0  0  0  0  0  0  0  0  0
    5.8950    0.6780   -0.2180 C   0  0  0  0  0  0  0  0  0  0  0  0
    6.7510    0.6150    0.8710 C   0  0  0  0  0  0  0  0  0  0  0  0
    6.5640    1.3030    1.9670 O   0  0  0  0  0  0  0  0  0  0  0  0
    5.5520    2.1080    2.1220 C   0  0  0  0  0  0  0  0  0  0  0  0
    5.4260    2.7420    3.1980 O   0  0  0  0  0  0  0  0  0  0  0  0
    4.6500    2.2210    1.0660 C   0  0  0  0  0  0  0  0  0  0  0  0
    4.8000    1.5230   -0.1010 C   0  0  0  0  0  0  0  0  0  0  0  0
   -2.9620    0.1660    0.6660 C   0  0  1  0  0  0  0  0  0  0  0  0
   -1.8970    0.8320    0.0690 O   0  0  0  0  0  0  0  0  0  0  0  0
  1  2  2  0
  2  3  1  0
  2  4  1  0
  5  4  1  1
  5  6  1  0
  5 30  1  0
  6  7  1  6
  6  8  1  0
  8  9  1  0
  9 10  1  0
 10 11  1  1
 10 30  1  0
 11 12  1  0
 12 13  1  0
 13 14  1  0
 14 15  1  0
 15 16  1  6
 15 17  1  0
 17 18  1  0
 19 18  1  1
 19 20  1  0
 19 29  1  0
 20 21  2  0
 20 22  1  0
 22 23  1  0
 23 24  2  0
 23 29  1  0
 24 25  1  0
 25 26  1  0
 26 27  2  0
 26 28  1  0
 28 29  2  0
 30 31  1  6
M  CHG  2   3  -1  18   1
M  END
