
     RDKit          3D

 32 33  0  0  0  0  0  0  0  0999 V2000
    6.3140    2.3350   -1.1010 C   0  0  0  0  0  0  0  0  0  0  0  0
    7.1400    1.1630   -0.6610 C   0  0  2  0  0  0  0  0  0  0  0  0
    8.3650    1.1500   -1.3450 O   0  0  0  0  0  0  0  0  0  0  0  0
    6.4130   -0.1310   -0.8590 C   0  0  0  0  0  0  0  0  0  0  0  0
    5.1750   -0.2140   -0.2220 O   0  0  0  0  0  0  0  0  0  0  0  0
    5.0800   -0.1220    1.1500 C   0  0  0  0  0  0  0  0  0  0  0  0
    6.1180    0.0350    1.8300 O   0  0  0  0  0  0  0  0  0  0  0  0
    3.7660   -0.2040    1.8600 C   0  0  0  0  0  0  0  0  0  0  0  0
    2.7640   -0.3800    0.8840 O   0  0  0  0  0  0  0  0  0  0  0  0
    1.4380   -0.4840    1.3170 C   0  0  0  0  0  0  0  0  0  0  0  0
    1.1630   -0.4220    2.5320 O   0  0  0  0  0  0  0  0  0  0  0  0
    0.3420   -0.6690    0.3380 C   0  0  2  0  0  0  0  0  0  0  0  0
    0.2660    0.5540   -0.5870 C   0  0  0  0  0  0  0  0  0  0  0  0
   -0.8520   -0.7420    0.9980 O   0  0  0  0  0  0  0  0  0  0  0  0
   -1.2830   -1.9860    1.3210 C   0  0  1  0  0  0  0  0  0  0  0  0
   -2.6130   -1.9150    2.0220 C   0  0  0  0  0  0  0  0  0  0  0  0
   -3.6630   -1.3630    1.3250 O   0  0  0  0  0  0  0  0  0  0  0  0
   -3.7430   -0.0640    0.8880 C   0  0  0  0  0  0  0  0  0  0  0  0
   -2.8540    0.7850    1.0850 O   0  0  0  0  0  0  0  0  0  0  0  0
   -4.9530    0.3090    0.1550 C   0  0  0  0  0  0  0  0  0  0  0  0
   -5.9990   -0.4590   -0.1470 C   0  0  0  0  0  0  0  0  0  0  0  0
   -6.0990   -1.8140    0.2150 O   0  0  0  0  0  0  0  0  0  0  0  0
   -6.9800    0.3200   -0.8860 C   0  0  0  0  0  0  0  0  0  0  0  0
   -8.0740   -0.0640   -1.3300 O   0  0  0  0  0  0  0  0  0  0  0  0
   -6.4080    1.6530   -0.9990 C   0  0  0  0  0  0  0  0  0  0  0  0
   -6.9600    2.8020   -1.6320 N   0  0  0  0  0  0  0  0  0  0  0  0
   -5.2120    1.6380   -0.3820 C   0  0  0  0  0  0  0  0  0  0  0  0
   -4.3680    2.7530   -0.2900 O   0  0  0  0  0  0  0  0  0  0  0  0
   -1.3110   -2.9500    0.1580 C   0  0  0  0  0  0  0  0  0  0  0  0
   -0.4490   -2.6140   -0.8550 O   0  0  0  0  0  0  0  0  0  0  0  0
    0.6650   -1.9110   -0.4610 C   0  0  2  0  0  0  0  0  0  0  0  0
    1.5510   -2.7320    0.2160 O   0  0  0  0  0  0  0  0  0  0  0  0
  2  1  1  6
  2  3  1  0
  2  4  1  0
  4  5  1  0
  5  6  1  0
  6  7  2  0
  6  8  1  0
  8  9  1  0
  9 10  1  0
 10 11  2  0
 10 12  1  0
 12 13  1  6
 12 14  1  0
 12 31  1  0
 14 15  1  0
 15 16  1  6
 15 29  1  0
 16 17  1  0
 17 18  1  0
 18 19  2  0
 18 20  1  0
 20 21  2  0
 20 27  1  0
 21 22  1  0
 21 23  1  0
 23 24  2  0
 23 25  1  0
 25 26  1  0
 25 27  2  0
 27 28  1  0
 29 30  1  0
 30 31  1  0
 31 32  1  1
M  CHG  2  26   1  32  -1
M  END
