
     RDKit          3D

 32 34  0  0  0  0  0  0  0  0999 V2000
   -3.0280   -1.4980    2.0300 C   0  0  0  0  0  0  0  0  0  0  0  0
   -2.2160   -1.5430    0.9840 C   0  0  0  0  0  0  0  0  0  0  0  0
   -1.6020   -0.2890    0.4920 C   0  0  0  0  0  0  0  0  0  0  0  0
   -1.9680   -0.0560   -0.8890 N   0  0  0  0  0  0  0  0  0  0  0  0
   -1.1240   -0.6580   -1.8890 C   0  0  0  0  0  0  0  0  0  0  0  0
   -0.0350    0.1570   -2.4470 C   0  0  0  0  0  0  0  0  0  0  0  0
    0.9110    0.6350   -1.4900 N   0  0  0  0  0  0  0  0  0  0  0  0
    2.0300   -0.0260   -0.9470 C   0  0  0  0  0  0  0  0  0  0  0  0
    2.2520   -1.3930   -0.9160 C   0  0  0  0  0  0  0  0  0  0  0  0
    3.3850   -1.9260   -0.3540 C   0  0  0  0  0  0  0  0  0  0  0  0
    4.3810   -1.1160    0.2190 C   0  0  0  0  0  0  0  0  0  0  0  0
    5.5590   -1.7280    0.8000 C   0  0  0  0  0  0  0  0  0  0  0  0
    6.5120   -1.1400    1.3310 N   0  0  0  0  0  0  0  0  0  0  0  0
    6.8600    0.1750    1.5860 C   0  0  0  0  0  0  0  0  0  0  0  0
    7.7490    0.7750    0.8260 C   0  0  0  0  0  0  0  0  0  0  0  0
    8.3670    0.0390   -0.2930 C   0  0  0  0  0  0  0  0  0  0  0  0
    4.1190    0.2300    0.1650 C   0  0  0  0  0  0  0  0  0  0  0  0
    2.9610    0.7710   -0.4090 C   0  0  0  0  0  0  0  0  0  0  0  0
    2.6790    2.2320   -0.4770 C   0  0  0  0  0  0  0  0  0  0  0  0
    0.9050    2.2070   -0.7810 S   0  0  2  0  0  0  0  0  0  0  0  0
    0.1430    2.3360    0.4670 O   0  0  0  0  0  0  0  0  0  0  0  0
    0.5980    3.2720   -1.7890 O   0  0  0  0  0  0  0  0  0  0  0  0
   -3.1150    0.6940   -1.1850 C   0  0  0  0  0  0  0  0  0  0  0  0
   -3.4430    0.9190   -2.3810 O   0  0  0  0  0  0  0  0  0  0  0  0
   -3.9510    1.2290   -0.1320 C   0  0  0  0  0  0  0  0  0  0  0  0
   -3.8010    2.4170    0.5590 C   0  0  0  0  0  0  0  0  0  0  0  0
   -4.7940    2.4980    1.4590 N   0  0  0  0  0  0  0  0  0  0  0  0
   -5.5330    1.4380    1.3560 O   0  0  0  0  0  0  0  0  0  0  0  0
   -5.0830    0.6460    0.4270 C   0  0  0  0  0  0  0  0  0  0  0  0
   -5.6830   -0.6530    0.0380 C   0  0  1  0  0  0  0  0  0  0  0  0
   -6.8330   -0.9790    0.9760 C   0  0  0  0  0  0  0  0  0  0  0  0
   -6.3540   -0.4570   -1.3350 C   0  0  0  0  0  0  0  0  0  0  0  0
  1  2  2  0
  2  3  1  0
  3  4  1  0
  4  5  1  0
  4 23  1  0
  5  6  1  0
  6  7  1  0
  7  8  1  0
  7 20  1  0
  8  9  2  0
  8 18  1  0
  9 10  1  0
 10 11  2  0
 11 12  1  0
 11 17  1  0
 12 13  2  3
 13 14  1  0
 14 15  2  3
 15 16  1  0
 17 18  2  0
 18 19  1  0
 20 19  1  1
 20 21  2  0
 20 22  2  0
 23 24  2  0
 23 25  1  0
 25 26  1  0
 25 29  2  0
 26 27  2  0
 27 28  1  0
 28 29  1  0
 29 30  1  0
 30 31  1  1
 30 32  1  0
M  END
