
     RDKit          3D

 32 32  0  0  0  0  0  0  0  0999 V2000
   -3.7180   -0.9000   -0.8290 C   0  0  0  0  0  0  0  0  0  0  0  0
   -2.4480   -0.4650   -1.1680 O   0  0  0  0  0  0  0  0  0  0  0  0
   -1.5690   -0.4640   -0.0910 C   0  0  2  0  0  0  0  0  0  0  0  0
   -1.2390    0.9840    0.1830 C   0  0  1  0  0  0  0  0  0  0  0  0
   -2.3290    1.6960    0.6140 O   0  0  0  0  0  0  0  0  0  0  0  0
   -2.5650    2.7520   -0.2380 C   0  0  0  0  0  0  0  0  0  0  0  0
   -3.7440    3.5880    0.1640 C   0  0  0  0  0  0  0  0  0  0  0  0
   -4.9550    2.8050    0.1900 N   0  0  0  0  0  0  0  0  0  0  0  0
   -5.4410    2.1540   -0.9740 C   0  0  0  0  0  0  0  0  0  0  0  0
   -6.6530    1.3820   -0.9050 N   0  0  0  0  0  0  0  0  0  0  0  0
   -4.8360    2.2360   -2.0680 O   0  0  0  0  0  0  0  0  0  0  0  0
   -0.1380    1.0220    1.1900 C   0  0  2  0  0  0  0  0  0  0  0  0
    0.0560    2.3610    1.5550 O   0  0  0  0  0  0  0  0  0  0  0  0
    1.1340    0.6110    0.4270 C   0  0  1  0  0  0  0  0  0  0  0  0
    1.4100    1.7980   -0.4080 N   0  0  0  0  0  0  0  0  0  0  0  0
    2.1830    0.4070    1.4580 C   0  0  0  0  0  0  0  0  0  0  0  0
    3.5190    0.0020    1.0140 C   0  0  2  0  0  0  0  0  0  0  0  0
    4.4530   -0.1530    2.2240 C   0  0  0  0  0  0  0  0  0  0  0  0
    5.7260   -0.5380    1.8050 O   0  0  0  0  0  0  0  0  0  0  0  0
    4.2100    0.8740    0.0340 C   0  0  0  0  0  0  0  0  0  0  0  0
    5.4880    0.2690   -0.2370 O   0  0  0  0  0  0  0  0  0  0  0  0
    6.3940    0.8260   -1.1140 C   0  0  0  0  0  0  0  0  0  0  0  0
    7.6570    0.2630   -1.4070 N   0  0  0  0  0  0  0  0  0  0  0  0
    6.0330    1.9160   -1.6760 O   0  0  0  0  0  0  0  0  0  0  0  0
    0.9050   -0.5100   -0.5130 C   0  0  0  0  0  0  0  0  0  0  0  0
   -0.3580   -1.3180   -0.2990 C   0  0  2  0  0  0  0  0  0  0  0  0
   -0.5430   -2.0230   -1.4880 O   0  0  0  0  0  0  0  0  0  0  0  0
   -0.1290   -2.3360    0.7840 C   0  0  0  0  0  0  0  0  0  0  0  0
   -1.2690   -3.3010    0.9540 C   0  0  2  0  0  0  0  0  0  0  0  0
   -0.8490   -4.1600    2.0200 O   0  0  0  0  0  0  0  0  0  0  0  0
   -1.5470   -4.1620   -0.2460 C   0  0  0  0  0  0  0  0  0  0  0  0
   -2.5440   -5.0990    0.1550 O   0  0  0  0  0  0  0  0  0  0  0  0
  1  2  1  0
  3  2  1  6
  3  4  1  0
  3 26  1  0
  4  5  1  1
  4 12  1  0
  5  6  1  0
  6  7  1  0
  7  8  1  0
  8  9  1  0
  9 10  1  0
  9 11  2  0
 12 13  1  6
 12 14  1  0
 14 15  1  6
 14 16  1  0
 14 25  1  0
 17 16  1  1
 17 18  1  0
 17 20  1  0
 18 19  1  0
 20 21  1  0
 21 22  1  0
 22 23  1  0
 22 24  2  0
 25 26  1  0
 26 27  1  6
 26 28  1  0
 28 29  1  0
 29 30  1  1
 29 31  1  0
 31 32  1  0
M  END
