
     RDKit          3D

 32 32  0  0  0  0  0  0  0  0999 V2000
   -3.7220    3.3310   -2.1980 O   0  0  0  0  0  0  0  0  0  0  0  0
   -3.4120    2.6790   -1.1360 C   0  0  0  0  0  0  0  0  0  0  0  0
   -4.1150    1.4600   -0.9720 N   0  0  0  0  0  0  0  0  0  0  0  0
   -4.7780    1.0390    0.2570 C   0  0  0  0  0  0  0  0  0  0  0  0
   -4.3910   -0.4110    0.4710 C   0  0  0  0  0  0  0  0  0  0  0  0
   -4.5570   -1.1480   -0.6740 O   0  0  0  0  0  0  0  0  0  0  0  0
   -3.4530   -1.8280   -1.1210 C   0  0  0  0  0  0  0  0  0  0  0  0
   -2.8080   -2.7340   -0.1190 C   0  0  1  0  0  0  0  0  0  0  0  0
   -3.0310   -4.0910   -0.4170 O   0  0  0  0  0  0  0  0  0  0  0  0
   -1.3120   -2.5170   -0.1160 C   0  0  0  0  0  0  0  0  0  0  0  0
   -0.9130   -2.1830    1.2170 N   0  0  0  0  0  0  0  0  0  0  0  0
    0.4010   -2.3380    1.7460 C   0  0  0  0  0  0  0  0  0  0  0  0
    0.4420   -2.7720    2.9530 O   0  0  0  0  0  0  0  0  0  0  0  0
    1.6010   -2.0700    1.0880 N   0  0  0  0  0  0  0  0  0  0  0  0
    1.9620   -0.8770    0.3480 C   0  0  2  0  0  0  0  0  0  0  0  0
    2.1050   -1.2580   -1.0830 C   0  0  0  0  0  0  0  0  0  0  0  0
    3.1190   -2.2420   -1.1660 O   0  0  0  0  0  0  0  0  0  0  0  0
    3.3720   -0.5110    0.8490 C   0  0  0  0  0  0  0  0  0  0  0  0
    4.2020   -1.5640    0.5770 O   0  0  0  0  0  0  0  0  0  0  0  0
    5.5040   -1.4130    0.9590 C   0  0  0  0  0  0  0  0  0  0  0  0
    6.1540   -0.2310    0.2840 C   0  0  0  0  0  0  0  0  0  0  0  0
    6.1480   -0.3560   -1.0850 O   0  0  0  0  0  0  0  0  0  0  0  0
    1.0920    0.2910    0.6280 C   0  0  0  0  0  0  0  0  0  0  0  0
    0.5830    1.0380   -0.5570 C   0  0  2  0  0  0  0  0  0  0  0  0
    1.4140    2.2760   -0.7590 C   0  0  0  0  0  0  0  0  0  0  0  0
    0.9750    3.0210   -1.8700 O   0  0  0  0  0  0  0  0  0  0  0  0
   -0.8970    1.3340   -0.4430 C   0  0  2  0  0  0  0  0  0  0  0  0
   -1.5110    1.3070   -1.7160 O   0  0  0  0  0  0  0  0  0  0  0  0
   -1.2420    2.6180    0.2160 C   0  0  2  0  0  0  0  0  0  0  0  0
   -1.3830    2.5390    1.7040 C   0  0  0  0  0  0  0  0  0  0  0  0
   -1.5300    3.8390    2.2130 O   0  0  0  0  0  0  0  0  0  0  0  0
   -2.4470    3.2430   -0.3010 N   0  0  0  0  0  0  0  0  0  0  0  0
  1  2  2  0
  2  3  1  0
  2 32  1  0
  3  4  1  0
  4  5  1  0
  5  6  1  0
  6  7  1  0
  7  8  1  0
  8  9  1  6
  8 10  1  0
 10 11  1  0
 11 12  1  0
 12 13  2  0
 12 14  1  0
 14 15  1  0
 15 16  1  6
 15 18  1  0
 15 23  1  0
 16 17  1  0
 18 19  1  0
 19 20  1  0
 20 21  1  0
 21 22  1  0
 23 24  1  0
 24 25  1  1
 24 27  1  0
 25 26  1  0
 27 28  1  6
 27 29  1  0
 29 30  1  1
 29 32  1  0
 30 31  1  0
M  END
