
     RDKit          3D

 32 32  0  0  0  0  0  0  0  0999 V2000
   -0.0820   -4.1930   -0.9140 N   0  0  0  0  0  0  0  0  0  0  0  0
   -0.2690   -2.7330   -0.8950 C   0  0  0  0  0  0  0  0  0  0  0  0
   -1.4530   -2.3550   -1.1780 C   0  0  0  0  0  0  0  0  0  0  0  0
   -2.4350   -3.3760   -1.4730 O   0  0  0  0  0  0  0  0  0  0  0  0
   -2.1020   -1.0380   -1.2850 C   0  0  0  0  0  0  0  0  0  0  0  0
   -2.7710   -0.8210   -0.0770 O   0  0  0  0  0  0  0  0  0  0  0  0
   -4.0940   -1.1820   -0.0960 C   0  0  0  0  0  0  0  0  0  0  0  0
   -4.9910    0.0110    0.1440 C   0  0  1  0  0  0  0  0  0  0  0  0
   -6.3020   -0.3930    0.3900 O   0  0  0  0  0  0  0  0  0  0  0  0
   -4.4330    0.7960    1.3130 C   0  0  0  0  0  0  0  0  0  0  0  0
   -3.0860    0.9290    1.1430 O   0  0  0  0  0  0  0  0  0  0  0  0
   -2.5300    2.1040    1.5660 C   0  0  0  0  0  0  0  0  0  0  0  0
   -1.5000    2.5330    0.5450 C   0  0  1  0  0  0  0  0  0  0  0  0
   -1.9900    3.8610   -0.0370 C   0  0  0  0  0  0  0  0  0  0  0  0
   -3.2130    3.6380   -0.6330 O   0  0  0  0  0  0  0  0  0  0  0  0
   -0.2170    2.8150    1.1580 N   0  0  0  0  0  0  0  0  0  0  0  0
    1.0600    2.6920    0.5420 C   0  0  0  0  0  0  0  0  0  0  0  0
    1.8110    3.7530    0.6270 O   0  0  0  0  0  0  0  0  0  0  0  0
    1.5920    1.6010   -0.1280 N   0  0  0  0  0  0  0  0  0  0  0  0
    1.8380    0.2220    0.3560 C   0  0  2  0  0  0  0  0  0  0  0  0
    1.6100    0.1290    1.8440 C   0  0  0  0  0  0  0  0  0  0  0  0
    0.3050    0.4440    2.2270 O   0  0  0  0  0  0  0  0  0  0  0  0
    3.3020    0.0430    0.0870 C   0  0  0  0  0  0  0  0  0  0  0  0
    3.9570    1.0410    0.8050 O   0  0  0  0  0  0  0  0  0  0  0  0
    5.3070    0.9960    0.7150 C   0  0  0  0  0  0  0  0  0  0  0  0
    5.9460    1.1280   -0.6160 C   0  0  0  0  0  0  0  0  0  0  0  0
    5.6120    0.1600   -1.5510 O   0  0  0  0  0  0  0  0  0  0  0  0
    0.8660   -0.6160   -0.3490 C   0  0  0  0  0  0  0  0  0  0  0  0
    1.0000   -2.0480   -0.5430 C   0  0  1  0  0  0  0  0  0  0  0  0
    1.5140   -2.8220    0.5520 N   0  0  0  0  0  0  0  0  0  0  0  0
    1.8710   -2.2660   -1.8080 C   0  0  0  0  0  0  0  0  0  0  0  0
    1.3680   -1.5100   -2.8670 O   0  0  0  0  0  0  0  0  0  0  0  0
  1  2  1  0
  2  3  2  0
  2 29  1  0
  3  4  1  0
  3  5  1  0
  5  6  1  0
  6  7  1  0
  7  8  1  0
  8  9  1  1
  8 10  1  0
 10 11  1  0
 11 12  1  0
 12 13  1  0
 13 14  1  1
 13 16  1  0
 14 15  1  0
 16 17  1  0
 17 18  2  0
 17 19  1  0
 19 20  1  0
 20 21  1  1
 20 23  1  0
 20 28  1  0
 21 22  1  0
 23 24  1  0
 24 25  1  0
 25 26  1  0
 26 27  1  0
 28 29  1  0
 29 30  1  1
 29 31  1  0
 31 32  1  0
M  CHG  1  30   1
M  END
