
     RDKit          3D

 32 34  0  0  0  0  0  0  0  0999 V2000
   -2.7700    4.3330   -1.3400 C   0  0  0  0  0  0  0  0  0  0  0  0
   -1.9830    4.4060   -0.0760 C   0  0  0  0  0  0  0  0  0  0  0  0
   -0.8330    3.4560   -0.0080 C   0  0  0  0  0  0  0  0  0  0  0  0
    0.4200    3.9490   -0.0450 C   0  0  0  0  0  0  0  0  0  0  0  0
    0.6690    5.3500   -0.1500 C   0  0  0  0  0  0  0  0  0  0  0  0
    1.9030    5.7160   -0.1690 O   0  0  0  0  0  0  0  0  0  0  0  0
   -0.9570    2.1190    0.1270 N   0  0  0  0  0  0  0  0  0  0  0  0
   -1.3830    1.0330   -0.1830 C   0  0  0  0  0  0  0  0  0  0  0  0
   -2.2550    0.8000   -1.2570 C   0  0  0  0  0  0  0  0  0  0  0  0
   -2.6800   -0.4810   -1.5210 C   0  0  0  0  0  0  0  0  0  0  0  0
   -2.2610   -1.5310   -0.7450 C   0  0  0  0  0  0  0  0  0  0  0  0
   -2.7200   -2.8820   -1.0120 C   0  0  0  0  0  0  0  0  0  0  0  0
   -3.5000   -3.0590   -1.9840 O   0  0  0  0  0  0  0  0  0  0  0  0
   -2.3340   -3.9970   -0.2330 N   0  0  0  0  0  0  0  0  0  0  0  0
   -1.4290   -3.8430    0.8920 C   0  0  0  0  0  0  0  0  0  0  0  0
   -2.8200   -5.3430   -0.5150 C   0  0  0  0  0  0  0  0  0  0  0  0
   -1.4190   -1.2500    0.2790 N   0  0  0  0  0  0  0  0  0  0  0  0
   -0.9930   -0.0540    0.5620 N   0  0  0  0  0  0  0  0  0  0  0  0
   -0.0910    0.2120    1.6430 C   0  0  0  0  0  0  0  0  0  0  0  0
    1.1800   -0.0700    1.6220 C   0  0  0  0  0  0  0  0  0  0  0  0
    1.9710   -0.6950    0.5430 C   0  0  0  0  0  0  0  0  0  0  0  0
    1.8640   -0.3010   -0.7620 C   0  0  0  0  0  0  0  0  0  0  0  0
    2.6050   -0.9190   -1.7850 C   0  0  0  0  0  0  0  0  0  0  0  0
    3.4590   -1.9450   -1.4640 C   0  0  0  0  0  0  0  0  0  0  0  0
    4.2220   -2.5930   -2.4600 O   0  0  0  0  0  0  0  0  0  0  0  0
    5.8060   -1.9830   -2.8140 S   0  0  0  0  0  0  0  0  0  0  0  0
    6.8040   -2.7730   -1.9540 O   0  0  0  0  0  0  0  0  0  0  0  0
    3.5780   -2.3510   -0.1620 C   0  0  0  0  0  0  0  0  0  0  0  0
    2.8410   -1.7340    0.8420 C   0  0  0  0  0  0  0  0  0  0  0  0
    1.8090    0.3350    2.9060 C   0  0  0  0  0  0  0  0  0  0  0  0
    0.8420    1.2990    3.5520 C   0  0  0  0  0  0  0  0  0  0  0  0
   -0.4560    0.8420    2.9410 C   0  0  0  0  0  0  0  0  0  0  0  0
  1  2  1  0
  2  3  1  0
  3  4  2  3
  3  7  1  0
  4  5  1  0
  5  6  2  0
  7  8  2  3
  8  9  1  0
  8 18  1  0
  9 10  2  0
 10 11  1  0
 11 12  1  0
 11 17  2  0
 12 13  2  0
 12 14  1  0
 14 15  1  0
 14 16  1  0
 17 18  1  0
 18 19  1  0
 19 20  2  0
 19 32  1  0
 20 21  1  0
 20 30  1  0
 21 22  2  0
 21 29  1  0
 22 23  1  0
 23 24  2  0
 24 25  1  0
 24 28  1  0
 25 26  1  0
 26 27  2  0
 28 29  2  0
 30 31  1  0
 31 32  1  0
M  END
