
     RDKit          3D

 33 36  0  0  0  0  0  0  0  0999 V2000
   -2.4150    0.9880   -2.6380 C   0  0  0  0  0  0  0  0  0  0  0  0
   -1.7910    1.2720   -1.2880 C   0  0  0  0  0  0  0  0  0  0  0  0
   -2.1800    0.2810   -0.3480 N   0  0  0  0  0  0  0  0  0  0  0  0
   -1.3340   -0.7760   -0.2280 C   0  0  0  0  0  0  0  0  0  0  0  0
   -0.3080   -0.7830   -0.9810 O   0  0  0  0  0  0  0  0  0  0  0  0
   -1.4510   -1.8150    0.5880 N   0  0  0  0  0  0  0  0  0  0  0  0
   -0.4870   -2.8660    0.5590 C   0  0  0  0  0  0  0  0  0  0  0  0
    0.7760   -2.5840    1.3460 C   0  0  0  0  0  0  0  0  0  0  0  0
    1.9000   -2.2100    0.6820 C   0  0  0  0  0  0  0  0  0  0  0  0
    3.0290   -1.9480    1.3840 C   0  0  0  0  0  0  0  0  0  0  0  0
    4.3780   -1.5350    0.9990 C   0  0  0  0  0  0  0  0  0  0  0  0
    5.2390   -1.3580    1.8700 O   0  0  0  0  0  0  0  0  0  0  0  0
    4.7520   -1.3250   -0.3470 N   0  0  0  0  0  0  0  0  0  0  0  0
    6.0090   -0.9390   -0.7530 N   0  0  0  0  0  0  0  0  0  0  0  0
    6.3560    0.1210   -1.3520 C   0  0  0  0  0  0  0  0  0  0  0  0
    5.3200    1.1300   -1.6960 C   0  0  0  0  0  0  0  0  0  0  0  0
    5.9650    2.3560   -2.3480 C   0  0  0  0  0  0  0  0  0  0  0  0
    6.8820    2.9160   -1.4530 O   0  0  0  0  0  0  0  0  0  0  0  0
    2.4970   -2.2410    3.0830 S   0  0  0  0  0  0  0  0  0  0  0  0
    0.8450   -2.6780    2.6990 C   0  0  0  0  0  0  0  0  0  0  0  0
   -0.1140   -3.0500    3.7500 C   0  0  0  0  0  0  0  0  0  0  0  0
   -2.5320   -1.8080    1.3740 C   0  0  0  0  0  0  0  0  0  0  0  0
   -2.7740   -2.7340    2.1940 O   0  0  0  0  0  0  0  0  0  0  0  0
   -3.4150   -0.7450    1.2750 C   0  0  0  0  0  0  0  0  0  0  0  0
   -4.9210   -0.4590    2.1720 S   0  0  0  0  0  0  0  0  0  0  0  0
   -5.3240    1.0600    1.3940 C   0  0  0  0  0  0  0  0  0  0  0  0
   -6.4190    1.8900    1.5900 C   0  0  0  0  0  0  0  0  0  0  0  0
   -6.5340    3.0360    0.8460 C   0  0  0  0  0  0  0  0  0  0  0  0
   -5.5330    3.2820   -0.0610 C   0  0  0  0  0  0  0  0  0  0  0  0
   -5.6650    4.7610   -1.0320 Cl  0  0  0  0  0  0  0  0  0  0  0  0
   -4.4440    2.4450   -0.2480 C   0  0  0  0  0  0  0  0  0  0  0  0
   -4.3060    1.2620    0.5090 C   0  0  0  0  0  0  0  0  0  0  0  0
   -3.3180    0.3390    0.4430 C   0  0  0  0  0  0  0  0  0  0  0  0
  1  2  1  0
  2  3  1  0
  3  4  1  0
  3 33  1  0
  4  5  2  0
  4  6  1  0
  6  7  1  0
  6 22  1  0
  7  8  1  0
  8  9  1  0
  8 20  2  0
  9 10  2  0
 10 11  1  0
 10 19  1  0
 11 12  2  0
 11 13  1  0
 13 14  1  0
 14 15  2  3
 15 16  1  0
 16 17  1  0
 17 18  1  0
 19 20  1  0
 20 21  1  0
 22 23  2  0
 22 24  1  0
 24 25  1  0
 24 33  2  0
 25 26  1  0
 26 27  2  0
 26 32  1  0
 27 28  1  0
 28 29  2  0
 29 30  1  0
 29 31  1  0
 31 32  2  0
 32 33  1  0
M  END
