
     RDKit          3D

 32 35  0  0  0  0  0  0  0  0999 V2000
   -6.4390    2.8790   -0.6580 C   0  0  0  0  0  0  0  0  0  0  0  0
   -5.2880    2.1750   -0.0280 C   0  0  0  0  0  0  0  0  0  0  0  0
   -4.2120    2.9340    0.4550 C   0  0  0  0  0  0  0  0  0  0  0  0
   -3.1250    2.3160    1.0470 C   0  0  0  0  0  0  0  0  0  0  0  0
   -3.1330    0.9420    1.1460 C   0  0  0  0  0  0  0  0  0  0  0  0
   -1.9610    0.2940    1.7830 C   0  0  0  0  0  0  0  0  0  0  0  0
   -0.9630    0.0840    0.7340 N   0  0  0  0  0  0  0  0  0  0  0  0
    0.4010   -0.1790    1.1260 C   0  0  0  0  0  0  0  0  0  0  0  0
    0.7040   -0.2240    2.3460 O   0  0  0  0  0  0  0  0  0  0  0  0
    1.4090   -0.3880    0.1660 N   0  0  0  0  0  0  0  0  0  0  0  0
    2.8000   -0.6460    0.5150 C   0  0  0  0  0  0  0  0  0  0  0  0
    3.6240   -0.8240   -0.7430 C   0  0  2  0  0  0  0  0  0  0  0  0
    3.1740   -1.8930   -1.4740 O   0  0  0  0  0  0  0  0  0  0  0  0
    5.0420   -0.9310   -0.3490 C   0  0  0  0  0  0  0  0  0  0  0  0
    5.5370   -2.1140    0.1300 C   0  0  0  0  0  0  0  0  0  0  0  0
    6.8670   -2.2380    0.5200 C   0  0  0  0  0  0  0  0  0  0  0  0
    7.6850   -1.1080    0.4050 C   0  0  0  0  0  0  0  0  0  0  0  0
    7.2140    0.0890   -0.0720 C   0  0  0  0  0  0  0  0  0  0  0  0
    5.8680    0.1620   -0.4510 C   0  0  0  0  0  0  0  0  0  0  0  0
    8.0800    1.2620   -0.1700 C   0  0  0  0  0  0  0  0  0  0  0  0
    9.5280    0.9080   -0.3230 C   0  0  0  0  0  0  0  0  0  0  0  0
    9.9080   -0.0830    0.6700 N   0  0  0  0  0  0  0  0  0  0  0  0
    9.0800   -1.2410    0.8040 C   0  0  0  0  0  0  0  0  0  0  0  0
    9.6380   -2.6500    1.3690 S   0  0  0  0  0  0  0  0  0  0  0  0
   -4.1940    0.2060    0.6690 C   0  0  0  0  0  0  0  0  0  0  0  0
   -5.3060    0.8050    0.0660 C   0  0  0  0  0  0  0  0  0  0  0  0
   -6.3860    0.0210   -0.4210 N   0  0  0  0  0  0  0  0  0  0  0  0
   -7.7510    0.1150    0.0090 C   0  0  0  0  0  0  0  0  0  0  0  0
   -8.2300   -1.3050    0.3020 C   0  0  0  0  0  0  0  0  0  0  0  0
   -7.9690   -2.1940   -0.7030 O   0  0  0  0  0  0  0  0  0  0  0  0
   -7.3370   -1.6790   -1.8040 C   0  0  0  0  0  0  0  0  0  0  0  0
   -6.0580   -0.9580   -1.4380 C   0  0  0  0  0  0  0  0  0  0  0  0
  1  2  1  0
  2  3  2  0
  2 26  1  0
  3  4  1  0
  4  5  2  0
  5  6  1  0
  5 25  1  0
  6  7  1  0
  7  8  1  0
  8  9  2  0
  8 10  1  0
 10 11  1  0
 11 12  1  0
 12 13  1  1
 12 14  1  0
 14 15  2  0
 14 19  1  0
 15 16  1  0
 16 17  2  0
 17 18  1  0
 17 23  1  0
 18 19  2  0
 18 20  1  0
 20 21  1  0
 21 22  1  0
 22 23  1  0
 23 24  2  0
 25 26  2  0
 26 27  1  0
 27 28  1  0
 27 32  1  0
 28 29  1  0
 29 30  1  0
 30 31  1  0
 31 32  1  0
M  END
