
     RDKit          3D

 32 34  0  0  0  0  0  0  0  0999 V2000
   -2.7280    3.0070   -3.9330 C   0  0  0  0  0  0  0  0  0  0  0  0
   -3.5100    2.3780   -3.0460 C   0  0  0  0  0  0  0  0  0  0  0  0
   -2.9900    1.7800   -1.8440 C   0  0  0  0  0  0  0  0  0  0  0  0
   -3.7300    1.1190   -0.9220 C   0  0  0  0  0  0  0  0  0  0  0  0
   -3.0630    0.5830    0.2230 C   0  0  0  0  0  0  0  0  0  0  0  0
   -3.5410   -0.0990    1.2110 C   0  0  0  0  0  0  0  0  0  0  0  0
   -4.8050   -0.5960    1.6040 C   0  0  0  0  0  0  0  0  0  0  0  0
   -5.0130   -1.2990    2.7320 C   0  0  0  0  0  0  0  0  0  0  0  0
   -4.0640   -1.6920    3.7470 C   0  0  0  0  0  0  0  0  0  0  0  0
   -4.0860   -3.5200    3.8050 S   0  0  0  0  0  0  0  0  0  0  0  0
   -3.5340   -4.0190    5.1260 O   0  0  0  0  0  0  0  0  0  0  0  0
   -1.5890    0.8440    0.3260 N   0  0  0  0  0  0  0  0  0  0  0  0
   -1.0680    2.1580    0.5550 C   0  0  0  0  0  0  0  0  0  0  0  0
   -0.3230    2.1280    1.8930 C   0  0  0  0  0  0  0  0  0  0  0  0
    0.2650    0.8110    2.2330 C   0  0  0  0  0  0  0  0  0  0  0  0
    0.5880   -0.0960    1.0700 C   0  0  2  0  0  0  0  0  0  0  0  0
    1.7130    0.3360    0.3090 N   0  0  0  0  0  0  0  0  0  0  0  0
    2.9160   -0.4570    0.1860 C   0  0  0  0  0  0  0  0  0  0  0  0
    2.9410   -1.5450    0.7720 O   0  0  0  0  0  0  0  0  0  0  0  0
    4.0190   -0.0060   -0.5750 N   0  0  0  0  0  0  0  0  0  0  0  0
    5.2140   -0.7510   -0.7210 C   0  0  0  0  0  0  0  0  0  0  0  0
    5.5760   -1.9780   -0.2140 C   0  0  0  0  0  0  0  0  0  0  0  0
    6.8690   -2.2990   -0.6380 C   0  0  0  0  0  0  0  0  0  0  0  0
    7.6070   -3.5410   -0.2980 C   0  0  0  0  0  0  0  0  0  0  0  0
    7.2880   -1.2790   -1.3960 N   0  0  0  0  0  0  0  0  0  0  0  0
    6.3150   -0.3450   -1.4570 C   0  0  0  0  0  0  0  0  0  0  0  0
    6.4620    0.9220   -2.2230 C   0  0  0  0  0  0  0  0  0  0  0  0
   -0.6760   -0.2320    0.2730 C   0  0  0  0  0  0  0  0  0  0  0  0
   -0.9200   -1.2500   -0.4110 O   0  0  0  0  0  0  0  0  0  0  0  0
   -5.1300    1.0410   -1.1960 C   0  0  0  0  0  0  0  0  0  0  0  0
   -5.6660    1.5790   -2.2820 C   0  0  0  0  0  0  0  0  0  0  0  0
   -4.9530    2.3070   -3.3300 C   0  0  0  0  0  0  0  0  0  0  0  0
  1  2  2  0
  2  3  1  0
  2 32  1  0
  3  4  2  0
  4  5  1  0
  4 30  1  0
  5  6  2  3
  5 12  1  0
  6  7  1  0
  7  8  2  3
  8  9  1  0
  9 10  1  0
 10 11  2  0
 12 13  1  0
 12 28  1  0
 13 14  1  0
 14 15  1  0
 15 16  1  0
 16 17  1  6
 16 28  1  0
 17 18  1  0
 18 19  2  0
 18 20  1  0
 20 21  1  0
 21 22  1  0
 21 26  2  0
 22 23  2  0
 23 24  1  0
 23 25  1  0
 25 26  1  0
 26 27  1  0
 28 29  2  0
 30 31  2  0
 31 32  1  0
M  END
