
     RDKit          3D

 32 34  0  0  0  0  0  0  0  0999 V2000
   -6.9980    0.1660   -1.4610 C   0  0  0  0  0  0  0  0  0  0  0  0
   -5.6230    0.2130   -0.8980 C   0  0  0  0  0  0  0  0  0  0  0  0
   -5.3050    1.0950    0.0540 C   0  0  0  0  0  0  0  0  0  0  0  0
   -6.4400    1.9690    0.4590 C   0  0  0  0  0  0  0  0  0  0  0  0
   -7.5680    1.8370    0.0440 N   0  0  0  0  0  0  0  0  0  0  0  0
   -6.0800    3.0080    1.4800 C   0  0  0  0  0  0  0  0  0  0  0  0
   -4.8550    3.0400    1.8970 C   0  0  0  0  0  0  0  0  0  0  0  0
   -3.7780    2.1720    1.4810 C   0  0  0  0  0  0  0  0  0  0  0  0
   -3.9690    1.1800    0.5530 C   0  0  0  0  0  0  0  0  0  0  0  0
   -2.8400    0.3870    0.2010 C   0  0  0  0  0  0  0  0  0  0  0  0
   -1.7130    0.7090    0.8080 O   0  0  0  0  0  0  0  0  0  0  0  0
   -2.6330   -0.6810   -0.6590 N   0  0  0  0  0  0  0  0  0  0  0  0
   -1.3830   -1.3240   -0.8610 N   0  0  0  0  0  0  0  0  0  0  0  0
   -1.3540   -2.5970   -1.4230 C   0  0  0  0  0  0  0  0  0  0  0  0
   -2.4730   -3.1400   -1.7280 O   0  0  0  0  0  0  0  0  0  0  0  0
   -0.1240   -3.3800   -1.7010 C   0  0  1  0  0  0  0  0  0  0  0  0
    0.7300   -2.5280   -2.6260 C   0  0  0  0  0  0  0  0  0  0  0  0
    0.6640   -3.9080   -0.2060 S   0  0  0  0  0  0  0  0  0  0  0  0
    1.3740   -2.6650    0.8290 C   0  0  0  0  0  0  0  0  0  0  0  0
    2.6070   -2.0850    0.1810 C   0  0  0  0  0  0  0  0  0  0  0  0
    3.0210   -2.5910   -0.8740 O   0  0  0  0  0  0  0  0  0  0  0  0
    3.2820   -0.9900    0.7600 N   0  0  0  0  0  0  0  0  0  0  0  0
    4.4330   -0.3600    0.2460 C   0  0  0  0  0  0  0  0  0  0  0  0
    4.9010   -0.6060   -1.0040 C   0  0  0  0  0  0  0  0  0  0  0  0
    6.0280    0.0740   -1.4880 C   0  0  0  0  0  0  0  0  0  0  0  0
    6.6440    0.9920   -0.6710 C   0  0  0  0  0  0  0  0  0  0  0  0
    6.1770    1.2460    0.5920 C   0  0  0  0  0  0  0  0  0  0  0  0
    6.7960    2.1630    1.4240 C   0  0  0  0  0  0  0  0  0  0  0  0
    6.3550    2.4270    2.6890 C   0  0  0  0  0  0  0  0  0  0  0  0
    5.2450    1.7710    3.1950 C   0  0  0  0  0  0  0  0  0  0  0  0
    4.6070    0.8400    2.3640 C   0  0  0  0  0  0  0  0  0  0  0  0
    5.0590    0.5840    1.0980 C   0  0  0  0  0  0  0  0  0  0  0  0
  1  2  1  0
  2  3  2  3
  3  4  1  0
  3  9  1  0
  4  5  2  0
  4  6  1  0
  6  7  2  0
  7  8  1  0
  8  9  2  0
  9 10  1  0
 10 11  2  0
 10 12  1  0
 12 13  1  0
 13 14  1  0
 14 15  2  0
 14 16  1  0
 16 17  1  1
 16 18  1  0
 18 19  1  0
 19 20  1  0
 20 21  2  0
 20 22  1  0
 22 23  1  0
 23 24  2  0
 23 32  1  0
 24 25  1  0
 25 26  2  0
 26 27  1  0
 27 28  2  0
 27 32  1  0
 28 29  1  0
 29 30  2  0
 30 31  1  0
 31 32  2  0
M  END
