
     RDKit          3D

 32 35  0  0  0  0  0  0  0  0999 V2000
    5.3730    3.6620   -1.7300 C   0  0  0  0  0  0  0  0  0  0  0  0
    4.3800    2.6890   -1.2020 C   0  0  0  0  0  0  0  0  0  0  0  0
    3.7660    2.9420    0.0050 C   0  0  0  0  0  0  0  0  0  0  0  0
    2.8430    2.0630    0.5220 C   0  0  0  0  0  0  0  0  0  0  0  0
    2.2110    2.3770    1.8180 C   0  0  0  0  0  0  0  0  0  0  0  0
    2.5420    0.9180   -0.1910 C   0  0  0  0  0  0  0  0  0  0  0  0
    3.1340    0.6280   -1.4020 C   0  0  0  0  0  0  0  0  0  0  0  0
    2.8310   -0.5890   -2.1860 C   0  0  0  0  0  0  0  0  0  0  0  0
    1.8830   -1.4490   -1.5360 N   0  0  0  0  0  0  0  0  0  0  0  0
    0.4760   -1.1610   -1.5030 C   0  0  0  0  0  0  0  0  0  0  0  0
    0.1180   -0.1330   -2.0640 O   0  0  0  0  0  0  0  0  0  0  0  0
   -0.4570   -2.0640   -0.8300 C   0  0  0  0  0  0  0  0  0  0  0  0
   -0.0810   -3.2840   -0.2480 C   0  0  0  0  0  0  0  0  0  0  0  0
   -1.1740   -3.9160    0.2930 C   0  0  0  0  0  0  0  0  0  0  0  0
   -1.3310   -5.1200    0.9540 C   0  0  0  0  0  0  0  0  0  0  0  0
   -0.1520   -5.9790    1.1940 C   0  0  0  0  0  0  0  0  0  0  0  0
   -2.5610   -5.5420    1.3950 C   0  0  0  0  0  0  0  0  0  0  0  0
   -3.6440   -4.6990    1.1460 C   0  0  0  0  0  0  0  0  0  0  0  0
   -3.4780   -3.5030    0.4880 C   0  0  0  0  0  0  0  0  0  0  0  0
   -2.2360   -3.0730    0.0420 C   0  0  0  0  0  0  0  0  0  0  0  0
   -1.7770   -1.9780   -0.6270 N   0  0  0  0  0  0  0  0  0  0  0  0
   -2.6300   -0.9050   -1.0150 C   0  0  0  0  0  0  0  0  0  0  0  0
   -2.7640    0.2170   -0.0690 C   0  0  0  0  0  0  0  0  0  0  0  0
   -3.4100    0.1100    1.1450 C   0  0  0  0  0  0  0  0  0  0  0  0
   -3.5100    1.2010    1.9500 C   0  0  0  0  0  0  0  0  0  0  0  0
   -2.9740    2.4130    1.5670 C   0  0  0  0  0  0  0  0  0  0  0  0
   -2.3190    2.5840    0.3710 C   0  0  0  0  0  0  0  0  0  0  0  0
   -1.7470    3.8450   -0.0590 C   0  0  0  0  0  0  0  0  0  0  0  0
   -1.0870    3.8710   -1.3410 N   0  0  0  0  0  0  0  0  0  0  0  0
   -1.8060    4.9030    0.6410 N   0  0  0  0  0  0  0  0  0  0  0  0
   -2.2390    1.4390   -0.4260 C   0  0  0  0  0  0  0  0  0  0  0  0
    4.0530    1.5290   -1.8900 C   0  0  0  0  0  0  0  0  0  0  0  0
  1  2  1  0
  2  3  2  0
  2 32  1  0
  3  4  1  0
  4  5  1  0
  4  6  2  0
  6  7  1  0
  7  8  1  0
  7 32  2  0
  8  9  1  0
  9 10  1  0
 10 11  2  0
 10 12  1  0
 12 13  2  0
 12 21  1  0
 13 14  1  0
 14 15  2  0
 14 20  1  0
 15 16  1  0
 15 17  1  0
 17 18  2  0
 18 19  1  0
 19 20  2  0
 20 21  1  0
 21 22  1  0
 22 23  1  0
 23 24  2  0
 23 31  1  0
 24 25  1  0
 25 26  2  0
 26 27  1  0
 27 28  1  0
 27 31  2  0
 28 29  1  0
 28 30  2  0
M  CHG  1  30   1
M  END
