
     RDKit          3D

 17 17  0  0  0  0  0  0  0  0999 V2000
    5.1100    0.8310    1.8170 C   0  0  0  0  0  0  0  0  0  0  0  0
    3.8540    1.0930    1.2390 O   0  0  0  0  0  0  0  0  0  0  0  0
    3.0890    0.0050    0.8320 C   0  0  0  0  0  0  0  0  0  0  0  0
    3.4950   -1.1870    0.9690 O   0  0  0  0  0  0  0  0  0  0  0  0
    1.8160    0.1760    0.2420 N   0  0  0  0  0  0  0  0  0  0  0  0
    1.0100   -0.9060   -0.1840 C   0  0  0  0  0  0  0  0  0  0  0  0
   -0.1770   -0.9190   -0.7420 C   0  0  0  0  0  0  0  0  0  0  0  0
   -0.9300    0.3420   -1.0380 C   0  0  0  0  0  0  0  0  0  0  0  0
   -2.2550    0.3800   -0.3120 C   0  0  0  0  0  0  0  0  0  0  0  0
   -2.9640    1.6260   -0.6240 C   0  0  0  0  0  0  0  0  0  0  0  0
   -2.4400    2.4650   -1.3990 O   0  0  0  0  0  0  0  0  0  0  0  0
   -4.2390    1.9520   -0.0900 N   0  0  0  0  0  0  0  0  0  0  0  0
   -4.8720    3.0860   -0.3800 O   0  0  0  0  0  0  0  0  0  0  0  0
   -0.7060   -2.2150   -1.0610 C   0  0  0  0  0  0  0  0  0  0  0  0
   -1.5490   -2.5270   -1.9810 O   0  0  0  0  0  0  0  0  0  0  0  0
   -0.1850   -3.3090   -0.1900 C   0  0  0  0  0  0  0  0  0  0  0  0
    1.5240   -2.6370   -0.0040 S   0  0  0  0  0  0  0  0  0  0  0  0
  1  2  1  0
  2  3  1  0
  3  4  2  0
  3  5  1  0
  5  6  1  0
  6  7  2  0
  6 17  1  0
  7  8  1  0
  7 14  1  0
  8  9  1  0
  9 10  1  0
 10 11  2  0
 10 12  1  0
 12 13  1  0
 14 15  2  0
 14 16  1  0
 16 17  1  0
M  END
