
     RDKit          3D

 17 17  0  0  0  0  0  0  0  0999 V2000
    2.3660   -0.3400    1.1430 O   0  0  0  0  0  0  0  0  0  0  0  0
    2.6360    0.0880    0.0010 C   0  0  0  0  0  0  0  0  0  0  0  0
    1.5890    0.8340   -0.5420 N   0  0  0  0  0  0  0  0  0  0  0  0
    0.3840    0.9990    0.1200 C   0  0  0  0  0  0  0  0  0  0  0  0
   -0.3010    1.9520   -0.2220 N   0  0  0  0  0  0  0  0  0  0  0  0
   -1.4960    2.1250    0.4650 C   0  0  0  0  0  0  0  0  0  0  0  0
   -1.9410    3.1350    1.0470 O   0  0  0  0  0  0  0  0  0  0  0  0
   -2.2680    0.8220    0.4340 C   0  0  2  0  0  0  0  0  0  0  0  0
   -3.3650    0.7800    1.4160 C   0  0  0  0  0  0  0  0  0  0  0  0
   -4.0820   -0.5350    1.3270 C   0  0  0  0  0  0  0  0  0  0  0  0
   -4.6760   -0.7550   -0.0460 C   0  0  0  0  0  0  0  0  0  0  0  0
   -5.5920    0.2710   -0.3280 O   0  0  0  0  0  0  0  0  0  0  0  0
   -0.7490   -0.0380    1.1020 S   0  0  0  0  0  0  0  0  0  0  0  0
    3.8030   -0.1010   -0.7000 O   0  0  0  0  0  0  0  0  0  0  0  0
    4.7880   -0.8440   -0.0390 C   0  0  0  0  0  0  0  0  0  0  0  0
    5.9610   -0.8490   -1.0430 C   0  0  0  0  0  0  0  0  0  0  0  0
    5.5620   -1.4430   -2.2220 O   0  0  0  0  0  0  0  0  0  0  0  0
  1  2  2  0
  2  3  1  0
  2 14  1  0
  3  4  1  0
  4  5  2  0
  4 13  1  0
  5  6  1  0
  6  7  2  0
  6  8  1  0
  8  9  1  1
  8 13  1  0
  9 10  1  0
 10 11  1  0
 11 12  1  0
 14 15  1  0
 15 16  1  0
 16 17  1  0
M  END
