
     RDKit          3D

 20 21  0  0  0  0  0  0  0  0999 V2000
    0.9380   -0.1620    1.1680 C   0  0  0  0  0  0  0  0  0  0  0  0
    1.2040   -0.1770   -0.2990 C   0  0  1  0  0  0  0  0  0  0  0  0
    0.0800   -0.7670   -1.1280 C   0  0  0  0  0  0  0  0  0  0  0  0
   -1.1710   -0.0990   -1.0140 N   0  0  0  0  0  0  0  0  0  0  0  0
   -1.5570    0.9530   -1.7550 C   0  0  0  0  0  0  0  0  0  0  0  0
   -2.7700    1.3500   -1.3980 N   0  0  0  0  0  0  0  0  0  0  0  0
   -3.2000    0.5620   -0.4160 C   0  0  0  0  0  0  0  0  0  0  0  0
   -4.3600    0.4910    0.3340 C   0  0  0  0  0  0  0  0  0  0  0  0
   -5.4010    1.4440    0.0740 N   0  0  0  0  0  0  0  0  0  0  0  0
   -4.5360   -0.4360    1.2870 N   0  0  0  0  0  0  0  0  0  0  0  0
   -3.5470   -1.3160    1.5100 C   0  0  0  0  0  0  0  0  0  0  0  0
   -3.6700   -2.3240    2.5060 N   0  0  0  0  0  0  0  0  0  0  0  0
   -2.4210   -1.2630    0.7970 N   0  0  0  0  0  0  0  0  0  0  0  0
   -2.1790   -0.3600   -0.1740 C   0  0  0  0  0  0  0  0  0  0  0  0
    1.6250    1.0400   -0.7720 O   0  0  0  0  0  0  0  0  0  0  0  0
    2.8800    1.0090   -1.3450 C   0  0  0  0  0  0  0  0  0  0  0  0
    4.0950    0.5130   -0.2240 P   0  0  0  0  0  0  0  0  0  0  0  0
    4.8830   -0.4570   -1.1070 O   0  0  0  0  0  0  0  0  0  0  0  0
    5.5490    1.4480   -0.1710 O   0  0  0  0  0  0  0  0  0  0  0  0
    3.8380   -0.5450    0.9710 O   0  0  0  0  0  0  0  0  0  0  0  0
  2  1  1  1
  2  3  1  0
  2 15  1  0
  3  4  1  0
  4  5  1  0
  4 14  1  0
  5  6  2  0
  6  7  1  0
  7  8  2  0
  7 14  1  0
  8  9  1  0
  8 10  1  0
 10 11  2  0
 11 12  1  0
 11 13  1  0
 13 14  2  0
 15 16  1  0
 16 17  1  0
 17 18  1  0
 17 19  1  0
 17 20  1  0
M  END
