
     RDKit          3D

 15 16  0  0  0  0  0  0  0  0999 V2000
   -3.1040   -1.5590   -1.2130 O   0  0  0  0  0  0  0  0  0  0  0  0
   -2.8290   -0.3520   -0.7080 C   0  0  0  0  0  0  0  0  0  0  0  0
   -3.8200    0.5550   -0.4810 O   0  0  0  0  0  0  0  0  0  0  0  0
   -3.0540    1.6370    0.0890 C   0  0  0  0  0  0  0  0  0  0  0  0
   -1.8100    1.5600   -0.5130 O   0  0  0  0  0  0  0  0  0  0  0  0
   -1.6070    0.1450   -0.4130 C   0  0  1  0  0  0  0  0  0  0  0  0
   -1.0450   -0.1080    0.9610 C   0  0  0  0  0  0  0  0  0  0  0  0
    0.3170    0.1700    0.7490 O   0  0  0  0  0  0  0  0  0  0  0  0
    0.4820   -0.6420   -0.4230 C   0  0  2  0  0  0  0  0  0  0  0  0
    1.8680   -0.2710   -0.9590 C   0  0  0  0  0  0  0  0  0  0  0  0
    2.5150    0.1880    0.2290 O   0  0  0  0  0  0  0  0  0  0  0  0
    2.9030   -0.7780    0.9310 O   0  0  0  0  0  0  0  0  0  0  0  0
    4.1140   -0.9250    1.2690 O   0  0  0  0  0  0  0  0  0  0  0  0
    4.9370   -0.4200    0.3050 O   0  0  0  0  0  0  0  0  0  0  0  0
   -0.5420   -0.2660   -1.2460 O   0  0  0  0  0  0  0  0  0  0  0  0
  1  2  2  0
  2  3  1  0
  2  6  1  0
  3  4  1  0
  4  5  1  0
  5  6  1  0
  6  7  1  1
  6 15  1  0
  7  8  1  0
  8  9  1  0
  9 10  1  6
  9 15  1  0
 10 11  1  0
 11 12  1  0
 12 13  1  0
 13 14  1  0
M  END
