
     RDKit          3D

 23 23  0  0  0  0  0  0  0  0999 V2000
   -3.6740   -1.7950    0.9770 O   0  0  0  0  0  0  0  0  0  0  0  0
   -4.7870   -1.2390    1.0390 C   0  0  0  0  0  0  0  0  0  0  0  0
   -5.9080   -1.8450    1.5770 O   0  0  0  0  0  0  0  0  0  0  0  0
   -4.8660    0.0460    0.5330 O   0  0  0  0  0  0  0  0  0  0  0  0
   -3.7770    0.7130   -0.0220 C   0  0  2  0  0  0  0  0  0  0  0  0
   -4.2660    1.9840   -0.4160 O   0  0  0  0  0  0  0  0  0  0  0  0
   -3.2150    0.0720   -1.2480 C   0  0  0  0  0  0  0  0  0  0  0  0
   -2.2740    0.9330   -1.8290 O   0  0  0  0  0  0  0  0  0  0  0  0
   -1.5610    1.6300   -0.8630 C   0  0  0  0  0  0  0  0  0  0  0  0
   -1.5120    0.9300    0.4460 C   0  0  2  0  0  0  0  0  0  0  0  0
   -0.8180    1.7510    1.3630 O   0  0  0  0  0  0  0  0  0  0  0  0
   -0.9960   -0.3260    0.4740 O   0  0  0  0  0  0  0  0  0  0  0  0
    0.3110   -0.5140    0.1690 C   0  0  0  0  0  0  0  0  0  0  0  0
    0.5700   -0.0850   -1.1260 O   0  0  0  0  0  0  0  0  0  0  0  0
    2.2640   -0.3350   -1.5020 P   0  0  0  0  0  0  0  0  0  0  0  0
    2.6690   -2.0100   -1.5020 O   0  0  0  0  0  0  0  0  0  0  0  0
    3.1650    0.4570   -0.2510 O   0  0  0  0  0  0  0  0  0  0  0  0
    4.2730   -0.5880    0.5330 P   0  0  0  0  0  0  0  0  0  0  0  0
    4.4480   -2.1060   -0.2620 O   0  0  0  0  0  0  0  0  0  0  0  0
    6.2130    0.4700    0.6850 P   0  0  0  0  0  0  0  0  0  0  0  0
    6.2400    1.8640   -0.3470 O   0  0  0  0  0  0  0  0  0  0  0  0
    7.5010   -0.6010    0.2960 O   0  0  0  0  0  0  0  0  0  0  0  0
   -2.8120    0.8540    0.9730 O   0  0  0  0  0  0  0  0  0  0  0  0
  1  2  2  0
  2  3  1  0
  2  4  1  0
  4  5  1  0
  5  6  1  6
  5  7  1  0
  5 23  1  0
  7  8  1  0
  8  9  1  0
  9 10  1  0
 10 11  1  1
 10 12  1  0
 10 23  1  0
 12 13  1  0
 13 14  1  0
 14 15  1  0
 15 16  1  0
 15 17  1  0
 17 18  1  0
 18 19  1  0
 18 20  1  0
 20 21  1  0
 20 22  1  0
M  END
