
     RDKit          3D

 24 24  0  0  0  0  0  0  0  0999 V2000
    5.9080    1.8260    0.6430 C   0  0  0  0  0  0  0  0  0  0  0  0
    5.0800    0.7330    0.3030 O   0  0  0  0  0  0  0  0  0  0  0  0
    3.7110    0.9430    0.1380 C   0  0  0  0  0  0  0  0  0  0  0  0
    3.2400    2.0910    0.2930 O   0  0  0  0  0  0  0  0  0  0  0  0
    2.8400   -0.0760   -0.1940 O   0  0  0  0  0  0  0  0  0  0  0  0
    1.4760    0.1060   -0.3640 C   0  0  0  0  0  0  0  0  0  0  0  0
    1.0090    1.2580   -0.2070 O   0  0  0  0  0  0  0  0  0  0  0  0
    0.6540   -1.0570   -0.7160 C   0  0  2  0  0  0  0  0  0  0  0  0
    1.3900   -2.2120   -0.8330 O   0  0  0  0  0  0  0  0  0  0  0  0
    2.0130   -2.5330    0.2800 O   0  0  0  0  0  0  0  0  0  0  0  0
    1.2130   -2.7430    1.2820 O   0  0  0  0  0  0  0  0  0  0  0  0
   -0.0150   -0.7770   -2.0390 C   0  0  0  0  0  0  0  0  0  0  0  0
   -1.3000   -0.4580   -1.7120 O   0  0  0  0  0  0  0  0  0  0  0  0
   -1.5580   -0.8880   -0.4270 C   0  0  2  0  0  0  0  0  0  0  0  0
   -2.7250   -2.3510   -0.5750 P   0  0  0  0  0  0  0  0  0  0  0  0
   -2.2710   -3.2050   -2.0350 O   0  0  0  0  0  0  0  0  0  0  0  0
   -4.3320   -1.7200   -0.8640 O   0  0  0  0  0  0  0  0  0  0  0  0
   -2.3570    0.5140    0.4690 P   0  0  0  0  0  0  0  0  0  0  0  0
   -3.3870    1.3480   -0.6480 O   0  0  0  0  0  0  0  0  0  0  0  0
   -3.1930    0.0270    1.8850 O   0  0  0  0  0  0  0  0  0  0  0  0
   -3.9800    1.4540    2.5290 P   0  0  0  0  0  0  0  0  0  0  0  0
   -3.0960    2.0960    3.8690 O   0  0  0  0  0  0  0  0  0  0  0  0
   -4.0950    2.6850    1.2830 O   0  0  0  0  0  0  0  0  0  0  0  0
   -0.3850   -1.2340    0.1760 O   0  0  0  0  0  0  0  0  0  0  0  0
  1  2  1  0
  2  3  1  0
  3  4  2  0
  3  5  1  0
  5  6  1  0
  6  7  2  0
  6  8  1  0
  8  9  1  6
  8 12  1  0
  8 24  1  0
  9 10  1  0
 10 11  1  0
 12 13  1  0
 13 14  1  0
 14 15  1  6
 14 18  1  0
 14 24  1  0
 15 16  1  0
 15 17  1  0
 18 19  1  0
 18 20  1  0
 20 21  1  0
 21 22  1  0
 21 23  1  0
M  END
