
     RDKit          3D

 24 24  0  0  0  0  0  0  0  0999 V2000
   -0.4330   -6.7860    0.5710 O   0  0  0  0  0  0  0  0  0  0  0  0
   -0.8020   -5.5290   -0.2690 P   0  0  0  0  0  0  0  0  0  0  0  0
   -1.1890   -4.0190    0.4870 O   0  0  0  0  0  0  0  0  0  0  0  0
   -0.2570   -3.0490    0.1320 C   0  0  1  0  0  0  0  0  0  0  0  0
   -0.8600   -1.8970   -0.3710 O   0  0  0  0  0  0  0  0  0  0  0  0
    0.0130   -0.8670   -0.1220 C   0  0  2  0  0  0  0  0  0  0  0  0
   -0.7270    0.3520    0.3210 C   0  0  0  0  0  0  0  0  0  0  0  0
   -1.6550    0.7880   -0.6840 O   0  0  0  0  0  0  0  0  0  0  0  0
   -2.4530    1.9060   -0.4890 C   0  0  0  0  0  0  0  0  0  0  0  0
   -2.3340    2.5160    0.5910 O   0  0  0  0  0  0  0  0  0  0  0  0
   -3.3610    2.3510   -1.4460 O   0  0  0  0  0  0  0  0  0  0  0  0
   -4.1630    3.4660   -1.2620 C   0  0  0  0  0  0  0  0  0  0  0  0
   -4.0440    4.0850   -0.1700 O   0  0  0  0  0  0  0  0  0  0  0  0
   -5.0710    3.9210   -2.2050 O   0  0  0  0  0  0  0  0  0  0  0  0
    0.7210   -0.6150   -1.2950 O   0  0  0  0  0  0  0  0  0  0  0  0
    1.8550    0.6740   -1.0880 P   0  0  0  0  0  0  0  0  0  0  0  0
    3.2760    0.4170   -2.0250 O   0  0  0  0  0  0  0  0  0  0  0  0
    2.3080    0.7300    0.5860 O   0  0  0  0  0  0  0  0  0  0  0  0
    3.9200    1.3250    0.7240 P   0  0  0  0  0  0  0  0  0  0  0  0
    3.9310    2.6470    1.8740 O   0  0  0  0  0  0  0  0  0  0  0  0
    4.4350    1.9550   -0.7880 O   0  0  0  0  0  0  0  0  0  0  0  0
    0.8610   -1.2550    0.9080 O   0  0  0  0  0  0  0  0  0  0  0  0
    0.4410   -2.4770    1.3730 C   0  0  1  0  0  0  0  0  0  0  0  0
   -0.5290   -2.2420    2.3750 O   0  0  0  0  0  0  0  0  0  0  0  0
  1  2  2  0
  2  3  1  0
  4  3  1  1
  4  5  1  0
  4 23  1  0
  5  6  1  0
  6  7  1  1
  6 15  1  0
  6 22  1  0
  7  8  1  0
  8  9  1  0
  9 10  2  0
  9 11  1  0
 11 12  1  0
 12 13  2  0
 12 14  1  0
 15 16  1  0
 16 17  1  0
 16 18  1  0
 18 19  1  0
 19 20  1  0
 19 21  1  0
 22 23  1  0
 23 24  1  1
M  END
