
     RDKit          3D

 24 24  0  0  0  0  0  0  0  0999 V2000
   -4.4500   -1.4110    0.6110 O   0  0  0  0  0  0  0  0  0  0  0  0
   -5.3750   -0.5920    0.4520 C   0  0  0  0  0  0  0  0  0  0  0  0
   -6.6770   -1.0790    0.4210 O   0  0  0  0  0  0  0  0  0  0  0  0
   -5.0540    0.7410    0.3180 O   0  0  0  0  0  0  0  0  0  0  0  0
   -3.7840    1.1610    0.3540 O   0  0  0  0  0  0  0  0  0  0  0  0
   -3.1520    0.9580   -1.2710 P   0  0  0  0  0  0  0  0  0  0  0  0
   -3.4790   -0.6620   -1.8440 O   0  0  0  0  0  0  0  0  0  0  0  0
   -1.4120    1.1560   -1.2580 O   0  0  0  0  0  0  0  0  0  0  0  0
   -0.9650    0.6030   -0.0630 C   0  0  0  0  0  0  0  0  0  0  0  0
    0.5390    0.7060    0.0830 C   0  0  1  0  0  0  0  0  0  0  0  0
    0.9720    2.1430    0.0010 C   0  0  0  0  0  0  0  0  0  0  0  0
    0.3340    2.8580    1.0110 O   0  0  0  0  0  0  0  0  0  0  0  0
    0.8300    4.5120    0.9200 P   0  0  0  0  0  0  0  0  0  0  0  0
    2.5600    4.5900    0.9150 O   0  0  0  0  0  0  0  0  0  0  0  0
    0.2420    5.3050   -0.4910 O   0  0  0  0  0  0  0  0  0  0  0  0
    0.8620    0.1230    1.3110 O   0  0  0  0  0  0  0  0  0  0  0  0
    0.5020   -1.1230    1.0720 O   0  0  0  0  0  0  0  0  0  0  0  0
    1.1150   -1.3570   -0.1680 C   0  0  2  0  0  0  0  0  0  0  0  0
    2.4730   -1.9530    0.1320 C   0  0  0  0  0  0  0  0  0  0  0  0
    2.2200   -3.1460    0.8470 O   0  0  0  0  0  0  0  0  0  0  0  0
    3.7230   -3.8840    1.2250 P   0  0  0  0  0  0  0  0  0  0  0  0
    3.9580   -5.3350    0.2750 O   0  0  0  0  0  0  0  0  0  0  0  0
    5.0420   -2.7990    1.0550 O   0  0  0  0  0  0  0  0  0  0  0  0
    1.2130   -0.1190   -0.7960 O   0  0  0  0  0  0  0  0  0  0  0  0
  1  2  2  0
  2  3  1  0
  2  4  1  0
  4  5  1  0
  5  6  1  0
  6  7  1  0
  6  8  1  0
  8  9  1  0
 10  9  1  6
 10 11  1  0
 10 16  1  0
 10 24  1  0
 11 12  1  0
 12 13  1  0
 13 14  1  0
 13 15  1  0
 16 17  1  0
 17 18  1  0
 18 19  1  1
 18 24  1  0
 19 20  1  0
 20 21  1  0
 21 22  1  0
 21 23  1  0
M  END
