
     RDKit          3D

  9  8  0  0  0  0  0  0  0  0999 V2000
    2.4810    1.5000    0.0650 O   0  0  0  0  0  0  0  0  0  0  0  0
    2.2510    0.2850    0.2400 C   0  0  0  0  0  0  0  0  0  0  0  0
    3.3130   -0.5440    0.6020 O   0  0  0  0  0  0  0  0  0  0  0  0
    0.8970   -0.2370    0.0650 C   0  0  0  0  0  0  0  0  0  0  0  0
    0.0580    0.7840   -0.2850 O   0  0  0  0  0  0  0  0  0  0  0  0
   -1.4740    0.0640   -0.4540 P   0  0  0  0  0  0  0  0  0  0  0  0
   -1.5730   -1.4730   -0.9020 O   0  0  0  0  0  0  0  0  0  0  0  0
   -2.8090    1.0380   -0.4290 O   0  0  0  0  0  0  0  0  0  0  0  0
   -1.4970   -0.1340    1.0530 O   0  0  0  0  0  0  0  0  0  0  0  0
  1  2  2  0
  2  3  1  0
  2  4  1  0
  4  5  1  0
  5  6  1  0
  6  7  1  0
  6  8  1  0
  6  9  1  0
M  END
