
     RDKit          3D

 23 25  0  0  0  0  0  0  0  0999 V2000
    2.1200    0.8050    1.2730 O   0  0  0  0  0  0  0  0  0  0  0  0
    1.8360   -0.1250    0.5300 C   0  0  0  0  0  0  0  0  0  0  0  0
    2.8910   -1.0290    0.0610 C   0  0  0  0  0  0  0  0  0  0  0  0
    4.2240   -0.5020    0.1370 N   0  0  0  0  0  0  0  0  0  0  0  0
    5.1630   -0.5690    1.0770 C   0  0  0  0  0  0  0  0  0  0  0  0
    5.0690   -1.1750    2.1900 O   0  0  0  0  0  0  0  0  0  0  0  0
    6.2640    0.1010    0.6890 N   0  0  0  0  0  0  0  0  0  0  0  0
    6.0400    0.6110   -0.5180 N   0  0  0  0  0  0  0  0  0  0  0  0
    4.8110    0.2520   -0.8600 C   0  0  0  0  0  0  0  0  0  0  0  0
    4.2300    0.5440   -1.9460 O   0  0  0  0  0  0  0  0  0  0  0  0
    0.4970   -0.3450    0.1010 N   0  0  0  0  0  0  0  0  0  0  0  0
    0.1270   -1.3690   -0.7110 C   0  0  0  0  0  0  0  0  0  0  0  0
   -1.1680   -1.2300   -0.9360 N   0  0  0  0  0  0  0  0  0  0  0  0
   -1.6220   -0.1170   -0.2680 C   0  0  0  0  0  0  0  0  0  0  0  0
   -3.0340    0.2740   -0.3860 C   0  0  2  0  0  0  0  0  0  0  0  0
   -3.1020    1.0260   -1.6030 O   0  0  0  0  0  0  0  0  0  0  0  0
   -3.4840    1.1940    0.6900 C   0  0  0  0  0  0  0  0  0  0  0  0
   -4.8940    1.6960    0.4520 C   0  0  0  0  0  0  0  0  0  0  0  0
   -5.8550    0.6960    0.6160 O   0  0  0  0  0  0  0  0  0  0  0  0
   -5.4870   -0.5820   -0.5030 P   0  0  0  0  0  0  0  0  0  0  0  0
   -6.2440   -2.0630    0.0520 O   0  0  0  0  0  0  0  0  0  0  0  0
   -3.8000   -0.8620   -0.5170 O   0  0  0  0  0  0  0  0  0  0  0  0
   -0.5750    0.4040    0.3590 N   0  0  0  0  0  0  0  0  0  0  0  0
  1  2  2  0
  2  3  1  0
  2 11  1  0
  3  4  1  0
  4  5  1  0
  4  9  1  0
  5  6  2  0
  5  7  1  0
  7  8  1  0
  8  9  1  0
  9 10  2  0
 11 12  1  0
 11 23  1  0
 12 13  2  0
 13 14  1  0
 14 15  1  0
 14 23  2  0
 15 16  1  6
 15 17  1  0
 15 22  1  0
 17 18  1  0
 18 19  1  0
 19 20  1  0
 20 21  1  0
 20 22  1  0
M  END
