
     RDKit          3D

 22 23  0  0  0  0  0  0  0  0999 V2000
   -0.5170    2.3140   -2.6250 N   0  0  0  0  0  0  0  0  0  0  0  0
   -0.1940    1.6910   -1.5110 C   0  0  0  0  0  0  0  0  0  0  0  0
    0.9700    2.2780   -1.0730 N   0  0  0  0  0  0  0  0  0  0  0  0
    1.9110    1.5790   -0.3250 C   0  0  0  0  0  0  0  0  0  0  0  0
    1.6380    0.3770   -0.1260 O   0  0  0  0  0  0  0  0  0  0  0  0
    3.0780    2.2510    0.1390 C   0  0  0  0  0  0  0  0  0  0  0  0
    3.9390    1.5510    0.8150 C   0  0  0  0  0  0  0  0  0  0  0  0
    3.7580    0.1670    1.1020 N   0  0  0  0  0  0  0  0  0  0  0  0
    4.8350   -1.0390    0.3230 P   0  0  0  0  0  0  0  0  0  0  0  0
    4.9590   -2.4750    1.3040 O   0  0  0  0  0  0  0  0  0  0  0  0
    6.4030   -0.2740    0.1530 O   0  0  0  0  0  0  0  0  0  0  0  0
   -1.2160    0.8750   -0.9780 N   0  0  0  0  0  0  0  0  0  0  0  0
   -1.7710   -0.2870   -1.4800 C   0  0  0  0  0  0  0  0  0  0  0  0
   -1.2530   -0.9910   -2.4290 O   0  0  0  0  0  0  0  0  0  0  0  0
   -3.0030   -0.5420   -0.7530 C   0  0  1  0  0  0  0  0  0  0  0  0
   -3.0010   -1.9320   -0.1340 C   0  0  2  0  0  0  0  0  0  0  0  0
   -3.3330   -2.8750   -1.0740 O   0  0  0  0  0  0  0  0  0  0  0  0
   -3.9850   -1.7670    0.9810 C   0  0  0  0  0  0  0  0  0  0  0  0
   -3.8530   -0.3500    1.4340 C   0  0  0  0  0  0  0  0  0  0  0  0
   -2.9000    0.2330    0.4730 N   0  0  0  0  0  0  0  0  0  0  0  0
   -1.9390    1.1930    0.2530 C   0  0  0  0  0  0  0  0  0  0  0  0
   -1.6700    2.2150    0.9630 O   0  0  0  0  0  0  0  0  0  0  0  0
  1  2  2  0
  2  3  1  0
  2 12  1  0
  3  4  1  0
  4  5  2  0
  4  6  1  0
  6  7  2  3
  7  8  1  0
  8  9  1  0
  9 10  1  0
  9 11  1  0
 12 13  1  0
 12 21  1  0
 13 14  2  0
 15 13  1  6
 15 16  1  0
 15 20  1  0
 16 17  1  6
 16 18  1  0
 18 19  1  0
 19 20  1  0
 20 21  1  0
 21 22  2  0
M  END
