
     RDKit          3D

 23 24  0  0  0  0  0  0  0  0999 V2000
    1.2160   -2.0950    0.0930 C   0  0  0  0  0  0  0  0  0  0  0  0
    0.2390   -1.1350   -0.2900 N   0  0  0  0  0  0  0  0  0  0  0  0
   -0.7860   -1.5730   -1.1380 C   0  0  0  0  0  0  0  0  0  0  0  0
   -2.0020   -2.1230   -0.4750 C   0  0  0  0  0  0  0  0  0  0  0  0
   -2.7980   -2.8440   -1.1930 O   0  0  0  0  0  0  0  0  0  0  0  0
   -2.4020   -1.9400    0.9060 C   0  0  0  0  0  0  0  0  0  0  0  0
   -2.5250   -3.0670    1.5600 O   0  0  0  0  0  0  0  0  0  0  0  0
   -2.6500   -0.7550    1.5520 O   0  0  0  0  0  0  0  0  0  0  0  0
   -3.6520    0.1860    1.3820 C   0  0  0  0  0  0  0  0  0  0  0  0
   -3.0850    1.3670    0.6570 C   0  0  0  0  0  0  0  0  0  0  0  0
   -3.3330    2.6760    0.5390 N   0  0  0  0  0  0  0  0  0  0  0  0
   -2.4440    3.2100   -0.2850 N   0  0  0  0  0  0  0  0  0  0  0  0
   -1.6250    2.2300   -0.6940 C   0  0  0  0  0  0  0  0  0  0  0  0
   -2.0370    1.1150   -0.1040 N   0  0  0  0  0  0  0  0  0  0  0  0
   -0.4770    2.1440   -1.5740 N   0  0  0  0  0  0  0  0  0  0  0  0
    0.3860    0.9890   -1.5270 C   0  0  0  0  0  0  0  0  0  0  0  0
    0.9500    0.6250   -2.5890 O   0  0  0  0  0  0  0  0  0  0  0  0
    0.6450    0.2130   -0.2970 C   0  0  2  0  0  0  0  0  0  0  0  0
    2.1490    0.3460   -0.0470 C   0  0  0  0  0  0  0  0  0  0  0  0
    2.4990   -0.1910    1.1810 O   0  0  0  0  0  0  0  0  0  0  0  0
    4.2140    0.0110    1.3630 P   0  0  0  0  0  0  0  0  0  0  0  0
    4.5580    1.6910    1.0100 O   0  0  0  0  0  0  0  0  0  0  0  0
    4.9810   -0.9270    0.1220 O   0  0  0  0  0  0  0  0  0  0  0  0
  1  2  1  0
  2  3  1  0
  2 18  1  0
  3  4  1  0
  4  5  2  0
  4  6  1  0
  6  7  2  0
  6  8  1  0
  8  9  1  0
  9 10  1  0
 10 11  2  0
 10 14  1  0
 11 12  1  0
 12 13  1  0
 13 14  2  0
 13 15  1  0
 15 16  1  0
 16 17  2  0
 16 18  1  0
 18 19  1  6
 19 20  1  0
 20 21  1  0
 21 22  1  0
 21 23  1  0
M  END
