
     RDKit          3D

 23 25  0  0  0  0  0  0  0  0999 V2000
    2.5470    0.0880    2.4360 O   0  0  0  0  0  0  0  0  0  0  0  0
    3.4420   -0.1260    1.6040 C   0  0  0  0  0  0  0  0  0  0  0  0
    4.8790   -0.1250    1.9990 C   0  0  0  0  0  0  0  0  0  0  0  0
    5.6030   -0.3100    0.7940 O   0  0  0  0  0  0  0  0  0  0  0  0
    6.7410    0.9110    0.5870 P   0  0  0  0  0  0  0  0  0  0  0  0
    7.0690    1.1570   -1.0680 O   0  0  0  0  0  0  0  0  0  0  0  0
    7.8610    1.2860    1.7240 O   0  0  0  0  0  0  0  0  0  0  0  0
    3.1080   -0.3770    0.2210 N   0  0  0  0  0  0  0  0  0  0  0  0
    1.7000   -0.3890   -0.1120 C   0  0  0  0  0  0  0  0  0  0  0  0
    0.8200   -1.0330    0.7440 N   0  0  0  0  0  0  0  0  0  0  0  0
   -0.3400   -0.8450    0.2290 N   0  0  0  0  0  0  0  0  0  0  0  0
   -0.2320   -0.0770   -0.9430 C   0  0  0  0  0  0  0  0  0  0  0  0
   -1.3310    0.3600   -1.7850 C   0  0  0  0  0  0  0  0  0  0  0  0
   -2.6090    0.5470   -1.0790 N   0  0  0  0  0  0  0  0  0  0  0  0
   -2.7970    0.4610    0.2760 C   0  0  0  0  0  0  0  0  0  0  0  0
   -3.5670   -0.8540    0.0310 C   0  0  1  0  0  0  0  0  0  0  0  0
   -4.7640   -1.0200    0.6220 O   0  0  0  0  0  0  0  0  0  0  0  0
   -5.7170   -0.0600    0.4530 C   0  0  0  0  0  0  0  0  0  0  0  0
   -5.9820    0.2350   -0.9290 N   0  0  0  0  0  0  0  0  0  0  0  0
   -4.8690    0.1980   -1.8150 C   0  0  0  0  0  0  0  0  0  0  0  0
   -4.9910    0.6960   -2.9360 O   0  0  0  0  0  0  0  0  0  0  0  0
   -3.6260   -0.4160   -1.4070 C   0  0  1  0  0  0  0  0  0  0  0  0
    1.0290    0.1700   -1.1080 O   0  0  0  0  0  0  0  0  0  0  0  0
  1  2  2  0
  2  3  1  0
  2  8  1  0
  3  4  1  0
  4  5  1  0
  5  6  1  0
  5  7  1  0
  8  9  1  0
  9 10  2  0
  9 23  1  0
 10 11  1  0
 11 12  2  0
 12 13  1  0
 12 23  1  0
 13 14  1  0
 14 15  1  0
 22 14  1  1
 16 15  1  1
 16 17  1  0
 16 22  1  0
 17 18  1  0
 18 19  1  0
 19 20  1  0
 20 21  2  0
 20 22  1  0
M  END
