
     RDKit          3D

 23 25  0  0  0  0  0  0  0  0999 V2000
    4.6820   -0.9340    1.2950 N   0  0  0  0  0  0  0  0  0  0  0  0
    3.9510   -0.5740    0.4010 C   0  0  0  0  0  0  0  0  0  0  0  0
    2.8460   -1.3620    0.1080 N   0  0  0  0  0  0  0  0  0  0  0  0
    1.5680   -0.9240   -0.2440 C   0  0  0  0  0  0  0  0  0  0  0  0
    1.5170    0.3410   -0.1740 O   0  0  0  0  0  0  0  0  0  0  0  0
    0.4830   -1.6440   -0.6080 O   0  0  0  0  0  0  0  0  0  0  0  0
   -0.6910   -0.9100   -0.8880 C   0  0  0  0  0  0  0  0  0  0  0  0
   -0.8050   -0.4180   -2.1700 C   0  0  0  0  0  0  0  0  0  0  0  0
   -1.9320    0.3270   -2.5380 C   0  0  0  0  0  0  0  0  0  0  0  0
   -2.8870    0.5290   -1.5660 C   0  0  0  0  0  0  0  0  0  0  0  0
   -2.7720    0.0370   -0.2870 C   0  0  0  0  0  0  0  0  0  0  0  0
   -1.6560   -0.6990    0.0690 C   0  0  0  0  0  0  0  0  0  0  0  0
   -3.9260    0.4370    0.4160 N   0  0  0  0  0  0  0  0  0  0  0  0
   -4.7680    0.2310    1.5630 C   0  0  0  0  0  0  0  0  0  0  0  0
   -4.4370   -0.3780    2.5820 O   0  0  0  0  0  0  0  0  0  0  0  0
   -6.0430    0.9100    1.1920 C   0  0  0  0  0  0  0  0  0  0  0  0
   -5.8430    1.3790   -0.1010 O   0  0  0  0  0  0  0  0  0  0  0  0
   -4.5150    1.4730   -0.2900 N   0  0  0  0  0  0  0  0  0  0  0  0
   -4.1200    1.2160   -1.5850 O   0  0  0  0  0  0  0  0  0  0  0  0
    4.6490    0.3550   -0.5130 N   0  0  0  0  0  0  0  0  0  0  0  0
    5.4970    1.7930    0.0590 P   0  0  0  0  0  0  0  0  0  0  0  0
    4.6760    2.4880    1.4200 O   0  0  0  0  0  0  0  0  0  0  0  0
    7.1040    1.3580    0.5570 O   0  0  0  0  0  0  0  0  0  0  0  0
  1  2  2  0
  2  3  1  0
  2 20  1  0
  3  4  1  0
  4  5  2  0
  4  6  1  0
  6  7  1  0
  7  8  2  0
  7 12  1  0
  8  9  1  0
  9 10  2  0
 10 11  1  0
 10 19  1  0
 11 12  2  0
 11 13  1  0
 13 14  1  0
 13 18  1  0
 14 15  2  0
 14 16  1  0
 16 17  1  0
 17 18  1  0
 18 19  1  0
 20 21  1  0
 21 22  1  0
 21 23  1  0
M  END
