
     RDKit          3D

 16 16  0  0  0  0  0  0  0  0999 V2000
    5.7400    0.8120   -0.0620 O   0  0  0  0  0  0  0  0  0  0  0  0
    4.7970    0.0650    0.4640 O   0  0  0  0  0  0  0  0  0  0  0  0
    3.9210   -0.2770   -0.5640 C   0  0  0  0  0  0  0  0  0  0  0  0
    3.0110   -1.4060   -0.1560 C   0  0  0  0  0  0  0  0  0  0  0  0
    2.1460   -0.9210    0.8100 O   0  0  0  0  0  0  0  0  0  0  0  0
    0.9540   -1.4540    0.7630 O   0  0  0  0  0  0  0  0  0  0  0  0
    0.2010   -0.9860   -0.3060 C   0  0  0  0  0  0  0  0  0  0  0  0
   -0.6870    0.1550    0.1320 C   0  0  0  0  0  0  0  0  0  0  0  0
   -2.0990   -0.2160   -0.2010 C   0  0  1  0  0  0  0  0  0  0  0  0
   -2.1650   -0.6860   -2.0850 Br  0  0  0  0  0  0  0  0  0  0  0  0
   -2.5970   -1.2820    0.5000 O   0  0  0  0  0  0  0  0  0  0  0  0
   -3.7900   -1.0440    0.9210 O   0  0  0  0  0  0  0  0  0  0  0  0
   -4.3250    0.0430    0.2710 C   0  0  0  0  0  0  0  0  0  0  0  0
   -3.0840    0.9100    0.0860 C   0  0  2  0  0  0  0  0  0  0  0  0
   -3.1820    1.7390   -1.0170 O   0  0  0  0  0  0  0  0  0  0  0  0
   -2.9950    2.9820   -0.6640 O   0  0  0  0  0  0  0  0  0  0  0  0
  1  2  1  0
  2  3  1  0
  3  4  1  0
  4  5  1  0
  5  6  1  0
  6  7  1  0
  7  8  1  0
  8  9  1  0
  9 10  1  6
  9 11  1  0
  9 14  1  0
 11 12  1  0
 12 13  1  0
 13 14  1  0
 14 15  1  6
 15 16  1  0
M  END
