
     RDKit          3D

 16 16  0  0  0  0  0  0  0  0999 V2000
   -1.0080    2.6380   -0.5480 O   0  0  0  0  0  0  0  0  0  0  0  0
   -0.5720    2.1470    0.5250 C   0  0  0  0  0  0  0  0  0  0  0  0
   -0.7880    2.9700    1.6540 O   0  0  0  0  0  0  0  0  0  0  0  0
    0.0610    0.9300    0.6410 O   0  0  0  0  0  0  0  0  0  0  0  0
    0.2500    0.1390   -0.5130 C   0  0  2  0  0  0  0  0  0  0  0  0
    0.9910    0.8880   -1.4070 O   0  0  0  0  0  0  0  0  0  0  0  0
    2.5030    1.2810   -0.6640 P   0  0  0  0  0  0  0  0  0  0  0  0
    3.8570    0.6060   -1.4680 O   0  0  0  0  0  0  0  0  0  0  0  0
    2.5130    0.9870    1.0360 O   0  0  0  0  0  0  0  0  0  0  0  0
   -1.1010   -0.2870   -1.0240 C   0  0  0  0  0  0  0  0  0  0  0  0
   -1.8000   -0.9460    0.1700 C   0  0  1  0  0  0  0  0  0  0  0  0
   -3.1440   -1.1390   -0.0760 O   0  0  0  0  0  0  0  0  0  0  0  0
   -1.1160   -2.2690    0.4150 C   0  0  0  0  0  0  0  0  0  0  0  0
    0.2770   -2.1240    0.4670 O   0  0  0  0  0  0  0  0  0  0  0  0
    0.9960   -1.1240   -0.1510 C   0  0  0  0  0  0  0  0  0  0  0  0
    2.2140   -1.1740   -0.4370 O   0  0  0  0  0  0  0  0  0  0  0  0
  1  2  2  0
  2  3  1  0
  2  4  1  0
  5  4  1  1
  5  6  1  0
  5 10  1  0
  5 15  1  0
  6  7  1  0
  7  8  1  0
  7  9  1  0
 10 11  1  0
 11 12  1  6
 11 13  1  0
 13 14  1  0
 14 15  1  0
 15 16  2  0
M  END
