
     RDKit          3D

 15 15  0  0  0  0  0  0  0  0999 V2000
    2.8270    2.3750    0.5560 C   0  0  0  0  0  0  0  0  0  0  0  0
    2.1330    1.2500    0.0950 O   0  0  0  0  0  0  0  0  0  0  0  0
    1.7650    0.1710    0.8690 C   0  0  0  0  0  0  0  0  0  0  0  0
    2.0750    0.1930    2.0880 O   0  0  0  0  0  0  0  0  0  0  0  0
    1.0400   -0.9350    0.2440 C   0  0  1  0  0  0  0  0  0  0  0  0
    0.7230   -1.9610    1.1130 O   0  0  0  0  0  0  0  0  0  0  0  0
   -0.2950   -2.6550    0.4820 C   0  0  2  0  0  0  0  0  0  0  0  0
    0.2460   -3.6840   -0.3020 O   0  0  0  0  0  0  0  0  0  0  0  0
   -0.9390   -1.7850   -0.3710 O   0  0  0  0  0  0  0  0  0  0  0  0
   -0.3710   -0.5290   -0.1970 C   0  0  2  0  0  0  0  0  0  0  0  0
   -0.3560    0.2370   -1.3300 O   0  0  0  0  0  0  0  0  0  0  0  0
   -1.0140    1.4330   -1.0450 C   0  0  0  0  0  0  0  0  0  0  0  0
   -2.7470    1.0190   -0.5450 P   0  0  0  0  0  0  0  0  0  0  0  0
   -2.9300    0.9320    1.1620 O   0  0  0  0  0  0  0  0  0  0  0  0
   -3.1790   -0.4900   -1.2750 O   0  0  0  0  0  0  0  0  0  0  0  0
  1  2  1  0
  2  3  1  0
  3  4  2  0
  5  3  1  1
  5  6  1  0
  5 10  1  0
  6  7  1  0
  7  8  1  6
  7  9  1  0
  9 10  1  0
 10 11  1  6
 11 12  1  0
 12 13  1  0
 13 14  1  0
 13 15  1  0
M  END
