
     RDKit          3D

 27 29  0  0  0  0  0  0  0  0999 V2000
   -2.9220    1.5510   -2.0330 C   0  0  0  0  0  0  0  0  0  0  0  0
   -2.1300    0.4520   -1.8900 O   0  0  0  0  0  0  0  0  0  0  0  0
   -1.5230    0.2550   -0.6810 C   0  0  1  0  0  0  0  0  0  0  0  0
   -2.6160    0.0460    0.3670 C   0  0  1  0  0  0  0  0  0  0  0  0
   -3.4220   -1.0920    0.0430 N   0  0  0  0  0  0  0  0  0  0  0  0
   -4.0010   -1.9760    0.9850 C   0  0  0  0  0  0  0  0  0  0  0  0
   -4.8550   -2.8080    0.6150 O   0  0  0  0  0  0  0  0  0  0  0  0
   -3.5680   -1.8810    2.3900 C   0  0  0  0  0  0  0  0  0  0  0  0
   -2.3440   -1.1540    2.5490 N   0  0  0  0  0  0  0  0  0  0  0  0
   -2.0340   -0.0330    1.7300 C   0  0  0  0  0  0  0  0  0  0  0  0
   -1.2820    0.8960    2.1230 O   0  0  0  0  0  0  0  0  0  0  0  0
   -0.7800   -0.9430   -0.8320 O   0  0  0  0  0  0  0  0  0  0  0  0
    0.4990   -0.8610   -0.3750 C   0  0  0  0  0  0  0  0  0  0  0  0
    1.4600   -0.2000   -1.3750 C   0  0  2  0  0  0  0  0  0  0  0  0
    3.1610   -0.4430   -0.7540 P   0  0  0  0  0  0  0  0  0  0  0  0
    3.2210   -0.8660    0.9870 N   0  0  0  0  0  0  0  0  0  0  0  0
    4.9900   -0.8530    1.3850 P   0  0  0  0  0  0  0  0  0  0  0  0
    5.3230    0.7100    2.0800 O   0  0  0  0  0  0  0  0  0  0  0  0
    5.7850   -0.8630   -0.1840 O   0  0  0  0  0  0  0  0  0  0  0  0
    5.2540   -1.8530   -1.0010 C   0  0  0  0  0  0  0  0  0  0  0  0
    4.1500   -1.4260   -1.7260 O   0  0  0  0  0  0  0  0  0  0  0  0
    1.1630    1.2780   -1.2180 C   0  0  0  0  0  0  0  0  0  0  0  0
    1.8180    2.1480   -1.7130 O   0  0  0  0  0  0  0  0  0  0  0  0
   -0.3290    1.5510   -0.1720 P   0  0  0  0  0  0  0  0  0  0  0  0
   -0.8980    3.1450   -0.1890 O   0  0  0  0  0  0  0  0  0  0  0  0
    0.0280    4.0310   -0.5050 O   0  0  0  0  0  0  0  0  0  0  0  0
   -0.5410    4.8750   -1.3470 O   0  0  0  0  0  0  0  0  0  0  0  0
  1  2  1  0
  3  2  1  6
  3  4  1  0
  3 12  1  0
  3 24  1  0
  4  5  1  6
  4 10  1  0
  5  6  1  0
  6  7  2  0
  6  8  1  0
  8  9  1  0
  9 10  1  0
 10 11  2  0
 12 13  1  0
 13 14  1  0
 14 15  1  1
 14 22  1  0
 15 16  1  0
 15 21  1  0
 16 17  1  0
 17 18  1  0
 17 19  1  0
 19 20  1  0
 20 21  1  0
 22 23  2  0
 22 24  1  0
 24 25  1  0
 25 26  1  0
 26 27  1  0
M  END
