
     RDKit          3D

 28 29  0  0  0  0  0  0  0  0999 V2000
   -3.4670   -3.3890   -1.1740 C   0  0  0  0  0  0  0  0  0  0  0  0
   -3.0230   -2.1130   -0.6270 N   0  0  0  0  0  0  0  0  0  0  0  0
   -1.7230   -2.0180   -0.1110 C   0  0  0  0  0  0  0  0  0  0  0  0
   -0.9960   -3.0720   -0.1510 O   0  0  0  0  0  0  0  0  0  0  0  0
   -1.1250   -0.7720    0.4830 C   0  0  1  0  0  0  0  0  0  0  0  0
   -1.8690   -0.4190    1.7820 C   0  0  0  0  0  0  0  0  0  0  0  0
    0.2050   -1.1480    0.9030 N   0  0  0  0  0  0  0  0  0  0  0  0
    1.4620   -0.7280    0.4080 C   0  0  0  0  0  0  0  0  0  0  0  0
    2.5250   -1.5290   -0.0530 C   0  0  0  0  0  0  0  0  0  0  0  0
    3.5210   -0.6740   -0.4240 C   0  0  0  0  0  0  0  0  0  0  0  0
    4.7590   -1.0890   -0.9410 O   0  0  0  0  0  0  0  0  0  0  0  0
    5.7580   -1.4350    0.0040 C   0  0  0  0  0  0  0  0  0  0  0  0
    6.9700   -1.8400   -0.6040 N   0  0  0  0  0  0  0  0  0  0  0  0
    7.2340   -2.9220   -0.9950 O   0  0  0  0  0  0  0  0  0  0  0  0
    3.1190    0.5440   -0.2140 O   0  0  0  0  0  0  0  0  0  0  0  0
    1.9020    0.5630    0.2800 C   0  0  0  0  0  0  0  0  0  0  0  0
    0.8790    2.0400    0.7540 P   0  0  0  0  0  0  0  0  0  0  0  0
    1.5980    2.8940    2.0560 O   0  0  0  0  0  0  0  0  0  0  0  0
    0.5920    3.0600   -0.6850 N   0  0  0  0  0  0  0  0  0  0  0  0
   -0.2080    4.2070   -0.4260 C   0  0  0  0  0  0  0  0  0  0  0  0
   -1.5420    3.9090   -0.6990 O   0  0  0  0  0  0  0  0  0  0  0  0
   -1.5790    3.1910   -1.7890 O   0  0  0  0  0  0  0  0  0  0  0  0
   -2.7870    3.1000   -2.2970 O   0  0  0  0  0  0  0  0  0  0  0  0
   -2.9710    1.9780   -2.9460 O   0  0  0  0  0  0  0  0  0  0  0  0
   -3.2840    0.9820   -2.1440 O   0  0  0  0  0  0  0  0  0  0  0  0
   -2.5820    1.1330   -0.5890 P   0  0  0  0  0  0  0  0  0  0  0  0
   -3.6640    1.1140    0.7130 O   0  0  0  0  0  0  0  0  0  0  0  0
   -1.1560    0.2270   -0.4410 O   0  0  0  0  0  0  0  0  0  0  0  0
  1  2  1  0
  2  3  1  0
  3  4  2  0
  3  5  1  0
  5  6  1  1
  5  7  1  0
  5 28  1  0
  7  8  1  0
  8  9  1  0
  8 16  2  0
  9 10  2  0
 10 11  1  0
 10 15  1  0
 11 12  1  0
 12 13  1  0
 13 14  2  0
 15 16  1  0
 16 17  1  0
 17 18  1  0
 17 19  1  0
 19 20  1  0
 20 21  1  0
 21 22  1  0
 22 23  1  0
 23 24  1  0
 24 25  1  0
 25 26  1  0
 26 27  1  0
 26 28  1  0
M  END
