
     RDKit          3D

 28 27  0  0  0  0  0  0  0  0999 V2000
   -1.0630    0.9610    0.8530 C   0  0  0  0  0  0  0  0  0  0  0  0
   -1.8910    0.8760   -0.1700 C   0  0  0  0  0  0  0  0  0  0  0  0
   -2.9160    1.8710   -0.4010 C   0  0  0  0  0  0  0  0  0  0  0  0
   -3.7230    1.8360   -1.3550 O   0  0  0  0  0  0  0  0  0  0  0  0
   -3.0250    2.9450    0.4860 O   0  0  0  0  0  0  0  0  0  0  0  0
   -4.2490    4.1620    0.2380 P   0  0  0  0  0  0  0  0  0  0  0  0
   -3.7720    5.7890    0.9790 C   0  0  0  0  0  0  0  0  0  0  0  0
   -1.7720   -0.5170   -1.3470 P   0  0  0  0  0  0  0  0  0  0  0  0
   -2.8160   -1.8150   -0.9310 O   0  0  0  0  0  0  0  0  0  0  0  0
   -2.8350   -2.0040    0.3710 O   0  0  0  0  0  0  0  0  0  0  0  0
   -3.5440   -3.1520    0.7000 C   0  0  1  0  0  0  0  0  0  0  0  0
   -2.6490   -4.1580    1.3960 C   0  0  0  0  0  0  0  0  0  0  0  0
   -4.6630   -2.8560    1.4930 O   0  0  0  0  0  0  0  0  0  0  0  0
    0.0110   -1.0780   -1.4580 C   0  0  2  0  0  0  0  0  0  0  0  0
    0.6660   -0.1720   -2.4200 C   0  0  0  0  0  0  0  0  0  0  0  0
    1.9210    0.2070   -2.3310 C   0  0  0  0  0  0  0  0  0  0  0  0
    2.7780   -0.2420   -1.2640 C   0  0  0  0  0  0  0  0  0  0  0  0
    4.0190    0.1860   -1.2520 N   0  0  0  0  0  0  0  0  0  0  0  0
    4.8720   -0.2470   -0.2110 C   0  0  0  0  0  0  0  0  0  0  0  0
    5.8260    0.5580    0.2090 C   0  0  0  0  0  0  0  0  0  0  0  0
    6.0010    1.8690   -0.3850 C   0  0  0  0  0  0  0  0  0  0  0  0
    5.2360    2.2310   -1.3040 O   0  0  0  0  0  0  0  0  0  0  0  0
    6.9880    2.6720    0.0670 F   0  0  0  0  0  0  0  0  0  0  0  0
    6.7140    0.1050    1.2960 C   0  0  0  0  0  0  0  0  0  0  0  0
    7.7000    0.8830    1.7610 F   0  0  0  0  0  0  0  0  0  0  0  0
    6.5140   -1.3680    1.9620 S   0  0  0  0  0  0  0  0  0  0  0  0
    0.0660   -2.3890   -1.9620 O   0  0  0  0  0  0  0  0  0  0  0  0
    0.7790   -3.5070   -0.8800 P   0  0  0  0  0  0  0  0  0  0  0  0
  1  2  2  0
  2  3  1  0
  2  8  1  0
  3  4  2  0
  3  5  1  0
  5  6  1  0
  6  7  1  0
  8  9  1  0
  8 14  1  0
  9 10  1  0
 10 11  1  0
 11 12  1  1
 11 13  1  0
 14 15  1  0
 14 27  1  6
 15 16  2  3
 16 17  1  0
 17 18  2  3
 18 19  1  0
 19 20  2  3
 20 21  1  0
 20 24  1  0
 21 22  2  0
 21 23  1  0
 24 25  1  0
 24 26  2  0
 27 28  1  0
M  END
