
     RDKit          3D

  9  8  0  0  0  0  0  0  0  0999 V2000
   -2.8590    1.7870   -0.1950 O   0  0  0  0  0  0  0  0  0  0  0  0
   -2.7360    0.4240    0.0620 C   0  0  0  0  0  0  0  0  0  0  0  0
   -1.1320   -0.1420   -0.7080 P   0  0  0  0  0  0  0  0  0  0  0  0
   -1.2710   -1.0860   -2.0590 O   0  0  0  0  0  0  0  0  0  0  0  0
   -0.1860   -0.7720    0.5190 O   0  0  0  0  0  0  0  0  0  0  0  0
    1.0670   -0.9210    0.1650 C   0  0  0  0  0  0  0  0  0  0  0  0
    2.0470   -0.0400    0.9810 C   0  0  0  0  0  0  0  0  0  0  0  0
    1.9030    1.2750    0.3430 O   0  0  0  0  0  0  0  0  0  0  0  0
    2.8520    1.0960   -0.6910 O   0  0  0  0  0  0  0  0  0  0  0  0
  1  2  1  0
  2  3  1  0
  3  4  1  0
  3  5  1  0
  5  6  1  0
  6  7  1  0
  7  8  1  0
  8  9  1  0
M  END
