
     RDKit          3D

  5  4  0  0  0  0  0  0  0  0999 V2000
   -2.0120    0.3200   -0.2590 O   0  0  0  0  0  0  0  0  0  0  0  0
   -1.0700    0.0290    0.6830 N   0  0  0  0  0  0  0  0  0  0  0  0
    0.1060   -0.3880   -0.0450 C   0  0  0  0  0  0  0  0  0  0  0  0
    1.2640   -0.1230    0.6840 O   0  0  0  0  0  0  0  0  0  0  0  0
    2.2400    0.0130   -0.1670 O   0  0  0  0  0  0  0  0  0  0  0  0
  1  2  1  0
  2  3  1  0
  3  4  1  0
  4  5  1  0
M  END
