
     RDKit          3D

  9  8  0  0  0  0  0  0  0  0999 V2000
   -3.3350   -0.3810   -0.0800 C   0  0  0  0  0  0  0  0  0  0  0  0
   -1.9080   -0.3620    0.3450 C   0  0  0  0  0  0  0  0  0  0  0  0
   -1.6000   -0.6200    1.5380 O   0  0  0  0  0  0  0  0  0  0  0  0
   -0.8680   -0.0700   -0.5200 O   0  0  0  0  0  0  0  0  0  0  0  0
    0.4700   -0.0520   -0.1220 C   0  0  0  0  0  0  0  0  0  0  0  0
    1.2490    0.2810   -1.2490 O   0  0  0  0  0  0  0  0  0  0  0  0
    2.9010    0.2890   -0.7010 P   0  0  0  0  0  0  0  0  0  0  0  0
    3.2290    1.9190   -0.1440 O   0  0  0  0  0  0  0  0  0  0  0  0
    3.0920   -0.7520    0.6760 O   0  0  0  0  0  0  0  0  0  0  0  0
  1  2  1  0
  2  3  2  0
  2  4  1  0
  4  5  1  0
  5  6  1  0
  6  7  1  0
  7  8  1  0
  7  9  1  0
M  END
