
     RDKit          3D

 22 22  0  0  0  0  0  0  0  0999 V2000
    1.0990    5.0950    1.1770 C   0  0  0  0  0  0  0  0  0  0  0  0
    1.1880    3.6510    0.8270 C   0  0  0  0  0  0  0  0  0  0  0  0
    2.3850    3.1590    0.4590 N   0  0  0  0  0  0  0  0  0  0  0  0
    2.4860    1.8630    0.1390 C   0  0  0  0  0  0  0  0  0  0  0  0
    1.3860    0.9990    0.1750 C   0  0  0  0  0  0  0  0  0  0  0  0
    1.5220   -0.4330   -0.1820 C   0  0  0  0  0  0  0  0  0  0  0  0
    2.8400   -0.6670   -0.5180 O   0  0  0  0  0  0  0  0  0  0  0  0
    3.2410   -2.1800   -0.9500 P   0  0  0  0  0  0  0  0  0  0  0  0
    4.1320   -1.6940   -2.0970 O   0  0  0  0  0  0  0  0  0  0  0  0
    4.6170   -2.8990   -0.2960 O   0  0  0  0  0  0  0  0  0  0  0  0
    2.4670   -2.8150    0.2080 O   0  0  0  0  0  0  0  0  0  0  0  0
    0.1700    1.5090    0.5500 C   0  0  0  0  0  0  0  0  0  0  0  0
   -1.0170    0.6740    0.6090 C   0  0  0  0  0  0  0  0  0  0  0  0
   -1.0340   -0.5780    0.3230 N   0  0  0  0  0  0  0  0  0  0  0  0
   -2.2790   -1.3630    0.4050 C   0  0  2  0  0  0  0  0  0  0  0  0
   -1.8010   -2.8010    0.3870 C   0  0  0  0  0  0  0  0  0  0  0  0
   -3.5430   -0.9180   -0.7230 P   0  0  0  0  0  0  0  0  0  0  0  0
   -5.0760   -0.4740   -0.0660 O   0  0  0  0  0  0  0  0  0  0  0  0
   -4.1390   -2.3100   -0.8860 O   0  0  0  0  0  0  0  0  0  0  0  0
   -3.2290   -0.6320   -2.2690 O   0  0  0  0  0  0  0  0  0  0  0  0
    0.0710    2.8590    0.8810 C   0  0  0  0  0  0  0  0  0  0  0  0
   -1.1380    3.3860    1.2590 O   0  0  0  0  0  0  0  0  0  0  0  0
  1  2  1  0
  2  3  2  0
  2 21  1  0
  3  4  1  0
  4  5  2  0
  5  6  1  0
  5 12  1  0
  6  7  1  0
  7  8  1  0
  8  9  1  0
  8 10  1  0
  8 11  1  0
 12 13  1  0
 12 21  2  0
 13 14  2  3
 14 15  1  0
 15 16  1  6
 15 17  1  0
 17 18  1  0
 17 19  1  0
 17 20  1  0
 21 22  1  0
M  END
