
     RDKit          3D

  9  8  0  0  0  0  0  0  0  0999 V2000
    3.8210    0.9450   -1.0190 O   0  0  0  0  0  0  0  0  0  0  0  0
    3.5130    0.0200   -0.2660 C   0  0  0  0  0  0  0  0  0  0  0  0
    2.3500   -0.0100    0.3510 O   0  0  0  0  0  0  0  0  0  0  0  0
    1.3300    0.6910    0.4880 O   0  0  0  0  0  0  0  0  0  0  0  0
    0.2540   -0.0250   -0.2980 C   0  0  0  0  0  0  0  0  0  0  0  0
   -0.7420   -0.1650    0.8420 C   0  0  0  0  0  0  0  0  0  0  0  0
   -2.4710   -0.1120    0.5180 P   0  0  0  0  0  0  0  0  0  0  0  0
   -3.2860   -1.3340   -0.2410 O   0  0  0  0  0  0  0  0  0  0  0  0
   -3.0420    1.5190    0.2890 O   0  0  0  0  0  0  0  0  0  0  0  0
  1  2  2  0
  2  3  1  0
  3  4  1  0
  4  5  1  0
  5  6  1  0
  6  7  1  0
  7  8  1  0
  7  9  1  0
M  END
