
     RDKit          3D

 18 19  0  0  0  0  0  0  0  0999 V2000
    4.4680    0.8850    0.8510 C   0  0  0  0  0  0  0  0  0  0  0  0
    3.6530    0.3700   -0.0470 C   0  0  0  0  0  0  0  0  0  0  0  0
    4.0830   -0.8180   -0.8290 C   0  0  0  0  0  0  0  0  0  0  0  0
    2.3180    0.9830   -0.2650 C   0  0  0  0  0  0  0  0  0  0  0  0
    1.2770    0.0360    0.0020 O   0  0  0  0  0  0  0  0  0  0  0  0
   -0.0300    0.4650   -0.1590 C   0  0  0  0  0  0  0  0  0  0  0  0
   -0.3580    1.7320   -0.5550 C   0  0  0  0  0  0  0  0  0  0  0  0
   -1.6680    2.0900   -0.6940 C   0  0  0  0  0  0  0  0  0  0  0  0
   -2.0660    3.7190   -1.2020 Cl  0  0  0  0  0  0  0  0  0  0  0  0
   -2.6720    1.1800   -0.4380 C   0  0  0  0  0  0  0  0  0  0  0  0
   -4.0130    1.4980   -0.5650 O   0  0  0  0  0  0  0  0  0  0  0  0
   -2.3830   -0.1240   -0.0320 C   0  0  0  0  0  0  0  0  0  0  0  0
   -3.4040   -1.0250    0.2210 C   0  0  0  0  0  0  0  0  0  0  0  0
   -4.7390   -0.6250    0.0690 O   0  0  0  0  0  0  0  0  0  0  0  0
   -3.0900   -2.3080    0.6220 C   0  0  0  0  0  0  0  0  0  0  0  0
   -1.7600   -2.6510    0.7570 C   0  0  0  0  0  0  0  0  0  0  0  0
   -0.7530   -1.7410    0.5010 C   0  0  0  0  0  0  0  0  0  0  0  0
   -1.0490   -0.4450    0.0970 C   0  0  0  0  0  0  0  0  0  0  0  0
  1  2  2  0
  2  3  1  0
  2  4  1  0
  4  5  1  0
  5  6  1  0
  6  7  2  0
  6 18  1  0
  7  8  1  0
  8  9  1  0
  8 10  2  0
 10 11  1  0
 10 12  1  0
 12 13  2  0
 12 18  1  0
 13 14  1  0
 13 15  1  0
 15 16  2  0
 16 17  1  0
 17 18  2  0
M  END
