
     RDKit          3D

 18 19  0  0  0  0  0  0  0  0999 V2000
   -4.0730   -1.3190   -0.6110 C   0  0  0  0  0  0  0  0  0  0  0  0
   -3.2400   -1.1600    0.6690 C   0  0  0  0  0  0  0  0  0  0  0  0
   -2.2360   -0.1480    0.6260 C   0  0  0  0  0  0  0  0  0  0  0  0
   -1.0100    0.1530    0.3510 C   0  0  0  0  0  0  0  0  0  0  0  0
   -0.5970    1.5070    0.5620 C   0  0  0  0  0  0  0  0  0  0  0  0
   -1.4460    2.4630    1.0390 O   0  0  0  0  0  0  0  0  0  0  0  0
    0.6900    1.9150    0.2900 C   0  0  0  0  0  0  0  0  0  0  0  0
    1.1040    3.3350    0.5170 C   0  0  0  0  0  0  0  0  0  0  0  0
    2.4190    3.5350    0.1870 O   0  0  0  0  0  0  0  0  0  0  0  0
    1.5690    0.9990   -0.1850 C   0  0  0  0  0  0  0  0  0  0  0  0
    1.1940   -0.3070   -0.3960 C   0  0  0  0  0  0  0  0  0  0  0  0
   -0.0840   -0.7690   -0.1400 C   0  0  0  0  0  0  0  0  0  0  0  0
   -0.1520   -2.0490   -0.4440 C   0  0  0  0  0  0  0  0  0  0  0  0
   -1.4750   -3.1770   -0.3600 Cl  0  0  0  0  0  0  0  0  0  0  0  0
    1.1860   -2.4720   -0.9370 C   0  0  0  0  0  0  0  0  0  0  0  0
    1.9730   -1.4480   -0.9070 C   0  0  0  0  0  0  0  0  0  0  0  0
    3.3150   -1.3660   -1.2740 O   0  0  0  0  0  0  0  0  0  0  0  0
    4.3580   -1.4720   -0.3170 C   0  0  0  0  0  0  0  0  0  0  0  0
  1  2  1  0
  2  3  1  0
  3  4  2  3
  4  5  1  0
  4 12  1  0
  5  6  1  0
  5  7  2  0
  7  8  1  0
  7 10  1  0
  8  9  1  0
 10 11  2  0
 11 12  1  0
 11 16  1  0
 12 13  2  0
 13 14  1  0
 13 15  1  0
 15 16  2  0
 16 17  1  0
 17 18  1  0
M  END
