
     RDKit          3D

 18 19  0  0  0  0  0  0  0  0999 V2000
    5.0870    0.3500   -0.3930 C   0  0  0  0  0  0  0  0  0  0  0  0
    3.6010    0.1650   -0.2650 C   0  0  0  0  0  0  0  0  0  0  0  0
    2.9770   -1.0080   -0.6940 C   0  0  0  0  0  0  0  0  0  0  0  0
    1.5980   -1.1740   -0.5730 C   0  0  0  0  0  0  0  0  0  0  0  0
    0.8260   -0.1830   -0.0280 C   0  0  0  0  0  0  0  0  0  0  0  0
   -0.6270   -0.2700    0.1280 C   0  0  0  0  0  0  0  0  0  0  0  0
   -1.1970   -1.1010    1.0620 C   0  0  0  0  0  0  0  0  0  0  0  0
   -0.3840   -1.8810    1.8660 O   0  0  0  0  0  0  0  0  0  0  0  0
   -2.5900   -1.1470    1.1860 C   0  0  0  0  0  0  0  0  0  0  0  0
   -3.1210   -1.9920    2.1310 O   0  0  0  0  0  0  0  0  0  0  0  0
   -3.4120   -0.3740    0.3890 C   0  0  0  0  0  0  0  0  0  0  0  0
   -2.8320    0.4610   -0.5480 C   0  0  0  0  0  0  0  0  0  0  0  0
   -3.6640    1.3230   -1.4220 C   0  0  0  0  0  0  0  0  0  0  0  0
   -5.0000    1.0820   -1.0930 O   0  0  0  0  0  0  0  0  0  0  0  0
   -1.4550    0.5000   -0.6640 C   0  0  0  0  0  0  0  0  0  0  0  0
   -0.6810    1.5550   -1.8500 Cl  0  0  0  0  0  0  0  0  0  0  0  0
    1.4780    0.9740    0.3900 C   0  0  0  0  0  0  0  0  0  0  0  0
    2.8240    1.1650    0.2850 C   0  0  0  0  0  0  0  0  0  0  0  0
  1  2  1  0
  2  3  2  0
  2 18  1  0
  3  4  1  0
  4  5  2  0
  5  6  1  0
  5 17  1  0
  6  7  2  0
  6 15  1  0
  7  8  1  0
  7  9  1  0
  9 10  1  0
  9 11  2  0
 11 12  1  0
 12 13  1  0
 12 15  2  0
 13 14  1  0
 15 16  1  0
 17 18  2  0
M  END
