
     RDKit          3D

 18 18  0  0  0  0  0  0  0  0999 V2000
   -4.0500    1.2740    0.5110 C   0  0  0  0  0  0  0  0  0  0  0  0
   -2.7060    0.6500    0.2030 C   0  0  0  0  0  0  0  0  0  0  0  0
   -2.6210   -0.6510    0.1460 C   0  0  0  0  0  0  0  0  0  0  0  0
   -3.7160   -1.6210    0.3480 C   0  0  0  0  0  0  0  0  0  0  0  0
   -3.2450   -2.6230    1.7650 Cl  0  0  0  0  0  0  0  0  0  0  0  0
   -1.5640    1.4980   -0.0450 C   0  0  0  0  0  0  0  0  0  0  0  0
   -1.7730    2.8300    0.0510 C   0  0  0  0  0  0  0  0  0  0  0  0
   -2.9310    3.4690    0.3530 O   0  0  0  0  0  0  0  0  0  0  0  0
   -0.2500    1.1040   -0.3750 C   0  0  0  0  0  0  0  0  0  0  0  0
    0.5650    2.1690   -0.5070 O   0  0  0  0  0  0  0  0  0  0  0  0
    0.4740   -0.1160   -0.6130 C   0  0  0  0  0  0  0  0  0  0  0  0
    1.2180   -0.6910    0.5690 C   0  0  1  0  0  0  0  0  0  0  0  0
    0.3750   -0.9850    1.6350 O   0  0  0  0  0  0  0  0  0  0  0  0
    1.8670   -1.9800    0.1550 C   0  0  0  0  0  0  0  0  0  0  0  0
    3.1790   -1.8490   -0.5290 C   0  0  0  0  0  0  0  0  0  0  0  0
    4.1350   -0.9140    0.1470 C   0  0  0  0  0  0  0  0  0  0  0  0
    3.4400    0.4560    0.1900 C   0  0  0  0  0  0  0  0  0  0  0  0
    2.2400    0.2930    1.0740 C   0  0  0  0  0  0  0  0  0  0  0  0
  1  2  1  0
  2  3  2  3
  2  6  1  0
  3  4  1  0
  4  5  1  0
  6  7  2  3
  6  9  1  0
  7  8  1  0
  9 10  2  0
  9 11  1  0
 11 12  1  0
 12 13  1  1
 12 14  1  0
 12 18  1  0
 14 15  1  0
 15 16  1  0
 16 17  1  0
 17 18  1  0
M  END
