
     RDKit          3D

 18 19  0  0  0  0  0  0  0  0999 V2000
   -3.1590   -2.5080   -0.3660 C   0  0  0  0  0  0  0  0  0  0  0  0
   -3.0590   -1.0600   -0.0920 C   0  0  0  0  0  0  0  0  0  0  0  0
   -4.2120   -0.3240    0.0980 O   0  0  0  0  0  0  0  0  0  0  0  0
   -1.8600   -0.4720   -0.0310 C   0  0  0  0  0  0  0  0  0  0  0  0
   -1.8040    0.9600    0.2410 C   0  0  0  0  0  0  0  0  0  0  0  0
   -0.6840    1.6410    0.3260 C   0  0  0  0  0  0  0  0  0  0  0  0
   -0.6750    3.1120    0.6080 C   0  0  0  0  0  0  0  0  0  0  0  0
   -0.0760    3.8440   -0.4090 O   0  0  0  0  0  0  0  0  0  0  0  0
    0.5790    0.9260    0.1380 C   0  0  0  0  0  0  0  0  0  0  0  0
    1.7640    1.6640    0.2350 C   0  0  0  0  0  0  0  0  0  0  0  0
    2.9940    1.0440    0.0690 C   0  0  0  0  0  0  0  0  0  0  0  0
    2.9660   -0.3100   -0.1900 C   0  0  0  0  0  0  0  0  0  0  0  0
    4.2940   -0.9910   -0.3710 C   0  0  0  0  0  0  0  0  0  0  0  0
    1.8210   -1.0440   -0.2870 C   0  0  0  0  0  0  0  0  0  0  0  0
    1.9400   -2.7730   -0.6230 Cl  0  0  0  0  0  0  0  0  0  0  0  0
    0.6020   -0.4250   -0.1220 C   0  0  0  0  0  0  0  0  0  0  0  0
   -0.6180   -1.2480   -0.2330 C   0  0  1  0  0  0  0  0  0  0  0  0
   -0.6340   -2.3000    0.6780 O   0  0  0  0  0  0  0  0  0  0  0  0
  1  2  1  0
  2  3  1  0
  2  4  2  3
  4  5  1  0
  4 17  1  0
  5  6  2  0
  6  7  1  0
  6  9  1  0
  7  8  1  0
  9 10  2  0
  9 16  1  0
 10 11  1  0
 11 12  2  0
 12 13  1  0
 12 14  1  0
 14 15  1  0
 14 16  2  0
 16 17  1  0
 17 18  1  1
M  END
