
     RDKit          3D

 13 13  0  0  0  0  0  0  0  0999 V2000
    0.5400   -2.0720   -0.4290 C   0  0  0  0  0  0  0  0  0  0  0  0
    0.5950   -0.5550   -0.4500 C   0  0  2  0  0  0  0  0  0  0  0  0
    1.7000   -0.1360    0.4650 C   0  0  1  0  0  0  0  0  0  0  0  0
    2.9940   -0.3250   -0.2060 N   0  0  0  0  0  0  0  0  0  0  0  0
    1.6560    1.2900    0.9030 C   0  0  0  0  0  0  0  0  0  0  0  0
    0.4780    1.9420    0.5400 O   0  0  0  0  0  0  0  0  0  0  0  0
   -0.5540    1.1270    0.9290 C   0  0  0  0  0  0  0  0  0  0  0  0
   -0.7410    0.0720   -0.1420 C   0  0  2  0  0  0  0  0  0  0  0  0
   -1.7070   -0.9280    0.4680 C   0  0  0  0  0  0  0  0  0  0  0  0
   -1.1920   -1.4370    1.6630 O   0  0  0  0  0  0  0  0  0  0  0  0
   -1.2710    0.5460   -1.3010 O   0  0  0  0  0  0  0  0  0  0  0  0
   -2.4750    1.1530   -1.2580 C   0  0  0  0  0  0  0  0  0  0  0  0
   -2.7970    1.5500   -2.5800 O   0  0  0  0  0  0  0  0  0  0  0  0
  2  1  1  1
  2  3  1  0
  2  8  1  0
  3  4  1  6
  3  5  1  0
  5  6  1  0
  6  7  1  0
  7  8  1  0
  8  9  1  1
  8 11  1  0
  9 10  1  0
 11 12  1  0
 12 13  1  0
M  CHG  1   4   1
M  END
