
     RDKit          3D

 20 21  0  0  0  0  0  0  0  0999 V2000
   -6.6260   -0.0180   -0.7140 C   0  0  0  0  0  0  0  0  0  0  0  0
   -5.1660   -0.2630   -1.0190 C   0  0  0  0  0  0  0  0  0  0  0  0
   -4.4560   -0.7490    0.2280 C   0  0  2  0  0  0  0  0  0  0  0  0
   -4.6120    0.3480    1.2780 C   0  0  0  0  0  0  0  0  0  0  0  0
   -3.9470    1.8700    0.4980 S   0  0  0  0  0  0  0  0  0  0  0  0
   -2.4440    1.3750   -0.3840 C   0  0  1  0  0  0  0  0  0  0  0  0
   -1.2290    2.1130    0.1380 C   0  0  0  0  0  0  0  0  0  0  0  0
   -0.1610    1.1170   -0.1370 C   0  0  0  0  0  0  0  0  0  0  0  0
    1.0520    1.4170   -0.4610 N   0  0  0  0  0  0  0  0  0  0  0  0
    1.9760    0.4030   -0.6980 N   0  0  0  0  0  0  0  0  0  0  0  0
    2.6960   -0.0190    0.2710 C   0  0  0  0  0  0  0  0  0  0  0  0
    2.5440    0.5480    1.5600 N   0  0  0  0  0  0  0  0  0  0  0  0
    3.6780   -1.0980    0.0120 C   0  0  1  0  0  0  0  0  0  0  0  0
    3.6410   -1.4850   -1.3150 O   0  0  0  0  0  0  0  0  0  0  0  0
    5.0940   -0.6400    0.3120 C   0  0  2  0  0  0  0  0  0  0  0  0
    5.4770    0.5340   -0.5370 C   0  0  0  0  0  0  0  0  0  0  0  0
    6.0640   -1.7700    0.0420 C   0  0  0  0  0  0  0  0  0  0  0  0
   -0.7800   -0.1510    0.0390 N   0  0  0  0  0  0  0  0  0  0  0  0
   -2.0750   -0.0360   -0.0960 C   0  0  0  0  0  0  0  0  0  0  0  0
   -3.0770   -1.0420   -0.0020 N   0  0  0  0  0  0  0  0  0  0  0  0
  1  2  1  0
  3  2  1  6
  3  4  1  0
  3 20  1  0
  4  5  1  0
  5  6  1  0
  6  7  1  1
  6 19  1  0
  7  8  1  0
  8  9  2  3
  8 18  1  0
  9 10  1  0
 10 11  2  3
 11 12  1  0
 11 13  1  0
 13 14  1  6
 13 15  1  0
 15 16  1  6
 15 17  1  0
 18 19  2  0
 19 20  1  0
M  CHG  1  12   1
M  END
