
     RDKit          3D

 20 21  0  0  0  0  0  0  0  0999 V2000
   -5.7320   -0.5000   -0.1800 C   0  0  0  0  0  0  0  0  0  0  0  0
   -5.3530    0.6960    0.6500 C   0  0  0  0  0  0  0  0  0  0  0  0
   -4.1120    1.3620    0.1040 C   0  0  0  0  0  0  0  0  0  0  0  0
   -2.9910    0.4830    0.0960 N   0  0  0  0  0  0  0  0  0  0  0  0
   -2.6850   -0.3470   -1.0360 C   0  0  0  0  0  0  0  0  0  0  0  0
   -1.2630   -0.0930   -1.4570 C   0  0  1  0  0  0  0  0  0  0  0  0
   -1.2310    1.3660   -1.9490 C   0  0  0  0  0  0  0  0  0  0  0  0
   -0.3470   -0.2440   -0.3290 C   0  0  0  0  0  0  0  0  0  0  0  0
    0.9890   -0.6560   -0.5810 N   0  0  0  0  0  0  0  0  0  0  0  0
    1.9960    0.2680   -0.6980 N   0  0  0  0  0  0  0  0  0  0  0  0
    3.3700   -0.1730   -0.6970 C   0  0  0  0  0  0  0  0  0  0  0  0
    3.8140   -1.3260   -0.3910 N   0  0  0  0  0  0  0  0  0  0  0  0
    5.1990   -1.5730   -0.4500 C   0  0  0  0  0  0  0  0  0  0  0  0
    6.0060   -0.3250   -0.3490 C   0  0  2  0  0  0  0  0  0  0  0  0
    6.3510    0.0940    1.0360 C   0  0  0  0  0  0  0  0  0  0  0  0
    4.7930    0.8300   -1.1240 S   0  0  0  0  0  0  0  0  0  0  0  0
   -0.7200   -0.0120    0.9080 C   0  0  0  0  0  0  0  0  0  0  0  0
    0.2050   -0.1680    1.9770 N   0  0  0  0  0  0  0  0  0  0  0  0
   -2.1130    0.3820    1.2080 C   0  0  0  0  0  0  0  0  0  0  0  0
   -2.4650    0.6050    2.3680 O   0  0  0  0  0  0  0  0  0  0  0  0
  1  2  1  0
  2  3  1  0
  3  4  1  0
  4  5  1  0
  4 19  1  0
  5  6  1  0
  6  7  1  1
  6  8  1  0
  8  9  1  0
  8 17  2  0
  9 10  1  0
 10 11  1  0
 11 12  2  0
 11 16  1  0
 12 13  1  0
 13 14  1  0
 14 15  1  1
 14 16  1  0
 17 18  1  0
 17 19  1  0
 19 20  2  0
M  CHG  1  12   1
M  END
