
     RDKit          3D

 21 23  0  0  0  0  0  0  0  0999 V2000
   -1.1650   -2.2540    0.7070 O   0  0  0  0  0  0  0  0  0  0  0  0
   -0.6380   -1.1560    0.3730 C   0  0  0  0  0  0  0  0  0  0  0  0
   -1.5850   -0.0570    0.2110 C   0  0  0  0  0  0  0  0  0  0  0  0
   -2.9450   -0.2330    0.4150 C   0  0  0  0  0  0  0  0  0  0  0  0
   -3.4420   -1.4720    0.7820 O   0  0  0  0  0  0  0  0  0  0  0  0
   -3.7720    0.8490    0.2440 C   0  0  0  0  0  0  0  0  0  0  0  0
   -3.2830    2.1080   -0.1270 C   0  0  0  0  0  0  0  0  0  0  0  0
   -1.9320    2.2230   -0.3150 C   0  0  0  0  0  0  0  0  0  0  0  0
   -1.0490    1.1510   -0.1530 C   0  0  0  0  0  0  0  0  0  0  0  0
    0.3810    1.3260   -0.3640 C   0  0  0  0  0  0  0  0  0  0  0  0
    0.7900    2.4500   -0.6960 O   0  0  0  0  0  0  0  0  0  0  0  0
    1.3030    0.2130   -0.1930 C   0  0  0  0  0  0  0  0  0  0  0  0
    2.6570    0.3500   -0.4010 C   0  0  0  0  0  0  0  0  0  0  0  0
    3.2990    1.5460   -0.7720 N   0  0  0  0  0  0  0  0  0  0  0  0
    4.3520    1.4740   -1.5130 O   0  0  0  0  0  0  0  0  0  0  0  0
    2.9330    2.7850   -0.4400 O   0  0  0  0  0  0  0  0  0  0  0  0
    3.5200   -0.7690   -0.2450 C   0  0  0  0  0  0  0  0  0  0  0  0
    3.0290   -1.9610    0.1060 C   0  0  0  0  0  0  0  0  0  0  0  0
    1.6420   -2.1240    0.3280 C   0  0  0  0  0  0  0  0  0  0  0  0
    1.2200   -3.3620    0.6820 O   0  0  0  0  0  0  0  0  0  0  0  0
    0.8000   -1.0500    0.1790 C   0  0  0  0  0  0  0  0  0  0  0  0
  1  2  2  0
  2  3  1  0
  2 21  1  0
  3  4  2  0
  3  9  1  0
  4  5  1  0
  4  6  1  0
  6  7  2  0
  7  8  1  0
  8  9  2  0
  9 10  1  0
 10 11  2  0
 10 12  1  0
 12 13  2  0
 12 21  1  0
 13 14  1  0
 13 17  1  0
 14 15  2  0
 14 16  1  0
 17 18  2  0
 18 19  1  0
 19 20  1  0
 19 21  2  0
M  CHG  2  14   1  16  -1
M  END
