
     RDKit          3D

 27 27  0  0  0  0  0  0  0  0999 V2000
    4.3880    2.5930    0.1750 C   0  0  0  0  0  0  0  0  0  0  0  0
    3.7630    1.2150    0.1880 C   0  0  2  0  0  0  0  0  0  0  0  0
    2.9920    0.9980    1.3390 O   0  0  0  0  0  0  0  0  0  0  0  0
    1.6960    1.3600    1.5300 C   0  0  0  0  0  0  0  0  0  0  0  0
    1.1580    1.3120    2.6890 O   0  0  0  0  0  0  0  0  0  0  0  0
    0.7860    1.8420    0.4340 C   0  0  0  0  0  0  0  0  0  0  0  0
   -0.4880    1.3570    0.5680 O   0  0  0  0  0  0  0  0  0  0  0  0
   -0.7500    0.2220   -0.1880 C   0  0  2  0  0  0  0  0  0  0  0  0
    0.1700    0.2880   -1.2770 O   0  0  0  0  0  0  0  0  0  0  0  0
   -2.0810    0.2110   -0.8280 C   0  0  2  0  0  0  0  0  0  0  0  0
   -2.1600    1.3130   -1.6950 O   0  0  0  0  0  0  0  0  0  0  0  0
   -3.2900    0.1640    0.0200 C   0  0  1  0  0  0  0  0  0  0  0  0
   -4.4870    0.1880   -0.9630 C   0  0  0  0  0  0  0  0  0  0  0  0
   -5.6790    0.1470   -0.2840 O   0  0  0  0  0  0  0  0  0  0  0  0
   -3.4740   -1.1380    0.7800 C   0  0  0  0  0  0  0  0  0  0  0  0
   -3.5760   -2.1940   -0.1240 O   0  0  0  0  0  0  0  0  0  0  0  0
   -3.4760    1.3200    0.9370 C   0  0  0  0  0  0  0  0  0  0  0  0
   -3.5630    2.4870    0.1840 O   0  0  0  0  0  0  0  0  0  0  0  0
   -0.3590   -1.0280    0.5560 C   0  0  0  0  0  0  0  0  0  0  0  0
    1.0230   -1.2170    0.4140 O   0  0  0  0  0  0  0  0  0  0  0  0
    1.3320   -2.5480    0.1550 C   0  0  0  0  0  0  0  0  0  0  0  0
    2.8310   -2.7010    0.3120 C   0  0  2  0  0  0  0  0  0  0  0  0
    3.1480   -2.3380    1.6200 O   0  0  0  0  0  0  0  0  0  0  0  0
    3.5240   -1.6900   -0.6000 C   0  0  0  0  0  0  0  0  0  0  0  0
    4.6570   -1.1440   -0.0030 O   0  0  0  0  0  0  0  0  0  0  0  0
    4.8690    0.2220    0.1980 C   0  0  0  0  0  0  0  0  0  0  0  0
    6.0640    0.5690    0.3900 O   0  0  0  0  0  0  0  0  0  0  0  0
  2  1  1  1
  2  3  1  0
  2 26  1  0
  3  4  1  0
  4  5  2  0
  4  6  1  0
  6  7  1  0
  7  8  1  0
  8  9  1  6
  8 10  1  0
  8 19  1  0
 10 11  1  1
 10 12  1  0
 12 13  1  6
 12 15  1  0
 12 17  1  0
 13 14  1  0
 15 16  1  0
 17 18  1  0
 19 20  1  0
 20 21  1  0
 21 22  1  0
 22 23  1  1
 22 24  1  0
 24 25  1  0
 25 26  1  0
 26 27  2  0
M  END
