
     RDKit          3D

 27 27  0  0  0  0  0  0  0  0999 V2000
    0.7180   -0.2810    2.2480 C   0  0  0  0  0  0  0  0  0  0  0  0
    0.7860   -1.2910    1.1410 C   0  0  2  0  0  0  0  0  0  0  0  0
    2.2650   -1.4250    0.7490 C   0  0  1  0  0  0  0  0  0  0  0  0
    2.4360   -2.3960   -0.2190 O   0  0  0  0  0  0  0  0  0  0  0  0
    2.7970   -0.1060    0.3310 C   0  0  0  0  0  0  0  0  0  0  0  0
    2.7020    0.8650    1.1230 O   0  0  0  0  0  0  0  0  0  0  0  0
    3.3870    0.0500   -0.9120 O   0  0  0  0  0  0  0  0  0  0  0  0
    3.8910    1.2890   -1.3140 C   0  0  2  0  0  0  0  0  0  0  0  0
    3.1420    1.8080   -2.5310 C   0  0  0  0  0  0  0  0  0  0  0  0
    3.6970    3.0400   -2.8700 O   0  0  0  0  0  0  0  0  0  0  0  0
    5.3460    1.1750   -1.5870 C   0  0  0  0  0  0  0  0  0  0  0  0
    5.9650    2.1980   -1.9610 O   0  0  0  0  0  0  0  0  0  0  0  0
    6.0540   -0.0070   -1.4500 O   0  0  0  0  0  0  0  0  0  0  0  0
    0.0140   -0.8010   -0.0380 C   0  0  0  0  0  0  0  0  0  0  0  0
   -1.4520   -1.0550    0.0150 C   0  0  2  0  0  0  0  0  0  0  0  0
   -2.1460    0.0450    0.4550 O   0  0  0  0  0  0  0  0  0  0  0  0
   -3.0150    0.5950   -0.4320 C   0  0  2  0  0  0  0  0  0  0  0  0
   -2.7120    2.0250   -0.8020 C   0  0  0  0  0  0  0  0  0  0  0  0
   -3.6650    2.4810   -1.7130 O   0  0  0  0  0  0  0  0  0  0  0  0
   -4.4180    0.4950    0.0940 C   0  0  0  0  0  0  0  0  0  0  0  0
   -4.6250    1.1790    1.3710 C   0  0  0  0  0  0  0  0  0  0  0  0
   -3.7440    1.8070    2.0140 O   0  0  0  0  0  0  0  0  0  0  0  0
   -5.8930    1.1410    1.9350 O   0  0  0  0  0  0  0  0  0  0  0  0
   -1.7590   -2.3140    0.7870 C   0  0  1  0  0  0  0  0  0  0  0  0
   -2.7160   -3.1030    0.1550 O   0  0  0  0  0  0  0  0  0  0  0  0
   -0.4660   -3.1380    0.7600 C   0  0  0  0  0  0  0  0  0  0  0  0
    0.3970   -2.5110    1.6240 O   0  0  0  0  0  0  0  0  0  0  0  0
  2  1  1  1
  2  3  1  0
  2 14  1  0
  2 27  1  0
  3  4  1  6
  3  5  1  0
  5  6  2  0
  5  7  1  0
  7  8  1  0
  8  9  1  6
  8 11  1  0
  9 10  1  0
 11 12  2  0
 11 13  1  0
 14 15  1  0
 15 16  1  1
 15 24  1  0
 16 17  1  0
 17 18  1  1
 17 20  1  0
 18 19  1  0
 20 21  1  0
 21 22  2  0
 21 23  1  0
 24 25  1  6
 24 26  1  0
 26 27  1  0
M  END
