
     RDKit          3D

 27 27  0  0  0  0  0  0  0  0999 V2000
    4.6400    3.3140    0.0510 C   0  0  0  0  0  0  0  0  0  0  0  0
    3.3990    3.0090    0.6020 O   0  0  0  0  0  0  0  0  0  0  0  0
    2.8870    1.8140    0.0040 C   0  0  0  0  0  0  0  0  0  0  0  0
    1.5850    1.5800    0.6490 C   0  0  0  0  0  0  0  0  0  0  0  0
    0.7670    0.6160    0.4100 O   0  0  0  0  0  0  0  0  0  0  0  0
    0.8090   -0.6940    0.4770 C   0  0  2  0  0  0  0  0  0  0  0  0
    1.1490   -1.2850    1.8310 C   0  0  0  0  0  0  0  0  0  0  0  0
    0.2560   -0.9480    2.8130 O   0  0  0  0  0  0  0  0  0  0  0  0
    1.7660   -1.2050   -0.5780 C   0  0  0  0  0  0  0  0  0  0  0  0
    1.7100   -2.6750   -0.8160 C   0  0  2  0  0  0  0  0  0  0  0  0
    2.6170   -3.0120   -1.8440 O   0  0  0  0  0  0  0  0  0  0  0  0
    0.4620   -2.9940   -1.2740 O   0  0  0  0  0  0  0  0  0  0  0  0
   -0.5560   -2.6100   -0.4120 C   0  0  1  0  0  0  0  0  0  0  0  0
   -0.5380   -3.6250    0.7210 C   0  0  0  0  0  0  0  0  0  0  0  0
   -1.3300   -3.5020    1.6980 O   0  0  0  0  0  0  0  0  0  0  0  0
    0.3210   -4.6940    0.7290 O   0  0  0  0  0  0  0  0  0  0  0  0
   -0.5510   -1.2400    0.0920 C   0  0  2  0  0  0  0  0  0  0  0  0
   -1.4460   -0.2280   -0.6070 C   0  0  1  0  0  0  0  0  0  0  0  0
   -0.9120    0.3330   -1.7300 O   0  0  0  0  0  0  0  0  0  0  0  0
   -2.6830   -1.0120   -1.1630 C   0  0  0  0  0  0  0  0  0  0  0  0
   -3.3630   -1.6610   -0.1780 O   0  0  0  0  0  0  0  0  0  0  0  0
   -2.0010    0.7720    0.3380 C   0  0  0  0  0  0  0  0  0  0  0  0
   -2.8650    1.8570   -0.1570 C   0  0  1  0  0  0  0  0  0  0  0  0
   -4.0380    1.5770   -0.7700 O   0  0  0  0  0  0  0  0  0  0  0  0
   -3.2010    2.6370    0.9890 O   0  0  0  0  0  0  0  0  0  0  0  0
   -2.1170    2.8420   -1.0530 C   0  0  0  0  0  0  0  0  0  0  0  0
   -2.8570    4.0110   -1.2270 O   0  0  0  0  0  0  0  0  0  0  0  0
  1  2  1  0
  2  3  1  0
  3  4  1  0
  4  5  1  0
  5  6  1  0
  6  7  1  1
  6  9  1  0
  6 17  1  0
  7  8  1  0
  9 10  1  0
 10 11  1  6
 10 12  1  0
 12 13  1  0
 13 14  1  1
 13 17  1  0
 14 15  2  0
 14 16  1  0
 17 18  1  6
 18 19  1  6
 18 20  1  0
 18 22  1  0
 20 21  1  0
 22 23  1  0
 23 24  1  6
 23 25  1  0
 23 26  1  0
 26 27  1  0
M  END
