
     RDKit          3D

 27 27  0  0  0  0  0  0  0  0999 V2000
    4.3320   -1.5410   -1.5040 C   0  0  0  0  0  0  0  0  0  0  0  0
    3.9490   -0.2360   -1.4360 O   0  0  0  0  0  0  0  0  0  0  0  0
    2.9470    0.1110   -0.5690 C   0  0  1  0  0  0  0  0  0  0  0  0
    3.3100   -0.1980    0.8350 C   0  0  2  0  0  0  0  0  0  0  0  0
    4.4900    0.5140    1.1250 O   0  0  0  0  0  0  0  0  0  0  0  0
    3.5370   -1.5230    1.0660 O   0  0  0  0  0  0  0  0  0  0  0  0
    2.6930    1.6110   -0.7590 C   0  0  0  0  0  0  0  0  0  0  0  0
    1.2730    1.9800   -0.4160 C   0  0  2  0  0  0  0  0  0  0  0  0
    1.1070    1.8630    0.9390 O   0  0  0  0  0  0  0  0  0  0  0  0
    0.3480    1.3160   -1.2050 O   0  0  0  0  0  0  0  0  0  0  0  0
   -0.9950    1.4780   -1.2890 C   0  0  0  0  0  0  0  0  0  0  0  0
   -1.5230    1.4120   -2.4550 O   0  0  0  0  0  0  0  0  0  0  0  0
   -1.9380    1.7250   -0.1820 C   0  0  1  0  0  0  0  0  0  0  0  0
   -1.4740    1.3690    1.0570 O   0  0  0  0  0  0  0  0  0  0  0  0
   -2.3280    3.2080   -0.1400 C   0  0  0  0  0  0  0  0  0  0  0  0
   -1.2540    4.0130    0.1850 O   0  0  0  0  0  0  0  0  0  0  0  0
   -3.2550    0.9740   -0.3940 C   0  0  0  0  0  0  0  0  0  0  0  0
   -3.0170   -0.5130   -0.5150 C   0  0  0  0  0  0  0  0  0  0  0  0
   -2.7730   -1.1850    0.7980 C   0  0  1  0  0  0  0  0  0  0  0  0
   -3.4800   -2.5390    0.8320 C   0  0  0  0  0  0  0  0  0  0  0  0
   -4.8000   -2.3350    0.4420 O   0  0  0  0  0  0  0  0  0  0  0  0
   -1.4540   -1.2630    1.1680 O   0  0  0  0  0  0  0  0  0  0  0  0
   -0.8070   -2.4150    0.7960 C   0  0  0  0  0  0  0  0  0  0  0  0
    0.6990   -2.0800    0.7570 C   0  0  0  0  0  0  0  0  0  0  0  0
    0.8320   -1.0230   -0.1000 O   0  0  0  0  0  0  0  0  0  0  0  0
    1.7050   -0.6030   -1.0160 C   0  0  0  0  0  0  0  0  0  0  0  0
    1.6210   -0.7320   -2.2670 O   0  0  0  0  0  0  0  0  0  0  0  0
  1  2  1  0
  3  2  1  6
  3  4  1  0
  3  7  1  0
  3 26  1  0
  4  5  1  6
  4  6  1  0
  7  8  1  0
  8  9  1  1
  8 10  1  0
 10 11  1  0
 11 12  2  0
 11 13  1  0
 13 14  1  1
 13 15  1  0
 13 17  1  0
 15 16  1  0
 17 18  1  0
 18 19  1  0
 19 20  1  6
 19 22  1  0
 20 21  1  0
 22 23  1  0
 23 24  1  0
 24 25  1  0
 25 26  1  0
 26 27  2  0
M  END
