
     RDKit          3D

 27 27  0  0  0  0  0  0  0  0999 V2000
    3.5700   -1.9390   -0.1030 O   0  0  0  0  0  0  0  0  0  0  0  0
    4.0280   -0.9260   -0.7580 C   0  0  0  0  0  0  0  0  0  0  0  0
    5.3080   -0.3780   -0.4320 C   0  0  0  0  0  0  0  0  0  0  0  0
    5.8920    0.6260   -0.9940 C   0  0  0  0  0  0  0  0  0  0  0  0
    5.4120    1.4740   -2.1080 C   0  0  0  0  0  0  0  0  0  0  0  0
    5.3490    2.7920   -1.6050 O   0  0  0  0  0  0  0  0  0  0  0  0
    7.2700    1.0240   -0.4650 C   0  0  0  0  0  0  0  0  0  0  0  0
    7.6490    0.1810    0.5770 O   0  0  0  0  0  0  0  0  0  0  0  0
    3.2380   -0.4270   -1.7460 O   0  0  0  0  0  0  0  0  0  0  0  0
    1.9810   -0.9360   -2.0880 C   0  0  0  0  0  0  0  0  0  0  0  0
    1.0570   -0.8320   -0.9220 C   0  0  1  0  0  0  0  0  0  0  0  0
    0.9430    0.5240   -0.5620 O   0  0  0  0  0  0  0  0  0  0  0  0
   -0.3670   -1.2740   -1.2930 C   0  0  1  0  0  0  0  0  0  0  0  0
   -0.2530   -2.6220   -1.6520 O   0  0  0  0  0  0  0  0  0  0  0  0
   -1.2070   -1.0910   -0.0670 C   0  0  0  0  0  0  0  0  0  0  0  0
   -2.4910   -1.5530   -0.1980 O   0  0  0  0  0  0  0  0  0  0  0  0
   -3.1820   -1.3370    0.9850 C   0  0  2  0  0  0  0  0  0  0  0  0
   -3.6230   -2.6350    1.6280 C   0  0  0  0  0  0  0  0  0  0  0  0
   -4.4580   -3.3780    0.8240 O   0  0  0  0  0  0  0  0  0  0  0  0
   -4.2540   -0.4630    0.8130 O   0  0  0  0  0  0  0  0  0  0  0  0
   -4.1370    0.6950    1.5550 C   0  0  2  0  0  0  0  0  0  0  0  0
   -5.3400    0.7590    2.5050 C   0  0  1  0  0  0  0  0  0  0  0  0
   -4.9730    0.3760    3.7820 O   0  0  0  0  0  0  0  0  0  0  0  0
   -5.6580    2.2550    2.4270 C   0  0  0  0  0  0  0  0  0  0  0  0
   -5.5810    2.4530    1.0390 O   0  0  0  0  0  0  0  0  0  0  0  0
   -4.3620    1.8900    0.6880 C   0  0  1  0  0  0  0  0  0  0  0  0
   -3.3880    2.8750    0.8590 O   0  0  0  0  0  0  0  0  0  0  0  0
  1  2  2  0
  2  3  1  0
  2  9  1  0
  3  4  2  3
  4  5  1  0
  4  7  1  0
  5  6  1  0
  7  8  1  0
  9 10  1  0
 10 11  1  0
 11 12  1  6
 11 13  1  0
 13 14  1  1
 13 15  1  0
 15 16  1  0
 16 17  1  0
 17 18  1  6
 17 20  1  0
 18 19  1  0
 21 20  1  6
 21 22  1  0
 21 26  1  0
 22 23  1  1
 22 24  1  0
 24 25  1  0
 25 26  1  0
 26 27  1  1
M  END
