
     RDKit          3D

 27 27  0  0  0  0  0  0  0  0999 V2000
    0.8800    0.2130   -0.9930 O   0  0  0  0  0  0  0  0  0  0  0  0
    0.8320   -0.4970    0.0710 C   0  0  0  0  0  0  0  0  0  0  0  0
    0.4430   -1.8110   -0.0060 O   0  0  0  0  0  0  0  0  0  0  0  0
   -0.3870   -2.4890    0.8850 C   0  0  0  0  0  0  0  0  0  0  0  0
   -1.8520   -2.2820    0.5760 C   0  0  0  0  0  0  0  0  0  0  0  0
   -2.0700   -2.0580   -0.8970 C   0  0  0  0  0  0  0  0  0  0  0  0
   -3.4280   -1.7960   -1.0750 O   0  0  0  0  0  0  0  0  0  0  0  0
   -3.6770   -0.5540   -1.6310 C   0  0  0  0  0  0  0  0  0  0  0  0
   -4.2500    0.3490   -0.5540 C   0  0  2  0  0  0  0  0  0  0  0  0
   -5.6330    0.4280   -0.7680 O   0  0  0  0  0  0  0  0  0  0  0  0
   -3.6680    1.7390   -0.6240 C   0  0  2  0  0  0  0  0  0  0  0  0
   -2.6570    1.8210   -1.5790 O   0  0  0  0  0  0  0  0  0  0  0  0
   -3.1670    2.1300    0.7630 C   0  0  2  0  0  0  0  0  0  0  0  0
   -4.0970    3.0150    1.3250 O   0  0  0  0  0  0  0  0  0  0  0  0
   -1.9070    2.7000    0.7290 O   0  0  0  0  0  0  0  0  0  0  0  0
   -0.9490    1.8260    1.2850 C   0  0  0  0  0  0  0  0  0  0  0  0
    0.3940    2.2760    0.7610 C   0  0  0  0  0  0  0  0  0  0  0  0
    1.4540    1.5320    1.2050 O   0  0  0  0  0  0  0  0  0  0  0  0
    1.2080    0.1770    1.3280 C   0  0  2  0  0  0  0  0  0  0  0  0
    2.3670   -0.4930    1.9960 C   0  0  0  0  0  0  0  0  0  0  0  0
    3.5420   -0.3680    1.4070 O   0  0  0  0  0  0  0  0  0  0  0  0
    3.8970   -0.7970    0.2040 C   0  0  2  0  0  0  0  0  0  0  0  0
    4.9680   -1.9130    0.2520 C   0  0  0  0  0  0  0  0  0  0  0  0
    6.1230   -1.4890    0.8680 O   0  0  0  0  0  0  0  0  0  0  0  0
    4.5290    0.2950   -0.6180 C   0  0  2  0  0  0  0  0  0  0  0  0
    3.7100    1.3870   -0.8370 O   0  0  0  0  0  0  0  0  0  0  0  0
    4.9700   -0.2200   -1.8520 O   0  0  0  0  0  0  0  0  0  0  0  0
  1  2  2  0
  2  3  1  0
  2 19  1  0
  3  4  1  0
  4  5  1  0
  5  6  1  0
  6  7  1  0
  7  8  1  0
  8  9  1  0
  9 10  1  6
  9 11  1  0
 11 12  1  6
 11 13  1  0
 13 14  1  6
 13 15  1  0
 15 16  1  0
 16 17  1  0
 17 18  1  0
 18 19  1  0
 19 20  1  6
 20 21  1  0
 21 22  1  0
 22 23  1  1
 22 25  1  0
 23 24  1  0
 25 26  1  6
 25 27  1  0
M  END
