
     RDKit          3D

 19 20  0  0  0  0  0  0  0  0999 V2000
    4.0860   -0.2850    1.0540 C   0  0  0  0  0  0  0  0  0  0  0  0
    2.9780   -0.2910   -0.0130 C   0  0  1  0  0  0  0  0  0  0  0  0
    3.6680   -0.5870   -1.3310 C   0  0  0  0  0  0  0  0  0  0  0  0
    2.1190   -1.4770    0.3190 C   0  0  0  0  0  0  0  0  0  0  0  0
    0.7910   -1.0870    0.8390 C   0  0  0  0  0  0  0  0  0  0  0  0
    0.2260   -1.6880    1.7900 O   0  0  0  0  0  0  0  0  0  0  0  0
    0.0740    0.0590    0.2310 C   0  0  0  0  0  0  0  0  0  0  0  0
   -1.3780    0.0520    0.1580 C   0  0  0  0  0  0  0  0  0  0  0  0
   -2.1540    1.1240    0.5630 C   0  0  0  0  0  0  0  0  0  0  0  0
   -3.5360    1.1060    0.4920 C   0  0  0  0  0  0  0  0  0  0  0  0
   -4.3420    2.1570    0.8920 O   0  0  0  0  0  0  0  0  0  0  0  0
   -4.1890   -0.0180   -0.0020 C   0  0  0  0  0  0  0  0  0  0  0  0
   -5.5880   -0.0920   -0.0900 N   0  0  0  0  0  0  0  0  0  0  0  0
   -3.4400   -1.1080   -0.4180 C   0  0  0  0  0  0  0  0  0  0  0  0
   -2.0870   -1.0470   -0.3290 C   0  0  0  0  0  0  0  0  0  0  0  0
   -1.3070   -2.1320   -0.7390 O   0  0  0  0  0  0  0  0  0  0  0  0
    0.8540    1.0460   -0.1730 C   0  0  0  0  0  0  0  0  0  0  0  0
    0.2220    2.1960   -0.7780 N   0  0  0  0  0  0  0  0  0  0  0  0
    2.3100    1.0270   -0.0270 C   0  0  0  0  0  0  0  0  0  0  0  0
  2  1  1  1
  2  3  1  0
  2  4  1  0
  2 19  1  0
  4  5  1  0
  5  6  2  0
  5  7  1  0
  7  8  1  0
  7 17  2  0
  8  9  2  0
  8 15  1  0
  9 10  1  0
 10 11  1  0
 10 12  2  0
 12 13  1  0
 12 14  1  0
 14 15  2  0
 15 16  1  0
 17 18  1  0
 17 19  1  0
M  END
