
     RDKit          3D

 20 21  0  0  0  0  0  0  0  0999 V2000
   -5.1360    1.0660   -1.1070 C   0  0  0  0  0  0  0  0  0  0  0  0
   -3.8330    1.0080   -0.9740 C   0  0  0  0  0  0  0  0  0  0  0  0
   -3.0510    1.8470   -1.6570 O   0  0  0  0  0  0  0  0  0  0  0  0
   -1.8160    1.5870   -1.3510 C   0  0  0  0  0  0  0  0  0  0  0  0
   -1.7410    0.5630   -0.4520 C   0  0  0  0  0  0  0  0  0  0  0  0
   -0.5880   -0.0240    0.1340 N   0  0  0  0  0  0  0  0  0  0  0  0
    0.7480    0.3530   -0.1100 C   0  0  0  0  0  0  0  0  0  0  0  0
    0.9490    1.2820   -0.9090 O   0  0  0  0  0  0  0  0  0  0  0  0
    1.8640   -0.2590    0.4960 N   0  0  0  0  0  0  0  0  0  0  0  0
    3.2190    0.0240    0.3340 C   0  0  0  0  0  0  0  0  0  0  0  0
    3.7130    1.0010   -0.4880 C   0  0  0  0  0  0  0  0  0  0  0  0
    5.0960    1.2470   -0.6140 C   0  0  0  0  0  0  0  0  0  0  0  0
    5.9840    0.4830    0.1090 C   0  0  0  0  0  0  0  0  0  0  0  0
    5.5130   -0.5070    0.9440 C   0  0  0  0  0  0  0  0  0  0  0  0
    4.1620   -0.7150    1.0400 C   0  0  0  0  0  0  0  0  0  0  0  0
    3.6880   -1.7060    1.8750 O   0  0  0  0  0  0  0  0  0  0  0  0
   -3.0610    0.1720   -0.1940 C   0  0  0  0  0  0  0  0  0  0  0  0
   -3.3830   -0.7910    0.6260 C   0  0  0  0  0  0  0  0  0  0  0  0
   -4.7500   -1.2160    0.9110 C   0  0  0  0  0  0  0  0  0  0  0  0
   -4.7150   -2.2980    1.8580 O   0  0  0  0  0  0  0  0  0  0  0  0
  1  2  2  0
  2  3  1  0
  2 17  1  0
  3  4  1  0
  4  5  2  0
  5  6  1  0
  5 17  1  0
  6  7  1  0
  7  8  2  0
  7  9  1  0
  9 10  1  0
 10 11  2  0
 10 15  1  0
 11 12  1  0
 12 13  2  0
 13 14  1  0
 14 15  2  0
 15 16  1  0
 17 18  2  3
 18 19  1  0
 19 20  1  0
M  END
