
     RDKit          3D

 20 22  0  0  0  0  0  0  0  0999 V2000
    2.8380   -2.0900    0.7830 N   0  0  0  0  0  0  0  0  0  0  0  0
    2.5670   -0.7290    0.4930 C   0  0  0  0  0  0  0  0  0  0  0  0
    3.5520    0.2350    0.4510 C   0  0  0  0  0  0  0  0  0  0  0  0
    3.2720    1.5540    0.1680 C   0  0  0  0  0  0  0  0  0  0  0  0
    1.9450    1.8720   -0.0760 C   0  0  0  0  0  0  0  0  0  0  0  0
    1.6190    3.2130   -0.3690 N   0  0  0  0  0  0  0  0  0  0  0  0
    0.9380    0.9300   -0.0410 C   0  0  0  0  0  0  0  0  0  0  0  0
    1.2320   -0.3890    0.2440 C   0  0  0  0  0  0  0  0  0  0  0  0
    0.1620   -1.3760    0.2780 C   0  0  0  0  0  0  0  0  0  0  0  0
    0.4320   -2.5720    0.5370 O   0  0  0  0  0  0  0  0  0  0  0  0
   -1.2300   -1.0170    0.0180 C   0  0  0  0  0  0  0  0  0  0  0  0
   -2.2180   -1.9760    0.0580 C   0  0  0  0  0  0  0  0  0  0  0  0
   -1.8690   -3.3040    0.3530 O   0  0  0  0  0  0  0  0  0  0  0  0
   -3.5240   -1.6320   -0.1870 C   0  0  0  0  0  0  0  0  0  0  0  0
   -3.8170   -0.3360   -0.4680 C   0  0  0  0  0  0  0  0  0  0  0  0
   -2.8520    0.6790   -0.5220 C   0  0  0  0  0  0  0  0  0  0  0  0
   -3.2610    1.9450   -0.8130 O   0  0  0  0  0  0  0  0  0  0  0  0
   -1.5390    0.3020   -0.2690 C   0  0  0  0  0  0  0  0  0  0  0  0
   -0.4730    1.2930   -0.3050 C   0  0  0  0  0  0  0  0  0  0  0  0
   -0.7050    2.4890   -0.5590 O   0  0  0  0  0  0  0  0  0  0  0  0
  1  2  1  0
  2  3  2  0
  2  8  1  0
  3  4  1  0
  4  5  2  0
  5  6  1  0
  5  7  1  0
  7  8  2  0
  7 19  1  0
  8  9  1  0
  9 10  2  0
  9 11  1  0
 11 12  2  0
 11 18  1  0
 12 13  1  0
 12 14  1  0
 14 15  2  0
 15 16  1  0
 16 17  1  0
 16 18  2  0
 18 19  1  0
 19 20  2  0
M  END
