
     RDKit          3D

 20 21  0  0  0  0  0  0  0  0999 V2000
   -0.7110    4.3440    0.5540 N   0  0  0  0  0  0  0  0  0  0  0  0
   -0.3280    2.9670    0.6120 C   0  0  0  0  0  0  0  0  0  0  0  0
   -1.0880    2.0260    0.0010 C   0  0  0  0  0  0  0  0  0  0  0  0
   -2.2150    2.5720   -0.6430 N   0  0  0  0  0  0  0  0  0  0  0  0
   -0.6280    0.6550    0.0260 C   0  0  0  0  0  0  0  0  0  0  0  0
    0.6750    0.3660    0.4590 C   0  0  0  0  0  0  0  0  0  0  0  0
    1.1840   -0.9120    0.5390 C   0  0  0  0  0  0  0  0  0  0  0  0
    2.4500   -1.1950    0.9570 O   0  0  0  0  0  0  0  0  0  0  0  0
    3.5100   -0.4380    1.3600 C   0  0  0  0  0  0  0  0  0  0  0  0
    4.1150    0.5140    0.3900 C   0  0  0  0  0  0  0  0  0  0  0  0
    4.5920   -0.1820   -0.7390 O   0  0  0  0  0  0  0  0  0  0  0  0
    0.3820   -1.9860    0.1760 C   0  0  0  0  0  0  0  0  0  0  0  0
    0.8640   -3.2970    0.2440 O   0  0  0  0  0  0  0  0  0  0  0  0
   -0.9010   -1.7410   -0.2520 C   0  0  0  0  0  0  0  0  0  0  0  0
   -1.6720   -2.8520   -0.5940 C   0  0  0  0  0  0  0  0  0  0  0  0
   -2.9640   -2.6420   -1.0140 C   0  0  0  0  0  0  0  0  0  0  0  0
   -3.8000   -3.7010   -1.3740 O   0  0  0  0  0  0  0  0  0  0  0  0
   -3.4660   -1.3690   -1.0900 C   0  0  0  0  0  0  0  0  0  0  0  0
   -2.6830   -0.2610   -0.7450 C   0  0  0  0  0  0  0  0  0  0  0  0
   -1.4030   -0.4320   -0.3270 C   0  0  0  0  0  0  0  0  0  0  0  0
  1  2  1  0
  2  3  2  3
  3  4  1  0
  3  5  1  0
  5  6  2  0
  5 20  1  0
  6  7  1  0
  7  8  1  0
  7 12  2  0
  8  9  1  0
  9 10  1  0
 10 11  1  0
 12 13  1  0
 12 14  1  0
 14 15  2  0
 14 20  1  0
 15 16  1  0
 16 17  1  0
 16 18  2  0
 18 19  1  0
 19 20  2  0
M  END
