
     RDKit          3D

 20 21  0  0  0  0  0  0  0  0999 V2000
    4.1920    1.6510    0.8850 N   0  0  0  0  0  0  0  0  0  0  0  0
    4.2710    0.5430   -0.0390 C   0  0  0  0  0  0  0  0  0  0  0  0
    5.4660    0.3890   -0.7930 C   0  0  0  0  0  0  0  0  0  0  0  0
    6.4250    1.2330   -0.6280 O   0  0  0  0  0  0  0  0  0  0  0  0
    5.7300   -0.5860   -1.7090 O   0  0  0  0  0  0  0  0  0  0  0  0
    3.2190   -0.2410   -0.1070 C   0  0  0  0  0  0  0  0  0  0  0  0
    2.0310    0.0400    0.7440 C   0  0  0  0  0  0  0  0  0  0  0  0
    0.9610   -0.7210    0.7030 C   0  0  0  0  0  0  0  0  0  0  0  0
   -0.1390   -0.4480    1.5020 O   0  0  0  0  0  0  0  0  0  0  0  0
   -1.0860    0.5450    1.2330 C   0  0  0  0  0  0  0  0  0  0  0  0
   -1.7890    0.3170   -0.1140 C   0  0  1  0  0  0  0  0  0  0  0  0
   -0.7470    0.3460   -1.0620 O   0  0  0  0  0  0  0  0  0  0  0  0
   -2.4290   -0.9980   -0.0970 C   0  0  0  0  0  0  0  0  0  0  0  0
   -3.9110   -1.0410    0.0460 C   0  0  0  0  0  0  0  0  0  0  0  0
   -4.6180    0.1390   -0.5790 C   0  0  0  0  0  0  0  0  0  0  0  0
   -4.0640    1.3530    0.1400 C   0  0  0  0  0  0  0  0  0  0  0  0
   -2.6480    1.5060   -0.3660 C   0  0  0  0  0  0  0  0  0  0  0  0
    0.9020   -1.8760   -0.1850 C   0  0  0  0  0  0  0  0  0  0  0  0
    1.9100   -2.1970   -0.9730 C   0  0  0  0  0  0  0  0  0  0  0  0
    3.0890   -1.3750   -0.9420 N   0  0  0  0  0  0  0  0  0  0  0  0
  1  2  1  0
  2  3  1  0
  2  6  2  3
  3  4  2  0
  3  5  1  0
  6  7  1  0
  6 20  1  0
  7  8  2  0
  8  9  1  0
  8 18  1  0
  9 10  1  0
 10 11  1  0
 11 12  1  6
 11 13  1  0
 11 17  1  0
 13 14  1  0
 14 15  1  0
 15 16  1  0
 16 17  1  0
 18 19  2  0
 19 20  1  0
M  END
