
     RDKit          3D

 14 14  0  0  0  0  0  0  0  0999 V2000
    4.7590    1.1360   -0.9290 C   0  0  0  0  0  0  0  0  0  0  0  0
    3.3670    1.0590   -0.5860 O   0  0  0  0  0  0  0  0  0  0  0  0
    2.8040   -0.1140   -0.1100 C   0  0  0  0  0  0  0  0  0  0  0  0
    3.5650   -1.1070    0.0080 O   0  0  0  0  0  0  0  0  0  0  0  0
    1.3650   -0.2450    0.2590 C   0  0  1  0  0  0  0  0  0  0  0  0
    0.4570    0.0920   -0.8940 C   0  0  0  0  0  0  0  0  0  0  0  0
   -0.9610   -0.3420   -0.4530 C   0  0  2  0  0  0  0  0  0  0  0  0
   -1.9320   -0.1320   -1.5450 C   0  0  0  0  0  0  0  0  0  0  0  0
   -3.5910   -0.6090   -1.1350 S   0  0  0  0  0  0  0  0  0  0  0  0
   -4.4890    0.4170   -0.0030 C   0  0  0  0  0  0  0  0  0  0  0  0
   -1.2800    0.2060    0.8970 C   0  0  0  0  0  0  0  0  0  0  0  0
   -0.5740   -0.6380    1.9520 C   0  0  0  0  0  0  0  0  0  0  0  0
   -0.0040   -1.7500    1.3990 O   0  0  0  0  0  0  0  0  0  0  0  0
    1.1010   -1.5660    0.7080 N   0  0  0  0  0  0  0  0  0  0  0  0
  1  2  1  0
  2  3  1  0
  3  4  2  0
  5  3  1  6
  5  6  1  0
  5 14  1  0
  6  7  1  0
  7  8  1  6
  7 11  1  0
  8  9  1  0
  9 10  1  0
 11 12  1  0
 12 13  1  0
 13 14  1  0
M  END
