
     RDKit          3D

 13 13  0  0  0  0  0  0  0  0999 V2000
    3.2520   -0.2040    0.4460 C   0  0  0  0  0  0  0  0  0  0  0  0
    2.4320    0.7400   -0.2430 N   0  0  0  0  0  0  0  0  0  0  0  0
    2.8470    2.0890    0.0560 C   0  0  0  0  0  0  0  0  0  0  0  0
    1.0190    0.6480    0.0290 C   0  0  0  0  0  0  0  0  0  0  0  0
    0.4880   -0.6180   -0.5480 C   0  0  2  0  0  0  0  0  0  0  0  0
    0.7130   -0.6070   -1.9310 O   0  0  0  0  0  0  0  0  0  0  0  0
   -0.9970   -0.7990   -0.3120 C   0  0  2  0  0  0  0  0  0  0  0  0
   -1.3530   -2.1750   -0.8760 C   0  0  0  0  0  0  0  0  0  0  0  0
   -1.7970    0.3040   -0.9670 C   0  0  0  0  0  0  0  0  0  0  0  0
   -2.0210    1.3620   -0.0940 O   0  0  0  0  0  0  0  0  0  0  0  0
   -2.7640    1.0270    1.0120 C   0  0  0  0  0  0  0  0  0  0  0  0
   -2.6420   -0.4730    1.2150 C   0  0  0  0  0  0  0  0  0  0  0  0
   -1.3210   -0.8260    1.0270 O   0  0  0  0  0  0  0  0  0  0  0  0
  1  2  1  0
  2  3  1  0
  2  4  1  0
  4  5  1  0
  5  6  1  6
  5  7  1  0
  7  8  1  6
  7  9  1  0
  7 13  1  0
  9 10  1  0
 10 11  1  0
 11 12  1  0
 12 13  1  0
M  END
