
     RDKit          3D

 14 14  0  0  0  0  0  0  0  0999 V2000
   -5.3350   -0.4420   -0.8290 C   0  0  0  0  0  0  0  0  0  0  0  0
   -4.1670   -0.7790    0.0700 C   0  0  0  0  0  0  0  0  0  0  0  0
   -3.1880    0.2000   -0.1170 O   0  0  0  0  0  0  0  0  0  0  0  0
   -2.0030    0.1290    0.5950 C   0  0  0  0  0  0  0  0  0  0  0  0
   -1.8520   -0.8270    1.3930 O   0  0  0  0  0  0  0  0  0  0  0  0
   -0.9510    1.1380    0.4250 C   0  0  0  0  0  0  0  0  0  0  0  0
    0.2370    0.8380    1.2930 C   0  0  1  0  0  0  0  0  0  0  0  0
    0.8300   -0.4940    0.9510 C   0  0  0  0  0  0  0  0  0  0  0  0
    2.2710   -0.5160    1.0960 N   0  0  0  0  0  0  0  0  0  0  0  0
    2.8700    0.5120    0.3110 C   0  0  1  0  0  0  0  0  0  0  0  0
    3.5680   -0.1190   -1.2370 S   0  0  0  0  0  0  0  0  0  0  0  0
    4.9560   -1.2070   -0.8780 C   0  0  0  0  0  0  0  0  0  0  0  0
    1.9590    1.6840    0.0600 C   0  0  0  0  0  0  0  0  0  0  0  0
    1.1910    1.8650    1.2150 O   0  0  0  0  0  0  0  0  0  0  0  0
  1  2  1  0
  2  3  1  0
  3  4  1  0
  4  5  2  0
  4  6  1  0
  7  6  1  6
  7  8  1  0
  7 14  1  0
  8  9  1  0
  9 10  1  0
 10 11  1  6
 10 13  1  0
 11 12  1  0
 13 14  1  0
M  END
