
     RDKit          3D

 14 14  0  0  0  0  0  0  0  0999 V2000
    4.4530   -0.4750   -0.9300 C   0  0  0  0  0  0  0  0  0  0  0  0
    4.2720   -0.0780    0.5200 C   0  0  0  0  0  0  0  0  0  0  0  0
    2.9580   -0.1740    0.9710 O   0  0  0  0  0  0  0  0  0  0  0  0
    1.8870    0.5300    0.4350 C   0  0  0  0  0  0  0  0  0  0  0  0
    2.1530    1.2960   -0.5180 O   0  0  0  0  0  0  0  0  0  0  0  0
    0.5250    0.3770    0.9620 C   0  0  0  0  0  0  0  0  0  0  0  0
   -0.5440    1.1250    0.2080 C   0  0  2  0  0  0  0  0  0  0  0  0
   -2.0970    0.7470    1.1540 S   0  0  0  0  0  0  0  0  0  0  0  0
   -2.8820   -0.5290    0.0900 C   0  0  1  0  0  0  0  0  0  0  0  0
   -4.0470   -1.1800    0.7380 C   0  0  0  0  0  0  0  0  0  0  0  0
   -3.2360    0.2410   -1.1850 C   0  0  0  0  0  0  0  0  0  0  0  0
   -2.0040    0.6470   -1.8270 N   0  0  0  0  0  0  0  0  0  0  0  0
   -0.7390    0.6210   -1.1830 C   0  0  0  0  0  0  0  0  0  0  0  0
    0.2550    0.1650   -1.7810 O   0  0  0  0  0  0  0  0  0  0  0  0
  1  2  1  0
  2  3  1  0
  3  4  1  0
  4  5  2  0
  4  6  1  0
  7  6  1  1
  7  8  1  0
  7 13  1  0
  8  9  1  0
  9 10  1  1
  9 11  1  0
 11 12  1  0
 12 13  1  0
 13 14  2  0
M  END
