
     RDKit          3D

 13 13  0  0  0  0  0  0  0  0999 V2000
   -4.8470   -1.0660    0.0070 C   0  0  0  0  0  0  0  0  0  0  0  0
   -3.0990   -1.1830   -0.5050 S   0  0  0  0  0  0  0  0  0  0  0  0
   -2.3870    0.4570   -0.3130 C   0  0  0  0  0  0  0  0  0  0  0  0
   -0.9430    0.5190   -0.7350 C   0  0  2  0  0  0  0  0  0  0  0  0
   -0.0830   -0.4130    0.0730 C   0  0  0  0  0  0  0  0  0  0  0  0
    1.2680   -0.0420    0.1510 N   0  0  0  0  0  0  0  0  0  0  0  0
    2.2770   -0.9980   -0.0030 C   0  0  0  0  0  0  0  0  0  0  0  0
    2.2840   -1.9420    1.1900 C   0  0  0  0  0  0  0  0  0  0  0  0
    3.3040   -2.9000    1.0240 O   0  0  0  0  0  0  0  0  0  0  0  0
    1.5790    1.3280    0.1640 C   0  0  1  0  0  0  0  0  0  0  0  0
    2.0930    1.8880   -1.1330 C   0  0  0  0  0  0  0  0  0  0  0  0
    0.2630    2.0740    0.4570 C   0  0  0  0  0  0  0  0  0  0  0  0
   -0.5360    1.8370   -0.6620 O   0  0  0  0  0  0  0  0  0  0  0  0
  1  2  1  0
  2  3  1  0
  4  3  1  1
  4  5  1  0
  4 13  1  0
  5  6  1  0
  6  7  1  0
  6 10  1  0
  7  8  1  0
  8  9  1  0
 10 11  1  6
 10 12  1  0
 12 13  1  0
M  END
