
     RDKit          3D

 33 36  0  0  0  0  0  0  0  0999 V2000
   -7.9420    0.6190    1.6020 C   0  0  0  0  0  0  0  0  0  0  0  0
   -7.7540   -0.6970    0.9230 C   0  0  1  0  0  0  0  0  0  0  0  0
   -9.1020   -1.1680    0.4140 C   0  0  0  0  0  0  0  0  0  0  0  0
   -6.7830   -0.5730   -0.2070 C   0  0  0  0  0  0  0  0  0  0  0  0
   -6.9940   -0.8150   -1.4880 C   0  0  0  0  0  0  0  0  0  0  0  0
   -8.1660   -1.2310   -2.0170 F   0  0  0  0  0  0  0  0  0  0  0  0
   -5.7600   -0.5600   -2.2200 C   0  0  0  0  0  0  0  0  0  0  0  0
   -5.5210   -0.6680   -3.4720 N   0  0  0  0  0  0  0  0  0  0  0  0
   -4.7830   -0.1340   -1.2060 C   0  0  0  0  0  0  0  0  0  0  0  0
   -5.3960   -0.1490   -0.0490 C   0  0  0  0  0  0  0  0  0  0  0  0
   -4.7860    0.2000    1.2850 C   0  0  0  0  0  0  0  0  0  0  0  0
   -3.4450    0.5530    1.2040 O   0  0  0  0  0  0  0  0  0  0  0  0
   -2.4170   -0.2690    0.7920 C   0  0  0  0  0  0  0  0  0  0  0  0
   -2.6800   -1.4470    0.4600 O   0  0  0  0  0  0  0  0  0  0  0  0
   -1.0970    0.2280    0.7530 C   0  0  0  0  0  0  0  0  0  0  0  0
   -0.5020    1.3970    1.0330 C   0  0  0  0  0  0  0  0  0  0  0  0
    0.8120    1.5890    0.8980 C   0  0  0  0  0  0  0  0  0  0  0  0
    1.5740    0.5310    0.4520 C   0  0  0  0  0  0  0  0  0  0  0  0
    3.0030    0.3850    0.1940 C   0  0  0  0  0  0  0  0  0  0  0  0
    3.6050   -0.7200   -0.2440 N   0  0  0  0  0  0  0  0  0  0  0  0
    4.9040   -0.5420   -0.3800 N   0  0  0  0  0  0  0  0  0  0  0  0
    5.1920    0.7130   -0.0270 C   0  0  0  0  0  0  0  0  0  0  0  0
    6.5200    1.3090   -0.0360 C   0  0  0  0  0  0  0  0  0  0  0  0
    6.6930    2.5210    0.3200 O   0  0  0  0  0  0  0  0  0  0  0  0
    7.6210    0.5190   -0.4480 N   0  0  0  0  0  0  0  0  0  0  0  0
    8.9810    0.9590   -0.5100 C   0  0  0  0  0  0  0  0  0  0  0  0
    9.6250    0.1210   -1.5900 C   0  0  0  0  0  0  0  0  0  0  0  0
    8.9140   -1.2080   -1.4020 C   0  0  1  0  0  0  0  0  0  0  0  0
    9.6010   -1.8760   -0.3720 O   0  0  0  0  0  0  0  0  0  0  0  0
    7.5530   -0.8540   -0.8700 C   0  0  0  0  0  0  0  0  0  0  0  0
    4.0060    1.3110    0.3370 C   0  0  0  0  0  0  0  0  0  0  0  0
    3.8080    2.9570    0.8850 Cl  0  0  0  0  0  0  0  0  0  0  0  0
    0.3530   -0.7880    0.2170 S   0  0  0  0  0  0  0  0  0  0  0  0
  2  1  1  6
  2  3  1  0
  2  4  1  0
  4  5  2  0
  4 10  1  0
  5  6  1  0
  5  7  1  0
  7  8  2  0
  7  9  1  0
  9 10  2  0
 10 11  1  0
 11 12  1  0
 12 13  1  0
 13 14  2  0
 13 15  1  0
 15 16  2  0
 15 33  1  0
 16 17  1  0
 17 18  2  0
 18 19  1  0
 18 33  1  0
 19 20  1  0
 19 31  2  0
 20 21  1  0
 21 22  2  0
 22 23  1  0
 22 31  1  0
 23 24  2  0
 23 25  1  0
 25 26  1  0
 25 30  1  0
 26 27  1  0
 27 28  1  0
 28 29  1  1
 28 30  1  0
 31 32  1  0
M  CHG  1   8   1
M  END
