
     RDKit          3D

 33 36  0  0  0  0  0  0  0  0999 V2000
    4.0340    2.8590   -0.7050 O   0  0  0  0  0  0  0  0  0  0  0  0
    4.7560    1.9530   -1.1820 C   0  0  0  0  0  0  0  0  0  0  0  0
    4.2040    0.6120   -1.0110 C   0  0  0  0  0  0  0  0  0  0  0  0
    4.8580   -0.5010   -0.8710 C   0  0  0  0  0  0  0  0  0  0  0  0
    3.9960   -1.5810   -0.7340 C   0  0  0  0  0  0  0  0  0  0  0  0
    2.6320   -1.3360   -0.7570 O   0  0  0  0  0  0  0  0  0  0  0  0
    2.0190   -1.0960    0.4880 C   0  0  0  0  0  0  0  0  0  0  0  0
    2.7000   -1.1090    1.5460 O   0  0  0  0  0  0  0  0  0  0  0  0
    0.5630   -0.8280    0.5170 C   0  0  2  0  0  0  0  0  0  0  0  0
    0.2030    0.4020   -0.2930 C   0  0  0  0  0  0  0  0  0  0  0  0
   -1.3190    0.5660   -0.1730 C   0  0  0  0  0  0  0  0  0  0  0  0
   -1.5730    0.9620    1.1760 N   0  0  1  0  0  0  0  0  0  0  0  0
   -2.9310    1.4610    1.3970 C   0  0  1  0  0  0  0  0  0  0  0  0
   -3.1370    2.7670    0.7770 C   0  0  0  0  0  0  0  0  0  0  0  0
   -4.1580    3.0150    0.0050 C   0  0  0  0  0  0  0  0  0  0  0  0
   -5.1730    2.0210   -0.3040 C   0  0  0  0  0  0  0  0  0  0  0  0
   -6.5300    2.3880   -1.3420 Cl  0  0  0  0  0  0  0  0  0  0  0  0
   -5.0280    0.8250    0.2360 C   0  0  0  0  0  0  0  0  0  0  0  0
   -6.0110   -0.2100   -0.0360 N   0  0  0  0  0  0  0  0  0  0  0  0
   -5.7330   -1.1850   -0.8190 C   0  0  0  0  0  0  0  0  0  0  0  0
   -4.5030   -1.2230   -1.3820 F   0  0  0  0  0  0  0  0  0  0  0  0
   -6.7220   -2.2620   -1.1170 C   0  0  0  0  0  0  0  0  0  0  0  0
   -6.2030   -3.4930   -0.7140 O   0  0  0  0  0  0  0  0  0  0  0  0
   -3.9310    0.4120    1.1190 C   0  0  0  0  0  0  0  0  0  0  0  0
   -1.3000   -0.1600    2.0500 C   0  0  0  0  0  0  0  0  0  0  0  0
    0.1470   -0.5640    1.9490 C   0  0  0  0  0  0  0  0  0  0  0  0
    4.4390   -2.8760   -0.5780 C   0  0  0  0  0  0  0  0  0  0  0  0
    5.7590   -3.1260   -0.5550 N   0  0  0  0  0  0  0  0  0  0  0  0
    6.6160   -2.1090   -0.6830 C   0  0  0  0  0  0  0  0  0  0  0  0
    6.1990   -0.7760   -0.8440 C   0  0  0  0  0  0  0  0  0  0  0  0
    7.2610   -0.0010   -0.9210 C   0  0  0  0  0  0  0  0  0  0  0  0
    7.3920    1.7620   -1.0940 S   0  0  0  0  0  0  0  0  0  0  0  0
    5.9430    2.4010   -1.7840 N   0  0  0  0  0  0  0  0  0  0  0  0
  1  2  2  0
  2  3  1  0
  2 33  1  0
  3  4  2  0
  4  5  1  0
  4 30  1  0
  5  6  1  0
  5 27  2  0
  6  7  1  0
  7  8  2  0
  9  7  1  1
  9 10  1  0
  9 26  1  0
 10 11  1  0
 12 11  1  6
 12 13  1  0
 12 25  1  0
 13 14  1  0
 13 24  1  6
 14 15  2  0
 15 16  1  0
 16 17  1  0
 16 18  2  0
 18 19  1  0
 18 24  1  0
 19 20  2  3
 20 21  1  0
 20 22  1  0
 22 23  1  0
 25 26  1  0
 27 28  1  0
 28 29  2  0
 29 30  1  0
 30 31  2  0
 31 32  1  0
 32 33  1  0
M  CHG  2  12   1  33   1
M  END
