
     RDKit          3D

 33 36  0  0  0  0  0  0  0  0999 V2000
   -2.9160    4.1530   -0.3400 C   0  0  0  0  0  0  0  0  0  0  0  0
   -3.4620    3.3350    0.8110 C   0  0  0  0  0  0  0  0  0  0  0  0
   -2.9220    1.9520    0.8410 C   0  0  0  0  0  0  0  0  0  0  0  0
   -3.6820    0.8770    0.6550 C   0  0  0  0  0  0  0  0  0  0  0  0
   -5.1230    1.1150    0.4020 C   0  0  0  0  0  0  0  0  0  0  0  0
   -3.1660   -0.4910    0.6640 C   0  0  0  0  0  0  0  0  0  0  0  0
   -3.9030   -1.5840    0.5870 C   0  0  0  0  0  0  0  0  0  0  0  0
   -3.3200   -2.9710    0.5850 C   0  0  0  0  0  0  0  0  0  0  0  0
   -4.4930   -3.8790    0.1990 C   0  0  0  0  0  0  0  0  0  0  0  0
   -5.5990   -2.9240   -0.2400 C   0  0  0  0  0  0  0  0  0  0  0  0
   -5.3100   -1.7420    0.5790 N   0  0  0  0  0  0  0  0  0  0  0  0
   -1.7040   -0.6250    0.8920 C   0  0  0  0  0  0  0  0  0  0  0  0
   -1.1760   -1.7570    0.9150 O   0  0  0  0  0  0  0  0  0  0  0  0
   -0.8820    0.4990    1.0880 N   0  0  0  0  0  0  0  0  0  0  0  0
    0.5500    0.2850    1.3060 C   0  0  0  0  0  0  0  0  0  0  0  0
    1.2250    0.2950   -0.0070 C   0  0  0  0  0  0  0  0  0  0  0  0
    0.5340    0.4720   -1.0410 O   0  0  0  0  0  0  0  0  0  0  0  0
    2.6410    0.1110   -0.1380 N   0  0  0  0  0  0  0  0  0  0  0  0
    3.1700    0.1340   -1.4690 C   0  0  0  0  0  0  0  0  0  0  0  0
    2.3770    0.2860   -2.5410 N   0  0  0  0  0  0  0  0  0  0  0  0
    2.7550    0.2990   -3.7840 N   0  0  0  0  0  0  0  0  0  0  0  0
    4.0600    0.1490   -4.0630 C   0  0  0  0  0  0  0  0  0  0  0  0
    4.9450   -0.0130   -3.0170 C   0  0  0  0  0  0  0  0  0  0  0  0
    4.5240   -0.0240   -1.7030 C   0  0  0  0  0  0  0  0  0  0  0  0
    5.4780   -0.1710   -0.6360 C   0  0  0  0  0  0  0  0  0  0  0  0
    6.3630   -1.2260   -0.6730 C   0  0  0  0  0  0  0  0  0  0  0  0
    7.3220   -1.4370    0.3000 C   0  0  0  0  0  0  0  0  0  0  0  0
    7.3880   -0.5400    1.3580 C   0  0  0  0  0  0  0  0  0  0  0  0
    8.3350   -0.7630    2.3040 F   0  0  0  0  0  0  0  0  0  0  0  0
    6.5060    0.5090    1.3920 C   0  0  0  0  0  0  0  0  0  0  0  0
    5.5570    0.7060    0.4150 C   0  0  0  0  0  0  0  0  0  0  0  0
   -1.4670    1.7660    1.0660 C   0  0  0  0  0  0  0  0  0  0  0  0
   -0.7740    2.7830    1.2370 O   0  0  0  0  0  0  0  0  0  0  0  0
  1  2  1  0
  2  3  1  0
  3  4  2  0
  3 32  1  0
  4  5  1  0
  4  6  1  0
  6  7  2  3
  6 12  1  0
  7  8  1  0
  7 11  1  0
  8  9  1  0
  9 10  1  0
 10 11  1  0
 12 13  2  0
 12 14  1  0
 14 15  1  0
 14 32  1  0
 15 16  1  0
 16 17  2  0
 16 18  1  0
 18 19  1  0
 19 20  2  0
 19 24  1  0
 20 21  1  0
 21 22  2  0
 22 23  1  0
 23 24  2  0
 24 25  1  0
 25 26  2  0
 25 31  1  0
 26 27  1  0
 27 28  2  0
 28 29  1  0
 28 30  1  0
 30 31  2  0
 32 33  2  0
M  END
