
     RDKit          3D

 33 36  0  0  0  0  0  0  0  0999 V2000
   -1.3620   -0.5860    0.5330 O   0  0  0  0  0  0  0  0  0  0  0  0
   -1.5400   -0.7670   -0.6610 C   0  0  0  0  0  0  0  0  0  0  0  0
   -2.8960   -1.0400   -1.2450 C   0  0  0  0  0  0  0  0  0  0  0  0
   -3.9330   -0.9800   -0.1820 C   0  0  0  0  0  0  0  0  0  0  0  0
   -4.0770    0.3350    0.5150 C   0  0  2  0  0  0  0  0  0  0  0  0
   -5.1180    0.2010    1.4970 O   0  0  0  0  0  0  0  0  0  0  0  0
   -6.4590    0.1260    1.1570 C   0  0  0  0  0  0  0  0  0  0  0  0
   -7.3910   -0.5110    1.9560 C   0  0  0  0  0  0  0  0  0  0  0  0
   -8.7300   -0.5960    1.6350 C   0  0  0  0  0  0  0  0  0  0  0  0
   -9.1540   -0.0120    0.4520 C   0  0  0  0  0  0  0  0  0  0  0  0
  -10.4430   -0.0630    0.0870 F   0  0  0  0  0  0  0  0  0  0  0  0
   -8.2300    0.6250   -0.3500 C   0  0  0  0  0  0  0  0  0  0  0  0
   -6.8900    0.7020   -0.0140 C   0  0  0  0  0  0  0  0  0  0  0  0
   -5.9390    1.3580   -0.8400 N   0  0  0  0  0  0  0  0  0  0  0  0
   -4.5770    1.3940   -0.4240 C   0  0  0  0  0  0  0  0  0  0  0  0
   -3.8380    2.3030   -0.8500 O   0  0  0  0  0  0  0  0  0  0  0  0
   -0.4620   -0.7320   -1.5830 N   0  0  0  0  0  0  0  0  0  0  0  0
    0.8970   -0.4970   -1.2850 C   0  0  0  0  0  0  0  0  0  0  0  0
    1.3010   -0.2700    0.0040 C   0  0  0  0  0  0  0  0  0  0  0  0
    2.6610   -0.0430    0.2390 C   0  0  0  0  0  0  0  0  0  0  0  0
    3.5580   -0.0500   -0.8080 C   0  0  0  0  0  0  0  0  0  0  0  0
    3.1430   -0.2790   -2.1070 C   0  0  0  0  0  0  0  0  0  0  0  0
    1.8060   -0.5040   -2.3460 C   0  0  0  0  0  0  0  0  0  0  0  0
    1.2340   -0.8020   -3.9970 Cl  0  0  0  0  0  0  0  0  0  0  0  0
    5.0130    0.1630   -0.7920 C   0  0  0  0  0  0  0  0  0  0  0  0
    5.6480   -0.2550    0.4320 N   0  0  1  0  0  0  0  0  0  0  0  0
    7.0300   -0.5250    0.1790 C   0  0  0  0  0  0  0  0  0  0  0  0
    7.7850    0.6940   -0.3030 C   0  0  0  0  0  0  0  0  0  0  0  0
    9.5290    0.3120   -0.6110 S   0  0  0  0  0  0  0  0  0  0  0  0
    5.5000    0.7170    1.4950 C   0  0  0  0  0  0  0  0  0  0  0  0
    4.2510    0.3450    2.2400 C   0  0  0  0  0  0  0  0  0  0  0  0
    4.3140    0.1690    3.4680 O   0  0  0  0  0  0  0  0  0  0  0  0
    2.9790    0.1820    1.6060 N   0  0  0  0  0  0  0  0  0  0  0  0
  1  2  2  0
  2  3  1  0
  2 17  1  0
  3  4  1  0
  5  4  1  6
  5  6  1  0
  5 15  1  0
  6  7  1  0
  7  8  2  0
  7 13  1  0
  8  9  1  0
  9 10  2  0
 10 11  1  0
 10 12  1  0
 12 13  2  0
 13 14  1  0
 14 15  1  0
 15 16  2  0
 17 18  1  0
 18 19  2  0
 18 23  1  0
 19 20  1  0
 20 21  2  0
 20 33  1  0
 21 22  1  0
 21 25  1  0
 22 23  2  0
 23 24  1  0
 25 26  1  0
 26 27  1  6
 26 30  1  0
 27 28  1  0
 28 29  1  0
 30 31  1  0
 31 32  2  0
 31 33  1  0
M  CHG  1  26   1
M  END
