
     RDKit          3D

 33 36  0  0  0  0  0  0  0  0999 V2000
    7.9500   -0.7090    1.7700 C   0  0  0  0  0  0  0  0  0  0  0  0
    7.0540   -0.0280    0.9960 C   0  0  0  0  0  0  0  0  0  0  0  0
    5.7800   -0.6330    0.6470 C   0  0  0  0  0  0  0  0  0  0  0  0
    4.9970   -0.0550   -0.2570 C   0  0  0  0  0  0  0  0  0  0  0  0
    3.8280   -0.6280   -0.5990 N   0  0  0  0  0  0  0  0  0  0  0  0
    3.0170   -0.1150   -1.4680 C   0  0  0  0  0  0  0  0  0  0  0  0
    1.8500   -0.8390   -2.0360 C   0  0  0  0  0  0  0  0  0  0  0  0
    0.7080   -0.5640   -1.2710 N   0  0  0  0  0  0  0  0  0  0  0  0
    0.3040   -0.7360    0.0480 C   0  0  0  0  0  0  0  0  0  0  0  0
    1.1050   -1.3550    0.8170 O   0  0  0  0  0  0  0  0  0  0  0  0
   -0.9710   -0.2010    0.5170 C   0  0  1  0  0  0  0  0  0  0  0  0
   -1.7550    0.3560   -0.6960 C   0  0  0  0  0  0  0  0  0  0  0  0
   -2.3580   -1.0350   -1.6330 S   0  0  0  0  0  0  0  0  0  0  0  0
   -2.3950   -2.5910   -0.7610 C   0  0  0  0  0  0  0  0  0  0  0  0
   -1.6770   -2.5190    0.5980 C   0  0  0  0  0  0  0  0  0  0  0  0
   -1.9210   -1.2080    1.1800 C   0  0  2  0  0  0  0  0  0  0  0  0
   -3.2350   -0.7600    0.7190 O   0  0  0  0  0  0  0  0  0  0  0  0
   -4.0500    0.0690    1.4510 C   0  0  0  0  0  0  0  0  0  0  0  0
   -3.6340    0.4130    2.5560 O   0  0  0  0  0  0  0  0  0  0  0  0
   -5.3470    0.5250    0.8950 C   0  0  0  0  0  0  0  0  0  0  0  0
   -6.0350    1.4250    1.5850 C   0  0  0  0  0  0  0  0  0  0  0  0
   -7.3180    1.9270    1.0920 C   0  0  0  0  0  0  0  0  0  0  0  0
   -7.9310    1.1870    0.0530 N   0  0  0  0  0  0  0  0  0  0  0  0
   -7.2010    0.2510   -0.7170 C   0  0  0  0  0  0  0  0  0  0  0  0
   -7.6680   -0.2800   -1.7500 O   0  0  0  0  0  0  0  0  0  0  0  0
   -5.8660   -0.0890   -0.2620 N   0  0  0  0  0  0  0  0  0  0  0  0
    3.3510    1.1080   -2.0910 C   0  0  0  0  0  0  0  0  0  0  0  0
    2.2160    1.7910   -3.2470 Cl  0  0  0  0  0  0  0  0  0  0  0  0
    4.4950    1.7190   -1.7760 C   0  0  0  0  0  0  0  0  0  0  0  0
    5.3670    1.1580   -0.8340 C   0  0  0  0  0  0  0  0  0  0  0  0
    6.4630    1.7990   -0.5180 C   0  0  0  0  0  0  0  0  0  0  0  0
    7.4150    1.3120    0.4780 C   0  0  1  0  0  0  0  0  0  0  0  0
    7.3920    2.2200    1.5610 F   0  0  0  0  0  0  0  0  0  0  0  0
  1  2  2  0
  2  3  1  0
  2 32  1  0
  3  4  2  0
  4  5  1  0
  4 30  1  0
  5  6  2  0
  6  7  1  0
  6 27  1  0
  7  8  1  0
  8  9  1  0
  9 10  2  0
 11  9  1  6
 11 12  1  0
 11 16  1  0
 12 13  1  0
 13 14  1  0
 14 15  1  0
 15 16  1  0
 16 17  1  6
 17 18  1  0
 18 19  2  0
 18 20  1  0
 20 21  2  0
 20 26  1  0
 21 22  1  0
 22 23  1  0
 23 24  1  0
 24 25  2  0
 24 26  1  0
 27 28  1  0
 27 29  2  0
 29 30  1  0
 30 31  2  0
 31 32  1  0
 32 33  1  1
M  END
