
     RDKit          3D

 21 21  0  0  0  0  0  0  0  0999 V2000
    1.3720   -4.0210   -1.6970 O   0  0  0  0  0  0  0  0  0  0  0  0
    1.0390   -3.1190   -0.8390 C   0  0  0  0  0  0  0  0  0  0  0  0
    1.7300   -1.9140   -0.8350 O   0  0  0  0  0  0  0  0  0  0  0  0
    2.2690   -1.3080    0.3250 C   0  0  2  0  0  0  0  0  0  0  0  0
    1.5270   -1.5200    1.4600 O   0  0  0  0  0  0  0  0  0  0  0  0
    2.5240    0.1690    0.1170 C   0  0  0  0  0  0  0  0  0  0  0  0
    1.7960    0.5770   -1.0460 N   0  0  0  0  0  0  0  0  0  0  0  0
    0.8900    1.6320   -1.1700 C   0  0  0  0  0  0  0  0  0  0  0  0
    0.9410    2.2890   -2.2690 O   0  0  0  0  0  0  0  0  0  0  0  0
   -0.1150    2.0900   -0.2140 C   0  0  2  0  0  0  0  0  0  0  0  0
    0.2260    3.5140    0.2520 C   0  0  0  0  0  0  0  0  0  0  0  0
    1.3950    3.4010    0.9940 O   0  0  0  0  0  0  0  0  0  0  0  0
   -0.2910    1.3010    0.9540 N   0  0  0  0  0  0  0  0  0  0  0  0
   -1.1820    0.1960    0.9470 C   0  0  0  0  0  0  0  0  0  0  0  0
   -1.8300   -0.1060    1.9980 O   0  0  0  0  0  0  0  0  0  0  0  0
   -1.4340   -0.6740   -0.2280 C   0  0  2  0  0  0  0  0  0  0  0  0
   -2.8570   -0.3570   -0.6960 C   0  0  0  0  0  0  0  0  0  0  0  0
   -3.8030   -0.6010    0.2660 O   0  0  0  0  0  0  0  0  0  0  0  0
   -1.4080   -2.4190    0.3460 P   0  0  0  0  0  0  0  0  0  0  0  0
   -2.8500   -3.2790   -0.0340 O   0  0  0  0  0  0  0  0  0  0  0  0
    0.0370   -3.2840    0.0730 O   0  0  0  0  0  0  0  0  0  0  0  0
  1  2  2  0
  2  3  1  0
  2 21  1  0
  3  4  1  0
  4  5  1  1
  4  6  1  0
  6  7  1  0
  7  8  1  0
  8  9  2  0
  8 10  1  0
 10 11  1  1
 10 13  1  0
 11 12  1  0
 13 14  1  0
 14 15  2  0
 14 16  1  0
 16 17  1  1
 16 19  1  0
 17 18  1  0
 19 20  1  0
 19 21  1  0
M  END
