
     RDKit          3D

 18 19  0  0  0  0  0  0  0  0999 V2000
    5.5450    0.0580   -0.6820 O   0  0  0  0  0  0  0  0  0  0  0  0
    4.4450   -0.4210   -0.3560 C   0  0  0  0  0  0  0  0  0  0  0  0
    4.1270   -1.5220    0.4340 O   0  0  0  0  0  0  0  0  0  0  0  0
    2.8930   -1.9660    0.0820 O   0  0  0  0  0  0  0  0  0  0  0  0
    2.2540   -0.8840   -0.4780 C   0  0  1  0  0  0  0  0  0  0  0  0
    1.1380   -0.3380    0.4030 C   0  0  2  0  0  0  0  0  0  0  0  0
    0.2310   -1.4160    0.5560 O   0  0  0  0  0  0  0  0  0  0  0  0
   -0.9930   -0.9640    0.1370 C   0  0  0  0  0  0  0  0  0  0  0  0
   -2.0130   -2.0410   -0.0870 C   0  0  0  0  0  0  0  0  0  0  0  0
   -3.3320   -1.3020   -0.3600 C   0  0  0  0  0  0  0  0  0  0  0  0
   -3.2910   -0.0100    0.1350 O   0  0  0  0  0  0  0  0  0  0  0  0
   -2.7990    0.8390   -0.7570 O   0  0  0  0  0  0  0  0  0  0  0  0
   -2.4760    1.9700   -0.2130 O   0  0  0  0  0  0  0  0  0  0  0  0
   -1.3050    2.4260   -0.5460 O   0  0  0  0  0  0  0  0  0  0  0  0
   -0.4580    2.6630    0.5110 C   0  0  0  0  0  0  0  0  0  0  0  0
    0.8720    1.9560    0.2190 C   0  0  0  0  0  0  0  0  0  0  0  0
    0.5740    0.7190   -0.2730 O   0  0  0  0  0  0  0  0  0  0  0  0
    3.2140    0.1010   -0.7560 O   0  0  0  0  0  0  0  0  0  0  0  0
  1  2  2  0
  2  3  1  0
  2 18  1  0
  3  4  1  0
  5  4  1  1
  5  6  1  0
  5 18  1  0
  6  7  1  6
  6 17  1  0
  7  8  1  0
  8  9  1  0
  9 10  1  0
 10 11  1  0
 11 12  1  0
 12 13  1  0
 13 14  1  0
 14 15  1  0
 15 16  1  0
 16 17  1  0
M  END
