
     RDKit          3D

 16 16  0  0  0  0  0  0  0  0999 V2000
    3.5840   -0.6430    1.2410 O   0  0  0  0  0  0  0  0  0  0  0  0
    3.6870   -0.0490   -0.1330 P   0  0  1  0  0  0  0  0  0  0  0  0
    4.5670    1.3980    0.0110 O   0  0  0  0  0  0  0  0  0  0  0  0
    4.5790   -1.1080   -1.1160 O   0  0  0  0  0  0  0  0  0  0  0  0
    2.1970    0.3050   -0.8170 O   0  0  0  0  0  0  0  0  0  0  0  0
    1.1290   -0.2620   -0.1430 C   0  0  0  0  0  0  0  0  0  0  0  0
   -0.0590   -0.3220   -1.0530 C   0  0  1  0  0  0  0  0  0  0  0  0
   -0.9010   -1.3540   -0.6930 O   0  0  0  0  0  0  0  0  0  0  0  0
   -1.5610   -1.1040    0.4960 C   0  0  2  0  0  0  0  0  0  0  0  0
   -2.2170   -2.2270    0.9580 O   0  0  0  0  0  0  0  0  0  0  0  0
   -2.5630    0.0090    0.2560 C   0  0  1  0  0  0  0  0  0  0  0  0
   -3.4100    0.1820    1.3340 O   0  0  0  0  0  0  0  0  0  0  0  0
   -1.7440    1.2540   -0.0430 C   0  0  1  0  0  0  0  0  0  0  0  0
   -1.0710    1.6930    1.0830 O   0  0  0  0  0  0  0  0  0  0  0  0
   -0.8150    0.9630   -1.1850 C   0  0  2  0  0  0  0  0  0  0  0  0
   -1.6230    0.8200   -2.3270 O   0  0  0  0  0  0  0  0  0  0  0  0
  1  2  2  0
  2  3  1  1
  2  4  1  0
  2  5  1  0
  5  6  1  0
  7  6  1  1
  7  8  1  0
  7 15  1  0
  8  9  1  0
  9 10  1  6
  9 11  1  0
 11 12  1  1
 11 13  1  0
 13 14  1  1
 13 15  1  0
 15 16  1  6
M  END
