
     RDKit          3D

 18 18  0  0  0  0  0  0  0  0999 V2000
    3.5060    0.6340    1.1900 O   0  0  0  0  0  0  0  0  0  0  0  0
    3.9120   -0.4690    0.7530 C   0  0  0  0  0  0  0  0  0  0  0  0
    5.2890   -0.7010    0.6990 O   0  0  0  0  0  0  0  0  0  0  0  0
    2.9870   -1.4180    0.3390 O   0  0  0  0  0  0  0  0  0  0  0  0
    1.6890   -1.1040    0.4280 O   0  0  0  0  0  0  0  0  0  0  0  0
    1.2730   -0.2460   -0.5810 C   0  0  2  0  0  0  0  0  0  0  0  0
    0.8300    1.1000   -0.0270 C   0  0  0  0  0  0  0  0  0  0  0  0
   -0.4160    1.3890   -0.5720 O   0  0  0  0  0  0  0  0  0  0  0  0
   -0.9960    2.5140   -0.0460 C   0  0  0  0  0  0  0  0  0  0  0  0
   -2.2280    2.1040    0.7380 C   0  0  0  0  0  0  0  0  0  0  0  0
   -2.9140    1.1530    0.0110 O   0  0  0  0  0  0  0  0  0  0  0  0
   -2.9390   -0.0270    0.6370 O   0  0  0  0  0  0  0  0  0  0  0  0
   -2.9120   -0.9380   -0.2900 O   0  0  0  0  0  0  0  0  0  0  0  0
   -2.5690   -2.1900    0.1410 C   0  0  0  0  0  0  0  0  0  0  0  0
   -1.0390   -2.2550    0.1860 C   0  0  0  0  0  0  0  0  0  0  0  0
   -0.4710   -1.9600   -1.0560 O   0  0  0  0  0  0  0  0  0  0  0  0
    0.2130   -0.8500   -1.4280 C   0  0  0  0  0  0  0  0  0  0  0  0
   -0.0050   -0.2570   -2.5160 O   0  0  0  0  0  0  0  0  0  0  0  0
  1  2  2  0
  2  3  1  0
  2  4  1  0
  4  5  1  0
  6  5  1  1
  6  7  1  0
  6 17  1  0
  7  8  1  0
  8  9  1  0
  9 10  1  0
 10 11  1  0
 11 12  1  0
 12 13  1  0
 13 14  1  0
 14 15  1  0
 15 16  1  0
 16 17  1  0
 17 18  2  0
M  END
