
     RDKit          3D

 18 18  0  0  0  0  0  0  0  0999 V2000
    3.6540    2.5630    0.1610 O   0  0  0  0  0  0  0  0  0  0  0  0
    4.6000    1.8400   -0.3780 O   0  0  0  0  0  0  0  0  0  0  0  0
    4.3200    0.5560   -0.2260 O   0  0  0  0  0  0  0  0  0  0  0  0
    3.0780    0.2770   -0.5360 O   0  0  0  0  0  0  0  0  0  0  0  0
    2.5860   -0.5720    0.4430 C   0  0  0  0  0  0  0  0  0  0  0  0
    1.2910   -1.2490    0.0090 C   0  0  1  0  0  0  0  0  0  0  0  0
    0.4880   -1.5040    1.2460 C   0  0  0  0  0  0  0  0  0  0  0  0
   -0.1030   -0.3770    1.7860 O   0  0  0  0  0  0  0  0  0  0  0  0
   -1.3690   -0.5780    2.1300 O   0  0  0  0  0  0  0  0  0  0  0  0
   -2.0270    0.6300    2.2560 C   0  0  0  0  0  0  0  0  0  0  0  0
   -3.0860    0.8640    1.2190 C   0  0  0  0  0  0  0  0  0  0  0  0
   -2.6480    1.6930    0.1740 O   0  0  0  0  0  0  0  0  0  0  0  0
   -2.7090    1.0680   -0.9950 O   0  0  0  0  0  0  0  0  0  0  0  0
   -1.7870    0.0430   -0.9360 C   0  0  0  0  0  0  0  0  0  0  0  0
   -1.2460   -0.3920   -2.2640 C   0  0  1  0  0  0  0  0  0  0  0  0
   -1.1150    0.6310   -3.1830 O   0  0  0  0  0  0  0  0  0  0  0  0
    0.0820   -1.0820   -1.9670 C   0  0  0  0  0  0  0  0  0  0  0  0
    0.6960   -0.4270   -0.9160 O   0  0  0  0  0  0  0  0  0  0  0  0
  1  2  1  0
  2  3  1  0
  3  4  1  0
  4  5  1  0
  6  5  1  1
  6  7  1  0
  6 18  1  0
  7  8  1  0
  8  9  1  0
  9 10  1  0
 10 11  1  0
 11 12  1  0
 12 13  1  0
 13 14  1  0
 14 15  1  0
 15 16  1  6
 15 17  1  0
 17 18  1  0
M  END
