
     RDKit          3D

 35 37  0  0  0  0  0  0  0  0999 V2000
   -6.0340    2.4040    1.0510 C   0  0  0  0  0  0  0  0  0  0  0  0
   -5.3430    1.2140    1.1070 O   0  0  0  0  0  0  0  0  0  0  0  0
   -4.7070    0.9830   -0.1070 C   0  0  2  0  0  0  0  0  0  0  0  0
   -5.2300   -0.1600   -0.7160 O   0  0  0  0  0  0  0  0  0  0  0  0
   -5.1210   -1.2830    0.0700 C   0  0  2  0  0  0  0  0  0  0  0  0
   -6.3240   -1.5400    0.9310 C   0  0  0  0  0  0  0  0  0  0  0  0
   -7.4460   -1.7110    0.1480 O   0  0  0  0  0  0  0  0  0  0  0  0
   -3.8620   -1.2670    0.9200 C   0  0  1  0  0  0  0  0  0  0  0  0
   -3.4590   -2.5400    1.2990 O   0  0  0  0  0  0  0  0  0  0  0  0
   -2.7920   -0.5470    0.1260 C   0  0  2  0  0  0  0  0  0  0  0  0
   -1.5380   -0.6750    0.7130 O   0  0  0  0  0  0  0  0  0  0  0  0
   -0.5900   -1.2420   -0.1220 C   0  0  1  0  0  0  0  0  0  0  0  0
    0.5290   -0.2210   -0.2920 C   0  0  0  0  0  0  0  0  0  0  0  0
    1.8710   -0.9750   -0.3900 C   0  0  2  0  0  0  0  0  0  0  0  0
    2.8570   -0.1460   -0.8490 O   0  0  0  0  0  0  0  0  0  0  0  0
    3.8390    0.1790    0.0820 C   0  0  2  0  0  0  0  0  0  0  0  0
    3.8360    1.5200    0.3020 O   0  0  0  0  0  0  0  0  0  0  0  0
    5.0010    2.1920    0.3790 C   0  0  1  0  0  0  0  0  0  0  0  0
    4.7630    3.5360    1.0330 C   0  0  0  0  0  0  0  0  0  0  0  0
    6.1160    1.5150    1.1160 C   0  0  2  0  0  0  0  0  0  0  0  0
    7.3170    1.9600    0.5670 O   0  0  0  0  0  0  0  0  0  0  0  0
    6.0890    0.0120    0.9500 C   0  0  1  0  0  0  0  0  0  0  0  0
    5.4130   -0.5190    2.0460 O   0  0  0  0  0  0  0  0  0  0  0  0
    5.2130   -0.2980   -0.2790 C   0  0  1  0  0  0  0  0  0  0  0  0
    5.2870   -1.6590   -0.5470 O   0  0  0  0  0  0  0  0  0  0  0  0
    1.5740   -2.1690   -1.2610 C   0  0  1  0  0  0  0  0  0  0  0  0
    2.7040   -2.8010   -1.7580 O   0  0  0  0  0  0  0  0  0  0  0  0
    0.7050   -3.1250   -0.4810 C   0  0  2  0  0  0  0  0  0  0  0  0
   -0.1600   -3.9490   -1.4200 C   0  0  0  0  0  0  0  0  0  0  0  0
   -0.0830   -2.4360    0.3930 O   0  0  0  0  0  0  0  0  0  0  0  0
   -3.2190    0.9220    0.0610 C   0  0  1  0  0  0  0  0  0  0  0  0
   -2.5120    1.6120   -1.0000 N   0  0  0  0  0  0  0  0  0  0  0  0
   -1.6200    2.6790   -0.6800 C   0  0  0  0  0  0  0  0  0  0  0  0
   -0.8970    3.3820   -1.7680 C   0  0  0  0  0  0  0  0  0  0  0  0
   -1.4700    2.9970    0.5220 O   0  0  0  0  0  0  0  0  0  0  0  0
  1  2  1  0
  3  2  1  1
  3  4  1  0
  3 31  1  0
  4  5  1  0
  5  6  1  1
  5  8  1  0
  6  7  1  0
  8  9  1  6
  8 10  1  0
 10 11  1  1
 10 31  1  0
 12 11  1  1
 12 13  1  0
 12 30  1  0
 13 14  1  0
 14 15  1  6
 14 26  1  0
 16 15  1  6
 16 17  1  0
 16 24  1  0
 17 18  1  0
 18 19  1  1
 18 20  1  0
 20 21  1  6
 20 22  1  0
 22 23  1  1
 22 24  1  0
 24 25  1  1
 26 27  1  1
 26 28  1  0
 28 29  1  6
 28 30  1  0
 31 32  1  6
 32 33  1  0
 33 34  1  0
 33 35  2  0
M  END
