
     RDKit          3D

 35 39  0  0  0  0  0  0  0  0999 V2000
    0.7350   -2.9950   -0.5260 O   0  0  0  0  0  0  0  0  0  0  0  0
   -0.1200   -2.1450   -1.0970 C   0  0  0  0  0  0  0  0  0  0  0  0
    0.5110   -1.6980   -2.2870 N   0  0  0  0  0  0  0  0  0  0  0  0
    1.1410   -0.5290   -2.7780 C   0  0  0  0  0  0  0  0  0  0  0  0
    2.5460   -0.2060   -2.3730 C   0  0  1  0  0  0  0  0  0  0  0  0
    2.9520    1.1910   -2.1810 C   0  0  0  0  0  0  0  0  0  0  0  0
    2.0000    2.3000   -2.0500 C   0  0  0  0  0  0  0  0  0  0  0  0
    1.7390    2.6330   -0.5740 C   0  0  0  0  0  0  0  0  0  0  0  0
    0.6690    1.7000   -0.0220 C   0  0  0  0  0  0  0  0  0  0  0  0
    0.6170    1.2700    1.2070 C   0  0  0  0  0  0  0  0  0  0  0  0
    1.6480    1.6720    2.2330 C   0  0  0  0  0  0  0  0  0  0  0  0
    2.8890    1.7990    2.3740 C   0  0  0  0  0  0  0  0  0  0  0  0
    4.1520    1.6640    1.7180 C   0  0  0  0  0  0  0  0  0  0  0  0
    4.7660    0.7510    1.1100 N   0  0  0  0  0  0  0  0  0  0  0  0
    4.3400   -0.6070    0.8500 C   0  0  0  0  0  0  0  0  0  0  0  0
    4.3560   -0.8240   -0.6820 C   0  0  0  0  0  0  0  0  0  0  0  0
    2.9710   -1.0200   -1.1490 C   0  0  0  0  0  0  0  0  0  0  0  0
   -0.4350    0.3700    1.8350 C   0  0  0  0  0  0  0  0  0  0  0  0
   -1.5890   -0.0920    1.1740 N   0  0  0  0  0  0  0  0  0  0  0  0
   -2.3140   -1.2480    1.5430 C   0  0  0  0  0  0  0  0  0  0  0  0
   -2.9650   -1.7080    2.5230 O   0  0  0  0  0  0  0  0  0  0  0  0
   -2.3210   -2.2860    0.3770 C   0  0  2  0  0  0  0  0  0  0  0  0
   -3.7690   -2.3260   -0.0600 C   0  0  0  0  0  0  0  0  0  0  0  0
   -3.9620   -3.7760   -0.5680 C   0  0  0  0  0  0  0  0  0  0  0  0
   -3.3300   -4.5140    0.5710 C   0  0  0  0  0  0  0  0  0  0  0  0
   -2.2510   -3.5990    1.0620 C   0  0  0  0  0  0  0  0  0  0  0  0
   -1.3880   -1.8110   -0.5580 N   0  0  0  0  0  0  0  0  0  0  0  0
   -1.9290   -0.5430   -1.1300 C   0  0  0  0  0  0  0  0  0  0  0  0
   -2.1430    0.4880   -0.0010 C   0  0  0  0  0  0  0  0  0  0  0  0
   -2.8040    1.5690   -0.3680 C   0  0  0  0  0  0  0  0  0  0  0  0
   -3.2420    2.6670    0.4280 C   0  0  0  0  0  0  0  0  0  0  0  0
   -3.7160    2.5820    1.7230 C   0  0  0  0  0  0  0  0  0  0  0  0
   -4.0280    3.8640    2.1150 C   0  0  0  0  0  0  0  0  0  0  0  0
   -3.7210    4.6650    1.0230 C   0  0  0  0  0  0  0  0  0  0  0  0
   -3.2690    3.9230    0.0720 O   0  0  0  0  0  0  0  0  0  0  0  0
  1  2  2  0
  2  3  1  0
  2 27  1  0
  3  4  1  0
  5  4  1  1
  5  6  1  0
  5 17  1  0
  6  7  1  0
  7  8  1  0
  8  9  1  0
  9 10  2  0
 10 11  1  0
 10 18  1  0
 11 12  2  0
 12 13  1  0
 13 14  2  0
 14 15  1  0
 15 16  1  0
 16 17  1  0
 18 19  1  0
 19 20  1  0
 19 29  1  0
 20 21  2  0
 20 22  1  0
 22 23  1  6
 22 26  1  0
 22 27  1  0
 23 24  1  0
 24 25  1  0
 25 26  1  0
 27 28  1  0
 28 29  1  0
 29 30  2  3
 30 31  1  0
 31 32  2  0
 31 35  1  0
 32 33  1  0
 33 34  2  0
 34 35  1  0
M  CHG  1  14   1
M  END
