
     RDKit          3D

 35 37  0  0  0  0  0  0  0  0999 V2000
   -7.6700    0.2970    1.5200 C   0  0  0  0  0  0  0  0  0  0  0  0
   -6.4450   -0.4080    1.4660 O   0  0  0  0  0  0  0  0  0  0  0  0
   -5.3560    0.2290    0.9060 C   0  0  0  0  0  0  0  0  0  0  0  0
   -5.4080    1.4960    0.4070 C   0  0  0  0  0  0  0  0  0  0  0  0
   -4.2740    2.0430   -0.1300 C   0  0  0  0  0  0  0  0  0  0  0  0
   -3.0820    1.3230   -0.1700 C   0  0  0  0  0  0  0  0  0  0  0  0
   -1.9400    1.8880   -0.7160 O   0  0  0  0  0  0  0  0  0  0  0  0
   -1.5830    1.7220   -2.3660 S   0  0  1  0  0  0  0  0  0  0  0  0
   -2.0250    3.2350   -3.2100 C   0  0  0  0  0  0  0  0  0  0  0  0
   -0.1480    1.4560   -2.6360 O   0  0  0  0  0  0  0  0  0  0  0  0
   -2.4060    0.6160   -3.0050 O   0  0  0  0  0  0  0  0  0  0  0  0
   -3.0220    0.0400    0.3330 C   0  0  0  0  0  0  0  0  0  0  0  0
   -1.7170   -0.7030    0.2670 C   0  0  2  0  0  0  0  0  0  0  0  0
   -1.9230   -1.9900    0.9720 C   0  0  0  0  0  0  0  0  0  0  0  0
   -0.7690   -2.9290    1.0760 C   0  0  1  0  0  0  0  0  0  0  0  0
    0.4210   -2.4400    1.8170 C   0  0  0  0  0  0  0  0  0  0  0  0
   -1.3280   -4.2180    1.6950 C   0  0  0  0  0  0  0  0  0  0  0  0
   -0.7150    0.2170    0.8500 C   0  0  0  0  0  0  0  0  0  0  0  0
   -1.1040    1.0140    1.7170 O   0  0  0  0  0  0  0  0  0  0  0  0
    0.6760    0.2180    0.4400 N   0  0  0  0  0  0  0  0  0  0  0  0
    1.6430    1.0860    0.9790 C   0  0  0  0  0  0  0  0  0  0  0  0
    1.4480    2.0250    1.9560 N   0  0  0  0  0  0  0  0  0  0  0  0
    2.5710    2.6690    2.2270 C   0  0  0  0  0  0  0  0  0  0  0  0
    2.7670    3.5960    3.0680 O   0  0  0  0  0  0  0  0  0  0  0  0
    3.5040    2.1650    1.4410 N   0  0  0  0  0  0  0  0  0  0  0  0
    2.9640    1.1740    0.6460 C   0  0  0  0  0  0  0  0  0  0  0  0
    3.7710    0.4360   -0.3180 C   0  0  0  0  0  0  0  0  0  0  0  0
    5.0630    0.7740   -0.5010 C   0  0  0  0  0  0  0  0  0  0  0  0
    5.9310    0.0880   -1.4410 C   0  0  0  0  0  0  0  0  0  0  0  0
    7.2410    0.1000   -1.3760 C   0  0  0  0  0  0  0  0  0  0  0  0
    7.8300    0.8180   -0.3370 O   0  0  0  0  0  0  0  0  0  0  0  0
    5.2770   -0.6710   -2.5340 C   0  0  0  0  0  0  0  0  0  0  0  0
    4.2260   -1.5060   -1.8560 C   0  0  0  0  0  0  0  0  0  0  0  0
    3.2110   -0.6710   -1.0810 C   0  0  0  0  0  0  0  0  0  0  0  0
   -4.1480   -0.4950    0.8630 C   0  0  0  0  0  0  0  0  0  0  0  0
  1  2  1  0
  2  3  1  0
  3  4  2  0
  3 35  1  0
  4  5  1  0
  5  6  2  0
  6  7  1  0
  6 12  1  0
  7  8  1  0
  8  9  1  6
  8 10  2  0
  8 11  2  0
 12 13  1  0
 12 35  2  0
 13 14  1  1
 13 18  1  0
 14 15  1  0
 15 16  1  1
 15 17  1  0
 18 19  2  0
 18 20  1  0
 20 21  1  0
 21 22  1  0
 21 26  2  0
 22 23  1  0
 23 24  2  0
 23 25  1  0
 25 26  1  0
 26 27  1  0
 27 28  2  0
 27 34  1  0
 28 29  1  0
 29 30  2  3
 29 32  1  0
 30 31  1  0
 32 33  1  0
 33 34  1  0
M  END
