
     RDKit          3D

 35 39  0  0  0  0  0  0  0  0999 V2000
   -1.8340   -1.8400   -2.6880 C   0  0  0  0  0  0  0  0  0  0  0  0
   -1.1340   -1.7910   -1.2800 C   0  0  1  0  0  0  0  0  0  0  0  0
   -0.0020   -0.8710   -1.5050 C   0  0  0  0  0  0  0  0  0  0  0  0
    1.1330   -1.3950   -2.3370 C   0  0  0  0  0  0  0  0  0  0  0  0
    2.2730   -1.8830   -1.7810 C   0  0  0  0  0  0  0  0  0  0  0  0
    2.2970   -1.8540   -0.2410 C   0  0  0  0  0  0  0  0  0  0  0  0
    1.5360   -2.7670    0.3520 C   0  0  0  0  0  0  0  0  0  0  0  0
    1.2310   -3.0800    1.7710 C   0  0  0  0  0  0  0  0  0  0  0  0
    0.1340   -3.0490    2.4720 C   0  0  0  0  0  0  0  0  0  0  0  0
   -1.2520   -2.6880    2.0820 C   0  0  0  0  0  0  0  0  0  0  0  0
   -1.6510   -1.2920    2.1490 C   0  0  2  0  0  0  0  0  0  0  0  0
   -2.7060   -1.1520    3.0890 O   0  0  0  0  0  0  0  0  0  0  0  0
   -1.9900   -0.5730    0.8380 C   0  0  1  0  0  0  0  0  0  0  0  0
   -2.2130   -1.3850   -0.3500 C   0  0  0  0  0  0  0  0  0  0  0  0
   -3.0410    0.3360    1.1470 N   0  0  1  0  0  0  0  0  0  0  0  0
   -2.5430    1.4160    2.0450 C   0  0  0  0  0  0  0  0  0  0  0  0
   -1.4960    2.1350    1.2150 C   0  0  0  0  0  0  0  0  0  0  0  0
   -1.9460    2.2980   -0.2140 C   0  0  1  0  0  0  0  0  0  0  0  0
   -3.4170    2.4180   -0.1690 C   0  0  0  0  0  0  0  0  0  0  0  0
   -3.8860    0.9690    0.2360 C   0  0  0  0  0  0  0  0  0  0  0  0
   -1.1120    3.2530   -0.9690 C   0  0  0  0  0  0  0  0  0  0  0  0
   -1.1190    4.4500   -1.5410 N   0  0  0  0  0  0  0  0  0  0  0  0
    0.0710    4.6850   -2.0800 N   0  0  0  0  0  0  0  0  0  0  0  0
    0.8150    3.6130   -1.8310 C   0  0  0  0  0  0  0  0  0  0  0  0
    0.1030    2.7890   -1.1810 O   0  0  0  0  0  0  0  0  0  0  0  0
    2.2170    3.1310   -2.1010 C   0  0  0  0  0  0  0  0  0  0  0  0
    2.2390    1.6450   -2.2000 N   0  0  0  0  0  0  0  0  0  0  0  0
    3.2670    0.7890   -1.7190 C   0  0  0  0  0  0  0  0  0  0  0  0
    4.0710    0.3120   -2.7070 O   0  0  0  0  0  0  0  0  0  0  0  0
    3.6910    0.2860   -0.4050 C   0  0  0  0  0  0  0  0  0  0  0  0
    4.7160    1.0800    0.1690 C   0  0  0  0  0  0  0  0  0  0  0  0
    5.3490    0.8810    1.3490 C   0  0  0  0  0  0  0  0  0  0  0  0
    4.9610   -0.2050    2.0690 C   0  0  0  0  0  0  0  0  0  0  0  0
    3.9840   -0.9840    1.5410 C   0  0  0  0  0  0  0  0  0  0  0  0
    3.2780   -0.8530    0.3330 C   0  0  0  0  0  0  0  0  0  0  0  0
  2  1  1  6
  2  3  1  0
  2 14  1  0
  3  4  1  0
  4  5  2  0
  5  6  1  0
  6  7  2  0
  6 35  1  0
  7  8  1  0
  8  9  2  0
  9 10  1  0
 10 11  1  0
 11 12  1  1
 11 13  1  0
 13 14  1  6
 13 15  1  0
 15 16  1  0
 15 20  1  6
 16 17  1  0
 17 18  1  0
 18 19  1  1
 18 21  1  0
 19 20  1  0
 21 22  2  0
 21 25  1  0
 22 23  1  0
 23 24  2  0
 24 25  1  0
 24 26  1  0
 26 27  1  0
 27 28  1  0
 28 29  2  0
 28 30  1  0
 30 31  2  0
 30 35  1  0
 31 32  1  0
 32 33  2  0
 33 34  1  0
 34 35  2  0
M  CHG  1  15   1
M  END
