
     RDKit          3D

 35 38  0  0  0  0  0  0  0  0999 V2000
   -0.9530    1.7960    2.5580 C   0  0  0  0  0  0  0  0  0  0  0  0
   -0.4240    2.7440    1.8110 C   0  0  0  0  0  0  0  0  0  0  0  0
    0.3580    3.6400    2.5210 O   0  0  0  0  0  0  0  0  0  0  0  0
   -0.5910    2.9240    0.3540 C   0  0  0  0  0  0  0  0  0  0  0  0
    0.1120    3.9970   -0.1210 C   0  0  0  0  0  0  0  0  0  0  0  0
    1.0560    4.1220   -1.1840 C   0  0  0  0  0  0  0  0  0  0  0  0
    2.2820    3.6860   -1.3740 C   0  0  0  0  0  0  0  0  0  0  0  0
    2.8800    2.3940   -1.3960 C   0  0  0  0  0  0  0  0  0  0  0  0
    3.3790    1.8080   -0.1090 N   0  0  0  0  0  0  0  0  0  0  0  0
    4.0050    2.7900    0.7190 C   0  0  0  0  0  0  0  0  0  0  0  0
    4.0530    3.9780    0.3550 O   0  0  0  0  0  0  0  0  0  0  0  0
    3.1470    0.3540    0.0030 C   0  0  0  0  0  0  0  0  0  0  0  0
    1.8820   -0.0180    0.3840 C   0  0  0  0  0  0  0  0  0  0  0  0
    1.4300   -1.3670    0.3270 C   0  0  0  0  0  0  0  0  0  0  0  0
    2.1960   -2.4210   -0.1030 C   0  0  0  0  0  0  0  0  0  0  0  0
    3.4700   -2.0430   -0.4650 C   0  0  0  0  0  0  0  0  0  0  0  0
    3.9530   -0.6820   -0.4200 C   0  0  0  0  0  0  0  0  0  0  0  0
    5.4120   -0.7640   -0.9140 C   0  0  0  0  0  0  0  0  0  0  0  0
    1.6090   -3.8110   -0.2840 C   0  0  0  0  0  0  0  0  0  0  0  0
    1.2440   -4.6330    0.6760 C   0  0  0  0  0  0  0  0  0  0  0  0
   -0.0670   -4.6650    1.4020 C   0  0  0  0  0  0  0  0  0  0  0  0
   -0.1650   -5.7540    2.1350 O   0  0  0  0  0  0  0  0  0  0  0  0
   -1.0160   -3.6050    1.2470 N   0  0  0  0  0  0  0  0  0  0  0  0
   -1.6010   -2.6720    2.1040 C   0  0  0  0  0  0  0  0  0  0  0  0
   -2.8930   -2.3470    1.9070 C   0  0  0  0  0  0  0  0  0  0  0  0
   -3.3760   -1.9630    0.5080 C   0  0  2  0  0  0  0  0  0  0  0  0
   -2.9220   -3.0860   -0.3080 C   0  0  0  0  0  0  0  0  0  0  0  0
   -1.4820   -3.3950   -0.1520 C   0  0  0  0  0  0  0  0  0  0  0  0
   -2.9180   -0.6460    0.2700 N   0  0  0  0  0  0  0  0  0  0  0  0
   -3.3220    0.1150   -0.8270 C   0  0  1  0  0  0  0  0  0  0  0  0
   -3.7010    1.5260   -0.3450 C   0  0  0  0  0  0  0  0  0  0  0  0
   -2.8030    2.5790   -0.9340 C   0  0  0  0  0  0  0  0  0  0  0  0
   -1.4120    2.2070   -0.5840 N   0  0  0  0  0  0  0  0  0  0  0  0
   -1.0510    1.0780   -1.4090 C   0  0  0  0  0  0  0  0  0  0  0  0
   -2.3040    0.3730   -1.9110 C   0  0  0  0  0  0  0  0  0  0  0  0
  1  2  2  0
  2  3  1  0
  2  4  1  0
  4  5  2  0
  4 33  1  0
  5  6  1  0
  6  7  2  0
  7  8  1  0
  8  9  1  0
  9 10  1  0
  9 12  1  0
 10 11  2  0
 12 13  2  0
 12 17  1  0
 13 14  1  0
 14 15  2  0
 15 16  1  0
 15 19  1  0
 16 17  2  0
 17 18  1  0
 19 20  2  0
 20 21  1  0
 21 22  2  0
 21 23  1  0
 23 24  1  0
 23 28  1  0
 24 25  2  0
 25 26  1  0
 26 27  1  6
 26 29  1  0
 27 28  1  0
 29 30  1  0
 30 31  1  0
 30 35  1  6
 31 32  1  0
 32 33  1  0
 33 34  1  0
 34 35  1  0
M  CHG  1  29   1
M  END
