
     RDKit          3D

 27 28  0  0  0  0  0  0  0  0999 V2000
    0.7690   -0.4000    1.2670 O   0  0  0  0  0  0  0  0  0  0  0  0
    0.5800   -0.0290    0.1140 C   0  0  0  0  0  0  0  0  0  0  0  0
   -0.4550    0.8780   -0.3220 N   0  0  0  0  0  0  0  0  0  0  0  0
   -1.2930    1.5260    0.6370 C   0  0  0  0  0  0  0  0  0  0  0  0
   -2.5560    0.9880    0.3970 C   0  0  0  0  0  0  0  0  0  0  0  0
   -3.4210    1.3680   -0.5030 N   0  0  0  0  0  0  0  0  0  0  0  0
   -4.4130    0.6040   -0.4780 O   0  0  0  0  0  0  0  0  0  0  0  0
   -4.2840   -0.2670    0.3860 C   0  0  0  0  0  0  0  0  0  0  0  0
   -5.2570   -1.1800    0.6530 N   0  0  0  0  0  0  0  0  0  0  0  0
   -6.5360   -1.4300   -0.1300 C   0  0  0  0  0  0  0  0  0  0  0  0
   -6.9030    0.0880   -0.2220 C   0  0  0  0  0  0  0  0  0  0  0  0
   -8.3240    0.0250   -0.5840 O   0  0  0  0  0  0  0  0  0  0  0  0
   -8.7110    0.1810    0.7970 O   0  0  0  0  0  0  0  0  0  0  0  0
   -3.1300   -0.1510    1.0220 N   0  0  0  0  0  0  0  0  0  0  0  0
    1.5170   -0.5440   -0.8340 N   0  0  0  0  0  0  0  0  0  0  0  0
    2.8310   -0.7280   -0.1730 C   0  0  0  0  0  0  0  0  0  0  0  0
    3.3520   -1.3710    0.7140 C   0  0  0  0  0  0  0  0  0  0  0  0
    4.9820   -1.0310    0.6530 C   0  0  0  0  0  0  0  0  0  0  0  0
    5.7200   -1.5630    1.4180 O   0  0  0  0  0  0  0  0  0  0  0  0
    5.0530   -0.1530   -0.3330 N   0  0  0  0  0  0  0  0  0  0  0  0
    6.2550    0.5210   -1.0710 C   0  0  0  0  0  0  0  0  0  0  0  0
    6.1440    1.3770   -1.7280 O   0  0  0  0  0  0  0  0  0  0  0  0
    7.5370   -0.2380   -0.6290 C   0  0  0  0  0  0  0  0  0  0  0  0
    8.4710    0.8690   -0.6580 O   0  0  0  0  0  0  0  0  0  0  0  0
    9.1700    1.2050    0.4040 O   0  0  0  0  0  0  0  0  0  0  0  0
    3.8150    0.1350   -0.9690 C   0  0  0  0  0  0  0  0  0  0  0  0
    3.6090    0.7760   -1.8840 O   0  0  0  0  0  0  0  0  0  0  0  0
  1  2  2  0
  2  3  1  0
  2 15  1  0
  3  4  1  0
  4  5  1  0
  5  6  2  0
  5 14  1  0
  6  7  1  0
  7  8  1  0
  8  9  1  0
  8 14  2  0
  9 10  1  0
 10 11  1  0
 11 12  1  0
 12 13  1  0
 15 16  1  0
 16 17  2  0
 16 26  1  0
 17 18  1  0
 18 19  2  0
 18 20  1  0
 20 21  1  0
 20 26  1  0
 21 22  2  0
 21 23  1  0
 23 24  1  0
 24 25  1  0
 26 27  2  0
M  END
