
     RDKit          3D

 16 15  0  0  0  0  0  0  0  0999 V2000
   -3.3730    0.6140   -1.6470 O   0  0  0  0  0  0  0  0  0  0  0  0
   -3.7640    1.0810   -0.5910 C   0  0  0  0  0  0  0  0  0  0  0  0
   -4.8390    2.0220   -0.7240 O   0  0  0  0  0  0  0  0  0  0  0  0
   -3.2470    0.7790    0.6920 N   0  0  0  0  0  0  0  0  0  0  0  0
   -2.1940   -0.1780    0.8090 C   0  0  1  0  0  0  0  0  0  0  0  0
   -2.5460   -1.5720    0.4040 C   0  0  0  0  0  0  0  0  0  0  0  0
   -2.9570   -1.6840   -0.9240 O   0  0  0  0  0  0  0  0  0  0  0  0
   -0.9080    0.2920    0.3550 C   0  0  0  0  0  0  0  0  0  0  0  0
   -0.7450    1.5250    0.0180 O   0  0  0  0  0  0  0  0  0  0  0  0
    0.2410   -0.5420    0.2460 O   0  0  0  0  0  0  0  0  0  0  0  0
    1.4260    0.0750   -0.1110 C   0  0  0  0  0  0  0  0  0  0  0  0
    2.6810   -0.6800   -0.4440 C   0  0  0  0  0  0  0  0  0  0  0  0
    3.5790    0.4330   -0.7560 O   0  0  0  0  0  0  0  0  0  0  0  0
    4.9080    0.4160    0.2240 P   0  0  0  0  0  0  0  0  0  0  0  0
    5.5120   -0.8710    1.0430 O   0  0  0  0  0  0  0  0  0  0  0  0
    5.7080    1.9200    0.3630 O   0  0  0  0  0  0  0  0  0  0  0  0
  1  2  2  0
  2  3  1  0
  2  4  1  0
  4  5  1  0
  5  6  1  6
  5  8  1  0
  6  7  1  0
  8  9  2  0
  8 10  1  0
 10 11  1  0
 11 12  1  0
 12 13  1  0
 13 14  1  0
 14 15  1  0
 14 16  1  0
M  END
