
     RDKit          3D

 27 28  0  0  0  0  0  0  0  0999 V2000
    0.7940    3.5740    0.7390 N   0  0  0  0  0  0  0  0  0  0  0  0
    0.4150    2.3450    0.5620 C   0  0  0  0  0  0  0  0  0  0  0  0
   -0.9280    2.0160    0.6540 C   0  0  0  0  0  0  0  0  0  0  0  0
   -1.2750    0.7000    0.4570 C   0  0  0  0  0  0  0  0  0  0  0  0
   -0.3920   -0.2630    0.1830 N   0  0  0  0  0  0  0  0  0  0  0  0
    0.9330    0.0710    0.0970 C   0  0  0  0  0  0  0  0  0  0  0  0
    1.9890   -0.9550   -0.1890 C   0  0  0  0  0  0  0  0  0  0  0  0
    3.2040   -0.3460   -0.3980 O   0  0  0  0  0  0  0  0  0  0  0  0
    3.8060    0.2810    0.6400 C   0  0  0  0  0  0  0  0  0  0  0  0
    5.1320    0.9200    0.2510 C   0  0  0  0  0  0  0  0  0  0  0  0
    5.6440    1.5270    1.3980 O   0  0  0  0  0  0  0  0  0  0  0  0
    6.8020    2.1070    1.1390 O   0  0  0  0  0  0  0  0  0  0  0  0
    1.2640    1.3600    0.2900 N   0  0  0  0  0  0  0  0  0  0  0  0
   -0.7350   -1.6430   -0.0700 C   0  0  0  0  0  0  0  0  0  0  0  0
    0.1300   -2.5670    0.6730 N   0  0  0  0  0  0  0  0  0  0  0  0
   -1.5900   -2.1140   -0.8180 N   0  0  0  0  0  0  0  0  0  0  0  0
   -2.5890   -1.9760   -1.7210 C   0  0  0  0  0  0  0  0  0  0  0  0
   -3.2750   -3.0470   -2.1160 O   0  0  0  0  0  0  0  0  0  0  0  0
   -3.0930   -0.8190   -2.3870 N   0  0  0  0  0  0  0  0  0  0  0  0
   -3.6690    0.3440   -1.8950 C   0  0  0  0  0  0  0  0  0  0  0  0
   -3.1980    1.4690   -2.2980 O   0  0  0  0  0  0  0  0  0  0  0  0
   -4.7950    0.4590   -0.9330 C   0  0  0  0  0  0  0  0  0  0  0  0
   -5.0600   -0.7070   -0.2230 O   0  0  0  0  0  0  0  0  0  0  0  0
   -4.3620   -1.2370    0.8280 C   0  0  0  0  0  0  0  0  0  0  0  0
   -4.8210   -2.1910    1.4780 O   0  0  0  0  0  0  0  0  0  0  0  0
   -3.1370   -0.7090    1.1680 O   0  0  0  0  0  0  0  0  0  0  0  0
   -2.6550    0.4350    0.5700 O   0  0  0  0  0  0  0  0  0  0  0  0
  1  2  2  0
  2  3  1  0
  2 13  1  0
  3  4  2  0
  4  5  1  0
  4 27  1  0
  5  6  1  0
  5 14  1  0
  6  7  1  0
  6 13  2  0
  7  8  1  0
  8  9  1  0
  9 10  1  0
 10 11  1  0
 11 12  1  0
 14 15  1  0
 14 16  2  0
 16 17  1  0
 17 18  2  0
 17 19  1  0
 19 20  1  0
 20 21  2  0
 20 22  1  0
 22 23  1  0
 23 24  1  0
 24 25  2  0
 24 26  1  0
 26 27  1  0
M  END
