
     RDKit          3D

 27 28  0  0  0  0  0  0  0  0999 V2000
    6.8970    0.1350   -0.5090 O   0  0  0  0  0  0  0  0  0  0  0  0
    6.5920    1.3410   -0.6460 C   0  0  0  0  0  0  0  0  0  0  0  0
    7.5430    2.3100   -1.0040 O   0  0  0  0  0  0  0  0  0  0  0  0
    5.2560    1.7880   -0.4430 N   0  0  0  0  0  0  0  0  0  0  0  0
    4.2620    0.8200   -0.0770 C   0  0  0  0  0  0  0  0  0  0  0  0
    4.6250   -0.3780    0.0460 O   0  0  0  0  0  0  0  0  0  0  0  0
    2.9640    1.2130    0.1270 O   0  0  0  0  0  0  0  0  0  0  0  0
    1.9500    0.3100    0.4820 C   0  0  0  0  0  0  0  0  0  0  0  0
    1.7650   -0.7370   -0.5950 C   0  0  0  0  0  0  0  0  0  0  0  0
    0.7160   -1.6700   -0.2290 N   0  0  0  0  0  0  0  0  0  0  0  0
   -0.6480   -1.1820   -0.1870 C   0  0  0  0  0  0  0  0  0  0  0  0
   -0.8620    0.0200   -0.5290 N   0  0  0  0  0  0  0  0  0  0  0  0
   -2.1560    0.6050   -0.5280 C   0  0  0  0  0  0  0  0  0  0  0  0
   -2.3600    1.8330   -0.8790 N   0  0  0  0  0  0  0  0  0  0  0  0
   -3.7140    2.2880   -0.8290 C   0  0  0  0  0  0  0  0  0  0  0  0
   -4.1130    3.5000   -0.3160 C   0  0  0  0  0  0  0  0  0  0  0  0
   -5.4130    3.5480   -0.4460 O   0  0  0  0  0  0  0  0  0  0  0  0
   -5.8440    2.4360   -1.0100 C   0  0  0  0  0  0  0  0  0  0  0  0
   -7.0420    2.1970   -1.2600 O   0  0  0  0  0  0  0  0  0  0  0  0
   -4.8030    1.6310   -1.2600 N   0  0  0  0  0  0  0  0  0  0  0  0
   -3.1990   -0.2590   -0.1130 N   0  0  0  0  0  0  0  0  0  0  0  0
   -3.0270   -1.4740    0.2390 C   0  0  0  0  0  0  0  0  0  0  0  0
   -1.6980   -2.0910    0.2420 C   0  0  2  0  0  0  0  0  0  0  0  0
   -1.4190   -2.3650    1.6240 O   0  0  0  0  0  0  0  0  0  0  0  0
   -1.1900   -3.6510    2.0780 C   0  0  0  0  0  0  0  0  0  0  0  0
   -1.2350   -4.5760    1.2360 O   0  0  0  0  0  0  0  0  0  0  0  0
   -0.9260   -3.8470    3.4240 O   0  0  0  0  0  0  0  0  0  0  0  0
  1  2  2  0
  2  3  1  0
  2  4  1  0
  4  5  1  0
  5  6  2  0
  5  7  1  0
  7  8  1  0
  8  9  1  0
  9 10  1  0
 10 11  1  0
 11 12  2  0
 11 23  1  0
 12 13  1  0
 13 14  2  3
 13 21  1  0
 14 15  1  0
 15 16  2  0
 15 20  1  0
 16 17  1  0
 17 18  1  0
 18 19  2  0
 18 20  1  0
 21 22  2  0
 22 23  1  0
 23 24  1  1
 24 25  1  0
 25 26  2  0
 25 27  1  0
M  END
