
     RDKit          3D

  9  8  0  0  0  0  0  0  0  0999 V2000
    1.9920   -2.0690    0.5190 O   0  0  0  0  0  0  0  0  0  0  0  0
    2.0450   -0.8620    1.0530 O   0  0  0  0  0  0  0  0  0  0  0  0
    1.7800    0.2870   -0.2050 P   0  0  0  0  0  0  0  0  0  0  0  0
    3.0280    1.4610   -0.2500 O   0  0  0  0  0  0  0  0  0  0  0  0
    0.1920    1.0260   -0.0730 O   0  0  0  0  0  0  0  0  0  0  0  0
   -0.6490    0.2380   -0.7070 N   0  0  0  0  0  0  0  0  0  0  0  0
   -2.3270    0.3150   -0.3330 P   0  0  0  0  0  0  0  0  0  0  0  0
   -2.7920    1.6020    0.6550 O   0  0  0  0  0  0  0  0  0  0  0  0
   -3.0910   -1.1840    0.0160 O   0  0  0  0  0  0  0  0  0  0  0  0
  1  2  1  0
  2  3  1  0
  3  4  1  0
  3  5  1  0
  5  6  1  0
  6  7  1  0
  7  8  1  0
  7  9  1  0
M  END
