
     RDKit          3D

  9  8  0  0  0  0  0  0  0  0999 V2000
   -2.5840    0.4140    1.1980 N   0  0  0  0  0  0  0  0  0  0  0  0
   -0.8530    0.1680    0.8650 P   0  0  0  0  0  0  0  0  0  0  0  0
   -0.0290   -0.6130    2.1670 O   0  0  0  0  0  0  0  0  0  0  0  0
   -0.6510   -0.9890   -1.0090 P   0  0  0  0  0  0  0  0  0  0  0  0
   -1.4240   -0.0650   -2.2640 O   0  0  0  0  0  0  0  0  0  0  0  0
    1.0670   -1.0870   -1.3450 O   0  0  0  0  0  0  0  0  0  0  0  0
    1.5470    0.1190   -1.1210 O   0  0  0  0  0  0  0  0  0  0  0  0
    2.4820    0.0620   -0.2010 O   0  0  0  0  0  0  0  0  0  0  0  0
    3.5290   -0.5260   -0.7270 O   0  0  0  0  0  0  0  0  0  0  0  0
  1  2  1  0
  2  3  1  0
  2  4  1  0
  4  5  1  0
  4  6  1  0
  6  7  1  0
  7  8  1  0
  8  9  1  0
M  END
