
     RDKit          3D

  9  8  0  0  0  0  0  0  0  0999 V2000
    3.5940   -0.0010   -0.1290 N   0  0  0  0  0  0  0  0  0  0  0  0
    2.2890    0.2280   -0.3550 O   0  0  0  0  0  0  0  0  0  0  0  0
    1.5820    0.2840    0.7370 O   0  0  0  0  0  0  0  0  0  0  0  0
    0.1430   -0.6500    0.6310 P   0  0  0  0  0  0  0  0  0  0  0  0
    0.2920   -2.0540   -0.3270 O   0  0  0  0  0  0  0  0  0  0  0  0
   -1.5450    0.6010    0.1770 P   0  0  0  0  0  0  0  0  0  0  0  0
   -2.0690    1.5010    1.5550 O   0  0  0  0  0  0  0  0  0  0  0  0
   -2.8470   -0.1940   -0.6160 O   0  0  0  0  0  0  0  0  0  0  0  0
   -3.6780    0.7740   -1.0190 O   0  0  0  0  0  0  0  0  0  0  0  0
  1  2  1  0
  2  3  1  0
  3  4  1  0
  4  5  1  0
  4  6  1  0
  6  7  1  0
  6  8  1  0
  8  9  1  0
M  END
