
     RDKit          3D

  9  9  0  0  0  0  0  0  0  0999 V2000
    2.5990    0.3170    0.6210 O   0  0  0  0  0  0  0  0  0  0  0  0
    2.4550   -0.4170   -0.5260 N   0  0  0  0  0  0  0  0  0  0  0  0
    1.2900   -0.0890   -1.1410 O   0  0  0  0  0  0  0  0  0  0  0  0
    0.0190    0.5050   -0.5290 P   0  0  0  0  0  0  0  0  0  0  0  0
   -0.7750    2.0940   -0.1700 O   0  0  0  0  0  0  0  0  0  0  0  0
   -1.8070    1.9600    0.3380 O   0  0  0  0  0  0  0  0  0  0  0  0
   -2.5110    1.0410    0.7010 O   0  0  0  0  0  0  0  0  0  0  0  0
   -1.7810   -0.5330    0.3740 P   0  0  0  0  0  0  0  0  0  0  0  0
   -2.0490   -2.0640    0.5350 O   0  0  0  0  0  0  0  0  0  0  0  0
  1  2  1  0
  2  3  1  0
  3  4  1  0
  4  5  1  0
  4  8  1  0
  5  6  1  0
  6  7  1  0
  7  8  1  0
  8  9  1  0
M  END
