
     RDKit          3D

  9  8  0  0  0  0  0  0  0  0999 V2000
   -3.6720    0.3710   -0.4450 O   0  0  0  0  0  0  0  0  0  0  0  0
   -3.3350    0.0160    0.7620 O   0  0  0  0  0  0  0  0  0  0  0  0
   -2.1750   -0.6290    0.7950 O   0  0  0  0  0  0  0  0  0  0  0  0
   -1.1540   -0.0600   -0.4550 P   0  0  0  0  0  0  0  0  0  0  0  0
   -0.7780   -1.2400   -1.6400 O   0  0  0  0  0  0  0  0  0  0  0  0
    0.2580    0.8200    0.1540 N   0  0  0  0  0  0  0  0  0  0  0  0
    0.8960    0.2300    1.1540 O   0  0  0  0  0  0  0  0  0  0  0  0
    2.4900   -0.2840    0.7880 P   0  0  0  0  0  0  0  0  0  0  0  0
    3.3880    0.9250   -0.0670 O   0  0  0  0  0  0  0  0  0  0  0  0
  1  2  1  0
  2  3  1  0
  3  4  1  0
  4  5  1  0
  4  6  1  0
  6  7  1  0
  7  8  1  0
  8  9  1  0
M  END
