
     RDKit          3D

  9  9  0  0  0  0  0  0  0  0999 V2000
    1.6870   -2.2170   -0.2900 O   0  0  0  0  0  0  0  0  0  0  0  0
    0.4610   -1.0340   -0.2040 P   0  0  0  0  0  0  0  0  0  0  0  0
   -1.2080   -1.4130   -0.2060 O   0  0  0  0  0  0  0  0  0  0  0  0
   -2.1740   -0.5420    0.1520 N   0  0  0  0  0  0  0  0  0  0  0  0
   -2.1460    0.6800    0.4450 O   0  0  0  0  0  0  0  0  0  0  0  0
   -1.6820    1.6910   -0.1760 O   0  0  0  0  0  0  0  0  0  0  0  0
   -0.4030    2.0260   -0.0510 O   0  0  0  0  0  0  0  0  0  0  0  0
    0.9030    1.0330   -0.5040 P   0  0  0  0  0  0  0  0  0  0  0  0
    2.5370    1.4330   -0.3440 O   0  0  0  0  0  0  0  0  0  0  0  0
  1  2  1  0
  2  3  1  0
  2  8  1  0
  3  4  1  0
  4  5  1  0
  5  6  1  0
  6  7  1  0
  7  8  1  0
  8  9  1  0
M  END
