
     RDKit          3D

  9  8  0  0  0  0  0  0  0  0999 V2000
   -2.4910    0.9230    0.0410 N   0  0  0  0  0  0  0  0  0  0  0  0
   -3.0320   -0.0980    0.6940 O   0  0  0  0  0  0  0  0  0  0  0  0
   -2.2010   -1.0020    1.1080 O   0  0  0  0  0  0  0  0  0  0  0  0
   -0.8520   -1.2650    0.0960 P   0  0  0  0  0  0  0  0  0  0  0  0
   -1.1540   -0.9920   -1.5680 O   0  0  0  0  0  0  0  0  0  0  0  0
    0.4660   -0.2620    0.5950 O   0  0  0  0  0  0  0  0  0  0  0  0
    1.1640    0.1400   -0.4590 O   0  0  0  0  0  0  0  0  0  0  0  0
    2.6810    0.7300    0.1690 P   0  0  0  0  0  0  0  0  0  0  0  0
    3.7270   -0.5680    0.6040 O   0  0  0  0  0  0  0  0  0  0  0  0
  1  2  1  0
  2  3  1  0
  3  4  1  0
  4  5  1  0
  4  6  1  0
  6  7  1  0
  7  8  1  0
  8  9  1  0
M  END
