
     RDKit          3D

 14 14  0  0  0  0  0  0  0  0999 V2000
   -2.3360    1.6920    0.4210 C   0  0  0  0  0  0  0  0  0  0  0  0
   -2.2830    0.0910   -0.4420 P   0  0  0  0  0  0  0  0  0  0  0  0
   -2.3260    0.1000   -2.2400 C   0  0  0  0  0  0  0  0  0  0  0  0
   -1.2930   -1.1250    0.3970 C   0  0  0  0  0  0  0  0  0  0  0  0
   -0.0380   -1.1660    0.7250 C   0  0  0  0  0  0  0  0  0  0  0  0
    1.0340   -0.2160    0.5210 C   0  0  0  0  0  0  0  0  0  0  0  0
    2.2600   -0.5320    0.9900 C   0  0  0  0  0  0  0  0  0  0  0  0
    2.5240   -1.7240    1.6520 O   0  0  0  0  0  0  0  0  0  0  0  0
    3.3380    0.3660    0.8180 N   0  0  0  0  0  0  0  0  0  0  0  0
    3.0820    1.7300    0.3390 C   0  0  0  0  0  0  0  0  0  0  0  0
    2.1250    1.5450   -0.8210 C   0  0  0  0  0  0  0  0  0  0  0  0
    0.8010    1.0570   -0.1900 C   0  0  0  0  0  0  0  0  0  0  0  0
   -2.0990   -2.3720    0.8110 C   0  0  0  0  0  0  0  0  0  0  0  0
   -2.5790   -2.8750   -0.3960 O   0  0  0  0  0  0  0  0  0  0  0  0
  1  2  1  0
  2  3  1  0
  2  4  1  0
  4  5  2  3
  4 13  1  0
  5  6  1  0
  6  7  2  0
  6 12  1  0
  7  8  1  0
  7  9  1  0
  9 10  1  0
 10 11  1  0
 11 12  1  0
 13 14  1  0
M  END
