
     RDKit          3D

 27 28  0  0  0  0  0  0  0  0999 V2000
   -2.8730   -2.3450   -2.6690 O   0  0  0  0  0  0  0  0  0  0  0  0
   -1.7970   -2.5570   -3.3320 C   0  0  0  0  0  0  0  0  0  0  0  0
   -1.7990   -3.3960   -4.4200 O   0  0  0  0  0  0  0  0  0  0  0  0
   -0.6400   -1.8950   -2.8750 O   0  0  0  0  0  0  0  0  0  0  0  0
   -0.7340   -1.0810   -1.7790 C   0  0  1  0  0  0  0  0  0  0  0  0
   -1.2180   -1.8340   -0.6880 O   0  0  0  0  0  0  0  0  0  0  0  0
    0.6130   -0.6500   -1.4630 O   0  0  0  0  0  0  0  0  0  0  0  0
    0.5950   -0.4050   -0.0710 C   0  0  2  0  0  0  0  0  0  0  0  0
    1.8120    0.1230    0.2790 O   0  0  0  0  0  0  0  0  0  0  0  0
    2.2420    0.3180    1.4900 C   0  0  0  0  0  0  0  0  0  0  0  0
    1.5950    0.7970    2.6890 C   0  0  0  0  0  0  0  0  0  0  0  0
    0.4830    0.0030    3.0840 O   0  0  0  0  0  0  0  0  0  0  0  0
    0.1970   -1.4360    0.6340 O   0  0  0  0  0  0  0  0  0  0  0  0
    0.7810   -2.5160    0.7820 O   0  0  0  0  0  0  0  0  0  0  0  0
    1.7040   -3.0570   -0.0160 C   0  0  0  0  0  0  0  0  0  0  0  0
    2.7850   -2.1940   -0.2630 O   0  0  0  0  0  0  0  0  0  0  0  0
    3.7560   -2.8460   -0.9600 O   0  0  0  0  0  0  0  0  0  0  0  0
   -0.3910    0.7880   -0.1140 C   0  0  1  0  0  0  0  0  0  0  0  0
   -0.1610    1.8370    0.7360 O   0  0  0  0  0  0  0  0  0  0  0  0
   -0.8630    2.9260    0.3430 C   0  0  0  0  0  0  0  0  0  0  0  0
   -2.1010    3.2360    1.1400 C   0  0  0  0  0  0  0  0  0  0  0  0
   -1.4930    3.4070    2.4560 O   0  0  0  0  0  0  0  0  0  0  0  0
   -1.7220    4.6950    2.7630 O   0  0  0  0  0  0  0  0  0  0  0  0
    0.0930    1.4400   -1.3560 O   0  0  0  0  0  0  0  0  0  0  0  0
   -0.7890    1.2170   -2.2480 O   0  0  0  0  0  0  0  0  0  0  0  0
   -1.5860    0.1530   -1.8040 C   0  0  2  0  0  0  0  0  0  0  0  0
   -1.6650    0.5210   -0.4170 O   0  0  0  0  0  0  0  0  0  0  0  0
  1  2  2  0
  2  3  1  0
  2  4  1  0
  4  5  1  0
  5  6  1  1
  5  7  1  0
  5 26  1  0
  7  8  1  0
  8  9  1  1
  8 13  1  0
  8 18  1  0
  9 10  1  0
 10 11  1  0
 11 12  1  0
 13 14  1  0
 14 15  1  0
 15 16  1  0
 16 17  1  0
 18 19  1  1
 18 24  1  0
 18 27  1  0
 19 20  1  0
 20 21  1  0
 21 22  1  0
 22 23  1  0
 24 25  1  0
 26 25  1  6
 26 27  1  0
M  END
