
     RDKit          3D

 15 16  0  0  0  0  0  0  0  0999 V2000
    3.4850   -2.3810    1.9850 O   0  0  0  0  0  0  0  0  0  0  0  0
    3.1580   -1.0080    1.3350 P   0  0  0  0  0  0  0  0  0  0  0  0
    3.4390   -0.6840   -0.4730 C   0  0  0  0  0  0  0  0  0  0  0  0
    2.5300    0.4190   -0.9610 C   0  0  0  0  0  0  0  0  0  0  0  0
    1.0970    0.0810   -0.7850 C   0  0  0  0  0  0  0  0  0  0  0  0
    0.4000   -0.5710   -1.7810 C   0  0  0  0  0  0  0  0  0  0  0  0
   -0.9260   -0.9070   -1.6700 C   0  0  0  0  0  0  0  0  0  0  0  0
   -1.6360   -0.5940   -0.5170 C   0  0  0  0  0  0  0  0  0  0  0  0
   -0.9460    0.0570    0.4820 C   0  0  0  0  0  0  0  0  0  0  0  0
    0.3890    0.3900    0.3570 C   0  0  0  0  0  0  0  0  0  0  0  0
   -1.6090    0.4120    1.6910 N   0  0  0  0  0  0  0  0  0  0  0  0
   -2.9860    0.0570    1.7910 C   0  0  0  0  0  0  0  0  0  0  0  0
   -3.5100    0.0090    2.9260 O   0  0  0  0  0  0  0  0  0  0  0  0
   -3.7930   -0.2500    0.5630 C   0  0  0  0  0  0  0  0  0  0  0  0
   -2.9760   -0.9200   -0.3750 O   0  0  0  0  0  0  0  0  0  0  0  0
  1  2  2  0
  2  3  1  0
  3  4  1  0
  4  5  1  0
  5  6  2  0
  5 10  1  0
  6  7  1  0
  7  8  2  0
  8  9  1  0
  8 15  1  0
  9 10  2  0
  9 11  1  0
 11 12  1  0
 12 13  2  0
 12 14  1  0
 14 15  1  0
M  END
