
     RDKit          3D

 32 35  0  0  0  0  0  0  0  0999 V2000
   -0.2380   -1.8640   -3.2780 C   0  0  0  0  0  0  0  0  0  0  0  0
   -0.6550   -1.6250   -1.9720 O   0  0  0  0  0  0  0  0  0  0  0  0
   -1.9430   -1.3920   -1.5650 C   0  0  0  0  0  0  0  0  0  0  0  0
   -2.7780   -1.4180   -2.5620 O   0  0  0  0  0  0  0  0  0  0  0  0
   -2.3680   -1.1520   -0.2370 C   0  0  0  0  0  0  0  0  0  0  0  0
   -1.5570   -1.1040    0.9670 C   0  0  0  0  0  0  0  0  0  0  0  0
   -0.5820   -0.0070    1.1690 C   0  0  1  0  0  0  0  0  0  0  0  0
    0.5540    0.1200    0.3110 C   0  0  0  0  0  0  0  0  0  0  0  0
    1.7170   -0.8220    0.2460 C   0  0  2  0  0  0  0  0  0  0  0  0
    2.4440   -0.3180   -0.7640 O   0  0  0  0  0  0  0  0  0  0  0  0
    3.5940   -0.6840   -1.2470 C   0  0  2  0  0  0  0  0  0  0  0  0
    4.5260    0.5500   -1.2220 C   0  0  0  0  0  0  0  0  0  0  0  0
    5.5520    0.2960   -2.2790 C   0  0  0  0  0  0  0  0  0  0  0  0
    4.7940   -0.4390   -3.3340 C   0  0  0  0  0  0  0  0  0  0  0  0
    3.4610   -0.8240   -2.7750 C   0  0  0  0  0  0  0  0  0  0  0  0
    1.4240   -2.2340    0.4110 C   0  0  0  0  0  0  0  0  0  0  0  0
    2.6840   -3.1080    0.5860 C   0  0  0  0  0  0  0  0  0  0  0  0
    3.5270   -2.6610    1.5360 O   0  0  0  0  0  0  0  0  0  0  0  0
    3.6660   -1.3450    1.7970 C   0  0  0  0  0  0  0  0  0  0  0  0
    2.5730   -0.4070    1.5160 C   0  0  0  0  0  0  0  0  0  0  0  0
   -1.3320    1.2870    1.0630 N   0  0  0  0  0  0  0  0  0  0  0  0
   -1.2820    2.0570    2.2590 C   0  0  1  0  0  0  0  0  0  0  0  0
   -0.2990    3.2100    2.1810 C   0  0  0  0  0  0  0  0  0  0  0  0
   -0.5670    4.0970    0.9990 C   0  0  0  0  0  0  0  0  0  0  0  0
   -2.0750    4.2860    0.9350 C   0  0  0  0  0  0  0  0  0  0  0  0
   -2.6770    4.0350    2.1420 O   0  0  0  0  0  0  0  0  0  0  0  0
   -2.6380    2.6850    2.5000 C   0  0  0  0  0  0  0  0  0  0  0  0
   -3.7110   -0.9710   -0.0860 C   0  0  0  0  0  0  0  0  0  0  0  0
   -4.7560   -1.0000   -1.1430 C   0  0  0  0  0  0  0  0  0  0  0  0
   -6.0580   -0.8300   -0.4130 C   0  0  0  0  0  0  0  0  0  0  0  0
   -5.7560   -1.1580    1.0400 C   0  0  0  0  0  0  0  0  0  0  0  0
   -4.3510   -0.7130    1.1370 N   0  0  0  0  0  0  0  0  0  0  0  0
  1  2  1  0
  2  3  1  0
  3  4  2  0
  3  5  1  0
  5  6  1  0
  5 28  2  3
  7  6  1  6
  7  8  1  0
  7 21  1  0
  9  8  1  1
  9 10  1  0
  9 16  1  0
  9 20  1  0
 11 10  1  1
 11 12  1  0
 11 15  1  0
 12 13  1  0
 13 14  1  0
 14 15  1  0
 16 17  1  0
 17 18  1  0
 18 19  1  0
 19 20  1  0
 22 21  1  6
 22 23  1  0
 22 27  1  0
 23 24  1  0
 24 25  1  0
 25 26  1  0
 26 27  1  0
 28 29  1  0
 28 32  1  0
 29 30  1  0
 30 31  1  0
 31 32  1  0
M  CHG  1  21   1
M  END
