
     RDKit          3D

 33 34  0  0  0  0  0  0  0  0999 V2000
   -6.3150    1.9320    2.2300 C   0  0  0  0  0  0  0  0  0  0  0  0
   -5.7100    1.2300    1.1160 C   0  0  0  0  0  0  0  0  0  0  0  0
   -4.6210    1.5210    0.4030 C   0  0  0  0  0  0  0  0  0  0  0  0
   -4.2460    0.5740   -0.7140 C   0  0  0  0  0  0  0  0  0  0  0  0
   -3.0450   -0.2240   -0.5330 C   0  0  2  0  0  0  0  0  0  0  0  0
   -3.2420   -1.1080    0.7430 C   0  0  0  0  0  0  0  0  0  0  0  0
   -4.6520   -2.1870    0.5290 S   0  0  0  0  0  0  0  0  0  0  0  0
   -4.3480   -3.2510   -0.9130 C   0  0  0  0  0  0  0  0  0  0  0  0
   -4.7750   -3.1080    1.7240 O   0  0  0  0  0  0  0  0  0  0  0  0
   -1.7950    0.1080   -0.5520 O   0  0  0  0  0  0  0  0  0  0  0  0
   -0.8420   -0.4110   -1.3320 C   0  0  1  0  0  0  0  0  0  0  0  0
   -0.0410    0.6160   -2.1140 C   0  0  0  0  0  0  0  0  0  0  0  0
    1.2860   -0.1360   -2.2850 C   0  0  0  0  0  0  0  0  0  0  0  0
    1.4840   -0.6240   -0.9340 N   0  0  0  0  0  0  0  0  0  0  0  0
    2.7390   -0.6800   -0.2710 C   0  0  0  0  0  0  0  0  0  0  0  0
    2.8250   -1.1220    0.9130 O   0  0  0  0  0  0  0  0  0  0  0  0
    3.9490   -0.2560   -0.8740 N   0  0  0  0  0  0  0  0  0  0  0  0
    5.2010   -0.3250   -0.1790 C   0  0  0  0  0  0  0  0  0  0  0  0
    5.9260    0.7570    0.0550 C   0  0  0  0  0  0  0  0  0  0  0  0
    7.1920    0.7600    0.7470 C   0  0  0  0  0  0  0  0  0  0  0  0
    7.7310    1.8580    1.2290 C   0  0  0  0  0  0  0  0  0  0  0  0
    8.9170    1.8280    1.8710 F   0  0  0  0  0  0  0  0  0  0  0  0
    7.1120    3.0550    1.0960 F   0  0  0  0  0  0  0  0  0  0  0  0
    7.8930   -0.5450    0.9060 C   0  0  1  0  0  0  0  0  0  0  0  0
    8.9260   -0.4510    2.3330 Cl  0  0  0  0  0  0  0  0  0  0  0  0
    6.9620   -1.6380    0.9830 N   0  0  0  0  0  0  0  0  0  0  0  0
    5.7180   -1.6020    0.2970 C   0  0  0  0  0  0  0  0  0  0  0  0
    5.0300   -2.6380    0.0770 O   0  0  0  0  0  0  0  0  0  0  0  0
    0.2160   -1.0220   -0.4230 C   0  0  0  0  0  0  0  0  0  0  0  0
   -3.8730    2.7010    0.6920 C   0  0  0  0  0  0  0  0  0  0  0  0
   -4.3830    3.6900    2.0940 Cl  0  0  0  0  0  0  0  0  0  0  0  0
   -2.8280    3.1820    0.0670 C   0  0  0  0  0  0  0  0  0  0  0  0
   -2.1840    2.7160   -0.9990 F   0  0  0  0  0  0  0  0  0  0  0  0
  1  2  1  0
  2  3  2  3
  3  4  1  0
  3 30  1  0
  5  4  1  1
  5  6  1  0
  5 10  1  0
  6  7  1  0
  7  8  1  6
  7  9  2  0
 11 10  1  1
 11 12  1  0
 11 29  1  0
 12 13  1  0
 13 14  1  0
 14 15  1  0
 14 29  1  0
 15 16  2  0
 15 17  1  0
 17 18  1  0
 18 19  2  0
 18 27  1  0
 19 20  1  0
 20 21  2  3
 20 24  1  0
 21 22  1  0
 21 23  1  0
 24 25  1  1
 24 26  1  0
 26 27  1  0
 27 28  2  0
 30 31  1  0
 30 32  2  3
 32 33  1  0
M  END
