
     RDKit          3D

 32 34  0  0  0  0  0  0  0  0999 V2000
    6.0550   -2.9160    0.5110 C   0  0  0  0  0  0  0  0  0  0  0  0
    5.2520   -1.7220    0.9090 C   0  0  2  0  0  0  0  0  0  0  0  0
    5.7860   -0.4670    0.2690 C   0  0  0  0  0  0  0  0  0  0  0  0
    5.3170   -1.5380    2.4110 C   0  0  0  0  0  0  0  0  0  0  0  0
    3.7880   -1.8540    0.5300 C   0  0  0  0  0  0  0  0  0  0  0  0
    3.6290   -2.0210   -0.9710 C   0  0  0  0  0  0  0  0  0  0  0  0
    2.3020   -2.1510   -1.2750 O   0  0  0  0  0  0  0  0  0  0  0  0
    1.4550   -1.1380   -0.9430 C   0  0  0  0  0  0  0  0  0  0  0  0
    1.7740    0.1230   -1.6350 C   0  0  0  0  0  0  0  0  0  0  0  0
    2.6580    0.1750   -2.5330 O   0  0  0  0  0  0  0  0  0  0  0  0
    1.1040    1.3400   -1.3220 N   0  0  0  0  0  0  0  0  0  0  0  0
    0.0860    1.3220   -0.3420 C   0  0  0  0  0  0  0  0  0  0  0  0
   -1.0560    0.6700   -0.4860 C   0  0  0  0  0  0  0  0  0  0  0  0
   -2.0200    0.7200    0.5790 C   0  0  0  0  0  0  0  0  0  0  0  0
   -3.1690    0.0840    0.4750 C   0  0  0  0  0  0  0  0  0  0  0  0
   -4.1950    0.0500    1.4370 O   0  0  0  0  0  0  0  0  0  0  0  0
   -5.2610   -0.7150    0.9950 C   0  0  0  0  0  0  0  0  0  0  0  0
   -5.0050   -1.1960   -0.2110 C   0  0  0  0  0  0  0  0  0  0  0  0
   -6.0770   -2.0450   -0.8140 C   0  0  0  0  0  0  0  0  0  0  0  0
   -6.4100   -3.0300    0.1210 O   0  0  0  0  0  0  0  0  0  0  0  0
   -6.9710   -2.5130    1.2610 C   0  0  2  0  0  0  0  0  0  0  0  0
   -6.5720   -3.3550    2.4790 C   0  0  0  0  0  0  0  0  0  0  0  0
   -8.4930   -2.5830    1.0780 C   0  0  0  0  0  0  0  0  0  0  0  0
   -6.5860   -1.0960    1.5720 C   0  0  0  0  0  0  0  0  0  0  0  0
   -3.6890   -0.7300   -0.6110 C   0  0  0  0  0  0  0  0  0  0  0  0
   -3.1600   -1.0180   -1.7100 O   0  0  0  0  0  0  0  0  0  0  0  0
    1.4420    2.5370   -2.0170 C   0  0  0  0  0  0  0  0  0  0  0  0
    2.5550    3.3200   -1.4330 C   0  0  1  0  0  0  0  0  0  0  0  0
    2.8190    4.5840   -2.2810 C   0  0  0  0  0  0  0  0  0  0  0  0
    2.0800    5.6880   -1.5490 C   0  0  0  0  0  0  0  0  0  0  0  0
    1.3920    4.9360   -0.4290 C   0  0  0  0  0  0  0  0  0  0  0  0
    2.3540    3.8860   -0.1400 N   0  0  0  0  0  0  0  0  0  0  0  0
  2  1  1  1
  2  3  1  0
  2  4  1  0
  2  5  1  0
  5  6  1  0
  6  7  1  0
  7  8  1  0
  8  9  1  0
  9 10  2  0
  9 11  1  0
 11 12  1  0
 11 27  1  0
 12 13  2  3
 13 14  1  0
 14 15  2  3
 15 16  1  0
 15 25  1  0
 16 17  1  0
 17 18  2  0
 17 24  1  0
 18 19  1  0
 18 25  1  0
 19 20  1  0
 20 21  1  0
 21 22  1  1
 21 23  1  0
 21 24  1  0
 25 26  2  0
 28 27  1  6
 28 29  1  0
 28 32  1  0
 29 30  1  0
 30 31  1  0
 31 32  1  0
M  CHG  1  32   1
M  END
