
     RDKit          3D

 33 34  0  0  0  0  0  0  0  0999 V2000
   -6.1420   -1.1430   -0.7780 C   0  0  0  0  0  0  0  0  0  0  0  0
   -5.3110   -0.4690   -1.7890 C   0  0  0  0  0  0  0  0  0  0  0  0
   -4.3980    0.4390   -1.3830 C   0  0  0  0  0  0  0  0  0  0  0  0
   -4.2900    0.6990    0.0480 C   0  0  0  0  0  0  0  0  0  0  0  0
   -3.0660    0.2530    0.7420 C   0  0  2  0  0  0  0  0  0  0  0  0
   -3.1220    0.6480    2.2010 C   0  0  0  0  0  0  0  0  0  0  0  0
   -4.4830   -0.0470    3.1090 S   0  0  0  0  0  0  0  0  0  0  0  0
   -4.3240    0.5520    4.8290 C   0  0  0  0  0  0  0  0  0  0  0  0
   -5.8480    0.4580    2.6580 O   0  0  0  0  0  0  0  0  0  0  0  0
   -1.8730    0.6830    0.2380 O   0  0  0  0  0  0  0  0  0  0  0  0
   -1.0210   -0.3620   -0.0510 C   0  0  1  0  0  0  0  0  0  0  0  0
   -0.4960   -0.3350   -1.4670 C   0  0  0  0  0  0  0  0  0  0  0  0
    0.7470   -1.2200   -1.2940 C   0  0  0  0  0  0  0  0  0  0  0  0
    1.3430   -0.5780   -0.1450 N   0  0  0  0  0  0  0  0  0  0  0  0
    2.7150   -0.3020    0.0650 C   0  0  0  0  0  0  0  0  0  0  0  0
    3.1030    0.2670    1.1170 O   0  0  0  0  0  0  0  0  0  0  0  0
    3.7270   -0.6410   -0.8800 N   0  0  0  0  0  0  0  0  0  0  0  0
    5.1070   -0.3640   -0.6710 C   0  0  0  0  0  0  0  0  0  0  0  0
    5.9630   -1.3680   -0.6490 C   0  0  0  0  0  0  0  0  0  0  0  0
    7.3700   -1.1030   -0.4380 C   0  0  0  0  0  0  0  0  0  0  0  0
    8.3110   -2.0140   -0.7420 C   0  0  0  0  0  0  0  0  0  0  0  0
    7.9170   -3.1950   -1.2530 F   0  0  0  0  0  0  0  0  0  0  0  0
    9.6230   -1.7780   -0.5490 F   0  0  0  0  0  0  0  0  0  0  0  0
    7.8380    0.1850    0.1230 C   0  0  1  0  0  0  0  0  0  0  0  0
    9.4370    0.5370   -0.6040 Cl  0  0  0  0  0  0  0  0  0  0  0  0
    6.9640    1.2790   -0.2730 N   0  0  0  0  0  0  0  0  0  0  0  0
    5.5650    0.9980   -0.4850 C   0  0  0  0  0  0  0  0  0  0  0  0
    4.7000    1.9100   -0.5170 O   0  0  0  0  0  0  0  0  0  0  0  0
    0.2730   -0.2630    0.7640 C   0  0  0  0  0  0  0  0  0  0  0  0
   -3.6610    1.0800   -2.4650 C   0  0  0  0  0  0  0  0  0  0  0  0
   -3.9440    0.5920   -4.1450 Cl  0  0  0  0  0  0  0  0  0  0  0  0
   -2.7850    2.0130   -2.2560 C   0  0  0  0  0  0  0  0  0  0  0  0
   -2.1430    2.5440   -3.3660 F   0  0  0  0  0  0  0  0  0  0  0  0
  1  2  1  0
  2  3  2  3
  3  4  1  0
  3 30  1  0
  5  4  1  6
  5  6  1  0
  5 10  1  0
  6  7  1  0
  7  8  1  1
  7  9  2  0
 11 10  1  6
 11 12  1  0
 11 29  1  0
 12 13  1  0
 13 14  1  0
 14 15  1  0
 14 29  1  0
 15 16  2  0
 15 17  1  0
 17 18  1  0
 18 19  2  0
 18 27  1  0
 19 20  1  0
 20 21  2  3
 20 24  1  0
 21 22  1  0
 21 23  1  0
 24 25  1  6
 24 26  1  0
 26 27  1  0
 27 28  2  0
 30 31  1  0
 30 32  2  3
 32 33  1  0
M  END
