
     RDKit          3D

 33 34  0  0  0  0  0  0  0  0999 V2000
    4.1030   -2.2870    0.3930 C   0  0  0  0  0  0  0  0  0  0  0  0
    4.4700   -1.1340   -0.5340 C   0  0  1  0  0  0  0  0  0  0  0  0
    3.2950   -0.7840   -1.4340 C   0  0  0  0  0  0  0  0  0  0  0  0
    2.2560   -0.1460   -0.6270 N   0  0  0  0  0  0  0  0  0  0  0  0
    0.9210   -0.5570   -0.8640 C   0  0  0  0  0  0  0  0  0  0  0  0
    0.7030   -1.4470   -1.7460 O   0  0  0  0  0  0  0  0  0  0  0  0
   -0.2530   -0.0300   -0.1630 C   0  0  1  0  0  0  0  0  0  0  0  0
    0.1040    0.9270    0.7710 O   0  0  0  0  0  0  0  0  0  0  0  0
   -1.2290    0.6420   -1.1610 C   0  0  0  0  0  0  0  0  0  0  0  0
   -1.9440    1.6890   -0.4970 N   0  0  0  0  0  0  0  0  0  0  0  0
   -3.0180    2.4750   -0.8880 C   0  0  0  0  0  0  0  0  0  0  0  0
   -2.7090    3.7590   -0.9770 O   0  0  0  0  0  0  0  0  0  0  0  0
   -4.3930    2.1500   -1.2100 C   0  0  0  0  0  0  0  0  0  0  0  0
   -5.3100    3.3860   -1.2760 C   0  0  1  0  0  0  0  0  0  0  0  0
   -5.3120    4.0170   -0.0450 F   0  0  0  0  0  0  0  0  0  0  0  0
   -4.6770    4.2780   -2.1520 F   0  0  0  0  0  0  0  0  0  0  0  0
   -6.8950    3.0570   -1.8890 Cl  0  0  0  0  0  0  0  0  0  0  0  0
   -4.9630    0.9830   -1.4550 C   0  0  0  0  0  0  0  0  0  0  0  0
   -4.5480   -0.2830   -1.5060 N   0  0  0  0  0  0  0  0  0  0  0  0
   -4.2900   -1.4170   -1.1570 C   0  0  0  0  0  0  0  0  0  0  0  0
   -4.5450   -1.8600    0.2180 C   0  0  0  0  0  0  0  0  0  0  0  0
   -3.8850   -1.4570    1.2950 C   0  0  0  0  0  0  0  0  0  0  0  0
   -4.2630   -1.9890    2.5980 C   0  0  0  0  0  0  0  0  0  0  0  0
   -3.6850   -1.6620    3.7300 C   0  0  0  0  0  0  0  0  0  0  0  0
   -4.0630   -2.1780    4.9160 F   0  0  0  0  0  0  0  0  0  0  0  0
   -2.3730   -0.5170    3.7240 Cl  0  0  0  0  0  0  0  0  0  0  0  0
   -2.5090   -0.3100    1.2650 S   0  0  0  0  0  0  0  0  0  0  0  0
   -1.0230   -1.1000    0.5930 C   0  0  0  0  0  0  0  0  0  0  0  0
    2.6040    0.8460    0.3550 C   0  0  0  0  0  0  0  0  0  0  0  0
    4.0750    1.1880    0.3460 C   0  0  0  0  0  0  0  0  0  0  0  0
    5.0010    0.0400    0.2060 C   0  0  2  0  0  0  0  0  0  0  0  0
    6.3250    0.4590   -0.4260 C   0  0  0  0  0  0  0  0  0  0  0  0
    5.3160   -0.4060    1.5050 O   0  0  0  0  0  0  0  0  0  0  0  0
  2  1  1  1
  2  3  1  0
  2 31  1  0
  3  4  1  0
  4  5  1  0
  4 29  1  0
  5  6  2  0
  5  7  1  0
  7  8  1  1
  7  9  1  0
  7 28  1  0
  9 10  1  0
 10 11  1  0
 11 12  2  0
 11 13  1  0
 13 14  1  0
 13 18  2  0
 14 15  1  1
 14 16  1  0
 14 17  1  0
 18 19  1  0
 19 20  2  0
 20 21  1  0
 21 22  2  0
 22 23  1  0
 22 27  1  0
 23 24  2  3
 24 25  1  0
 24 26  1  0
 27 28  1  0
 29 30  1  0
 30 31  1  0
 31 32  1  6
 31 33  1  0
M  END
