
     RDKit          3D

 42 46  0  0  0  0  0  0  0  0999 V2000
   -0.7040    2.0090    1.9840 O   0  0  0  0  0  0  0  0  0  0  0  0
   -0.4340    0.8470    1.5110 C   0  0  0  0  0  0  0  0  0  0  0  0
   -1.5450    0.2490    0.8860 N   0  0  0  0  0  0  0  0  0  0  0  0
   -2.8210    0.8870    1.1770 C   0  0  0  0  0  0  0  0  0  0  0  0
   -3.1610    2.0000    0.3040 C   0  0  0  0  0  0  0  0  0  0  0  0
   -2.8780    2.0220   -1.0370 C   0  0  0  0  0  0  0  0  0  0  0  0
   -3.2110    3.1050   -1.8500 C   0  0  0  0  0  0  0  0  0  0  0  0
   -3.8410    4.1770   -1.2730 C   0  0  0  0  0  0  0  0  0  0  0  0
   -4.2140    5.3610   -2.1160 C   0  0  0  0  0  0  0  0  0  0  0  0
   -5.4780    5.2440   -2.6430 O   0  0  0  0  0  0  0  0  0  0  0  0
   -4.1360    4.1840    0.0630 C   0  0  0  0  0  0  0  0  0  0  0  0
   -3.7930    3.1010    0.8290 C   0  0  0  0  0  0  0  0  0  0  0  0
   -1.5280   -0.9180    0.0170 C   0  0  2  0  0  0  0  0  0  0  0  0
   -2.8830   -1.4840   -0.2060 C   0  0  0  0  0  0  0  0  0  0  0  0
   -2.8130   -2.6580   -1.0990 C   0  0  0  0  0  0  0  0  0  0  0  0
   -2.8330   -2.5490   -2.4730 C   0  0  0  0  0  0  0  0  0  0  0  0
   -2.7940   -3.6700   -3.2980 C   0  0  0  0  0  0  0  0  0  0  0  0
   -2.7340   -4.9160   -2.7580 C   0  0  0  0  0  0  0  0  0  0  0  0
   -2.7130   -5.0610   -1.3940 C   0  0  0  0  0  0  0  0  0  0  0  0
   -2.7520   -3.9310   -0.5760 C   0  0  0  0  0  0  0  0  0  0  0  0
   -0.6180   -1.9900    0.5760 C   0  0  2  0  0  0  0  0  0  0  0  0
   -0.9980   -2.4500    1.8140 O   0  0  0  0  0  0  0  0  0  0  0  0
    0.8570   -1.5920    0.5200 C   0  0  1  0  0  0  0  0  0  0  0  0
    1.0310   -0.8330   -0.6300 O   0  0  0  0  0  0  0  0  0  0  0  0
    1.3460   -0.9370    1.7650 C   0  0  1  0  0  0  0  0  0  0  0  0
    2.7710   -1.1450    2.1110 C   0  0  0  0  0  0  0  0  0  0  0  0
    3.1030   -2.5740    2.3090 C   0  0  0  0  0  0  0  0  0  0  0  0
    2.9310   -3.1650    3.5430 C   0  0  0  0  0  0  0  0  0  0  0  0
    3.2710   -4.4950    3.6650 C   0  0  0  0  0  0  0  0  0  0  0  0
    3.7660   -5.2140    2.5970 C   0  0  0  0  0  0  0  0  0  0  0  0
    3.9430   -4.6340    1.3580 C   0  0  0  0  0  0  0  0  0  0  0  0
    3.5970   -3.2920    1.2460 C   0  0  0  0  0  0  0  0  0  0  0  0
    0.9290    0.4390    1.7320 N   0  0  0  0  0  0  0  0  0  0  0  0
    1.8550    1.5200    1.9230 C   0  0  0  0  0  0  0  0  0  0  0  0
    2.4750    2.0310    0.6860 C   0  0  0  0  0  0  0  0  0  0  0  0
    1.7780    2.6330   -0.3320 C   0  0  0  0  0  0  0  0  0  0  0  0
    2.3890    3.1100   -1.4690 C   0  0  0  0  0  0  0  0  0  0  0  0
    3.7410    2.9930   -1.6160 C   0  0  0  0  0  0  0  0  0  0  0  0
    4.4620    3.4920   -2.8290 C   0  0  0  0  0  0  0  0  0  0  0  0
    4.8350    4.8000   -2.5960 O   0  0  0  0  0  0  0  0  0  0  0  0
    4.4750    2.3940   -0.6150 C   0  0  0  0  0  0  0  0  0  0  0  0
    3.8390    1.9280    0.5070 C   0  0  0  0  0  0  0  0  0  0  0  0
  1  2  2  0
  2  3  1  0
  2 33  1  0
  3  4  1  0
  3 13  1  0
  4  5  1  0
  5  6  2  0
  5 12  1  0
  6  7  1  0
  7  8  2  0
  8  9  1  0
  8 11  1  0
  9 10  1  0
 11 12  2  0
 13 14  1  1
 13 21  1  0
 14 15  1  0
 15 16  2  0
 15 20  1  0
 16 17  1  0
 17 18  2  0
 18 19  1  0
 19 20  2  0
 21 22  1  1
 21 23  1  0
 23 24  1  6
 23 25  1  0
 25 26  1  6
 25 33  1  0
 26 27  1  0
 27 28  2  0
 27 32  1  0
 28 29  1  0
 29 30  2  0
 30 31  1  0
 31 32  2  0
 33 34  1  0
 34 35  1  0
 35 36  2  0
 35 42  1  0
 36 37  1  0
 37 38  2  0
 38 39  1  0
 38 41  1  0
 39 40  1  0
 41 42  2  0
M  END
