
     RDKit          3D

 32 35  0  0  0  0  0  0  0  0999 V2000
    3.4960   -5.1290   -3.4510 C   0  0  0  0  0  0  0  0  0  0  0  0
    3.3840   -4.3540   -2.3190 O   0  0  0  0  0  0  0  0  0  0  0  0
    3.7120   -3.0200   -2.5470 C   0  0  0  0  0  0  0  0  0  0  0  0
    3.3460   -2.2320   -1.2530 C   0  0  0  0  0  0  0  0  0  0  0  0
    3.6850   -1.0130   -1.3540 O   0  0  0  0  0  0  0  0  0  0  0  0
    3.5030    0.1100   -0.4390 C   0  0  0  0  0  0  0  0  0  0  0  0
    2.6780   -0.3580    0.6480 C   0  0  0  0  0  0  0  0  0  0  0  0
    2.3950    0.5430    1.6610 C   0  0  0  0  0  0  0  0  0  0  0  0
    1.3500    0.1540    2.6920 C   0  0  0  0  0  0  0  0  0  0  0  0
    0.0190    0.5240    2.1610 C   0  0  0  0  0  0  0  0  0  0  0  0
   -1.1310   -0.0990    2.3760 C   0  0  0  0  0  0  0  0  0  0  0  0
   -1.0160   -1.2850    3.2290 C   0  0  0  0  0  0  0  0  0  0  0  0
   -2.0040   -2.1940    3.2350 C   0  0  0  0  0  0  0  0  0  0  0  0
   -3.1770   -1.9020    2.4310 C   0  0  0  0  0  0  0  0  0  0  0  0
   -3.3690   -0.7830    1.7580 C   0  0  0  0  0  0  0  0  0  0  0  0
   -2.4210    0.2960    1.7980 C   0  0  1  0  0  0  0  0  0  0  0  0
   -2.9760    1.0580    2.9800 O   0  0  0  0  0  0  0  0  0  0  0  0
   -2.4020    1.3300    0.7400 C   0  0  2  0  0  0  0  0  0  0  0  0
   -2.1190    2.6420    1.4050 C   0  0  0  0  0  0  0  0  0  0  0  0
   -1.8990    3.7340    1.9700 N   0  0  0  0  0  0  0  0  0  0  0  0
   -3.5050    1.5940   -0.1310 C   0  0  0  0  0  0  0  0  0  0  0  0
   -4.1780    0.8670   -1.0960 N   0  0  1  0  0  0  0  0  0  0  0  0
   -4.8350    1.7810   -2.0830 C   0  0  0  0  0  0  0  0  0  0  0  0
   -3.5390   -0.1230   -1.8830 C   0  0  0  0  0  0  0  0  0  0  0  0
   -1.0300    1.1850    0.0260 C   0  0  0  0  0  0  0  0  0  0  0  0
    0.0090    1.5920    1.1060 C   0  0  0  0  0  0  0  0  0  0  0  0
    2.9190    1.7770    1.5590 C   0  0  0  0  0  0  0  0  0  0  0  0
    3.7050    2.2660    0.5530 C   0  0  0  0  0  0  0  0  0  0  0  0
    3.9730    1.3100   -0.5020 C   0  0  0  0  0  0  0  0  0  0  0  0
    4.7550    1.9760   -1.4520 O   0  0  0  0  0  0  0  0  0  0  0  0
    4.4080    3.3720   -1.2810 C   0  0  0  0  0  0  0  0  0  0  0  0
    4.3640    3.4000    0.1730 O   0  0  0  0  0  0  0  0  0  0  0  0
  1  2  1  0
  2  3  1  0
  3  4  1  0
  4  5  1  0
  5  6  1  0
  6  7  2  0
  6 29  1  0
  7  8  1  0
  8  9  1  0
  8 27  2  0
  9 10  1  0
 10 11  2  0
 10 26  1  0
 11 12  1  0
 11 16  1  0
 12 13  2  0
 13 14  1  0
 14 15  2  0
 15 16  1  0
 16 17  1  1
 16 18  1  0
 18 19  1  1
 18 21  1  0
 18 25  1  0
 19 20  3  0
 21 22  1  0
 22 23  1  6
 22 24  1  0
 25 26  1  0
 27 28  1  0
 28 29  2  0
 28 32  1  0
 29 30  1  0
 30 31  1  0
 31 32  1  0
M  CHG  1  22   1
M  END
