
     RDKit          3D

 33 36  0  0  0  0  0  0  0  0999 V2000
   -4.8220   -4.0660   -0.1370 C   0  0  0  0  0  0  0  0  0  0  0  0
   -3.9870   -2.8670    0.1300 C   0  0  0  0  0  0  0  0  0  0  0  0
   -4.1930   -2.0530    1.2160 C   0  0  0  0  0  0  0  0  0  0  0  0
   -3.4030   -0.9100    1.4780 C   0  0  0  0  0  0  0  0  0  0  0  0
   -2.3710   -0.6740    0.5550 C   0  0  0  0  0  0  0  0  0  0  0  0
   -2.1630   -1.4580   -0.5230 C   0  0  0  0  0  0  0  0  0  0  0  0
   -2.9740   -2.5780   -0.7560 C   0  0  0  0  0  0  0  0  0  0  0  0
   -2.7320   -3.4390   -1.9530 C   0  0  0  0  0  0  0  0  0  0  0  0
   -1.2950    0.2140    1.1720 C   0  0  1  0  0  0  0  0  0  0  0  0
    0.0490    0.1220    0.6980 C   0  0  0  0  0  0  0  0  0  0  0  0
    0.5190   -1.1170    0.2640 C   0  0  0  0  0  0  0  0  0  0  0  0
    1.7950   -1.3120   -0.1570 C   0  0  0  0  0  0  0  0  0  0  0  0
    2.7420   -0.2800   -0.1830 C   0  0  0  0  0  0  0  0  0  0  0  0
    4.0860   -0.5720   -0.5990 C   0  0  0  0  0  0  0  0  0  0  0  0
    4.2600   -1.6420   -1.2900 O   0  0  0  0  0  0  0  0  0  0  0  0
    5.2700    0.2050   -0.3170 C   0  0  0  0  0  0  0  0  0  0  0  0
    6.5520   -0.4750   -0.8170 C   0  0  0  0  0  0  0  0  0  0  0  0
    6.7860   -1.7820   -0.1550 C   0  0  0  0  0  0  0  0  0  0  0  0
    6.8920   -1.5340    1.2340 O   0  0  0  0  0  0  0  0  0  0  0  0
    2.2900    0.9400    0.2450 C   0  0  0  0  0  0  0  0  0  0  0  0
    3.1790    2.1390    0.2230 C   0  0  0  0  0  0  0  0  0  0  0  0
    0.9720    1.1350    0.6780 C   0  0  0  0  0  0  0  0  0  0  0  0
   -1.9790    1.4000    1.5700 C   0  0  0  0  0  0  0  0  0  0  0  0
   -2.0680    2.5850    0.9730 C   0  0  0  0  0  0  0  0  0  0  0  0
   -1.4010    2.8080   -0.3340 C   0  0  0  0  0  0  0  0  0  0  0  0
   -2.5280    3.6820   -1.4880 S   0  0  0  0  0  0  0  0  0  0  0  0
   -4.0080    4.1390   -0.5600 C   0  0  0  0  0  0  0  0  0  0  0  0
   -3.5850    4.5490    0.8020 C   0  0  0  0  0  0  0  0  0  0  0  0
   -3.9090    5.6370    1.2840 O   0  0  0  0  0  0  0  0  0  0  0  0
   -2.7730    3.6570    1.5870 N   0  0  0  0  0  0  0  0  0  0  0  0
   -2.9850    1.1380    2.6760 C   0  0  0  0  0  0  0  0  0  0  0  0
   -3.1240    1.9590    3.5920 O   0  0  0  0  0  0  0  0  0  0  0  0
   -3.7000   -0.0740    2.5390 O   0  0  0  0  0  0  0  0  0  0  0  0
  1  2  1  0
  2  3  2  0
  2  7  1  0
  3  4  1  0
  4  5  2  0
  4 33  1  0
  5  6  1  0
  5  9  1  0
  6  7  2  0
  7  8  1  0
  9 10  1  6
  9 23  1  0
 10 11  2  0
 10 22  1  0
 11 12  1  0
 12 13  2  0
 13 14  1  0
 13 20  1  0
 14 15  2  0
 14 16  1  0
 16 17  1  0
 17 18  1  0
 18 19  1  0
 20 21  1  0
 20 22  2  0
 23 24  2  3
 23 31  1  0
 24 25  1  0
 24 30  1  0
 25 26  1  0
 26 27  1  0
 27 28  1  0
 28 29  2  0
 28 30  1  0
 31 32  2  0
 31 33  1  0
M  END
