
     RDKit          3D

 32 34  0  0  0  0  0  0  0  0999 V2000
   -2.6470   -2.3560    3.6300 C   0  0  0  0  0  0  0  0  0  0  0  0
   -2.4960   -2.9190    2.2550 C   0  0  0  0  0  0  0  0  0  0  0  0
   -2.6950   -1.8820    1.1950 C   0  0  0  0  0  0  0  0  0  0  0  0
   -1.6110   -1.3440    0.5150 C   0  0  0  0  0  0  0  0  0  0  0  0
   -1.6920   -0.3940   -0.4670 C   0  0  0  0  0  0  0  0  0  0  0  0
   -0.6120    0.1720   -1.1770 N   0  0  0  0  0  0  0  0  0  0  0  0
    0.7550   -0.1060   -1.0350 C   0  0  0  0  0  0  0  0  0  0  0  0
    1.1260   -0.9460   -0.1930 O   0  0  0  0  0  0  0  0  0  0  0  0
    1.8250    0.5470   -1.8380 C   0  0  0  0  0  0  0  0  0  0  0  0
    3.1610    0.0760   -1.4890 C   0  0  0  0  0  0  0  0  0  0  0  0
    3.8190   -0.9960   -2.0490 C   0  0  0  0  0  0  0  0  0  0  0  0
    4.9910   -1.0960   -1.4690 O   0  0  0  0  0  0  0  0  0  0  0  0
    5.1830   -0.1860   -0.5650 C   0  0  0  0  0  0  0  0  0  0  0  0
    6.4020    0.0040    0.2960 C   0  0  2  0  0  0  0  0  0  0  0  0
    7.5660    0.1630   -0.6540 C   0  0  0  0  0  0  0  0  0  0  0  0
    6.6170   -1.2530    1.1010 C   0  0  0  0  0  0  0  0  0  0  0  0
    7.8170   -1.0910    1.9590 C   0  0  0  0  0  0  0  0  0  0  0  0
    8.6400    0.1230    1.9760 C   0  0  0  0  0  0  0  0  0  0  0  0
    8.1410   -2.0340    2.7020 O   0  0  0  0  0  0  0  0  0  0  0  0
    4.0370    0.5790   -0.5510 C   0  0  0  0  0  0  0  0  0  0  0  0
   -2.9890    0.0470   -0.7830 C   0  0  0  0  0  0  0  0  0  0  0  0
   -3.1810    1.0000   -1.7590 O   0  0  0  0  0  0  0  0  0  0  0  0
   -4.3540    1.5700   -2.2040 C   0  0  0  0  0  0  0  0  0  0  0  0
   -5.1280    2.3450   -1.2390 C   0  0  0  0  0  0  0  0  0  0  0  0
   -4.7940    2.6120    0.0650 C   0  0  0  0  0  0  0  0  0  0  0  0
   -5.7440    3.3690    0.6110 O   0  0  0  0  0  0  0  0  0  0  0  0
   -6.6810    3.6140   -0.2570 C   0  0  0  0  0  0  0  0  0  0  0  0
   -6.3290    2.9800   -1.4530 C   0  0  0  0  0  0  0  0  0  0  0  0
   -7.1150    2.9980   -2.7120 C   0  0  0  0  0  0  0  0  0  0  0  0
   -4.0800   -0.4700   -0.1250 C   0  0  0  0  0  0  0  0  0  0  0  0
   -3.9480   -1.4320    0.8640 C   0  0  0  0  0  0  0  0  0  0  0  0
   -5.1330   -1.9750    1.5600 C   0  0  0  0  0  0  0  0  0  0  0  0
  1  2  1  0
  2  3  1  0
  3  4  2  0
  3 31  1  0
  4  5  1  0
  5  6  1  0
  5 21  2  0
  6  7  1  0
  7  8  2  0
  7  9  1  0
  9 10  1  0
 10 11  2  0
 10 20  1  0
 11 12  1  0
 12 13  1  0
 13 14  1  0
 13 20  2  0
 14 15  1  6
 14 16  1  0
 16 17  1  0
 17 18  1  0
 17 19  2  0
 21 22  1  0
 21 30  1  0
 22 23  1  0
 23 24  1  0
 24 25  2  0
 24 28  1  0
 25 26  1  0
 26 27  1  0
 27 28  2  0
 28 29  1  0
 30 31  2  0
 31 32  1  0
M  END
