
     RDKit          3D

 33 35  0  0  0  0  0  0  0  0999 V2000
    0.3940    4.2800   -1.8740 C   0  0  0  0  0  0  0  0  0  0  0  0
   -0.2280    3.4120   -0.9700 O   0  0  0  0  0  0  0  0  0  0  0  0
    0.7240    2.7210   -0.2260 C   0  0  1  0  0  0  0  0  0  0  0  0
    0.6280    3.0430    1.1500 O   0  0  0  0  0  0  0  0  0  0  0  0
   -0.7090    3.0480    1.4490 C   0  0  2  0  0  0  0  0  0  0  0  0
   -0.9950    3.5640    2.8490 C   0  0  0  0  0  0  0  0  0  0  0  0
   -0.3930    2.8160    3.8310 O   0  0  0  0  0  0  0  0  0  0  0  0
   -1.2060    1.6100    1.4160 C   0  0  1  0  0  0  0  0  0  0  0  0
   -2.5880    1.6950    1.5950 O   0  0  0  0  0  0  0  0  0  0  0  0
   -0.9320    0.9550    0.0790 C   0  0  2  0  0  0  0  0  0  0  0  0
   -1.1960   -0.4000    0.2200 O   0  0  0  0  0  0  0  0  0  0  0  0
   -2.3130   -0.8050   -0.5370 C   0  0  1  0  0  0  0  0  0  0  0  0
   -1.8540   -1.6300   -1.5290 O   0  0  0  0  0  0  0  0  0  0  0  0
   -2.8910   -2.1940   -2.2720 C   0  0  2  0  0  0  0  0  0  0  0  0
   -3.9160   -1.1880   -2.7040 C   0  0  0  0  0  0  0  0  0  0  0  0
   -3.5590   -3.2010   -1.3760 C   0  0  2  0  0  0  0  0  0  0  0  0
   -4.6270   -3.8110   -2.0560 O   0  0  0  0  0  0  0  0  0  0  0  0
   -3.9930   -2.6300   -0.0670 C   0  0  0  0  0  0  0  0  0  0  0  0
   -3.3930   -1.3450    0.3170 C   0  0  1  0  0  0  0  0  0  0  0  0
   -2.8840   -1.4550    1.6330 O   0  0  0  0  0  0  0  0  0  0  0  0
    0.4580    1.2410   -0.4220 C   0  0  2  0  0  0  0  0  0  0  0  0
    1.4100    0.4480    0.1630 O   0  0  0  0  0  0  0  0  0  0  0  0
    2.1420   -0.3500   -0.6680 C   0  0  1  0  0  0  0  0  0  0  0  0
    3.5020    0.0630   -0.6570 O   0  0  0  0  0  0  0  0  0  0  0  0
    3.9950    0.0120    0.6460 C   0  0  2  0  0  0  0  0  0  0  0  0
    5.4140    0.5180    0.6130 C   0  0  0  0  0  0  0  0  0  0  0  0
    5.9630    0.4880    1.9090 O   0  0  0  0  0  0  0  0  0  0  0  0
    4.0190   -1.4020    1.1780 C   0  0  2  0  0  0  0  0  0  0  0  0
    5.0290   -2.1130    0.5290 O   0  0  0  0  0  0  0  0  0  0  0  0
    2.6770   -2.0890    1.0580 C   0  0  2  0  0  0  0  0  0  0  0  0
    2.9150   -3.4650    1.1280 O   0  0  0  0  0  0  0  0  0  0  0  0
    2.1590   -1.8050   -0.3350 C   0  0  1  0  0  0  0  0  0  0  0  0
    0.9660   -2.4680   -0.5870 O   0  0  0  0  0  0  0  0  0  0  0  0
  1  2  1  0
  3  2  1  6
  3  4  1  0
  3 21  1  0
  4  5  1  0
  5  6  1  1
  5  8  1  0
  6  7  1  0
  8  9  1  6
  8 10  1  0
 10 11  1  1
 10 21  1  0
 12 11  1  1
 12 13  1  0
 12 19  1  0
 13 14  1  0
 14 15  1  1
 14 16  1  0
 16 17  1  6
 16 18  1  0
 18 19  1  0
 19 20  1  1
 21 22  1  1
 23 22  1  1
 23 24  1  0
 23 32  1  0
 24 25  1  0
 25 26  1  6
 25 28  1  0
 26 27  1  0
 28 29  1  6
 28 30  1  0
 30 31  1  6
 30 32  1  0
 32 33  1  1
M  END
