
     RDKit          3D

 33 35  0  0  0  0  0  0  0  0999 V2000
    8.2110   -1.5740    0.1730 C   0  0  0  0  0  0  0  0  0  0  0  0
    8.2130   -0.5020    1.1650 C   0  0  0  0  0  0  0  0  0  0  0  0
    9.3680   -0.2760    1.7070 O   0  0  0  0  0  0  0  0  0  0  0  0
    7.1190    0.3120    1.6000 C   0  0  0  0  0  0  0  0  0  0  0  0
    5.8790    0.2710    1.2210 C   0  0  0  0  0  0  0  0  0  0  0  0
    5.3000   -0.6360    0.2450 C   0  0  0  0  0  0  0  0  0  0  0  0
    3.8030   -0.8840    0.3660 C   0  0  0  0  0  0  0  0  0  0  0  0
    2.9370    0.2920    0.3060 C   0  0  0  0  0  0  0  0  0  0  0  0
    1.7170    0.3710   -0.4800 C   0  0  0  0  0  0  0  0  0  0  0  0
    1.0690   -0.4760   -1.1860 C   0  0  0  0  0  0  0  0  0  0  0  0
    1.4140   -1.8640   -1.3870 C   0  0  0  0  0  0  0  0  0  0  0  0
    1.5290   -2.6570   -0.4110 O   0  0  0  0  0  0  0  0  0  0  0  0
    1.6270   -2.3540   -2.7510 C   0  0  0  0  0  0  0  0  0  0  0  0
    0.9750   -1.3520   -3.6990 C   0  0  0  0  0  0  0  0  0  0  0  0
   -0.3510   -0.8810   -3.1440 C   0  0  0  0  0  0  0  0  0  0  0  0
   -0.1630    0.0280   -1.9410 C   0  0  1  0  0  0  0  0  0  0  0  0
   -1.3380   -0.0930   -1.1080 N   0  0  0  0  0  0  0  0  0  0  0  0
   -2.1380    1.0130   -0.7990 C   0  0  0  0  0  0  0  0  0  0  0  0
   -1.7130    2.1130   -1.3290 O   0  0  0  0  0  0  0  0  0  0  0  0
   -3.3310    1.0830    0.0030 C   0  0  0  0  0  0  0  0  0  0  0  0
   -3.8820    2.3630    0.1990 C   0  0  0  0  0  0  0  0  0  0  0  0
   -5.0180    2.5840    0.9410 C   0  0  0  0  0  0  0  0  0  0  0  0
   -5.5850    3.9450    1.1370 C   0  0  0  0  0  0  0  0  0  0  0  0
   -5.6600    1.5060    1.5290 C   0  0  0  0  0  0  0  0  0  0  0  0
   -6.8850    1.7080    2.3340 C   0  0  0  0  0  0  0  0  0  0  0  0
   -5.1570    0.2570    1.3620 C   0  0  0  0  0  0  0  0  0  0  0  0
   -5.8230   -0.9030    1.9780 C   0  0  0  0  0  0  0  0  0  0  0  0
   -3.9920    0.0410    0.5990 C   0  0  0  0  0  0  0  0  0  0  0  0
   -3.5580   -1.3440    0.5060 C   0  0  0  0  0  0  0  0  0  0  0  0
   -3.9940   -2.0510   -0.4650 O   0  0  0  0  0  0  0  0  0  0  0  0
   -2.6950   -1.9250    1.4320 O   0  0  0  0  0  0  0  0  0  0  0  0
    3.2680    1.4160    0.9800 C   0  0  0  0  0  0  0  0  0  0  0  0
    4.7500    1.4900    1.9570 S   0  0  0  0  0  0  0  0  0  0  0  0
  1  2  1  0
  2  3  2  0
  2  4  1  0
  4  5  2  3
  5  6  1  0
  5 33  1  0
  6  7  1  0
  7  8  1  0
  8  9  1  0
  8 32  2  0
  9 10  2  3
 10 11  1  0
 10 16  1  0
 11 12  2  0
 11 13  1  0
 13 14  1  0
 14 15  1  0
 15 16  1  0
 16 17  1  1
 17 18  1  0
 18 19  2  0
 18 20  1  0
 20 21  2  0
 20 28  1  0
 21 22  1  0
 22 23  1  0
 22 24  2  0
 24 25  1  0
 24 26  1  0
 26 27  1  0
 26 28  2  0
 28 29  1  0
 29 30  2  0
 29 31  1  0
 32 33  1  0
M  END
