
     RDKit          3D

 32 34  0  0  0  0  0  0  0  0999 V2000
   -3.6310   -4.6260    1.4190 C   0  0  0  0  0  0  0  0  0  0  0  0
   -3.1650   -3.9870    0.2740 O   0  0  0  0  0  0  0  0  0  0  0  0
   -2.6160   -2.7440    0.5800 C   0  0  0  0  0  0  0  0  0  0  0  0
   -2.1330   -2.0450   -0.6820 C   0  0  2  0  0  0  0  0  0  0  0  0
   -1.0860   -2.8650   -1.3750 C   0  0  0  0  0  0  0  0  0  0  0  0
   -1.5720   -0.7860   -0.3720 O   0  0  0  0  0  0  0  0  0  0  0  0
   -2.0400    0.4350   -0.7490 C   0  0  0  0  0  0  0  0  0  0  0  0
   -3.1110    0.3930   -1.4610 O   0  0  0  0  0  0  0  0  0  0  0  0
   -1.4970    1.7370   -0.4560 C   0  0  0  0  0  0  0  0  0  0  0  0
   -2.1580    2.8800   -0.9590 C   0  0  0  0  0  0  0  0  0  0  0  0
   -1.6750    4.1290   -0.7190 C   0  0  0  0  0  0  0  0  0  0  0  0
   -2.3430    5.3010   -1.2360 C   0  0  0  0  0  0  0  0  0  0  0  0
   -3.3920    5.2380   -2.0200 C   0  0  0  0  0  0  0  0  0  0  0  0
   -3.9850    6.5110   -2.4820 C   0  0  0  0  0  0  0  0  0  0  0  0
   -4.9840    6.4320   -3.2360 O   0  0  0  0  0  0  0  0  0  0  0  0
   -0.5030    4.2510    0.0410 C   0  0  0  0  0  0  0  0  0  0  0  0
    0.1480    3.1420    0.5340 C   0  0  0  0  0  0  0  0  0  0  0  0
   -0.3560    1.8690    0.2830 C   0  0  0  0  0  0  0  0  0  0  0  0
    0.3060    0.7180    0.8360 C   0  0  0  0  0  0  0  0  0  0  0  0
   -0.2190   -0.1090    1.7940 C   0  0  0  0  0  0  0  0  0  0  0  0
    0.4750   -1.2220    2.2650 C   0  0  0  0  0  0  0  0  0  0  0  0
    1.7180   -1.5210    1.7730 C   0  0  0  0  0  0  0  0  0  0  0  0
    2.5650   -2.5490    2.0110 N   0  0  0  0  0  0  0  0  0  0  0  0
    3.6490   -2.4490    1.2540 C   0  0  0  0  0  0  0  0  0  0  0  0
    4.8190   -3.3980    1.2190 C   0  0  0  0  0  0  0  0  0  0  0  0
    3.5000   -1.2820    0.4790 C   0  0  0  0  0  0  0  0  0  0  0  0
    4.4420   -0.9300   -0.5320 C   0  0  0  0  0  0  0  0  0  0  0  0
    4.9660    0.1740   -0.9340 C   0  0  0  0  0  0  0  0  0  0  0  0
    4.8240    1.5310   -0.5040 C   0  0  0  0  0  0  0  0  0  0  0  0
    4.1550    1.9890    0.4460 O   0  0  0  0  0  0  0  0  0  0  0  0
    2.2850   -0.7080    0.8050 C   0  0  0  0  0  0  0  0  0  0  0  0
    1.5670    0.3880    0.3590 C   0  0  0  0  0  0  0  0  0  0  0  0
  1  2  1  0
  2  3  1  0
  3  4  1  0
  4  5  1  1
  4  6  1  0
  6  7  1  0
  7  8  2  0
  7  9  1  0
  9 10  2  0
  9 18  1  0
 10 11  1  0
 11 12  1  0
 11 16  2  0
 12 13  2  3
 13 14  1  0
 14 15  2  0
 16 17  1  0
 17 18  2  0
 18 19  1  0
 19 20  2  0
 19 32  1  0
 20 21  1  0
 21 22  2  0
 22 23  1  0
 22 31  1  0
 23 24  1  0
 24 25  1  0
 24 26  2  0
 26 27  1  0
 26 31  1  0
 27 28  2  3
 28 29  1  0
 29 30  2  0
 31 32  2  0
M  END
