
     RDKit          3D

 33 36  0  0  0  0  0  0  0  0999 V2000
   -5.3430    4.5230   -0.0500 C   0  0  0  0  0  0  0  0  0  0  0  0
   -4.3050    4.3230   -1.1190 C   0  0  0  0  0  0  0  0  0  0  0  0
   -3.8550    3.1170   -1.4360 C   0  0  0  0  0  0  0  0  0  0  0  0
   -2.8360    2.9550   -2.4900 C   0  0  0  0  0  0  0  0  0  0  0  0
   -1.6510    2.3490   -2.0030 O   0  0  0  0  0  0  0  0  0  0  0  0
   -1.6570    1.0520   -1.4250 C   0  0  0  0  0  0  0  0  0  0  0  0
   -2.7780    0.5350   -1.3990 O   0  0  0  0  0  0  0  0  0  0  0  0
   -0.4080    0.5080   -0.9550 C   0  0  0  0  0  0  0  0  0  0  0  0
    0.7260    1.3150   -1.0950 C   0  0  0  0  0  0  0  0  0  0  0  0
    1.9700    0.8620   -0.6550 C   0  0  0  0  0  0  0  0  0  0  0  0
    2.0880   -0.3670   -0.0850 C   0  0  0  0  0  0  0  0  0  0  0  0
    0.9400   -1.1230    0.0290 C   0  0  0  0  0  0  0  0  0  0  0  0
   -0.3190   -0.7470   -0.3810 C   0  0  0  0  0  0  0  0  0  0  0  0
   -1.4560   -1.5820   -0.2470 N   0  0  0  0  0  0  0  0  0  0  0  0
   -1.4850   -2.8560    0.3760 C   0  0  0  0  0  0  0  0  0  0  0  0
   -0.4760   -3.3660    0.8780 O   0  0  0  0  0  0  0  0  0  0  0  0
   -2.7400   -3.6560    0.4610 C   0  0  2  0  0  0  0  0  0  0  0  0
   -3.8490   -2.9370    1.1500 C   0  0  0  0  0  0  0  0  0  0  0  0
   -5.1490   -3.6830    0.8380 C   0  0  0  0  0  0  0  0  0  0  0  0
   -4.9300   -5.1690    0.7450 C   0  0  0  0  0  0  0  0  0  0  0  0
   -3.6930   -5.5930    1.4690 C   0  0  0  0  0  0  0  0  0  0  0  0
   -3.6720   -6.5050    2.3210 O   0  0  0  0  0  0  0  0  0  0  0  0
   -2.5270   -4.8850    1.1220 O   0  0  0  0  0  0  0  0  0  0  0  0
    3.4130   -0.8680    0.4140 C   0  0  0  0  0  0  0  0  0  0  0  0
    3.6450   -2.0650    0.9660 C   0  0  0  0  0  0  0  0  0  0  0  0
    4.9760   -2.3330    1.3390 C   0  0  0  0  0  0  0  0  0  0  0  0
    5.8540   -0.8940    0.9020 S   0  0  0  0  0  0  0  0  0  0  0  0
    4.4230    0.0330    0.2320 C   0  0  0  0  0  0  0  0  0  0  0  0
    4.3790    1.3620   -0.3250 C   0  0  2  0  0  0  0  0  0  0  0  0
    4.7990    2.4160    0.6980 C   0  0  0  0  0  0  0  0  0  0  0  0
    6.1860    2.2300    1.2120 C   0  0  0  0  0  0  0  0  0  0  0  0
    7.2280    2.2830    0.1140 C   0  0  0  0  0  0  0  0  0  0  0  0
    3.0800    1.8100   -0.8840 C   0  0  0  0  0  0  0  0  0  0  0  0
  1  2  1  0
  2  3  2  3
  3  4  1  0
  4  5  1  0
  5  6  1  0
  6  7  2  0
  6  8  1  0
  8  9  2  0
  8 13  1  0
  9 10  1  0
 10 11  2  0
 10 33  1  0
 11 12  1  0
 11 24  1  0
 12 13  2  0
 13 14  1  0
 14 15  1  0
 15 16  2  0
 17 15  1  1
 17 18  1  0
 17 23  1  0
 18 19  1  0
 19 20  1  0
 20 21  1  0
 21 22  2  0
 21 23  1  0
 24 25  1  0
 24 28  2  0
 25 26  2  0
 26 27  1  0
 27 28  1  0
 28 29  1  0
 29 30  1  1
 29 33  1  0
 30 31  1  0
 31 32  1  0
M  END
