
     RDKit          3D

 33 36  0  0  0  0  0  0  0  0999 V2000
   -5.2950   -3.9490    0.5390 C   0  0  0  0  0  0  0  0  0  0  0  0
   -4.3590   -2.7720    0.5010 C   0  0  0  0  0  0  0  0  0  0  0  0
   -4.6160   -1.6340    1.2190 C   0  0  0  0  0  0  0  0  0  0  0  0
   -3.7210   -0.5330    1.1730 C   0  0  0  0  0  0  0  0  0  0  0  0
   -2.5820   -0.6720    0.3930 C   0  0  0  0  0  0  0  0  0  0  0  0
   -2.3100   -1.7750   -0.3340 C   0  0  0  0  0  0  0  0  0  0  0  0
   -3.2210   -2.8350   -0.2680 C   0  0  0  0  0  0  0  0  0  0  0  0
   -2.9540   -4.0620   -1.0490 C   0  0  0  0  0  0  0  0  0  0  0  0
   -1.5070    0.3040    0.8210 C   0  0  1  0  0  0  0  0  0  0  0  0
   -0.1290    0.0430    0.6360 C   0  0  0  0  0  0  0  0  0  0  0  0
    0.7820    1.0820    0.5880 C   0  0  0  0  0  0  0  0  0  0  0  0
    2.1340    0.9000    0.4390 C   0  0  0  0  0  0  0  0  0  0  0  0
    2.6550   -0.3900    0.3310 C   0  0  0  0  0  0  0  0  0  0  0  0
    4.0880   -0.5980    0.1730 C   0  0  0  0  0  0  0  0  0  0  0  0
    4.5340   -1.7560    0.0830 O   0  0  0  0  0  0  0  0  0  0  0  0
    5.0500    0.5320    0.1140 C   0  0  0  0  0  0  0  0  0  0  0  0
    6.4440   -0.0210   -0.0530 C   0  0  0  0  0  0  0  0  0  0  0  0
    7.4060    1.1510   -0.1100 C   0  0  0  0  0  0  0  0  0  0  0  0
    7.2820    1.8520    1.0850 O   0  0  0  0  0  0  0  0  0  0  0  0
    1.7750   -1.4300    0.3800 C   0  0  0  0  0  0  0  0  0  0  0  0
    2.2800   -2.8180    0.2690 C   0  0  0  0  0  0  0  0  0  0  0  0
    0.3850   -1.2300    0.5340 C   0  0  0  0  0  0  0  0  0  0  0  0
   -2.1400    1.5850    0.7270 C   0  0  0  0  0  0  0  0  0  0  0  0
   -2.0080    2.5200   -0.2090 C   0  0  0  0  0  0  0  0  0  0  0  0
   -1.1020    2.3150   -1.3940 C   0  0  0  0  0  0  0  0  0  0  0  0
   -1.9960    3.0690   -2.8310 S   0  0  0  0  0  0  0  0  0  0  0  0
   -2.0640    4.8510   -2.3350 C   0  0  0  0  0  0  0  0  0  0  0  0
   -2.3580    4.9150   -0.8770 C   0  0  0  0  0  0  0  0  0  0  0  0
   -2.2970    6.0080   -0.3050 O   0  0  0  0  0  0  0  0  0  0  0  0
   -2.7070    3.7310   -0.1490 N   0  0  0  0  0  0  0  0  0  0  0  0
   -3.2770    1.7760    1.6890 C   0  0  0  0  0  0  0  0  0  0  0  0
   -3.4770    2.8570    2.2780 O   0  0  0  0  0  0  0  0  0  0  0  0
   -4.0880    0.6250    1.8580 O   0  0  0  0  0  0  0  0  0  0  0  0
  1  2  1  0
  2  3  2  0
  2  7  1  0
  3  4  1  0
  4  5  2  0
  4 33  1  0
  5  6  1  0
  5  9  1  0
  6  7  2  0
  7  8  1  0
  9 10  1  6
  9 23  1  0
 10 11  2  0
 10 22  1  0
 11 12  1  0
 12 13  2  0
 13 14  1  0
 13 20  1  0
 14 15  2  0
 14 16  1  0
 16 17  1  0
 17 18  1  0
 18 19  1  0
 20 21  1  0
 20 22  2  0
 23 24  2  3
 23 31  1  0
 24 25  1  0
 24 30  1  0
 25 26  1  0
 26 27  1  0
 27 28  1  0
 28 29  2  0
 28 30  1  0
 31 32  2  0
 31 33  1  0
M  END
