
     RDKit          3D

 32 34  0  0  0  0  0  0  0  0999 V2000
    3.0320   -3.2560    1.3310 C   0  0  0  0  0  0  0  0  0  0  0  0
    3.1480   -1.9690    0.6760 C   0  0  0  0  0  0  0  0  0  0  0  0
    2.5190   -1.5430   -0.4310 C   0  0  0  0  0  0  0  0  0  0  0  0
    1.6110   -2.4050   -1.1010 C   0  0  0  0  0  0  0  0  0  0  0  0
    0.8440   -2.4160   -2.1200 C   0  0  0  0  0  0  0  0  0  0  0  0
    0.4520   -1.5490   -3.1920 C   0  0  0  0  0  0  0  0  0  0  0  0
   -0.4280   -2.0320   -4.1920 C   0  0  0  0  0  0  0  0  0  0  0  0
   -0.8670   -1.2550   -5.2430 C   0  0  0  0  0  0  0  0  0  0  0  0
   -0.4490    0.0370   -5.3460 C   0  0  0  0  0  0  0  0  0  0  0  0
    0.3890    0.5630   -4.4300 C   0  0  0  0  0  0  0  0  0  0  0  0
    0.8240   -0.2380   -3.3690 C   0  0  0  0  0  0  0  0  0  0  0  0
    2.8100   -0.2470   -0.8580 O   0  0  0  0  0  0  0  0  0  0  0  0
    2.5050    0.8790   -0.0430 C   0  0  0  0  0  0  0  0  0  0  0  0
    1.0460    0.9570    0.2370 C   0  0  0  0  0  0  0  0  0  0  0  0
    0.2480    0.0820   -0.1940 O   0  0  0  0  0  0  0  0  0  0  0  0
    0.5240    2.0620    1.0190 C   0  0  0  0  0  0  0  0  0  0  0  0
   -0.7870    2.1890    1.3130 C   0  0  0  0  0  0  0  0  0  0  0  0
   -1.7970    1.2610    0.8940 C   0  0  0  0  0  0  0  0  0  0  0  0
   -2.0450   -0.0230    1.2720 C   0  0  0  0  0  0  0  0  0  0  0  0
   -1.4620   -0.8090    2.3570 C   0  0  0  0  0  0  0  0  0  0  0  0
   -0.6690   -0.2990    3.2560 C   0  0  0  0  0  0  0  0  0  0  0  0
   -0.0870   -1.1030    4.3440 C   0  0  0  0  0  0  0  0  0  0  0  0
   -0.4090   -2.4520    4.2960 O   0  0  0  0  0  0  0  0  0  0  0  0
   -1.2470   -2.9870    3.3490 C   0  0  0  0  0  0  0  0  0  0  0  0
   -1.7690   -2.2490    2.4110 C   0  0  0  0  0  0  0  0  0  0  0  0
   -3.0660   -0.4310    0.4560 N   0  0  0  0  0  0  0  0  0  0  0  0
   -3.3980    0.5250   -0.3350 O   0  0  0  0  0  0  0  0  0  0  0  0
   -2.6930    1.5910   -0.1500 C   0  0  0  0  0  0  0  0  0  0  0  0
   -2.8000    2.8760   -0.8740 C   0  0  0  0  0  0  0  0  0  0  0  0
   -3.5130    3.8890    0.0050 C   0  0  0  0  0  0  0  0  0  0  0  0
    1.4880    3.0980    1.4950 C   0  0  0  0  0  0  0  0  0  0  0  0
    2.4520    2.5390    2.3240 O   0  0  0  0  0  0  0  0  0  0  0  0
  1  2  1  0
  2  3  2  3
  3  4  1  0
  3 12  1  0
  4  5  2  3
  5  6  1  0
  6  7  2  0
  6 11  1  0
  7  8  1  0
  8  9  2  0
  9 10  1  0
 10 11  2  0
 12 13  1  0
 13 14  1  0
 14 15  2  0
 14 16  1  0
 16 17  2  3
 16 31  1  0
 17 18  1  0
 18 19  1  0
 18 28  2  0
 19 20  1  0
 19 26  2  0
 20 21  2  0
 20 25  1  0
 21 22  1  0
 22 23  1  0
 23 24  1  0
 24 25  2  0
 26 27  1  0
 27 28  1  0
 28 29  1  0
 29 30  1  0
 31 32  1  0
M  END
