
     RDKit          3D

 32 34  0  0  0  0  0  0  0  0999 V2000
   -3.2280    4.2470   -1.6460 C   0  0  0  0  0  0  0  0  0  0  0  0
   -2.0300    3.8220   -1.0520 O   0  0  0  0  0  0  0  0  0  0  0  0
   -1.9620    2.6910   -0.2280 C   0  0  0  0  0  0  0  0  0  0  0  0
   -2.9720    2.0410   -0.0180 O   0  0  0  0  0  0  0  0  0  0  0  0
   -0.6720    2.3130    0.3660 C   0  0  0  0  0  0  0  0  0  0  0  0
   -0.0340    3.3230    1.0820 C   0  0  0  0  0  0  0  0  0  0  0  0
    1.0530    2.9960    1.8080 C   0  0  0  0  0  0  0  0  0  0  0  0
    1.7630    4.0710    2.5500 C   0  0  0  0  0  0  0  0  0  0  0  0
    1.4940    1.6810    1.8170 C   0  0  0  0  0  0  0  0  0  0  0  0
    0.8450    0.6580    1.0810 C   0  0  0  0  0  0  0  0  0  0  0  0
    1.5340   -0.6260    1.1820 C   0  0  0  0  0  0  0  0  0  0  0  0
    2.7370   -0.9080    0.4030 C   0  0  0  0  0  0  0  0  0  0  0  0
    2.9200   -0.8460   -0.9440 C   0  0  0  0  0  0  0  0  0  0  0  0
    4.0990   -1.1790   -1.6210 C   0  0  0  0  0  0  0  0  0  0  0  0
    4.2860   -1.1180   -2.9550 O   0  0  0  0  0  0  0  0  0  0  0  0
    3.6370   -0.7870   -4.0840 C   0  0  0  0  0  0  0  0  0  0  0  0
    5.1840   -1.6130   -0.8490 C   0  0  0  0  0  0  0  0  0  0  0  0
    5.0530   -1.6910    0.5010 C   0  0  0  0  0  0  0  0  0  0  0  0
    6.1890   -2.1460    1.2130 O   0  0  0  0  0  0  0  0  0  0  0  0
    6.2350   -2.2910    2.6070 C   0  0  0  0  0  0  0  0  0  0  0  0
    3.8750   -1.3510    1.1160 C   0  0  0  0  0  0  0  0  0  0  0  0
   -0.2730    1.0120    0.3360 C   0  0  0  0  0  0  0  0  0  0  0  0
   -0.8170    0.0810   -0.6530 C   0  0  0  0  0  0  0  0  0  0  0  0
   -2.1220   -0.2940   -0.8350 N   0  0  0  0  0  0  0  0  0  0  0  0
   -2.9900   -1.1940   -0.2250 C   0  0  0  0  0  0  0  0  0  0  0  0
   -2.5870   -2.1530    0.6870 C   0  0  0  0  0  0  0  0  0  0  0  0
   -3.4470   -3.0820    1.1990 C   0  0  0  0  0  0  0  0  0  0  0  0
   -4.7640   -3.1210    0.8340 C   0  0  0  0  0  0  0  0  0  0  0  0
   -5.2520   -2.1670   -0.1030 C   0  0  0  0  0  0  0  0  0  0  0  0
   -6.5930   -2.2390   -0.4350 O   0  0  0  0  0  0  0  0  0  0  0  0
   -7.2780   -1.4270   -1.3350 C   0  0  0  0  0  0  0  0  0  0  0  0
   -4.3630   -1.2730   -0.5710 C   0  0  0  0  0  0  0  0  0  0  0  0
  1  2  1  0
  2  3  1  0
  3  4  2  0
  3  5  1  0
  5  6  2  0
  5 22  1  0
  6  7  1  0
  7  8  1  0
  7  9  2  0
  9 10  1  0
 10 11  1  0
 10 22  2  0
 11 12  1  0
 12 13  2  0
 12 21  1  0
 13 14  1  0
 14 15  1  0
 14 17  2  0
 15 16  1  0
 17 18  1  0
 18 19  1  0
 18 21  2  0
 19 20  1  0
 22 23  1  0
 23 24  1  0
 24 25  1  0
 25 26  2  0
 25 32  1  0
 26 27  1  0
 27 28  2  0
 28 29  1  0
 29 30  1  0
 29 32  2  0
 30 31  1  0
M  END
