
     RDKit          3D

 15 15  0  0  0  0  0  0  0  0999 V2000
    4.4060   -0.5430    0.0210 N   0  0  0  0  0  0  0  0  0  0  0  0
    3.2450   -0.5550    0.8390 C   0  0  0  0  0  0  0  0  0  0  0  0
    3.2460   -0.8340    2.0650 O   0  0  0  0  0  0  0  0  0  0  0  0
    2.0360   -0.2370    0.2360 O   0  0  0  0  0  0  0  0  0  0  0  0
    0.8260   -0.2110    0.9160 C   0  0  0  0  0  0  0  0  0  0  0  0
    0.8350   -0.4900    2.1340 O   0  0  0  0  0  0  0  0  0  0  0  0
   -0.4250    0.1450    0.1740 C   0  0  2  0  0  0  0  0  0  0  0  0
   -0.2860    1.5330   -0.4010 C   0  0  0  0  0  0  0  0  0  0  0  0
   -0.0720    2.4960    0.6580 N   0  0  0  0  0  0  0  0  0  0  0  0
   -1.6100    0.0690    1.1050 C   0  0  0  0  0  0  0  0  0  0  0  0
   -2.8010   -0.5890    0.4370 C   0  0  0  0  0  0  0  0  0  0  0  0
   -2.5530   -1.8660    0.0080 O   0  0  0  0  0  0  0  0  0  0  0  0
   -1.2020   -2.1160   -0.2030 C   0  0  0  0  0  0  0  0  0  0  0  0
   -0.6130   -0.9020   -0.8890 C   0  0  1  0  0  0  0  0  0  0  0  0
   -1.3980   -0.4750   -1.9500 O   0  0  0  0  0  0  0  0  0  0  0  0
  1  2  1  0
  2  3  2  0
  2  4  1  0
  4  5  1  0
  5  6  2  0
  5  7  1  0
  7  8  1  6
  7 10  1  0
  7 14  1  0
  8  9  1  0
 10 11  1  0
 11 12  1  0
 12 13  1  0
 13 14  1  0
 14 15  1  6
M  CHG  1   9   1
M  END
