
     RDKit          3D

 15 15  0  0  0  0  0  0  0  0999 V2000
    3.4010    0.0310    1.4310 N   0  0  0  0  0  0  0  0  0  0  0  0
    3.7670   -1.1990    0.8650 C   0  0  0  0  0  0  0  0  0  0  0  0
    4.9190   -1.6600    1.0920 O   0  0  0  0  0  0  0  0  0  0  0  0
    2.8460   -1.9620    0.0160 C   0  0  0  0  0  0  0  0  0  0  0  0
    1.6360   -1.2560   -0.1030 O   0  0  0  0  0  0  0  0  0  0  0  0
    1.5910    0.0140   -0.6570 C   0  0  0  0  0  0  0  0  0  0  0  0
    2.6390    0.5690   -1.0690 O   0  0  0  0  0  0  0  0  0  0  0  0
    0.2680    0.6860   -0.7430 C   0  0  2  0  0  0  0  0  0  0  0  0
    0.2460    2.0060   -0.0060 C   0  0  0  0  0  0  0  0  0  0  0  0
   -0.9660    2.1550    0.6760 O   0  0  0  0  0  0  0  0  0  0  0  0
   -2.0110    1.8930   -0.1970 C   0  0  0  0  0  0  0  0  0  0  0  0
   -1.9770    0.4340   -0.5700 C   0  0  2  0  0  0  0  0  0  0  0  0
   -3.0820   -0.3290    0.1520 C   0  0  0  0  0  0  0  0  0  0  0  0
   -3.0740   -1.7160   -0.2110 N   0  0  0  0  0  0  0  0  0  0  0  0
   -0.7360   -0.1030   -0.2340 O   0  0  0  0  0  0  0  0  0  0  0  0
  1  2  1  0
  2  3  2  0
  2  4  1  0
  4  5  1  0
  5  6  1  0
  6  7  2  0
  8  6  1  1
  8  9  1  0
  8 15  1  0
  9 10  1  0
 10 11  1  0
 11 12  1  0
 12 13  1  1
 12 15  1  0
 13 14  1  0
M  CHG  1  14   1
M  END
