
     RDKit          3D

 32 33  0  0  0  0  0  0  0  0999 V2000
    1.2070   -5.0910    0.3520 C   0  0  0  0  0  0  0  0  0  0  0  0
    1.7340   -3.2880    0.3380 P   0  0  0  0  0  0  0  0  0  0  0  0
    3.5450   -3.3200    0.4740 N   0  0  0  0  0  0  0  0  0  0  0  0
    3.8760   -4.0770    1.5560 O   0  0  0  0  0  0  0  0  0  0  0  0
    1.0030   -2.4220    1.6120 O   0  0  0  0  0  0  0  0  0  0  0  0
   -0.0240   -1.7090    1.3390 O   0  0  0  0  0  0  0  0  0  0  0  0
    0.0320   -0.8900    0.2450 C   0  0  1  0  0  0  0  0  0  0  0  0
    0.2260   -1.6420   -0.9360 O   0  0  0  0  0  0  0  0  0  0  0  0
   -1.1790   -2.6810   -1.0480 P   0  0  0  0  0  0  0  0  0  0  0  0
   -0.7320   -4.0410   -2.0240 O   0  0  0  0  0  0  0  0  0  0  0  0
   -1.6970   -3.2110    0.4980 F   0  0  0  0  0  0  0  0  0  0  0  0
   -1.2250   -0.1890    0.0170 N   0  0  0  0  0  0  0  0  0  0  0  0
   -1.0850    1.0780   -0.0080 C   0  0  0  0  0  0  0  0  0  0  0  0
   -2.1600    1.9480   -0.2140 O   0  0  0  0  0  0  0  0  0  0  0  0
   -3.5270    1.3580   -1.1210 P   0  0  0  0  0  0  0  0  0  0  0  0
   -4.5920    2.8040   -1.7100 C   0  0  0  0  0  0  0  0  0  0  0  0
   -5.9810    2.1670   -1.6610 C   0  0  0  0  0  0  0  0  0  0  0  0
   -6.3230    1.9620   -0.1890 C   0  0  2  0  0  0  0  0  0  0  0  0
   -5.9840    3.4680    0.8040 P   0  0  0  0  0  0  0  0  0  0  0  0
   -4.7930    3.4740    1.8040 O   0  0  0  0  0  0  0  0  0  0  0  0
   -5.1080    0.5880    0.2750 P   0  0  0  0  0  0  0  0  0  0  0  0
   -4.5650    0.8010    1.9120 O   0  0  0  0  0  0  0  0  0  0  0  0
    0.2780    1.4030    0.1990 N   0  0  0  0  0  0  0  0  0  0  0  0
    0.7780    2.6730    0.2320 F   0  0  0  0  0  0  0  0  0  0  0  0
    1.0290    0.2060    0.3650 C   0  0  0  0  0  0  0  0  0  0  0  0
    2.6470    0.0940    0.6310 P   0  0  0  0  0  0  0  0  0  0  0  0
    3.6280    1.5730    0.7340 N   0  0  0  0  0  0  0  0  0  0  0  0
    4.0920    2.0300    1.9810 C   0  0  0  0  0  0  0  0  0  0  0  0
    5.2810    1.8540    2.4240 N   0  0  0  0  0  0  0  0  0  0  0  0
    4.0210    2.4760   -0.7490 P   0  0  0  0  0  0  0  0  0  0  0  0
    4.1840    1.2940   -2.1020 N   0  0  0  0  0  0  0  0  0  0  0  0
    5.8730    3.6020   -0.4840 P   0  0  0  0  0  0  0  0  0  0  0  0
  1  2  1  0
  2  3  1  0
  2  5  1  0
  3  4  1  0
  5  6  1  0
  7  6  1  1
  7  8  1  0
  7 12  1  0
  7 25  1  0
  8  9  1  0
  9 10  1  0
  9 11  1  0
 12 13  2  0
 13 14  1  0
 13 23  1  0
 14 15  1  0
 15 16  1  0
 15 21  1  0
 16 17  1  0
 17 18  1  0
 18 19  1  1
 18 21  1  0
 19 20  2  0
 21 22  1  0
 23 24  1  0
 23 25  1  0
 25 26  2  3
 26 27  1  0
 27 28  1  0
 27 30  1  0
 28 29  2  0
 30 31  1  0
 30 32  1  0
M  END
