
     RDKit          3D

 32 33  0  0  0  0  0  0  0  0999 V2000
    3.0950    1.6150    1.9450 C   0  0  0  0  0  0  0  0  0  0  0  0
    2.1510    0.8140    0.9910 C   0  0  0  0  0  0  0  0  0  0  0  0
    0.9410    1.2730    1.0300 C   0  0  0  0  0  0  0  0  0  0  0  0
   -0.2520    0.8760    0.3470 C   0  0  0  0  0  0  0  0  0  0  0  0
   -0.3340   -0.1400   -0.5400 O   0  0  0  0  0  0  0  0  0  0  0  0
   -1.6730    1.7240    0.6570 P   0  0  0  0  0  0  0  0  0  0  0  0
   -3.2020    1.2280   -0.2080 C   0  0  2  0  0  0  0  0  0  0  0  0
   -3.2890    1.9000   -1.9240 P   0  0  0  0  0  0  0  0  0  0  0  0
   -3.8250    3.5290   -1.9950 O   0  0  0  0  0  0  0  0  0  0  0  0
   -5.5480    3.5150   -1.6600 P   0  0  0  0  0  0  0  0  0  0  0  0
   -5.9880    4.9300   -0.7920 F   0  0  0  0  0  0  0  0  0  0  0  0
   -5.9060    1.7730   -0.4330 S   0  0  0  0  0  0  0  0  0  0  0  0
   -4.4630    1.4770    0.5790 C   0  0  1  0  0  0  0  0  0  0  0  0
   -4.6560    0.3460    1.4580 N   0  0  0  0  0  0  0  0  0  0  0  0
   -5.8430    0.5350    2.0840 O   0  0  0  0  0  0  0  0  0  0  0  0
   -7.1220   -0.1240    1.0860 P   0  0  0  0  0  0  0  0  0  0  0  0
   -4.7540   -0.7720    0.7410 O   0  0  0  0  0  0  0  0  0  0  0  0
   -3.3030   -0.6560   -0.2520 P   0  0  0  0  0  0  0  0  0  0  0  0
   -3.7900   -1.1250   -1.8740 O   0  0  0  0  0  0  0  0  0  0  0  0
   -3.5210   -2.4230   -2.2710 C   0  0  0  0  0  0  0  0  0  0  0  0
   -3.3420   -3.3140   -1.3590 N   0  0  0  0  0  0  0  0  0  0  0  0
   -3.4100   -3.0160   -0.0190 O   0  0  0  0  0  0  0  0  0  0  0  0
    2.8510   -0.2380    0.2970 C   0  0  1  0  0  0  0  0  0  0  0  0
    3.6850   -1.3150    1.6170 P   0  0  0  0  0  0  0  0  0  0  0  0
    2.1610   -1.0980   -0.6340 C   0  0  0  0  0  0  0  0  0  0  0  0
    1.7920   -2.2880   -0.2600 N   0  0  0  0  0  0  0  0  0  0  0  0
    3.9470    0.4180   -0.4740 N   0  0  0  0  0  0  0  0  0  0  0  0
    4.6670   -0.5130   -1.1670 O   0  0  0  0  0  0  0  0  0  0  0  0
    6.0270   -0.5480   -1.0300 N   0  0  0  0  0  0  0  0  0  0  0  0
    6.6380   -1.6590   -1.0370 C   0  0  0  0  0  0  0  0  0  0  0  0
    8.0190   -1.6960   -0.8990 O   0  0  0  0  0  0  0  0  0  0  0  0
    8.9530   -0.2540   -0.6000 P   0  0  0  0  0  0  0  0  0  0  0  0
  1  2  1  0
  2  3  2  3
  2 23  1  0
  3  4  1  0
  4  5  1  0
  4  6  2  3
  7  6  1  1
  7  8  1  0
  7 13  1  0
  7 18  1  0
  8  9  1  0
  9 10  1  0
 10 11  1  0
 10 12  1  0
 13 12  1  6
 13 14  1  0
 14 15  1  0
 14 17  1  0
 15 16  1  0
 17 18  1  0
 18 19  1  0
 19 20  1  0
 20 21  2  3
 21 22  1  0
 23 24  1  1
 23 25  1  0
 23 27  1  0
 25 26  2  0
 27 28  1  0
 28 29  1  0
 29 30  2  3
 30 31  1  0
 31 32  1  0
M  END
