
     RDKit          3D

 33 34  0  0  0  0  0  0  0  0999 V2000
   -8.0340   -2.6160   -2.5380 O   0  0  0  0  0  0  0  0  0  0  0  0
   -8.0430   -3.0200   -1.3590 C   0  0  0  0  0  0  0  0  0  0  0  0
   -8.6840   -4.1960   -1.0200 O   0  0  0  0  0  0  0  0  0  0  0  0
   -7.3590   -2.2350   -0.3120 C   0  0  0  0  0  0  0  0  0  0  0  0
   -5.9220   -2.0190   -0.8010 C   0  0  0  0  0  0  0  0  0  0  0  0
   -5.1920   -1.2330    0.2570 C   0  0  0  0  0  0  0  0  0  0  0  0
   -3.7760   -1.0560   -0.2220 C   0  0  0  0  0  0  0  0  0  0  0  0
   -3.4040   -1.5390   -1.3060 O   0  0  0  0  0  0  0  0  0  0  0  0
   -2.8930   -0.3230    0.6100 N   0  0  0  0  0  0  0  0  0  0  0  0
   -1.4780   -0.0920    0.2440 C   0  0  2  0  0  0  0  0  0  0  0  0
   -1.5870    0.8460   -0.9570 C   0  0  0  0  0  0  0  0  0  0  0  0
   -2.2490    2.0990   -0.6290 C   0  0  0  0  0  0  0  0  0  0  0  0
   -3.5810    2.3570   -0.7220 C   0  0  0  0  0  0  0  0  0  0  0  0
   -4.0770    3.5900   -0.3800 C   0  0  0  0  0  0  0  0  0  0  0  0
   -3.2640    4.5780    0.0570 C   0  0  0  0  0  0  0  0  0  0  0  0
   -1.9080    4.3760    0.1720 C   0  0  0  0  0  0  0  0  0  0  0  0
   -1.4250    3.1370   -0.1750 C   0  0  0  0  0  0  0  0  0  0  0  0
   -0.3960   -1.3220    0.1490 P   0  0  0  0  0  0  0  0  0  0  0  0
   -1.1580   -2.1770    1.3630 O   0  0  0  0  0  0  0  0  0  0  0  0
   -0.7990   -1.6670   -1.4500 O   0  0  0  0  0  0  0  0  0  0  0  0
    1.0280   -0.6490    0.4980 O   0  0  0  0  0  0  0  0  0  0  0  0
    1.1750    0.3340    1.3740 C   0  0  0  0  0  0  0  0  0  0  0  0
    2.6560    0.6530    1.4340 C   0  0  0  0  0  0  0  0  0  0  0  0
    2.9990    1.5880    2.2170 O   0  0  0  0  0  0  0  0  0  0  0  0
    3.6190   -0.0310    0.6760 N   0  0  0  0  0  0  0  0  0  0  0  0
    5.0240    0.3130    0.7710 C   0  0  0  0  0  0  0  0  0  0  0  0
    5.7840   -0.6160   -0.1690 C   0  0  0  0  0  0  0  0  0  0  0  0
    7.2110   -0.2640   -0.0710 C   0  0  0  0  0  0  0  0  0  0  0  0
    7.9970   -0.8780    0.8730 C   0  0  0  0  0  0  0  0  0  0  0  0
    9.3290   -0.5530    0.9670 C   0  0  0  0  0  0  0  0  0  0  0  0
    9.8710    0.3830    0.1220 C   0  0  0  0  0  0  0  0  0  0  0  0
    9.1020    1.0180   -0.8380 C   0  0  0  0  0  0  0  0  0  0  0  0
    7.7540    0.6680   -0.9120 C   0  0  0  0  0  0  0  0  0  0  0  0
  1  2  2  0
  2  3  1  0
  2  4  1  0
  4  5  1  0
  5  6  1  0
  6  7  1  0
  7  8  2  0
  7  9  1  0
  9 10  1  0
 10 11  1  6
 10 18  1  0
 11 12  1  0
 12 13  2  0
 12 17  1  0
 13 14  1  0
 14 15  2  0
 15 16  1  0
 16 17  2  0
 18 19  1  0
 18 20  1  0
 18 21  1  0
 21 22  1  0
 22 23  1  0
 23 24  2  0
 23 25  1  0
 25 26  1  0
 26 27  1  0
 27 28  1  0
 28 29  2  0
 28 33  1  0
 29 30  1  0
 30 31  2  0
 31 32  1  0
 32 33  2  0
M  END
