
     RDKit          3D

 32 35  0  0  0  0  0  0  0  0999 V2000
   -1.5610   -1.9360   -2.3030 C   0  0  0  0  0  0  0  0  0  0  0  0
   -1.0970   -0.2450   -1.6920 P   0  0  0  0  0  0  0  0  0  0  0  0
   -2.4550    1.1640   -2.7610 P   0  0  0  0  0  0  0  0  0  0  0  0
   -1.5670   -0.0790    0.1270 C   0  0  1  0  0  0  0  0  0  0  0  0
   -2.5510   -1.0290    0.3240 N   0  0  0  0  0  0  0  0  0  0  0  0
   -2.1450   -1.9400    1.1040 C   0  0  0  0  0  0  0  0  0  0  0  0
   -2.8780   -3.1620    1.5850 C   0  0  0  0  0  0  0  0  0  0  0  0
   -4.1230   -3.1580    0.9610 O   0  0  0  0  0  0  0  0  0  0  0  0
   -5.0850   -4.5060    1.4150 P   0  0  0  0  0  0  0  0  0  0  0  0
   -0.8390   -1.6290    1.5410 N   0  0  0  0  0  0  0  0  0  0  0  0
   -0.4510   -0.5380    1.0170 C   0  0  0  0  0  0  0  0  0  0  0  0
    0.5210    0.5240    0.9440 C   0  0  1  0  0  0  0  0  0  0  0  0
    1.0430    0.9030    2.1780 F   0  0  0  0  0  0  0  0  0  0  0  0
    1.7740    0.2770   -0.3090 P   0  0  0  0  0  0  0  0  0  0  0  0
    1.9020   -1.5580   -1.3800 P   0  0  0  0  0  0  0  0  0  0  0  0
    2.9260   -1.2840   -2.7840 O   0  0  0  0  0  0  0  0  0  0  0  0
    4.2390   -1.5710   -2.5260 C   0  0  0  0  0  0  0  0  0  0  0  0
    4.6340   -1.4250   -1.2250 O   0  0  0  0  0  0  0  0  0  0  0  0
    4.7440   -2.6300   -0.5710 N   0  0  0  0  0  0  0  0  0  0  0  0
    5.4980   -2.5470    0.5240 O   0  0  0  0  0  0  0  0  0  0  0  0
    3.0210   -3.0430   -0.1830 P   0  0  0  0  0  0  0  0  0  0  0  0
    2.7320   -2.8090    1.5090 O   0  0  0  0  0  0  0  0  0  0  0  0
    1.4110    1.6900   -1.2540 O   0  0  0  0  0  0  0  0  0  0  0  0
    0.0900    1.7880   -1.0620 N   0  0  0  0  0  0  0  0  0  0  0  0
   -0.2500    1.6930    0.3300 C   0  0  2  0  0  0  0  0  0  0  0  0
    0.2010    3.2040    1.2280 P   0  0  0  0  0  0  0  0  0  0  0  0
   -1.2250    4.2700    1.6970 C   0  0  0  0  0  0  0  0  0  0  0  0
   -1.6220    5.0090    0.5910 O   0  0  0  0  0  0  0  0  0  0  0  0
    1.6720    4.3400    0.0620 P   0  0  0  0  0  0  0  0  0  0  0  0
    2.5930    5.4880    1.0540 N   0  0  0  0  0  0  0  0  0  0  0  0
    4.2790    5.1430    0.9840 Cl  0  0  0  0  0  0  0  0  0  0  0  0
   -1.6450    1.2860    0.5030 N   0  0  0  0  0  0  0  0  0  0  0  0
  1  2  1  0
  2  3  1  0
  4  2  1  6
  4  5  1  0
  4 11  1  0
  4 32  1  0
  5  6  2  0
  6  7  1  0
  6 10  1  0
  7  8  1  0
  8  9  1  0
 10 11  2  0
 11 12  1  0
 12 13  1  1
 12 14  1  0
 12 25  1  0
 14 15  1  0
 14 23  1  0
 15 16  1  0
 15 21  1  0
 16 17  1  0
 17 18  1  0
 18 19  1  0
 19 20  1  0
 19 21  1  0
 21 22  1  0
 23 24  1  0
 24 25  1  0
 25 26  1  1
 25 32  1  0
 26 27  1  0
 26 29  1  0
 27 28  1  0
 29 30  1  0
 30 31  1  0
M  END
