
     RDKit          3D

 32 33  0  0  0  0  0  0  0  0999 V2000
    0.0030   -4.6690    1.7450 C   0  0  0  0  0  0  0  0  0  0  0  0
    0.3420   -3.4240    1.9780 C   0  0  0  0  0  0  0  0  0  0  0  0
    0.5640   -2.8800    3.7080 P   0  0  0  0  0  0  0  0  0  0  0  0
    0.5260   -2.5470    0.9270 O   0  0  0  0  0  0  0  0  0  0  0  0
    1.7720   -1.3560    1.0100 P   0  0  0  0  0  0  0  0  0  0  0  0
    2.5910   -1.0530   -0.5740 C   0  0  0  0  0  0  0  0  0  0  0  0
    3.6790   -1.9190   -0.9510 O   0  0  0  0  0  0  0  0  0  0  0  0
    3.7450   -2.4990   -2.6190 P   0  0  0  0  0  0  0  0  0  0  0  0
    4.6920   -3.6990   -3.0750 N   0  0  0  0  0  0  0  0  0  0  0  0
    5.5290   -4.3380   -2.0890 C   0  0  0  0  0  0  0  0  0  0  0  0
    2.2410   -0.1210   -1.3420 C   0  0  0  0  0  0  0  0  0  0  0  0
    2.5970    0.7100   -2.9690 S   0  0  0  0  0  0  0  0  0  0  0  0
    2.4110    2.4090   -2.4350 N   0  0  0  0  0  0  0  0  0  0  0  0
    1.5970    2.5450   -1.4630 C   0  0  0  0  0  0  0  0  0  0  0  0
    1.2780    3.7780   -0.8570 O   0  0  0  0  0  0  0  0  0  0  0  0
    1.4540    4.9760   -1.5520 N   0  0  0  0  0  0  0  0  0  0  0  0
    1.2500    6.3660   -0.4700 P   0  0  0  0  0  0  0  0  0  0  0  0
    0.5440    5.0720   -2.6060 N   0  0  0  0  0  0  0  0  0  0  0  0
   -0.5890    4.4490   -2.2200 F   0  0  0  0  0  0  0  0  0  0  0  0
    0.8460    0.9870   -0.8920 P   0  0  0  0  0  0  0  0  0  0  0  0
    0.9280    0.7100    1.2970 P   0  0  0  0  0  0  0  0  0  0  0  0
   -0.7140    0.4900    1.9580 N   0  0  0  0  0  0  0  0  0  0  0  0
   -0.9660    0.6870    3.7320 P   0  0  0  0  0  0  0  0  0  0  0  0
   -1.8660    0.1750    1.1980 C   0  0  0  0  0  0  0  0  0  0  0  0
   -2.9920    0.7910    1.5090 C   0  0  0  0  0  0  0  0  0  0  0  0
   -3.0550    1.7060    2.5300 O   0  0  0  0  0  0  0  0  0  0  0  0
   -4.6040    2.3020    3.1170 P   0  0  0  0  0  0  0  0  0  0  0  0
   -1.9030   -0.7550    0.1230 N   0  0  0  0  0  0  0  0  0  0  0  0
   -1.7920   -0.2970   -1.1420 O   0  0  0  0  0  0  0  0  0  0  0  0
   -2.9190   -0.5060   -1.9050 C   0  0  0  0  0  0  0  0  0  0  0  0
   -2.6580    0.0240   -3.1840 O   0  0  0  0  0  0  0  0  0  0  0  0
   -3.6910   -0.1340   -3.9900 O   0  0  0  0  0  0  0  0  0  0  0  0
  1  2  2  0
  2  3  1  0
  2  4  1  0
  4  5  1  0
  5  6  1  0
  5 21  1  0
  6  7  1  0
  6 11  2  0
  7  8  1  0
  8  9  2  3
  9 10  1  0
 11 12  1  0
 11 20  1  0
 12 13  1  0
 13 14  2  0
 14 15  1  0
 14 20  1  0
 15 16  1  0
 16 17  1  0
 16 18  1  0
 18 19  1  0
 20 21  1  0
 21 22  1  0
 22 23  1  0
 22 24  1  0
 24 25  2  3
 24 28  1  0
 25 26  1  0
 26 27  1  0
 28 29  1  0
 29 30  1  0
 30 31  1  0
 31 32  1  0
M  END
