
     RDKit          3D

 32 34  0  0  0  0  0  0  0  0999 V2000
   -3.3210   -0.1750   -2.4840 C   0  0  0  0  0  0  0  0  0  0  0  0
   -3.2390   -0.3240   -1.1860 C   0  0  0  0  0  0  0  0  0  0  0  0
   -2.6650   -1.4570   -0.6580 O   0  0  0  0  0  0  0  0  0  0  0  0
   -0.8810   -1.4240   -0.6770 P   0  0  0  0  0  0  0  0  0  0  0  0
   -0.0290   -0.2430    0.2600 C   0  0  0  0  0  0  0  0  0  0  0  0
    1.3090   -0.0550    0.4060 C   0  0  0  0  0  0  0  0  0  0  0  0
    1.7480    1.3070    1.4890 Cl  0  0  0  0  0  0  0  0  0  0  0  0
    2.3480   -0.7510   -0.1510 C   0  0  0  0  0  0  0  0  0  0  0  0
    3.5520   -0.3040    0.2010 N   0  0  0  0  0  0  0  0  0  0  0  0
    4.7090   -0.8790   -0.2600 N   0  0  0  0  0  0  0  0  0  0  0  0
    5.6990   -0.1450   -1.0060 C   0  0  0  0  0  0  0  0  0  0  0  0
    6.8670    0.0910   -0.2530 O   0  0  0  0  0  0  0  0  0  0  0  0
    7.3950   -0.8090    0.6590 C   0  0  0  0  0  0  0  0  0  0  0  0
    8.6350   -0.5670    1.3030 N   0  0  0  0  0  0  0  0  0  0  0  0
    8.6240    0.1100    2.5810 C   0  0  0  0  0  0  0  0  0  0  0  0
    6.4380   -2.1650    0.9050 P   0  0  0  0  0  0  0  0  0  0  0  0
    4.9680   -2.1940   -0.0230 O   0  0  0  0  0  0  0  0  0  0  0  0
    2.3420   -2.0990   -1.2250 P   0  0  0  0  0  0  0  0  0  0  0  0
    0.4130   -2.7130   -1.7070 P   0  0  0  0  0  0  0  0  0  0  0  0
   -3.8800    0.9610   -0.0740 P   0  0  0  0  0  0  0  0  0  0  0  0
   -3.6750    0.4460    1.6530 N   0  0  0  0  0  0  0  0  0  0  0  0
   -5.5200    0.1020    1.9230 S   0  0  2  0  0  0  0  0  0  0  0  0
   -5.7570    0.0850    3.2780 O   0  0  0  0  0  0  0  0  0  0  0  0
   -5.7090   -1.3830    1.1110 O   0  0  0  0  0  0  0  0  0  0  0  0
   -6.9470   -1.7400    0.5930 C   0  0  0  0  0  0  0  0  0  0  0  0
   -7.8890   -0.9220    0.7570 O   0  0  0  0  0  0  0  0  0  0  0  0
   -6.1380    1.2870    1.1750 N   0  0  0  0  0  0  0  0  0  0  0  0
   -5.5790    1.2880   -0.2490 N   0  0  0  0  0  0  0  0  0  0  0  0
   -6.5950    1.5990   -1.6400 P   0  0  0  0  0  0  0  0  0  0  0  0
   -6.4670    0.4490   -2.8860 F   0  0  0  0  0  0  0  0  0  0  0  0
   -6.4530    3.3170   -2.2670 C   0  0  0  0  0  0  0  0  0  0  0  0
   -5.3200    3.7650   -2.4620 O   0  0  0  0  0  0  0  0  0  0  0  0
  1  2  2  0
  2  3  1  0
  2 20  1  0
  3  4  1  0
  4  5  1  0
  4 19  1  0
  5  6  2  0
  6  7  1  0
  6  8  1  0
  8  9  2  3
  8 18  1  0
  9 10  1  0
 10 11  1  0
 10 17  1  0
 11 12  1  0
 12 13  1  0
 13 14  1  0
 13 16  2  0
 14 15  1  0
 16 17  1  0
 18 19  2  0
 20 21  1  0
 20 28  1  0
 21 22  1  0
 22 23  2  0
 22 24  1  6
 22 27  2  0
 24 25  1  0
 25 26  2  0
 27 28  1  0
 28 29  1  0
 29 30  1  0
 29 31  1  0
 31 32  2  0
M  END
