
     RDKit          3D

 32 33  0  0  0  0  0  0  0  0999 V2000
    1.5980   -1.0810   -3.6600 C   0  0  0  0  0  0  0  0  0  0  0  0
    1.2450   -0.5560   -2.2470 C   0  0  0  0  0  0  0  0  0  0  0  0
   -0.0050   -0.5980   -1.9760 C   0  0  0  0  0  0  0  0  0  0  0  0
   -0.7780   -0.2330   -0.8210 C   0  0  0  0  0  0  0  0  0  0  0  0
   -0.1820    0.2650    0.3120 O   0  0  0  0  0  0  0  0  0  0  0  0
   -2.4500   -0.4050   -0.8230 P   0  0  0  0  0  0  0  0  0  0  0  0
   -3.5040    0.0350    0.6000 C   0  0  2  0  0  0  0  0  0  0  0  0
   -5.2920   -0.1390    0.1730 P   0  0  0  0  0  0  0  0  0  0  0  0
   -6.0960   -0.7940    1.5920 O   0  0  0  0  0  0  0  0  0  0  0  0
   -5.8200    0.4000    2.8510 P   0  0  0  0  0  0  0  0  0  0  0  0
   -5.0640   -0.2890    4.2110 F   0  0  0  0  0  0  0  0  0  0  0  0
   -4.6220    2.0170    2.0840 S   0  0  0  0  0  0  0  0  0  0  0  0
   -3.1840    1.4060    1.1660 C   0  0  1  0  0  0  0  0  0  0  0  0
   -2.0540    1.1790    1.9950 N   0  0  0  0  0  0  0  0  0  0  0  0
   -1.3720    2.2730    2.3460 O   0  0  0  0  0  0  0  0  0  0  0  0
   -2.1900    3.7420    1.9840 P   0  0  0  0  0  0  0  0  0  0  0  0
   -2.3680    0.3810    3.0230 O   0  0  0  0  0  0  0  0  0  0  0  0
   -3.0920   -0.9680    2.1450 P   0  0  0  0  0  0  0  0  0  0  0  0
   -1.9300   -2.2010    1.7890 O   0  0  0  0  0  0  0  0  0  0  0  0
   -2.2030   -3.1900    0.8830 C   0  0  0  0  0  0  0  0  0  0  0  0
   -3.2540   -3.1450    0.1550 N   0  0  0  0  0  0  0  0  0  0  0  0
   -3.6060   -4.0800   -0.7690 O   0  0  0  0  0  0  0  0  0  0  0  0
    2.4350   -0.1280   -1.5100 C   0  0  1  0  0  0  0  0  0  0  0  0
    3.5250   -1.5640   -1.1340 P   0  0  0  0  0  0  0  0  0  0  0  0
    3.2120    0.8020   -2.4440 C   0  0  0  0  0  0  0  0  0  0  0  0
    4.4750    0.7240   -2.4320 N   0  0  0  0  0  0  0  0  0  0  0  0
    2.1730    0.6780   -0.3300 N   0  0  0  0  0  0  0  0  0  0  0  0
    3.3710    0.9320    0.3450 O   0  0  0  0  0  0  0  0  0  0  0  0
    4.1560    2.0010   -0.0030 N   0  0  0  0  0  0  0  0  0  0  0  0
    5.2300    2.2190    0.6570 C   0  0  0  0  0  0  0  0  0  0  0  0
    5.6020    1.4010    1.7000 O   0  0  0  0  0  0  0  0  0  0  0  0
    4.4010    0.4840    2.5820 P   0  0  0  0  0  0  0  0  0  0  0  0
  1  2  1  0
  2  3  2  3
  2 23  1  0
  3  4  1  0
  4  5  1  0
  4  6  2  3
  7  6  1  6
  7  8  1  0
  7 13  1  0
  7 18  1  0
  8  9  1  0
  9 10  1  0
 10 11  1  0
 10 12  1  0
 13 12  1  1
 13 14  1  0
 14 15  1  0
 14 17  1  0
 15 16  1  0
 17 18  1  0
 18 19  1  0
 19 20  1  0
 20 21  2  3
 21 22  1  0
 23 24  1  1
 23 25  1  0
 23 27  1  0
 25 26  2  0
 27 28  1  0
 28 29  1  0
 29 30  2  3
 30 31  1  0
 31 32  1  0
M  END
