
     RDKit          3D

 33 34  0  0  0  0  0  0  0  0999 V2000
   -5.4720   -5.0160    2.5330 O   0  0  0  0  0  0  0  0  0  0  0  0
   -6.1290   -3.9640    2.3820 C   0  0  0  0  0  0  0  0  0  0  0  0
   -7.0540   -3.6100    3.3480 O   0  0  0  0  0  0  0  0  0  0  0  0
   -5.9470   -3.0880    1.2020 C   0  0  0  0  0  0  0  0  0  0  0  0
   -4.6540   -2.2800    1.3690 C   0  0  0  0  0  0  0  0  0  0  0  0
   -4.5120   -1.4050    0.1500 C   0  0  0  0  0  0  0  0  0  0  0  0
   -3.3000   -0.5680    0.1830 C   0  0  0  0  0  0  0  0  0  0  0  0
   -2.5600   -0.6730    1.1830 O   0  0  0  0  0  0  0  0  0  0  0  0
   -2.9940    0.3100   -0.8670 N   0  0  0  0  0  0  0  0  0  0  0  0
   -1.7930    1.1650   -0.8710 C   0  0  2  0  0  0  0  0  0  0  0  0
   -2.1880    2.6260   -0.7440 C   0  0  0  0  0  0  0  0  0  0  0  0
   -2.9230    2.8170    0.5290 C   0  0  0  0  0  0  0  0  0  0  0  0
   -2.2320    3.1380    1.7090 C   0  0  0  0  0  0  0  0  0  0  0  0
   -2.8710    3.3210    2.8940 C   0  0  0  0  0  0  0  0  0  0  0  0
   -4.2280    3.2040    3.0150 C   0  0  0  0  0  0  0  0  0  0  0  0
   -4.9390    2.8860    1.8600 C   0  0  0  0  0  0  0  0  0  0  0  0
   -4.2870    2.7020    0.6630 C   0  0  0  0  0  0  0  0  0  0  0  0
   -0.9220    0.8950   -2.3390 P   0  0  0  0  0  0  0  0  0  0  0  0
   -0.1570    2.1490   -3.1520 O   0  0  0  0  0  0  0  0  0  0  0  0
   -1.1180   -0.5460   -3.1750 O   0  0  0  0  0  0  0  0  0  0  0  0
    0.4030    0.3720   -1.8170 O   0  0  0  0  0  0  0  0  0  0  0  0
    1.4790    1.1700   -1.5250 C   0  0  0  0  0  0  0  0  0  0  0  0
    2.6470    0.4130   -1.0370 C   0  0  0  0  0  0  0  0  0  0  0  0
    2.5780   -0.8110   -0.9020 O   0  0  0  0  0  0  0  0  0  0  0  0
    3.8570    1.0940   -0.7220 N   0  0  0  0  0  0  0  0  0  0  0  0
    5.0340    0.4660   -0.2470 C   0  0  0  0  0  0  0  0  0  0  0  0
    5.6030   -0.5730   -1.1810 C   0  0  0  0  0  0  0  0  0  0  0  0
    6.8280   -1.1970   -0.6520 C   0  0  0  0  0  0  0  0  0  0  0  0
    8.0710   -0.6470   -0.9550 C   0  0  0  0  0  0  0  0  0  0  0  0
    9.2270   -1.2070   -0.4730 C   0  0  0  0  0  0  0  0  0  0  0  0
    9.1950   -2.3230    0.3200 C   0  0  0  0  0  0  0  0  0  0  0  0
    7.9520   -2.8680    0.6190 C   0  0  0  0  0  0  0  0  0  0  0  0
    6.7880   -2.3140    0.1410 C   0  0  0  0  0  0  0  0  0  0  0  0
  1  2  2  0
  2  3  1  0
  2  4  1  0
  4  5  1  0
  5  6  1  0
  6  7  1  0
  7  8  2  0
  7  9  1  0
  9 10  1  0
 10 11  1  6
 10 18  1  0
 11 12  1  0
 12 13  2  0
 12 17  1  0
 13 14  1  0
 14 15  2  0
 15 16  1  0
 16 17  2  0
 18 19  1  0
 18 20  1  0
 18 21  1  0
 21 22  1  0
 22 23  1  0
 23 24  2  0
 23 25  1  0
 25 26  1  0
 26 27  1  0
 27 28  1  0
 28 29  2  0
 28 33  1  0
 29 30  1  0
 30 31  2  0
 31 32  1  0
 32 33  2  0
M  END
