
     RDKit          3D

 32 35  0  0  0  0  0  0  0  0999 V2000
   -2.2940   -0.3490   -2.8730 C   0  0  0  0  0  0  0  0  0  0  0  0
   -1.0980   -0.9900   -1.5750 P   0  0  0  0  0  0  0  0  0  0  0  0
   -1.6450   -3.0870   -1.2020 P   0  0  0  0  0  0  0  0  0  0  0  0
   -1.3720    0.0690   -0.0270 C   0  0  1  0  0  0  0  0  0  0  0  0
   -2.2980   -0.6950    0.6940 N   0  0  0  0  0  0  0  0  0  0  0  0
   -1.7840   -1.1320    1.7570 C   0  0  0  0  0  0  0  0  0  0  0  0
   -2.4320   -1.9840    2.7890 C   0  0  0  0  0  0  0  0  0  0  0  0
   -1.7270   -3.1660    2.9840 O   0  0  0  0  0  0  0  0  0  0  0  0
   -2.4780   -4.1570    4.1820 P   0  0  0  0  0  0  0  0  0  0  0  0
   -0.4660   -0.6420    1.8710 N   0  0  0  0  0  0  0  0  0  0  0  0
   -0.1820    0.0850    0.8630 C   0  0  0  0  0  0  0  0  0  0  0  0
    0.7290    1.0180    0.2320 C   0  0  1  0  0  0  0  0  0  0  0  0
    1.5410    1.7090    1.1170 F   0  0  0  0  0  0  0  0  0  0  0  0
    1.5730    0.3440   -1.1880 P   0  0  0  0  0  0  0  0  0  0  0  0
    1.9960   -1.7190   -1.3490 P   0  0  0  0  0  0  0  0  0  0  0  0
    3.0490   -2.0190   -2.7040 O   0  0  0  0  0  0  0  0  0  0  0  0
    4.1460   -2.7910   -2.2580 C   0  0  0  0  0  0  0  0  0  0  0  0
    4.8910   -2.1390   -1.3050 O   0  0  0  0  0  0  0  0  0  0  0  0
    4.7800   -2.7310   -0.0700 N   0  0  0  0  0  0  0  0  0  0  0  0
    5.6650   -2.1250    0.7560 O   0  0  0  0  0  0  0  0  0  0  0  0
    3.0720   -2.3990    0.4540 P   0  0  0  0  0  0  0  0  0  0  0  0
    2.4380   -3.8700    1.0700 O   0  0  0  0  0  0  0  0  0  0  0  0
    0.5830    1.0850   -2.3990 O   0  0  0  0  0  0  0  0  0  0  0  0
    0.2820    2.2220   -1.7580 N   0  0  0  0  0  0  0  0  0  0  0  0
   -0.2450    1.9980   -0.4480 C   0  0  2  0  0  0  0  0  0  0  0  0
   -0.1570    3.6450    0.4260 P   0  0  0  0  0  0  0  0  0  0  0  0
    0.0430    5.0230   -0.7700 C   0  0  0  0  0  0  0  0  0  0  0  0
    1.3790    5.2860   -1.0200 O   0  0  0  0  0  0  0  0  0  0  0  0
   -1.7990    3.9320    1.8160 P   0  0  0  0  0  0  0  0  0  0  0  0
   -2.0380    5.6780    2.1460 N   0  0  0  0  0  0  0  0  0  0  0  0
   -0.6920    6.1900    3.1530 Cl  0  0  0  0  0  0  0  0  0  0  0  0
   -1.5290    1.4160   -0.3650 N   0  0  0  0  0  0  0  0  0  0  0  0
  1  2  1  0
  2  3  1  0
  4  2  1  6
  4  5  1  0
  4 11  1  0
  4 32  1  0
  5  6  2  0
  6  7  1  0
  6 10  1  0
  7  8  1  0
  8  9  1  0
 10 11  2  0
 11 12  1  0
 12 13  1  1
 12 14  1  0
 12 25  1  0
 14 15  1  0
 14 23  1  0
 15 16  1  0
 15 21  1  0
 16 17  1  0
 17 18  1  0
 18 19  1  0
 19 20  1  0
 19 21  1  0
 21 22  1  0
 23 24  1  0
 24 25  1  0
 25 26  1  1
 25 32  1  0
 26 27  1  0
 26 29  1  0
 27 28  1  0
 29 30  1  0
 30 31  1  0
M  END
