
     RDKit          3D

 32 33  0  0  0  0  0  0  0  0999 V2000
    2.1350   -4.3820   -2.5900 C   0  0  0  0  0  0  0  0  0  0  0  0
    1.7160   -3.4630   -1.7440 C   0  0  0  0  0  0  0  0  0  0  0  0
    2.0760   -1.7000   -2.1400 P   0  0  0  0  0  0  0  0  0  0  0  0
    1.0280   -3.8160   -0.5960 O   0  0  0  0  0  0  0  0  0  0  0  0
    0.2520   -2.6080    0.4170 P   0  0  0  0  0  0  0  0  0  0  0  0
    1.5580   -1.6890    1.2850 C   0  0  0  0  0  0  0  0  0  0  0  0
    2.6180   -2.4390    1.9200 O   0  0  0  0  0  0  0  0  0  0  0  0
    4.2840   -2.0450    1.6090 P   0  0  0  0  0  0  0  0  0  0  0  0
    5.3780   -2.2120    2.7860 N   0  0  0  0  0  0  0  0  0  0  0  0
    5.0200   -2.6830    4.1070 C   0  0  0  0  0  0  0  0  0  0  0  0
    1.5610   -0.4310    1.3460 C   0  0  0  0  0  0  0  0  0  0  0  0
    2.5080    1.0280    2.0070 S   0  0  0  0  0  0  0  0  0  0  0  0
    2.2990    2.1460    0.6290 N   0  0  0  0  0  0  0  0  0  0  0  0
    1.2330    1.9220   -0.0480 C   0  0  0  0  0  0  0  0  0  0  0  0
    0.9070    2.6990   -1.1660 O   0  0  0  0  0  0  0  0  0  0  0  0
    1.7990    3.5340   -1.7750 N   0  0  0  0  0  0  0  0  0  0  0  0
    1.2590    5.2470   -1.5470 P   0  0  0  0  0  0  0  0  0  0  0  0
    3.0890    3.4260   -1.2450 N   0  0  0  0  0  0  0  0  0  0  0  0
    3.3240    4.4170   -0.3490 F   0  0  0  0  0  0  0  0  0  0  0  0
    0.2190    0.5470    0.5630 P   0  0  0  0  0  0  0  0  0  0  0  0
   -0.3160   -0.9290   -0.9960 P   0  0  0  0  0  0  0  0  0  0  0  0
   -2.1210   -1.0580   -1.1320 N   0  0  0  0  0  0  0  0  0  0  0  0
   -2.8890   -2.5310   -1.8160 P   0  0  0  0  0  0  0  0  0  0  0  0
   -2.9720   -0.0140   -0.7090 C   0  0  0  0  0  0  0  0  0  0  0  0
   -3.0860    1.0780   -1.4330 C   0  0  0  0  0  0  0  0  0  0  0  0
   -3.9010    2.1410   -1.0810 O   0  0  0  0  0  0  0  0  0  0  0  0
   -4.6510    3.1250   -2.3170 P   0  0  0  0  0  0  0  0  0  0  0  0
   -3.7080   -0.1320    0.4930 N   0  0  0  0  0  0  0  0  0  0  0  0
   -3.4350    0.5950    1.6030 O   0  0  0  0  0  0  0  0  0  0  0  0
   -4.3030    0.2420    2.6130 C   0  0  0  0  0  0  0  0  0  0  0  0
   -4.0340    0.9810    3.7620 O   0  0  0  0  0  0  0  0  0  0  0  0
   -4.1870    2.2600    3.4610 O   0  0  0  0  0  0  0  0  0  0  0  0
  1  2  2  0
  2  3  1  0
  2  4  1  0
  4  5  1  0
  5  6  1  0
  5 21  1  0
  6  7  1  0
  6 11  2  0
  7  8  1  0
  8  9  2  3
  9 10  1  0
 11 12  1  0
 11 20  1  0
 12 13  1  0
 13 14  2  0
 14 15  1  0
 14 20  1  0
 15 16  1  0
 16 17  1  0
 16 18  1  0
 18 19  1  0
 20 21  1  0
 21 22  1  0
 22 23  1  0
 22 24  1  0
 24 25  2  3
 24 28  1  0
 25 26  1  0
 26 27  1  0
 28 29  1  0
 29 30  1  0
 30 31  1  0
 31 32  1  0
M  END
