
     RDKit          3D

 31 33  0  0  0  0  0  0  0  0999 V2000
    6.1700    0.2050    0.0910 C   0  0  0  0  0  0  0  0  0  0  0  0
    5.4910   -0.5450    1.0340 O   0  0  0  0  0  0  0  0  0  0  0  0
    4.4000    0.0040    1.4580 O   0  0  0  0  0  0  0  0  0  0  0  0
    3.3330    0.2410    0.1170 P   0  0  0  0  0  0  0  0  0  0  0  0
    3.2020   -1.1390   -0.8870 O   0  0  0  0  0  0  0  0  0  0  0  0
    3.8020   -2.2690   -0.3850 C   0  0  0  0  0  0  0  0  0  0  0  0
    1.7650    0.9030    0.6310 N   0  0  0  0  0  0  0  0  0  0  0  0
    1.6450    2.1340    1.8910 S   0  0  0  0  0  0  0  0  0  0  0  0
   -0.0800    2.4140    1.6310 N   0  0  0  0  0  0  0  0  0  0  0  0
   -0.7520    3.4300    2.2420 O   0  0  0  0  0  0  0  0  0  0  0  0
   -1.1960    4.5530    1.6020 N   0  0  0  0  0  0  0  0  0  0  0  0
   -0.5370    5.0230    0.6540 O   0  0  0  0  0  0  0  0  0  0  0  0
   -0.4870    1.4110    0.7280 C   0  0  0  0  0  0  0  0  0  0  0  0
    0.4340    0.6540    0.2260 C   0  0  0  0  0  0  0  0  0  0  0  0
    0.0390   -0.3890   -0.7120 N   0  0  0  0  0  0  0  0  0  0  0  0
   -1.2290   -1.0870   -0.6060 C   0  0  1  0  0  0  0  0  0  0  0  0
   -1.6960   -1.3930   -2.0230 C   0  0  0  0  0  0  0  0  0  0  0  0
   -3.2420   -2.2490   -2.0370 Cl  0  0  0  0  0  0  0  0  0  0  0  0
   -1.0090   -2.6690    0.3450 P   0  0  0  0  0  0  0  0  0  0  0  0
   -3.0460   -3.3830    0.8750 P   0  0  0  0  0  0  0  0  0  0  0  0
   -0.2390   -3.9370   -0.6280 N   0  0  0  0  0  0  0  0  0  0  0  0
   -0.8170   -5.1300   -0.3630 F   0  0  0  0  0  0  0  0  0  0  0  0
   -2.2110   -0.1940    0.0000 C   0  0  0  0  0  0  0  0  0  0  0  0
   -3.4450   -0.3860    0.3580 C   0  0  0  0  0  0  0  0  0  0  0  0
   -3.8860    0.4960    1.2430 C   0  0  0  0  0  0  0  0  0  0  0  0
   -2.7890    1.3490    1.4820 O   0  0  0  0  0  0  0  0  0  0  0  0
   -1.9480    1.2220    0.3510 C   0  0  1  0  0  0  0  0  0  0  0  0
   -2.3890    2.1890   -0.6610 C   0  0  0  0  0  0  0  0  0  0  0  0
   -1.7900    2.2660   -1.7660 O   0  0  0  0  0  0  0  0  0  0  0  0
   -3.4720    3.0620   -0.4700 O   0  0  0  0  0  0  0  0  0  0  0  0
   -3.9670    4.2050   -1.7090 P   0  0  0  0  0  0  0  0  0  0  0  0
  1  2  1  0
  2  3  1  0
  3  4  1  0
  4  5  1  0
  4  7  1  0
  5  6  1  0
  7  8  1  0
  7 14  1  0
  8  9  1  0
  9 10  1  0
  9 13  1  0
 10 11  1  0
 11 12  2  0
 13 14  2  0
 13 27  1  0
 14 15  1  0
 15 16  1  0
 16 17  1  6
 16 19  1  0
 16 23  1  0
 17 18  1  0
 19 20  1  0
 19 21  1  0
 21 22  1  0
 23 24  2  0
 23 27  1  0
 24 25  2  0
 25 26  1  0
 26 27  1  0
 27 28  1  6
 28 29  2  0
 28 30  1  0
 30 31  1  0
M  END
