
     RDKit          3D

  9  8  0  0  0  0  0  0  0  0999 V2000
    3.0290   -0.9450   -1.0650 O   0  0  0  0  0  0  0  0  0  0  0  0
    2.2010   -0.6260   -0.1760 C   0  0  0  0  0  0  0  0  0  0  0  0
    2.6440   -0.6620    1.1370 O   0  0  0  0  0  0  0  0  0  0  0  0
    0.8070   -0.2280   -0.5260 C   0  0  0  0  0  0  0  0  0  0  0  0
    0.1340    0.0680    0.6270 O   0  0  0  0  0  0  0  0  0  0  0  0
   -1.4480    0.5190    0.1320 P   0  0  0  0  0  0  0  0  0  0  0  0
   -2.3420    1.4010    1.2150 O   0  0  0  0  0  0  0  0  0  0  0  0
   -1.9480    0.2280   -1.3420 O   0  0  0  0  0  0  0  0  0  0  0  0
   -1.9260   -0.7890    0.7840 O   0  0  0  0  0  0  0  0  0  0  0  0
  1  2  2  0
  2  3  1  0
  2  4  1  0
  4  5  1  0
  5  6  1  0
  6  7  1  0
  6  8  1  0
  6  9  1  0
M  END
