
     RDKit          3D

 23 25  0  0  0  0  0  0  0  0999 V2000
    2.2060   -1.0340    0.6010 O   0  0  0  0  0  0  0  0  0  0  0  0
    2.4320    0.0550    0.0470 C   0  0  0  0  0  0  0  0  0  0  0  0
    3.7890    0.4170   -0.0470 O   0  0  0  0  0  0  0  0  0  0  0  0
    5.0770   -0.5800    0.5650 P   0  0  0  0  0  0  0  0  0  0  0  0
    5.6290   -0.1010    2.1220 O   0  0  0  0  0  0  0  0  0  0  0  0
    4.6930   -2.2620    0.5540 O   0  0  0  0  0  0  0  0  0  0  0  0
    1.4390    0.9610   -0.4970 C   0  0  0  0  0  0  0  0  0  0  0  0
    1.7410    2.1620   -1.1050 N   0  0  0  0  0  0  0  0  0  0  0  0
    0.6100    2.7540   -1.4940 C   0  0  0  0  0  0  0  0  0  0  0  0
    0.5240    3.9970   -2.1500 O   0  0  0  0  0  0  0  0  0  0  0  0
   -0.3630    1.9350   -1.1340 N   0  0  0  0  0  0  0  0  0  0  0  0
    0.0750    0.8200   -0.5190 C   0  0  0  0  0  0  0  0  0  0  0  0
   -0.7210   -0.2900    0.0060 C   0  0  0  0  0  0  0  0  0  0  0  0
   -0.2630   -1.3940    0.6150 N   0  0  0  0  0  0  0  0  0  0  0  0
   -1.2500   -2.2120    0.9750 C   0  0  0  0  0  0  0  0  0  0  0  0
   -2.4400   -1.5990    0.5700 C   0  0  0  0  0  0  0  0  0  0  0  0
   -3.7230   -1.9880    0.6830 N   0  0  0  0  0  0  0  0  0  0  0  0
   -4.7080   -1.2170    0.2110 C   0  0  0  0  0  0  0  0  0  0  0  0
   -5.9330   -1.5760    0.3130 O   0  0  0  0  0  0  0  0  0  0  0  0
   -4.3870   -0.0540   -0.3750 N   0  0  0  0  0  0  0  0  0  0  0  0
   -3.0780    0.3170   -0.4780 C   0  0  0  0  0  0  0  0  0  0  0  0
   -2.8120    1.4110   -1.0320 O   0  0  0  0  0  0  0  0  0  0  0  0
   -2.0650   -0.4340   -0.0130 N   0  0  0  0  0  0  0  0  0  0  0  0
  1  2  2  0
  2  3  1  0
  2  7  1  0
  3  4  1  0
  4  5  1  0
  4  6  1  0
  7  8  1  0
  7 12  2  0
  8  9  1  0
  9 10  1  0
  9 11  2  0
 11 12  1  0
 12 13  1  0
 13 14  2  0
 13 23  1  0
 14 15  1  0
 15 16  2  0
 16 17  1  0
 16 23  1  0
 17 18  1  0
 18 19  2  0
 18 20  1  0
 20 21  1  0
 21 22  2  0
 21 23  1  0
M  END
