
     RDKit          3D

 23 24  0  0  0  0  0  0  0  0999 V2000
    1.1380    2.3030    0.9640 C   0  0  0  0  0  0  0  0  0  0  0  0
    0.2300    1.2130    1.0760 N   0  0  0  0  0  0  0  0  0  0  0  0
   -1.1310    1.5620    0.8860 C   0  0  0  0  0  0  0  0  0  0  0  0
   -1.6430    1.4990   -0.5000 C   0  0  0  0  0  0  0  0  0  0  0  0
   -0.7840    1.8440   -1.3960 O   0  0  0  0  0  0  0  0  0  0  0  0
   -2.9890    1.0940   -0.8900 C   0  0  0  0  0  0  0  0  0  0  0  0
   -3.2910    1.4820   -2.0850 O   0  0  0  0  0  0  0  0  0  0  0  0
   -3.9150    0.4030   -0.2040 O   0  0  0  0  0  0  0  0  0  0  0  0
   -4.1470   -0.8940    0.1490 C   0  0  0  0  0  0  0  0  0  0  0  0
   -3.0080   -1.8370   -0.0370 C   0  0  0  0  0  0  0  0  0  0  0  0
   -2.7810   -2.9440   -0.7260 N   0  0  0  0  0  0  0  0  0  0  0  0
   -1.5340   -3.3530   -0.4880 N   0  0  0  0  0  0  0  0  0  0  0  0
   -0.9820   -2.4920    0.3560 C   0  0  0  0  0  0  0  0  0  0  0  0
   -1.8970   -1.5540    0.6350 N   0  0  0  0  0  0  0  0  0  0  0  0
    0.3390   -2.4000    0.9650 N   0  0  0  0  0  0  0  0  0  0  0  0
    0.9260   -1.1170    1.1710 C   0  0  0  0  0  0  0  0  0  0  0  0
    1.7430   -0.9630    2.1010 O   0  0  0  0  0  0  0  0  0  0  0  0
    0.6200    0.0780    0.3250 C   0  0  2  0  0  0  0  0  0  0  0  0
    1.8760    0.2610   -0.5040 C   0  0  0  0  0  0  0  0  0  0  0  0
    2.9750    0.5760    0.3090 O   0  0  0  0  0  0  0  0  0  0  0  0
    4.4130    0.7870   -0.6170 P   0  0  0  0  0  0  0  0  0  0  0  0
    4.3430    2.1540   -1.6580 O   0  0  0  0  0  0  0  0  0  0  0  0
    4.8830   -0.6530   -1.4420 O   0  0  0  0  0  0  0  0  0  0  0  0
  1  2  1  0
  2  3  1  0
  2 18  1  0
  3  4  1  0
  4  5  2  0
  4  6  1  0
  6  7  2  0
  6  8  1  0
  8  9  1  0
  9 10  1  0
 10 11  2  0
 10 14  1  0
 11 12  1  0
 12 13  1  0
 13 14  2  0
 13 15  1  0
 15 16  1  0
 16 17  2  0
 16 18  1  0
 18 19  1  1
 19 20  1  0
 20 21  1  0
 21 22  1  0
 21 23  1  0
M  END
