
     RDKit          3D

 22 23  0  0  0  0  0  0  0  0999 V2000
   -0.1230   -0.6060   -2.3930 N   0  0  0  0  0  0  0  0  0  0  0  0
    0.0170   -0.7460   -1.2040 C   0  0  0  0  0  0  0  0  0  0  0  0
    1.3030   -0.5920   -0.7090 N   0  0  0  0  0  0  0  0  0  0  0  0
    1.9490   -1.1750    0.3780 C   0  0  0  0  0  0  0  0  0  0  0  0
    1.2080   -2.0160    0.9200 O   0  0  0  0  0  0  0  0  0  0  0  0
    3.2960   -0.8290    0.7880 C   0  0  0  0  0  0  0  0  0  0  0  0
    4.0250    0.0670    0.1760 C   0  0  0  0  0  0  0  0  0  0  0  0
    5.3490    0.3120    0.6910 N   0  0  0  0  0  0  0  0  0  0  0  0
    6.7520    0.5610   -0.3800 P   0  0  0  0  0  0  0  0  0  0  0  0
    6.1800    0.9410   -1.9740 O   0  0  0  0  0  0  0  0  0  0  0  0
    7.7570    1.8620    0.1880 O   0  0  0  0  0  0  0  0  0  0  0  0
   -1.2490   -0.6370   -0.5040 N   0  0  0  0  0  0  0  0  0  0  0  0
   -1.9300    0.6430   -0.5160 C   0  0  0  0  0  0  0  0  0  0  0  0
   -1.6400    1.6260   -1.2090 O   0  0  0  0  0  0  0  0  0  0  0  0
   -3.0090    0.5080    0.4550 C   0  0  1  0  0  0  0  0  0  0  0  0
   -4.3880    0.7390   -0.1760 C   0  0  2  0  0  0  0  0  0  0  0  0
   -4.7790    2.0520   -0.1070 O   0  0  0  0  0  0  0  0  0  0  0  0
   -5.2590   -0.1970    0.6290 C   0  0  0  0  0  0  0  0  0  0  0  0
   -4.3230   -1.0780    1.4540 C   0  0  0  0  0  0  0  0  0  0  0  0
   -3.0980   -0.8910    0.7540 N   0  0  0  0  0  0  0  0  0  0  0  0
   -1.9660   -1.5530    0.2570 C   0  0  0  0  0  0  0  0  0  0  0  0
   -1.6330   -2.7780    0.4510 O   0  0  0  0  0  0  0  0  0  0  0  0
  1  2  2  0
  2  3  1  0
  2 12  1  0
  3  4  1  0
  4  5  2  0
  4  6  1  0
  6  7  2  3
  7  8  1  0
  8  9  1  0
  9 10  1  0
  9 11  1  0
 12 13  1  0
 12 21  1  0
 13 14  2  0
 15 13  1  6
 15 16  1  0
 15 20  1  0
 16 17  1  1
 16 18  1  0
 18 19  1  0
 19 20  1  0
 20 21  1  0
 21 22  2  0
M  END
