
     RDKit          3D

 23 25  0  0  0  0  0  0  0  0999 V2000
    3.5300   -1.4510   -0.4200 O   0  0  0  0  0  0  0  0  0  0  0  0
    3.9280   -0.2400   -0.4640 C   0  0  0  0  0  0  0  0  0  0  0  0
    5.3410    0.0110   -0.7530 C   0  0  0  0  0  0  0  0  0  0  0  0
    6.0690   -1.1590   -0.9450 O   0  0  0  0  0  0  0  0  0  0  0  0
    7.7340   -0.8260   -1.2840 P   0  0  0  0  0  0  0  0  0  0  0  0
    8.2600    0.6790   -0.6520 O   0  0  0  0  0  0  0  0  0  0  0  0
    8.6940   -2.1230   -0.6530 O   0  0  0  0  0  0  0  0  0  0  0  0
    2.9540    0.7470   -0.2260 N   0  0  0  0  0  0  0  0  0  0  0  0
    1.5840    0.4320    0.0520 C   0  0  0  0  0  0  0  0  0  0  0  0
    1.0430   -0.7990    0.1250 N   0  0  0  0  0  0  0  0  0  0  0  0
   -0.2440   -0.6770    0.4000 N   0  0  0  0  0  0  0  0  0  0  0  0
   -0.5270    0.6320    0.5030 C   0  0  0  0  0  0  0  0  0  0  0  0
   -1.8700    1.2440    0.8060 C   0  0  0  0  0  0  0  0  0  0  0  0
   -2.8750    0.2360    0.9550 N   0  0  0  0  0  0  0  0  0  0  0  0
   -3.0950   -0.6040   -0.2050 C   0  0  0  0  0  0  0  0  0  0  0  0
   -4.1440    0.3790   -0.6620 C   0  0  1  0  0  0  0  0  0  0  0  0
   -5.2910   -0.1300   -1.1870 O   0  0  0  0  0  0  0  0  0  0  0  0
   -5.8960   -1.1140   -0.4540 C   0  0  0  0  0  0  0  0  0  0  0  0
   -6.2230   -0.6800    0.8990 N   0  0  0  0  0  0  0  0  0  0  0  0
   -5.2420    0.1190    1.5580 C   0  0  0  0  0  0  0  0  0  0  0  0
   -5.2480    0.2560    2.7870 O   0  0  0  0  0  0  0  0  0  0  0  0
   -4.2000    0.7960    0.7600 C   0  0  1  0  0  0  0  0  0  0  0  0
    0.6000    1.2630    0.2870 O   0  0  0  0  0  0  0  0  0  0  0  0
  1  2  2  0
  2  3  1  0
  2  8  1  0
  3  4  1  0
  4  5  1  0
  5  6  1  0
  5  7  1  0
  8  9  1  0
  9 10  2  0
  9 23  1  0
 10 11  1  0
 11 12  2  0
 12 13  1  0
 12 23  1  0
 13 14  1  0
 14 15  1  0
 22 14  1  1
 16 15  1  1
 16 17  1  0
 16 22  1  0
 17 18  1  0
 18 19  1  0
 19 20  1  0
 20 21  2  0
 20 22  1  0
M  END
