
     RDKit          3D

 23 25  0  0  0  0  0  0  0  0999 V2000
   -1.7620   -1.6140    0.2880 O   0  0  0  0  0  0  0  0  0  0  0  0
   -1.7130   -0.3740    0.1950 C   0  0  0  0  0  0  0  0  0  0  0  0
   -2.8920    0.4780    0.2200 C   0  0  0  0  0  0  0  0  0  0  0  0
   -4.1720   -0.1270    0.2920 N   0  0  0  0  0  0  0  0  0  0  0  0
   -4.8880   -0.4980    1.3710 C   0  0  0  0  0  0  0  0  0  0  0  0
   -4.4820   -0.4100    2.6020 O   0  0  0  0  0  0  0  0  0  0  0  0
   -6.0500   -0.9590    1.0290 N   0  0  0  0  0  0  0  0  0  0  0  0
   -6.1370   -0.9070   -0.3320 N   0  0  0  0  0  0  0  0  0  0  0  0
   -4.9820   -0.3970   -0.7440 C   0  0  0  0  0  0  0  0  0  0  0  0
   -4.7660   -0.2190   -1.9910 O   0  0  0  0  0  0  0  0  0  0  0  0
   -0.4140    0.2270    0.0510 N   0  0  0  0  0  0  0  0  0  0  0  0
   -0.2740    1.5670   -0.0820 C   0  0  0  0  0  0  0  0  0  0  0  0
    1.0360    1.8470   -0.1850 N   0  0  0  0  0  0  0  0  0  0  0  0
    1.7180    0.6690   -0.1140 C   0  0  0  0  0  0  0  0  0  0  0  0
    3.1870    0.6230   -0.1900 C   0  0  2  0  0  0  0  0  0  0  0  0
    3.6660    1.8240   -0.7770 O   0  0  0  0  0  0  0  0  0  0  0  0
    3.6380   -0.5600   -1.0410 C   0  0  0  0  0  0  0  0  0  0  0  0
    4.0060   -1.7430   -0.1580 C   0  0  0  0  0  0  0  0  0  0  0  0
    5.3210   -1.6040    0.3660 O   0  0  0  0  0  0  0  0  0  0  0  0
    5.4240    0.0750    0.8450 P   0  0  0  0  0  0  0  0  0  0  0  0
    6.1220    0.9150   -0.4890 O   0  0  0  0  0  0  0  0  0  0  0  0
    3.7910    0.5950    1.0690 O   0  0  0  0  0  0  0  0  0  0  0  0
    0.7840   -0.2920    0.0300 N   0  0  0  0  0  0  0  0  0  0  0  0
  1  2  2  0
  2  3  1  0
  2 11  1  0
  3  4  1  0
  4  5  1  0
  4  9  1  0
  5  6  2  0
  5  7  1  0
  7  8  1  0
  8  9  1  0
  9 10  2  0
 11 12  1  0
 11 23  1  0
 12 13  2  0
 13 14  1  0
 14 15  1  0
 14 23  2  0
 15 16  1  6
 15 17  1  0
 15 22  1  0
 17 18  1  0
 18 19  1  0
 19 20  1  0
 20 21  1  0
 20 22  1  0
M  END
