
     RDKit          3D

 23 24  0  0  0  0  0  0  0  0999 V2000
    3.4730    1.6780   -1.1110 N   0  0  0  0  0  0  0  0  0  0  0  0
    3.3540    0.4440   -0.7270 C   0  0  0  0  0  0  0  0  0  0  0  0
    4.5460   -0.3110   -0.6720 N   0  0  0  0  0  0  0  0  0  0  0  0
    4.4680   -1.7860    0.3920 P   0  0  0  0  0  0  0  0  0  0  0  0
    4.6740   -1.3720    2.0480 O   0  0  0  0  0  0  0  0  0  0  0  0
    2.8040   -2.3020    0.1520 O   0  0  0  0  0  0  0  0  0  0  0  0
    1.7380   -1.3690    0.0280 C   0  0  0  0  0  0  0  0  0  0  0  0
    0.5520   -1.7870    0.3160 N   0  0  0  0  0  0  0  0  0  0  0  0
   -0.6420   -1.2310    0.3210 O   0  0  0  0  0  0  0  0  0  0  0  0
   -1.7750   -1.6530   -0.3940 C   0  0  1  0  0  0  0  0  0  0  0  0
   -1.9250   -3.1260   -0.4090 C   0  0  0  0  0  0  0  0  0  0  0  0
   -1.1180   -3.9140    0.1600 O   0  0  0  0  0  0  0  0  0  0  0  0
   -2.9990   -3.6950   -1.0780 O   0  0  0  0  0  0  0  0  0  0  0  0
   -2.9780   -0.9470    0.1780 C   0  0  0  0  0  0  0  0  0  0  0  0
   -3.1870    0.3440   -0.5680 C   0  0  0  0  0  0  0  0  0  0  0  0
   -3.3930    1.4330    0.2690 O   0  0  0  0  0  0  0  0  0  0  0  0
   -2.3430    2.3330    0.1130 C   0  0  0  0  0  0  0  0  0  0  0  0
   -1.4030    2.1800    1.2900 C   0  0  0  0  0  0  0  0  0  0  0  0
   -0.0710    2.6690    1.0310 N   0  0  0  0  0  0  0  0  0  0  0  0
    1.0310    1.9190    0.5720 C   0  0  0  0  0  0  0  0  0  0  0  0
    2.1500    2.0760    1.1770 O   0  0  0  0  0  0  0  0  0  0  0  0
    0.9980    0.9700   -0.5490 C   0  0  0  0  0  0  0  0  0  0  0  0
    2.0520   -0.0610   -0.3980 N   0  0  0  0  0  0  0  0  0  0  0  0
  1  2  2  0
  2  3  1  0
  2 23  1  0
  3  4  1  0
  4  5  1  0
  4  6  1  0
  6  7  1  0
  7  8  2  0
  7 23  1  0
  8  9  1  0
  9 10  1  0
 10 11  1  1
 10 14  1  0
 11 12  2  0
 11 13  1  0
 14 15  1  0
 15 16  1  0
 16 17  1  0
 17 18  1  0
 18 19  1  0
 19 20  1  0
 20 21  2  0
 20 22  1  0
 22 23  1  0
M  END
