
     RDKit          3D

 31 31  0  0  0  0  0  0  0  0999 V2000
   -1.6150    1.5020    0.4500 C   0  0  0  0  0  0  0  0  0  0  0  0
   -1.3520    0.0670    0.2740 C   0  0  2  0  0  0  0  0  0  0  0  0
   -1.2610   -0.7000    1.5750 C   0  0  0  0  0  0  0  0  0  0  0  0
   -2.3420   -0.7720    2.5220 C   0  0  1  0  0  0  0  0  0  0  0  0
   -1.8400   -1.6340    3.5940 O   0  0  0  0  0  0  0  0  0  0  0  0
   -2.6850    0.4800    3.3220 C   0  0  0  0  0  0  0  0  0  0  0  0
   -3.7660    0.1470    4.1930 O   0  0  0  0  0  0  0  0  0  0  0  0
    0.0400   -0.0290   -0.1740 O   0  0  0  0  0  0  0  0  0  0  0  0
    0.5510    0.5320   -1.2940 C   0  0  0  0  0  0  0  0  0  0  0  0
   -0.2090    1.2010   -2.0370 O   0  0  0  0  0  0  0  0  0  0  0  0
    1.9910    0.3920   -1.6960 C   0  0  0  0  0  0  0  0  0  0  0  0
    2.7120   -0.3740   -0.7800 O   0  0  0  0  0  0  0  0  0  0  0  0
    4.0810   -0.5840   -1.0370 C   0  0  0  0  0  0  0  0  0  0  0  0
    4.5830   -0.0820   -2.0600 O   0  0  0  0  0  0  0  0  0  0  0  0
    4.8550   -1.3470   -0.1500 N   0  0  0  0  0  0  0  0  0  0  0  0
    6.2530   -1.5840   -0.3700 C   0  0  0  0  0  0  0  0  0  0  0  0
    6.9910   -0.2730   -0.3860 C   0  0  2  0  0  0  0  0  0  0  0  0
    8.3660   -0.5120   -0.5960 O   0  0  0  0  0  0  0  0  0  0  0  0
    6.7850    0.3810    0.9660 C   0  0  0  0  0  0  0  0  0  0  0  0
    7.2880   -0.5160    1.9290 O   0  0  0  0  0  0  0  0  0  0  0  0
   -2.0800   -0.6840   -0.7830 C   0  0  1  0  0  0  0  0  0  0  0  0
   -1.5690   -2.0200   -0.6680 O   0  0  0  0  0  0  0  0  0  0  0  0
   -3.5380   -0.8050   -0.7590 C   0  0  2  0  0  0  0  0  0  0  0  0
   -3.8050   -1.7370   -1.8520 O   0  0  0  0  0  0  0  0  0  0  0  0
   -4.3120    0.3780   -1.2050 C   0  0  0  0  0  0  0  0  0  0  0  0
   -3.9030    1.4890   -1.8790 C   0  0  0  0  0  0  0  0  0  0  0  0
   -4.9320    2.2680   -2.0980 O   0  0  0  0  0  0  0  0  0  0  0  0
   -6.0320    1.7380   -1.6030 C   0  0  0  0  0  0  0  0  0  0  0  0
   -7.3320    2.2760   -1.6410 O   0  0  0  0  0  0  0  0  0  0  0  0
   -5.6690    0.5330   -1.0270 C   0  0  0  0  0  0  0  0  0  0  0  0
   -6.5450   -0.3320   -0.3960 O   0  0  0  0  0  0  0  0  0  0  0  0
  2  1  1  1
  2  3  1  0
  2  8  1  0
  2 21  1  0
  3  4  1  0
  4  5  1  1
  4  6  1  0
  6  7  1  0
  8  9  1  0
  9 10  2  0
  9 11  1  0
 11 12  1  0
 12 13  1  0
 13 14  2  0
 13 15  1  0
 15 16  1  0
 16 17  1  0
 17 18  1  1
 17 19  1  0
 19 20  1  0
 21 22  1  1
 21 23  1  0
 23 24  1  6
 23 25  1  0
 25 26  2  0
 25 30  1  0
 26 27  1  0
 27 28  1  0
 28 29  1  0
 28 30  2  0
 30 31  1  0
M  CHG  1   7  -1
M  END
