
     RDKit          3D

 31 31  0  0  0  0  0  0  0  0999 V2000
    5.8120    1.3620   -1.0810 C   0  0  0  0  0  0  0  0  0  0  0  0
    6.1960    0.0660   -0.7930 O   0  0  0  0  0  0  0  0  0  0  0  0
    5.2060   -0.8510   -1.1680 C   0  0  1  0  0  0  0  0  0  0  0  0
    5.8140   -1.6360   -2.3630 C   0  0  0  0  0  0  0  0  0  0  0  0
    6.9800   -2.2830   -1.9640 O   0  0  0  0  0  0  0  0  0  0  0  0
    4.8850   -1.7160   -0.1840 O   0  0  0  0  0  0  0  0  0  0  0  0
    3.6210   -1.9510    0.1940 C   0  0  0  0  0  0  0  0  0  0  0  0
    2.9300   -0.7290    0.7430 C   0  0  1  0  0  0  0  0  0  0  0  0
    3.7010   -0.2660    1.8280 O   0  0  0  0  0  0  0  0  0  0  0  0
    3.1000   -0.4190    2.9640 O   0  0  0  0  0  0  0  0  0  0  0  0
    2.7020    0.2440   -0.1830 O   0  0  0  0  0  0  0  0  0  0  0  0
    1.3900    0.6030   -0.4040 C   0  0  0  0  0  0  0  0  0  0  0  0
    0.7880    1.1380    0.8450 C   0  0  0  0  0  0  0  0  0  0  0  0
   -0.5880    1.5630    0.7380 N   0  0  0  0  0  0  0  0  0  0  0  0
   -0.9500    2.0630    2.0760 C   0  0  0  0  0  0  0  0  0  0  0  0
   -1.5120    0.5200    0.3780 C   0  0  1  0  0  0  0  0  0  0  0  0
   -1.6920   -0.2870    1.4860 O   0  0  0  0  0  0  0  0  0  0  0  0
   -1.3460   -1.6010    1.3260 C   0  0  0  0  0  0  0  0  0  0  0  0
   -1.6150   -2.2870    2.6380 C   0  0  0  0  0  0  0  0  0  0  0  0
   -1.3860   -3.5170    2.7820 O   0  0  0  0  0  0  0  0  0  0  0  0
   -2.1210   -1.6030    3.7360 O   0  0  0  0  0  0  0  0  0  0  0  0
   -2.7850    1.2020   -0.0600 C   0  0  1  0  0  0  0  0  0  0  0  0
   -2.4230    2.0140   -1.1640 O   0  0  0  0  0  0  0  0  0  0  0  0
   -3.8460    0.2800   -0.5440 C   0  0  2  0  0  0  0  0  0  0  0  0
   -3.4360   -0.5510   -1.7420 C   0  0  0  0  0  0  0  0  0  0  0  0
   -3.1210    0.3620   -2.7620 O   0  0  0  0  0  0  0  0  0  0  0  0
   -5.0750    1.1100   -0.9350 C   0  0  1  0  0  0  0  0  0  0  0  0
   -5.8970    0.4970   -1.8620 O   0  0  0  0  0  0  0  0  0  0  0  0
   -5.5850    0.8650    0.4750 C   0  0  0  0  0  0  0  0  0  0  0  0
   -4.7120   -0.3980    0.4540 C   0  0  1  0  0  0  0  0  0  0  0  0
   -5.3960   -1.4680   -0.1180 O   0  0  0  0  0  0  0  0  0  0  0  0
  1  2  1  0
  2  3  1  0
  3  4  1  6
  3  6  1  0
  4  5  1  0
  6  7  1  0
  8  7  1  6
  8  9  1  0
  8 11  1  0
  9 10  1  0
 11 12  1  0
 12 13  1  0
 13 14  1  0
 14 15  1  0
 14 16  1  0
 16 17  1  1
 16 22  1  0
 17 18  1  0
 18 19  1  0
 19 20  2  0
 19 21  1  0
 22 23  1  6
 22 24  1  0
 24 25  1  6
 24 27  1  0
 24 30  1  0
 25 26  1  0
 27 28  1  6
 27 29  1  0
 29 30  1  0
 30 31  1  6
M  CHG  1  21  -1
M  END
