
     RDKit          3D

 32 35  0  0  0  0  0  0  0  0999 V2000
   -4.1990   -3.0120    1.1860 C   0  0  0  0  0  0  0  0  0  0  0  0
   -4.9760   -2.1400    0.2550 C   0  0  0  0  0  0  0  0  0  0  0  0
   -4.9860   -0.8280    0.4040 C   0  0  0  0  0  0  0  0  0  0  0  0
   -5.7770   -0.0310   -0.5530 C   0  0  0  0  0  0  0  0  0  0  0  0
   -6.3100    0.1490   -1.7430 C   0  0  0  0  0  0  0  0  0  0  0  0
   -6.8700    1.4390   -1.3220 C   0  0  0  0  0  0  0  0  0  0  0  0
   -6.2910    1.2430    0.0090 C   0  0  2  0  0  0  0  0  0  0  0  0
   -5.0400    2.0290    0.3740 C   0  0  1  0  0  0  0  0  0  0  0  0
   -5.4310    3.4280    0.7950 C   0  0  0  0  0  0  0  0  0  0  0  0
   -4.2740    1.3560    1.4690 C   0  0  0  0  0  0  0  0  0  0  0  0
   -4.2520   -0.1330    1.4580 C   0  0  2  0  0  0  0  0  0  0  0  0
   -2.8980   -0.6600    1.6150 N   0  0  0  0  0  0  0  0  0  0  0  0
   -2.1070   -0.4440    0.3880 C   0  0  0  0  0  0  0  0  0  0  0  0
   -0.7910   -1.0650    0.6490 C   0  0  2  0  0  0  0  0  0  0  0  0
   -0.1990   -0.4590    1.7530 O   0  0  0  0  0  0  0  0  0  0  0  0
    0.1700   -1.1930   -0.4740 C   0  0  1  0  0  0  0  0  0  0  0  0
   -0.4710   -1.9160   -1.6380 C   0  0  0  0  0  0  0  0  0  0  0  0
    0.7450    0.0910   -0.9780 C   0  0  0  0  0  0  0  0  0  0  0  0
    2.1340    0.0820   -0.4340 C   0  0  2  0  0  0  0  0  0  0  0  0
    2.0790    0.5610    0.8790 O   0  0  0  0  0  0  0  0  0  0  0  0
    3.1290    0.8530   -1.2150 C   0  0  0  0  0  0  0  0  0  0  0  0
    4.4170    0.7780   -0.7180 O   0  0  0  0  0  0  0  0  0  0  0  0
    5.3430    1.4880   -1.4300 C   0  0  0  0  0  0  0  0  0  0  0  0
    6.6920    1.2960   -0.7650 C   0  0  1  0  0  0  0  0  0  0  0  0
    6.6770    1.7680    0.6450 C   0  0  0  0  0  0  0  0  0  0  0  0
    7.2220    0.6010    1.4300 C   0  0  0  0  0  0  0  0  0  0  0  0
    7.8490   -0.2450    0.3500 C   0  0  0  0  0  0  0  0  0  0  0  0
    7.0290   -0.0510   -0.7560 O   0  0  0  0  0  0  0  0  0  0  0  0
    2.4060   -1.3950   -0.3590 C   0  0  2  0  0  0  0  0  0  0  0  0
    3.3680   -1.6390    0.7830 C   0  0  0  0  0  0  0  0  0  0  0  0
    2.9000   -2.0070   -1.6220 C   0  0  0  0  0  0  0  0  0  0  0  0
    1.2100   -1.9970   -0.0120 O   0  0  0  0  0  0  0  0  0  0  0  0
  1  2  1  0
  2  3  2  3
  3  4  1  0
  3 11  1  0
  4  5  2  0
  4  7  1  0
  5  6  1  0
  7  6  1  6
  7  8  1  0
  8  9  1  1
  8 10  1  0
 10 11  1  0
 11 12  1  6
 12 13  1  0
 13 14  1  0
 14 15  1  1
 14 16  1  0
 16 17  1  6
 16 18  1  0
 16 32  1  0
 18 19  1  0
 19 20  1  1
 19 21  1  0
 19 29  1  0
 21 22  1  0
 22 23  1  0
 24 23  1  1
 24 25  1  0
 24 28  1  0
 25 26  1  0
 26 27  1  0
 27 28  1  0
 29 30  1  1
 29 31  1  0
 29 32  1  0
M  END
