
     RDKit          3D

 33 36  0  0  0  0  0  0  0  0999 V2000
   -4.0960    0.7250   -4.8370 C   0  0  0  0  0  0  0  0  0  0  0  0
   -3.0840    0.5150   -3.7770 C   0  0  0  0  0  0  0  0  0  0  0  0
   -2.4080   -0.5420   -3.6880 O   0  0  0  0  0  0  0  0  0  0  0  0
   -2.8400    1.5250   -2.8070 N   0  0  0  0  0  0  0  0  0  0  0  0
   -1.8980    1.4180   -1.7610 C   0  0  0  0  0  0  0  0  0  0  0  0
   -2.0250    0.3300   -0.7690 C   0  0  2  0  0  0  0  0  0  0  0  0
   -3.2800    0.3380    0.0210 C   0  0  1  0  0  0  0  0  0  0  0  0
   -4.4880    0.2020   -0.8680 C   0  0  0  0  0  0  0  0  0  0  0  0
   -3.2850   -0.6570    1.0780 N   0  0  1  0  0  0  0  0  0  0  0  0
   -2.9310   -0.1190    2.3650 C   0  0  0  0  0  0  0  0  0  0  0  0
   -4.5200   -1.3820    1.2080 C   0  0  0  0  0  0  0  0  0  0  0  0
   -5.5060   -0.6840    2.0900 C   0  0  1  0  0  0  0  0  0  0  0  0
   -6.8500   -1.2670    2.3490 C   0  0  0  0  0  0  0  0  0  0  0  0
   -5.8560   -1.2770    3.4340 C   0  0  0  0  0  0  0  0  0  0  0  0
   -0.8150    0.3630    0.0480 N   0  0  2  0  0  0  0  0  0  0  0  0
   -0.4420    1.6920    0.4230 C   0  0  0  0  0  0  0  0  0  0  0  0
    0.5370    1.6310    1.5850 C   0  0  0  0  0  0  0  0  0  0  0  0
    1.5000    0.4780    1.3320 C   0  0  0  0  0  0  0  0  0  0  0  0
    1.5890    0.3250   -0.1730 C   0  0  1  0  0  0  0  0  0  0  0  0
    2.7580   -0.5140   -0.5520 C   0  0  0  0  0  0  0  0  0  0  0  0
    2.5650   -1.5520   -1.1740 O   0  0  0  0  0  0  0  0  0  0  0  0
    4.0400   -0.0820   -0.1810 N   0  0  0  0  0  0  0  0  0  0  0  0
    5.2320   -0.7850   -0.4850 C   0  0  0  0  0  0  0  0  0  0  0  0
    5.2630   -1.8920   -1.3020 C   0  0  0  0  0  0  0  0  0  0  0  0
    6.4770   -2.5180   -1.5780 C   0  0  0  0  0  0  0  0  0  0  0  0
    7.6440   -2.0520   -1.0500 C   0  0  0  0  0  0  0  0  0  0  0  0
    7.6540   -0.9400   -0.2230 C   0  0  0  0  0  0  0  0  0  0  0  0
    8.8690   -0.5170    0.2870 C   0  0  0  0  0  0  0  0  0  0  0  0
    8.9270    0.5740    1.1130 C   0  0  0  0  0  0  0  0  0  0  0  0
    7.7500    1.2070    1.4000 C   0  0  0  0  0  0  0  0  0  0  0  0
    6.5210    0.7750    0.8820 C   0  0  0  0  0  0  0  0  0  0  0  0
    6.4470   -0.3200    0.0490 C   0  0  0  0  0  0  0  0  0  0  0  0
    0.2950   -0.2450   -0.6530 C   0  0  0  0  0  0  0  0  0  0  0  0
  1  2  1  0
  2  3  2  0
  2  4  1  0
  4  5  1  0
  6  5  1  6
  6  7  1  0
  6 15  1  0
  7  8  1  6
  7  9  1  0
  9 10  1  1
  9 11  1  0
 12 11  1  6
 12 13  1  0
 12 14  1  0
 13 14  1  0
 15 16  1  6
 15 33  1  0
 16 17  1  0
 17 18  1  0
 18 19  1  0
 19 20  1  1
 19 33  1  0
 20 21  2  0
 20 22  1  0
 22 23  1  0
 23 24  2  0
 23 32  1  0
 24 25  1  0
 25 26  2  0
 26 27  1  0
 27 28  2  0
 27 32  1  0
 28 29  1  0
 29 30  2  0
 30 31  1  0
 31 32  2  0
M  CHG  2   9   1  15   1
M  END
