
     RDKit          3D

 33 36  0  0  0  0  0  0  0  0999 V2000
   -1.7910    0.4020   -4.5090 C   0  0  0  0  0  0  0  0  0  0  0  0
   -1.7230    0.2310   -3.0710 N   0  0  0  0  0  0  0  0  0  0  0  0
   -2.1870    1.2560   -2.1980 C   0  0  0  0  0  0  0  0  0  0  0  0
   -2.6520    2.3030   -2.7140 O   0  0  0  0  0  0  0  0  0  0  0  0
   -2.1280    1.1030   -0.7060 C   0  0  1  0  0  0  0  0  0  0  0  0
   -2.9460   -0.0900   -0.3490 C   0  0  0  0  0  0  0  0  0  0  0  0
   -3.6260    0.0490    1.0010 C   0  0  1  0  0  0  0  0  0  0  0  0
   -4.4450   -1.0990    1.2120 N   0  0  0  0  0  0  0  0  0  0  0  0
   -5.8490   -0.8780    1.0160 C   0  0  1  0  0  0  0  0  0  0  0  0
   -6.3010    0.5230    1.2470 C   0  0  0  0  0  0  0  0  0  0  0  0
   -7.8170    0.5140    1.3250 C   0  0  0  0  0  0  0  0  0  0  0  0
   -8.4160   -0.7900    0.9280 C   0  0  0  0  0  0  0  0  0  0  0  0
   -7.8290   -1.4110   -0.2950 C   0  0  0  0  0  0  0  0  0  0  0  0
   -6.3210   -1.2870   -0.3750 C   0  0  0  0  0  0  0  0  0  0  0  0
   -2.5820    0.0820    2.1200 C   0  0  0  0  0  0  0  0  0  0  0  0
   -1.6870    1.2730    2.0160 C   0  0  0  0  0  0  0  0  0  0  0  0
   -0.5220    1.0400    1.1430 N   0  0  0  0  0  0  0  0  0  0  0  0
    0.7130    1.0000    1.7950 C   0  0  0  0  0  0  0  0  0  0  0  0
    0.6360    1.1840    3.0800 O   0  0  0  0  0  0  0  0  0  0  0  0
    2.0560    0.7950    1.3260 C   0  0  0  0  0  0  0  0  0  0  0  0
    2.4990    0.5820    0.1280 C   0  0  0  0  0  0  0  0  0  0  0  0
    3.9250    0.3960   -0.1480 C   0  0  0  0  0  0  0  0  0  0  0  0
    4.3500    0.1680   -1.4690 C   0  0  0  0  0  0  0  0  0  0  0  0
    5.6740   -0.0140   -1.7910 C   0  0  0  0  0  0  0  0  0  0  0  0
    6.6390    0.0240   -0.7960 C   0  0  0  0  0  0  0  0  0  0  0  0
    6.2610    0.2440    0.5090 C   0  0  0  0  0  0  0  0  0  0  0  0
    4.9220    0.4230    0.7970 C   0  0  0  0  0  0  0  0  0  0  0  0
    7.3330    0.2750    1.5340 C   0  0  0  0  0  0  0  0  0  0  0  0
    8.2280   -0.8170    1.3330 N   0  0  0  0  0  0  0  0  0  0  0  0
    8.6500   -1.0610   -0.0030 C   0  0  2  0  0  0  0  0  0  0  0  0
   10.1750   -1.0160   -0.1320 C   0  0  0  0  0  0  0  0  0  0  0  0
    8.0910   -0.1630   -1.0520 C   0  0  0  0  0  0  0  0  0  0  0  0
   -0.6660    0.8690   -0.2810 C   0  0  0  0  0  0  0  0  0  0  0  0
  1  2  1  0
  2  3  1  0
  3  4  2  0
  5  3  1  6
  5  6  1  0
  5 33  1  0
  6  7  1  0
  7  8  1  1
  7 15  1  0
  9  8  1  6
  9 10  1  0
  9 14  1  0
 10 11  1  0
 11 12  1  0
 12 13  1  0
 13 14  1  0
 15 16  1  0
 16 17  1  0
 17 18  1  0
 17 33  1  0
 18 19  2  0
 18 20  1  0
 20 21  2  3
 21 22  1  0
 22 23  2  0
 22 27  1  0
 23 24  1  0
 24 25  2  0
 25 26  1  0
 25 32  1  0
 26 27  2  0
 26 28  1  0
 28 29  1  0
 29 30  1  0
 30 31  1  1
 30 32  1  0
M  CHG  2   8   1  29   1
M  END
