
     RDKit          3D

 33 36  0  0  0  0  0  0  0  0999 V2000
    7.6690   -3.2520    2.1450 C   0  0  0  0  0  0  0  0  0  0  0  0
    6.5820   -2.4000    1.5800 C   0  0  0  0  0  0  0  0  0  0  0  0
    6.1590   -2.5730    0.2790 C   0  0  0  0  0  0  0  0  0  0  0  0
    5.1410   -1.7780   -0.2570 C   0  0  0  0  0  0  0  0  0  0  0  0
    4.5260   -0.8000    0.4860 C   0  0  0  0  0  0  0  0  0  0  0  0
    3.4550    0.0590   -0.0300 C   0  0  0  0  0  0  0  0  0  0  0  0
    2.9250    0.9460    0.7250 O   0  0  0  0  0  0  0  0  0  0  0  0
    2.9440   -0.0110   -1.3350 N   0  0  0  0  0  0  0  0  0  0  0  0
    1.9080    0.7900   -1.8970 C   0  0  0  0  0  0  0  0  0  0  0  0
    0.5770    0.7420   -1.2500 C   0  0  2  0  0  0  0  0  0  0  0  0
   -0.1840   -0.4990   -1.1410 C   0  0  0  0  0  0  0  0  0  0  0  0
    0.2420   -1.7050   -0.6220 N   0  0  2  0  0  0  0  0  0  0  0  0
    1.1990   -2.4860   -1.3370 C   0  0  0  0  0  0  0  0  0  0  0  0
   -0.8980   -2.6240   -0.4490 C   0  0  0  0  0  0  0  0  0  0  0  0
   -2.0960   -2.1010    0.2400 C   0  0  0  0  0  0  0  0  0  0  0  0
   -2.0960   -2.4900    1.5940 C   0  0  0  0  0  0  0  0  0  0  0  0
   -3.0600   -2.1620    2.5140 C   0  0  0  0  0  0  0  0  0  0  0  0
   -4.0710   -1.3940    2.0070 C   0  0  0  0  0  0  0  0  0  0  0  0
   -4.1320   -0.9690    0.6580 C   0  0  0  0  0  0  0  0  0  0  0  0
   -3.1380   -1.3310   -0.2100 C   0  0  0  0  0  0  0  0  0  0  0  0
   -5.3520   -0.1350    0.4320 C   0  0  0  0  0  0  0  0  0  0  0  0
   -5.0350    1.3660    0.3130 C   0  0  0  0  0  0  0  0  0  0  0  0
   -3.9540    1.4630   -0.4970 O   0  0  0  0  0  0  0  0  0  0  0  0
   -3.2110    2.5800   -0.5230 C   0  0  1  0  0  0  0  0  0  0  0  0
   -3.9350    3.7030    0.1570 C   0  0  0  0  0  0  0  0  0  0  0  0
   -3.2840    3.6800    1.4750 N   0  0  0  0  0  0  0  0  0  0  0  0
   -1.8940    3.7040    1.0360 C   0  0  0  0  0  0  0  0  0  0  0  0
   -1.8320    2.4930    0.0660 C   0  0  2  0  0  0  0  0  0  0  0  0
   -0.7590    2.7880   -0.7920 N   0  0  0  0  0  0  0  0  0  0  0  0
   -0.2990    1.8970   -1.7750 C   0  0  2  0  0  0  0  0  0  0  0  0
   -1.2800    1.4160   -2.7970 C   0  0  0  0  0  0  0  0  0  0  0  0
    4.9530   -0.6330    1.7850 C   0  0  0  0  0  0  0  0  0  0  0  0
    5.9610   -1.4170    2.3210 C   0  0  0  0  0  0  0  0  0  0  0  0
  1  2  1  0
  2  3  2  0
  2 33  1  0
  3  4  1  0
  4  5  2  0
  5  6  1  0
  5 32  1  0
  6  7  2  0
  6  8  1  0
  8  9  1  0
 10  9  1  6
 10 11  1  0
 10 30  1  0
 11 12  1  0
 12 13  1  6
 12 14  1  0
 14 15  1  0
 15 16  2  0
 15 20  1  0
 16 17  1  0
 17 18  2  0
 18 19  1  0
 19 20  2  0
 19 21  1  0
 21 22  1  0
 22 23  1  0
 23 24  1  0
 24 25  1  1
 24 28  1  0
 25 26  1  0
 26 27  1  0
 28 27  1  1
 28 29  1  0
 29 30  1  0
 30 31  1  1
 32 33  2  0
M  CHG  2  12   1  29   1
M  END
