
     RDKit          3D

 24 25  0  0  0  0  0  0  0  0999 V2000
   -4.4270   -1.5760    1.9190 C   0  0  0  0  0  0  0  0  0  0  0  0
   -3.1680   -2.2640    1.4080 C   0  0  0  0  0  0  0  0  0  0  0  0
   -2.2710   -1.2550    0.9730 N   0  0  0  0  0  0  0  0  0  0  0  0
   -0.7250   -1.3390    1.3610 P   0  0  0  0  0  0  0  0  0  0  0  0
    0.3650   -0.1230    0.8410 O   0  0  0  0  0  0  0  0  0  0  0  0
    0.1630    0.1300   -0.5150 C   0  0  1  0  0  0  0  0  0  0  0  0
   -1.1940    0.5730   -0.6870 N   0  0  0  0  0  0  0  0  0  0  0  0
   -1.2110    1.9230   -0.2370 C   0  0  0  0  0  0  0  0  0  0  0  0
   -2.2660    2.6070   -0.0450 O   0  0  0  0  0  0  0  0  0  0  0  0
    0.1540    2.3650   -0.0430 N   0  0  0  0  0  0  0  0  0  0  0  0
    0.5080    3.5010    0.7610 C   0  0  0  0  0  0  0  0  0  0  0  0
    0.5460    4.7620   -0.0060 C   0  0  0  0  0  0  0  0  0  0  0  0
    0.8390    5.8360    0.5580 O   0  0  0  0  0  0  0  0  0  0  0  0
    0.2610    4.7830   -1.3550 O   0  0  0  0  0  0  0  0  0  0  0  0
    0.9220    1.4360   -0.8020 C   0  0  2  0  0  0  0  0  0  0  0  0
    0.8750    1.6580   -2.2110 N   0  0  0  0  0  0  0  0  0  0  0  0
    2.6330    1.1470   -0.2030 P   0  0  0  0  0  0  0  0  0  0  0  0
    2.8250    1.4460    1.4870 O   0  0  0  0  0  0  0  0  0  0  0  0
    2.9110   -1.0330   -0.4400 P   0  0  0  0  0  0  0  0  0  0  0  0
    1.5700   -1.8120   -1.0770 C   0  0  0  0  0  0  0  0  0  0  0  0
    1.4460   -3.2620   -1.3540 C   0  0  0  0  0  0  0  0  0  0  0  0
    2.4710   -3.9670   -0.8040 O   0  0  0  0  0  0  0  0  0  0  0  0
    2.5630   -3.9940    0.5610 C   0  0  0  0  0  0  0  0  0  0  0  0
    0.5190   -0.9190   -1.3420 O   0  0  0  0  0  0  0  0  0  0  0  0
  1  2  1  0
  2  3  1  0
  3  4  2  3
  4  5  1  0
  6  5  1  1
  6  7  1  0
  6 15  1  0
  6 24  1  0
  7  8  1  0
  8  9  2  0
  8 10  1  0
 10 11  1  0
 10 15  1  0
 11 12  1  0
 12 13  2  0
 12 14  1  0
 15 16  1  6
 15 17  1  0
 17 18  1  0
 17 19  1  0
 19 20  2  0
 20 21  1  0
 20 24  1  0
 21 22  1  0
 22 23  1  0
M  END
