
     RDKit          3D

 24 25  0  0  0  0  0  0  0  0999 V2000
   -5.5610   -1.4920   -0.4300 C   0  0  0  0  0  0  0  0  0  0  0  0
   -5.2950   -0.3890    0.5270 C   0  0  0  0  0  0  0  0  0  0  0  0
   -6.5440    0.1690    1.4560 P   0  0  0  0  0  0  0  0  0  0  0  0
   -3.9890    0.1920    0.6550 N   0  0  0  0  0  0  0  0  0  0  0  0
   -2.6620   -0.6050    0.1190 P   0  0  0  0  0  0  0  0  0  0  0  0
   -1.0430    0.1520    0.2950 N   0  0  0  0  0  0  0  0  0  0  0  0
   -0.8540    1.1570    1.2870 C   0  0  0  0  0  0  0  0  0  0  0  0
   -1.8030    1.5270    2.0460 O   0  0  0  0  0  0  0  0  0  0  0  0
    0.4470    1.7160    1.3770 N   0  0  0  0  0  0  0  0  0  0  0  0
    0.6500    2.6770    2.3300 O   0  0  0  0  0  0  0  0  0  0  0  0
    1.8340    2.4690    2.9270 O   0  0  0  0  0  0  0  0  0  0  0  0
    2.9320    2.0890    2.1660 C   0  0  0  0  0  0  0  0  0  0  0  0
    4.0770    2.3130    2.6390 O   0  0  0  0  0  0  0  0  0  0  0  0
    2.7000    1.4770    0.9130 N   0  0  0  0  0  0  0  0  0  0  0  0
    1.4980    1.2910    0.5190 C   0  0  0  0  0  0  0  0  0  0  0  0
    1.1420    0.6690   -0.7760 C   0  0  2  0  0  0  0  0  0  0  0  0
    2.3250    0.0080   -1.4390 C   0  0  0  0  0  0  0  0  0  0  0  0
    3.0440   -1.3220   -0.3990 P   0  0  0  0  0  0  0  0  0  0  0  0
    4.8420   -1.0390   -0.0270 C   0  0  0  0  0  0  0  0  0  0  0  0
    2.7910   -2.8990   -1.0860 O   0  0  0  0  0  0  0  0  0  0  0  0
    0.6790    1.7380   -1.6340 N   0  0  0  0  0  0  0  0  0  0  0  0
   -0.1880    1.4880   -2.4430 O   0  0  0  0  0  0  0  0  0  0  0  0
    0.0180   -0.2590   -0.5490 C   0  0  0  0  0  0  0  0  0  0  0  0
   -0.0560   -1.4030   -1.0640 O   0  0  0  0  0  0  0  0  0  0  0  0
  1  2  1  0
  2  3  2  0
  2  4  1  0
  4  5  2  3
  5  6  1  0
  6  7  1  0
  6 23  1  0
  7  8  2  0
  7  9  1  0
  9 10  1  0
  9 15  1  0
 10 11  1  0
 11 12  1  0
 12 13  2  0
 12 14  1  0
 14 15  2  0
 15 16  1  0
 16 17  1  6
 16 21  1  0
 16 23  1  0
 17 18  1  0
 18 19  1  0
 18 20  1  0
 21 22  2  0
 23 24  2  0
M  END
