
     RDKit          3D

 24 24  0  0  0  0  0  0  0  0999 V2000
    2.4520    1.0930   -2.0700 C   0  0  0  0  0  0  0  0  0  0  0  0
    2.3910   -0.0020   -1.1520 N   0  0  0  0  0  0  0  0  0  0  0  0
    3.6730   -0.5550   -0.6160 C   0  0  0  0  0  0  0  0  0  0  0  0
    4.1810    0.2770    0.9240 P   0  0  0  0  0  0  0  0  0  0  0  0
    5.3950    1.5310    0.7040 N   0  0  0  0  0  0  0  0  0  0  0  0
    5.8140    1.7960   -0.3800 O   0  0  0  0  0  0  0  0  0  0  0  0
    4.6020   -0.8220    2.1770 O   0  0  0  0  0  0  0  0  0  0  0  0
    6.1840   -1.4840    1.9960 P   0  0  0  0  0  0  0  0  0  0  0  0
    1.2310   -0.6170   -0.7030 C   0  0  0  0  0  0  0  0  0  0  0  0
    1.4780   -1.5590    0.1890 O   0  0  0  0  0  0  0  0  0  0  0  0
   -0.1240   -0.4590   -0.9820 N   0  0  0  0  0  0  0  0  0  0  0  0
   -1.0710   -1.2800   -0.1810 C   0  0  0  0  0  0  0  0  0  0  0  0
   -1.8990   -0.2840    0.4500 O   0  0  0  0  0  0  0  0  0  0  0  0
   -2.6670    0.5430   -0.3500 C   0  0  0  0  0  0  0  0  0  0  0  0
   -4.1620    1.0910    0.1290 P   0  0  0  0  0  0  0  0  0  0  0  0
   -4.7900    0.5750    1.7650 C   0  0  0  0  0  0  0  0  0  0  0  0
   -3.9560    0.1230    2.7690 O   0  0  0  0  0  0  0  0  0  0  0  0
   -6.0390    0.6350    1.9860 N   0  0  0  0  0  0  0  0  0  0  0  0
   -7.0260    1.0690    1.0810 C   0  0  0  0  0  0  0  0  0  0  0  0
   -7.8190    2.0650    1.3140 N   0  0  0  0  0  0  0  0  0  0  0  0
   -2.0980    0.9140   -1.6420 C   0  0  0  0  0  0  0  0  0  0  0  0
   -2.6760    1.6380   -2.4520 O   0  0  0  0  0  0  0  0  0  0  0  0
   -0.7520    0.3580   -1.9370 C   0  0  0  0  0  0  0  0  0  0  0  0
   -0.1770    0.5960   -3.0050 O   0  0  0  0  0  0  0  0  0  0  0  0
  1  2  1  0
  2  3  1  0
  2  9  1  0
  3  4  1  0
  4  5  1  0
  4  7  1  0
  5  6  2  0
  7  8  1  0
  9 10  2  0
  9 11  1  0
 11 12  1  0
 11 23  1  0
 12 13  1  0
 13 14  1  0
 14 15  2  3
 14 21  1  0
 15 16  1  0
 16 17  1  0
 16 18  2  3
 18 19  1  0
 19 20  2  0
 21 22  2  0
 21 23  1  0
 23 24  2  0
M  END
