
     RDKit          3D

 24 24  0  0  0  0  0  0  0  0999 V2000
    5.5930   -0.3970    0.5130 C   0  0  0  0  0  0  0  0  0  0  0  0
    4.1900   -0.6300    0.5440 N   0  0  0  0  0  0  0  0  0  0  0  0
    3.3780    0.4370   -0.0140 C   0  0  1  0  0  0  0  0  0  0  0  0
    3.5100    1.7260    0.7400 C   0  0  0  0  0  0  0  0  0  0  0  0
    3.8690    0.6680   -1.3820 N   0  0  0  0  0  0  0  0  0  0  0  0
    1.6580   -0.2060   -0.1130 P   0  0  0  0  0  0  0  0  0  0  0  0
    1.4660   -0.9740   -1.6690 O   0  0  0  0  0  0  0  0  0  0  0  0
    0.4340    0.9290    0.2300 O   0  0  0  0  0  0  0  0  0  0  0  0
   -0.6710    0.7820   -0.4720 O   0  0  0  0  0  0  0  0  0  0  0  0
   -1.7780    0.0300   -0.1220 C   0  0  0  0  0  0  0  0  0  0  0  0
   -2.6960    0.3050    0.7900 C   0  0  0  0  0  0  0  0  0  0  0  0
   -2.7390    1.4570    1.6200 N   0  0  0  0  0  0  0  0  0  0  0  0
   -2.5940    2.9760    1.1270 P   0  0  0  0  0  0  0  0  0  0  0  0
   -2.3600    3.5120   -0.4830 O   0  0  0  0  0  0  0  0  0  0  0  0
   -3.7120    4.3410   -1.1420 P   0  0  0  0  0  0  0  0  0  0  0  0
   -4.2340    5.6870   -0.5770 O   0  0  0  0  0  0  0  0  0  0  0  0
   -3.6900   -0.7570    0.8330 C   0  0  0  0  0  0  0  0  0  0  0  0
   -4.7380   -0.8000    1.6260 N   0  0  0  0  0  0  0  0  0  0  0  0
   -5.6350   -1.8980    1.5690 C   0  0  0  0  0  0  0  0  0  0  0  0
   -5.2680   -2.9400    0.9720 O   0  0  0  0  0  0  0  0  0  0  0  0
   -3.3170   -1.6910   -0.1090 O   0  0  0  0  0  0  0  0  0  0  0  0
   -2.1350   -1.2520   -0.7270 C   0  0  1  0  0  0  0  0  0  0  0  0
   -2.3520   -1.1580   -2.2230 C   0  0  0  0  0  0  0  0  0  0  0  0
   -1.1220   -2.2570   -0.4280 N   0  0  0  0  0  0  0  0  0  0  0  0
  1  2  1  0
  2  3  1  0
  3  4  1  1
  3  5  1  0
  3  6  1  0
  6  7  1  0
  6  8  1  0
  8  9  1  0
  9 10  1  0
 10 11  2  0
 10 22  1  0
 11 12  1  0
 11 17  1  0
 12 13  2  3
 13 14  1  0
 14 15  1  0
 15 16  2  0
 17 18  2  3
 17 21  1  0
 18 19  1  0
 19 20  2  0
 21 22  1  0
 22 23  1  6
 22 24  1  0
M  END
