
     RDKit          3D

 24 24  0  0  0  0  0  0  0  0999 V2000
   -3.8440   -2.4960   -1.6730 C   0  0  0  0  0  0  0  0  0  0  0  0
   -3.1700   -1.8750   -0.5270 C   0  0  0  0  0  0  0  0  0  0  0  0
   -3.6350   -1.8520    0.6630 N   0  0  0  0  0  0  0  0  0  0  0  0
   -3.0180   -1.2880    1.7220 O   0  0  0  0  0  0  0  0  0  0  0  0
   -1.8260   -0.6490    1.7850 C   0  0  0  0  0  0  0  0  0  0  0  0
   -1.1690   -0.5960    2.8970 O   0  0  0  0  0  0  0  0  0  0  0  0
   -1.2020    0.0160    0.6120 C   0  0  2  0  0  0  0  0  0  0  0  0
    0.2210   -0.0200    0.8020 O   0  0  0  0  0  0  0  0  0  0  0  0
    1.0480    0.5540   -0.1460 C   0  0  0  0  0  0  0  0  0  0  0  0
    0.5740    1.1110   -1.1650 O   0  0  0  0  0  0  0  0  0  0  0  0
    2.4690    0.5390   -0.0090 N   0  0  0  0  0  0  0  0  0  0  0  0
    3.2500    1.1280   -0.9930 N   0  0  0  0  0  0  0  0  0  0  0  0
    3.2550    0.6500   -2.3090 C   0  0  0  0  0  0  0  0  0  0  0  0
    2.5560   -0.3400   -2.6850 O   0  0  0  0  0  0  0  0  0  0  0  0
    3.1040   -0.0820    1.1400 C   0  0  2  0  0  0  0  0  0  0  0  0
    4.6060    0.0450    1.0300 C   0  0  0  0  0  0  0  0  0  0  0  0
    2.7890   -1.5030    1.1070 N   0  0  0  0  0  0  0  0  0  0  0  0
    2.6030    0.5270    2.2780 O   0  0  0  0  0  0  0  0  0  0  0  0
   -1.7290    1.7540    0.4860 P   0  0  0  0  0  0  0  0  0  0  0  0
   -3.3100    2.0100   -0.4160 C   0  0  0  0  0  0  0  0  0  0  0  0
   -1.9780    2.3720    2.1800 N   0  0  0  0  0  0  0  0  0  0  0  0
   -1.5690   -1.0340   -0.8570 P   0  0  0  0  0  0  0  0  0  0  0  0
   -1.6520    0.0800   -2.7410 P   0  0  0  0  0  0  0  0  0  0  0  0
   -1.6310   -0.7040   -4.0670 O   0  0  0  0  0  0  0  0  0  0  0  0
  1  2  1  0
  2  3  2  0
  2 22  1  0
  3  4  1  0
  4  5  1  0
  5  6  2  0
  5  7  1  0
  7  8  1  1
  7 19  1  0
  7 22  1  0
  8  9  1  0
  9 10  2  0
  9 11  1  0
 11 12  1  0
 11 15  1  0
 12 13  1  0
 13 14  2  0
 15 16  1  6
 15 17  1  0
 15 18  1  0
 19 20  1  0
 19 21  1  0
 22 23  1  0
 23 24  2  0
M  END
