
     RDKit          3D

 13 14  0  0  0  0  0  0  0  0999 V2000
    3.8150   -0.3150    0.8280 O   0  0  0  0  0  0  0  0  0  0  0  0
    2.8760   -0.2060    0.0180 C   0  0  0  0  0  0  0  0  0  0  0  0
    2.9290   -0.5640   -1.3430 O   0  0  0  0  0  0  0  0  0  0  0  0
    1.7130   -0.3940   -1.9050 O   0  0  0  0  0  0  0  0  0  0  0  0
    0.8510   -0.6150   -0.8780 C   0  0  2  0  0  0  0  0  0  0  0  0
   -0.4320   -0.1810   -1.0300 O   0  0  0  0  0  0  0  0  0  0  0  0
   -1.0630    0.2070    0.1200 C   0  0  1  0  0  0  0  0  0  0  0  0
   -1.2700    1.5850    0.0350 O   0  0  0  0  0  0  0  0  0  0  0  0
   -2.4680   -0.4150    0.0930 C   0  0  0  0  0  0  0  0  0  0  0  0
   -3.1080    0.0730   -1.0340 O   0  0  0  0  0  0  0  0  0  0  0  0
   -0.5190   -0.1040    1.3010 O   0  0  0  0  0  0  0  0  0  0  0  0
    0.8340   -0.0710    1.4520 C   0  0  0  0  0  0  0  0  0  0  0  0
    1.4940    0.2940    0.1890 C   0  0  1  0  0  0  0  0  0  0  0  0
  1  2  2  0
  2  3  1  0
  2 13  1  0
  3  4  1  0
  5  4  1  6
  5  6  1  0
  5 13  1  0
  6  7  1  0
  7  8  1  6
  7  9  1  0
  7 11  1  0
  9 10  1  0
 11 12  1  0
 13 12  1  1
M  END
