
     RDKit          3D

 37 42  0  0  0  0  0  0  0  0999 V2000
    1.5310   -4.1890    1.6600 C   0  0  0  0  0  0  0  0  0  0  0  0
    1.3930   -2.7250    1.2570 C   0  0  1  0  0  0  0  0  0  0  0  0
    2.4820   -1.8580    1.9120 C   0  0  0  0  0  0  0  0  0  0  0  0
    1.9870   -0.6150    2.5260 C   0  0  0  0  0  0  0  0  0  0  0  0
    2.3560    0.7250    1.8900 C   0  0  1  0  0  0  0  0  0  0  0  0
    3.7810    0.7890    1.6240 C   0  0  0  0  0  0  0  0  0  0  0  0
    4.4410    1.2840    0.4160 C   0  0  0  0  0  0  0  0  0  0  0  0
    4.8000    0.1650   -0.6320 C   0  0  0  0  0  0  0  0  0  0  0  0
    3.5490   -0.1390   -1.1910 C   0  0  1  0  0  0  0  0  0  0  0  0
    3.0610    0.8170   -2.2450 C   0  0  0  0  0  0  0  0  0  0  0  0
    1.5690    0.3420   -2.1270 C   0  0  0  0  0  0  0  0  0  0  0  0
    1.5160   -0.7870   -1.5470 C   0  0  0  0  0  0  0  0  0  0  0  0
    2.9710   -1.3370   -1.8580 C   0  0  0  0  0  0  0  0  0  0  0  0
    0.6820   -1.6200   -0.7020 C   0  0  1  0  0  0  0  0  0  0  0  0
   -0.6560   -2.0300   -1.2430 C   0  0  0  0  0  0  0  0  0  0  0  0
   -1.8760   -2.0160   -0.4770 C   0  0  2  0  0  0  0  0  0  0  0  0
   -2.9620   -2.5120   -1.5030 C   0  0  0  0  0  0  0  0  0  0  0  0
   -2.5210   -1.1470    0.4330 C   0  0  1  0  0  0  0  0  0  0  0  0
   -2.0060   -1.1280    1.8930 C   0  0  0  0  0  0  0  0  0  0  0  0
   -3.1060   -0.4820    2.6890 C   0  0  0  0  0  0  0  0  0  0  0  0
   -4.0650   -0.0500    1.6630 C   0  0  0  0  0  0  0  0  0  0  0  0
   -3.1510    0.1750    0.3720 C   0  0  2  0  0  0  0  0  0  0  0  0
   -4.3360    0.2410   -0.5870 C   0  0  0  0  0  0  0  0  0  0  0  0
   -2.4720    1.4150    0.7350 C   0  0  0  0  0  0  0  0  0  0  0  0
   -2.5750    2.7500    0.1760 C   0  0  2  0  0  0  0  0  0  0  0  0
   -3.1330    2.9340   -1.2100 C   0  0  0  0  0  0  0  0  0  0  0  0
   -2.2910    2.0030   -1.9750 C   0  0  0  0  0  0  0  0  0  0  0  0
   -2.6530    1.7490   -3.1430 O   0  0  0  0  0  0  0  0  0  0  0  0
   -1.1400    1.4630   -1.3250 N   0  0  0  0  0  0  0  0  0  0  0  0
   -0.2450    2.2790   -0.6420 C   0  0  1  0  0  0  0  0  0  0  0  0
    0.5820    2.6760   -1.9250 C   0  0  0  0  0  0  0  0  0  0  0  0
    0.7300    1.3600   -2.7390 C   0  0  0  0  0  0  0  0  0  0  0  0
   -1.1430    3.3570   -0.0750 C   0  0  0  0  0  0  0  0  0  0  0  0
    0.7830    2.0740    0.3300 C   0  0  0  0  0  0  0  0  0  0  0  0
    1.3630    3.3220    0.2950 O   0  0  0  0  0  0  0  0  0  0  0  0
    1.3360    1.2450    1.1620 O   0  0  0  0  0  0  0  0  0  0  0  0
    1.3770   -2.6760   -0.1180 O   0  0  0  0  0  0  0  0  0  0  0  0
  2  1  1  6
  2  3  1  0
  2 37  1  0
  3  4  1  0
  5  4  1  6
  5  6  1  0
  5 36  1  0
  6  7  1  0
  7  8  1  0
  9  8  1  6
  9 10  1  0
  9 13  1  0
 10 11  1  0
 11 12  2  0
 11 32  1  0
 12 13  1  0
 12 14  1  0
 14 15  1  6
 14 37  1  0
 15 16  1  0
 16 17  1  6
 16 18  1  0
 18 19  1  1
 18 22  1  0
 19 20  1  0
 20 21  1  0
 21 22  1  0
 22 23  1  6
 22 24  1  0
 25 24  1  6
 25 26  1  0
 25 33  1  0
 26 27  1  0
 27 28  2  0
 27 29  1  0
 30 29  1  6
 30 31  1  0
 30 33  1  0
 30 34  1  0
 31 32  1  0
 34 35  2  0
 34 36  1  0
M  END
