
     RDKit          3D

 37 40  0  0  0  0  0  0  0  0999 V2000
    7.4470    2.7750    1.0700 C   0  0  0  0  0  0  0  0  0  0  0  0
    6.4420    2.4950    0.0120 C   0  0  0  0  0  0  0  0  0  0  0  0
    5.5190    1.5710    0.1210 C   0  0  0  0  0  0  0  0  0  0  0  0
    4.5810    1.3720   -0.9690 C   0  0  0  0  0  0  0  0  0  0  0  0
    4.7290    0.2690   -1.6530 C   0  0  0  0  0  0  0  0  0  0  0  0
    4.3770   -0.9310   -1.2720 C   0  0  0  0  0  0  0  0  0  0  0  0
    3.4180   -1.8470   -1.8230 C   0  0  0  0  0  0  0  0  0  0  0  0
    2.4730   -2.5920   -0.8540 C   0  0  0  0  0  0  0  0  0  0  0  0
    1.1660   -1.9330   -0.9400 C   0  0  2  0  0  0  0  0  0  0  0  0
    1.4010   -0.5380   -0.4030 C   0  0  0  0  0  0  0  0  0  0  0  0
    1.8860   -0.4160    0.9490 C   0  0  0  0  0  0  0  0  0  0  0  0
    2.0950    0.9870    1.3990 C   0  0  0  0  0  0  0  0  0  0  0  0
    1.6570    2.0420    0.4430 C   0  0  1  0  0  0  0  0  0  0  0  0
    0.3890    2.6720    1.0050 C   0  0  0  0  0  0  0  0  0  0  0  0
   -0.6830    1.5890    0.8930 C   0  0  0  0  0  0  0  0  0  0  0  0
   -0.9100    0.5580    1.6510 C   0  0  0  0  0  0  0  0  0  0  0  0
   -2.0080   -0.4890    1.4300 C   0  0  0  0  0  0  0  0  0  0  0  0
   -1.4860   -1.8810    1.6240 C   0  0  1  0  0  0  0  0  0  0  0  0
   -2.6570   -2.5940    2.0350 O   0  0  0  0  0  0  0  0  0  0  0  0
   -2.7080   -2.8390    3.3750 C   0  0  0  0  0  0  0  0  0  0  0  0
   -0.6450   -2.6390    0.7660 C   0  0  0  0  0  0  0  0  0  0  0  0
   -0.1450   -2.5170   -0.5810 C   0  0  1  0  0  0  0  0  0  0  0  0
   -1.1720   -2.0920   -1.6530 C   0  0  0  0  0  0  0  0  0  0  0  0
   -2.5210   -2.5780   -1.4890 C   0  0  0  0  0  0  0  0  0  0  0  0
   -2.6590   -3.6710   -0.8550 O   0  0  0  0  0  0  0  0  0  0  0  0
   -3.6990   -1.9670   -1.9610 N   0  0  0  0  0  0  0  0  0  0  0  0
   -4.2290   -0.6680   -1.7590 C   0  0  1  0  0  0  0  0  0  0  0  0
   -5.0600   -0.6570   -0.4750 C   0  0  0  0  0  0  0  0  0  0  0  0
   -5.1130    0.8050   -0.1910 C   0  0  2  0  0  0  0  0  0  0  0  0
   -6.4480    1.4270   -0.5410 C   0  0  0  0  0  0  0  0  0  0  0  0
   -3.9770    1.3940   -0.9970 C   0  0  1  0  0  0  0  0  0  0  0  0
   -3.0300    2.0200    0.0040 C   0  0  0  0  0  0  0  0  0  0  0  0
   -1.5980    1.8230   -0.3050 C   0  0  0  0  0  0  0  0  0  0  0  0
   -3.4360    0.4210   -1.7830 O   0  0  0  0  0  0  0  0  0  0  0  0
    2.7670    2.8380    0.0080 C   0  0  0  0  0  0  0  0  0  0  0  0
    3.0780    3.8640    0.6020 O   0  0  0  0  0  0  0  0  0  0  0  0
    3.5870    2.4320   -1.2010 C   0  0  0  0  0  0  0  0  0  0  0  0
  1  2  1  0
  2  3  2  3
  3  4  1  0
  4  5  2  0
  4 37  1  0
  5  6  2  0
  6  7  1  0
  7  8  1  0
  9  8  1  1
  9 10  1  0
  9 22  1  0
 10 11  1  0
 11 12  1  0
 12 13  1  0
 13 14  1  1
 13 35  1  0
 14 15  1  0
 15 16  2  0
 15 33  1  0
 16 17  1  0
 17 18  1  0
 18 19  1  6
 18 21  1  0
 19 20  1  0
 21 22  1  0
 22 23  1  6
 23 24  1  0
 24 25  2  0
 24 26  1  0
 26 27  1  0
 27 28  1  1
 27 34  1  0
 28 29  1  0
 29 30  1  6
 29 31  1  0
 31 32  1  1
 31 34  1  0
 32 33  1  0
 35 36  2  0
 35 37  1  0
M  END
