
     RDKit          3D

 37 41  0  0  0  0  0  0  0  0999 V2000
    1.0930   -5.3250    2.8760 C   0  0  0  0  0  0  0  0  0  0  0  0
    1.5920   -4.2250    2.0190 C   0  0  0  0  0  0  0  0  0  0  0  0
    1.5700   -2.9810    2.0200 C   0  0  0  0  0  0  0  0  0  0  0  0
    2.1860   -2.2570    0.9620 C   0  0  0  0  0  0  0  0  0  0  0  0
    2.6530   -1.6910    0.1210 C   0  0  0  0  0  0  0  0  0  0  0  0
    3.2340   -0.9740   -0.9480 C   0  0  0  0  0  0  0  0  0  0  0  0
    2.6710    0.4840   -0.7510 C   0  0  1  0  0  0  0  0  0  0  0  0
    3.7210    1.2580   -1.5030 C   0  0  0  0  0  0  0  0  0  0  0  0
    3.6950    2.7060   -1.5760 C   0  0  1  0  0  0  0  0  0  0  0  0
    2.5230    3.4170   -2.1670 C   0  0  0  0  0  0  0  0  0  0  0  0
    4.2170    3.4100   -0.3320 C   0  0  0  0  0  0  0  0  0  0  0  0
    1.3730    0.6100   -1.4550 C   0  0  0  0  0  0  0  0  0  0  0  0
    0.3670   -0.4540   -1.5040 C   0  0  2  0  0  0  0  0  0  0  0  0
   -0.3160   -0.2960   -2.8820 C   0  0  0  0  0  0  0  0  0  0  0  0
   -1.7160    0.0560   -2.6890 C   0  0  0  0  0  0  0  0  0  0  0  0
   -1.8330    0.3830   -1.1940 C   0  0  1  0  0  0  0  0  0  0  0  0
   -2.1430    1.7470   -1.0170 C   0  0  2  0  0  0  0  0  0  0  0  0
   -1.3790    2.8980   -1.5680 C   0  0  0  0  0  0  0  0  0  0  0  0
   -2.4340    4.0070   -1.2600 C   0  0  0  0  0  0  0  0  0  0  0  0
   -2.7430    3.5720    0.1620 C   0  0  0  0  0  0  0  0  0  0  0  0
   -2.5160    2.2110    0.2510 O   0  0  0  0  0  0  0  0  0  0  0  0
   -3.1570   -0.3650   -0.8290 C   0  0  2  0  0  0  0  0  0  0  0  0
   -4.2570   -0.0450   -1.8280 C   0  0  0  0  0  0  0  0  0  0  0  0
   -3.6860    0.0090    0.5160 C   0  0  0  0  0  0  0  0  0  0  0  0
   -2.8050   -1.6600   -0.8380 O   0  0  0  0  0  0  0  0  0  0  0  0
   -1.4620   -1.7520   -0.3760 C   0  0  1  0  0  0  0  0  0  0  0  0
   -1.7090   -2.3170    0.9950 C   0  0  0  0  0  0  0  0  0  0  0  0
   -0.9320   -2.9110   -1.1830 C   0  0  0  0  0  0  0  0  0  0  0  0
   -0.8000   -0.4460   -0.4930 C   0  0  1  0  0  0  0  0  0  0  0  0
   -0.2600    0.1820    0.6810 N   0  0  0  0  0  0  0  0  0  0  0  0
    0.0490    0.0030    2.0070 C   0  0  0  0  0  0  0  0  0  0  0  0
   -0.7510    0.7550    2.7580 O   0  0  0  0  0  0  0  0  0  0  0  0
    0.9490   -0.7130    2.8680 C   0  0  1  0  0  0  0  0  0  0  0  0
    0.6460   -0.3910    4.3630 C   0  0  0  0  0  0  0  0  0  0  0  0
   -0.3080   -1.5270    4.6930 C   0  0  0  0  0  0  0  0  0  0  0  0
   -0.1260   -2.5120    3.7020 O   0  0  0  0  0  0  0  0  0  0  0  0
    1.0280   -2.1550    3.0680 C   0  0  1  0  0  0  0  0  0  0  0  0
  1  2  1  0
  2  3  2  3
  3  4  1  0
  3 37  1  0
  4  5  3  0
  5  6  1  0
  6  7  1  0
  7  8  1  6
  7 12  1  0
  8  9  1  0
  9 10  1  1
  9 11  1  0
 13 12  1  1
 13 14  1  0
 13 29  1  0
 14 15  1  0
 16 15  1  6
 16 17  1  0
 16 22  1  0
 16 29  1  0
 17 18  1  1
 17 21  1  0
 18 19  1  0
 19 20  1  0
 20 21  1  0
 22 23  1  6
 22 24  1  0
 22 25  1  0
 25 26  1  0
 26 27  1  1
 26 28  1  0
 26 29  1  0
 29 30  1  1
 30 31  1  0
 31 32  2  0
 31 33  1  0
 33 34  1  1
 33 37  1  0
 34 35  1  0
 35 36  1  0
 37 36  1  6
M  END
