
     RDKit          3D

 37 41  0  0  0  0  0  0  0  0999 V2000
    5.2450   -0.3480   -1.8640 C   0  0  0  0  0  0  0  0  0  0  0  0
    4.2560   -0.2760   -0.7640 C   0  0  0  0  0  0  0  0  0  0  0  0
    3.6000    0.8810   -0.4320 C   0  0  0  0  0  0  0  0  0  0  0  0
    2.6510    0.9840    0.6100 C   0  0  0  0  0  0  0  0  0  0  0  0
    2.3420   -0.1380    1.3630 C   0  0  0  0  0  0  0  0  0  0  0  0
    2.9750   -1.3130    1.0610 C   0  0  0  0  0  0  0  0  0  0  0  0
    3.9170   -1.3530    0.0060 C   0  0  0  0  0  0  0  0  0  0  0  0
    2.8580   -2.6640    1.6900 C   0  0  2  0  0  0  0  0  0  0  0  0
    3.7770   -2.8000    2.9050 C   0  0  0  0  0  0  0  0  0  0  0  0
    3.3640   -3.7030    0.7600 N   0  0  0  0  0  0  0  0  0  0  0  0
    2.6890   -3.9940   -0.4620 C   0  0  0  0  0  0  0  0  0  0  0  0
    3.2420   -4.8140   -1.2400 O   0  0  0  0  0  0  0  0  0  0  0  0
    1.4010   -3.4180   -0.8900 C   0  0  0  0  0  0  0  0  0  0  0  0
    0.4820   -3.2760    0.1490 O   0  0  0  0  0  0  0  0  0  0  0  0
   -0.6880   -3.9480    0.3280 C   0  0  0  0  0  0  0  0  0  0  0  0
   -0.9410   -4.7310    1.3130 O   0  0  0  0  0  0  0  0  0  0  0  0
   -1.8110   -3.8250   -0.6400 C   0  0  1  0  0  0  0  0  0  0  0  0
   -3.1500   -4.1610   -0.0840 C   0  0  0  0  0  0  0  0  0  0  0  0
   -3.8610   -3.0000    0.5440 C   0  0  0  0  0  0  0  0  0  0  0  0
   -2.8400   -1.9360    0.7980 C   0  0  2  0  0  0  0  0  0  0  0  0
   -3.4120   -0.6720    1.3830 C   0  0  0  0  0  0  0  0  0  0  0  0
   -2.4420    0.3100    0.7510 C   0  0  1  0  0  0  0  0  0  0  0  0
   -2.5980   -0.1850   -0.6860 C   0  0  0  0  0  0  0  0  0  0  0  0
   -2.3750   -1.4600   -0.5620 C   0  0  0  0  0  0  0  0  0  0  0  0
   -1.7870   -2.4970   -1.3970 C   0  0  0  0  0  0  0  0  0  0  0  0
   -2.8090    1.7230    0.9470 C   0  0  0  0  0  0  0  0  0  0  0  0
   -2.1240    2.5730   -0.1010 C   0  0  1  0  0  0  0  0  0  0  0  0
   -3.2350    3.2390   -0.9220 C   0  0  0  0  0  0  0  0  0  0  0  0
   -1.1930    3.5900    0.5030 C   0  0  2  0  0  0  0  0  0  0  0  0
   -1.8840    4.9050    0.5050 C   0  0  0  0  0  0  0  0  0  0  0  0
   -1.7030    5.7460   -0.4840 C   0  0  0  0  0  0  0  0  0  0  0  0
   -0.8550    5.5500   -1.6710 C   0  0  0  0  0  0  0  0  0  0  0  0
   -0.0660    4.2800   -1.6320 C   0  0  0  0  0  0  0  0  0  0  0  0
    0.1040    3.7450   -0.2270 C   0  0  2  0  0  0  0  0  0  0  0  0
    0.9560    2.5560   -0.2640 C   0  0  0  0  0  0  0  0  0  0  0  0
    0.7560    1.6570   -1.0520 O   0  0  0  0  0  0  0  0  0  0  0  0
    2.1320    2.3680    0.6670 C   0  0  0  0  0  0  0  0  0  0  0  0
  1  2  1  0
  2  3  2  0
  2  7  1  0
  3  4  1  0
  4  5  2  0
  4 37  1  0
  5  6  1  0
  6  7  2  0
  6  8  1  0
  8  9  1  1
  8 10  1  0
 10 11  1  0
 11 12  2  0
 11 13  1  0
 13 14  1  0
 14 15  1  0
 15 16  2  0
 15 17  1  0
 17 18  1  1
 17 25  1  0
 18 19  1  0
 20 19  1  6
 20 21  1  0
 20 24  1  0
 22 21  1  1
 22 23  1  0
 22 26  1  0
 23 24  2  0
 24 25  1  0
 26 27  1  0
 27 28  1  1
 27 29  1  0
 29 30  1  6
 29 34  1  0
 30 31  2  0
 31 32  1  0
 32 33  1  0
 34 33  1  6
 34 35  1  0
 35 36  2  0
 35 37  1  0
M  END
