
     RDKit          3D

 37 42  0  0  0  0  0  0  0  0999 V2000
    1.3230    3.6310    2.2380 C   0  0  0  0  0  0  0  0  0  0  0  0
    0.0700    3.3430    1.3920 C   0  0  0  0  0  0  0  0  0  0  0  0
    0.3480    2.1880    0.4320 C   0  0  2  0  0  0  0  0  0  0  0  0
    1.4800    2.5390   -0.4620 C   0  0  0  0  0  0  0  0  0  0  0  0
    1.2070    2.6800   -1.6990 O   0  0  0  0  0  0  0  0  0  0  0  0
    2.8480    2.7390   -0.0720 C   0  0  0  0  0  0  0  0  0  0  0  0
    3.6830    1.9060    0.5080 C   0  0  0  0  0  0  0  0  0  0  0  0
    3.4200    0.5140    0.9150 C   0  0  2  0  0  0  0  0  0  0  0  0
    4.7020   -0.1730    1.3300 C   0  0  0  0  0  0  0  0  0  0  0  0
    4.5990   -1.6540    1.4380 C   0  0  0  0  0  0  0  0  0  0  0  0
    3.6490   -2.3040    0.4670 C   0  0  0  0  0  0  0  0  0  0  0  0
    3.4900   -1.4100   -0.7210 C   0  0  1  0  0  0  0  0  0  0  0  0
    4.7890   -1.1220   -1.3930 C   0  0  0  0  0  0  0  0  0  0  0  0
    2.5560   -2.0140   -1.7840 C   0  0  0  0  0  0  0  0  0  0  0  0
    1.2520   -1.7170   -1.5280 O   0  0  0  0  0  0  0  0  0  0  0  0
    0.6780   -0.7940   -2.4430 C   0  0  0  0  0  0  0  0  0  0  0  0
   -0.4020   -0.0580   -1.7900 C   0  0  0  0  0  0  0  0  0  0  0  0
   -0.6750    1.2160   -1.6610 C   0  0  0  0  0  0  0  0  0  0  0  0
   -0.8780    1.6910   -0.2350 C   0  0  2  0  0  0  0  0  0  0  0  0
   -1.8920    2.7970   -0.2100 C   0  0  0  0  0  0  0  0  0  0  0  0
   -2.0190    3.7270   -1.0650 O   0  0  0  0  0  0  0  0  0  0  0  0
   -2.6870    2.5940    0.9710 N   0  0  0  0  0  0  0  0  0  0  0  0
   -2.2850    1.3810    1.5960 C   0  0  0  0  0  0  0  0  0  0  0  0
   -2.5150    1.1290    2.7930 O   0  0  0  0  0  0  0  0  0  0  0  0
   -1.6140    0.6270    0.5580 C   0  0  1  0  0  0  0  0  0  0  0  0
   -2.4480   -0.3120   -0.2600 C   0  0  2  0  0  0  0  0  0  0  0  0
   -3.3530    0.2910   -1.2740 C   0  0  0  0  0  0  0  0  0  0  0  0
   -4.7600    0.5910   -0.9160 C   0  0  0  0  0  0  0  0  0  0  0  0
   -5.4410   -0.4360   -0.0690 C   0  0  0  0  0  0  0  0  0  0  0  0
   -4.5470   -0.9840    1.0070 C   0  0  0  0  0  0  0  0  0  0  0  0
   -3.1470   -1.3030    0.5620 C   0  0  1  0  0  0  0  0  0  0  0  0
   -3.1210   -2.7150    0.1940 C   0  0  0  0  0  0  0  0  0  0  0  0
   -4.0540   -3.6840    0.8470 C   0  0  0  0  0  0  0  0  0  0  0  0
   -2.3040   -3.1960   -0.6950 C   0  0  0  0  0  0  0  0  0  0  0  0
   -1.3950   -2.2810   -1.3520 C   0  0  0  0  0  0  0  0  0  0  0  0
   -1.3770   -0.9980   -1.1090 C   0  0  0  0  0  0  0  0  0  0  0  0
    2.7540   -0.1790   -0.2380 C   0  0  0  0  0  0  0  0  0  0  0  0
  1  2  1  0
  3  2  1  6
  3  4  1  0
  3 19  1  0
  4  5  2  0
  4  6  1  0
  6  7  2  0
  7  8  1  0
  8  9  1  6
  8 37  1  0
  9 10  1  0
 10 11  1  0
 11 12  1  0
 12 13  1  6
 12 14  1  0
 12 37  1  0
 14 15  1  0
 15 16  1  0
 16 17  1  0
 17 18  2  0
 17 36  1  0
 18 19  1  0
 19 20  1  6
 19 25  1  0
 20 21  2  0
 20 22  1  0
 22 23  1  0
 23 24  2  0
 25 23  1  1
 25 26  1  0
 26 27  1  6
 26 31  1  0
 26 36  1  0
 27 28  1  0
 28 29  1  0
 29 30  1  0
 31 30  1  6
 31 32  1  0
 32 33  1  0
 32 34  2  0
 34 35  1  0
 35 36  2  0
M  END
