
     RDKit          3D

 37 39  0  0  0  0  0  0  0  0999 V2000
   -3.7850   -2.3310    0.9290 C   0  0  0  0  0  0  0  0  0  0  0  0
   -3.2550   -3.0170   -0.2280 C   0  0  0  0  0  0  0  0  0  0  0  0
   -3.2750   -4.4130   -0.2120 C   0  0  0  0  0  0  0  0  0  0  0  0
   -3.7130   -5.0970    0.9000 O   0  0  0  0  0  0  0  0  0  0  0  0
   -2.8610   -5.1820   -1.2870 C   0  0  0  0  0  0  0  0  0  0  0  0
   -2.4150   -4.5240   -2.4090 C   0  0  0  0  0  0  0  0  0  0  0  0
   -2.3790   -3.1560   -2.4610 C   0  0  0  0  0  0  0  0  0  0  0  0
   -2.8070   -2.3850   -1.3470 C   0  0  0  0  0  0  0  0  0  0  0  0
   -2.6810   -0.9590   -1.4200 C   0  0  0  0  0  0  0  0  0  0  0  0
   -2.8490   -0.3210   -2.5270 O   0  0  0  0  0  0  0  0  0  0  0  0
   -2.3630   -0.1480   -0.3150 N   0  0  0  0  0  0  0  0  0  0  0  0
   -2.2500    1.3120   -0.4010 C   0  0  1  0  0  0  0  0  0  0  0  0
   -3.3050    2.0470    0.3510 C   0  0  0  0  0  0  0  0  0  0  0  0
   -3.1830    3.5100    0.2100 C   0  0  0  0  0  0  0  0  0  0  0  0
   -3.8330    4.0980   -0.8890 C   0  0  0  0  0  0  0  0  0  0  0  0
   -3.8010    5.4490   -1.1260 C   0  0  0  0  0  0  0  0  0  0  0  0
   -3.1100    6.2590   -0.2590 C   0  0  0  0  0  0  0  0  0  0  0  0
   -2.4740    5.6900    0.8140 C   0  0  0  0  0  0  0  0  0  0  0  0
   -2.5070    4.3140    1.0550 C   0  0  0  0  0  0  0  0  0  0  0  0
   -0.8400    1.7600   -0.1580 C   0  0  2  0  0  0  0  0  0  0  0  0
   -0.0180    1.2570   -1.1560 O   0  0  0  0  0  0  0  0  0  0  0  0
   -0.3130    1.3510    1.1500 C   0  0  0  0  0  0  0  0  0  0  0  0
   -1.1380    1.4050    2.1230 O   0  0  0  0  0  0  0  0  0  0  0  0
    1.0020    0.9060    1.4540 N   0  0  0  0  0  0  0  0  0  0  0  0
    1.3180    0.4960    2.8460 C   0  0  0  0  0  0  0  0  0  0  0  0
    3.0000    1.1510    3.0070 S   0  0  0  0  0  0  0  0  0  0  0  0
    3.2450    1.6430    1.2770 C   0  0  1  0  0  0  0  0  0  0  0  0
    2.8010    3.0740    1.1210 C   0  0  0  0  0  0  0  0  0  0  0  0
    4.6230    1.3880    0.7970 C   0  0  0  0  0  0  0  0  0  0  0  0
    2.1700    0.7880    0.6210 C   0  0  1  0  0  0  0  0  0  0  0  0
    2.5750   -0.6070    0.3910 C   0  0  0  0  0  0  0  0  0  0  0  0
    1.9880   -1.5000    1.0490 O   0  0  0  0  0  0  0  0  0  0  0  0
    3.5660   -1.0350   -0.5080 N   0  0  0  0  0  0  0  0  0  0  0  0
    3.9410   -2.4210   -0.6990 C   0  0  1  0  0  0  0  0  0  0  0  0
    5.0170   -2.5780   -1.7380 C   0  0  0  0  0  0  0  0  0  0  0  0
    4.5640   -2.9010    0.6170 C   0  0  0  0  0  0  0  0  0  0  0  0
    2.8070   -3.3290   -1.0220 C   0  0  0  0  0  0  0  0  0  0  0  0
  1  2  1  0
  2  3  2  0
  2  8  1  0
  3  4  1  0
  3  5  1  0
  5  6  2  0
  6  7  1  0
  7  8  2  0
  8  9  1  0
  9 10  2  0
  9 11  1  0
 11 12  1  0
 12 13  1  1
 12 20  1  0
 13 14  1  0
 14 15  2  0
 14 19  1  0
 15 16  1  0
 16 17  2  0
 17 18  1  0
 18 19  2  0
 20 21  1  6
 20 22  1  0
 22 23  2  0
 22 24  1  0
 24 25  1  0
 24 30  1  0
 25 26  1  0
 26 27  1  0
 27 28  1  1
 27 29  1  0
 27 30  1  0
 30 31  1  1
 31 32  2  0
 31 33  1  0
 33 34  1  0
 34 35  1  6
 34 36  1  0
 34 37  1  0
M  END
