
     RDKit          3D

 37 42  0  0  0  0  0  0  0  0999 V2000
    0.9940   -2.2380   -2.9460 C   0  0  0  0  0  0  0  0  0  0  0  0
    1.9370   -1.9580   -1.7610 C   0  0  1  0  0  0  0  0  0  0  0  0
    3.0830   -1.1430   -2.3260 C   0  0  0  0  0  0  0  0  0  0  0  0
    2.8770    0.3150   -2.3150 C   0  0  0  0  0  0  0  0  0  0  0  0
    3.1260    1.0210   -1.0030 C   0  0  1  0  0  0  0  0  0  0  0  0
    4.5410    0.8740   -0.5040 C   0  0  0  0  0  0  0  0  0  0  0  0
    4.6130    0.5280    0.9940 C   0  0  0  0  0  0  0  0  0  0  0  0
    4.1300   -0.8210    1.3400 C   0  0  0  0  0  0  0  0  0  0  0  0
    3.2770   -1.0100    2.5380 C   0  0  1  0  0  0  0  0  0  0  0  0
    2.3860    0.0600    2.9620 C   0  0  0  0  0  0  0  0  0  0  0  0
    1.2000   -0.0850    2.0350 C   0  0  0  0  0  0  0  0  0  0  0  0
    1.2020   -1.1960    1.4200 C   0  0  0  0  0  0  0  0  0  0  0  0
    2.1570   -2.0610    2.2630 C   0  0  0  0  0  0  0  0  0  0  0  0
    0.6830   -1.8210    0.2430 C   0  0  1  0  0  0  0  0  0  0  0  0
   -0.6980   -1.9440   -0.1330 C   0  0  0  0  0  0  0  0  0  0  0  0
   -1.8650   -1.7540    0.7390 C   0  0  2  0  0  0  0  0  0  0  0  0
   -2.1710   -3.1490    1.3460 C   0  0  0  0  0  0  0  0  0  0  0  0
   -3.0420   -1.3650   -0.0590 C   0  0  1  0  0  0  0  0  0  0  0  0
   -4.2750   -1.9740    0.6330 C   0  0  0  0  0  0  0  0  0  0  0  0
   -5.3090   -1.4890   -0.4010 C   0  0  0  0  0  0  0  0  0  0  0  0
   -4.9150   -0.0700   -0.4960 C   0  0  0  0  0  0  0  0  0  0  0  0
   -3.3550    0.0010   -0.4680 C   0  0  2  0  0  0  0  0  0  0  0  0
   -3.0750    0.1680   -1.9680 C   0  0  0  0  0  0  0  0  0  0  0  0
   -3.0550    1.1620    0.3510 C   0  0  0  0  0  0  0  0  0  0  0  0
   -2.0480    2.1760    0.1120 C   0  0  2  0  0  0  0  0  0  0  0  0
   -2.5660    3.4200   -0.6620 C   0  0  0  0  0  0  0  0  0  0  0  0
   -1.4340    4.3970   -0.4830 C   0  0  0  0  0  0  0  0  0  0  0  0
   -1.5740    5.5350   -0.9860 O   0  0  0  0  0  0  0  0  0  0  0  0
   -0.2570    4.0980    0.2080 N   0  0  0  0  0  0  0  0  0  0  0  0
    0.4150    2.7780    0.1270 C   0  0  1  0  0  0  0  0  0  0  0  0
    0.9450    2.3560    1.4500 C   0  0  0  0  0  0  0  0  0  0  0  0
    0.3480    1.1100    2.0530 C   0  0  0  0  0  0  0  0  0  0  0  0
   -0.7160    1.8970   -0.4250 C   0  0  0  0  0  0  0  0  0  0  0  0
    1.4270    2.8670   -0.9590 C   0  0  0  0  0  0  0  0  0  0  0  0
    0.9880    3.5510   -1.9690 O   0  0  0  0  0  0  0  0  0  0  0  0
    2.6720    2.3660   -1.0430 O   0  0  0  0  0  0  0  0  0  0  0  0
    1.2850   -1.2090   -0.8900 O   0  0  0  0  0  0  0  0  0  0  0  0
  2  1  1  6
  2  3  1  0
  2 37  1  0
  3  4  1  0
  5  4  1  6
  5  6  1  0
  5 36  1  0
  6  7  1  0
  7  8  1  0
  9  8  1  6
  9 10  1  0
  9 13  1  0
 10 11  1  0
 11 12  2  0
 11 32  1  0
 12 13  1  0
 12 14  1  0
 14 15  1  6
 14 37  1  0
 15 16  1  0
 16 17  1  6
 16 18  1  0
 18 19  1  1
 18 22  1  0
 19 20  1  0
 20 21  1  0
 21 22  1  0
 22 23  1  6
 22 24  1  0
 25 24  1  6
 25 26  1  0
 25 33  1  0
 26 27  1  0
 27 28  2  0
 27 29  1  0
 30 29  1  1
 30 31  1  0
 30 33  1  0
 30 34  1  0
 31 32  1  0
 34 35  2  0
 34 36  1  0
M  END
