
     RDKit          3D

 37 40  0  0  0  0  0  0  0  0999 V2000
    6.0170   -2.0830   -0.9840 C   0  0  0  0  0  0  0  0  0  0  0  0
    4.8750   -2.9650   -1.3480 C   0  0  0  0  0  0  0  0  0  0  0  0
    3.6280   -2.6160   -1.0960 C   0  0  0  0  0  0  0  0  0  0  0  0
    3.3870   -1.2900   -0.4230 C   0  0  0  0  0  0  0  0  0  0  0  0
    3.3940   -0.3790   -1.3120 C   0  0  0  0  0  0  0  0  0  0  0  0
    3.7040    0.8670   -1.2410 C   0  0  0  0  0  0  0  0  0  0  0  0
    3.1010    2.0060   -1.9360 C   0  0  0  0  0  0  0  0  0  0  0  0
    1.6710    2.2420   -1.9680 C   0  0  0  0  0  0  0  0  0  0  0  0
    0.9820    2.9970   -0.8680 C   0  0  2  0  0  0  0  0  0  0  0  0
    1.7000    3.0350    0.4250 C   0  0  0  0  0  0  0  0  0  0  0  0
    1.2660    2.1810    1.5860 C   0  0  0  0  0  0  0  0  0  0  0  0
    1.5500    0.7930    1.3670 C   0  0  0  0  0  0  0  0  0  0  0  0
    0.8830   -0.3770    2.0080 C   0  0  1  0  0  0  0  0  0  0  0  0
   -0.3600   -0.7760    1.2460 C   0  0  0  0  0  0  0  0  0  0  0  0
   -1.7100   -0.6580    1.9220 C   0  0  0  0  0  0  0  0  0  0  0  0
   -2.6070    0.2830    1.7880 C   0  0  0  0  0  0  0  0  0  0  0  0
   -2.3570    1.4020    0.8460 C   0  0  0  0  0  0  0  0  0  0  0  0
   -2.2380    2.7930    1.0410 C   0  0  1  0  0  0  0  0  0  0  0  0
   -2.0300    3.2640    2.3170 O   0  0  0  0  0  0  0  0  0  0  0  0
   -3.0350    4.1130    2.7580 C   0  0  0  0  0  0  0  0  0  0  0  0
   -1.2330    3.4960    0.1090 C   0  0  0  0  0  0  0  0  0  0  0  0
   -0.4550    2.4510   -0.7160 C   0  0  1  0  0  0  0  0  0  0  0  0
   -1.2040    2.1640   -1.9340 C   0  0  0  0  0  0  0  0  0  0  0  0
   -1.2370    0.8290   -2.5580 C   0  0  0  0  0  0  0  0  0  0  0  0
   -1.0040    0.8860   -3.8540 O   0  0  0  0  0  0  0  0  0  0  0  0
   -1.4540   -0.4500   -2.0960 N   0  0  0  0  0  0  0  0  0  0  0  0
   -2.5110   -1.2330   -1.5150 C   0  0  1  0  0  0  0  0  0  0  0  0
   -2.5100   -2.6440   -2.0560 C   0  0  0  0  0  0  0  0  0  0  0  0
   -2.4900   -3.5560   -0.8580 C   0  0  2  0  0  0  0  0  0  0  0  0
   -3.5070   -4.6720   -0.9680 C   0  0  0  0  0  0  0  0  0  0  0  0
   -2.9470   -2.5900    0.2660 C   0  0  1  0  0  0  0  0  0  0  0  0
   -2.3050   -3.0350    1.5290 C   0  0  0  0  0  0  0  0  0  0  0  0
   -2.0010   -1.9670    2.5990 C   0  0  0  0  0  0  0  0  0  0  0  0
   -2.5750   -1.3920   -0.1820 O   0  0  0  0  0  0  0  0  0  0  0  0
    1.9130   -1.4690    1.6200 C   0  0  0  0  0  0  0  0  0  0  0  0
    1.4770   -2.6020    1.8990 O   0  0  0  0  0  0  0  0  0  0  0  0
    3.2090   -1.3310    1.0210 C   0  0  0  0  0  0  0  0  0  0  0  0
  1  2  1  0
  2  3  2  3
  3  4  1  0
  4  5  2  0
  4 37  1  0
  5  6  2  0
  6  7  1  0
  7  8  1  0
  9  8  1  6
  9 10  1  0
  9 22  1  0
 10 11  1  0
 11 12  1  0
 12 13  1  0
 13 14  1  6
 13 35  1  0
 14 15  1  0
 15 16  2  0
 15 33  1  0
 16 17  1  0
 17 18  1  0
 18 19  1  1
 18 21  1  0
 19 20  1  0
 21 22  1  0
 22 23  1  6
 23 24  1  0
 24 25  2  0
 24 26  1  0
 26 27  1  0
 27 28  1  6
 27 34  1  0
 28 29  1  0
 29 30  1  6
 29 31  1  0
 31 32  1  1
 31 34  1  0
 32 33  1  0
 35 36  2  0
 35 37  1  0
M  END
