
     RDKit          3D

 37 40  0  0  0  0  0  0  0  0999 V2000
    0.3210    5.2630    0.0830 C   0  0  0  0  0  0  0  0  0  0  0  0
   -1.0040    4.9160    0.1660 O   0  0  0  0  0  0  0  0  0  0  0  0
   -1.2090    3.5080    0.0800 C   0  0  1  0  0  0  0  0  0  0  0  0
   -1.7860    3.0320    1.3500 C   0  0  0  0  0  0  0  0  0  0  0  0
   -1.4390    2.0950    2.1650 C   0  0  0  0  0  0  0  0  0  0  0  0
   -0.3050    1.1310    2.1170 C   0  0  0  0  0  0  0  0  0  0  0  0
   -0.7540   -0.2440    1.5460 C   0  0  1  0  0  0  0  0  0  0  0  0
   -2.1120    0.0480    1.0350 C   0  0  0  0  0  0  0  0  0  0  0  0
    0.3340   -0.7150    0.6790 C   0  0  0  0  0  0  0  0  0  0  0  0
    0.6610    0.0220   -0.5870 C   0  0  1  0  0  0  0  0  0  0  0  0
    2.2140    0.0180   -0.7970 C   0  0  1  0  0  0  0  0  0  0  0  0
    2.5040    0.7500   -1.9180 O   0  0  0  0  0  0  0  0  0  0  0  0
    3.8390    0.6680   -2.2460 C   0  0  0  0  0  0  0  0  0  0  0  0
    4.6150    1.5130   -1.2750 C   0  0  0  0  0  0  0  0  0  0  0  0
    3.7570    1.8010   -0.0710 C   0  0  0  0  0  0  0  0  0  0  0  0
    3.0110    0.4870    0.3400 C   0  0  2  0  0  0  0  0  0  0  0  0
    4.1520   -0.4280    0.7720 C   0  0  1  0  0  0  0  0  0  0  0  0
    4.8500    0.2290    1.9780 C   0  0  0  0  0  0  0  0  0  0  0  0
    3.7450   -1.6740    1.2080 O   0  0  0  0  0  0  0  0  0  0  0  0
    0.0120   -0.6390   -1.7430 C   0  0  2  0  0  0  0  0  0  0  0  0
    0.9270   -0.7030   -2.9940 C   0  0  0  0  0  0  0  0  0  0  0  0
   -1.2700   -0.2810   -2.2130 N   0  0  0  0  0  0  0  0  0  0  0  0
   -2.0460   -1.4280   -2.7450 C   0  0  0  0  0  0  0  0  0  0  0  0
   -3.3830   -1.4690   -2.0840 C   0  0  0  0  0  0  0  0  0  0  0  0
   -3.9020   -2.7960   -1.6940 C   0  0  0  0  0  0  0  0  0  0  0  0
   -3.4170   -3.6540   -0.8150 C   0  0  0  0  0  0  0  0  0  0  0  0
   -2.1890   -3.3860   -0.0380 C   0  0  0  0  0  0  0  0  0  0  0  0
   -2.2480   -3.5650    1.4360 C   0  0  2  0  0  0  0  0  0  0  0  0
   -3.0560   -2.6150    2.1950 C   0  0  0  0  0  0  0  0  0  0  0  0
   -2.4890   -1.5750    2.7890 C   0  0  0  0  0  0  0  0  0  0  0  0
   -1.0140   -1.2540    2.6810 C   0  0  1  0  0  0  0  0  0  0  0  0
   -0.2340   -2.5110    2.6080 C   0  0  0  0  0  0  0  0  0  0  0  0
   -0.8460   -3.6990    1.9720 C   0  0  0  0  0  0  0  0  0  0  0  0
   -1.8950    0.9760   -2.3190 C   0  0  0  0  0  0  0  0  0  0  0  0
   -3.1500    1.0710   -2.6090 O   0  0  0  0  0  0  0  0  0  0  0  0
   -1.2900    2.3230   -2.1360 C   0  0  0  0  0  0  0  0  0  0  0  0
   -2.0100    3.1970   -1.1550 C   0  0  0  0  0  0  0  0  0  0  0  0
  1  2  1  0
  3  2  1  1
  3  4  1  0
  3 37  1  0
  4  5  2  0
  5  6  1  0
  6  7  1  0
  7  8  1  6
  7  9  1  0
  7 31  1  0
 10  9  1  1
 10 11  1  0
 10 20  1  0
 11 12  1  6
 11 16  1  0
 12 13  1  0
 13 14  1  0
 14 15  1  0
 16 15  1  6
 16 17  1  0
 17 18  1  1
 17 19  1  0
 20 21  1  6
 20 22  1  0
 22 23  1  0
 22 34  1  0
 23 24  1  0
 24 25  1  0
 25 26  2  0
 26 27  1  0
 28 27  1  6
 28 29  1  0
 28 33  1  0
 29 30  2  0
 30 31  1  0
 31 32  1  6
 32 33  1  0
 34 35  2  0
 34 36  1  0
 36 37  1  0
M  END
