
     RDKit          3D

 37 41  0  0  0  0  0  0  0  0999 V2000
   -5.6460    1.3150   -2.1030 C   0  0  0  0  0  0  0  0  0  0  0  0
   -4.2660    0.7010   -2.0480 C   0  0  1  0  0  0  0  0  0  0  0  0
   -3.4870    1.1400   -3.2830 C   0  0  0  0  0  0  0  0  0  0  0  0
   -3.5020    1.1980   -0.8510 C   0  0  1  0  0  0  0  0  0  0  0  0
   -4.1920    0.8630    0.4520 C   0  0  0  0  0  0  0  0  0  0  0  0
   -3.5970   -0.4290    0.8930 C   0  0  2  0  0  0  0  0  0  0  0  0
   -3.8310   -0.8310    2.2930 C   0  0  0  0  0  0  0  0  0  0  0  0
   -2.1620   -0.1740    0.5780 N   0  0  0  0  0  0  0  0  0  0  0  0
   -1.0200   -0.3920    1.3830 C   0  0  1  0  0  0  0  0  0  0  0  0
   -0.2110   -1.6280    1.2170 C   0  0  1  0  0  0  0  0  0  0  0  0
   -0.5960   -2.8040    2.1110 C   0  0  0  0  0  0  0  0  0  0  0  0
    0.6770   -3.5970    2.3250 C   0  0  0  0  0  0  0  0  0  0  0  0
    1.8190   -3.1730    1.4330 C   0  0  0  0  0  0  0  0  0  0  0  0
    1.2870   -3.0820    0.0110 C   0  0  1  0  0  0  0  0  0  0  0  0
    0.7180   -4.4260   -0.0860 O   0  0  0  0  0  0  0  0  0  0  0  0
    0.0610   -2.2030   -0.1120 C   0  0  0  0  0  0  0  0  0  0  0  0
    2.2810   -3.0570   -1.0370 C   0  0  0  0  0  0  0  0  0  0  0  0
    2.8840   -1.9320   -1.7330 C   0  0  1  0  0  0  0  0  0  0  0  0
    3.6750   -2.7330   -2.8940 C   0  0  0  0  0  0  0  0  0  0  0  0
    1.9410   -1.1260   -2.6350 C   0  0  0  0  0  0  0  0  0  0  0  0
    3.9530   -1.1360   -1.1330 C   0  0  0  0  0  0  0  0  0  0  0  0
    3.9420   -0.2100   -0.1990 C   0  0  0  0  0  0  0  0  0  0  0  0
    5.1810    0.3690    0.1460 O   0  0  0  0  0  0  0  0  0  0  0  0
    2.8120    0.3250    0.5590 C   0  0  0  0  0  0  0  0  0  0  0  0
    2.5290    1.7850    0.5230 C   0  0  1  0  0  0  0  0  0  0  0  0
    3.4190    2.4130   -0.3100 O   0  0  0  0  0  0  0  0  0  0  0  0
    3.0270    2.7020   -1.5780 C   0  0  0  0  0  0  0  0  0  0  0  0
    1.7970    3.5750   -1.6680 C   0  0  0  0  0  0  0  0  0  0  0  0
    1.1400    3.5740   -0.3100 C   0  0  0  0  0  0  0  0  0  0  0  0
    1.1290    2.0990    0.1330 C   0  0  2  0  0  0  0  0  0  0  0  0
    0.0360    1.9590    1.0970 C   0  0  2  0  0  0  0  0  0  0  0  0
    0.2300    3.1160    2.1050 C   0  0  0  0  0  0  0  0  0  0  0  0
   -0.3280    2.6780    3.4060 C   0  0  0  0  0  0  0  0  0  0  0  0
   -1.0840    1.4300    3.0420 C   0  0  0  0  0  0  0  0  0  0  0  0
   -0.2610    0.8100    1.8760 C   0  0  1  0  0  0  0  0  0  0  0  0
   -2.2640    0.3320   -0.7650 C   0  0  0  0  0  0  0  0  0  0  0  0
   -1.5050    0.1280   -1.7110 O   0  0  0  0  0  0  0  0  0  0  0  0
  2  1  1  6
  2  3  1  0
  2  4  1  0
  4  5  1  1
  4 36  1  0
  5  6  1  0
  6  7  1  1
  6  8  1  0
  9  8  1  6
  8 36  1  0
  9 10  1  0
  9 35  1  0
 10 11  1  1
 10 16  1  0
 11 12  1  0
 12 13  1  0
 13 14  1  0
 14 15  1  6
 14 16  1  0
 14 17  1  0
 17 18  1  0
 18 19  1  6
 18 20  1  0
 18 21  1  0
 21 22  2  0
 22 23  1  0
 22 24  1  0
 25 24  1  6
 25 26  1  0
 25 30  1  0
 26 27  1  0
 27 28  1  0
 28 29  1  0
 30 29  1  1
 30 31  1  0
 31 32  1  1
 31 35  1  0
 32 33  1  0
 33 34  1  0
 35 34  1  1
 36 37  2  0
M  END
