
     RDKit          3D

 37 41  0  0  0  0  0  0  0  0999 V2000
    5.1190   -1.9740    1.3200 C   0  0  0  0  0  0  0  0  0  0  0  0
    4.2620   -0.9850    0.8950 O   0  0  0  0  0  0  0  0  0  0  0  0
    3.3430   -1.4170   -0.0610 C   0  0  2  0  0  0  0  0  0  0  0  0
    3.6470   -0.7440   -1.3510 C   0  0  0  0  0  0  0  0  0  0  0  0
    3.6370    0.7060   -1.4280 C   0  0  0  0  0  0  0  0  0  0  0  0
    2.7310    1.6260   -1.5480 C   0  0  0  0  0  0  0  0  0  0  0  0
    1.2490    1.6210   -1.6630 C   0  0  2  0  0  0  0  0  0  0  0  0
    1.0760    1.6400   -3.1460 C   0  0  0  0  0  0  0  0  0  0  0  0
    0.4810    0.6210   -3.7540 C   0  0  0  0  0  0  0  0  0  0  0  0
   -0.0840   -0.6190   -3.1790 C   0  0  0  0  0  0  0  0  0  0  0  0
    0.7140   -1.3270   -2.3620 O   0  0  0  0  0  0  0  0  0  0  0  0
    0.9210   -2.3640   -1.5840 C   0  0  0  0  0  0  0  0  0  0  0  0
    1.0640   -3.5590   -2.0910 O   0  0  0  0  0  0  0  0  0  0  0  0
    1.0390   -2.4550   -0.0710 C   0  0  2  0  0  0  0  0  0  0  0  0
   -0.2160   -2.6470    0.5920 N   0  0  0  0  0  0  0  0  0  0  0  0
   -1.5400   -2.6690    0.2510 C   0  0  0  0  0  0  0  0  0  0  0  0
   -2.1130   -3.8370    0.2210 O   0  0  0  0  0  0  0  0  0  0  0  0
   -2.5530   -1.5840   -0.1200 C   0  0  2  0  0  0  0  0  0  0  0  0
   -3.7040   -1.8740    0.8730 C   0  0  0  0  0  0  0  0  0  0  0  0
   -4.5160   -2.9780    0.2400 C   0  0  0  0  0  0  0  0  0  0  0  0
   -4.0740   -3.1030   -1.1790 C   0  0  0  0  0  0  0  0  0  0  0  0
   -3.0390   -2.0270   -1.4430 C   0  0  0  0  0  0  0  0  0  0  0  0
   -1.9050   -0.3240    0.0810 C   0  0  0  0  0  0  0  0  0  0  0  0
   -2.2430    1.0580   -0.0120 C   0  0  2  0  0  0  0  0  0  0  0  0
   -3.5730    1.4230    0.7450 C   0  0  0  0  0  0  0  0  0  0  0  0
   -2.5540    1.5970   -1.3560 C   0  0  0  0  0  0  0  0  0  0  0  0
   -1.2290    1.8450    0.6930 C   0  0  0  0  0  0  0  0  0  0  0  0
    0.0150    2.4810    0.4530 C   0  0  2  0  0  0  0  0  0  0  0  0
   -0.5540    4.0030    0.5790 C   0  0  0  0  0  0  0  0  0  0  0  0
    0.6010    2.7000   -0.8830 C   0  0  0  0  0  0  0  0  0  0  0  0
    0.9090    2.5390    1.6370 C   0  0  1  0  0  0  0  0  0  0  0  0
    0.3020    2.2640    2.9850 C   0  0  0  0  0  0  0  0  0  0  0  0
    0.4750    0.7460    3.2160 C   0  0  0  0  0  0  0  0  0  0  0  0
    1.2680    0.3350    2.0380 C   0  0  1  0  0  0  0  0  0  0  0  0
    2.0590    1.5740    1.7960 C   0  0  0  0  0  0  0  0  0  0  0  0
    1.8540   -0.9930    1.9100 C   0  0  0  0  0  0  0  0  0  0  0  0
    1.9330   -1.3670    0.4410 C   0  0  1  0  0  0  0  0  0  0  0  0
  1  2  1  0
  3  2  1  1
  3  4  1  0
  3 37  1  0
  4  5  1  0
  5  6  2  0
  6  7  1  0
  7  8  1  0
  7 30  1  1
  8  9  2  0
  9 10  1  0
 10 11  1  0
 11 12  1  0
 12 13  2  0
 12 14  1  0
 14 15  1  1
 14 37  1  0
 15 16  1  0
 16 17  2  0
 16 18  1  0
 18 19  1  1
 18 22  1  0
 18 23  1  0
 19 20  1  0
 20 21  1  0
 21 22  1  0
 23 24  1  0
 24 25  1  1
 24 26  1  0
 24 27  1  0
 27 28  1  0
 28 29  1  1
 28 30  1  0
 28 31  1  0
 31 32  1  1
 31 35  1  0
 32 33  1  0
 34 33  1  1
 34 35  1  0
 34 36  1  0
 37 36  1  1
M  END
