
     RDKit          3D

 46 50  0  0  0  0  0  0  0  0999 V2000
   -8.7320   -1.3200   -4.0790 C   0  0  0  0  0  0  0  0  0  0  0  0
   -8.3030   -2.7470   -3.8830 C   0  0  0  0  0  0  0  0  0  0  0  0
   -8.3130   -3.0660   -2.5340 O   0  0  0  0  0  0  0  0  0  0  0  0
   -7.5710   -2.4710   -1.5280 C   0  0  0  0  0  0  0  0  0  0  0  0
   -6.6920   -1.4400   -1.7770 C   0  0  0  0  0  0  0  0  0  0  0  0
   -5.9580   -0.8630   -0.7280 C   0  0  0  0  0  0  0  0  0  0  0  0
   -6.0830   -1.2940    0.5710 C   0  0  0  0  0  0  0  0  0  0  0  0
   -5.3360   -0.6800    1.7160 C   0  0  1  0  0  0  0  0  0  0  0  0
   -3.9790   -0.3050    1.2920 C   0  0  0  0  0  0  0  0  0  0  0  0
   -3.0590   -1.0940    0.8810 O   0  0  0  0  0  0  0  0  0  0  0  0
   -3.8210    1.1200    1.4060 N   0  0  0  0  0  0  0  0  0  0  0  0
   -2.6390    1.8950    1.5190 C   0  0  0  0  0  0  0  0  0  0  0  0
   -1.3830    1.3330    1.4480 C   0  0  0  0  0  0  0  0  0  0  0  0
   -0.2340    2.1280    1.5650 C   0  0  0  0  0  0  0  0  0  0  0  0
   -0.2990    3.4890    1.7530 C   0  0  0  0  0  0  0  0  0  0  0  0
    0.9490    4.2950    1.8640 C   0  0  0  0  0  0  0  0  0  0  0  0
    2.0750    3.4290    1.6720 N   0  0  0  0  0  0  0  0  0  0  0  0
    2.7970    2.7240    2.6580 C   0  0  0  0  0  0  0  0  0  0  0  0
    2.6190    2.7040    3.9120 O   0  0  0  0  0  0  0  0  0  0  0  0
    3.8600    1.9660    1.9710 C   0  0  0  0  0  0  0  0  0  0  0  0
    4.8420    1.1230    2.4280 C   0  0  0  0  0  0  0  0  0  0  0  0
    5.7450    0.5150    1.5430 C   0  0  0  0  0  0  0  0  0  0  0  0
    5.6880    0.7350    0.1970 C   0  0  0  0  0  0  0  0  0  0  0  0
    6.5540    0.1790   -0.7480 N   0  0  0  0  0  0  0  0  0  0  0  0
    7.7280   -0.5610   -0.5100 C   0  0  0  0  0  0  0  0  0  0  0  0
    8.1130   -0.7840    0.6400 O   0  0  0  0  0  0  0  0  0  0  0  0
    8.5260   -1.0890   -1.5780 N   0  0  0  0  0  0  0  0  0  0  0  0
    9.7360   -1.8510   -1.3290 C   0  0  0  0  0  0  0  0  0  0  0  0
   10.3740   -2.3040   -2.6210 C   0  0  1  0  0  0  0  0  0  0  0  0
   10.7100   -1.0620   -3.4270 C   0  0  0  0  0  0  0  0  0  0  0  0
   11.6630   -3.0180   -2.2690 C   0  0  0  0  0  0  0  0  0  0  0  0
   11.3310   -4.1020   -1.4580 O   0  0  0  0  0  0  0  0  0  0  0  0
    4.6830    1.5950   -0.2450 C   0  0  0  0  0  0  0  0  0  0  0  0
    3.7840    2.2020    0.6100 C   0  0  0  0  0  0  0  0  0  0  0  0
    2.6650    3.1190    0.4230 C   0  0  0  0  0  0  0  0  0  0  0  0
    2.3090    3.5500   -0.7140 O   0  0  0  0  0  0  0  0  0  0  0  0
   -1.5510    4.0540    1.8250 C   0  0  0  0  0  0  0  0  0  0  0  0
   -2.6750    3.2650    1.7090 C   0  0  0  0  0  0  0  0  0  0  0  0
   -5.1660    1.6390    1.3850 C   0  0  0  0  0  0  0  0  0  0  0  0
   -5.5270    2.7420    0.8890 O   0  0  0  0  0  0  0  0  0  0  0  0
   -6.0020    0.6170    2.0570 C   0  0  2  0  0  0  0  0  0  0  0  0
   -6.0600    0.9270    3.8430 S   0  0  0  0  0  0  0  0  0  0  0  0
   -6.9300    2.4980    4.0870 C   0  0  0  0  0  0  0  0  0  0  0  0
   -6.9660   -2.3300    0.8210 C   0  0  0  0  0  0  0  0  0  0  0  0
   -7.6850   -2.8950   -0.2090 C   0  0  0  0  0  0  0  0  0  0  0  0
   -8.6550   -4.0160    0.0310 C   0  0  0  0  0  0  0  0  0  0  0  0
  1  2  1  0
  2  3  1  0
  3  4  1  0
  4  5  2  0
  4 45  1  0
  5  6  1  0
  6  7  2  0
  8  7  1  6
  7 44  1  0
  8  9  1  0
  8 41  1  0
  9 10  2  0
  9 11  1  0
 11 12  1  0
 11 39  1  0
 12 13  2  0
 12 38  1  0
 13 14  1  0
 14 15  2  0
 15 16  1  0
 15 37  1  0
 16 17  1  0
 17 18  1  0
 17 35  1  0
 18 19  2  0
 18 20  1  0
 20 21  2  0
 20 34  1  0
 21 22  1  0
 22 23  2  0
 23 24  1  0
 23 33  1  0
 24 25  1  0
 25 26  2  0
 25 27  1  0
 27 28  1  0
 28 29  1  0
 29 30  1  6
 29 31  1  0
 31 32  1  0
 33 34  2  0
 34 35  1  0
 35 36  2  0
 37 38  2  0
 39 40  2  0
 39 41  1  0
 41 42  1  1
 42 43  1  0
 44 45  2  0
 45 46  1  0
M  END
