
     RDKit          3D

 46 51  0  0  0  0  0  0  0  0999 V2000
   -3.1560   -3.8600   -0.8540 C   0  0  0  0  0  0  0  0  0  0  0  0
   -3.3400   -2.4050   -0.5070 C   0  0  0  0  0  0  0  0  0  0  0  0
   -2.3580   -1.5640   -0.4820 C   0  0  0  0  0  0  0  0  0  0  0  0
   -0.9660   -1.7430   -0.7330 C   0  0  0  0  0  0  0  0  0  0  0  0
   -0.3290   -0.5720   -0.4250 O   0  0  0  0  0  0  0  0  0  0  0  0
   -0.0110   -2.7020   -1.1780 C   0  0  0  0  0  0  0  0  0  0  0  0
   -0.2180   -3.7830   -1.9940 C   0  0  0  0  0  0  0  0  0  0  0  0
    0.6980   -4.7520   -2.2400 N   0  0  0  0  0  0  0  0  0  0  0  0
    1.8840   -4.7010   -1.6890 C   0  0  0  0  0  0  0  0  0  0  0  0
    2.7760   -5.5830   -1.8840 O   0  0  0  0  0  0  0  0  0  0  0  0
    2.2130   -3.6340   -0.8370 C   0  0  0  0  0  0  0  0  0  0  0  0
    3.4110   -3.5750   -0.2670 O   0  0  0  0  0  0  0  0  0  0  0  0
    4.5260   -3.4250    0.3200 C   0  0  0  0  0  0  0  0  0  0  0  0
    4.5480   -3.2370    1.8480 C   0  0  0  0  0  0  0  0  0  0  0  0
    3.6030   -1.7230    2.2630 S   0  0  0  0  0  0  0  0  0  0  0  0
    4.4790   -0.3400    1.4710 C   0  0  0  0  0  0  0  0  0  0  0  0
    4.2180    0.0810    0.2100 N   0  0  0  0  0  0  0  0  0  0  0  0
    5.0560    1.0910   -0.0630 C   0  0  0  0  0  0  0  0  0  0  0  0
    5.1520    1.8690   -1.3370 C   0  0  0  0  0  0  0  0  0  0  0  0
    5.8540    1.3140    1.0290 C   0  0  0  0  0  0  0  0  0  0  0  0
    5.4590    0.3980    1.9670 N   0  0  0  0  0  0  0  0  0  0  0  0
    6.0030    0.2420    3.2960 C   0  0  0  0  0  0  0  0  0  0  0  0
    6.8440    1.4130    3.7130 C   0  0  0  0  0  0  0  0  0  0  0  0
    6.1610    2.7310    3.5090 C   0  0  0  0  0  0  0  0  0  0  0  0
    6.5210    3.3740    2.1820 C   0  0  0  0  0  0  0  0  0  0  0  0
    6.9260    2.3240    1.1670 C   0  0  0  0  0  0  0  0  0  0  0  0
    1.2830   -2.6670   -0.5980 C   0  0  0  0  0  0  0  0  0  0  0  0
   -2.8150   -0.0580   -0.3590 C   0  0  1  0  0  0  0  0  0  0  0  0
   -3.5260    0.1630   -1.6490 C   0  0  0  0  0  0  0  0  0  0  0  0
   -3.1240   -0.5150   -2.8170 C   0  0  0  0  0  0  0  0  0  0  0  0
   -3.8150   -0.2690   -3.9630 C   0  0  0  0  0  0  0  0  0  0  0  0
   -4.8710    0.6040   -4.0150 C   0  0  0  0  0  0  0  0  0  0  0  0
   -5.5560    0.8500   -5.2970 C   0  0  0  0  0  0  0  0  0  0  0  0
   -6.4230   -0.1930   -5.5800 O   0  0  0  0  0  0  0  0  0  0  0  0
   -5.2640    1.2640   -2.8820 C   0  0  0  0  0  0  0  0  0  0  0  0
   -4.5720    1.0240   -1.7120 C   0  0  0  0  0  0  0  0  0  0  0  0
   -3.6980    0.0610    0.7390 N   0  0  0  0  0  0  0  0  0  0  0  0
   -3.5720    0.9390    1.8430 C   0  0  0  0  0  0  0  0  0  0  0  0
   -4.0660    2.3070    1.8190 C   0  0  2  0  0  0  0  0  0  0  0  0
   -5.5200    2.5950    1.8300 C   0  0  0  0  0  0  0  0  0  0  0  0
   -5.5560    4.1070    1.5090 C   0  0  0  0  0  0  0  0  0  0  0  0
   -4.1960    4.3470    0.9500 C   0  0  0  0  0  0  0  0  0  0  0  0
   -3.5110    3.1600    0.8510 O   0  0  0  0  0  0  0  0  0  0  0  0
   -4.8220   -0.8320    0.6910 C   0  0  0  0  0  0  0  0  0  0  0  0
   -5.9460   -0.5670    1.1730 O   0  0  0  0  0  0  0  0  0  0  0  0
   -4.6420   -2.0980    0.0610 N   0  0  0  0  0  0  0  0  0  0  0  0
  1  2  1  0
  2  3  2  0
  2 46  1  0
  3  4  1  0
  3 28  1  0
  4  5  2  0
  4  6  1  0
  6  7  2  0
  6 27  1  0
  7  8  1  0
  8  9  1  0
  9 10  2  0
  9 11  1  0
 11 12  1  0
 11 27  2  0
 12 13  1  0
 13 14  1  0
 14 15  1  0
 15 16  1  0
 16 17  2  0
 16 21  1  0
 17 18  1  0
 18 19  1  0
 18 20  2  0
 20 21  1  0
 20 26  1  0
 21 22  1  0
 22 23  1  0
 23 24  1  0
 24 25  1  0
 25 26  1  0
 28 29  1  6
 28 37  1  0
 29 30  2  0
 29 36  1  0
 30 31  1  0
 31 32  2  0
 32 33  1  0
 32 35  1  0
 33 34  1  0
 35 36  2  0
 37 38  1  0
 37 44  1  0
 39 38  1  6
 39 40  1  0
 39 43  1  0
 40 41  1  0
 41 42  1  0
 42 43  1  0
 44 45  2  0
 44 46  1  0
M  END
