
     RDKit          3D

 41 44  0  0  0  0  0  0  0  0999 V2000
    4.8720   -1.2720   -1.1090 C   0  0  0  0  0  0  0  0  0  0  0  0
    5.9870   -1.3050   -0.1450 C   0  0  0  0  0  0  0  0  0  0  0  0
    6.8230   -2.4190   -0.0300 C   0  0  0  0  0  0  0  0  0  0  0  0
    7.8390   -2.4770    0.8920 C   0  0  0  0  0  0  0  0  0  0  0  0
    8.0220   -1.3870    1.7310 C   0  0  0  0  0  0  0  0  0  0  0  0
    7.1970   -0.2900    1.6180 C   0  0  0  0  0  0  0  0  0  0  0  0
    6.1580   -0.2140    0.6770 C   0  0  0  0  0  0  0  0  0  0  0  0
    5.4140    1.0140    0.5270 C   0  0  0  0  0  0  0  0  0  0  0  0
    3.9940    0.9600    0.4520 N   0  0  0  0  0  0  0  0  0  0  0  0
    3.3840    1.5790   -0.6850 C   0  0  0  0  0  0  0  0  0  0  0  0
    4.1240    2.0960   -1.5350 O   0  0  0  0  0  0  0  0  0  0  0  0
    1.9120    1.6400   -0.9030 C   0  0  1  0  0  0  0  0  0  0  0  0
    1.2420    1.2730    0.3310 N   0  0  0  0  0  0  0  0  0  0  0  0
    0.3760    0.1940    0.6000 C   0  0  0  0  0  0  0  0  0  0  0  0
    0.0900   -0.1050    1.7980 O   0  0  0  0  0  0  0  0  0  0  0  0
   -0.2620   -0.6280   -0.4740 C   0  0  1  0  0  0  0  0  0  0  0  0
    0.6560   -1.7480   -0.5280 O   0  0  0  0  0  0  0  0  0  0  0  0
   -1.5410   -1.2630    0.0410 C   0  0  2  0  0  0  0  0  0  0  0  0
   -1.6520   -2.6040   -0.5850 C   0  0  0  0  0  0  0  0  0  0  0  0
   -2.8090   -3.4120   -0.2000 C   0  0  0  0  0  0  0  0  0  0  0  0
   -2.6690   -4.2380    0.8930 C   0  0  0  0  0  0  0  0  0  0  0  0
   -3.7110   -5.0250    1.2950 C   0  0  0  0  0  0  0  0  0  0  0  0
   -4.9150   -5.0320    0.6490 C   0  0  0  0  0  0  0  0  0  0  0  0
   -5.0700   -4.2010   -0.4600 C   0  0  0  0  0  0  0  0  0  0  0  0
   -4.0120   -3.3970   -0.8730 C   0  0  0  0  0  0  0  0  0  0  0  0
   -2.7330   -0.5030    0.0900 N   0  0  0  0  0  0  0  0  0  0  0  0
   -2.9910    0.8010    0.5480 C   0  0  0  0  0  0  0  0  0  0  0  0
   -1.9880    1.4840    1.0140 O   0  0  0  0  0  0  0  0  0  0  0  0
   -4.2640    1.4880    0.5730 C   0  0  0  0  0  0  0  0  0  0  0  0
   -4.5030    2.2880    1.7300 C   0  0  0  0  0  0  0  0  0  0  0  0
   -5.7030    2.9190    1.9000 C   0  0  0  0  0  0  0  0  0  0  0  0
   -6.7040    2.8000    0.9660 C   0  0  0  0  0  0  0  0  0  0  0  0
   -6.4990    2.0400   -0.1540 C   0  0  0  0  0  0  0  0  0  0  0  0
   -7.5260    1.9520   -1.0660 O   0  0  0  0  0  0  0  0  0  0  0  0
   -5.2530    1.3840   -0.3350 C   0  0  0  0  0  0  0  0  0  0  0  0
   -5.1310    0.7030   -1.6250 C   0  0  0  0  0  0  0  0  0  0  0  0
    1.5400    2.3480    1.3110 C   0  0  0  0  0  0  0  0  0  0  0  0
    0.8840    3.7290    0.2300 S   0  0  0  0  0  0  0  0  0  0  0  0
    1.4530    2.9730   -1.3640 C   0  0  2  0  0  0  0  0  0  0  0  0
    0.3100    2.9000   -2.3610 C   0  0  0  0  0  0  0  0  0  0  0  0
    2.5110    3.8780   -1.8980 C   0  0  0  0  0  0  0  0  0  0  0  0
  1  2  1  0
  2  3  2  0
  2  7  1  0
  3  4  1  0
  4  5  2  0
  5  6  1  0
  6  7  2  0
  7  8  1  0
  8  9  1  0
  9 10  1  0
 10 11  2  0
 12 10  1  1
 12 13  1  0
 12 39  1  0
 13 14  1  0
 13 37  1  0
 14 15  2  0
 14 16  1  0
 16 17  1  1
 16 18  1  0
 18 19  1  6
 18 26  1  0
 19 20  1  0
 20 21  2  0
 20 25  1  0
 21 22  1  0
 22 23  2  0
 23 24  1  0
 24 25  2  0
 26 27  1  0
 27 28  2  0
 27 29  1  0
 29 30  2  0
 29 35  1  0
 30 31  1  0
 31 32  2  0
 32 33  1  0
 33 34  1  0
 33 35  2  0
 35 36  1  0
 37 38  1  0
 38 39  1  0
 39 40  1  6
 39 41  1  0
M  END
