
     RDKit          3D

 47 52  0  0  0  0  0  0  0  0999 V2000
  -10.6630    2.6880    1.0030 C   0  0  0  0  0  0  0  0  0  0  0  0
   -9.8730    1.5820    0.6930 O   0  0  0  0  0  0  0  0  0  0  0  0
  -10.1450    0.2600    0.9550 C   0  0  0  0  0  0  0  0  0  0  0  0
  -11.3080   -0.1310    1.6040 C   0  0  0  0  0  0  0  0  0  0  0  0
  -11.5640   -1.4710    1.8570 C   0  0  0  0  0  0  0  0  0  0  0  0
  -10.6280   -2.4090    1.4450 C   0  0  0  0  0  0  0  0  0  0  0  0
   -9.4560   -2.0170    0.7920 C   0  0  0  0  0  0  0  0  0  0  0  0
   -9.2180   -0.6810    0.5490 C   0  0  0  0  0  0  0  0  0  0  0  0
   -8.0500   -0.3200   -0.1020 O   0  0  0  0  0  0  0  0  0  0  0  0
   -7.1040   -1.2520   -0.5470 C   0  0  0  0  0  0  0  0  0  0  0  0
   -5.9320   -0.4960   -1.2160 C   0  0  2  0  0  0  0  0  0  0  0  0
   -6.4830    0.2900   -2.3370 C   0  0  0  0  0  0  0  0  0  0  0  0
   -5.1150   -1.5670   -1.6740 O   0  0  0  0  0  0  0  0  0  0  0  0
   -5.2530    0.2560   -0.1260 C   0  0  0  0  0  0  0  0  0  0  0  0
   -4.1000    1.1100   -0.4930 C   0  0  1  0  0  0  0  0  0  0  0  0
   -3.5850    1.7340    0.8010 C   0  0  0  0  0  0  0  0  0  0  0  0
   -2.2340    2.3440    0.6550 C   0  0  0  0  0  0  0  0  0  0  0  0
   -1.2240    1.5420   -0.0800 C   0  0  0  0  0  0  0  0  0  0  0  0
   -1.7930    0.2280   -0.5720 C   0  0  2  0  0  0  0  0  0  0  0  0
   -2.1620   -0.5890    0.4520 O   0  0  0  0  0  0  0  0  0  0  0  0
   -0.8800   -0.4410   -1.5520 C   0  0  0  0  0  0  0  0  0  0  0  0
    0.3680   -0.9310   -1.1160 N   0  0  0  0  0  0  0  0  0  0  0  0
    0.5840   -1.9330   -0.1430 C   0  0  0  0  0  0  0  0  0  0  0  0
   -0.4020   -2.4810    0.4250 O   0  0  0  0  0  0  0  0  0  0  0  0
    1.8900   -2.3980    0.2510 C   0  0  0  0  0  0  0  0  0  0  0  0
    2.1370   -3.7620    0.2840 C   0  0  0  0  0  0  0  0  0  0  0  0
    3.4110   -4.2480    0.4900 C   0  0  0  0  0  0  0  0  0  0  0  0
    4.4910   -3.3780    0.6720 C   0  0  0  0  0  0  0  0  0  0  0  0
    4.2350   -2.0500    0.6410 C   0  0  0  0  0  0  0  0  0  0  0  0
    5.3160   -1.2550    0.8560 C   0  0  0  0  0  0  0  0  0  0  0  0
    5.2080    0.1150    0.8880 C   0  0  0  0  0  0  0  0  0  0  0  0
    6.3340    1.0150    1.0140 C   0  0  0  0  0  0  0  0  0  0  0  0
    6.3130    1.9560    1.8340 O   0  0  0  0  0  0  0  0  0  0  0  0
    7.5100    0.8930    0.2200 N   0  0  0  0  0  0  0  0  0  0  0  0
    8.6440    1.8090    0.3800 C   0  0  2  0  0  0  0  0  0  0  0  0
    8.5800    2.8830   -0.7080 C   0  0  0  0  0  0  0  0  0  0  0  0
   10.0250    3.2500   -0.9610 C   0  0  0  0  0  0  0  0  0  0  0  0
   10.7740    1.9400   -0.7730 C   0  0  0  0  0  0  0  0  0  0  0  0
    9.9340    1.1060    0.1740 C   0  0  1  0  0  0  0  0  0  0  0  0
   10.6690    0.7140    1.4110 C   0  0  0  0  0  0  0  0  0  0  0  0
   11.8670    0.0600    1.0520 O   0  0  0  0  0  0  0  0  0  0  0  0
    3.9200    0.6300    0.6900 C   0  0  0  0  0  0  0  0  0  0  0  0
    2.8210   -0.1860    0.4700 C   0  0  0  0  0  0  0  0  0  0  0  0
    2.9400   -1.5500    0.4330 C   0  0  0  0  0  0  0  0  0  0  0  0
    6.4600   -2.1690    1.0670 C   0  0  0  0  0  0  0  0  0  0  0  0
    5.9290   -3.5680    0.8930 C   0  0  0  0  0  0  0  0  0  0  0  0
   -3.0600    0.5890   -1.3700 C   0  0  0  0  0  0  0  0  0  0  0  0
  1  2  1  0
  2  3  1  0
  3  4  2  0
  3  8  1  0
  4  5  1  0
  5  6  2  0
  6  7  1  0
  7  8  2  0
  8  9  1  0
  9 10  1  0
 10 11  1  0
 11 12  1  6
 11 13  1  0
 11 14  1  0
 15 14  1  1
 15 16  1  0
 15 47  1  0
 16 17  1  0
 17 18  1  0
 18 19  1  0
 19 20  1  1
 19 21  1  0
 19 47  1  0
 21 22  1  0
 22 23  1  0
 23 24  2  0
 23 25  1  0
 25 26  2  0
 25 44  1  0
 26 27  1  0
 27 28  2  0
 28 29  1  0
 28 46  1  0
 29 30  2  0
 29 44  1  0
 30 31  1  0
 30 45  1  0
 31 32  1  0
 31 42  2  0
 32 33  2  0
 32 34  1  0
 35 34  1  6
 35 36  1  0
 35 39  1  0
 36 37  1  0
 37 38  1  0
 38 39  1  0
 39 40  1  1
 40 41  1  0
 42 43  1  0
 43 44  2  0
 45 46  1  0
M  END
