
     RDKit          3D

 46 49  0  0  0  0  0  0  0  0999 V2000
   10.0890   -0.7350    0.6680 C   0  0  0  0  0  0  0  0  0  0  0  0
    8.7890   -0.0680    0.2770 C   0  0  0  0  0  0  0  0  0  0  0  0
    7.7440   -0.7260    0.8710 O   0  0  0  0  0  0  0  0  0  0  0  0
    7.6330   -2.0690    0.5430 C   0  0  1  0  0  0  0  0  0  0  0  0
    7.7080   -2.8430    1.8530 C   0  0  0  0  0  0  0  0  0  0  0  0
    6.7740   -2.1760    2.8170 C   0  0  0  0  0  0  0  0  0  0  0  0
    5.3690   -1.9950    2.3070 C   0  0  0  0  0  0  0  0  0  0  0  0
    5.3100   -1.8100    0.8830 N   0  0  0  0  0  0  0  0  0  0  0  0
    4.2620   -1.0320    0.3240 C   0  0  0  0  0  0  0  0  0  0  0  0
    2.9340   -1.4390    0.4120 C   0  0  0  0  0  0  0  0  0  0  0  0
    1.9440   -0.6490   -0.1360 C   0  0  0  0  0  0  0  0  0  0  0  0
    2.2060    0.5480   -0.7770 C   0  0  0  0  0  0  0  0  0  0  0  0
    3.5020    0.9510   -0.8630 C   0  0  0  0  0  0  0  0  0  0  0  0
    4.5150    0.1670   -0.3190 C   0  0  0  0  0  0  0  0  0  0  0  0
    3.8670    2.2300   -1.5050 C   0  0  0  0  0  0  0  0  0  0  0  0
    2.7450    3.0290   -2.0420 C   0  0  0  0  0  0  0  0  0  0  0  0
    1.4630    2.3400   -2.3200 C   0  0  0  0  0  0  0  0  0  0  0  0
    1.1810    1.3310   -1.3480 N   0  0  0  0  0  0  0  0  0  0  0  0
   -0.1760    1.0330   -0.9190 C   0  0  0  0  0  0  0  0  0  0  0  0
   -0.8550    1.7300    0.5370 S   0  0  0  0  0  0  0  0  0  0  0  0
    0.2470    2.7760    1.4760 C   0  0  0  0  0  0  0  0  0  0  0  0
    0.6410    4.0520    0.8110 C   0  0  0  0  0  0  0  0  0  0  0  0
   -0.8160    0.1970   -1.6880 C   0  0  0  0  0  0  0  0  0  0  0  0
   -0.0840   -0.3260   -2.8700 C   0  0  0  0  0  0  0  0  0  0  0  0
    0.4600   -0.7310   -3.7850 N   0  0  0  0  0  0  0  0  0  0  0  0
   -2.1700   -0.2900   -1.5450 C   0  0  0  0  0  0  0  0  0  0  0  0
   -2.5640   -1.1350   -2.4430 O   0  0  0  0  0  0  0  0  0  0  0  0
   -3.1190    0.0180   -0.5800 N   0  0  0  0  0  0  0  0  0  0  0  0
   -4.4420   -0.5770   -0.5670 C   0  0  0  0  0  0  0  0  0  0  0  0
   -4.6720   -1.8540   -0.9720 C   0  0  0  0  0  0  0  0  0  0  0  0
   -5.9300   -2.3750   -0.9840 C   0  0  0  0  0  0  0  0  0  0  0  0
   -7.0600   -1.6390   -0.5830 C   0  0  0  0  0  0  0  0  0  0  0  0
   -8.3470   -2.3150   -0.6000 C   0  0  0  0  0  0  0  0  0  0  0  0
   -9.4500   -1.8880   -0.2380 O   0  0  0  0  0  0  0  0  0  0  0  0
   -8.3860   -3.6420   -1.0880 O   0  0  0  0  0  0  0  0  0  0  0  0
   -9.6180   -4.3540   -1.1240 C   0  0  0  0  0  0  0  0  0  0  0  0
   -6.8350   -0.3500   -0.1730 C   0  0  0  0  0  0  0  0  0  0  0  0
   -7.9150    0.5070    0.2100 C   0  0  0  0  0  0  0  0  0  0  0  0
   -9.1110    0.2360    0.1970 O   0  0  0  0  0  0  0  0  0  0  0  0
   -7.5550    1.8960    0.6840 C   0  0  0  0  0  0  0  0  0  0  0  0
   -8.8090    2.7140    0.9690 C   0  0  0  0  0  0  0  0  0  0  0  0
   -9.6370    2.8580   -0.2500 C   0  0  0  0  0  0  0  0  0  0  0  0
   -9.2770    2.3400   -1.3550 O   0  0  0  0  0  0  0  0  0  0  0  0
  -10.8270    3.5530   -0.2600 O   0  0  0  0  0  0  0  0  0  0  0  0
   -5.5180    0.1640   -0.1710 C   0  0  0  0  0  0  0  0  0  0  0  0
    6.2640   -2.3970   -0.0230 C   0  0  0  0  0  0  0  0  0  0  0  0
  1  2  1  0
  2  3  1  0
  4  3  1  1
  4  5  1  0
  4 46  1  0
  5  6  1  0
  6  7  1  0
  7  8  1  0
  8  9  1  0
  8 46  1  0
  9 10  2  0
  9 14  1  0
 10 11  1  0
 11 12  2  0
 12 13  1  0
 12 18  1  0
 13 14  2  0
 13 15  1  0
 15 16  1  0
 16 17  1  0
 17 18  1  0
 18 19  1  0
 19 20  1  0
 19 23  2  3
 20 21  1  0
 21 22  1  0
 23 24  1  0
 23 26  1  0
 24 25  3  0
 26 27  2  0
 26 28  1  0
 28 29  1  0
 29 30  2  0
 29 45  1  0
 30 31  1  0
 31 32  2  0
 32 33  1  0
 32 37  1  0
 33 34  2  0
 33 35  1  0
 35 36  1  0
 37 38  1  0
 37 45  2  0
 38 39  2  0
 38 40  1  0
 40 41  1  0
 41 42  1  0
 42 43  2  0
 42 44  1  0
M  END
