
     RDKit          3D

 46 50  0  0  0  0  0  0  0  0999 V2000
   -5.1210    8.2390   -0.0240 C   0  0  0  0  0  0  0  0  0  0  0  0
   -4.7950    7.2370   -1.0920 C   0  0  0  0  0  0  0  0  0  0  0  0
   -4.3590    6.0430   -0.6050 O   0  0  0  0  0  0  0  0  0  0  0  0
   -3.3100    5.7360    0.2090 C   0  0  0  0  0  0  0  0  0  0  0  0
   -2.4700    6.6690    0.7510 C   0  0  0  0  0  0  0  0  0  0  0  0
   -1.4230    6.2290    1.5620 C   0  0  0  0  0  0  0  0  0  0  0  0
   -1.2320    4.9100    1.8100 N   0  0  0  0  0  0  0  0  0  0  0  0
   -2.0310    3.9930    1.2930 C   0  0  0  0  0  0  0  0  0  0  0  0
   -1.8250    2.5630    1.5220 O   0  0  0  0  0  0  0  0  0  0  0  0
   -0.9710    2.0300    0.6190 C   0  0  0  0  0  0  0  0  0  0  0  0
   -0.5020    2.9430   -0.2340 O   0  0  0  0  0  0  0  0  0  0  0  0
   -0.4310    0.6730    0.3540 C   0  0  0  0  0  0  0  0  0  0  0  0
   -1.1570   -0.1000   -0.5470 C   0  0  0  0  0  0  0  0  0  0  0  0
   -2.4360    0.0480   -1.0490 N   0  0  0  0  0  0  0  0  0  0  0  0
   -3.4850   -0.6130   -1.0520 C   0  0  0  0  0  0  0  0  0  0  0  0
   -3.9060   -1.8860   -0.5210 C   0  0  0  0  0  0  0  0  0  0  0  0
   -4.1960   -2.1230    0.8100 C   0  0  0  0  0  0  0  0  0  0  0  0
   -4.5910   -3.3600    1.3020 C   0  0  0  0  0  0  0  0  0  0  0  0
   -4.7160   -4.4300    0.4780 C   0  0  0  0  0  0  0  0  0  0  0  0
   -5.1140   -5.7590    0.9740 C   0  0  0  0  0  0  0  0  0  0  0  0
   -6.4580   -5.8450    1.2550 O   0  0  0  0  0  0  0  0  0  0  0  0
   -6.8220   -7.1300    1.6780 C   0  0  0  0  0  0  0  0  0  0  0  0
   -4.4310   -4.2250   -0.8680 C   0  0  0  0  0  0  0  0  0  0  0  0
   -4.0450   -3.0140   -1.3450 C   0  0  0  0  0  0  0  0  0  0  0  0
   -0.0320   -1.4140   -0.9340 S   0  0  0  0  0  0  0  0  0  0  0  0
    1.3300   -0.8470    0.1430 C   0  0  0  0  0  0  0  0  0  0  0  0
    2.5110   -1.7530    0.3740 C   0  0  0  0  0  0  0  0  0  0  0  0
    3.2570   -1.7470   -0.8660 N   0  0  0  0  0  0  0  0  0  0  0  0
    3.2200   -2.4080   -2.0600 C   0  0  0  0  0  0  0  0  0  0  0  0
    2.5380   -1.7160   -3.2350 C   0  0  2  0  0  0  0  0  0  0  0  0
    3.1240   -2.4960   -4.4650 C   0  0  0  0  0  0  0  0  0  0  0  0
    3.2620   -1.4240   -5.4890 C   0  0  0  0  0  0  0  0  0  0  0  0
    3.2490   -0.1380   -4.7170 C   0  0  0  0  0  0  0  0  0  0  0  0
    2.9970   -0.4560   -3.4360 O   0  0  0  0  0  0  0  0  0  0  0  0
    4.4210   -0.8000   -0.7330 C   0  0  0  0  0  0  0  0  0  0  0  0
    4.6390   -0.0450   -1.6480 O   0  0  0  0  0  0  0  0  0  0  0  0
    5.1860   -0.8890    0.4820 C   0  0  0  0  0  0  0  0  0  0  0  0
    5.1130   -1.9890    1.1350 O   0  0  0  0  0  0  0  0  0  0  0  0
    6.0310    0.0660    1.0690 N   0  0  0  0  0  0  0  0  0  0  0  0
    6.8310   -0.1850    2.2110 C   0  0  2  0  0  0  0  0  0  0  0  0
    6.5290   -1.3150    3.1470 C   0  0  0  0  0  0  0  0  0  0  0  0
    6.6140    0.1710    3.6300 C   0  0  2  0  0  0  0  0  0  0  0  0
    5.3540    0.7300    4.1920 C   0  0  0  0  0  0  0  0  0  0  0  0
    0.8070    0.2670    0.6820 C   0  0  0  0  0  0  0  0  0  0  0  0
    1.6690    1.1160    1.6590 C   0  0  0  0  0  0  0  0  0  0  0  0
   -3.0790    4.3590    0.4930 C   0  0  0  0  0  0  0  0  0  0  0  0
  1  2  1  0
  2  3  1  0
  3  4  1  0
  4  5  2  0
  4 46  1  0
  5  6  1  0
  6  7  2  0
  7  8  1  0
  8  9  1  0
  8 46  2  0
  9 10  1  0
 10 11  2  0
 10 12  1  0
 12 13  2  0
 12 44  1  0
 13 14  1  0
 13 25  1  0
 14 15  2  3
 15 16  1  0
 16 17  2  0
 16 24  1  0
 17 18  1  0
 18 19  2  0
 19 20  1  0
 19 23  1  0
 20 21  1  0
 21 22  1  0
 23 24  2  0
 25 26  1  0
 26 27  1  0
 26 44  2  0
 27 28  1  0
 28 29  1  0
 28 35  1  0
 30 29  1  1
 30 31  1  0
 30 34  1  0
 31 32  1  0
 32 33  1  0
 33 34  1  0
 35 36  2  0
 35 37  1  0
 37 38  2  0
 37 39  1  0
 40 39  1  6
 40 41  1  0
 40 42  1  0
 41 42  1  0
 42 43  1  6
 44 45  1  0
M  END
