
     RDKit          3D

 47 52  0  0  0  0  0  0  0  0999 V2000
  -10.1660    3.3200    1.7670 C   0  0  0  0  0  0  0  0  0  0  0  0
   -9.4610    2.4620    0.9160 O   0  0  0  0  0  0  0  0  0  0  0  0
  -10.0250    2.0490   -0.2780 C   0  0  0  0  0  0  0  0  0  0  0  0
  -11.2780    2.4090   -0.6690 C   0  0  0  0  0  0  0  0  0  0  0  0
  -11.8380    2.0000   -1.8510 C   0  0  0  0  0  0  0  0  0  0  0  0
  -11.0820    1.1890   -2.6590 C   0  0  0  0  0  0  0  0  0  0  0  0
   -9.8200    0.7990   -2.3100 C   0  0  0  0  0  0  0  0  0  0  0  0
   -9.2280    1.2060   -1.1130 C   0  0  0  0  0  0  0  0  0  0  0  0
   -8.0350    0.8880   -0.7150 O   0  0  0  0  0  0  0  0  0  0  0  0
   -6.8370    0.3310   -0.7530 C   0  0  0  0  0  0  0  0  0  0  0  0
   -5.9290    0.7580   -1.8830 C   0  0  2  0  0  0  0  0  0  0  0  0
   -5.9710    2.2890   -2.0000 C   0  0  0  0  0  0  0  0  0  0  0  0
   -6.6230    0.3650   -3.0650 O   0  0  0  0  0  0  0  0  0  0  0  0
   -4.6220    0.1680   -2.0220 C   0  0  0  0  0  0  0  0  0  0  0  0
   -3.5170    0.2200   -1.0630 C   0  0  1  0  0  0  0  0  0  0  0  0
   -2.9950    1.5550   -0.6950 C   0  0  0  0  0  0  0  0  0  0  0  0
   -3.1410    1.7500    0.8170 C   0  0  0  0  0  0  0  0  0  0  0  0
   -2.1640    0.8160    1.5220 C   0  0  0  0  0  0  0  0  0  0  0  0
   -2.3000   -0.5920    0.9750 C   0  0  2  0  0  0  0  0  0  0  0  0
   -2.4780   -1.4300    2.1070 O   0  0  0  0  0  0  0  0  0  0  0  0
   -1.1060   -1.0560    0.2360 C   0  0  0  0  0  0  0  0  0  0  0  0
    0.1600   -1.0090    0.8990 N   0  0  0  0  0  0  0  0  0  0  0  0
    0.5470   -1.6900    2.0660 C   0  0  0  0  0  0  0  0  0  0  0  0
   -0.2750   -2.4260    2.6540 O   0  0  0  0  0  0  0  0  0  0  0  0
    1.8940   -1.5650    2.6340 C   0  0  0  0  0  0  0  0  0  0  0  0
    2.0800   -1.2360    3.9640 C   0  0  0  0  0  0  0  0  0  0  0  0
    3.3330   -1.0040    4.4650 C   0  0  0  0  0  0  0  0  0  0  0  0
    4.4530   -1.0970    3.6300 C   0  0  0  0  0  0  0  0  0  0  0  0
    4.2620   -1.4210    2.3250 C   0  0  0  0  0  0  0  0  0  0  0  0
    5.4400   -1.5200    1.6200 C   0  0  0  0  0  0  0  0  0  0  0  0
    5.3410   -1.8940    0.2980 C   0  0  0  0  0  0  0  0  0  0  0  0
    6.4930   -2.0460   -0.5730 C   0  0  0  0  0  0  0  0  0  0  0  0
    6.3430   -2.6650   -1.6930 O   0  0  0  0  0  0  0  0  0  0  0  0
    7.7860   -1.5680   -0.2980 N   0  0  0  0  0  0  0  0  0  0  0  0
    8.8960   -1.7780   -1.2400 C   0  0  2  0  0  0  0  0  0  0  0  0
   10.0570   -2.4650   -0.5140 C   0  0  0  0  0  0  0  0  0  0  0  0
   10.9040   -1.3000   -0.0120 C   0  0  0  0  0  0  0  0  0  0  0  0
   10.8140   -0.2740   -1.0990 C   0  0  0  0  0  0  0  0  0  0  0  0
    9.4580   -0.4550   -1.6900 C   0  0  1  0  0  0  0  0  0  0  0  0
    9.6030   -0.4480   -3.2200 C   0  0  0  0  0  0  0  0  0  0  0  0
   10.1190    0.7680   -3.6460 O   0  0  0  0  0  0  0  0  0  0  0  0
    4.0680   -2.1460   -0.2410 C   0  0  0  0  0  0  0  0  0  0  0  0
    2.9160   -2.0340    0.4970 C   0  0  0  0  0  0  0  0  0  0  0  0
    2.9980   -1.6580    1.8210 C   0  0  0  0  0  0  0  0  0  0  0  0
    6.5320   -1.1470    2.5270 C   0  0  0  0  0  0  0  0  0  0  0  0
    5.8950   -0.9370    3.8710 C   0  0  0  0  0  0  0  0  0  0  0  0
   -3.5640   -0.6830    0.1230 C   0  0  0  0  0  0  0  0  0  0  0  0
  1  2  1  0
  2  3  1  0
  3  4  2  0
  3  8  1  0
  4  5  1  0
  5  6  2  0
  6  7  1  0
  7  8  2  0
  8  9  1  0
  9 10  1  0
 10 11  1  0
 11 12  1  6
 11 13  1  0
 11 14  1  0
 15 14  1  1
 15 16  1  0
 15 47  1  0
 16 17  1  0
 17 18  1  0
 18 19  1  0
 19 20  1  1
 19 21  1  0
 19 47  1  0
 21 22  1  0
 22 23  1  0
 23 24  2  0
 23 25  1  0
 25 26  2  0
 25 44  1  0
 26 27  1  0
 27 28  2  0
 28 29  1  0
 28 46  1  0
 29 30  2  0
 29 44  1  0
 30 31  1  0
 30 45  1  0
 31 32  1  0
 31 42  2  0
 32 33  2  0
 32 34  1  0
 35 34  1  1
 35 36  1  0
 35 39  1  0
 36 37  1  0
 37 38  1  0
 38 39  1  0
 39 40  1  6
 40 41  1  0
 42 43  1  0
 43 44  2  0
 45 46  1  0
M  END
