
     RDKit          3D

 46 49  0  0  0  0  0  0  0  0999 V2000
    3.2100    0.0850    1.4290 C   0  0  0  0  0  0  0  0  0  0  0  0
    3.5720    0.9280    0.2620 C   0  0  0  0  0  0  0  0  0  0  0  0
    2.7970    0.6280   -0.9550 N   0  0  0  0  0  0  0  0  0  0  0  0
    1.5630    1.3270   -1.1010 C   0  0  0  0  0  0  0  0  0  0  0  0
    0.3440    0.9900   -0.4200 C   0  0  1  0  0  0  0  0  0  0  0  0
   -0.6380    2.0640   -0.8490 N   0  0  0  0  0  0  0  0  0  0  0  0
   -1.1360    3.0250    0.0110 C   0  0  0  0  0  0  0  0  0  0  0  0
   -0.7660    3.0220    1.2230 O   0  0  0  0  0  0  0  0  0  0  0  0
   -2.0920    4.0740   -0.4050 C   0  0  0  0  0  0  0  0  0  0  0  0
   -2.4680    4.9580    0.7310 C   0  0  0  0  0  0  0  0  0  0  0  0
   -1.7860    6.0880    1.1400 C   0  0  0  0  0  0  0  0  0  0  0  0
   -2.4620    6.6300    2.2310 C   0  0  0  0  0  0  0  0  0  0  0  0
   -2.0670    7.8590    2.9840 C   0  0  0  0  0  0  0  0  0  0  0  0
   -3.4900    5.8450    2.4410 O   0  0  0  0  0  0  0  0  0  0  0  0
   -3.5110    4.8650    1.5780 N   0  0  0  0  0  0  0  0  0  0  0  0
   -0.4490   -0.2160   -0.5790 C   0  0  0  0  0  0  0  0  0  0  0  0
   -0.2790   -1.2930   -1.3870 C   0  0  0  0  0  0  0  0  0  0  0  0
   -1.1420   -2.4000   -1.4200 C   0  0  0  0  0  0  0  0  0  0  0  0
   -2.2230   -2.4170   -0.6010 C   0  0  0  0  0  0  0  0  0  0  0  0
   -3.0790   -3.5070   -0.6310 O   0  0  0  0  0  0  0  0  0  0  0  0
   -2.8210   -4.5670   -1.4980 C   0  0  0  0  0  0  0  0  0  0  0  0
   -2.4530   -1.3430    0.2510 C   0  0  0  0  0  0  0  0  0  0  0  0
   -3.6140   -1.4110    1.1250 C   0  0  0  0  0  0  0  0  0  0  0  0
   -3.4150   -1.9140    2.2840 O   0  0  0  0  0  0  0  0  0  0  0  0
   -4.8880   -0.9770    0.7940 N   0  0  0  0  0  0  0  0  0  0  0  0
   -5.9830   -1.0630    1.7290 C   0  0  0  0  0  0  0  0  0  0  0  0
   -6.7330   -2.3730    1.6230 C   0  0  0  0  0  0  0  0  0  0  0  0
   -7.2660   -2.5270    0.3430 O   0  0  0  0  0  0  0  0  0  0  0  0
   -5.1780   -0.4300   -0.4890 C   0  0  0  0  0  0  0  0  0  0  0  0
   -5.9320   -0.4250   -1.3800 N   0  0  0  0  0  0  0  0  0  0  0  0
   -5.9280    0.2360   -2.5040 C   0  0  0  0  0  0  0  0  0  0  0  0
   -4.8650    1.0880   -2.7200 C   0  0  0  0  0  0  0  0  0  0  0  0
   -3.9230    0.8150   -1.1520 S   0  0  0  0  0  0  0  0  0  0  0  0
   -1.6020   -0.3010    0.2520 C   0  0  0  0  0  0  0  0  0  0  0  0
    3.2720   -0.3090   -1.8710 C   0  0  0  0  0  0  0  0  0  0  0  0
    2.5500   -0.4940   -2.9190 O   0  0  0  0  0  0  0  0  0  0  0  0
    4.4880   -1.1250   -1.8300 C   0  0  1  0  0  0  0  0  0  0  0  0
    5.6930   -0.3670   -2.3630 C   0  0  0  0  0  0  0  0  0  0  0  0
    4.8050   -1.8570   -0.6200 C   0  0  0  0  0  0  0  0  0  0  0  0
    6.0480   -1.5940   -0.0000 C   0  0  0  0  0  0  0  0  0  0  0  0
    6.4370   -2.2450    1.1460 C   0  0  0  0  0  0  0  0  0  0  0  0
    7.7630   -1.9220    1.7550 C   0  0  0  0  0  0  0  0  0  0  0  0
    5.5840   -3.1780    1.6960 C   0  0  0  0  0  0  0  0  0  0  0  0
    4.3680   -3.4470    1.1040 C   0  0  0  0  0  0  0  0  0  0  0  0
    3.9680   -2.7840   -0.0650 C   0  0  0  0  0  0  0  0  0  0  0  0
    2.6700   -3.0910   -0.6810 C   0  0  0  0  0  0  0  0  0  0  0  0
  1  2  1  0
  2  3  1  0
  3  4  1  0
  3 35  1  0
  5  4  1  6
  5  6  1  0
  5 16  1  0
  6  7  1  0
  7  8  2  0
  7  9  1  0
  9 10  1  0
 10 11  1  0
 10 15  2  0
 11 12  2  0
 12 13  1  0
 12 14  1  0
 14 15  1  0
 16 17  2  0
 16 34  1  0
 17 18  1  0
 18 19  2  0
 19 20  1  0
 19 22  1  0
 20 21  1  0
 22 23  1  0
 22 34  2  0
 23 24  2  0
 23 25  1  0
 25 26  1  0
 25 29  1  0
 26 27  1  0
 27 28  1  0
 29 30  2  0
 29 33  1  0
 30 31  1  0
 31 32  2  0
 32 33  1  0
 35 36  2  0
 35 37  1  0
 37 38  1  1
 37 39  1  0
 39 40  2  0
 39 45  1  0
 40 41  1  0
 41 42  1  0
 41 43  2  0
 43 44  1  0
 44 45  2  0
 45 46  1  0
M  END
