
     RDKit          3D

 46 49  0  0  0  0  0  0  0  0999 V2000
    4.1200    0.1910   -0.4390 C   0  0  0  0  0  0  0  0  0  0  0  0
    3.2950   -0.3130    0.6860 C   0  0  0  0  0  0  0  0  0  0  0  0
    1.8990   -0.2460    0.6260 C   0  0  0  0  0  0  0  0  0  0  0  0
    1.1030   -0.7000    1.6410 C   0  0  0  0  0  0  0  0  0  0  0  0
   -0.3060   -0.6930    1.6730 N   0  0  0  0  0  0  0  0  0  0  0  0
   -1.1470   -0.4220    0.5760 C   0  0  0  0  0  0  0  0  0  0  0  0
   -0.6520   -0.1620   -0.5380 O   0  0  0  0  0  0  0  0  0  0  0  0
   -2.6320   -0.4560    0.7890 C   0  0  1  0  0  0  0  0  0  0  0  0
   -2.8920    0.4030    2.0090 C   0  0  0  0  0  0  0  0  0  0  0  0
   -3.3530   -0.0740   -0.3040 O   0  0  0  0  0  0  0  0  0  0  0  0
   -3.1900    1.2010   -0.7600 C   0  0  0  0  0  0  0  0  0  0  0  0
   -4.0650    1.4370   -1.9620 C   0  0  0  0  0  0  0  0  0  0  0  0
   -5.5100    1.2940   -1.6910 C   0  0  0  0  0  0  0  0  0  0  0  0
   -5.9990   -0.0230   -1.2060 C   0  0  0  0  0  0  0  0  0  0  0  0
   -7.4690    0.1100   -1.0540 N   0  0  0  0  0  0  0  0  0  0  0  0
   -8.1840    0.5260    0.0970 C   0  0  0  0  0  0  0  0  0  0  0  0
   -7.6540    0.8580    1.2080 O   0  0  0  0  0  0  0  0  0  0  0  0
   -9.6190    0.5210   -0.1690 C   0  0  0  0  0  0  0  0  0  0  0  0
  -10.7310    0.8300    0.5860 C   0  0  0  0  0  0  0  0  0  0  0  0
  -12.0120    0.7370    0.0770 C   0  0  0  0  0  0  0  0  0  0  0  0
  -12.1570    0.3160   -1.2400 C   0  0  0  0  0  0  0  0  0  0  0  0
  -11.0540   -0.0000   -2.0160 C   0  0  0  0  0  0  0  0  0  0  0  0
   -9.7670    0.1010   -1.4820 C   0  0  0  0  0  0  0  0  0  0  0  0
   -8.4490   -0.1590   -2.0500 C   0  0  0  0  0  0  0  0  0  0  0  0
   -8.1580   -0.5540   -3.2100 O   0  0  0  0  0  0  0  0  0  0  0  0
   -3.0020   -1.8440    1.1280 C   0  0  0  0  0  0  0  0  0  0  0  0
   -2.4220   -2.5110    2.2310 N   0  0  0  0  0  0  0  0  0  0  0  0
   -3.8440   -2.4490    0.4310 O   0  0  0  0  0  0  0  0  0  0  0  0
    1.7480   -1.2330    2.7400 C   0  0  0  0  0  0  0  0  0  0  0  0
    3.1410   -1.2960    2.7920 C   0  0  0  0  0  0  0  0  0  0  0  0
    3.9620   -0.8500    1.7900 C   0  0  0  0  0  0  0  0  0  0  0  0
    5.3580   -0.8870    1.7830 N   0  0  0  0  0  0  0  0  0  0  0  0
    6.1900   -1.3910    2.7990 C   0  0  0  0  0  0  0  0  0  0  0  0
    5.6860   -1.8670    3.8360 O   0  0  0  0  0  0  0  0  0  0  0  0
    7.7040   -1.3660    2.6520 C   0  0  0  0  0  0  0  0  0  0  0  0
    7.9710   -0.7770    1.3990 O   0  0  0  0  0  0  0  0  0  0  0  0
    9.2140   -0.5620    0.8680 C   0  0  0  0  0  0  0  0  0  0  0  0
   10.2150   -0.9150    1.5430 O   0  0  0  0  0  0  0  0  0  0  0  0
    9.4330    0.0550   -0.4390 C   0  0  0  0  0  0  0  0  0  0  0  0
    8.3810    0.4670   -1.2290 C   0  0  0  0  0  0  0  0  0  0  0  0
    8.5910    1.0490   -2.4620 C   0  0  0  0  0  0  0  0  0  0  0  0
    9.8640    1.2440   -2.9570 C   0  0  0  0  0  0  0  0  0  0  0  0
   10.0750    1.8380   -4.2130 O   0  0  0  0  0  0  0  0  0  0  0  0
   10.9220    0.8360   -2.1730 C   0  0  0  0  0  0  0  0  0  0  0  0
   12.5810    1.0650   -2.7660 S   0  0  0  0  0  0  0  0  0  0  0  0
   10.7070    0.2480   -0.9300 C   0  0  0  0  0  0  0  0  0  0  0  0
  1  2  1  0
  2  3  2  0
  2 31  1  0
  3  4  1  0
  4  5  1  0
  4 29  2  0
  5  6  1  0
  6  7  2  0
  6  8  1  0
  8  9  1  1
  8 10  1  0
  8 26  1  0
 10 11  1  0
 11 12  1  0
 12 13  1  0
 13 14  1  0
 14 15  1  0
 15 16  1  0
 15 24  1  0
 16 17  2  0
 16 18  1  0
 18 19  2  0
 18 23  1  0
 19 20  1  0
 20 21  2  0
 21 22  1  0
 22 23  2  0
 23 24  1  0
 24 25  2  0
 26 27  1  0
 26 28  2  0
 29 30  1  0
 30 31  2  0
 31 32  1  0
 32 33  1  0
 33 34  2  0
 33 35  1  0
 35 36  1  0
 36 37  1  0
 37 38  2  0
 37 39  1  0
 39 40  2  0
 39 46  1  0
 40 41  1  0
 41 42  2  0
 42 43  1  0
 42 44  1  0
 44 45  1  0
 44 46  2  0
M  END
