
     RDKit          3D

 46 48  0  0  0  0  0  0  0  0999 V2000
   -6.4380   -3.9220    4.9830 C   0  0  0  0  0  0  0  0  0  0  0  0
   -6.6710   -2.8260    4.0120 C   0  0  0  0  0  0  0  0  0  0  0  0
   -7.9120   -2.2980    3.7460 C   0  0  0  0  0  0  0  0  0  0  0  0
   -8.0940   -1.2800    2.8340 C   0  0  0  0  0  0  0  0  0  0  0  0
   -7.0430   -0.7360    2.1390 C   0  0  0  0  0  0  0  0  0  0  0  0
   -7.2550    0.2880    1.2280 O   0  0  0  0  0  0  0  0  0  0  0  0
   -5.7660   -1.2590    2.3940 C   0  0  0  0  0  0  0  0  0  0  0  0
   -4.6780   -0.6330    1.6100 C   0  0  0  0  0  0  0  0  0  0  0  0
   -3.3600   -1.1540    1.8400 N   0  0  1  0  0  0  0  0  0  0  0  0
   -3.0560   -2.4130    1.2530 C   0  0  0  0  0  0  0  0  0  0  0  0
   -2.3980   -0.1290    1.5710 C   0  0  0  0  0  0  0  0  0  0  0  0
   -2.0880    0.2290    0.2100 C   0  0  0  0  0  0  0  0  0  0  0  0
   -2.5890   -0.2860   -0.8650 C   0  0  0  0  0  0  0  0  0  0  0  0
   -2.2050    0.1500   -2.1830 N   0  0  0  0  0  0  0  0  0  0  0  0
   -2.9880    1.1540   -2.7960 C   0  0  0  0  0  0  0  0  0  0  0  0
   -4.1030    1.6670   -2.1350 C   0  0  0  0  0  0  0  0  0  0  0  0
   -4.9060    2.6440   -2.6790 C   0  0  0  0  0  0  0  0  0  0  0  0
   -6.0180    3.1580   -2.0200 O   0  0  0  0  0  0  0  0  0  0  0  0
   -4.6350    3.1700   -3.9340 C   0  0  0  0  0  0  0  0  0  0  0  0
   -5.4570    4.1560   -4.4690 O   0  0  0  0  0  0  0  0  0  0  0  0
   -3.5410    2.6740   -4.5960 C   0  0  0  0  0  0  0  0  0  0  0  0
   -2.7260    1.6820   -4.0430 C   0  0  0  0  0  0  0  0  0  0  0  0
   -1.6470    1.2280   -4.7530 O   0  0  0  0  0  0  0  0  0  0  0  0
   -1.0980    1.3150   -0.0070 C   0  0  0  0  0  0  0  0  0  0  0  0
   -0.5570    1.8530    0.9800 O   0  0  0  0  0  0  0  0  0  0  0  0
   -0.7660    1.7410   -1.2690 O   0  0  0  0  0  0  0  0  0  0  0  0
    0.1410    2.7360   -1.6090 C   0  0  0  0  0  0  0  0  0  0  0  0
    1.5420    2.3630   -1.2440 C   0  0  0  0  0  0  0  0  0  0  0  0
    2.4600    3.2270   -1.3660 O   0  0  0  0  0  0  0  0  0  0  0  0
    1.8120    1.0740   -0.7840 N   0  0  0  0  0  0  0  0  0  0  0  0
    3.1150    0.5920   -0.4390 C   0  0  0  0  0  0  0  0  0  0  0  0
    4.0850    0.4210   -1.5300 C   0  0  1  0  0  0  0  0  0  0  0  0
    3.4280   -0.5920   -2.5150 C   0  0  0  0  0  0  0  0  0  0  0  0
    4.5120    1.5480   -2.3740 C   0  0  0  0  0  0  0  0  0  0  0  0
    5.2340   -0.3010   -0.9760 N   0  0  0  0  0  0  0  0  0  0  0  0
    6.0610    0.1690    0.0600 C   0  0  0  0  0  0  0  0  0  0  0  0
    5.8200    1.2880    0.5690 O   0  0  0  0  0  0  0  0  0  0  0  0
    7.2150   -0.5870    0.5970 C   0  0  2  0  0  0  0  0  0  0  0  0
    6.6630   -1.8710    1.1780 C   0  0  0  0  0  0  0  0  0  0  0  0
    7.8370    0.2100    1.7140 C   0  0  0  0  0  0  0  0  0  0  0  0
    9.0210   -0.5430    2.2900 C   0  0  0  0  0  0  0  0  0  0  0  0
   10.0150   -0.5960    1.2860 O   0  0  0  0  0  0  0  0  0  0  0  0
    9.6230   -0.3950   -0.0280 C   0  0  0  0  0  0  0  0  0  0  0  0
   10.4100    0.1690   -0.8550 O   0  0  0  0  0  0  0  0  0  0  0  0
    8.2670   -0.8520   -0.4470 C   0  0  0  0  0  0  0  0  0  0  0  0
   -5.5960   -2.2700    3.3010 C   0  0  0  0  0  0  0  0  0  0  0  0
  1  2  1  0
  2  3  2  0
  2 46  1  0
  3  4  1  0
  4  5  2  0
  5  6  1  0
  5  7  1  0
  7  8  1  0
  7 46  2  0
  8  9  1  0
  9 10  1  6
  9 11  1  0
 11 12  1  0
 12 13  2  3
 12 24  1  0
 13 14  1  0
 14 15  1  0
 15 16  2  0
 15 22  1  0
 16 17  1  0
 17 18  1  0
 17 19  2  0
 19 20  1  0
 19 21  1  0
 21 22  2  0
 22 23  1  0
 24 25  2  0
 24 26  1  0
 26 27  1  0
 27 28  1  0
 28 29  2  0
 28 30  1  0
 30 31  1  0
 31 32  1  0
 32 33  1  6
 32 34  1  0
 32 35  1  0
 35 36  1  0
 36 37  2  0
 36 38  1  0
 38 39  1  1
 38 40  1  0
 38 45  1  0
 40 41  1  0
 41 42  1  0
 42 43  1  0
 43 44  2  0
 43 45  1  0
M  CHG  1   9   1
M  END
