
     RDKit          3D

 46 48  0  0  0  0  0  0  0  0999 V2000
  -12.9640   -1.5860   -0.6990 C   0  0  0  0  0  0  0  0  0  0  0  0
  -11.8530   -0.7280   -0.6660 O   0  0  0  0  0  0  0  0  0  0  0  0
  -11.8550    0.6730   -0.6520 C   0  0  0  0  0  0  0  0  0  0  0  0
  -13.0030    1.2620   -0.6660 O   0  0  0  0  0  0  0  0  0  0  0  0
  -10.5880    1.3620   -0.6470 C   0  0  2  0  0  0  0  0  0  0  0  0
  -10.0420    1.2040   -2.1530 C   0  0  0  0  0  0  0  0  0  0  0  0
   -9.6170    0.5250    0.0280 O   0  0  0  0  0  0  0  0  0  0  0  0
   -8.4450    1.0630    0.4420 C   0  0  0  0  0  0  0  0  0  0  0  0
   -8.0120    2.1770    0.3810 O   0  0  0  0  0  0  0  0  0  0  0  0
   -7.5240   -0.0480    1.0690 C   0  0  2  0  0  0  0  0  0  0  0  0
   -6.8970    0.4550    2.3130 C   0  0  0  0  0  0  0  0  0  0  0  0
   -6.4300    0.1610    0.0060 N   0  0  0  0  0  0  0  0  0  0  0  0
   -6.7480   -0.6860   -1.1600 C   0  0  0  0  0  0  0  0  0  0  0  0
   -7.7660   -1.4220   -1.0910 O   0  0  0  0  0  0  0  0  0  0  0  0
   -5.8320   -0.5910   -2.3460 C   0  0  0  0  0  0  0  0  0  0  0  0
   -4.4840   -0.6560   -1.7220 C   0  0  0  0  0  0  0  0  0  0  0  0
   -3.5030   -0.7170   -1.2800 C   0  0  0  0  0  0  0  0  0  0  0  0
   -2.2130   -0.8080   -0.6730 C   0  0  0  0  0  0  0  0  0  0  0  0
   -1.0990   -0.4780   -1.3280 C   0  0  0  0  0  0  0  0  0  0  0  0
    0.2070   -0.6580   -0.7720 C   0  0  0  0  0  0  0  0  0  0  0  0
    1.3670   -0.3600   -1.5770 C   0  0  0  0  0  0  0  0  0  0  0  0
    2.6650   -0.3260   -1.0880 N   0  0  0  0  0  0  0  0  0  0  0  0
    3.1450    0.3330    0.1390 C   0  0  0  0  0  0  0  0  0  0  0  0
    2.4640    0.9230    0.8650 O   0  0  0  0  0  0  0  0  0  0  0  0
    4.6510    0.0480    0.2160 C   0  0  0  0  0  0  0  0  0  0  0  0
    5.4500    0.4020   -0.8080 C   0  0  0  0  0  0  0  0  0  0  0  0
    6.7670   -0.2100   -0.8790 C   0  0  0  0  0  0  0  0  0  0  0  0
    7.1020   -1.1420    0.1100 C   0  0  0  0  0  0  0  0  0  0  0  0
    8.3350   -1.7350   -0.0020 O   0  0  0  0  0  0  0  0  0  0  0  0
    9.4360   -1.4360    0.7320 C   0  0  0  0  0  0  0  0  0  0  0  0
   10.0830   -2.3390    1.5440 C   0  0  0  0  0  0  0  0  0  0  0  0
   11.1940   -2.0350    2.3010 C   0  0  0  0  0  0  0  0  0  0  0  0
   11.6750   -0.7230    2.2210 C   0  0  0  0  0  0  0  0  0  0  0  0
   11.0350    0.1630    1.4170 C   0  0  0  0  0  0  0  0  0  0  0  0
    9.9400   -0.1350    0.6820 C   0  0  0  0  0  0  0  0  0  0  0  0
    9.2490    0.7970   -0.1290 O   0  0  0  0  0  0  0  0  0  0  0  0
    9.4860    2.1230   -0.2520 C   0  0  0  0  0  0  0  0  0  0  0  0
   10.4770    3.0380   -0.7080 C   0  0  0  0  0  0  0  0  0  0  0  0
   10.2950    4.3970   -0.4260 N   0  0  0  0  0  0  0  0  0  0  0  0
   11.5250    2.5780   -1.3230 O   0  0  0  0  0  0  0  0  0  0  0  0
    6.2360   -1.4190    1.0850 C   0  0  0  0  0  0  0  0  0  0  0  0
    5.0080   -0.8850    1.2410 C   0  0  0  0  0  0  0  0  0  0  0  0
    0.2550   -1.1930    0.4920 C   0  0  0  0  0  0  0  0  0  0  0  0
   -0.8720   -1.5270    1.1770 N   0  0  0  0  0  0  0  0  0  0  0  0
   -2.0580   -1.3440    0.6170 C   0  0  0  0  0  0  0  0  0  0  0  0
   -3.1540   -1.6380    1.2080 O   0  0  0  0  0  0  0  0  0  0  0  0
  1  2  1  0
  2  3  1  0
  3  4  2  0
  3  5  1  0
  5  6  1  6
  5  7  1  0
  7  8  1  0
  8  9  2  0
  8 10  1  0
 10 11  1  1
 10 12  1  0
 12 13  1  0
 13 14  2  0
 13 15  1  0
 15 16  1  0
 16 17  3  0
 17 18  1  0
 18 19  2  0
 18 45  1  0
 19 20  1  0
 20 21  1  0
 20 43  2  0
 21 22  1  0
 22 23  1  0
 23 24  2  0
 23 25  1  0
 25 26  2  0
 25 42  1  0
 26 27  1  0
 27 28  2  0
 28 29  1  0
 28 41  1  0
 29 30  1  0
 30 31  2  0
 30 35  1  0
 31 32  1  0
 32 33  2  0
 33 34  1  0
 34 35  2  0
 35 36  1  0
 36 37  1  0
 37 38  1  0
 38 39  1  0
 38 40  2  0
 41 42  2  0
 43 44  1  0
 44 45  1  0
 45 46  2  0
M  END
