
     RDKit          3D

 46 47  0  0  0  0  0  0  0  0999 V2000
   -7.7330   -3.7050   -0.5610 C   0  0  0  0  0  0  0  0  0  0  0  0
   -6.6890   -3.5700   -1.6260 C   0  0  0  0  0  0  0  0  0  0  0  0
   -5.8040   -2.3870   -1.4960 C   0  0  1  0  0  0  0  0  0  0  0  0
   -6.4160   -1.1640   -1.5240 O   0  0  0  0  0  0  0  0  0  0  0  0
   -4.8270   -2.4650   -0.3340 C   0  0  2  0  0  0  0  0  0  0  0  0
   -5.4680   -2.2350    0.9940 C   0  0  0  0  0  0  0  0  0  0  0  0
   -3.8590   -1.4010   -0.5750 N   0  0  0  0  0  0  0  0  0  0  0  0
   -2.4950   -1.6540   -0.8250 C   0  0  0  0  0  0  0  0  0  0  0  0
   -2.1680   -2.8930   -0.8270 O   0  0  0  0  0  0  0  0  0  0  0  0
   -1.4800   -0.6280   -1.0710 C   0  0  0  0  0  0  0  0  0  0  0  0
   -1.8070    0.6470   -1.0690 C   0  0  0  0  0  0  0  0  0  0  0  0
   -0.8330    1.6860   -1.3070 C   0  0  0  0  0  0  0  0  0  0  0  0
   -1.1540    2.9520   -1.3070 C   0  0  0  0  0  0  0  0  0  0  0  0
   -2.4940    3.4210   -1.0640 C   0  0  0  0  0  0  0  0  0  0  0  0
   -3.2200    3.0540    0.0450 C   0  0  0  0  0  0  0  0  0  0  0  0
   -4.5180    3.4940    0.2530 C   0  0  0  0  0  0  0  0  0  0  0  0
   -5.1170    4.3230   -0.6640 C   0  0  0  0  0  0  0  0  0  0  0  0
   -6.4290    4.8080   -0.5200 O   0  0  0  0  0  0  0  0  0  0  0  0
   -7.1140    4.3790    0.6650 C   0  0  0  0  0  0  0  0  0  0  0  0
   -4.3740    4.6910   -1.7860 C   0  0  0  0  0  0  0  0  0  0  0  0
   -3.0910    4.2580   -1.9940 C   0  0  0  0  0  0  0  0  0  0  0  0
    0.5300    1.3210   -1.5600 N   0  0  0  0  0  0  0  0  0  0  0  0
    1.3070    0.7080   -0.5570 C   0  0  0  0  0  0  0  0  0  0  0  0
    0.8280    0.4810    0.5870 O   0  0  0  0  0  0  0  0  0  0  0  0
    2.6620    0.3130   -0.7680 N   0  0  0  0  0  0  0  0  0  0  0  0
    3.4220   -0.3000    0.2980 C   0  0  1  0  0  0  0  0  0  0  0  0
    2.7030   -1.5600    0.7880 C   0  0  0  0  0  0  0  0  0  0  0  0
    4.7130   -0.7470   -0.2380 C   0  0  0  0  0  0  0  0  0  0  0  0
    4.9340   -0.5440   -1.4820 O   0  0  0  0  0  0  0  0  0  0  0  0
    5.7640   -1.3850    0.4580 N   0  0  0  0  0  0  0  0  0  0  0  0
    6.9740   -1.7210   -0.2360 C   0  0  0  0  0  0  0  0  0  0  0  0
    7.0950   -1.5030   -1.4740 O   0  0  0  0  0  0  0  0  0  0  0  0
    8.0800   -2.2990    0.4060 O   0  0  0  0  0  0  0  0  0  0  0  0
    9.2420   -2.5870   -0.3910 C   0  0  0  0  0  0  0  0  0  0  0  0
    8.9510   -3.5660   -1.4530 C   0  0  0  0  0  0  0  0  0  0  0  0
    9.8480   -3.8960   -2.2700 O   0  0  0  0  0  0  0  0  0  0  0  0
    7.7160   -4.1660   -1.6170 O   0  0  0  0  0  0  0  0  0  0  0  0
    7.4000   -5.1030   -2.6130 C   0  0  0  0  0  0  0  0  0  0  0  0
    3.5060    0.5850    1.4790 C   0  0  0  0  0  0  0  0  0  0  0  0
    3.1440    1.9060    1.3440 C   0  0  0  0  0  0  0  0  0  0  0  0
    3.1400    2.8110    2.4090 C   0  0  0  0  0  0  0  0  0  0  0  0
    3.5100    2.3900    3.6660 C   0  0  0  0  0  0  0  0  0  0  0  0
    3.5310    3.2350    4.7790 O   0  0  0  0  0  0  0  0  0  0  0  0
    3.1560    4.5900    4.6160 C   0  0  0  0  0  0  0  0  0  0  0  0
    3.8740    1.0630    3.8090 C   0  0  0  0  0  0  0  0  0  0  0  0
    3.8730    0.1670    2.7300 C   0  0  0  0  0  0  0  0  0  0  0  0
  1  2  1  0
  2  3  1  0
  3  4  1  1
  3  5  1  0
  5  6  1  1
  5  7  1  0
  7  8  1  0
  8  9  2  0
  8 10  1  0
 10 11  2  3
 11 12  1  0
 12 13  2  3
 12 22  1  0
 13 14  1  0
 14 15  2  0
 14 21  1  0
 15 16  1  0
 16 17  2  0
 17 18  1  0
 17 20  1  0
 18 19  1  0
 20 21  2  0
 22 23  1  0
 23 24  2  0
 23 25  1  0
 25 26  1  0
 26 27  1  1
 26 28  1  0
 26 39  1  0
 28 29  2  0
 28 30  1  0
 30 31  1  0
 31 32  2  0
 31 33  1  0
 33 34  1  0
 34 35  1  0
 35 36  2  0
 35 37  1  0
 37 38  1  0
 39 40  2  0
 39 46  1  0
 40 41  1  0
 41 42  2  0
 42 43  1  0
 42 45  1  0
 43 44  1  0
 45 46  2  0
M  END
