
     RDKit          3D

 30 31  0  0  0  0  0  0  0  0999 V2000
    0.9120    1.5920   -2.9500 C   0  0  0  0  0  0  0  0  0  0  0  0
    1.4090    1.4720   -1.5460 C   0  0  0  0  0  0  0  0  0  0  0  0
    1.0990    0.2190   -0.7880 C   0  0  1  0  0  0  0  0  0  0  0  0
    1.7740   -0.8340   -1.7020 C   0  0  0  0  0  0  0  0  0  0  0  0
    2.0320    0.1890    0.4430 C   0  0  0  0  0  0  0  0  0  0  0  0
    3.6170    0.1210    0.4070 S   0  0  0  0  0  0  0  0  0  0  0  0
    4.7040   -0.9480   -0.3090 C   0  0  0  0  0  0  0  0  0  0  0  0
    4.5050    1.5650    1.1030 C   0  0  0  0  0  0  0  0  0  0  0  0
    3.7790   -0.9000    2.3590 O   0  0  0  0  0  0  0  0  0  0  0  0
   -0.2950   -0.1380   -0.4500 C   0  0  2  0  0  0  0  0  0  0  0  0
   -1.2100   -0.1820   -1.7010 C   0  0  0  0  0  0  0  0  0  0  0  0
   -2.5730   -0.6560   -1.2650 C   0  0  1  0  0  0  0  0  0  0  0  0
   -3.1200   -1.6250   -2.0620 F   0  0  0  0  0  0  0  0  0  0  0  0
   -2.6160   -1.0660    0.1220 N   0  0  0  0  0  0  0  0  0  0  0  0
   -2.3160    0.0340    0.9940 C   0  0  2  0  0  0  0  0  0  0  0  0
   -3.5270    0.9070    1.0900 C   0  0  0  0  0  0  0  0  0  0  0  0
   -1.0910    0.6840    0.4420 C   0  0  0  0  0  0  0  0  0  0  0  0
   -0.8860    1.9060    0.8330 C   0  0  0  0  0  0  0  0  0  0  0  0
   -1.6210    2.7470    1.7000 N   0  0  0  0  0  0  0  0  0  0  0  0
   -2.1080    4.0190    1.2700 C   0  0  0  0  0  0  0  0  0  0  0  0
   -1.8030    2.3650    2.8480 O   0  0  0  0  0  0  0  0  0  0  0  0
   -1.6810   -2.1020    0.4050 C   0  0  2  0  0  0  0  0  0  0  0  0
   -2.1620   -3.3990   -0.3250 C   0  0  0  0  0  0  0  0  0  0  0  0
   -1.7510   -2.5550    1.8190 C   0  0  0  0  0  0  0  0  0  0  0  0
   -0.7690   -3.0930    2.4240 O   0  0  0  0  0  0  0  0  0  0  0  0
   -2.9340   -2.4320    2.6360 C   0  0  0  0  0  0  0  0  0  0  0  0
   -4.0440   -1.9950    2.3030 O   0  0  0  0  0  0  0  0  0  0  0  0
   -0.3800   -1.6480   -0.1030 C   0  0  1  0  0  0  0  0  0  0  0  0
   -0.2510   -2.2900   -1.3630 O   0  0  0  0  0  0  0  0  0  0  0  0
    0.8210   -2.3490    0.9060 Cl  0  0  0  0  0  0  0  0  0  0  0  0
  1  2  1  0
  2  3  1  0
  3  4  1  6
  3  5  1  0
  3 10  1  0
  5  6  1  0
  6  7  1  0
  6  8  1  0
  6  9  2  0
 10 11  1  0
 10 17  1  1
 10 28  1  0
 11 12  1  0
 12 13  1  6
 12 14  1  0
 14 15  1  0
 14 22  1  0
 15 16  1  6
 15 17  1  0
 17 18  2  3
 18 19  1  0
 19 20  1  0
 19 21  2  0
 22 23  1  6
 22 24  1  0
 22 28  1  0
 24 25  2  0
 24 26  1  0
 26 27  2  0
 28 29  1  6
 28 30  1  0
M  CHG  1  19   1
M  END
