
     RDKit          3D

 30 32  0  0  0  0  0  0  0  0999 V2000
   -2.6900   -1.1740    2.0860 C   0  0  0  0  0  0  0  0  0  0  0  0
   -2.8420   -0.2270    0.9760 C   0  0  0  0  0  0  0  0  0  0  0  0
   -4.0380   -0.0340    0.6510 O   0  0  0  0  0  0  0  0  0  0  0  0
   -1.7340    0.4590    0.2820 C   0  0  1  0  0  0  0  0  0  0  0  0
   -2.1220    1.5820   -0.6570 C   0  0  0  0  0  0  0  0  0  0  0  0
   -2.7730    2.6490   -0.0470 F   0  0  0  0  0  0  0  0  0  0  0  0
   -1.2020    1.2490    1.4620 C   0  0  2  0  0  0  0  0  0  0  0  0
   -2.3250    2.0970    2.1160 C   0  0  0  0  0  0  0  0  0  0  0  0
   -0.0320    2.2190    1.1790 C   0  0  0  0  0  0  0  0  0  0  0  0
   -0.0430    1.1330    2.2360 C   0  0  0  0  0  0  0  0  0  0  0  0
    0.6770    0.6420    3.1290 O   0  0  0  0  0  0  0  0  0  0  0  0
   -0.7930   -0.5110   -0.3700 C   0  0  2  0  0  0  0  0  0  0  0  0
   -1.4080   -1.4260   -1.3540 C   0  0  2  0  0  0  0  0  0  0  0  0
   -2.4020   -2.4440   -0.7660 C   0  0  0  0  0  0  0  0  0  0  0  0
   -0.4810   -2.2680   -2.1980 C   0  0  0  0  0  0  0  0  0  0  0  0
   -2.2420   -0.7840   -2.4710 C   0  0  0  0  0  0  0  0  0  0  0  0
   -0.3360   -1.3650    0.6650 O   0  0  0  0  0  0  0  0  0  0  0  0
    1.0160   -1.5100    0.6000 C   0  0  1  0  0  0  0  0  0  0  0  0
    1.4680   -2.8170    0.4090 O   0  0  0  0  0  0  0  0  0  0  0  0
    2.3180   -3.4590    1.7220 Cl  0  0  0  0  0  0  0  0  0  0  0  0
    1.5110   -0.5390   -0.4330 C   0  0  2  0  0  0  0  0  0  0  0  0
    2.3330   -1.3640   -1.4410 C   0  0  0  0  0  0  0  0  0  0  0  0
    2.5520    0.3960    0.0640 C   0  0  0  0  0  0  0  0  0  0  0  0
    3.2280    0.4110    1.2500 C   0  0  0  0  0  0  0  0  0  0  0  0
    4.0850    1.4740    1.2660 N   0  0  0  0  0  0  0  0  0  0  0  0
    4.9340    1.8430    2.2790 O   0  0  0  0  0  0  0  0  0  0  0  0
    3.9360    2.1160    0.0870 C   0  0  0  0  0  0  0  0  0  0  0  0
    2.9930    1.4430   -0.6400 N   0  0  0  0  0  0  0  0  0  0  0  0
    2.6250    1.9200   -1.9550 C   0  0  0  0  0  0  0  0  0  0  0  0
    0.3750    0.0250   -0.8960 O   0  0  0  0  0  0  0  0  0  0  0  0
  1  2  1  0
  2  3  2  0
  2  4  1  0
  4  5  1  6
  4  7  1  0
  4 12  1  0
  5  6  1  0
  7  8  1  1
  7  9  1  0
  7 10  1  0
  9 10  1  0
 10 11  2  0
 12 13  1  0
 12 17  1  1
 12 30  1  0
 13 14  1  1
 13 15  1  0
 13 16  1  0
 17 18  1  0
 18 19  1  6
 18 21  1  0
 19 20  1  0
 21 22  1  6
 21 23  1  0
 21 30  1  0
 23 24  2  0
 23 28  1  0
 24 25  1  0
 25 26  1  0
 25 27  2  0
 27 28  1  0
 28 29  1  0
M  CHG  1  25   1
M  END
