
     RDKit          3D

 30 33  0  0  0  0  0  0  0  0999 V2000
   -8.2820   -1.6960   -0.8800 C   0  0  0  0  0  0  0  0  0  0  0  0
   -7.2650   -0.7090   -0.4830 C   0  0  0  0  0  0  0  0  0  0  0  0
   -7.5030    0.5520   -0.1210 N   0  0  0  0  0  0  0  0  0  0  0  0
   -6.3360    1.1770    0.1800 C   0  0  0  0  0  0  0  0  0  0  0  0
   -6.1970    2.5700    0.6180 C   0  0  0  0  0  0  0  0  0  0  0  0
   -5.2890    0.2770    0.0040 C   0  0  0  0  0  0  0  0  0  0  0  0
   -3.9220    0.3580    0.1580 C   0  0  0  0  0  0  0  0  0  0  0  0
   -3.1110   -0.7420   -0.1000 C   0  0  0  0  0  0  0  0  0  0  0  0
   -1.6680   -0.5680    0.0880 C   0  0  0  0  0  0  0  0  0  0  0  0
   -1.2030    0.0640    1.2190 C   0  0  0  0  0  0  0  0  0  0  0  0
    0.1410    0.2400    1.4180 C   0  0  0  0  0  0  0  0  0  0  0  0
    1.1120   -0.2020    0.5060 C   0  0  0  0  0  0  0  0  0  0  0  0
    2.4760    0.0300    0.8070 N   0  0  0  0  0  0  0  0  0  0  0  0
    3.5860   -0.3310    0.0340 C   0  0  0  0  0  0  0  0  0  0  0  0
    3.4260   -0.9240   -1.0510 O   0  0  0  0  0  0  0  0  0  0  0  0
    4.9710   -0.0240    0.4730 C   0  0  0  0  0  0  0  0  0  0  0  0
    5.3180    0.6200    1.6350 C   0  0  0  0  0  0  0  0  0  0  0  0
    6.6910    0.7000    1.6540 C   0  0  0  0  0  0  0  0  0  0  0  0
    7.1330    0.1010    0.5010 C   0  0  0  0  0  0  0  0  0  0  0  0
    8.5700   -0.0180    0.1440 C   0  0  0  0  0  0  0  0  0  0  0  0
    8.9600    1.1530   -0.6190 N   0  0  0  0  0  0  0  0  0  0  0  0
   10.3040    1.0970   -0.9830 N   0  0  0  0  0  0  0  0  0  0  0  0
   10.4960    1.9390   -2.4920 Cl  0  0  0  0  0  0  0  0  0  0  0  0
    6.0770   -0.3080   -0.1580 O   0  0  0  0  0  0  0  0  0  0  0  0
    0.6230   -0.8270   -0.6090 C   0  0  0  0  0  0  0  0  0  0  0  0
   -0.7490   -1.0150   -0.8280 C   0  0  0  0  0  0  0  0  0  0  0  0
   -3.6930   -1.9100   -0.5120 C   0  0  0  0  0  0  0  0  0  0  0  0
   -2.6630   -3.2970   -0.8360 Cl  0  0  0  0  0  0  0  0  0  0  0  0
   -5.0620   -1.9790   -0.6620 C   0  0  0  0  0  0  0  0  0  0  0  0
   -5.9040   -0.9060   -0.4150 C   0  0  0  0  0  0  0  0  0  0  0  0
  1  2  1  0
  2  3  1  0
  2 30  2  0
  3  4  1  0
  4  5  1  0
  4  6  2  0
  6  7  1  0
  6 30  1  0
  7  8  2  0
  8  9  1  0
  8 27  1  0
  9 10  2  0
  9 26  1  0
 10 11  1  0
 11 12  2  0
 12 13  1  0
 12 25  1  0
 13 14  1  0
 14 15  2  0
 14 16  1  0
 16 17  2  0
 16 24  1  0
 17 18  1  0
 18 19  2  0
 19 20  1  0
 19 24  1  0
 20 21  1  0
 21 22  1  0
 22 23  1  0
 25 26  2  0
 27 28  1  0
 27 29  2  0
 29 30  1  0
M  END
