
     RDKit          3D

 30 33  0  0  0  0  0  0  0  0999 V2000
   -0.6550   -1.7720   -1.6890 O   0  0  0  0  0  0  0  0  0  0  0  0
   -0.3620   -0.6400   -1.2360 C   0  0  0  0  0  0  0  0  0  0  0  0
    0.9720   -0.4000   -0.8700 N   0  0  0  0  0  0  0  0  0  0  0  0
    2.0380   -1.3410   -0.9680 C   0  0  0  0  0  0  0  0  0  0  0  0
    2.0260   -2.6390   -1.4340 C   0  0  0  0  0  0  0  0  0  0  0  0
    3.3240   -3.1330   -1.3290 C   0  0  0  0  0  0  0  0  0  0  0  0
    4.1170   -2.1780   -0.8160 N   0  0  0  0  0  0  0  0  0  0  0  0
    3.3560   -1.0940   -0.5940 C   0  0  0  0  0  0  0  0  0  0  0  0
    3.8360    0.1950   -0.0240 C   0  0  1  0  0  0  0  0  0  0  0  0
    3.5290    1.5680   -1.0860 Cl  0  0  0  0  0  0  0  0  0  0  0  0
    3.2340    0.4970    1.3330 C   0  0  0  0  0  0  0  0  0  0  0  0
    4.3600    0.9650    2.2280 C   0  0  0  0  0  0  0  0  0  0  0  0
    5.5160    1.1170    1.2840 C   0  0  0  0  0  0  0  0  0  0  0  0
    5.2630    0.1040    0.2470 N   0  0  0  0  0  0  0  0  0  0  0  0
   -1.4500    0.3530   -1.1240 C   0  0  0  0  0  0  0  0  0  0  0  0
   -1.2730    1.5510   -0.6760 C   0  0  0  0  0  0  0  0  0  0  0  0
   -2.3390    2.5280   -0.5660 C   0  0  0  0  0  0  0  0  0  0  0  0
   -2.1710    3.8890   -0.8850 C   0  0  0  0  0  0  0  0  0  0  0  0
   -3.3490    4.5330   -0.6640 C   0  0  0  0  0  0  0  0  0  0  0  0
   -3.6300    5.8470   -0.8420 F   0  0  0  0  0  0  0  0  0  0  0  0
   -4.2500    3.6160   -0.2150 C   0  0  0  0  0  0  0  0  0  0  0  0
   -3.6110    2.4120   -0.1650 N   0  0  0  0  0  0  0  0  0  0  0  0
   -2.7080   -0.0640   -1.5300 O   0  0  0  0  0  0  0  0  0  0  0  0
   -3.4480   -1.0410   -0.8750 C   0  0  0  0  0  0  0  0  0  0  0  0
   -2.9570   -1.6570    0.2510 C   0  0  0  0  0  0  0  0  0  0  0  0
   -3.6640   -2.6460    0.9470 C   0  0  0  0  0  0  0  0  0  0  0  0
   -4.9040   -2.9850    0.4460 C   0  0  0  0  0  0  0  0  0  0  0  0
   -5.4110   -2.3880   -0.6660 C   0  0  0  0  0  0  0  0  0  0  0  0
   -4.6940   -1.4180   -1.3320 C   0  0  0  0  0  0  0  0  0  0  0  0
   -5.3200   -0.6410   -2.7560 Cl  0  0  0  0  0  0  0  0  0  0  0  0
  1  2  2  0
  2  3  1  0
  2 15  1  0
  3  4  1  0
  4  5  1  0
  4  8  2  0
  5  6  2  0
  6  7  1  0
  7  8  1  0
  8  9  1  0
  9 10  1  6
  9 11  1  0
  9 14  1  0
 11 12  1  0
 12 13  1  0
 13 14  1  0
 15 16  2  3
 15 23  1  0
 16 17  1  0
 17 18  2  0
 17 22  1  0
 18 19  1  0
 19 20  1  0
 19 21  2  0
 21 22  1  0
 23 24  1  0
 24 25  2  0
 24 29  1  0
 25 26  1  0
 26 27  2  0
 27 28  1  0
 28 29  2  0
 29 30  1  0
M  END
