
     RDKit          3D

 31 34  0  0  0  0  0  0  0  0999 V2000
    6.7450    1.9520   -0.4100 C   0  0  0  0  0  0  0  0  0  0  0  0
    5.3720    1.7460    0.1590 C   0  0  0  0  0  0  0  0  0  0  0  0
    4.7620    0.4590   -0.3720 C   0  0  1  0  0  0  0  0  0  0  0  0
    5.4760   -0.6920   -0.1450 O   0  0  0  0  0  0  0  0  0  0  0  0
    3.3020    0.4000   -0.3140 C   0  0  0  0  0  0  0  0  0  0  0  0
    2.4170    0.9820   -1.1920 C   0  0  0  0  0  0  0  0  0  0  0  0
    1.0860    0.7130   -1.1890 N   0  0  0  0  0  0  0  0  0  0  0  0
    0.5150   -0.1220   -0.3430 C   0  0  0  0  0  0  0  0  0  0  0  0
   -0.8780   -0.3320   -0.2980 N   0  0  0  0  0  0  0  0  0  0  0  0
   -1.8700   -0.0370   -1.2970 C   0  0  0  0  0  0  0  0  0  0  0  0
   -3.2360   -0.2270   -0.8750 C   0  0  0  0  0  0  0  0  0  0  0  0
   -3.8660   -1.4270   -1.2460 C   0  0  0  0  0  0  0  0  0  0  0  0
   -3.0540   -2.4940   -1.8310 C   0  0  0  0  0  0  0  0  0  0  0  0
   -4.0330   -3.9660   -2.0170 Cl  0  0  0  0  0  0  0  0  0  0  0  0
   -5.1580   -1.6080   -1.0310 N   0  0  0  0  0  0  0  0  0  0  0  0
   -5.9300   -0.6550   -0.4490 C   0  0  0  0  0  0  0  0  0  0  0  0
   -7.1690   -0.8220   -0.2410 O   0  0  0  0  0  0  0  0  0  0  0  0
   -5.3350    0.5480   -0.0760 C   0  0  0  0  0  0  0  0  0  0  0  0
   -6.1480    1.5170    0.4500 C   0  0  0  0  0  0  0  0  0  0  0  0
   -5.5800    2.7360    0.7670 C   0  0  0  0  0  0  0  0  0  0  0  0
   -4.2260    2.9260    0.5510 C   0  0  0  0  0  0  0  0  0  0  0  0
   -3.4390    1.9600    0.0420 N   0  0  0  0  0  0  0  0  0  0  0  0
   -3.9950    0.7540   -0.2830 C   0  0  0  0  0  0  0  0  0  0  0  0
    1.3730   -0.7480    0.5880 C   0  0  0  0  0  0  0  0  0  0  0  0
    0.8200   -1.6310    1.5290 C   0  0  0  0  0  0  0  0  0  0  0  0
    1.6030   -2.2600    2.4790 C   0  0  0  0  0  0  0  0  0  0  0  0
    0.8880   -3.3600    3.6820 Cl  0  0  0  0  0  0  0  0  0  0  0  0
    2.9200   -2.0040    2.4760 C   0  0  0  0  0  0  0  0  0  0  0  0
    3.7520   -2.5860    3.3630 F   0  0  0  0  0  0  0  0  0  0  0  0
    3.4880   -1.1280    1.5530 C   0  0  0  0  0  0  0  0  0  0  0  0
    2.7260   -0.4920    0.6000 C   0  0  0  0  0  0  0  0  0  0  0  0
  1  2  1  0
  2  3  1  0
  3  4  1  1
  3  5  1  0
  5  6  2  0
  5 31  1  0
  6  7  1  0
  7  8  2  0
  8  9  1  0
  8 24  1  0
  9 10  1  0
 10 11  1  0
 11 12  2  0
 11 23  1  0
 12 13  1  0
 12 15  1  0
 13 14  1  0
 15 16  1  0
 16 17  2  0
 16 18  1  0
 18 19  2  0
 18 23  1  0
 19 20  1  0
 20 21  2  0
 21 22  1  0
 22 23  2  0
 24 25  2  0
 24 31  1  0
 25 26  1  0
 26 27  1  0
 26 28  2  0
 28 29  1  0
 28 30  1  0
 30 31  2  0
M  END
