
     RDKit          3D

 31 33  0  0  0  0  0  0  0  0999 V2000
    1.8310    1.1170   -2.6470 C   0  0  0  0  0  0  0  0  0  0  0  0
    0.7260    0.9580   -1.6520 C   0  0  0  0  0  0  0  0  0  0  0  0
   -0.5820    0.8810   -2.0990 C   0  0  0  0  0  0  0  0  0  0  0  0
   -1.6230    0.7230   -1.2700 N   0  0  0  0  0  0  0  0  0  0  0  0
   -1.4420    0.6330    0.0880 C   0  0  0  0  0  0  0  0  0  0  0  0
   -2.5890    0.5660    0.9390 N   0  0  0  0  0  0  0  0  0  0  0  0
   -3.9110    0.4600    0.3720 C   0  0  0  0  0  0  0  0  0  0  0  0
   -5.0050    0.7210    1.3960 C   0  0  2  0  0  0  0  0  0  0  0  0
   -4.8450    1.9730    1.8870 F   0  0  0  0  0  0  0  0  0  0  0  0
   -4.8460   -0.1510    2.4810 F   0  0  0  0  0  0  0  0  0  0  0  0
   -6.3460    0.4960    0.8160 C   0  0  0  0  0  0  0  0  0  0  0  0
   -6.7400   -0.8010    0.5570 C   0  0  0  0  0  0  0  0  0  0  0  0
   -7.9780   -1.1100    0.0190 C   0  0  0  0  0  0  0  0  0  0  0  0
   -8.8570   -0.0810   -0.2790 C   0  0  0  0  0  0  0  0  0  0  0  0
   -8.4390    1.2170   -0.0130 C   0  0  0  0  0  0  0  0  0  0  0  0
   -7.2190    1.4850    0.5210 N   0  0  0  0  0  0  0  0  0  0  0  0
   -0.1490    0.7100    0.5270 C   0  0  0  0  0  0  0  0  0  0  0  0
    0.0960    0.6410    1.7700 O   0  0  0  0  0  0  0  0  0  0  0  0
    0.9270    0.8690   -0.3150 N   0  0  0  0  0  0  0  0  0  0  0  0
    2.2740    0.9440    0.1460 C   0  0  0  0  0  0  0  0  0  0  0  0
    3.1320   -0.2090    0.0230 C   0  0  0  0  0  0  0  0  0  0  0  0
    3.8650   -0.3050   -1.0650 O   0  0  0  0  0  0  0  0  0  0  0  0
    3.3540   -1.3010    0.9010 N   0  0  0  0  0  0  0  0  0  0  0  0
    4.3460   -2.3210    0.4560 C   0  0  0  0  0  0  0  0  0  0  0  0
    5.6300   -1.5390    0.3330 C   0  0  0  0  0  0  0  0  0  0  0  0
    5.6440   -0.2390    0.7750 N   0  0  0  0  0  0  0  0  0  0  0  0
    6.8080    0.4520    0.6720 C   0  0  0  0  0  0  0  0  0  0  0  0
    7.9810   -0.0310    0.1620 C   0  0  0  0  0  0  0  0  0  0  0  0
    7.9800   -1.3520   -0.2920 C   0  0  0  0  0  0  0  0  0  0  0  0
    6.7850   -2.0650   -0.1830 C   0  0  0  0  0  0  0  0  0  0  0  0
    6.7620   -3.3470   -0.6280 F   0  0  0  0  0  0  0  0  0  0  0  0
  1  2  1  0
  2  3  2  0
  2 19  1  0
  3  4  1  0
  4  5  2  0
  5  6  1  0
  5 17  1  0
  6  7  1  0
  7  8  1  0
  8  9  1  1
  8 10  1  0
  8 11  1  0
 11 12  2  0
 11 16  1  0
 12 13  1  0
 13 14  2  0
 14 15  1  0
 15 16  2  0
 17 18  2  0
 17 19  1  0
 19 20  1  0
 20 21  1  0
 21 22  2  0
 21 23  1  0
 23 24  1  0
 24 25  1  0
 25 26  2  0
 25 30  1  0
 26 27  1  0
 27 28  2  0
 28 29  1  0
 29 30  2  0
 30 31  1  0
M  END
