
     RDKit          3D

 31 35  0  0  0  0  0  0  0  0999 V2000
    7.8370    1.7190    0.8180 C   0  0  0  0  0  0  0  0  0  0  0  0
    6.5560    1.1400    0.3010 C   0  0  0  0  0  0  0  0  0  0  0  0
    6.2760    1.0900   -1.0480 C   0  0  0  0  0  0  0  0  0  0  0  0
    7.1770    1.5740   -1.9330 F   0  0  0  0  0  0  0  0  0  0  0  0
    5.0930    0.5550   -1.5160 C   0  0  0  0  0  0  0  0  0  0  0  0
    4.1330    0.0440   -0.6590 C   0  0  0  0  0  0  0  0  0  0  0  0
    2.8490   -0.5380   -1.1480 C   0  0  2  0  0  0  0  0  0  0  0  0
    1.6700    0.3330   -0.7460 C   0  0  0  0  0  0  0  0  0  0  0  0
    0.5170   -0.5720   -0.4490 C   0  0  2  0  0  0  0  0  0  0  0  0
   -0.6440    0.0280   -0.0900 O   0  0  0  0  0  0  0  0  0  0  0  0
   -1.3040   -0.7060    0.8760 C   0  0  1  0  0  0  0  0  0  0  0  0
   -2.6810   -1.0680    0.5610 C   0  0  0  0  0  0  0  0  0  0  0  0
   -3.1690   -2.3430    0.7030 C   0  0  0  0  0  0  0  0  0  0  0  0
   -4.4940   -2.6350    0.3910 C   0  0  0  0  0  0  0  0  0  0  0  0
   -4.9700   -3.8920    0.5320 F   0  0  0  0  0  0  0  0  0  0  0  0
   -5.3480   -1.6630   -0.0660 C   0  0  0  0  0  0  0  0  0  0  0  0
   -4.8350   -0.3780   -0.2030 C   0  0  0  0  0  0  0  0  0  0  0  0
   -3.5380   -0.0760    0.1000 C   0  0  0  0  0  0  0  0  0  0  0  0
   -3.0160    1.2770   -0.0470 C   0  0  0  0  0  0  0  0  0  0  0  0
   -4.0090    2.3750   -0.1420 C   0  0  0  0  0  0  0  0  0  0  0  0
   -5.4390    1.9940   -0.0400 C   0  0  1  0  0  0  0  0  0  0  0  0
   -6.2840    3.0510   -0.7180 C   0  0  0  0  0  0  0  0  0  0  0  0
   -5.7570    0.6700   -0.6960 C   0  0  0  0  0  0  0  0  0  0  0  0
   -0.4220   -1.8930    1.2130 C   0  0  0  0  0  0  0  0  0  0  0  0
    0.9270   -1.3170    0.8350 C   0  0  1  0  0  0  0  0  0  0  0  0
    1.9460   -2.3110    0.4140 C   0  0  0  0  0  0  0  0  0  0  0  0
    2.6910   -1.9780   -0.8320 C   0  0  1  0  0  0  0  0  0  0  0  0
    2.1800   -2.6860   -1.9460 O   0  0  0  0  0  0  0  0  0  0  0  0
    4.4280    0.1010    0.6880 C   0  0  0  0  0  0  0  0  0  0  0  0
    5.6080    0.6340    1.1640 C   0  0  0  0  0  0  0  0  0  0  0  0
    5.8880    0.6850    2.4890 F   0  0  0  0  0  0  0  0  0  0  0  0
  1  2  1  0
  2  3  2  0
  2 30  1  0
  3  4  1  0
  3  5  1  0
  5  6  2  0
  7  6  1  1
  6 29  1  0
  7  8  1  0
  7 27  1  0
  9  8  1  1
  9 10  1  0
  9 25  1  0
 10 11  1  0
 11 12  1  6
 11 24  1  0
 12 13  2  0
 12 18  1  0
 13 14  1  0
 14 15  1  0
 14 16  2  0
 16 17  1  0
 17 18  2  0
 17 23  1  0
 18 19  1  0
 19 20  1  0
 20 21  1  0
 21 22  1  6
 21 23  1  0
 25 24  1  6
 25 26  1  0
 26 27  1  0
 27 28  1  6
 29 30  2  0
 30 31  1  0
M  END
