
     RDKit          3D

 32 35  0  0  0  0  0  0  0  0999 V2000
   -0.5320    3.5580   -0.1610 C   0  0  0  0  0  0  0  0  0  0  0  0
   -1.2610    2.3570   -0.7460 C   0  0  1  0  0  0  0  0  0  0  0  0
   -2.4050    2.9650   -1.5800 C   0  0  0  0  0  0  0  0  0  0  0  0
   -0.4310    1.4960   -1.6010 C   0  0  0  0  0  0  0  0  0  0  0  0
   -0.8080    0.0890   -1.2260 C   0  0  1  0  0  0  0  0  0  0  0  0
   -0.2030   -0.5890   -0.0830 C   0  0  1  0  0  0  0  0  0  0  0  0
    1.0740   -0.3240    0.5770 C   0  0  2  0  0  0  0  0  0  0  0  0
    1.3800    0.9680    1.2190 C   0  0  0  0  0  0  0  0  0  0  0  0
    2.6980    0.7400    2.0070 C   0  0  0  0  0  0  0  0  0  0  0  0
    3.8540    0.5150    1.1020 C   0  0  1  0  0  0  0  0  0  0  0  0
    4.5390    1.8770    0.9100 C   0  0  0  0  0  0  0  0  0  0  0  0
    4.8540   -0.3570    1.8430 C   0  0  0  0  0  0  0  0  0  0  0  0
    3.4720   -0.0740   -0.2460 C   0  0  2  0  0  0  0  0  0  0  0  0
    3.5650    0.9330   -1.3460 C   0  0  0  0  0  0  0  0  0  0  0  0
    3.2270    0.4440   -2.6030 O   0  0  0  0  0  0  0  0  0  0  0  0
    2.2680   -0.9230   -0.1830 C   0  0  1  0  0  0  0  0  0  0  0  0
    2.7290   -2.2350    0.5130 C   0  0  0  0  0  0  0  0  0  0  0  0
    1.8570   -1.4340   -1.5420 C   0  0  0  0  0  0  0  0  0  0  0  0
   -1.5270    0.0310    0.0230 C   0  0  2  0  0  0  0  0  0  0  0  0
   -2.6120   -0.8790    0.4860 C   0  0  2  0  0  0  0  0  0  0  0  0
   -3.0690   -0.3850    1.7650 O   0  0  0  0  0  0  0  0  0  0  0  0
   -1.9440   -2.1870    0.9760 C   0  0  0  0  0  0  0  0  0  0  0  0
   -2.9030   -2.8050    1.9370 C   0  0  0  0  0  0  0  0  0  0  0  0
   -2.4900   -3.4960    2.8810 O   0  0  0  0  0  0  0  0  0  0  0  0
   -4.2890   -2.5770    1.7350 N   0  0  0  0  0  0  0  0  0  0  0  0
   -4.7850   -1.8450    0.6390 C   0  0  0  0  0  0  0  0  0  0  0  0
   -6.0050   -1.7890    0.4210 O   0  0  0  0  0  0  0  0  0  0  0  0
   -3.8170   -1.1290   -0.2710 C   0  0  1  0  0  0  0  0  0  0  0  0
   -4.5600    0.1170   -0.6760 C   0  0  0  0  0  0  0  0  0  0  0  0
   -3.7790   -2.0360   -1.4720 C   0  0  0  0  0  0  0  0  0  0  0  0
   -3.3840   -3.3350   -1.2010 O   0  0  0  0  0  0  0  0  0  0  0  0
   -1.7760    1.4700    0.3220 C   0  0  0  0  0  0  0  0  0  0  0  0
  2  1  1  1
  2  3  1  0
  2  4  1  0
  2 32  1  0
  5  4  1  1
  5  6  1  0
  5 19  1  0
  6  7  1  1
  6 19  1  0
  7  8  1  6
  7 16  1  0
  8  9  1  0
  9 10  1  0
 10 11  1  6
 10 12  1  0
 10 13  1  0
 13 14  1  6
 13 16  1  0
 14 15  1  0
 16 17  1  1
 16 18  1  0
 19 20  1  0
 19 32  1  1
 20 21  1  1
 20 22  1  0
 20 28  1  0
 22 23  1  0
 23 24  2  0
 23 25  1  0
 25 26  1  0
 26 27  2  0
 26 28  1  0
 28 29  1  6
 28 30  1  0
 30 31  1  0
M  END
