
     RDKit          3D

 33 35  0  0  0  0  0  0  0  0999 V2000
   -4.4200    0.0300   -2.2940 C   0  0  0  0  0  0  0  0  0  0  0  0
   -4.2270   -0.2690   -0.8460 C   0  0  0  0  0  0  0  0  0  0  0  0
   -3.0040   -0.2940   -0.3490 C   0  0  0  0  0  0  0  0  0  0  0  0
   -1.8150   -0.0270   -1.2080 C   0  0  0  0  0  0  0  0  0  0  0  0
   -1.9850    0.1970   -2.4290 O   0  0  0  0  0  0  0  0  0  0  0  0
   -0.4950   -0.0120   -0.7140 N   0  0  0  0  0  0  0  0  0  0  0  0
    0.6850    0.2220   -1.4410 C   0  0  0  0  0  0  0  0  0  0  0  0
    0.7330    0.4260   -2.7980 C   0  0  0  0  0  0  0  0  0  0  0  0
    1.9790    0.6450   -3.4230 C   0  0  0  0  0  0  0  0  0  0  0  0
    1.9890    0.8440   -4.7780 F   0  0  0  0  0  0  0  0  0  0  0  0
    3.1610    0.6640   -2.7250 C   0  0  0  0  0  0  0  0  0  0  0  0
    3.1050    0.4580   -1.3650 C   0  0  0  0  0  0  0  0  0  0  0  0
    1.8980    0.2420   -0.7350 C   0  0  0  0  0  0  0  0  0  0  0  0
    1.8380    0.0360    0.6290 O   0  0  0  0  0  0  0  0  0  0  0  0
    3.0760    0.0600    1.3360 C   0  0  0  0  0  0  0  0  0  0  0  0
    3.6470    1.3400    1.7070 C   0  0  0  0  0  0  0  0  0  0  0  0
    5.1620    1.5450    2.5530 Cl  0  0  0  0  0  0  0  0  0  0  0  0
    2.9440    2.4390    1.3550 C   0  0  0  0  0  0  0  0  0  0  0  0
    3.4230    3.8050    1.6780 C   0  0  2  0  0  0  0  0  0  0  0  0
    3.2250    4.6270    0.5580 F   0  0  0  0  0  0  0  0  0  0  0  0
    4.7890    3.8170    1.9450 F   0  0  0  0  0  0  0  0  0  0  0  0
    2.5410    4.5140    3.0290 Cl  0  0  0  0  0  0  0  0  0  0  0  0
    3.6680   -1.0650    1.6310 C   0  0  0  0  0  0  0  0  0  0  0  0
    4.8950   -1.4020    2.3210 C   0  0  0  0  0  0  0  0  0  0  0  0
    5.3020   -2.5950    1.9160 C   0  0  0  0  0  0  0  0  0  0  0  0
    4.3700   -3.1530    0.9160 C   0  0  0  0  0  0  0  0  0  0  0  0
    3.0780   -2.4110    1.2150 C   0  0  0  0  0  0  0  0  0  0  0  0
   -2.8580   -0.6240    1.0570 C   0  0  0  0  0  0  0  0  0  0  0  0
   -1.8910   -1.2900    1.4910 O   0  0  0  0  0  0  0  0  0  0  0  0
   -3.9310   -0.1260    1.9620 C   0  0  0  0  0  0  0  0  0  0  0  0
   -5.2780   -0.5660    1.4330 C   0  0  0  0  0  0  0  0  0  0  0  0
   -5.4370   -0.5120   -0.0320 C   0  0  1  0  0  0  0  0  0  0  0  0
   -6.4620    0.5780   -0.3390 C   0  0  0  0  0  0  0  0  0  0  0  0
  1  2  1  0
  2  3  2  0
  2 32  1  0
  3  4  1  0
  3 28  1  0
  4  5  2  0
  4  6  1  0
  6  7  1  0
  7  8  2  0
  7 13  1  0
  8  9  1  0
  9 10  1  0
  9 11  2  0
 11 12  1  0
 12 13  2  0
 13 14  1  0
 14 15  1  0
 15 16  1  0
 15 23  2  3
 16 17  1  0
 16 18  2  3
 18 19  1  0
 19 20  1  6
 19 21  1  0
 19 22  1  0
 23 24  1  0
 23 27  1  0
 24 25  2  0
 25 26  1  0
 26 27  1  0
 28 29  2  0
 28 30  1  0
 30 31  1  0
 31 32  1  0
 32 33  1  1
M  END
