
     RDKit          3D

 33 35  0  0  0  0  0  0  0  0999 V2000
    1.9510    5.4490    2.4710 C   0  0  0  0  0  0  0  0  0  0  0  0
    2.3890    4.0970    2.9290 C   0  0  0  0  0  0  0  0  0  0  0  0
    2.0840    3.0710    2.0230 O   0  0  0  0  0  0  0  0  0  0  0  0
    0.8190    2.7340    1.5970 C   0  0  0  0  0  0  0  0  0  0  0  0
   -0.1310    3.4090    2.0650 O   0  0  0  0  0  0  0  0  0  0  0  0
    0.5130    1.6710    0.6590 C   0  0  0  0  0  0  0  0  0  0  0  0
   -0.7930    1.4200    0.3160 C   0  0  0  0  0  0  0  0  0  0  0  0
   -1.1750    0.4360   -0.5570 C   0  0  0  0  0  0  0  0  0  0  0  0
   -2.5970    0.2000   -0.8880 C   0  0  0  0  0  0  0  0  0  0  0  0
   -3.1320   -1.0700   -0.8720 C   0  0  0  0  0  0  0  0  0  0  0  0
   -4.4480   -1.3510   -1.1660 C   0  0  0  0  0  0  0  0  0  0  0  0
   -4.9740   -2.7610   -1.1320 C   0  0  0  0  0  0  0  0  0  0  0  0
   -5.7940   -3.0340    0.0810 C   0  0  0  0  0  0  0  0  0  0  0  0
   -5.2710   -0.2960   -1.4930 C   0  0  0  0  0  0  0  0  0  0  0  0
   -6.5760   -0.5400   -1.7890 F   0  0  0  0  0  0  0  0  0  0  0  0
   -4.7780    1.0130   -1.5230 C   0  0  0  0  0  0  0  0  0  0  0  0
   -3.4460    1.2350   -1.2190 C   0  0  0  0  0  0  0  0  0  0  0  0
   -2.8580    2.8820   -1.2680 Cl  0  0  0  0  0  0  0  0  0  0  0  0
   -0.1900   -0.3430   -1.1180 C   0  0  0  0  0  0  0  0  0  0  0  0
   -0.4970   -1.4380   -2.0830 C   0  0  0  0  0  0  0  0  0  0  0  0
    1.1440   -0.1050   -0.7830 C   0  0  0  0  0  0  0  0  0  0  0  0
    1.5180    0.8900    0.0980 C   0  0  0  0  0  0  0  0  0  0  0  0
    2.9370    1.1230    0.4220 C   0  0  0  0  0  0  0  0  0  0  0  0
    3.8570    0.2230   -0.2150 N   0  0  0  0  0  0  0  0  0  0  0  0
    3.9010   -1.1740   -0.0110 C   0  0  0  0  0  0  0  0  0  0  0  0
    4.6090   -1.9290   -0.8270 C   0  0  0  0  0  0  0  0  0  0  0  0
    5.4790   -1.1270   -2.1580 Cl  0  0  0  0  0  0  0  0  0  0  0  0
    4.7120   -3.3840   -0.6860 C   0  0  2  0  0  0  0  0  0  0  0  0
    4.3400   -3.9470   -1.9050 F   0  0  0  0  0  0  0  0  0  0  0  0
    3.9900   -3.8890    0.3740 O   0  0  0  0  0  0  0  0  0  0  0  0
    3.2510   -3.1500    1.2380 C   0  0  0  0  0  0  0  0  0  0  0  0
    3.1890   -1.8280    1.0760 C   0  0  0  0  0  0  0  0  0  0  0  0
    2.4380   -1.1120    1.9580 F   0  0  0  0  0  0  0  0  0  0  0  0
  1  2  1  0
  2  3  1  0
  3  4  1  0
  4  5  2  0
  4  6  1  0
  6  7  2  0
  6 22  1  0
  7  8  1  0
  8  9  1  0
  8 19  2  0
  9 10  2  0
  9 17  1  0
 10 11  1  0
 11 12  1  0
 11 14  2  0
 12 13  1  0
 14 15  1  0
 14 16  1  0
 16 17  2  0
 17 18  1  0
 19 20  1  0
 19 21  1  0
 21 22  2  0
 22 23  1  0
 23 24  1  0
 24 25  1  0
 25 26  2  0
 25 32  1  0
 26 27  1  0
 26 28  1  0
 28 29  1  6
 28 30  1  0
 30 31  1  0
 31 32  2  0
 32 33  1  0
M  END
