
     RDKit          3D

 33 35  0  0  0  0  0  0  0  0999 V2000
   -3.7450   -5.3230   -2.6880 C   0  0  0  0  0  0  0  0  0  0  0  0
   -2.7290   -4.4140   -2.3090 O   0  0  0  0  0  0  0  0  0  0  0  0
   -2.9400   -3.2570   -1.6000 C   0  0  0  0  0  0  0  0  0  0  0  0
   -4.1030   -2.9570   -1.2500 O   0  0  0  0  0  0  0  0  0  0  0  0
   -1.8370   -2.3710   -1.2460 C   0  0  0  0  0  0  0  0  0  0  0  0
   -2.0370   -1.0260   -0.9560 C   0  0  0  0  0  0  0  0  0  0  0  0
   -0.9870   -0.2010   -0.6280 C   0  0  0  0  0  0  0  0  0  0  0  0
   -1.2910    1.1880   -0.3300 C   0  0  0  0  0  0  0  0  0  0  0  0
   -2.2770    1.6150    0.4350 C   0  0  0  0  0  0  0  0  0  0  0  0
   -2.5880    3.0670    0.7380 C   0  0  0  0  0  0  0  0  0  0  0  0
   -4.1130    2.9970    0.6040 C   0  0  0  0  0  0  0  0  0  0  0  0
   -4.4520    1.7180    1.2920 C   0  0  0  0  0  0  0  0  0  0  0  0
   -5.3950    1.0770    1.9590 C   0  0  0  0  0  0  0  0  0  0  0  0
   -4.8560   -0.2680    2.3070 C   0  0  0  0  0  0  0  0  0  0  0  0
   -3.5010   -0.3070    1.7690 C   0  0  0  0  0  0  0  0  0  0  0  0
   -3.2650    0.8450    1.1730 C   0  0  0  0  0  0  0  0  0  0  0  0
    0.3290   -0.6890   -0.5740 C   0  0  0  0  0  0  0  0  0  0  0  0
    1.3530    0.2310   -0.2240 N   0  0  0  0  0  0  0  0  0  0  0  0
    2.7050   -0.0550   -0.1390 C   0  0  0  0  0  0  0  0  0  0  0  0
    3.1550   -1.2020   -0.3730 O   0  0  0  0  0  0  0  0  0  0  0  0
    3.7750    0.9340    0.2300 C   0  0  0  0  0  0  0  0  0  0  0  0
    5.0130    0.5410    0.2780 C   0  0  0  0  0  0  0  0  0  0  0  0
    6.1350    1.3620    0.6110 C   0  0  0  0  0  0  0  0  0  0  0  0
    7.3680    0.8230    0.6210 C   0  0  0  0  0  0  0  0  0  0  0  0
    8.5180    1.6820    0.9660 C   0  0  0  0  0  0  0  0  0  0  0  0
    9.3970    1.0860    2.3980 Cl  0  0  0  0  0  0  0  0  0  0  0  0
    3.2710    2.2850    0.5000 C   0  0  1  0  0  0  0  0  0  0  0  0
    2.3450    2.1380    1.5540 F   0  0  0  0  0  0  0  0  0  0  0  0
    4.1820    3.2170    0.8760 F   0  0  0  0  0  0  0  0  0  0  0  0
    2.5620    2.7310   -0.6100 F   0  0  0  0  0  0  0  0  0  0  0  0
    0.5100   -2.0090   -0.8610 C   0  0  0  0  0  0  0  0  0  0  0  0
   -0.5450   -2.8110   -1.1840 C   0  0  0  0  0  0  0  0  0  0  0  0
   -0.2770   -4.5220   -1.5510 Cl  0  0  0  0  0  0  0  0  0  0  0  0
  1  2  1  0
  2  3  1  0
  3  4  2  0
  3  5  1  0
  5  6  2  0
  5 32  1  0
  6  7  1  0
  7  8  1  0
  7 17  2  0
  8  9  2  3
  9 10  1  0
  9 16  1  0
 10 11  1  0
 11 12  1  0
 12 13  2  0
 12 16  1  0
 13 14  1  0
 14 15  1  0
 15 16  2  0
 17 18  1  0
 17 31  1  0
 18 19  1  0
 19 20  2  0
 19 21  1  0
 21 22  2  3
 21 27  1  0
 22 23  1  0
 23 24  2  3
 24 25  1  0
 25 26  1  0
 27 28  1  1
 27 29  1  0
 27 30  1  0
 31 32  2  0
 32 33  1  0
M  END
