
     RDKit          3D

 15 15  0  0  0  0  0  0  0  0999 V2000
   -1.1810    2.8390   -0.5600 C   0  0  0  0  0  0  0  0  0  0  0  0
   -1.2110    1.6050   -0.8050 N   0  0  0  0  0  0  0  0  0  0  0  0
   -1.3450    0.6190    0.2050 C   0  0  2  0  0  0  0  0  0  0  0  0
   -2.6930    1.2250    1.2770 Cl  0  0  0  0  0  0  0  0  0  0  0  0
   -0.2640    0.5420    1.0090 O   0  0  0  0  0  0  0  0  0  0  0  0
    0.7420   -0.1140    0.2660 C   0  0  1  0  0  0  0  0  0  0  0  0
    2.0900    0.1390    0.8690 C   0  0  0  0  0  0  0  0  0  0  0  0
    2.9750    0.0950   -0.2170 O   0  0  0  0  0  0  0  0  0  0  0  0
    3.5910    1.2340   -0.2760 O   0  0  0  0  0  0  0  0  0  0  0  0
    0.3250   -1.5680    0.2690 C   0  0  0  0  0  0  0  0  0  0  0  0
   -0.9350   -1.6620   -0.4490 N   0  0  2  0  0  0  0  0  0  0  0  0
   -1.5760   -2.7660   -0.0120 O   0  0  0  0  0  0  0  0  0  0  0  0
   -0.6380   -1.8730   -1.7530 O   0  0  0  0  0  0  0  0  0  0  0  0
   -1.7680   -0.5840   -0.3770 N   0  0  0  0  0  0  0  0  0  0  0  0
   -3.4220   -0.8310   -0.6020 Cl  0  0  0  0  0  0  0  0  0  0  0  0
  1  2  2  0
  2  3  1  0
  3  4  1  1
  3  5  1  0
  3 14  1  0
  5  6  1  0
  6  7  1  1
  6 10  1  0
  7  8  1  0
  8  9  1  0
 10 11  1  0
 11 12  1  1
 11 13  1  0
 11 14  1  0
 14 15  1  0
M  CHG  1  11   1
M  END
