
     RDKit          3D

 16 16  0  0  0  0  0  0  0  0999 V2000
    1.9770   -2.6120    0.0260 C   0  0  0  0  0  0  0  0  0  0  0  0
    1.5080   -1.3760   -0.1390 C   0  0  0  0  0  0  0  0  0  0  0  0
    0.1290   -1.0960    0.2170 C   0  0  0  0  0  0  0  0  0  0  0  0
   -0.6100   -2.1860    0.7290 N   0  0  0  0  0  0  0  0  0  0  0  0
   -0.4400    0.0580    0.0920 C   0  0  0  0  0  0  0  0  0  0  0  0
   -1.8050    0.4390    0.4190 C   0  0  0  0  0  0  0  0  0  0  0  0
   -2.1570    1.6950    0.1980 C   0  0  0  0  0  0  0  0  0  0  0  0
   -3.4650    2.3050    0.4470 C   0  0  0  0  0  0  0  0  0  0  0  0
   -2.7800   -0.5220    0.9780 C   0  0  0  0  0  0  0  0  0  0  0  0
   -4.0350    0.0220    1.2280 O   0  0  0  0  0  0  0  0  0  0  0  0
    2.4160   -0.3880   -0.6840 C   0  0  0  0  0  0  0  0  0  0  0  0
    3.4780   -0.7580   -1.5210 C   0  0  0  0  0  0  0  0  0  0  0  0
    4.3380    0.1360   -1.9930 N   0  0  0  0  0  0  0  0  0  0  0  0
    4.2230    1.4380   -1.6860 C   0  0  0  0  0  0  0  0  0  0  0  0
    3.1890    1.8530   -0.8630 C   0  0  0  0  0  0  0  0  0  0  0  0
    2.3560    0.9260   -0.4160 N   0  0  0  0  0  0  0  0  0  0  0  0
  1  2  2  0
  2  3  1  0
  2 11  1  0
  3  4  1  0
  3  5  2  3
  5  6  1  0
  6  7  2  3
  6  9  1  0
  7  8  1  0
  9 10  1  0
 11 12  2  0
 11 16  1  0
 12 13  1  0
 13 14  2  0
 14 15  1  0
 15 16  2  0
M  END
