
     RDKit          3D

 15 15  0  0  0  0  0  0  0  0999 V2000
    1.3300    1.3840    0.6230 N   0  0  0  0  0  0  0  0  0  0  0  0
    1.5800   -0.0150    0.4640 C   0  0  1  0  0  0  0  0  0  0  0  0
    0.6510   -0.6440   -0.5770 C   0  0  0  0  0  0  0  0  0  0  0  0
   -0.7250   -0.5040   -0.2190 N   0  0  0  0  0  0  0  0  0  0  0  0
   -1.4280    0.5680   -0.6140 C   0  0  0  0  0  0  0  0  0  0  0  0
   -2.7690    0.6640   -0.2420 C   0  0  0  0  0  0  0  0  0  0  0  0
   -3.9460    2.3080   -0.8160 I   0  0  0  0  0  0  0  0  0  0  0  0
   -3.3610   -0.3270    0.5210 C   0  0  0  0  0  0  0  0  0  0  0  0
   -4.5500   -0.2960    0.8830 O   0  0  0  0  0  0  0  0  0  0  0  0
   -2.6130   -1.3760    0.8890 N   0  0  0  0  0  0  0  0  0  0  0  0
   -1.3250   -1.4510    0.5210 C   0  0  0  0  0  0  0  0  0  0  0  0
   -0.6390   -2.4520    0.8800 O   0  0  0  0  0  0  0  0  0  0  0  0
    2.9720   -0.2290    0.0390 C   0  0  0  0  0  0  0  0  0  0  0  0
    3.4060   -1.3810   -0.1600 O   0  0  0  0  0  0  0  0  0  0  0  0
    3.8080    0.8470   -0.1430 O   0  0  0  0  0  0  0  0  0  0  0  0
  2  1  1  6
  2  3  1  0
  2 13  1  0
  3  4  1  0
  4  5  1  0
  4 11  1  0
  5  6  2  0
  6  7  1  0
  6  8  1  0
  8  9  2  0
  8 10  1  0
 10 11  1  0
 11 12  2  0
 13 14  2  0
 13 15  1  0
M  CHG  1   1   1
M  END
