
     RDKit          3D

 16 17  0  0  0  0  0  0  0  0999 V2000
    2.7730    1.5660   -0.1560 C   0  0  0  0  0  0  0  0  0  0  0  0
    3.2920    0.3350    0.0150 C   0  0  0  0  0  0  0  0  0  0  0  0
    4.6990    0.1090   -0.3290 C   0  0  0  0  0  0  0  0  0  0  0  0
    5.1040   -1.2720   -0.0880 C   0  0  0  0  0  0  0  0  0  0  0  0
    4.2870   -2.1760    0.3780 C   0  0  0  0  0  0  0  0  0  0  0  0
    2.8970   -1.9530    0.7170 C   0  0  0  0  0  0  0  0  0  0  0  0
    2.4350   -0.7110    0.5280 C   0  0  0  0  0  0  0  0  0  0  0  0
    1.0840   -0.3940    0.8280 N   0  0  0  0  0  0  0  0  0  0  0  0
    0.1790   -0.0060   -0.1640 N   0  0  0  0  0  0  0  0  0  0  0  0
   -1.1000    0.5170    0.1810 C   0  0  0  0  0  0  0  0  0  0  0  0
   -1.4290    0.6310    1.4000 O   0  0  0  0  0  0  0  0  0  0  0  0
   -2.0460    0.9250   -0.7970 N   0  0  0  0  0  0  0  0  0  0  0  0
   -3.3560    1.4590   -0.4270 C   0  0  0  0  0  0  0  0  0  0  0  0
   -4.1750    0.4910    0.3650 C   0  0  2  0  0  0  0  0  0  0  0  0
   -4.5580   -0.8310   -0.1830 C   0  0  0  0  0  0  0  0  0  0  0  0
   -5.5730    0.2640   -0.1510 C   0  0  0  0  0  0  0  0  0  0  0  0
  1  2  2  0
  2  3  1  0
  2  7  1  0
  3  4  1  0
  4  5  2  0
  5  6  1  0
  6  7  2  0
  7  8  1  0
  8  9  1  0
  9 10  1  0
 10 11  2  0
 10 12  1  0
 12 13  1  0
 14 13  1  6
 14 15  1  0
 14 16  1  0
 15 16  1  0
M  END
