
     RDKit          3D

 15 16  0  0  0  0  0  0  0  0999 V2000
   -2.2070    2.2070    2.0910 C   0  0  0  0  0  0  0  0  0  0  0  0
   -2.4910    1.0210    1.2870 C   0  0  0  0  0  0  0  0  0  0  0  0
   -3.7090    0.6440    0.8560 N   0  0  0  0  0  0  0  0  0  0  0  0
   -3.6370   -0.4600    0.1590 N   0  0  0  0  0  0  0  0  0  0  0  0
   -2.3460   -0.8220    0.1270 C   0  0  0  0  0  0  0  0  0  0  0  0
   -1.5750    0.0800    0.8250 C   0  0  0  0  0  0  0  0  0  0  0  0
   -0.1270    0.1230    1.0840 C   0  0  0  0  0  0  0  0  0  0  0  0
    0.6820   -0.2540   -0.1160 C   0  0  0  0  0  0  0  0  0  0  0  0
    1.8950    0.2300   -0.0230 C   0  0  0  0  0  0  0  0  0  0  0  0
    2.8750    0.0020   -1.0640 C   0  0  0  0  0  0  0  0  0  0  0  0
    4.1180    0.5030   -0.9630 C   0  0  0  0  0  0  0  0  0  0  0  0
    4.4880    1.2660    0.1710 N   0  0  0  0  0  0  0  0  0  0  0  0
    0.4410   -1.0110   -1.3220 C   0  0  0  0  0  0  0  0  0  0  0  0
   -0.8590   -1.5740   -1.6440 C   0  0  0  0  0  0  0  0  0  0  0  0
   -1.7720   -2.0150   -0.5560 C   0  0  0  0  0  0  0  0  0  0  0  0
  1  2  1  0
  2  3  2  0
  2  6  1  0
  3  4  1  0
  4  5  1  0
  5  6  2  0
  5 15  1  0
  6  7  1  0
  7  8  1  0
  8  9  2  3
  8 13  1  0
  9 10  1  0
 10 11  2  3
 11 12  1  0
 13 14  1  0
 14 15  1  0
M  END
