
     RDKit          3D

 16 16  0  0  0  0  0  0  0  0999 V2000
   -3.8080    1.0260   -1.3090 C   0  0  0  0  0  0  0  0  0  0  0  0
   -2.8760    0.1700   -0.9910 C   0  0  0  0  0  0  0  0  0  0  0  0
   -2.6740   -0.9310   -1.9390 C   0  0  0  0  0  0  0  0  0  0  0  0
   -1.5350   -1.6070   -2.1320 C   0  0  0  0  0  0  0  0  0  0  0  0
   -0.2910   -1.4170   -1.4760 N   0  0  0  0  0  0  0  0  0  0  0  0
    0.1240   -0.5960   -0.3870 C   0  0  0  0  0  0  0  0  0  0  0  0
    1.5350   -0.6300   -0.0900 C   0  0  0  0  0  0  0  0  0  0  0  0
    2.2830   -1.3780   -0.8120 O   0  0  0  0  0  0  0  0  0  0  0  0
    2.1970    0.0810    0.9250 N   0  0  0  0  0  0  0  0  0  0  0  0
    3.6270   -0.0240    1.1390 C   0  0  0  0  0  0  0  0  0  0  0  0
    4.4450    0.4010   -0.0410 C   0  0  0  0  0  0  0  0  0  0  0  0
    5.8580    0.2470    0.3120 N   0  0  0  0  0  0  0  0  0  0  0  0
   -0.6680    0.1840    0.3650 C   0  0  0  0  0  0  0  0  0  0  0  0
   -2.1270    0.3620    0.2320 C   0  0  0  0  0  0  0  0  0  0  0  0
   -2.7900    0.6750    1.3080 C   0  0  0  0  0  0  0  0  0  0  0  0
   -4.2340    0.8660    1.4870 C   0  0  0  0  0  0  0  0  0  0  0  0
  1  2  2  0
  2  3  1  0
  2 14  1  0
  3  4  2  0
  4  5  1  0
  5  6  1  0
  6  7  1  0
  6 13  2  0
  7  8  2  0
  7  9  1  0
  9 10  1  0
 10 11  1  0
 11 12  1  0
 13 14  1  0
 14 15  2  3
 15 16  1  0
M  END
