
     RDKit          3D

 15 15  0  0  0  0  0  0  0  0999 V2000
   -2.6970   -1.4170    0.0310 N   0  0  0  0  0  0  0  0  0  0  0  0
   -1.9750   -0.5950   -0.7490 O   0  0  0  0  0  0  0  0  0  0  0  0
   -0.6490   -0.8320   -0.6860 N   0  0  0  0  0  0  0  0  0  0  0  0
   -0.0040    0.0550    0.2660 C   0  0  2  0  0  0  0  0  0  0  0  0
   -0.5530   -0.1460    1.5270 O   0  0  0  0  0  0  0  0  0  0  0  0
   -0.2230    1.4480   -0.2020 C   0  0  0  0  0  0  0  0  0  0  0  0
   -0.7420    2.6840    0.0690 C   0  0  0  0  0  0  0  0  0  0  0  0
   -1.5900    3.7300    1.1670 Cl  0  0  0  0  0  0  0  0  0  0  0  0
   -0.0530    2.4600   -1.2410 C   0  0  1  0  0  0  0  0  0  0  0  0
    1.5410    3.2080   -1.4830 Cl  0  0  0  0  0  0  0  0  0  0  0  0
   -1.1500    2.5180   -2.6330 Cl  0  0  0  0  0  0  0  0  0  0  0  0
    1.4560   -0.2580    0.3310 C   0  0  1  0  0  0  0  0  0  0  0  0
    2.0530    0.6080    1.2540 O   0  0  0  0  0  0  0  0  0  0  0  0
    1.6020   -1.5470    0.8390 O   0  0  0  0  0  0  0  0  0  0  0  0
    2.3580   -2.3300    0.0470 N   0  0  0  0  0  0  0  0  0  0  0  0
  1  2  1  0
  2  3  1  0
  3  4  1  0
  4  5  1  1
  4  6  1  0
  4 12  1  0
  6  7  2  0
  6  9  1  0
  7  8  1  0
  7  9  1  0
  9 10  1  6
  9 11  1  0
 12 13  1  1
 12 14  1  0
 14 15  1  0
M  END
