
     RDKit          3D

 35 38  0  0  0  0  0  0  0  0999 V2000
    6.6600   -2.1530    1.3100 C   0  0  0  0  0  0  0  0  0  0  0  0
    6.6960   -0.9260    0.4780 C   0  0  0  0  0  0  0  0  0  0  0  0
    5.3320   -0.3880    0.2630 C   0  0  0  0  0  0  0  0  0  0  0  0
    4.2260   -0.8960    0.7270 C   0  0  0  0  0  0  0  0  0  0  0  0
    4.1540   -2.0440    1.5100 O   0  0  0  0  0  0  0  0  0  0  0  0
    2.9770   -2.8530    1.4020 C   0  0  0  0  0  0  0  0  0  0  0  0
    1.8370   -1.9700    1.8110 C   0  0  0  0  0  0  0  0  0  0  0  0
    1.7990   -0.8070    0.9380 N   0  0  0  0  0  0  0  0  0  0  0  0
    0.6430   -0.2450    0.6450 N   0  0  0  0  0  0  0  0  0  0  0  0
    0.4520    0.8510   -0.1210 C   0  0  0  0  0  0  0  0  0  0  0  0
   -0.9350    1.2760   -0.2950 C   0  0  2  0  0  0  0  0  0  0  0  0
   -1.7960    0.1810   -0.8120 C   0  0  0  0  0  0  0  0  0  0  0  0
   -2.5720    0.2450   -1.9270 C   0  0  0  0  0  0  0  0  0  0  0  0
   -3.3100   -0.8760   -2.2940 C   0  0  0  0  0  0  0  0  0  0  0  0
   -3.2720   -2.0250   -1.5670 C   0  0  0  0  0  0  0  0  0  0  0  0
   -2.4780   -2.0510   -0.4470 C   0  0  0  0  0  0  0  0  0  0  0  0
   -1.7690   -0.9740   -0.0950 N   0  0  0  0  0  0  0  0  0  0  0  0
   -2.4630   -3.3230    0.3300 C   0  0  1  0  0  0  0  0  0  0  0  0
   -1.9540   -3.0870    1.7330 C   0  0  0  0  0  0  0  0  0  0  0  0
   -3.8930   -3.7890    0.4220 C   0  0  0  0  0  0  0  0  0  0  0  0
   -4.5380   -4.0540   -0.8830 C   0  0  0  0  0  0  0  0  0  0  0  0
   -4.0810   -3.1900   -2.0130 C   0  0  0  0  0  0  0  0  0  0  0  0
   -1.2410    2.6440   -0.7370 C   0  0  2  0  0  0  0  0  0  0  0  0
   -0.7180    2.9810   -1.9450 O   0  0  0  0  0  0  0  0  0  0  0  0
   -0.7370    3.6730    0.3010 C   0  0  0  0  0  0  0  0  0  0  0  0
   -1.0070    5.0720   -0.1120 C   0  0  0  0  0  0  0  0  0  0  0  0
   -0.5570    6.0350    0.7620 O   0  0  0  0  0  0  0  0  0  0  0  0
    0.7990    5.9730    0.9180 C   0  0  0  0  0  0  0  0  0  0  0  0
   -2.7150    2.8970   -0.7960 C   0  0  0  0  0  0  0  0  0  0  0  0
   -3.2950    3.8770   -1.6280 N   0  0  0  0  0  0  0  0  0  0  0  0
   -3.6800    2.0020    0.1590 S   0  0  0  0  0  0  0  0  0  0  0  0
    1.5690    1.4140   -0.6280 C   0  0  0  0  0  0  0  0  0  0  0  0
    1.6190    2.4470   -1.3710 O   0  0  0  0  0  0  0  0  0  0  0  0
    2.8260    0.8480   -0.3420 C   0  0  0  0  0  0  0  0  0  0  0  0
    2.9210   -0.2670    0.4450 C   0  0  0  0  0  0  0  0  0  0  0  0
  1  2  1  0
  2  3  1  0
  3  4  2  3
  4  5  1  0
  4 35  1  0
  5  6  1  0
  6  7  1  0
  7  8  1  0
  8  9  1  0
  8 35  1  0
  9 10  2  0
 11 10  1  6
 10 32  1  0
 11 12  1  0
 11 23  1  0
 12 13  2  0
 12 17  1  0
 13 14  1  0
 14 15  2  0
 15 16  1  0
 15 22  1  0
 16 17  2  0
 16 18  1  0
 18 19  1  1
 18 20  1  0
 20 21  1  0
 21 22  1  0
 23 24  1  6
 23 25  1  0
 23 29  1  0
 25 26  1  0
 26 27  1  0
 27 28  1  0
 29 30  1  0
 29 31  2  0
 32 33  2  0
 32 34  1  0
 34 35  2  0
M  END
