
     RDKit          3D

 25 27  0  0  0  0  0  0  0  0999 V2000
   -1.6540   -3.8430    1.8790 C   0  0  0  0  0  0  0  0  0  0  0  0
   -1.5890   -3.4480    0.4100 C   0  0  0  0  0  0  0  0  0  0  0  0
   -0.9290   -2.1670    0.2150 C   0  0  0  0  0  0  0  0  0  0  0  0
   -1.3690   -1.0140   -0.1850 C   0  0  0  0  0  0  0  0  0  0  0  0
   -2.7990   -0.8600   -0.5250 C   0  0  0  0  0  0  0  0  0  0  0  0
   -3.2040    0.3160   -0.9570 C   0  0  0  0  0  0  0  0  0  0  0  0
   -4.6830    0.2560   -1.2480 C   0  0  0  0  0  0  0  0  0  0  0  0
   -5.0890   -0.8480   -0.5700 O   0  0  0  0  0  0  0  0  0  0  0  0
   -4.0070   -1.7300   -0.4680 C   0  0  0  0  0  0  0  0  0  0  0  0
   -2.3000    1.4580   -1.0920 C   0  0  0  0  0  0  0  0  0  0  0  0
   -2.7760    2.5410   -1.5060 O   0  0  0  0  0  0  0  0  0  0  0  0
   -0.8700    1.3270   -0.7490 C   0  0  0  0  0  0  0  0  0  0  0  0
   -0.1360    2.5980   -0.5370 C   0  0  0  0  0  0  0  0  0  0  0  0
   -0.5070    3.7700   -1.0670 C   0  0  0  0  0  0  0  0  0  0  0  0
    0.4290    4.8540   -0.6490 C   0  0  0  0  0  0  0  0  0  0  0  0
    1.3420    4.1490    0.2590 C   0  0  0  0  0  0  0  0  0  0  0  0
    1.0050    2.8630    0.3010 C   0  0  0  0  0  0  0  0  0  0  0  0
   -0.4590    0.1580   -0.3380 C   0  0  0  0  0  0  0  0  0  0  0  0
    0.9810   -0.0990   -0.3880 C   0  0  0  0  0  0  0  0  0  0  0  0
    1.7170    0.7860   -0.9630 O   0  0  0  0  0  0  0  0  0  0  0  0
    1.6780   -1.1630    0.0990 O   0  0  0  0  0  0  0  0  0  0  0  0
    3.0560   -1.3560    0.0290 C   0  0  0  0  0  0  0  0  0  0  0  0
    3.8260   -0.2870    0.7370 C   0  0  0  0  0  0  0  0  0  0  0  0
    5.3020   -0.6050    0.5970 C   0  0  0  0  0  0  0  0  0  0  0  0
    6.0300    0.3730    1.2460 O   0  0  0  0  0  0  0  0  0  0  0  0
  1  2  1  0
  2  3  1  0
  3  4  2  3
  4  5  1  0
  4 18  1  0
  5  6  2  0
  5  9  1  0
  6  7  1  0
  6 10  1  0
  7  8  1  0
  8  9  1  0
 10 11  2  0
 10 12  1  0
 12 13  1  0
 12 18  2  0
 13 14  2  0
 13 17  1  0
 14 15  1  0
 15 16  1  0
 16 17  2  0
 18 19  1  0
 19 20  2  0
 19 21  1  0
 21 22  1  0
 22 23  1  0
 23 24  1  0
 24 25  1  0
M  END
