
     RDKit          3D

 14 14  0  0  0  0  0  0  0  0999 V2000
   -2.9700    1.9530    1.3000 C   0  0  0  0  0  0  0  0  0  0  0  0
   -2.3470    1.5050    0.1350 O   0  0  0  0  0  0  0  0  0  0  0  0
   -1.4680    0.4640    0.0280 C   0  0  0  0  0  0  0  0  0  0  0  0
   -1.9060   -0.7520   -0.1100 C   0  0  0  0  0  0  0  0  0  0  0  0
   -3.2980   -0.9690   -0.1460 O   0  0  0  0  0  0  0  0  0  0  0  0
   -1.0230   -1.9130   -0.2300 C   0  0  0  0  0  0  0  0  0  0  0  0
    0.3070   -1.6030   -0.1840 O   0  0  0  0  0  0  0  0  0  0  0  0
    0.8480   -0.3410   -0.0410 C   0  0  0  0  0  0  0  0  0  0  0  0
    2.3010   -0.2150   -0.0140 C   0  0  0  0  0  0  0  0  0  0  0  0
    3.0660   -1.4460   -0.1430 N   0  0  0  0  0  0  0  0  0  0  0  0
    3.0130    0.8160    0.1060 N   0  0  0  0  0  0  0  0  0  0  0  0
    4.4180    0.7300    0.1090 O   0  0  0  0  0  0  0  0  0  0  0  0
    0.0030    0.6580    0.0620 C   0  0  0  0  0  0  0  0  0  0  0  0
    0.5030    2.3160    0.2500 Cl  0  0  0  0  0  0  0  0  0  0  0  0
  1  2  1  0
  2  3  1  0
  3  4  2  0
  3 13  1  0
  4  5  1  0
  4  6  1  0
  6  7  1  0
  7  8  1  0
  8  9  1  0
  8 13  2  0
  9 10  1  0
  9 11  2  3
 11 12  1  0
 13 14  1  0
M  CHG  1  11   1
M  END
