
     RDKit          3D

 14 14  0  0  0  0  0  0  0  0999 V2000
    4.1180   -1.3560    0.0140 N   0  0  0  0  0  0  0  0  0  0  0  0
    4.1230   -0.0800    0.7460 C   0  0  0  0  0  0  0  0  0  0  0  0
    3.6350    0.9600   -0.2350 C   0  0  0  0  0  0  0  0  0  0  0  0
    2.3560    0.6990   -0.7110 O   0  0  0  0  0  0  0  0  0  0  0  0
    1.2840    0.6330    0.1270 C   0  0  0  0  0  0  0  0  0  0  0  0
    1.4470    0.8140    1.3590 O   0  0  0  0  0  0  0  0  0  0  0  0
   -0.1100    0.3520   -0.3410 C   0  0  0  0  0  0  0  0  0  0  0  0
   -1.0160    0.3430    0.7290 O   0  0  0  0  0  0  0  0  0  0  0  0
   -2.3730    0.0810    0.3700 C   0  0  0  0  0  0  0  0  0  0  0  0
   -2.9310    0.8990   -0.4560 C   0  0  0  0  0  0  0  0  0  0  0  0
   -4.2970    0.8520   -0.9760 C   0  0  0  0  0  0  0  0  0  0  0  0
   -5.2220   -0.5300   -0.3360 S   0  0  0  0  0  0  0  0  0  0  0  0
   -4.2010   -1.4660    0.7660 C   0  0  0  0  0  0  0  0  0  0  0  0
   -2.9680   -1.0800    0.9820 C   0  0  0  0  0  0  0  0  0  0  0  0
  1  2  1  0
  2  3  1  0
  3  4  1  0
  4  5  1  0
  5  6  2  0
  5  7  1  0
  7  8  1  0
  8  9  1  0
  9 10  2  0
  9 14  1  0
 10 11  1  0
 11 12  1  0
 12 13  1  0
 13 14  2  0
M  END
