
     RDKit          3D

 14 14  0  0  0  0  0  0  0  0999 V2000
   -3.1760   -0.5980   -0.7180 C   0  0  0  0  0  0  0  0  0  0  0  0
   -2.3080   -0.1140    0.4070 C   0  0  2  0  0  0  0  0  0  0  0  0
   -3.1970    0.3600    1.5550 C   0  0  0  0  0  0  0  0  0  0  0  0
   -1.5440    1.1070   -0.1020 C   0  0  0  0  0  0  0  0  0  0  0  0
   -0.5100    0.6110   -1.0930 C   0  0  0  0  0  0  0  0  0  0  0  0
    0.4380   -0.3910   -0.4540 C   0  0  1  0  0  0  0  0  0  0  0  0
    1.8110    0.2080   -0.4860 C   0  0  0  0  0  0  0  0  0  0  0  0
    2.8680   -0.6630    0.1120 C   0  0  0  0  0  0  0  0  0  0  0  0
    4.4220    0.2290   -0.0250 S   0  0  1  0  0  0  0  0  0  0  0  0
    5.5570   -0.6210    0.4610 O   0  0  0  0  0  0  0  0  0  0  0  0
    4.6400    0.5810   -1.4830 O   0  0  0  0  0  0  0  0  0  0  0  0
    4.3130    1.6790    0.8070 O   0  0  0  0  0  0  0  0  0  0  0  0
   -0.0190   -0.6080    0.9050 N   0  0  0  0  0  0  0  0  0  0  0  0
   -1.3460   -1.1550    0.8980 C   0  0  0  0  0  0  0  0  0  0  0  0
  2  1  1  6
  2  3  1  0
  2  4  1  0
  2 14  1  0
  4  5  1  0
  5  6  1  0
  6  7  1  1
  6 13  1  0
  7  8  1  0
  8  9  1  0
  9 10  2  0
  9 11  2  0
  9 12  1  1
 13 14  1  0
M  END
