
     RDKit          3D

 12 12  0  0  0  0  0  0  0  0999 V2000
   -2.9990    1.1140   -0.4320 C   0  0  0  0  0  0  0  0  0  0  0  0
   -2.3390   -0.1800   -0.7960 C   0  0  2  0  0  0  0  0  0  0  0  0
   -2.3590   -1.1280    0.3630 C   0  0  0  0  0  0  0  0  0  0  0  0
   -0.9460    0.0160   -1.3720 C   0  0  2  0  0  0  0  0  0  0  0  0
   -0.4410   -1.2870   -1.6720 N   0  0  0  0  0  0  0  0  0  0  0  0
   -0.0960    0.8500   -0.5420 C   0  0  0  0  0  0  0  0  0  0  0  0
   -0.4990    2.0600   -0.2530 O   0  0  0  0  0  0  0  0  0  0  0  0
    1.1580    0.5090    0.0140 N   0  0  0  0  0  0  0  0  0  0  0  0
    1.9550   -0.6980   -0.0490 C   0  0  0  0  0  0  0  0  0  0  0  0
    3.2950   -0.3010    0.6140 C   0  0  0  0  0  0  0  0  0  0  0  0
    2.6990    0.5790    1.7250 C   0  0  0  0  0  0  0  0  0  0  0  0
    1.8940    1.5020    0.8410 C   0  0  0  0  0  0  0  0  0  0  0  0
  2  1  1  1
  2  3  1  0
  2  4  1  0
  4  5  1  1
  4  6  1  0
  6  7  2  0
  6  8  1  0
  8  9  1  0
  8 12  1  0
  9 10  1  0
 10 11  1  0
 11 12  1  0
M  CHG  1   5   1
M  END
