
     RDKit          3D

 16 17  0  0  0  0  0  0  0  0999 V2000
   -4.2800   -1.0570   -2.1850 N   0  0  0  0  0  0  0  0  0  0  0  0
   -3.3670   -1.0970   -1.4300 C   0  0  0  0  0  0  0  0  0  0  0  0
   -2.2100   -1.1410   -0.5070 C   0  0  2  0  0  0  0  0  0  0  0  0
   -1.1580   -0.2850   -1.1660 C   0  0  0  0  0  0  0  0  0  0  0  0
    0.1100   -0.1870   -0.4210 C   0  0  1  0  0  0  0  0  0  0  0  0
    0.9510    0.7060   -1.1200 O   0  0  0  0  0  0  0  0  0  0  0  0
   -0.0080    0.3430    0.9820 C   0  0  2  0  0  0  0  0  0  0  0  0
   -0.6940    1.6630    0.9600 C   0  0  0  0  0  0  0  0  0  0  0  0
    0.0540    2.7270    1.4540 O   0  0  0  0  0  0  0  0  0  0  0  0
    1.3770    2.7260    1.1060 C   0  0  0  0  0  0  0  0  0  0  0  0
    2.0510    1.3930    1.2840 C   0  0  0  0  0  0  0  0  0  0  0  0
    1.2200    0.3770    1.6330 O   0  0  0  0  0  0  0  0  0  0  0  0
    0.9020   -1.4900   -0.4340 C   0  0  2  0  0  0  0  0  0  0  0  0
    1.3880   -1.7420   -1.7100 O   0  0  0  0  0  0  0  0  0  0  0  0
    0.1920   -2.6650    0.1170 C   0  0  0  0  0  0  0  0  0  0  0  0
   -1.5180   -2.8310   -0.4400 S   0  0  0  0  0  0  0  0  0  0  0  0
  1  2  3  0
  3  2  1  6
  3  4  1  0
  3 16  1  0
  4  5  1  0
  5  6  1  6
  5  7  1  0
  5 13  1  0
  7  8  1  6
  7 12  1  0
  8  9  1  0
  9 10  1  0
 10 11  1  0
 11 12  1  0
 13 14  1  6
 13 15  1  0
 15 16  1  0
M  END
