
     RDKit          3D

 14 14  0  0  0  0  0  0  0  0999 V2000
   -1.0460   -2.6420   -0.3530 C   0  0  0  0  0  0  0  0  0  0  0  0
   -1.3180   -1.7470    0.6440 O   0  0  0  0  0  0  0  0  0  0  0  0
   -1.6340   -0.4880    0.3590 C   0  0  0  0  0  0  0  0  0  0  0  0
   -0.7010    0.6160    0.1080 C   0  0  1  0  0  0  0  0  0  0  0  0
    0.4320    0.4750   -0.8330 C   0  0  0  0  0  0  0  0  0  0  0  0
    1.4770   -0.4910   -0.4960 C   0  0  0  0  0  0  0  0  0  0  0  0
    1.5010   -1.1090    0.5890 O   0  0  0  0  0  0  0  0  0  0  0  0
    2.5270   -0.7830   -1.3900 O   0  0  0  0  0  0  0  0  0  0  0  0
    3.5210   -1.7390   -1.0170 C   0  0  0  0  0  0  0  0  0  0  0  0
   -1.4850    1.8880   -0.2050 C   0  0  0  0  0  0  0  0  0  0  0  0
   -1.5020    2.6200    1.1050 C   0  0  0  0  0  0  0  0  0  0  0  0
   -0.1320    2.3480    1.6110 C   0  0  0  0  0  0  0  0  0  0  0  0
    0.9330    3.4020    2.2540 S   0  0  0  0  0  0  0  0  0  0  0  0
    0.0130    0.9520    1.3970 N   0  0  0  0  0  0  0  0  0  0  0  0
  1  2  1  0
  2  3  1  0
  4  3  1  1
  4  5  1  0
  4 10  1  0
  4 14  1  0
  5  6  1  0
  6  7  2  0
  6  8  1  0
  8  9  1  0
 10 11  1  0
 11 12  1  0
 12 13  2  0
 12 14  1  0
M  END
