
     RDKit          3D

 23 24  0  0  0  0  0  0  0  0999 V2000
    5.2840    2.1920   -3.2810 C   0  0  0  0  0  0  0  0  0  0  0  0
    5.0280    2.2010   -1.9950 C   0  0  0  0  0  0  0  0  0  0  0  0
    5.3980    1.0160   -1.1700 C   0  0  0  0  0  0  0  0  0  0  0  0
    4.2160    0.5160   -0.5950 O   0  0  0  0  0  0  0  0  0  0  0  0
    4.1270   -0.5670    0.2320 C   0  0  0  0  0  0  0  0  0  0  0  0
    5.1780   -1.1910    0.5210 O   0  0  0  0  0  0  0  0  0  0  0  0
    2.8750   -1.0430    0.8010 C   0  0  0  0  0  0  0  0  0  0  0  0
    1.5980   -0.5190    0.6240 C   0  0  0  0  0  0  0  0  0  0  0  0
    0.6780   -1.2600    1.3360 C   0  0  0  0  0  0  0  0  0  0  0  0
   -0.7670   -1.0570    1.4290 C   0  0  0  0  0  0  0  0  0  0  0  0
   -1.4490   -1.8340    2.1270 O   0  0  0  0  0  0  0  0  0  0  0  0
   -1.3650   -0.0290    0.7600 O   0  0  0  0  0  0  0  0  0  0  0  0
   -2.7420    0.2040    0.8120 C   0  0  0  0  0  0  0  0  0  0  0  0
   -3.5180   -0.9480    0.2410 C   0  0  0  0  0  0  0  0  0  0  0  0
   -4.9180   -0.7170    0.2880 O   0  0  0  0  0  0  0  0  0  0  0  0
   -5.3490    0.4430   -0.4420 C   0  0  0  0  0  0  0  0  0  0  0  0
   -5.4250    1.6130    0.0680 C   0  0  0  0  0  0  0  0  0  0  0  0
   -5.8820    2.7320   -0.7740 C   0  0  0  0  0  0  0  0  0  0  0  0
   -6.7010    1.7860   -2.1210 S   0  0  0  0  0  0  0  0  0  0  0  0
   -5.7250    0.2730   -1.8620 C   0  0  0  0  0  0  0  0  0  0  0  0
    1.3940   -2.2390    1.9480 N   0  0  0  0  0  0  0  0  0  0  0  0
    2.6960   -2.1200    1.6380 C   0  0  0  0  0  0  0  0  0  0  0  0
    3.7780   -3.0060    2.1190 C   0  0  0  0  0  0  0  0  0  0  0  0
  1  2  2  0
  2  3  1  0
  3  4  1  0
  4  5  1  0
  5  6  2  0
  5  7  1  0
  7  8  1  0
  7 22  2  0
  8  9  2  0
  9 10  1  0
  9 21  1  0
 10 11  2  0
 10 12  1  0
 12 13  1  0
 13 14  1  0
 14 15  1  0
 15 16  1  0
 16 17  2  0
 16 20  1  0
 17 18  1  0
 18 19  1  0
 19 20  1  0
 21 22  1  0
 22 23  1  0
M  END
