
     RDKit          3D

 20 20  0  0  0  0  0  0  0  0999 V2000
    4.2970    0.9020   -1.4060 O   0  0  0  0  0  0  0  0  0  0  0  0
    4.7020    0.9540   -0.2410 C   0  0  0  0  0  0  0  0  0  0  0  0
    4.2100    0.0800    0.7570 N   0  0  0  0  0  0  0  0  0  0  0  0
    3.2280   -0.9170    0.5470 C   0  0  0  0  0  0  0  0  0  0  0  0
    1.8810   -0.4780    0.0890 C   0  0  1  0  0  0  0  0  0  0  0  0
    1.8390    0.1870   -1.1180 O   0  0  0  0  0  0  0  0  0  0  0  0
    1.0590   -1.7610   -0.1180 C   0  0  0  0  0  0  0  0  0  0  0  0
   -0.3500   -1.4310   -0.5380 C   0  0  0  0  0  0  0  0  0  0  0  0
   -1.0360   -0.5030    0.4370 C   0  0  2  0  0  0  0  0  0  0  0  0
   -1.1660   -1.1270    1.6570 O   0  0  0  0  0  0  0  0  0  0  0  0
   -2.4210   -0.2080   -0.0910 C   0  0  0  0  0  0  0  0  0  0  0  0
   -3.0530    0.6120    0.8130 O   0  0  0  0  0  0  0  0  0  0  0  0
   -4.3340    0.9690    0.4670 C   0  0  0  0  0  0  0  0  0  0  0  0
   -5.2590   -0.2180    0.3110 C   0  0  0  0  0  0  0  0  0  0  0  0
   -6.5220    0.2620   -0.0390 O   0  0  0  0  0  0  0  0  0  0  0  0
   -0.1980    0.7360    0.5570 C   0  0  2  0  0  0  0  0  0  0  0  0
   -0.0580    1.2830   -0.7160 O   0  0  0  0  0  0  0  0  0  0  0  0
    1.1410    0.3230    1.1410 C   0  0  0  0  0  0  0  0  0  0  0  0
    5.6760    1.9260    0.0370 O   0  0  0  0  0  0  0  0  0  0  0  0
    6.1270    2.7470   -0.9380 O   0  0  0  0  0  0  0  0  0  0  0  0
  1  2  2  0
  2  3  1  0
  2 19  1  0
  3  4  1  0
  4  5  1  0
  5  6  1  6
  5  7  1  0
  5 18  1  0
  7  8  1  0
  8  9  1  0
  9 10  1  1
  9 11  1  0
  9 16  1  0
 11 12  1  0
 12 13  1  0
 13 14  1  0
 14 15  1  0
 16 17  1  6
 16 18  1  0
 19 20  1  0
M  END
