
     RDKit          3D

 19 19  0  0  0  0  0  0  0  0999 V2000
    4.7220   -0.3380   -1.1560 N   0  0  0  0  0  0  0  0  0  0  0  0
    3.8910   -1.3800   -0.5890 C   0  0  0  0  0  0  0  0  0  0  0  0
    3.7960   -1.2510    0.8980 C   0  0  2  0  0  0  0  0  0  0  0  0
    3.0260   -2.2240    1.5240 O   0  0  0  0  0  0  0  0  0  0  0  0
    3.5840    0.1140    1.4310 C   0  0  0  0  0  0  0  0  0  0  0  0
    2.3590    0.6720    1.4870 O   0  0  0  0  0  0  0  0  0  0  0  0
    1.4000    1.0370    0.5850 C   0  0  0  0  0  0  0  0  0  0  0  0
    1.6870    0.8230   -0.6150 O   0  0  0  0  0  0  0  0  0  0  0  0
    0.1110    1.6440    1.0110 C   0  0  0  0  0  0  0  0  0  0  0  0
   -0.8980    1.8520   -0.0450 C   0  0  2  0  0  0  0  0  0  0  0  0
   -2.0360    2.4890    0.5760 O   0  0  0  0  0  0  0  0  0  0  0  0
   -1.4630    0.5700   -0.6210 C   0  0  1  0  0  0  0  0  0  0  0  0
   -0.5090   -0.1460   -1.2680 O   0  0  0  0  0  0  0  0  0  0  0  0
   -2.0670   -0.3000    0.4780 C   0  0  0  0  0  0  0  0  0  0  0  0
   -2.9360   -1.2070   -0.4050 C   0  0  0  0  0  0  0  0  0  0  0  0
   -3.4310   -0.1880   -1.4110 C   0  0  1  0  0  0  0  0  0  0  0  0
   -4.7870    0.3010   -0.8850 C   0  0  0  0  0  0  0  0  0  0  0  0
   -5.7190   -0.7150   -0.8530 O   0  0  0  0  0  0  0  0  0  0  0  0
   -2.5630    0.8660   -1.4150 O   0  0  0  0  0  0  0  0  0  0  0  0
  1  2  1  0
  2  3  1  0
  3  4  1  6
  3  5  1  0
  5  6  1  0
  6  7  1  0
  7  8  2  0
  7  9  1  0
  9 10  1  0
 10 11  1  1
 10 12  1  0
 12 13  1  6
 12 14  1  0
 12 19  1  0
 14 15  1  0
 15 16  1  0
 16 17  1  1
 16 19  1  0
 17 18  1  0
M  END
