
     RDKit          3D

 22 23  0  0  0  0  0  0  0  0999 V2000
   -0.6060   -1.0920   -1.5520 C   0  0  0  0  0  0  0  0  0  0  0  0
   -0.4870   -0.9560   -0.0610 C   0  0  2  0  0  0  0  0  0  0  0  0
    0.8520   -0.7740    0.2390 O   0  0  0  0  0  0  0  0  0  0  0  0
    1.4380    0.3260   -0.3300 C   0  0  0  0  0  0  0  0  0  0  0  0
    2.8770    0.4000    0.0740 C   0  0  0  0  0  0  0  0  0  0  0  0
    3.3670    1.4300    0.7340 C   0  0  0  0  0  0  0  0  0  0  0  0
    4.7710    1.5620    1.1600 C   0  0  2  0  0  0  0  0  0  0  0  0
    5.2660    2.7460    0.5990 O   0  0  0  0  0  0  0  0  0  0  0  0
    5.5640    0.4740    0.7950 O   0  0  0  0  0  0  0  0  0  0  0  0
    5.0860   -0.6300    0.1000 C   0  0  0  0  0  0  0  0  0  0  0  0
    3.8110   -0.6800   -0.2500 C   0  0  0  0  0  0  0  0  0  0  0  0
   -0.8710   -2.3140    0.5430 C   0  0  0  0  0  0  0  0  0  0  0  0
   -2.3410   -2.5610    0.4390 C   0  0  1  0  0  0  0  0  0  0  0  0
   -2.5960   -3.8720    0.8250 O   0  0  0  0  0  0  0  0  0  0  0  0
   -3.1000   -1.6080    1.3370 C   0  0  0  0  0  0  0  0  0  0  0  0
   -2.1500   -0.5090    1.7580 C   0  0  0  0  0  0  0  0  0  0  0  0
   -1.3950    0.0640    0.5520 C   0  0  2  0  0  0  0  0  0  0  0  0
   -2.2890    0.6480   -0.3470 O   0  0  0  0  0  0  0  0  0  0  0  0
   -2.2580    2.0140   -0.5560 C   0  0  0  0  0  0  0  0  0  0  0  0
   -1.4290    2.7300    0.0600 O   0  0  0  0  0  0  0  0  0  0  0  0
   -3.1830    2.7070   -1.5010 C   0  0  0  0  0  0  0  0  0  0  0  0
   -2.9580    4.0620   -1.5360 O   0  0  0  0  0  0  0  0  0  0  0  0
  2  1  1  6
  2  3  1  0
  2 12  1  0
  2 17  1  0
  3  4  1  0
  4  5  1  0
  5  6  2  0
  5 11  1  0
  6  7  1  0
  7  8  1  6
  7  9  1  0
  9 10  1  0
 10 11  2  0
 12 13  1  0
 13 14  1  1
 13 15  1  0
 15 16  1  0
 16 17  1  0
 17 18  1  6
 18 19  1  0
 19 20  2  0
 19 21  1  0
 21 22  1  0
M  END
