
     RDKit          3D

 22 22  0  0  0  0  0  0  0  0999 V2000
   -3.4070    2.9610   -1.0160 C   0  0  0  0  0  0  0  0  0  0  0  0
   -2.5110    2.3870    0.0840 C   0  0  0  0  0  0  0  0  0  0  0  0
   -1.3660    2.9830    0.2470 C   0  0  0  0  0  0  0  0  0  0  0  0
   -0.2720    2.7340    1.1670 C   0  0  0  0  0  0  0  0  0  0  0  0
   -0.1490    3.5490    2.1900 O   0  0  0  0  0  0  0  0  0  0  0  0
    0.6790    1.7610    1.1400 O   0  0  0  0  0  0  0  0  0  0  0  0
    1.6480    1.4550    0.1680 C   0  0  0  0  0  0  0  0  0  0  0  0
    2.2280    0.0980    0.5220 C   0  0  2  0  0  0  0  0  0  0  0  0
    3.7030   -0.0120    0.1980 C   0  0  0  0  0  0  0  0  0  0  0  0
    3.9110    0.1860   -1.2750 C   0  0  0  0  0  0  0  0  0  0  0  0
    3.4740    1.4210   -1.7030 O   0  0  0  0  0  0  0  0  0  0  0  0
    1.5960   -0.9220   -0.1970 O   0  0  0  0  0  0  0  0  0  0  0  0
    1.5300   -2.0870    0.5620 C   0  0  0  0  0  0  0  0  0  0  0  0
    0.5220   -3.0490   -0.0240 C   0  0  1  0  0  0  0  0  0  0  0  0
    1.0040   -4.3600    0.0900 O   0  0  0  0  0  0  0  0  0  0  0  0
   -0.8470   -2.9410    0.5590 C   0  0  0  0  0  0  0  0  0  0  0  0
   -1.6880   -1.8750   -0.1600 C   0  0  2  0  0  0  0  0  0  0  0  0
   -1.4410   -1.9550   -1.5180 O   0  0  0  0  0  0  0  0  0  0  0  0
   -1.3880   -0.5030    0.4130 C   0  0  0  0  0  0  0  0  0  0  0  0
   -2.6330    0.0550    0.9600 C   0  0  0  0  0  0  0  0  0  0  0  0
   -3.1000    1.2770    0.8150 C   0  0  0  0  0  0  0  0  0  0  0  0
   -4.3590    1.5040    1.4770 O   0  0  0  0  0  0  0  0  0  0  0  0
  1  2  1  0
  2  3  2  0
  2 21  1  0
  3  4  1  0
  4  5  2  0
  4  6  1  0
  6  7  1  0
  7  8  1  0
  8  9  1  6
  8 12  1  0
  9 10  1  0
 10 11  1  0
 12 13  1  0
 13 14  1  0
 14 15  1  1
 14 16  1  0
 16 17  1  0
 17 18  1  6
 17 19  1  0
 19 20  1  0
 20 21  2  0
 21 22  1  0
M  END
