
     RDKit          3D

 15 16  0  0  0  0  0  0  0  0999 V2000
   -4.2750    0.4650    0.2810 C   0  0  0  0  0  0  0  0  0  0  0  0
   -3.5460   -0.4800   -0.6110 C   0  0  0  0  0  0  0  0  0  0  0  0
   -2.0610   -0.2970   -0.6390 C   0  0  0  0  0  0  0  0  0  0  0  0
   -1.3910   -0.4690    0.6900 C   0  0  0  0  0  0  0  0  0  0  0  0
    0.0710   -0.2550    0.4830 C   0  0  0  0  0  0  0  0  0  0  0  0
    0.6720    0.9370    0.5820 N   0  0  0  0  0  0  0  0  0  0  0  0
    1.9820    0.8090    0.3440 C   0  0  0  0  0  0  0  0  0  0  0  0
    3.0340    1.6710    0.3120 C   0  0  0  0  0  0  0  0  0  0  0  0
    2.8760    2.9030    0.5430 O   0  0  0  0  0  0  0  0  0  0  0  0
    4.2750    1.2440    0.0370 N   0  0  0  0  0  0  0  0  0  0  0  0
    4.5000   -0.0240   -0.2100 N   0  0  0  0  0  0  0  0  0  0  0  0
    3.4900   -0.9040   -0.1890 C   0  0  0  0  0  0  0  0  0  0  0  0
    3.7110   -2.1080   -0.4250 O   0  0  0  0  0  0  0  0  0  0  0  0
    2.1940   -0.5200    0.0890 C   0  0  0  0  0  0  0  0  0  0  0  0
    1.0150   -1.1460    0.1800 N   0  0  0  0  0  0  0  0  0  0  0  0
  1  2  1  0
  2  3  1  0
  3  4  1  0
  4  5  1  0
  5  6  2  0
  5 15  1  0
  6  7  1  0
  7  8  1  0
  7 14  2  0
  8  9  2  0
  8 10  1  0
 10 11  1  0
 11 12  1  0
 12 13  2  0
 12 14  1  0
 14 15  1  0
M  END
