
     RDKit          3D

 24 26  0  0  0  0  0  0  0  0999 V2000
   -5.9640    1.7660   -0.2010 C   0  0  0  0  0  0  0  0  0  0  0  0
   -5.0760    0.5590   -0.1750 C   0  0  0  0  0  0  0  0  0  0  0  0
   -5.5730   -0.7090   -0.4270 C   0  0  0  0  0  0  0  0  0  0  0  0
   -4.7400   -1.8070   -0.3990 C   0  0  0  0  0  0  0  0  0  0  0  0
   -3.3800   -1.6150   -0.1100 C   0  0  0  0  0  0  0  0  0  0  0  0
   -2.5830   -2.7370   -0.0920 O   0  0  0  0  0  0  0  0  0  0  0  0
   -2.9010   -0.3690    0.1360 C   0  0  0  0  0  0  0  0  0  0  0  0
   -1.5090   -0.0870    0.4420 C   0  0  0  0  0  0  0  0  0  0  0  0
   -1.1640    1.1410    0.6590 O   0  0  0  0  0  0  0  0  0  0  0  0
   -0.4810   -1.0580    0.5230 N   0  0  0  0  0  0  0  0  0  0  0  0
    0.8390   -0.6480    0.8310 C   0  0  0  0  0  0  0  0  0  0  0  0
    1.4160   -1.1370    1.9160 C   0  0  0  0  0  0  0  0  0  0  0  0
    2.7520   -0.8480    2.4080 N   0  0  0  0  0  0  0  0  0  0  0  0
    3.7670   -0.5280    1.6740 C   0  0  0  0  0  0  0  0  0  0  0  0
    3.9000   -0.3650    0.2130 C   0  0  2  0  0  0  0  0  0  0  0  0
    5.2110    0.0850   -0.1240 N   0  0  0  0  0  0  0  0  0  0  0  0
    5.3680    0.8540   -1.2850 C   0  0  0  0  0  0  0  0  0  0  0  0
    4.2390    1.6680   -1.7120 C   0  0  0  0  0  0  0  0  0  0  0  0
    4.4600    2.6610   -2.6050 F   0  0  0  0  0  0  0  0  0  0  0  0
    3.0070    1.4950   -1.2790 C   0  0  0  0  0  0  0  0  0  0  0  0
    1.6660    2.5080   -1.8250 Cl  0  0  0  0  0  0  0  0  0  0  0  0
    2.8050    0.4170   -0.3190 C   0  0  0  0  0  0  0  0  0  0  0  0
    1.5120    0.3000   -0.0720 C   0  0  0  0  0  0  0  0  0  0  0  0
   -3.7510    0.7290    0.1040 C   0  0  0  0  0  0  0  0  0  0  0  0
  1  2  1  0
  2  3  2  0
  2 24  1  0
  3  4  1  0
  4  5  2  0
  5  6  1  0
  5  7  1  0
  7  8  1  0
  7 24  2  0
  8  9  2  0
  8 10  1  0
 10 11  1  0
 11 12  2  0
 11 23  1  0
 12 13  1  0
 13 14  2  0
 14 15  1  0
 15 16  1  1
 15 22  1  0
 16 17  1  0
 17 18  1  0
 18 19  1  0
 18 20  2  0
 20 21  1  0
 20 22  1  0
 22 23  2  0
M  CHG  1  16   1
M  END
