
     RDKit          3D

 24 25  0  0  0  0  0  0  0  0999 V2000
   -3.2970    3.2560    0.0390 N   0  0  0  0  0  0  0  0  0  0  0  0
   -2.5340    2.6670   -1.0730 C   0  0  0  0  0  0  0  0  0  0  0  0
   -2.1070    1.3020   -0.7300 C   0  0  0  0  0  0  0  0  0  0  0  0
   -0.8280    0.8720   -0.6670 C   0  0  0  0  0  0  0  0  0  0  0  0
    0.2660    1.7560   -0.9420 C   0  0  0  0  0  0  0  0  0  0  0  0
    0.1460    2.3900   -2.1860 F   0  0  0  0  0  0  0  0  0  0  0  0
    1.3280    2.1270   -0.3000 C   0  0  0  0  0  0  0  0  0  0  0  0
    2.4840    3.2960   -1.0380 Cl  0  0  0  0  0  0  0  0  0  0  0  0
    1.8130    1.7680    1.0440 C   0  0  0  0  0  0  0  0  0  0  0  0
    3.2580    1.7100    1.1600 N   0  0  0  0  0  0  0  0  0  0  0  0
    4.1610    1.2390    0.1920 C   0  0  0  0  0  0  0  0  0  0  0  0
    5.1430    2.0200   -0.0970 O   0  0  0  0  0  0  0  0  0  0  0  0
    4.0880   -0.0640   -0.5230 C   0  0  0  0  0  0  0  0  0  0  0  0
    3.8150   -1.1820    0.3550 N   0  0  0  0  0  0  0  0  0  0  0  0
    2.7580   -2.1000    0.3520 C   0  0  0  0  0  0  0  0  0  0  0  0
    3.0980   -3.3270    0.1590 O   0  0  0  0  0  0  0  0  0  0  0  0
    1.3160   -1.8720    0.5390 C   0  0  0  0  0  0  0  0  0  0  0  0
    0.6260   -1.1290   -0.5370 C   0  0  0  0  0  0  0  0  0  0  0  0
   -0.7310   -0.6010   -0.3010 C   0  0  2  0  0  0  0  0  0  0  0  0
   -1.6430   -1.3030   -1.3240 C   0  0  0  0  0  0  0  0  0  0  0  0
   -2.6480   -2.1980   -0.7280 C   0  0  0  0  0  0  0  0  0  0  0  0
   -2.1850   -2.9780    0.4730 C   0  0  0  0  0  0  0  0  0  0  0  0
   -1.7700   -2.0260    1.5270 C   0  0  0  0  0  0  0  0  0  0  0  0
   -1.2910   -0.6930    1.0750 C   0  0  0  0  0  0  0  0  0  0  0  0
  1  2  1  0
  2  3  1  0
  3  4  2  3
  4  5  1  0
  4 19  1  0
  5  6  1  0
  5  7  2  0
  7  8  1  0
  7  9  1  0
  9 10  1  0
 10 11  1  0
 11 12  2  0
 11 13  1  0
 13 14  1  0
 14 15  1  0
 15 16  2  0
 15 17  1  0
 17 18  1  0
 19 18  1  1
 19 20  1  0
 19 24  1  0
 20 21  1  0
 21 22  1  0
 22 23  1  0
 23 24  1  0
M  CHG  1   1   1
M  END
