
     RDKit          3D

 22 22  0  0  0  0  0  0  0  0999 V2000
   -2.5500   -1.2470    1.3240 C   0  0  0  0  0  0  0  0  0  0  0  0
   -2.3300   -1.2570   -0.1510 C   0  0  2  0  0  0  0  0  0  0  0  0
   -3.5710   -1.8090   -0.8120 C   0  0  0  0  0  0  0  0  0  0  0  0
   -1.2060   -2.2440   -0.4450 C   0  0  0  0  0  0  0  0  0  0  0  0
    0.0300   -1.8890    0.3550 C   0  0  1  0  0  0  0  0  0  0  0  0
    0.5950   -3.2140    0.8720 C   0  0  0  0  0  0  0  0  0  0  0  0
    0.8920   -3.9870   -0.2530 O   0  0  0  0  0  0  0  0  0  0  0  0
    1.0430   -1.1490   -0.4760 C   0  0  0  0  0  0  0  0  0  0  0  0
    1.6090    0.0610    0.2220 C   0  0  1  0  0  0  0  0  0  0  0  0
    2.9030   -0.2400    0.9160 C   0  0  2  0  0  0  0  0  0  0  0  0
    3.3010    0.8770    1.6410 O   0  0  0  0  0  0  0  0  0  0  0  0
    4.0120   -0.6190   -0.0160 C   0  0  0  0  0  0  0  0  0  0  0  0
    4.3230    0.3990   -0.9050 O   0  0  0  0  0  0  0  0  0  0  0  0
    1.7320    1.1480   -0.6630 O   0  0  0  0  0  0  0  0  0  0  0  0
    1.6620    2.3670    0.0010 C   0  0  0  0  0  0  0  0  0  0  0  0
    0.8000    3.3710   -0.7150 C   0  0  2  0  0  0  0  0  0  0  0  0
    1.2980    4.6530   -0.3900 O   0  0  0  0  0  0  0  0  0  0  0  0
   -0.6330    3.3360   -0.3000 C   0  0  0  0  0  0  0  0  0  0  0  0
   -1.0790    2.1060    0.1160 O   0  0  0  0  0  0  0  0  0  0  0  0
   -2.4890    2.1120    0.0620 C   0  0  0  0  0  0  0  0  0  0  0  0
   -2.9190    0.8960   -0.7700 C   0  0  0  0  0  0  0  0  0  0  0  0
   -1.9360   -0.0420   -0.6750 O   0  0  0  0  0  0  0  0  0  0  0  0
  2  1  1  1
  2  3  1  0
  2  4  1  0
  2 22  1  0
  4  5  1  0
  5  6  1  6
  5  8  1  0
  6  7  1  0
  9  8  1  6
  9 10  1  0
  9 14  1  0
 10 11  1  6
 10 12  1  0
 12 13  1  0
 14 15  1  0
 15 16  1  0
 16 17  1  1
 16 18  1  0
 18 19  1  0
 19 20  1  0
 20 21  1  0
 21 22  1  0
M  END
