
     RDKit          3D

 21 22  0  0  0  0  0  0  0  0999 V2000
   -3.5890    2.8990   -0.5690 C   0  0  0  0  0  0  0  0  0  0  0  0
   -2.7400    1.8920   -0.0540 O   0  0  0  0  0  0  0  0  0  0  0  0
   -2.3690    0.7660   -0.7470 C   0  0  0  0  0  0  0  0  0  0  0  0
   -2.7800    0.5760   -1.9030 O   0  0  0  0  0  0  0  0  0  0  0  0
   -1.4770   -0.2190   -0.1090 C   0  0  2  0  0  0  0  0  0  0  0  0
   -2.1870   -0.7110    1.1330 C   0  0  0  0  0  0  0  0  0  0  0  0
   -3.5070   -1.3510    0.7840 C   0  0  0  0  0  0  0  0  0  0  0  0
   -4.1660   -1.8050    1.9420 O   0  0  0  0  0  0  0  0  0  0  0  0
   -0.1970    0.5160    0.2500 C   0  0  1  0  0  0  0  0  0  0  0  0
   -0.2510    0.7680    1.6240 O   0  0  0  0  0  0  0  0  0  0  0  0
    0.9490   -0.3610   -0.1270 C   0  0  1  0  0  0  0  0  0  0  0  0
    1.7790    0.2470   -1.2450 C   0  0  0  0  0  0  0  0  0  0  0  0
    3.1510   -0.3540   -1.3180 C   0  0  0  0  0  0  0  0  0  0  0  0
    4.1810    0.2550   -0.4720 C   0  0  0  0  0  0  0  0  0  0  0  0
    3.7590    1.1930    0.5880 C   0  0  0  0  0  0  0  0  0  0  0  0
    2.4370    0.9850    1.2020 C   0  0  0  0  0  0  0  0  0  0  0  0
    1.8930   -0.4190    1.0760 C   0  0  0  0  0  0  0  0  0  0  0  0
    0.3540   -1.6680   -0.4650 C   0  0  1  0  0  0  0  0  0  0  0  0
    0.1780   -2.5080    0.6100 O   0  0  0  0  0  0  0  0  0  0  0  0
   -1.0380   -1.3180   -1.0050 C   0  0  2  0  0  0  0  0  0  0  0  0
   -0.9180   -0.9370   -2.3370 O   0  0  0  0  0  0  0  0  0  0  0  0
  1  2  1  0
  2  3  1  0
  3  4  2  0
  3  5  1  0
  5  6  1  1
  5  9  1  0
  5 20  1  0
  6  7  1  0
  7  8  1  0
  9 10  1  1
  9 11  1  0
 11 12  1  6
 11 17  1  0
 11 18  1  0
 12 13  1  0
 13 14  1  0
 14 15  1  0
 15 16  1  0
 16 17  1  0
 18 19  1  1
 18 20  1  0
 20 21  1  6
M  END
