
     RDKit          3D

 23 24  0  0  0  0  0  0  0  0999 V2000
    5.7940   -2.2890   -1.4530 O   0  0  0  0  0  0  0  0  0  0  0  0
    5.0350   -1.3760   -1.8520 C   0  0  0  0  0  0  0  0  0  0  0  0
    5.1680   -0.9580   -3.1690 O   0  0  0  0  0  0  0  0  0  0  0  0
    4.0470   -0.7760   -0.9580 C   0  0  0  0  0  0  0  0  0  0  0  0
    3.2210    0.2160   -1.3870 C   0  0  0  0  0  0  0  0  0  0  0  0
    2.2710    0.7980   -0.5410 C   0  0  0  0  0  0  0  0  0  0  0  0
    2.1400    0.3880    0.7490 C   0  0  0  0  0  0  0  0  0  0  0  0
    1.2480    0.9040    1.6070 O   0  0  0  0  0  0  0  0  0  0  0  0
    0.2770    1.8560    1.5250 C   0  0  0  0  0  0  0  0  0  0  0  0
   -0.8450    1.5650    0.5700 C   0  0  0  0  0  0  0  0  0  0  0  0
   -1.5220    0.3520    0.9430 O   0  0  0  0  0  0  0  0  0  0  0  0
   -2.5880   -0.0490    0.1490 C   0  0  0  0  0  0  0  0  0  0  0  0
   -2.3490   -0.8770   -0.9290 C   0  0  0  0  0  0  0  0  0  0  0  0
   -1.0610   -1.3070   -1.2190 O   0  0  0  0  0  0  0  0  0  0  0  0
   -3.4060   -1.2820   -1.7270 C   0  0  0  0  0  0  0  0  0  0  0  0
   -4.7130   -0.8820   -1.4830 C   0  0  0  0  0  0  0  0  0  0  0  0
   -4.9520   -0.0520   -0.4030 C   0  0  0  0  0  0  0  0  0  0  0  0
   -6.2610    0.3430   -0.1650 O   0  0  0  0  0  0  0  0  0  0  0  0
   -3.8850    0.3390    0.3790 C   0  0  0  0  0  0  0  0  0  0  0  0
   -4.1410    1.1790    1.4690 O   0  0  0  0  0  0  0  0  0  0  0  0
    2.9840   -0.6310    1.2020 C   0  0  0  0  0  0  0  0  0  0  0  0
    2.8570   -1.0530    2.5160 O   0  0  0  0  0  0  0  0  0  0  0  0
    3.9190   -1.1940    0.3470 C   0  0  0  0  0  0  0  0  0  0  0  0
  1  2  2  0
  2  3  1  0
  2  4  1  0
  4  5  2  0
  4 23  1  0
  5  6  1  0
  6  7  2  0
  7  8  1  0
  7 21  1  0
  8  9  1  0
  9 10  1  0
 10 11  1  0
 11 12  1  0
 12 13  2  0
 12 19  1  0
 13 14  1  0
 13 15  1  0
 15 16  2  0
 16 17  1  0
 17 18  1  0
 17 19  2  0
 19 20  1  0
 21 22  1  0
 21 23  2  0
M  END
