
     RDKit          3D

 22 23  0  0  0  0  0  0  0  0999 V2000
   -3.2320    2.9880    1.2100 C   0  0  0  0  0  0  0  0  0  0  0  0
   -2.5820    2.3860    0.1050 O   0  0  0  0  0  0  0  0  0  0  0  0
   -1.8330    1.2240    0.4120 C   0  0  0  0  0  0  0  0  0  0  0  0
   -0.8590    1.3670    1.2670 C   0  0  0  0  0  0  0  0  0  0  0  0
    0.0580    0.3030    1.7450 C   0  0  0  0  0  0  0  0  0  0  0  0
    1.2880    0.6250    1.2490 O   0  0  0  0  0  0  0  0  0  0  0  0
    2.2990   -0.2730    1.3960 C   0  0  0  0  0  0  0  0  0  0  0  0
    3.4400    0.2620    0.5170 C   0  0  1  0  0  0  0  0  0  0  0  0
    4.0780    1.2700    1.2370 O   0  0  0  0  0  0  0  0  0  0  0  0
    4.4290   -0.7980    0.1830 C   0  0  0  0  0  0  0  0  0  0  0  0
    5.4720   -0.3290   -0.5760 O   0  0  0  0  0  0  0  0  0  0  0  0
    2.8430    0.8490   -0.6180 O   0  0  0  0  0  0  0  0  0  0  0  0
    2.1230   -0.0600   -1.3460 C   0  0  0  0  0  0  0  0  0  0  0  0
    0.6700    0.3270   -1.5810 C   0  0  0  0  0  0  0  0  0  0  0  0
   -0.1150   -0.7240   -1.1520 O   0  0  0  0  0  0  0  0  0  0  0  0
   -1.4730   -0.8530   -0.9750 C   0  0  0  0  0  0  0  0  0  0  0  0
   -2.0670   -1.9710   -1.5540 C   0  0  0  0  0  0  0  0  0  0  0  0
   -3.4190   -2.2450   -1.4740 C   0  0  0  0  0  0  0  0  0  0  0  0
   -3.9640   -3.3790   -2.0710 O   0  0  0  0  0  0  0  0  0  0  0  0
   -4.2430   -1.3790   -0.7900 C   0  0  0  0  0  0  0  0  0  0  0  0
   -3.6500   -0.2840   -0.2240 C   0  0  0  0  0  0  0  0  0  0  0  0
   -2.2780    0.0130   -0.2910 C   0  0  0  0  0  0  0  0  0  0  0  0
  1  2  1  0
  2  3  1  0
  3  4  2  0
  3 22  1  0
  4  5  1  0
  5  6  1  0
  6  7  1  0
  7  8  1  0
  8  9  1  1
  8 10  1  0
  8 12  1  0
 10 11  1  0
 12 13  1  0
 13 14  1  0
 14 15  1  0
 15 16  1  0
 16 17  2  0
 16 22  1  0
 17 18  1  0
 18 19  1  0
 18 20  2  0
 20 21  1  0
 21 22  2  0
M  END
