
     RDKit          3D

 23 24  0  0  0  0  0  0  0  0999 V2000
    5.9420   -0.7790   -0.1940 C   0  0  0  0  0  0  0  0  0  0  0  0
    5.1200   -0.1960    0.8170 O   0  0  0  0  0  0  0  0  0  0  0  0
    3.7780    0.0360    0.4680 C   0  0  0  0  0  0  0  0  0  0  0  0
    3.4760    1.2600   -0.0900 C   0  0  0  0  0  0  0  0  0  0  0  0
    4.5100    2.1960   -0.2780 O   0  0  0  0  0  0  0  0  0  0  0  0
    2.1790    1.5430   -0.4520 C   0  0  0  0  0  0  0  0  0  0  0  0
    1.2110    0.5720   -0.2370 C   0  0  0  0  0  0  0  0  0  0  0  0
    1.4730   -0.6600    0.3180 C   0  0  0  0  0  0  0  0  0  0  0  0
    0.4990   -1.7290    0.5390 C   0  0  0  0  0  0  0  0  0  0  0  0
   -0.7810   -1.3270    0.2010 O   0  0  0  0  0  0  0  0  0  0  0  0
   -1.5230   -0.3280    0.7910 C   0  0  0  0  0  0  0  0  0  0  0  0
   -1.0000    0.2760    1.7350 O   0  0  0  0  0  0  0  0  0  0  0  0
   -2.8750    0.0330    0.3470 C   0  0  0  0  0  0  0  0  0  0  0  0
   -3.5910    1.0370    0.9570 C   0  0  0  0  0  0  0  0  0  0  0  0
   -3.0950    1.7520    2.0010 O   0  0  0  0  0  0  0  0  0  0  0  0
   -4.8880    1.3800    0.5300 C   0  0  0  0  0  0  0  0  0  0  0  0
   -5.4570    0.7090   -0.5120 C   0  0  0  0  0  0  0  0  0  0  0  0
   -6.7530    1.0370   -0.9540 O   0  0  0  0  0  0  0  0  0  0  0  0
   -4.7850   -0.2960   -1.1490 C   0  0  0  0  0  0  0  0  0  0  0  0
   -3.4890   -0.6320   -0.7150 C   0  0  0  0  0  0  0  0  0  0  0  0
   -2.8600   -1.6280   -1.3700 O   0  0  0  0  0  0  0  0  0  0  0  0
    2.8080   -0.9130    0.6740 C   0  0  0  0  0  0  0  0  0  0  0  0
    3.1720   -2.1390    1.2450 O   0  0  0  0  0  0  0  0  0  0  0  0
  1  2  1  0
  2  3  1  0
  3  4  2  0
  3 22  1  0
  4  5  1  0
  4  6  1  0
  6  7  2  0
  7  8  1  0
  8  9  1  0
  8 22  2  0
  9 10  1  0
 10 11  1  0
 11 12  2  0
 11 13  1  0
 13 14  2  0
 13 20  1  0
 14 15  1  0
 14 16  1  0
 16 17  2  0
 17 18  1  0
 17 19  1  0
 19 20  2  0
 20 21  1  0
 22 23  1  0
M  END
