
     RDKit          3D

 19 21  0  0  0  0  0  0  0  0999 V2000
    5.2520    2.1730    1.2550 O   0  0  0  0  0  0  0  0  0  0  0  0
    4.7100    1.1190    0.8620 C   0  0  0  0  0  0  0  0  0  0  0  0
    5.4710    0.0380    0.6580 N   0  0  0  0  0  0  0  0  0  0  0  0
    4.8440   -1.0800    0.2330 C   0  0  0  0  0  0  0  0  0  0  0  0
    3.5120   -1.1420    0.0140 N   0  0  0  0  0  0  0  0  0  0  0  0
    2.7220   -0.0720    0.2110 C   0  0  0  0  0  0  0  0  0  0  0  0
    1.3390    0.1640    0.0710 C   0  0  0  0  0  0  0  0  0  0  0  0
    0.4460   -0.8760   -0.3710 C   0  0  0  0  0  0  0  0  0  0  0  0
   -0.9140   -0.7020   -0.5250 N   0  0  1  0  0  0  0  0  0  0  0  0
   -1.7390   -1.5680    0.3300 C   0  0  0  0  0  0  0  0  0  0  0  0
   -3.1290   -1.2020   -0.2100 C   0  0  2  0  0  0  0  0  0  0  0  0
   -3.4380   -2.1200   -1.2390 O   0  0  0  0  0  0  0  0  0  0  0  0
   -2.9870    0.1490   -0.8690 C   0  0  1  0  0  0  0  0  0  0  0  0
   -3.9950    1.1330   -0.3660 C   0  0  0  0  0  0  0  0  0  0  0  0
   -3.9030    1.3630    1.0010 O   0  0  0  0  0  0  0  0  0  0  0  0
   -1.5610    0.5470   -0.3740 C   0  0  0  0  0  0  0  0  0  0  0  0
    1.1640    1.4560    0.4260 C   0  0  0  0  0  0  0  0  0  0  0  0
    2.3760    2.0020    0.7710 N   0  0  0  0  0  0  0  0  0  0  0  0
    3.3340    1.0770    0.6420 C   0  0  0  0  0  0  0  0  0  0  0  0
  1  2  2  0
  2  3  1  0
  2 19  1  0
  3  4  1  0
  4  5  2  0
  5  6  1  0
  6  7  1  0
  6 19  2  0
  7  8  1  0
  7 17  2  0
  9  8  1  1
  9 10  1  0
  9 16  1  0
 10 11  1  0
 11 12  1  6
 11 13  1  0
 13 14  1  1
 13 16  1  0
 14 15  1  0
 17 18  1  0
 18 19  1  0
M  CHG  1   9   1
M  END
