
     RDKit          3D

 23 24  0  0  0  0  0  0  0  0999 V2000
    6.3800    0.2580   -0.0620 O   0  0  0  0  0  0  0  0  0  0  0  0
    5.0380    0.0070   -0.2400 C   0  0  0  0  0  0  0  0  0  0  0  0
    4.2940   -0.4340    0.7610 C   0  0  0  0  0  0  0  0  0  0  0  0
    2.8490   -0.7070    0.4950 C   0  0  0  0  0  0  0  0  0  0  0  0
    2.1330   -1.1270    1.5120 C   0  0  0  0  0  0  0  0  0  0  0  0
    2.6830   -1.3250    2.7840 O   0  0  0  0  0  0  0  0  0  0  0  0
    2.4010   -0.5290   -0.7060 O   0  0  0  0  0  0  0  0  0  0  0  0
    1.5350    0.3260   -1.3180 C   0  0  0  0  0  0  0  0  0  0  0  0
    0.1640    0.3060   -0.7460 C   0  0  0  0  0  0  0  0  0  0  0  0
   -0.5860   -0.8420   -0.9900 C   0  0  0  0  0  0  0  0  0  0  0  0
    0.0760   -1.9210   -1.5930 O   0  0  0  0  0  0  0  0  0  0  0  0
   -1.9050   -0.8970   -0.6460 C   0  0  0  0  0  0  0  0  0  0  0  0
   -2.6110   -2.1790   -0.8900 C   0  0  2  0  0  0  0  0  0  0  0  0
   -2.6900   -2.3490   -2.2440 O   0  0  0  0  0  0  0  0  0  0  0  0
   -3.9910   -2.1460   -0.2310 C   0  0  0  0  0  0  0  0  0  0  0  0
   -3.8840   -1.9690    1.1540 O   0  0  0  0  0  0  0  0  0  0  0  0
   -2.5150    0.1730   -0.0600 C   0  0  0  0  0  0  0  0  0  0  0  0
   -1.7930    1.3150    0.1910 C   0  0  0  0  0  0  0  0  0  0  0  0
   -0.4700    1.3640   -0.1530 C   0  0  0  0  0  0  0  0  0  0  0  0
    0.2620    2.5330    0.1070 O   0  0  0  0  0  0  0  0  0  0  0  0
   -0.3400    3.6140    0.7490 C   0  0  0  0  0  0  0  0  0  0  0  0
   -1.8500    3.7010    0.4560 C   0  0  0  0  0  0  0  0  0  0  0  0
   -2.4080    2.4320    0.7920 O   0  0  0  0  0  0  0  0  0  0  0  0
  1  2  1  0
  2  3  2  3
  3  4  1  0
  4  5  2  3
  4  7  1  0
  5  6  1  0
  7  8  1  0
  8  9  1  0
  9 10  2  0
  9 19  1  0
 10 11  1  0
 10 12  1  0
 12 13  1  0
 12 17  2  0
 13 14  1  6
 13 15  1  0
 15 16  1  0
 17 18  1  0
 18 19  2  0
 18 23  1  0
 19 20  1  0
 20 21  1  0
 21 22  1  0
 22 23  1  0
M  END
