
     RDKit          3D

 23 24  0  0  0  0  0  0  0  0999 V2000
   -0.1840    3.2490   -1.4940 O   0  0  0  0  0  0  0  0  0  0  0  0
   -1.1430    2.2020   -1.4670 C   0  0  0  0  0  0  0  0  0  0  0  0
   -1.3640    1.7570   -0.0440 C   0  0  1  0  0  0  0  0  0  0  0  0
   -2.6740    1.0490    0.1100 C   0  0  0  0  0  0  0  0  0  0  0  0
   -2.6410    0.3030    1.4280 C   0  0  0  0  0  0  0  0  0  0  0  0
   -3.7460   -0.4750    1.6580 O   0  0  0  0  0  0  0  0  0  0  0  0
   -4.4130   -0.9090    0.5320 C   0  0  0  0  0  0  0  0  0  0  0  0
   -3.6300   -1.9890   -0.2040 C   0  0  0  0  0  0  0  0  0  0  0  0
   -2.3890   -2.0460    0.3810 O   0  0  0  0  0  0  0  0  0  0  0  0
   -1.3940   -2.6100   -0.3720 C   0  0  0  0  0  0  0  0  0  0  0  0
   -0.5030   -1.5690   -1.0710 C   0  0  0  0  0  0  0  0  0  0  0  0
    0.5630   -1.3310   -0.2600 O   0  0  0  0  0  0  0  0  0  0  0  0
    1.4230   -0.3470    0.0630 C   0  0  0  0  0  0  0  0  0  0  0  0
    1.0170    0.9420    0.5090 C   0  0  0  0  0  0  0  0  0  0  0  0
    2.0390    1.8370    0.8060 C   0  0  0  0  0  0  0  0  0  0  0  0
    3.3850    1.5630    0.6970 C   0  0  0  0  0  0  0  0  0  0  0  0
    3.7440    0.3100    0.2630 C   0  0  0  0  0  0  0  0  0  0  0  0
    5.1920   -0.0690    0.1160 C   0  0  1  0  0  0  0  0  0  0  0  0
    5.8540    0.3910    1.2770 O   0  0  0  0  0  0  0  0  0  0  0  0
    5.3540   -1.4320    0.0190 O   0  0  0  0  0  0  0  0  0  0  0  0
    2.7780   -0.6240   -0.0460 C   0  0  0  0  0  0  0  0  0  0  0  0
    3.3110   -1.8590   -0.4730 O   0  0  0  0  0  0  0  0  0  0  0  0
   -0.2840    1.2630    0.6350 O   0  0  0  0  0  0  0  0  0  0  0  0
  1  2  1  0
  3  2  1  6
  3  4  1  0
  3 23  1  0
  4  5  1  0
  5  6  1  0
  6  7  1  0
  7  8  1  0
  8  9  1  0
  9 10  1  0
 10 11  1  0
 11 12  1  0
 12 13  1  0
 13 14  2  0
 13 21  1  0
 14 15  1  0
 14 23  1  0
 15 16  2  0
 16 17  1  0
 17 18  1  0
 17 21  2  0
 18 19  1  1
 18 20  1  0
 21 22  1  0
M  END
