
     RDKit          3D

 15 15  0  0  0  0  0  0  0  0999 V2000
    3.3840    1.6530    0.8540 N   0  0  0  0  0  0  0  0  0  0  0  0
    2.4180    1.1250   -0.0610 C   0  0  0  0  0  0  0  0  0  0  0  0
    2.4250    1.4670   -1.2930 N   0  0  0  0  0  0  0  0  0  0  0  0
    1.4770    0.1990    0.4500 N   0  0  0  0  0  0  0  0  0  0  0  0
    0.4820   -0.4040   -0.3920 C   0  0  0  0  0  0  0  0  0  0  0  0
    0.8100   -0.6760   -1.5870 N   0  0  0  0  0  0  0  0  0  0  0  0
   -0.2340   -1.4030   -2.7530 Cl  0  0  0  0  0  0  0  0  0  0  0  0
   -0.8460   -0.6550    0.1360 C   0  0  0  0  0  0  0  0  0  0  0  0
   -2.0010   -0.2300   -0.4560 C   0  0  0  0  0  0  0  0  0  0  0  0
   -1.9080    0.5530   -1.6460 N   0  0  0  0  0  0  0  0  0  0  0  0
   -3.2020   -0.5260    0.0880 N   0  0  0  0  0  0  0  0  0  0  0  0
   -3.3230   -1.2380    1.2140 C   0  0  0  0  0  0  0  0  0  0  0  0
   -2.2050   -1.6680    1.8190 N   0  0  0  0  0  0  0  0  0  0  0  0
   -0.9970   -1.3990    1.3170 C   0  0  0  0  0  0  0  0  0  0  0  0
    0.0410   -1.8060    1.8890 O   0  0  0  0  0  0  0  0  0  0  0  0
  1  2  1  0
  2  3  2  0
  2  4  1  0
  4  5  1  0
  5  6  2  3
  5  8  1  0
  6  7  1  0
  8  9  2  0
  8 14  1  0
  9 10  1  0
  9 11  1  0
 11 12  2  0
 12 13  1  0
 13 14  1  0
 14 15  2  0
M  CHG  1   3   1
M  END
