
     RDKit          3D

 27 29  0  0  0  0  0  0  0  0999 V2000
   -1.1950   -2.9680   -0.2070 C   0  0  0  0  0  0  0  0  0  0  0  0
   -1.6070   -1.5280   -0.2040 C   0  0  0  0  0  0  0  0  0  0  0  0
   -2.9310   -1.3080    0.0610 C   0  0  0  0  0  0  0  0  0  0  0  0
   -3.4250   -0.0390    0.0670 C   0  0  0  0  0  0  0  0  0  0  0  0
   -4.7970    0.2260    0.2710 N   0  0  0  0  0  0  0  0  0  0  0  0
   -5.1900    1.3360    0.9230 N   0  0  0  0  0  0  0  0  0  0  0  0
   -6.4550    1.6900    1.1150 C   0  0  0  0  0  0  0  0  0  0  0  0
   -7.4690    0.8780    0.6210 C   0  0  0  0  0  0  0  0  0  0  0  0
   -8.6800    1.1900    0.7970 O   0  0  0  0  0  0  0  0  0  0  0  0
   -7.0840   -0.2240   -0.0260 N   0  0  0  0  0  0  0  0  0  0  0  0
   -5.8070   -0.5400   -0.1970 C   0  0  0  0  0  0  0  0  0  0  0  0
   -5.5250   -1.5810   -0.8180 O   0  0  0  0  0  0  0  0  0  0  0  0
   -2.5410    0.9800   -0.1920 C   0  0  0  0  0  0  0  0  0  0  0  0
   -1.1860    0.7530   -0.4620 C   0  0  0  0  0  0  0  0  0  0  0  0
   -0.3450    1.9350   -0.7360 C   0  0  0  0  0  0  0  0  0  0  0  0
   -0.6830   -0.5180   -0.4740 C   0  0  0  0  0  0  0  0  0  0  0  0
    0.6010   -0.8280   -0.7220 O   0  0  0  0  0  0  0  0  0  0  0  0
    1.7970   -0.8930   -0.2190 C   0  0  0  0  0  0  0  0  0  0  0  0
    2.1510   -1.9630    0.6110 C   0  0  0  0  0  0  0  0  0  0  0  0
    3.4200   -2.0980    1.1910 C   0  0  0  0  0  0  0  0  0  0  0  0
    4.3640   -1.1080    0.9150 C   0  0  0  0  0  0  0  0  0  0  0  0
    5.6260   -1.2350    1.4760 O   0  0  0  0  0  0  0  0  0  0  0  0
    4.0400   -0.0640    0.1140 C   0  0  0  0  0  0  0  0  0  0  0  0
    5.1060    0.9820   -0.0380 C   0  0  1  0  0  0  0  0  0  0  0  0
    5.7720    0.9420   -1.4100 C   0  0  0  0  0  0  0  0  0  0  0  0
    4.3380    2.3730   -0.0480 C   0  0  0  0  0  0  0  0  0  0  0  0
    2.7920    0.0590   -0.4530 C   0  0  0  0  0  0  0  0  0  0  0  0
  1  2  1  0
  2  3  2  0
  2 16  1  0
  3  4  1  0
  4  5  1  0
  4 13  2  0
  5  6  1  0
  5 11  1  0
  6  7  2  0
  7  8  1  0
  8  9  2  0
  8 10  1  0
 10 11  1  0
 11 12  2  0
 13 14  1  0
 14 15  1  0
 14 16  2  0
 16 17  1  0
 17 18  1  0
 18 19  2  0
 18 27  1  0
 19 20  1  0
 20 21  2  0
 21 22  1  0
 21 23  1  0
 23 24  1  0
 23 27  2  0
 24 25  1  6
 24 26  1  0
M  END
