
     RDKit          3D

 14 14  0  0  0  0  0  0  0  0999 V2000
    4.6670    0.2240   -0.6260 N   0  0  0  0  0  0  0  0  0  0  0  0
    3.3190    0.6080   -0.4400 N   0  0  0  0  0  0  0  0  0  0  0  0
    2.3570   -0.3880   -0.2510 C   0  0  0  0  0  0  0  0  0  0  0  0
    2.7870   -1.5980   -0.2620 O   0  0  0  0  0  0  0  0  0  0  0  0
    0.9340   -0.2270   -0.0440 C   0  0  0  0  0  0  0  0  0  0  0  0
    0.4670    1.0070   -0.0280 C   0  0  0  0  0  0  0  0  0  0  0  0
   -0.8310    1.6090    0.1420 N   0  0  0  0  0  0  0  0  0  0  0  0
   -2.0180    1.1660    0.0590 C   0  0  0  0  0  0  0  0  0  0  0  0
   -2.9450    2.2060    0.3260 N   0  0  0  0  0  0  0  0  0  0  0  0
   -2.6180   -0.1010   -0.2330 N   0  0  0  0  0  0  0  0  0  0  0  0
   -2.1600   -1.4210   -0.4780 C   0  0  0  0  0  0  0  0  0  0  0  0
   -1.0950   -1.8970    0.4880 C   0  0  1  0  0  0  0  0  0  0  0  0
   -1.1570   -3.6790    0.4610 Cl  0  0  0  0  0  0  0  0  0  0  0  0
    0.2210   -1.4740    0.1190 N   0  0  0  0  0  0  0  0  0  0  0  0
  1  2  1  0
  2  3  1  0
  3  4  2  0
  3  5  1  0
  5  6  2  0
  5 14  1  0
  6  7  1  0
  7  8  2  0
  8  9  1  0
  8 10  1  0
 10 11  1  0
 11 12  1  0
 12 13  1  6
 12 14  1  0
M  CHG  1   7   1
M  END
