
     RDKit          3D

 22 23  0  0  0  0  0  0  0  0999 V2000
    0.9930   -3.0720   -1.3590 C   0  0  0  0  0  0  0  0  0  0  0  0
    0.4800   -2.1880   -0.2840 C   0  0  0  0  0  0  0  0  0  0  0  0
    0.2680   -2.6440    0.7940 O   0  0  0  0  0  0  0  0  0  0  0  0
    0.2680   -0.7700   -0.6380 C   0  0  2  0  0  0  0  0  0  0  0  0
   -0.6220   -0.7810   -1.9090 C   0  0  0  0  0  0  0  0  0  0  0  0
    1.5820   -0.2130   -0.9990 C   0  0  0  0  0  0  0  0  0  0  0  0
    2.0550    1.0180   -0.3800 C   0  0  0  0  0  0  0  0  0  0  0  0
    3.3560    1.6190   -0.6870 C   0  0  0  0  0  0  0  0  0  0  0  0
    4.2920    1.2590   -1.4650 C   0  0  0  0  0  0  0  0  0  0  0  0
    4.3720    0.0940   -2.3230 C   0  0  0  0  0  0  0  0  0  0  0  0
    5.5180    2.1720   -1.5110 C   0  0  0  0  0  0  0  0  0  0  0  0
    1.2740    1.6170    0.4840 C   0  0  0  0  0  0  0  0  0  0  0  0
   -0.0350    1.1040    0.8570 C   0  0  0  0  0  0  0  0  0  0  0  0
   -0.8450    1.9820    1.7500 C   0  0  0  0  0  0  0  0  0  0  0  0
   -0.5560   -0.0110    0.3680 C   0  0  0  0  0  0  0  0  0  0  0  0
   -1.8420   -0.5240    0.9020 C   0  0  1  0  0  0  0  0  0  0  0  0
   -2.0380   -0.4530    2.3690 C   0  0  0  0  0  0  0  0  0  0  0  0
   -3.3400    0.0910    2.8630 C   0  0  0  0  0  0  0  0  0  0  0  0
   -4.4850   -0.0870    1.9340 C   0  0  1  0  0  0  0  0  0  0  0  0
   -4.8680    1.1320    1.4000 O   0  0  0  0  0  0  0  0  0  0  0  0
   -4.1860   -1.1100    0.8580 C   0  0  0  0  0  0  0  0  0  0  0  0
   -3.0360   -0.4960    0.0250 C   0  0  0  0  0  0  0  0  0  0  0  0
  1  2  1  0
  2  3  2  0
  2  4  1  0
  4  5  1  6
  4  6  1  0
  4 15  1  0
  6  7  1  0
  7  8  1  0
  7 12  2  0
  8  9  2  3
  9 10  1  0
  9 11  1  0
 12 13  1  0
 13 14  1  0
 13 15  2  0
 16 15  1  6
 16 17  1  0
 16 22  1  0
 17 18  1  0
 18 19  1  0
 19 20  1  6
 19 21  1  0
 21 22  1  0
M  END
