
     RDKit          3D

 22 23  0  0  0  0  0  0  0  0999 V2000
    4.0670    2.5630    0.0120 C   0  0  0  0  0  0  0  0  0  0  0  0
    2.7210    2.9330    0.5060 C   0  0  0  0  0  0  0  0  0  0  0  0
    1.9710    2.0120    1.1000 C   0  0  0  0  0  0  0  0  0  0  0  0
    2.4370    0.5890    1.2960 C   0  0  0  0  0  0  0  0  0  0  0  0
    1.4580   -0.3700    0.5150 C   0  0  0  0  0  0  0  0  0  0  0  0
    0.1570    0.1510    0.5800 C   0  0  0  0  0  0  0  0  0  0  0  0
   -1.1650   -0.2840    0.1700 C   0  0  1  0  0  0  0  0  0  0  0  0
   -1.7100   -1.5470    0.7210 C   0  0  0  0  0  0  0  0  0  0  0  0
   -2.0780    0.8340    0.9160 C   0  0  0  0  0  0  0  0  0  0  0  0
   -3.4980    0.6350    0.5910 C   0  0  1  0  0  0  0  0  0  0  0  0
   -4.2020    1.9350    1.0660 C   0  0  0  0  0  0  0  0  0  0  0  0
   -3.8620    0.5060   -0.8470 C   0  0  0  0  0  0  0  0  0  0  0  0
   -2.9290   -0.3880   -1.6090 C   0  0  1  0  0  0  0  0  0  0  0  0
   -3.1380   -0.0610   -2.9740 O   0  0  0  0  0  0  0  0  0  0  0  0
   -1.5270   -0.0160   -1.2620 C   0  0  0  0  0  0  0  0  0  0  0  0
    2.0670   -1.3970    0.0320 C   0  0  0  0  0  0  0  0  0  0  0  0
    3.5290   -1.5620    0.2660 C   0  0  0  0  0  0  0  0  0  0  0  0
    4.2030   -2.5700   -0.2510 C   0  0  0  0  0  0  0  0  0  0  0  0
    3.6130   -3.5990   -1.0780 C   0  0  0  0  0  0  0  0  0  0  0  0
    2.3380   -3.5210   -1.3230 C   0  0  0  0  0  0  0  0  0  0  0  0
    1.4990   -2.4350   -0.7940 C   0  0  0  0  0  0  0  0  0  0  0  0
    0.2970   -2.4990   -1.1180 O   0  0  0  0  0  0  0  0  0  0  0  0
  1  2  1  0
  2  3  2  3
  3  4  1  0
  4  5  1  0
  5  6  1  0
  5 16  2  3
  6  7  1  0
  7  8  1  1
  7  9  1  0
  7 15  1  0
  9 10  1  0
 10 11  1  6
 10 12  1  0
 12 13  1  0
 13 14  1  6
 13 15  1  0
 16 17  1  0
 16 21  1  0
 17 18  2  0
 18 19  1  0
 19 20  2  0
 20 21  1  0
 21 22  2  0
M  END
