
     RDKit          3D

  9  8  0  0  0  0  0  0  0  0999 V2000
   -2.6900    1.6500    0.2610 N   0  0  0  0  0  0  0  0  0  0  0  0
   -1.8850    0.0950    0.5620 P   0  0  0  0  0  0  0  0  0  0  0  0
   -2.8970   -1.1910   -0.0630 O   0  0  0  0  0  0  0  0  0  0  0  0
    0.0550   -0.0580   -0.4540 P   0  0  0  0  0  0  0  0  0  0  0  0
    0.7510   -1.5970    0.0130 O   0  0  0  0  0  0  0  0  0  0  0  0
    1.1460    1.1830    0.0220 O   0  0  0  0  0  0  0  0  0  0  0  0
    2.3470    0.8470   -0.4310 O   0  0  0  0  0  0  0  0  0  0  0  0
    2.9770    0.1040    0.4520 O   0  0  0  0  0  0  0  0  0  0  0  0
    4.2510    0.0380    0.1730 O   0  0  0  0  0  0  0  0  0  0  0  0
  1  2  1  0
  2  3  1  0
  2  4  1  0
  4  5  1  0
  4  6  1  0
  6  7  1  0
  7  8  1  0
  8  9  1  0
M  END
