
     RDKit          3D

  9  8  0  0  0  0  0  0  0  0999 V2000
   -3.2200    1.1800    0.5200 O   0  0  0  0  0  0  0  0  0  0  0  0
   -2.6250    1.2890   -0.6440 O   0  0  0  0  0  0  0  0  0  0  0  0
   -1.2410    0.2180   -0.6200 P   0  0  0  0  0  0  0  0  0  0  0  0
   -1.8300   -1.3070   -0.0020 O   0  0  0  0  0  0  0  0  0  0  0  0
   -0.0500    0.9320    0.5180 N   0  0  0  0  0  0  0  0  0  0  0  0
    1.0960    1.2820   -0.0870 O   0  0  0  0  0  0  0  0  0  0  0  0
    2.2050   -0.0130   -0.2760 P   0  0  0  0  0  0  0  0  0  0  0  0
    1.6190   -1.5140    0.3170 O   0  0  0  0  0  0  0  0  0  0  0  0
    3.7860    0.3650    0.3280 O   0  0  0  0  0  0  0  0  0  0  0  0
  1  2  1  0
  2  3  1  0
  3  4  1  0
  3  5  1  0
  5  6  1  0
  6  7  1  0
  7  8  1  0
  7  9  1  0
M  END
