
     RDKit          3D

  9  8  0  0  0  0  0  0  0  0999 V2000
    3.3140   -0.3380    0.2590 N   0  0  0  0  0  0  0  0  0  0  0  0
    2.8800    0.5100   -0.7160 O   0  0  0  0  0  0  0  0  0  0  0  0
    1.7870    1.0790   -0.2330 O   0  0  0  0  0  0  0  0  0  0  0  0
    0.6050   -0.1760    0.1040 P   0  0  0  0  0  0  0  0  0  0  0  0
    0.4830   -0.4280    1.8140 O   0  0  0  0  0  0  0  0  0  0  0  0
   -1.2200    0.2490   -0.8900 P   0  0  0  0  0  0  0  0  0  0  0  0
   -1.6160   -0.7040   -2.2350 O   0  0  0  0  0  0  0  0  0  0  0  0
   -2.4720    0.9400   -0.0300 O   0  0  0  0  0  0  0  0  0  0  0  0
   -3.1580    0.1730    0.7550 O   0  0  0  0  0  0  0  0  0  0  0  0
  1  2  1  0
  2  3  1  0
  3  4  1  0
  4  5  1  0
  4  6  1  0
  6  7  1  0
  6  8  1  0
  8  9  1  0
M  END
