
     RDKit          3D

  9  8  0  0  0  0  0  0  0  0999 V2000
   -3.9000    0.0640   -0.6420 O   0  0  0  0  0  0  0  0  0  0  0  0
   -3.1520   -1.4470   -0.2060 P   0  0  0  0  0  0  0  0  0  0  0  0
   -1.5510   -1.0410    0.5220 N   0  0  0  0  0  0  0  0  0  0  0  0
   -0.9330   -0.2090   -0.3580 O   0  0  0  0  0  0  0  0  0  0  0  0
    0.3690   -0.2900   -0.2250 O   0  0  0  0  0  0  0  0  0  0  0  0
    0.7360    0.6490    0.6080 O   0  0  0  0  0  0  0  0  0  0  0  0
    2.4220    0.8510    0.7500 P   0  0  0  0  0  0  0  0  0  0  0  0
    3.3530   -0.2920   -0.1100 O   0  0  0  0  0  0  0  0  0  0  0  0
    2.9550    2.4710    0.5690 O   0  0  0  0  0  0  0  0  0  0  0  0
  1  2  1  0
  2  3  1  0
  3  4  1  0
  4  5  1  0
  5  6  1  0
  6  7  1  0
  7  8  1  0
  7  9  1  0
M  END
