
     RDKit          3D

 30 33  0  0  0  0  0  0  0  0999 V2000
   -0.2650    2.5450    2.4780 C   0  0  0  0  0  0  0  0  0  0  0  0
    0.0660    1.0740    2.3520 C   0  0  2  0  0  0  0  0  0  0  0  0
    1.1710    0.9050    1.5050 O   0  0  0  0  0  0  0  0  0  0  0  0
    2.3220    0.2950    1.9890 C   0  0  0  0  0  0  0  0  0  0  0  0
    2.3130   -0.0830    3.1890 O   0  0  0  0  0  0  0  0  0  0  0  0
    3.4930    0.1000    1.1430 C   0  0  0  0  0  0  0  0  0  0  0  0
    4.6110   -0.5070    1.6580 C   0  0  0  0  0  0  0  0  0  0  0  0
    5.7410   -0.7020    0.8630 C   0  0  0  0  0  0  0  0  0  0  0  0
    5.7390   -0.2880   -0.4370 C   0  0  0  0  0  0  0  0  0  0  0  0
    6.8760   -0.4680   -1.2900 N   0  0  0  0  0  0  0  0  0  0  0  0
    6.9770   -1.2080   -2.3640 N   0  0  0  0  0  0  0  0  0  0  0  0
    8.2160   -1.0820   -2.8500 C   0  0  0  0  0  0  0  0  0  0  0  0
    8.6390   -1.6700   -3.8850 O   0  0  0  0  0  0  0  0  0  0  0  0
    8.8560   -0.2700   -2.0730 O   0  0  0  0  0  0  0  0  0  0  0  0
    8.0730    0.1220   -1.1150 C   0  0  0  0  0  0  0  0  0  0  0  0
    8.3420    0.9180   -0.1620 O   0  0  0  0  0  0  0  0  0  0  0  0
    4.6370    0.3150   -0.9610 C   0  0  0  0  0  0  0  0  0  0  0  0
    3.5000    0.5140   -0.1710 C   0  0  0  0  0  0  0  0  0  0  0  0
   -1.1340    0.3180    1.8250 C   0  0  0  0  0  0  0  0  0  0  0  0
   -2.1860    0.3850    2.4860 O   0  0  0  0  0  0  0  0  0  0  0  0
   -1.0730   -0.4250    0.6490 N   0  0  0  0  0  0  0  0  0  0  0  0
   -2.1050   -1.1600    0.0230 C   0  0  0  0  0  0  0  0  0  0  0  0
   -3.2180   -0.3340   -0.5110 C   0  0  2  0  0  0  0  0  0  0  0  0
   -4.0450    0.4890    0.3820 C   0  0  0  0  0  0  0  0  0  0  0  0
   -5.3820    0.8040   -0.3680 C   0  0  1  0  0  0  0  0  0  0  0  0
   -5.0270    1.0960   -1.7820 C   0  0  0  0  0  0  0  0  0  0  0  0
   -4.6780   -0.2160   -2.4680 C   0  0  0  0  0  0  0  0  0  0  0  0
   -4.1340   -1.1800   -1.4020 C   0  0  2  0  0  0  0  0  0  0  0  0
   -5.3130   -1.6680   -0.6040 C   0  0  0  0  0  0  0  0  0  0  0  0
   -6.2130   -0.4750   -0.3470 C   0  0  0  0  0  0  0  0  0  0  0  0
  2  1  1  6
  2  3  1  0
  2 19  1  0
  3  4  1  0
  4  5  2  0
  4  6  1  0
  6  7  2  0
  6 18  1  0
  7  8  1  0
  8  9  2  0
  9 10  1  0
  9 17  1  0
 10 11  1  0
 10 15  1  0
 11 12  1  0
 12 13  2  0
 12 14  1  0
 14 15  1  0
 15 16  2  0
 17 18  2  0
 19 20  2  0
 19 21  1  0
 21 22  1  0
 23 22  1  1
 23 24  1  0
 23 28  1  0
 24 25  1  0
 25 26  1  6
 25 30  1  0
 26 27  1  0
 28 27  1  6
 28 29  1  0
 29 30  1  0
M  END
