
     RDKit          3D

 31 34  0  0  0  0  0  0  0  0999 V2000
    5.7680    0.5660   -2.2730 C   0  0  0  0  0  0  0  0  0  0  0  0
    5.4500    0.2990   -0.8380 C   0  0  2  0  0  0  0  0  0  0  0  0
    3.9460    0.3890   -0.6130 C   0  0  0  0  0  0  0  0  0  0  0  0
    3.7090   -0.0550    0.7440 N   0  0  0  0  0  0  0  0  0  0  0  0
    2.5960   -0.8550    1.0290 C   0  0  0  0  0  0  0  0  0  0  0  0
    2.4090   -1.2290    2.2160 O   0  0  0  0  0  0  0  0  0  0  0  0
    1.6640   -1.2460   -0.0590 C   0  0  0  0  0  0  0  0  0  0  0  0
    0.5840   -2.0940    0.5560 C   0  0  0  0  0  0  0  0  0  0  0  0
   -0.4600   -2.5730   -0.4090 C   0  0  0  0  0  0  0  0  0  0  0  0
   -1.2750   -1.5400   -1.0900 C   0  0  0  0  0  0  0  0  0  0  0  0
   -2.1260   -0.6970   -0.2250 C   0  0  0  0  0  0  0  0  0  0  0  0
   -3.4680   -0.8220   -0.2240 C   0  0  0  0  0  0  0  0  0  0  0  0
   -4.0830   -1.8120   -1.1030 C   0  0  0  0  0  0  0  0  0  0  0  0
   -3.4350   -2.8420   -1.3930 O   0  0  0  0  0  0  0  0  0  0  0  0
   -5.3610   -1.5480   -1.5640 O   0  0  0  0  0  0  0  0  0  0  0  0
   -6.0120   -0.3620   -1.1420 C   0  0  0  0  0  0  0  0  0  0  0  0
   -7.3740   -0.0850   -1.7010 C   0  0  0  0  0  0  0  0  0  0  0  0
   -7.9340    1.0480   -1.2680 O   0  0  0  0  0  0  0  0  0  0  0  0
   -5.4940    0.4860   -0.3090 C   0  0  0  0  0  0  0  0  0  0  0  0
   -5.8040    1.7600    0.3230 C   0  0  0  0  0  0  0  0  0  0  0  0
   -6.8920    2.3630    0.3850 O   0  0  0  0  0  0  0  0  0  0  0  0
   -4.5740    2.2600    0.9090 N   0  0  0  0  0  0  0  0  0  0  0  0
   -3.8480    1.0890    1.3760 C   0  0  2  0  0  0  0  0  0  0  0  0
   -2.3840    1.2360    1.3510 C   0  0  0  0  0  0  0  0  0  0  0  0
   -1.7740    2.1320    1.9970 O   0  0  0  0  0  0  0  0  0  0  0  0
   -1.5940    0.3480    0.5780 N   0  0  0  0  0  0  0  0  0  0  0  0
   -4.3620   -0.0270    0.5740 C   0  0  2  0  0  0  0  0  0  0  0  0
    4.6660    0.3710    1.7460 C   0  0  0  0  0  0  0  0  0  0  0  0
    5.4960    1.4690    1.1650 C   0  0  1  0  0  0  0  0  0  0  0  0
    6.5930    1.7890    2.1870 C   0  0  0  0  0  0  0  0  0  0  0  0
    6.1240    1.1630   -0.0140 O   0  0  0  0  0  0  0  0  0  0  0  0
  2  1  1  6
  2  3  1  0
  2 31  1  0
  3  4  1  0
  4  5  1  0
  4 28  1  0
  5  6  2  0
  5  7  1  0
  7  8  1  0
  8  9  1  0
  9 10  1  0
 10 11  1  0
 11 12  2  0
 11 26  1  0
 12 13  1  0
 27 12  1  6
 13 14  2  0
 13 15  1  0
 15 16  1  0
 16 17  1  0
 16 19  2  0
 17 18  1  0
 19 20  1  0
 19 27  1  0
 20 21  2  0
 20 22  1  0
 23 22  1  6
 23 24  1  0
 23 27  1  0
 24 25  2  0
 24 26  1  0
 28 29  1  0
 29 30  1  1
 29 31  1  0
M  END
