
     RDKit          3D

 31 34  0  0  0  0  0  0  0  0999 V2000
   -2.3710   -1.8590   -3.5540 N   0  0  0  0  0  0  0  0  0  0  0  0
   -2.2410   -1.5990   -2.1700 C   0  0  0  0  0  0  0  0  0  0  0  0
   -3.0230   -2.1920   -1.3890 O   0  0  0  0  0  0  0  0  0  0  0  0
   -1.2030   -0.6510   -1.7070 C   0  0  0  0  0  0  0  0  0  0  0  0
   -1.1890   -0.4790   -0.2020 C   0  0  2  0  0  0  0  0  0  0  0  0
   -0.1490    0.4730    0.2420 C   0  0  0  0  0  0  0  0  0  0  0  0
   -0.5040    1.5040    0.8560 O   0  0  0  0  0  0  0  0  0  0  0  0
    1.2390    0.2720    0.0040 N   0  0  0  0  0  0  0  0  0  0  0  0
    2.1670    1.2590    0.4790 C   0  0  0  0  0  0  0  0  0  0  0  0
    3.5890    0.9500    0.1770 C   0  0  2  0  0  0  0  0  0  0  0  0
    3.8490    0.8390   -1.3190 C   0  0  0  0  0  0  0  0  0  0  0  0
    5.3640    1.0250   -1.4810 C   0  0  0  0  0  0  0  0  0  0  0  0
    6.0320   -0.1750   -0.8950 C   0  0  0  0  0  0  0  0  0  0  0  0
    5.4580   -0.6070    0.4050 C   0  0  0  0  0  0  0  0  0  0  0  0
    6.1320   -1.3230    1.1530 O   0  0  0  0  0  0  0  0  0  0  0  0
    4.1350   -0.2060    0.8050 N   0  0  0  0  0  0  0  0  0  0  0  0
    3.4900   -0.9990    1.7810 C   0  0  0  0  0  0  0  0  0  0  0  0
    4.0660   -2.0230    2.2900 O   0  0  0  0  0  0  0  0  0  0  0  0
    2.2150   -0.7610    2.2710 O   0  0  0  0  0  0  0  0  0  0  0  0
   -0.8560   -1.7990    0.4810 C   0  0  0  0  0  0  0  0  0  0  0  0
   -1.4820   -1.8960    1.8530 C   0  0  0  0  0  0  0  0  0  0  0  0
   -2.9670   -1.7510    1.8110 C   0  0  0  0  0  0  0  0  0  0  0  0
   -3.3240   -0.4860    1.1280 C   0  0  0  0  0  0  0  0  0  0  0  0
   -4.5370    0.1520    1.4290 C   0  0  0  0  0  0  0  0  0  0  0  0
   -4.9040    1.3280    0.8230 C   0  0  0  0  0  0  0  0  0  0  0  0
   -4.0640    1.8840   -0.0920 C   0  0  0  0  0  0  0  0  0  0  0  0
   -2.8710    1.2610   -0.3910 C   0  0  0  0  0  0  0  0  0  0  0  0
   -2.4850    0.0610    0.2190 C   0  0  0  0  0  0  0  0  0  0  0  0
   -4.6830    3.0530   -0.5360 O   0  0  0  0  0  0  0  0  0  0  0  0
   -5.7600    3.3740    0.3230 C   0  0  0  0  0  0  0  0  0  0  0  0
   -6.0340    2.1500    0.9420 O   0  0  0  0  0  0  0  0  0  0  0  0
  1  2  1  0
  2  3  2  0
  2  4  1  0
  5  4  1  6
  5  6  1  0
  5 20  1  0
  5 28  1  0
  6  7  2  0
  6  8  1  0
  8  9  1  0
 10  9  1  6
 10 11  1  0
 10 16  1  0
 11 12  1  0
 12 13  1  0
 13 14  1  0
 14 15  2  0
 14 16  1  0
 16 17  1  0
 17 18  2  0
 17 19  1  0
 20 21  1  0
 21 22  1  0
 22 23  1  0
 23 24  2  0
 23 28  1  0
 24 25  1  0
 25 26  2  0
 25 31  1  0
 26 27  1  0
 26 29  1  0
 27 28  2  0
 29 30  1  0
 30 31  1  0
M  END
