
     RDKit          3D

 31 34  0  0  0  0  0  0  0  0999 V2000
   -1.6920   -3.3630   -0.9600 C   0  0  0  0  0  0  0  0  0  0  0  0
   -3.0080   -2.8040   -1.1650 N   0  0  0  0  0  0  0  0  0  0  0  0
   -3.3720   -1.5140   -0.6810 C   0  0  0  0  0  0  0  0  0  0  0  0
   -2.4500   -0.7400    0.0160 C   0  0  0  0  0  0  0  0  0  0  0  0
   -2.7500    0.5110    0.5050 C   0  0  0  0  0  0  0  0  0  0  0  0
   -1.8580    1.3870    1.2570 C   0  0  0  0  0  0  0  0  0  0  0  0
   -0.5640    0.9500    1.4740 O   0  0  0  0  0  0  0  0  0  0  0  0
    0.4010    0.6770    0.5410 C   0  0  0  0  0  0  0  0  0  0  0  0
    0.1150    0.8370   -0.6730 O   0  0  0  0  0  0  0  0  0  0  0  0
    1.7720    0.2020    0.8470 C   0  0  2  0  0  0  0  0  0  0  0  0
    1.9580    0.0650    2.2410 O   0  0  0  0  0  0  0  0  0  0  0  0
    2.7820    1.1940    0.3720 C   0  0  0  0  0  0  0  0  0  0  0  0
    3.5060    0.8030   -0.8730 C   0  0  0  0  0  0  0  0  0  0  0  0
    4.1050   -0.5590   -0.8460 C   0  0  1  0  0  0  0  0  0  0  0  0
    5.6130   -0.5380   -0.8750 C   0  0  1  0  0  0  0  0  0  0  0  0
    6.1900    0.1590    0.2320 N   0  0  0  0  0  0  0  0  0  0  0  0
    7.4500   -0.4700    0.4940 C   0  0  0  0  0  0  0  0  0  0  0  0
    8.4110   -0.0070    1.1740 O   0  0  0  0  0  0  0  0  0  0  0  0
    7.4620   -1.7390   -0.1490 N   0  0  0  0  0  0  0  0  0  0  0  0
    6.2040   -1.8740   -0.7990 C   0  0  0  0  0  0  0  0  0  0  0  0
    5.7740   -2.9920   -1.1970 O   0  0  0  0  0  0  0  0  0  0  0  0
    3.5510   -1.3540    0.2890 C   0  0  0  0  0  0  0  0  0  0  0  0
    2.0330   -1.1730    0.2630 C   0  0  0  0  0  0  0  0  0  0  0  0
   -4.0400    1.0150    0.2870 C   0  0  0  0  0  0  0  0  0  0  0  0
   -4.9690    0.2710   -0.3980 C   0  0  0  0  0  0  0  0  0  0  0  0
   -4.6290   -0.9840   -0.8750 C   0  0  0  0  0  0  0  0  0  0  0  0
   -6.2980    0.6130   -0.7070 O   0  0  0  0  0  0  0  0  0  0  0  0
   -6.8550    1.9180   -0.6390 C   0  0  0  0  0  0  0  0  0  0  0  0
   -6.6720    2.4170    0.7610 C   0  0  0  0  0  0  0  0  0  0  0  0
   -5.3650    3.1080    0.9850 C   0  0  0  0  0  0  0  0  0  0  0  0
   -4.2410    2.2740    0.8150 O   0  0  0  0  0  0  0  0  0  0  0  0
  1  2  1  0
  2  3  1  0
  3  4  2  0
  3 26  1  0
  4  5  1  0
  5  6  1  0
  5 24  2  0
  6  7  1  0
  7  8  1  0
  8  9  2  0
  8 10  1  0
 10 11  1  1
 10 12  1  0
 10 23  1  0
 12 13  1  0
 14 13  1  1
 14 15  1  0
 14 22  1  0
 15 16  1  1
 15 20  1  0
 16 17  1  0
 17 18  2  0
 17 19  1  0
 19 20  1  0
 20 21  2  0
 22 23  1  0
 24 25  1  0
 24 31  1  0
 25 26  2  0
 25 27  1  0
 27 28  1  0
 28 29  1  0
 29 30  1  0
 30 31  1  0
M  END
