
     RDKit          3D

 20 21  0  0  0  0  0  0  0  0999 V2000
    5.8480    1.2570    1.6110 O   0  0  0  0  0  0  0  0  0  0  0  0
    4.9180    0.6560    1.0200 C   0  0  0  0  0  0  0  0  0  0  0  0
    4.7060    0.7670   -0.4470 C   0  0  0  0  0  0  0  0  0  0  0  0
    4.4920   -0.5810   -1.0560 C   0  0  0  0  0  0  0  0  0  0  0  0
    3.5290   -1.4650   -0.3260 C   0  0  0  0  0  0  0  0  0  0  0  0
    2.9550   -0.8090    0.9110 C   0  0  2  0  0  0  0  0  0  0  0  0
    1.8660    0.1450    0.5810 C   0  0  0  0  0  0  0  0  0  0  0  0
    1.8840    1.3410    1.0290 O   0  0  0  0  0  0  0  0  0  0  0  0
    0.7900   -0.2220   -0.2270 N   0  0  0  0  0  0  0  0  0  0  0  0
   -0.2690    0.6060   -0.5930 N   0  0  0  0  0  0  0  0  0  0  0  0
   -1.6080    0.2200   -0.3650 C   0  0  0  0  0  0  0  0  0  0  0  0
   -1.8150   -0.9070    0.1870 O   0  0  0  0  0  0  0  0  0  0  0  0
   -2.7600    0.9680   -0.6890 N   0  0  0  0  0  0  0  0  0  0  0  0
   -4.0870    0.4590   -0.4010 C   0  0  0  0  0  0  0  0  0  0  0  0
   -4.8400    1.1500    0.4220 C   0  0  0  0  0  0  0  0  0  0  0  0
   -6.1930    0.8870    0.8910 C   0  0  0  0  0  0  0  0  0  0  0  0
   -6.9030   -0.5990    0.1680 S   0  0  0  0  0  0  0  0  0  0  0  0
   -5.6690   -1.3230   -0.8940 C   0  0  0  0  0  0  0  0  0  0  0  0
   -4.4720   -0.7710   -1.0670 C   0  0  0  0  0  0  0  0  0  0  0  0
    3.9880   -0.1810    1.7100 N   0  0  0  0  0  0  0  0  0  0  0  0
  1  2  2  0
  2  3  1  0
  2 20  1  0
  3  4  1  0
  4  5  1  0
  5  6  1  0
  6  7  1  6
  6 20  1  0
  7  8  2  0
  7  9  1  0
  9 10  1  0
 10 11  1  0
 11 12  2  0
 11 13  1  0
 13 14  1  0
 14 15  2  0
 14 19  1  0
 15 16  1  0
 16 17  1  0
 17 18  1  0
 18 19  2  0
M  END
