
     RDKit          3D

 20 21  0  0  0  0  0  0  0  0999 V2000
    3.7450    2.5780   -1.9920 C   0  0  0  0  0  0  0  0  0  0  0  0
    2.1780    1.7230   -1.7290 S   0  0  0  0  0  0  0  0  0  0  0  0
    2.2250    0.8010   -0.1710 C   0  0  0  0  0  0  0  0  0  0  0  0
    3.2710    0.7790    0.6320 C   0  0  0  0  0  0  0  0  0  0  0  0
    3.0250   -0.0420    1.8090 C   0  0  0  0  0  0  0  0  0  0  0  0
    3.8070   -0.2800    2.7750 O   0  0  0  0  0  0  0  0  0  0  0  0
    1.7020   -0.5250    1.6370 N   0  0  0  0  0  0  0  0  0  0  0  0
    1.1620   -0.0210    0.4090 C   0  0  2  0  0  0  0  0  0  0  0  0
    0.7780   -1.1830   -0.4800 C   0  0  1  0  0  0  0  0  0  0  0  0
    1.9740   -2.0820   -0.7120 C   0  0  0  0  0  0  0  0  0  0  0  0
   -0.2650   -1.9860    0.2200 C   0  0  0  0  0  0  0  0  0  0  0  0
   -1.4420   -1.2260    0.5080 N   0  0  0  0  0  0  0  0  0  0  0  0
   -2.2210   -0.6290   -0.5310 C   0  0  0  0  0  0  0  0  0  0  0  0
   -1.8960   -0.7570   -1.7330 O   0  0  0  0  0  0  0  0  0  0  0  0
   -3.4130    0.1380   -0.1620 C   0  0  0  0  0  0  0  0  0  0  0  0
   -3.8930    0.3650    1.1000 C   0  0  0  0  0  0  0  0  0  0  0  0
   -5.0080    1.1140    1.0090 N   0  0  0  0  0  0  0  0  0  0  0  0
   -5.2070    1.3440   -0.3010 C   0  0  0  0  0  0  0  0  0  0  0  0
   -6.1610    2.0160   -0.7900 O   0  0  0  0  0  0  0  0  0  0  0  0
   -4.2390    0.7520   -1.0220 N   0  0  0  0  0  0  0  0  0  0  0  0
  1  2  1  0
  2  3  1  0
  3  4  2  0
  3  8  1  0
  4  5  1  0
  5  6  2  0
  5  7  1  0
  8  7  1  1
  8  9  1  0
  9 10  1  1
  9 11  1  0
 11 12  1  0
 12 13  1  0
 13 14  2  0
 13 15  1  0
 15 16  2  0
 15 20  1  0
 16 17  1  0
 17 18  1  0
 18 19  2  0
 18 20  1  0
M  END
