
     RDKit          3D

  9  9  0  0  0  0  0  0  0  0999 V2000
   -2.1980   -0.2030   -0.3650 C   0  0  0  0  0  0  0  0  0  0  0  0
   -0.8660   -0.0580    0.3780 C   0  0  2  0  0  0  0  0  0  0  0  0
   -1.1190   -0.0690    1.7450 O   0  0  0  0  0  0  0  0  0  0  0  0
   -0.2720    1.2500   -0.0540 C   0  0  0  0  0  0  0  0  0  0  0  0
    1.1830    1.3900    0.2430 C   0  0  0  0  0  0  0  0  0  0  0  0
    1.9660    0.1860   -0.2120 C   0  0  2  0  0  0  0  0  0  0  0  0
    1.9450    0.1280   -1.9760 Cl  0  0  0  0  0  0  0  0  0  0  0  0
    1.4190   -1.1020    0.3400 C   0  0  0  0  0  0  0  0  0  0  0  0
   -0.0310   -1.2460    0.0040 C   0  0  0  0  0  0  0  0  0  0  0  0
  2  1  1  6
  2  3  1  0
  2  4  1  0
  2  9  1  0
  4  5  1  0
  5  6  1  0
  6  7  1  6
  6  8  1  0
  8  9  1  0
M  END
