
     RDKit          3D

 20 21  0  0  0  0  0  0  0  0999 V2000
   -2.9250   -0.9400    0.5350 C   0  0  0  0  0  0  0  0  0  0  0  0
   -2.2140    0.4060    0.4760 C   0  0  2  0  0  0  0  0  0  0  0  0
   -1.3080    0.5530    1.6640 C   0  0  0  0  0  0  0  0  0  0  0  0
   -3.2660    1.5260    0.4640 C   0  0  0  0  0  0  0  0  0  0  0  0
   -3.8680    1.3350   -0.9060 C   0  0  0  0  0  0  0  0  0  0  0  0
   -2.7270    0.8880   -1.7470 C   0  0  0  0  0  0  0  0  0  0  0  0
   -2.8180    0.7570   -3.1780 S   0  0  0  0  0  0  0  0  0  0  0  0
   -1.5540    0.6230   -0.8550 C   0  0  2  0  0  0  0  0  0  0  0  0
   -0.7000   -0.3640   -1.3280 N   0  0  0  0  0  0  0  0  0  0  0  0
    0.4880   -0.7210   -0.7070 C   0  0  0  0  0  0  0  0  0  0  0  0
    1.6130    0.2880   -0.7320 C   0  0  0  0  0  0  0  0  0  0  0  0
    2.7890   -0.2180   -0.0700 N   0  0  0  0  0  0  0  0  0  0  0  0
    3.0410   -0.0530    1.2330 C   0  0  0  0  0  0  0  0  0  0  0  0
    2.2490    0.5650    1.9600 O   0  0  0  0  0  0  0  0  0  0  0  0
    4.1630   -0.5430    1.8300 N   0  0  0  0  0  0  0  0  0  0  0  0
    5.0520   -1.2160    1.0970 C   0  0  0  0  0  0  0  0  0  0  0  0
    6.1080   -1.6860    1.6220 O   0  0  0  0  0  0  0  0  0  0  0  0
    4.8240   -1.3940   -0.2000 N   0  0  0  0  0  0  0  0  0  0  0  0
    3.7130   -0.9070   -0.7870 C   0  0  0  0  0  0  0  0  0  0  0  0
    3.5000   -1.0740   -1.9990 O   0  0  0  0  0  0  0  0  0  0  0  0
  2  1  1  6
  2  3  1  0
  2  4  1  0
  2  8  1  0
  4  5  1  0
  5  6  1  0
  6  7  2  0
  6  8  1  0
  8  9  1  6
  9 10  1  0
 10 11  1  0
 11 12  1  0
 12 13  1  0
 12 19  1  0
 13 14  2  0
 13 15  1  0
 15 16  1  0
 16 17  2  0
 16 18  1  0
 18 19  1  0
 19 20  2  0
M  END
