
     RDKit          3D

 13 14  0  0  0  0  0  0  0  0999 V2000
    3.4940   -0.3770   -0.1180 C   0  0  0  0  0  0  0  0  0  0  0  0
    2.3520    0.5640   -0.0530 C   0  0  0  0  0  0  0  0  0  0  0  0
    2.3710    1.8970   -0.1590 N   0  0  0  0  0  0  0  0  0  0  0  0
    1.1520    2.3930   -0.0500 N   0  0  0  0  0  0  0  0  0  0  0  0
    0.2570    1.3840    0.1350 C   0  0  0  0  0  0  0  0  0  0  0  0
    1.0190    0.2340    0.1330 C   0  0  0  0  0  0  0  0  0  0  0  0
    0.7050   -1.1930    0.2810 C   0  0  0  0  0  0  0  0  0  0  0  0
   -0.4710   -1.6240   -0.5760 C   0  0  2  0  0  0  0  0  0  0  0  0
   -0.5180   -0.7860   -1.6720 O   0  0  0  0  0  0  0  0  0  0  0  0
   -1.7100   -1.5180    0.2970 C   0  0  0  0  0  0  0  0  0  0  0  0
   -2.4480   -0.2660   -0.1430 C   0  0  0  0  0  0  0  0  0  0  0  0
   -2.0730    0.8250    0.8290 C   0  0  0  0  0  0  0  0  0  0  0  0
   -1.1230    1.8240    0.2670 C   0  0  0  0  0  0  0  0  0  0  0  0
  1  2  1  0
  2  3  2  0
  2  6  1  0
  3  4  1  0
  4  5  1  0
  5  6  2  0
  5 13  1  0
  6  7  1  0
  7  8  1  0
  8  9  1  6
  8 10  1  0
 10 11  1  0
 11 12  1  0
 12 13  1  0
M  END
