
     RDKit          3D

 13 13  0  0  0  0  0  0  0  0999 V2000
    1.2440   -2.2260    1.2990 C   0  0  0  0  0  0  0  0  0  0  0  0
    0.7960   -1.4830    0.3060 C   0  0  0  0  0  0  0  0  0  0  0  0
   -0.4940   -1.8240   -0.4170 C   0  0  0  0  0  0  0  0  0  0  0  0
   -1.3260   -0.6140   -0.4410 N   0  0  0  0  0  0  0  0  0  0  0  0
   -2.6850   -0.6820   -0.0840 C   0  0  0  0  0  0  0  0  0  0  0  0
   -3.3820    0.6390    0.0630 C   0  0  0  0  0  0  0  0  0  0  0  0
   -2.8160    1.4210    1.0690 O   0  0  0  0  0  0  0  0  0  0  0  0
   -0.6700    0.5590   -0.8740 C   0  0  0  0  0  0  0  0  0  0  0  0
    0.6570    0.7430   -0.7780 C   0  0  0  0  0  0  0  0  0  0  0  0
    1.3040    1.9830   -1.2480 C   0  0  0  0  0  0  0  0  0  0  0  0
    1.4830   -0.2870   -0.1710 C   0  0  0  0  0  0  0  0  0  0  0  0
    2.7970   -0.2060   -0.0090 C   0  0  0  0  0  0  0  0  0  0  0  0
    3.6340    0.8420   -0.3980 N   0  0  0  0  0  0  0  0  0  0  0  0
  1  2  2  0
  2  3  1  0
  2 11  1  0
  3  4  1  0
  4  5  1  0
  4  8  1  0
  5  6  1  0
  6  7  1  0
  8  9  2  0
  9 10  1  0
  9 11  1  0
 11 12  2  3
 12 13  1  0
M  END
