
     RDKit          3D

 19 21  0  0  0  0  0  0  0  0999 V2000
    5.2820   -0.2160   -0.5640 N   0  0  0  0  0  0  0  0  0  0  0  0
    3.9190   -0.0250   -0.9270 C   0  0  0  0  0  0  0  0  0  0  0  0
    3.5950    0.2200   -2.2100 N   0  0  0  0  0  0  0  0  0  0  0  0
    2.3320    0.4190   -2.6180 C   0  0  0  0  0  0  0  0  0  0  0  0
    1.3310    0.3690   -1.7050 N   0  0  0  0  0  0  0  0  0  0  0  0
    1.6450    0.1300   -0.4310 C   0  0  0  0  0  0  0  0  0  0  0  0
    0.8110    0.0710    0.6910 C   0  0  0  0  0  0  0  0  0  0  0  0
   -0.6170    0.0170    0.6950 C   0  0  2  0  0  0  0  0  0  0  0  0
   -1.2890   -0.6100   -0.3300 O   0  0  0  0  0  0  0  0  0  0  0  0
   -2.5520   -0.7170    0.3500 C   0  0  2  0  0  0  0  0  0  0  0  0
   -3.6040   -1.2060   -0.5940 C   0  0  0  0  0  0  0  0  0  0  0  0
   -3.2890   -2.4380   -1.1920 O   0  0  0  0  0  0  0  0  0  0  0  0
   -2.8100    0.7360    0.7680 C   0  0  1  0  0  0  0  0  0  0  0  0
   -3.3510    0.6840    2.0280 O   0  0  0  0  0  0  0  0  0  0  0  0
   -1.3890    1.2990    0.8140 C   0  0  1  0  0  0  0  0  0  0  0  0
   -1.0900    2.1540    1.8100 O   0  0  0  0  0  0  0  0  0  0  0  0
    1.6400   -0.1580    1.7460 N   0  0  0  0  0  0  0  0  0  0  0  0
    2.8780   -0.2440    1.3560 N   0  0  0  0  0  0  0  0  0  0  0  0
    2.9180   -0.0730    0.0210 C   0  0  0  0  0  0  0  0  0  0  0  0
  1  2  1  0
  2  3  2  0
  2 19  1  0
  3  4  1  0
  4  5  2  0
  5  6  1  0
  6  7  1  0
  6 19  2  0
  8  7  1  6
  7 17  2  0
  8  9  1  0
  8 15  1  0
  9 10  1  0
 10 11  1  6
 10 13  1  0
 11 12  1  0
 13 14  1  1
 13 15  1  0
 15 16  1  1
 17 18  1  0
 18 19  1  0
M  END
