
     RDKit          3D

 13 14  0  0  0  0  0  0  0  0999 V2000
    2.4650    0.1320    0.5780 C   0  0  0  0  0  0  0  0  0  0  0  0
    1.6960    0.1560   -0.7220 C   0  0  2  0  0  0  0  0  0  0  0  0
    0.6910    1.2570   -0.8060 C   0  0  0  0  0  0  0  0  0  0  0  0
    0.3440    1.9060    0.4820 C   0  0  0  0  0  0  0  0  0  0  0  0
   -0.6580    1.1650    1.3240 C   0  0  0  0  0  0  0  0  0  0  0  0
   -1.3610    0.1270    0.6030 N   0  0  0  0  0  0  0  0  0  0  0  0
   -1.0410   -1.0530    0.0570 C   0  0  0  0  0  0  0  0  0  0  0  0
   -2.1490   -1.6320   -0.5200 C   0  0  0  0  0  0  0  0  0  0  0  0
   -3.1560   -0.7710   -0.3090 N   0  0  0  0  0  0  0  0  0  0  0  0
   -2.6750    0.3050    0.3770 C   0  0  0  0  0  0  0  0  0  0  0  0
   -3.4080    1.2710    0.7090 O   0  0  0  0  0  0  0  0  0  0  0  0
    0.2620   -1.7850   -0.0140 C   0  0  0  0  0  0  0  0  0  0  0  0
    1.1480   -1.2010   -1.0830 C   0  0  0  0  0  0  0  0  0  0  0  0
  2  1  1  1
  2  3  1  0
  2 13  1  0
  3  4  1  0
  4  5  1  0
  5  6  1  0
  6  7  1  0
  6 10  1  0
  7  8  2  0
  7 12  1  0
  8  9  1  0
  9 10  1  0
 10 11  2  0
 12 13  1  0
M  END
