
     RDKit          3D

 25 28  0  0  0  0  0  0  0  0999 V2000
    0.7640    5.1820    0.1060 C   0  0  0  0  0  0  0  0  0  0  0  0
    1.1950    3.7790    0.3340 C   0  0  0  0  0  0  0  0  0  0  0  0
    0.8650    2.6900   -0.4530 C   0  0  0  0  0  0  0  0  0  0  0  0
    1.4440    1.5690    0.0740 C   0  0  0  0  0  0  0  0  0  0  0  0
    1.4020    0.1920   -0.3570 C   0  0  0  0  0  0  0  0  0  0  0  0
    0.2400   -0.3860   -0.5080 C   0  0  0  0  0  0  0  0  0  0  0  0
   -1.0240    0.3200   -0.2430 C   0  0  0  0  0  0  0  0  0  0  0  0
   -1.7190   -0.4740    0.7720 N   0  0  0  0  0  0  0  0  0  0  0  0
   -3.0840   -0.6760    0.5020 C   0  0  2  0  0  0  0  0  0  0  0  0
   -3.3910   -1.4440   -0.7480 C   0  0  0  0  0  0  0  0  0  0  0  0
   -4.8250   -1.6810   -0.6940 N   0  0  0  0  0  0  0  0  0  0  0  0
   -5.4580   -0.1720   -0.0750 S   0  0  2  0  0  0  0  0  0  0  0  0
   -6.1750   -0.3820    1.2760 N   0  0  0  0  0  0  0  0  0  0  0  0
   -6.2340    0.5760   -1.0720 O   0  0  0  0  0  0  0  0  0  0  0  0
   -3.8790    0.6100    0.3050 C   0  0  0  0  0  0  0  0  0  0  0  0
    0.0330   -1.7460   -0.9390 N   0  0  0  0  0  0  0  0  0  0  0  0
    0.8410   -2.7290   -1.0910 C   0  0  0  0  0  0  0  0  0  0  0  0
    2.2910   -2.7610   -0.8580 C   0  0  0  0  0  0  0  0  0  0  0  0
    3.1060   -1.7370   -0.6330 C   0  0  0  0  0  0  0  0  0  0  0  0
    4.5360   -2.0610   -0.4300 C   0  0  2  0  0  0  0  0  0  0  0  0
    4.9620   -3.0650    0.5620 C   0  0  0  0  0  0  0  0  0  0  0  0
    5.1200   -1.6410    0.9160 C   0  0  0  0  0  0  0  0  0  0  0  0
    2.7280   -0.3860   -0.5730 N   0  0  0  0  0  0  0  0  0  0  0  0
    2.1200    1.9770    1.1690 N   0  0  0  0  0  0  0  0  0  0  0  0
    1.9750    3.2960    1.3310 N   0  0  0  0  0  0  0  0  0  0  0  0
  1  2  1  0
  2  3  2  0
  2 25  1  0
  3  4  1  0
  4  5  1  0
  4 24  2  0
  5  6  2  0
  5 23  1  0
  6  7  1  0
  6 16  1  0
  7  8  1  0
  9  8  1  6
  9 10  1  0
  9 15  1  0
 10 11  1  0
 11 12  1  0
 12 13  2  0
 12 14  2  0
 12 15  1  1
 16 17  2  0
 17 18  1  0
 18 19  2  0
 20 19  1  1
 19 23  1  0
 20 21  1  0
 20 22  1  0
 21 22  1  0
 24 25  1  0
M  CHG  1   8   1
M  END
