
     RDKit          3D

 25 28  0  0  0  0  0  0  0  0999 V2000
   -1.5160   -3.4350    2.0190 O   0  0  0  0  0  0  0  0  0  0  0  0
   -2.1070   -2.4840    1.4460 C   0  0  0  0  0  0  0  0  0  0  0  0
   -3.5450   -2.2410    1.7780 C   0  0  0  0  0  0  0  0  0  0  0  0
   -4.2260   -1.8410    0.5180 C   0  0  0  0  0  0  0  0  0  0  0  0
   -4.2110   -0.4930    0.1540 N   0  0  0  0  0  0  0  0  0  0  0  0
   -2.9830    0.2410    0.1930 C   0  0  2  0  0  0  0  0  0  0  0  0
   -3.1810    1.5520   -0.4110 C   0  0  0  0  0  0  0  0  0  0  0  0
   -2.5130    2.2770   -1.2770 C   0  0  0  0  0  0  0  0  0  0  0  0
   -3.2300    3.5550   -1.5100 C   0  0  0  0  0  0  0  0  0  0  0  0
   -4.3790    3.4470   -0.6620 N   0  0  0  0  0  0  0  0  0  0  0  0
   -4.3810    2.3420   -0.0360 C   0  0  0  0  0  0  0  0  0  0  0  0
   -1.7950   -0.5260   -0.2380 C   0  0  0  0  0  0  0  0  0  0  0  0
   -1.1280   -0.2400   -1.2280 N   0  0  0  0  0  0  0  0  0  0  0  0
   -0.0470   -0.6550   -1.9180 N   0  0  0  0  0  0  0  0  0  0  0  0
    1.1820   -0.9710   -1.4420 C   0  0  0  0  0  0  0  0  0  0  0  0
    1.8320   -2.1110   -1.1490 N   0  0  0  0  0  0  0  0  0  0  0  0
    3.0000   -2.0990   -0.7140 N   0  0  0  0  0  0  0  0  0  0  0  0
    3.7300   -1.1180   -0.4860 C   0  0  0  0  0  0  0  0  0  0  0  0
    5.0570   -0.7760   -0.0040 C   0  0  2  0  0  0  0  0  0  0  0  0
    4.9550   -0.2680    1.4160 C   0  0  0  0  0  0  0  0  0  0  0  0
    5.2420    1.1970    1.2910 C   0  0  0  0  0  0  0  0  0  0  0  0
    5.6590    1.4730   -0.1230 C   0  0  0  0  0  0  0  0  0  0  0  0
    5.7500    0.2070   -0.7870 N   0  0  0  0  0  0  0  0  0  0  0  0
    2.5100    0.2200   -0.9990 S   0  0  0  0  0  0  0  0  0  0  0  0
   -1.3620   -1.6890    0.5080 N   0  0  0  0  0  0  0  0  0  0  0  0
  1  2  2  0
  2  3  1  0
  2 25  1  0
  3  4  1  0
  4  5  1  0
  5  6  1  0
  6  7  1  6
  6 12  1  0
  7  8  2  0
  7 11  1  0
  8  9  1  0
  9 10  1  0
 10 11  2  0
 12 13  2  3
 12 25  1  0
 13 14  1  0
 14 15  1  0
 15 16  2  0
 15 24  1  0
 16 17  1  0
 17 18  2  0
 19 18  1  6
 18 24  1  0
 19 20  1  0
 19 23  1  0
 20 21  1  0
 21 22  1  0
 22 23  1  0
M  CHG  1   5   1
M  END
