
     RDKit          3D

  9  8  0  0  0  0  0  0  0  0999 V2000
   -3.3490   -0.4930    0.1310 C   0  0  0  0  0  0  0  0  0  0  0  0
   -2.0410   -0.7230    0.7960 C   0  0  0  0  0  0  0  0  0  0  0  0
   -1.9040   -1.4760    1.9840 N   0  0  0  0  0  0  0  0  0  0  0  0
   -0.9660   -0.1860    0.2280 C   0  0  0  0  0  0  0  0  0  0  0  0
    0.3330   -0.3770    0.8310 C   0  0  0  0  0  0  0  0  0  0  0  0
    1.4170    0.1390    0.2980 C   0  0  0  0  0  0  0  0  0  0  0  0
    1.4560    0.9350   -0.9140 C   0  0  0  0  0  0  0  0  0  0  0  0
    2.6100    1.4090   -1.3650 C   0  0  0  0  0  0  0  0  0  0  0  0
    3.8250    1.1490   -0.6770 N   0  0  0  0  0  0  0  0  0  0  0  0
  1  2  1  0
  2  3  1  0
  2  4  2  3
  4  5  1  0
  5  6  2  3
  6  7  1  0
  7  8  2  3
  8  9  1  0
M  END
