
     RDKit          3D

 25 28  0  0  0  0  0  0  0  0999 V2000
    6.3820    2.1500    1.8880 N   0  0  0  0  0  0  0  0  0  0  0  0
    7.3530    1.5470    1.0540 C   0  0  0  0  0  0  0  0  0  0  0  0
    8.6500    2.1170    0.9360 N   0  0  0  0  0  0  0  0  0  0  0  0
    7.1060    0.4750    0.3780 N   0  0  0  0  0  0  0  0  0  0  0  0
    5.8350   -0.1310    0.4590 C   0  0  0  0  0  0  0  0  0  0  0  0
    4.6990   -0.0420   -0.0100 N   0  0  0  0  0  0  0  0  0  0  0  0
    3.6480   -0.7090    0.1990 C   0  0  0  0  0  0  0  0  0  0  0  0
    2.3160   -0.5250   -0.4190 C   0  0  0  0  0  0  0  0  0  0  0  0
    1.9030    0.3560   -1.3160 C   0  0  0  0  0  0  0  0  0  0  0  0
    0.6230    0.3360   -1.7410 C   0  0  0  0  0  0  0  0  0  0  0  0
   -0.2000   -0.6020   -1.2210 C   0  0  0  0  0  0  0  0  0  0  0  0
   -1.6390   -0.9350   -1.4350 C   0  0  0  0  0  0  0  0  0  0  0  0
   -2.4110   -0.1400   -0.5010 N   0  0  0  0  0  0  0  0  0  0  0  0
   -3.8220   -0.2160   -0.4410 C   0  0  0  0  0  0  0  0  0  0  0  0
   -4.5980    0.4880    0.3960 N   0  0  0  0  0  0  0  0  0  0  0  0
   -5.9000    0.1700    0.1850 C   0  0  0  0  0  0  0  0  0  0  0  0
   -7.0850    0.5970    0.7630 C   0  0  0  0  0  0  0  0  0  0  0  0
   -8.2790    0.0770    0.3230 C   0  0  0  0  0  0  0  0  0  0  0  0
   -8.3530   -0.8610   -0.6790 C   0  0  0  0  0  0  0  0  0  0  0  0
   -7.1600   -1.2710   -1.2410 C   0  0  0  0  0  0  0  0  0  0  0  0
   -5.9400   -0.7700   -0.8240 C   0  0  0  0  0  0  0  0  0  0  0  0
   -4.6590   -0.9760   -1.1760 N   0  0  0  0  0  0  0  0  0  0  0  0
    0.8900   -1.4840   -0.0900 S   0  0  0  0  0  0  0  0  0  0  0  0
    3.8600   -1.8020    1.2080 C   0  0  0  0  0  0  0  0  0  0  0  0
    5.5530   -1.5950    1.6150 S   0  0  0  0  0  0  0  0  0  0  0  0
  1  2  1  0
  2  3  1  0
  2  4  2  3
  4  5  1  0
  5  6  2  0
  5 25  1  0
  6  7  1  0
  7  8  1  0
  7 24  2  0
  8  9  2  0
  8 23  1  0
  9 10  1  0
 10 11  2  0
 11 12  1  0
 11 23  1  0
 12 13  1  0
 13 14  1  0
 14 15  2  0
 14 22  1  0
 15 16  1  0
 16 17  2  0
 16 21  1  0
 17 18  1  0
 18 19  2  0
 19 20  1  0
 20 21  2  0
 21 22  1  0
 24 25  1  0
M  CHG  1   4   1
M  END
