
     RDKit          3D

 18 18  0  0  0  0  0  0  0  0999 V2000
   -4.5220   -1.4040    0.3100 C   0  0  0  0  0  0  0  0  0  0  0  0
   -4.3940   -0.1730    0.8140 O   0  0  0  0  0  0  0  0  0  0  0  0
   -3.6680    0.8120    0.3370 C   0  0  0  0  0  0  0  0  0  0  0  0
   -2.1570    0.6060    0.2240 C   0  0  2  0  0  0  0  0  0  0  0  0
   -1.8870   -0.5270   -0.7230 C   0  0  0  0  0  0  0  0  0  0  0  0
   -1.6860    0.2990    1.6470 C   0  0  0  0  0  0  0  0  0  0  0  0
   -1.4940    1.8630   -0.2010 C   0  0  0  0  0  0  0  0  0  0  0  0
   -2.4470    2.9810   -0.3990 S   0  0  0  0  0  0  0  0  0  0  0  0
    0.1480    2.2100   -0.4880 S   0  0  0  0  0  0  0  0  0  0  0  0
    1.4080    1.0350   -0.2560 C   0  0  0  0  0  0  0  0  0  0  0  0
    1.4790   -0.1930    0.1720 C   0  0  0  0  0  0  0  0  0  0  0  0
    2.8600   -0.7010    0.1490 C   0  0  0  0  0  0  0  0  0  0  0  0
    3.6630    0.2410   -0.3050 C   0  0  0  0  0  0  0  0  0  0  0  0
    5.1150    0.1360   -0.4820 C   0  0  0  0  0  0  0  0  0  0  0  0
    5.7950   -1.1200   -0.1350 C   0  0  0  0  0  0  0  0  0  0  0  0
    5.7640    1.0970   -0.9200 O   0  0  0  0  0  0  0  0  0  0  0  0
    2.8210    1.3860   -0.5890 C   0  0  0  0  0  0  0  0  0  0  0  0
    3.2290    2.4890   -1.0410 O   0  0  0  0  0  0  0  0  0  0  0  0
  1  2  1  0
  2  3  1  0
  3  4  1  0
  4  5  1  6
  4  6  1  0
  4  7  1  0
  7  8  2  0
  7  9  1  0
  9 10  1  0
 10 11  2  0
 10 17  1  0
 11 12  1  0
 12 13  2  0
 13 14  1  0
 13 17  1  0
 14 15  1  0
 14 16  2  0
 17 18  2  0
M  END
