
     RDKit          3D

 19 20  0  0  0  0  0  0  0  0999 V2000
    6.1180    1.1000    0.1770 N   0  0  0  0  0  0  0  0  0  0  0  0
    5.1650    0.5560   -0.7010 C   0  0  0  0  0  0  0  0  0  0  0  0
    5.4090    0.4150   -1.9260 O   0  0  0  0  0  0  0  0  0  0  0  0
    3.8430    0.1350   -0.1890 C   0  0  0  0  0  0  0  0  0  0  0  0
    2.8070   -0.4130   -0.9150 C   0  0  0  0  0  0  0  0  0  0  0  0
    1.7600   -0.6700   -0.1100 N   0  0  0  0  0  0  0  0  0  0  0  0
    0.4810   -1.2480   -0.4980 C   0  0  1  0  0  0  0  0  0  0  0  0
    0.2260   -2.5540    0.2010 C   0  0  0  0  0  0  0  0  0  0  0  0
    1.2610   -3.4240   -0.1600 O   0  0  0  0  0  0  0  0  0  0  0  0
   -0.5750   -0.2130   -0.2180 C   0  0  0  0  0  0  0  0  0  0  0  0
   -1.9600   -0.6710   -0.5700 C   0  0  0  0  0  0  0  0  0  0  0  0
   -2.9030    0.4280   -0.2510 C   0  0  0  0  0  0  0  0  0  0  0  0
   -3.2150    1.3870   -1.2000 C   0  0  0  0  0  0  0  0  0  0  0  0
   -4.0940    2.4290   -0.9350 C   0  0  0  0  0  0  0  0  0  0  0  0
   -4.6750    2.5110    0.3160 C   0  0  0  0  0  0  0  0  0  0  0  0
   -4.3840    1.5690    1.2860 C   0  0  0  0  0  0  0  0  0  0  0  0
   -3.5030    0.5340    1.0040 C   0  0  0  0  0  0  0  0  0  0  0  0
    2.1440   -0.2830    1.1130 C   0  0  0  0  0  0  0  0  0  0  0  0
    3.4100    0.2080    1.0720 N   0  0  0  0  0  0  0  0  0  0  0  0
  1  2  1  0
  2  3  2  0
  2  4  1  0
  4  5  2  0
  4 19  1  0
  5  6  1  0
  6  7  1  0
  6 18  1  0
  7  8  1  1
  7 10  1  0
  8  9  1  0
 10 11  1  0
 11 12  1  0
 12 13  2  0
 12 17  1  0
 13 14  1  0
 14 15  2  0
 15 16  1  0
 16 17  2  0
 18 19  2  0
M  END
