
     RDKit          3D

 37 39  0  0  0  0  0  0  0  0999 V2000
    1.6570   -3.8220   -0.9500 C   0  0  0  0  0  0  0  0  0  0  0  0
    1.7010   -2.4840   -0.4490 O   0  0  0  0  0  0  0  0  0  0  0  0
    2.5780   -2.1420    0.5850 C   0  0  0  0  0  0  0  0  0  0  0  0
    3.2810   -3.0520    1.0100 O   0  0  0  0  0  0  0  0  0  0  0  0
    2.6130   -0.7550    1.0930 C   0  0  2  0  0  0  0  0  0  0  0  0
    1.5530   -0.1250    0.2610 O   0  0  0  0  0  0  0  0  0  0  0  0
    0.5040    0.4930    0.9230 C   0  0  0  0  0  0  0  0  0  0  0  0
    0.5220    0.4790    2.1800 O   0  0  0  0  0  0  0  0  0  0  0  0
   -0.6150    1.1570    0.1670 C   0  0  2  0  0  0  0  0  0  0  0  0
    0.0440    2.3270   -0.5560 C   0  0  0  0  0  0  0  0  0  0  0  0
   -1.4700    1.6620    1.0860 O   0  0  0  0  0  0  0  0  0  0  0  0
   -2.7260    1.9890    0.6910 C   0  0  1  0  0  0  0  0  0  0  0  0
   -2.8890    3.4940    0.8070 C   0  0  0  0  0  0  0  0  0  0  0  0
   -4.3010    3.9070    0.3710 C   0  0  0  0  0  0  0  0  0  0  0  0
   -5.1720    3.2420    1.2310 O   0  0  0  0  0  0  0  0  0  0  0  0
   -3.1400    1.5020   -0.6580 C   0  0  0  0  0  0  0  0  0  0  0  0
   -2.3520    0.3390   -1.1760 C   0  0  2  0  0  0  0  0  0  0  0  0
   -2.2270    0.5270   -2.6970 C   0  0  0  0  0  0  0  0  0  0  0  0
   -1.5460   -0.5870   -3.1730 O   0  0  0  0  0  0  0  0  0  0  0  0
   -2.4830   -1.6080   -3.2800 C   0  0  1  0  0  0  0  0  0  0  0  0
   -1.8030   -2.7440   -3.7300 O   0  0  0  0  0  0  0  0  0  0  0  0
   -3.2410   -1.8570   -2.0300 C   0  0  2  0  0  0  0  0  0  0  0  0
   -4.4430   -1.0660   -1.6430 C   0  0  1  0  0  0  0  0  0  0  0  0
   -5.4730   -1.6930   -0.9100 O   0  0  0  0  0  0  0  0  0  0  0  0
   -3.0830   -0.9450   -0.9240 C   0  0  2  0  0  0  0  0  0  0  0  0
   -3.0510   -1.5410    0.4690 C   0  0  0  0  0  0  0  0  0  0  0  0
   -1.7730   -1.8320    0.8930 O   0  0  0  0  0  0  0  0  0  0  0  0
   -1.0950    0.2120   -0.6860 O   0  0  0  0  0  0  0  0  0  0  0  0
    3.9030   -0.0750    0.6680 C   0  0  1  0  0  0  0  0  0  0  0  0
    3.4780    1.3360    0.6090 O   0  0  0  0  0  0  0  0  0  0  0  0
    5.0260   -0.0660    1.6280 C   0  0  2  0  0  0  0  0  0  0  0  0
    6.2230    0.6020    1.0160 C   0  0  0  0  0  0  0  0  0  0  0  0
    7.3830    0.7130    1.8180 N   0  0  0  0  0  0  0  0  0  0  0  0
    6.2360    1.0550   -0.1510 O   0  0  0  0  0  0  0  0  0  0  0  0
    5.4430   -1.2600    2.3810 C   0  0  1  0  0  0  0  0  0  0  0  0
    4.5010   -1.8040    3.2420 O   0  0  0  0  0  0  0  0  0  0  0  0
    6.1010   -2.2340    1.6160 O   0  0  0  0  0  0  0  0  0  0  0  0
  1  2  1  0
  2  3  1  0
  3  4  2  0
  3  5  1  0
  5  6  1  6
  5 29  1  0
  6  7  1  0
  7  8  2  0
  7  9  1  0
  9 10  1  6
  9 11  1  0
  9 28  1  0
 11 12  1  0
 12 13  1  6
 12 16  1  0
 13 14  1  0
 14 15  1  0
 17 16  1  1
 17 18  1  0
 17 25  1  0
 17 28  1  0
 18 19  1  0
 19 20  1  0
 20 21  1  1
 22 20  1  6
 22 23  1  0
 22 25  1  0
 23 24  1  1
 23 25  1  0
 25 26  1  1
 26 27  1  0
 29 30  1  1
 29 31  1  0
 31 32  1  6
 31 35  1  0
 32 33  1  0
 32 34  2  0
 35 36  1  6
 35 37  1  0
M  END
