
     RDKit          3D

 36 37  0  0  0  0  0  0  0  0999 V2000
    5.5920   -2.9530    2.1590 C   0  0  0  0  0  0  0  0  0  0  0  0
    4.6260   -1.9800    1.9840 O   0  0  0  0  0  0  0  0  0  0  0  0
    4.9150   -1.1610    0.8880 C   0  0  0  0  0  0  0  0  0  0  0  0
    3.8740   -0.1010    0.6880 C   0  0  0  0  0  0  0  0  0  0  0  0
    2.4740   -0.6970    0.4520 C   0  0  2  0  0  0  0  0  0  0  0  0
    2.5290   -1.5180   -0.7590 C   0  0  0  0  0  0  0  0  0  0  0  0
    1.6010   -1.3070   -1.8590 C   0  0  0  0  0  0  0  0  0  0  0  0
    2.2490   -0.8590   -3.0890 N   0  0  0  0  0  0  0  0  0  0  0  0
    0.3050   -1.4410   -1.9420 C   0  0  0  0  0  0  0  0  0  0  0  0
   -0.4220   -1.1700   -3.1800 C   0  0  0  0  0  0  0  0  0  0  0  0
   -1.6380   -1.2710   -3.3550 O   0  0  0  0  0  0  0  0  0  0  0  0
    0.3260   -0.7490   -4.2920 O   0  0  0  0  0  0  0  0  0  0  0  0
   -0.6160   -1.8710   -0.8170 C   0  0  1  0  0  0  0  0  0  0  0  0
    0.1400   -2.4790    0.1890 O   0  0  0  0  0  0  0  0  0  0  0  0
   -1.3520   -0.6650   -0.3440 C   0  0  2  0  0  0  0  0  0  0  0  0
   -2.8250   -0.8350   -0.2230 C   0  0  0  0  0  0  0  0  0  0  0  0
   -3.4100   -1.8270    0.6900 C   0  0  2  0  0  0  0  0  0  0  0  0
   -3.1100   -3.2700    0.4940 C   0  0  0  0  0  0  0  0  0  0  0  0
   -3.9410   -4.0330    1.3860 O   0  0  0  0  0  0  0  0  0  0  0  0
   -4.8270   -1.7370    0.4400 O   0  0  0  0  0  0  0  0  0  0  0  0
   -5.4920   -1.3680    1.6050 C   0  0  0  0  0  0  0  0  0  0  0  0
   -1.1870    0.4520   -1.1960 O   0  0  0  0  0  0  0  0  0  0  0  0
   -0.4020    1.5230   -1.1730 C   0  0  0  0  0  0  0  0  0  0  0  0
    0.4380    1.7150   -2.1330 O   0  0  0  0  0  0  0  0  0  0  0  0
   -0.3000    2.6220   -0.1840 C   0  0  2  0  0  0  0  0  0  0  0  0
   -1.3120    2.6430    0.8840 C   0  0  0  0  0  0  0  0  0  0  0  0
   -2.4430    3.1170    0.2080 O   0  0  0  0  0  0  0  0  0  0  0  0
   -1.8940    4.1400   -0.5570 C   0  0  1  0  0  0  0  0  0  0  0  0
   -1.9780    5.4580    0.1930 C   0  0  0  0  0  0  0  0  0  0  0  0
   -1.4160    6.4280   -0.6240 O   0  0  0  0  0  0  0  0  0  0  0  0
   -0.6030    3.8050   -0.8870 O   0  0  0  0  0  0  0  0  0  0  0  0
    1.1510    2.6780    0.3120 C   0  0  1  0  0  0  0  0  0  0  0  0
    1.3950    3.8220    1.0240 O   0  0  0  0  0  0  0  0  0  0  0  0
    1.2600    1.4230    1.1630 C   0  0  0  0  0  0  0  0  0  0  0  0
    1.0060    1.6810    2.3700 O   0  0  0  0  0  0  0  0  0  0  0  0
    1.5870    0.3200    0.5210 O   0  0  0  0  0  0  0  0  0  0  0  0
  1  2  1  0
  2  3  1  0
  3  4  1  0
  5  4  1  6
  5  6  1  0
  5 36  1  0
  6  7  1  0
  7  8  1  0
  7  9  2  0
  9 10  1  0
  9 13  1  0
 10 11  2  0
 10 12  1  0
 13 14  1  1
 13 15  1  0
 15 16  1  6
 15 22  1  0
 17 16  1  6
 17 18  1  0
 17 20  1  0
 18 19  1  0
 20 21  1  0
 22 23  1  0
 23 24  2  0
 23 25  1  0
 25 26  1  1
 25 31  1  0
 25 32  1  0
 26 27  1  0
 27 28  1  0
 28 29  1  1
 28 31  1  0
 29 30  1  0
 32 33  1  1
 32 34  1  0
 34 35  2  0
 34 36  1  0
M  END
