
     RDKit          3D

 36 37  0  0  0  0  0  0  0  0999 V2000
   -5.2900    2.3660    3.7710 O   0  0  0  0  0  0  0  0  0  0  0  0
   -5.8270    2.4040    2.6350 C   0  0  0  0  0  0  0  0  0  0  0  0
   -7.2170    2.9230    2.5320 C   0  0  0  0  0  0  0  0  0  0  0  0
   -7.5830    2.8650    1.1900 O   0  0  0  0  0  0  0  0  0  0  0  0
   -5.0980    1.9560    1.4990 N   0  0  0  0  0  0  0  0  0  0  0  0
   -3.7710    1.4560    1.5670 C   0  0  0  0  0  0  0  0  0  0  0  0
   -3.2310    1.4170    2.6990 O   0  0  0  0  0  0  0  0  0  0  0  0
   -3.1060    1.0170    0.3280 C   0  0  1  0  0  0  0  0  0  0  0  0
   -1.8090    0.5470    0.5180 O   0  0  0  0  0  0  0  0  0  0  0  0
   -0.7010    1.1300   -0.0580 C   0  0  0  0  0  0  0  0  0  0  0  0
   -0.8620    2.1260   -0.7850 O   0  0  0  0  0  0  0  0  0  0  0  0
    0.6690    0.6220    0.1510 C   0  0  0  0  0  0  0  0  0  0  0  0
    0.8240   -0.4830    0.9600 O   0  0  0  0  0  0  0  0  0  0  0  0
    1.6750    1.1990   -0.4080 C   0  0  0  0  0  0  0  0  0  0  0  0
    3.1020    0.9070   -0.3690 C   0  0  2  0  0  0  0  0  0  0  0  0
    3.5150    0.5490   -1.8080 C   0  0  1  0  0  0  0  0  0  0  0  0
    2.9850    1.5300   -2.6160 O   0  0  0  0  0  0  0  0  0  0  0  0
    5.0090    0.4720   -1.8280 C   0  0  1  0  0  0  0  0  0  0  0  0
    5.4660    1.6300   -2.4980 O   0  0  0  0  0  0  0  0  0  0  0  0
    5.6420    0.4870   -0.4710 C   0  0  0  0  0  0  0  0  0  0  0  0
    4.9650   -0.3670    0.5490 C   0  0  1  0  0  0  0  0  0  0  0  0
    5.3320   -1.8210    0.4470 C   0  0  0  0  0  0  0  0  0  0  0  0
    6.8360   -1.9900    0.5220 C   0  0  0  0  0  0  0  0  0  0  0  0
    7.3030   -1.0760    1.4670 O   0  0  0  0  0  0  0  0  0  0  0  0
    6.3000   -0.7430    2.3790 C   0  0  0  0  0  0  0  0  0  0  0  0
    5.3310    0.0790    1.8140 O   0  0  0  0  0  0  0  0  0  0  0  0
    3.4370   -0.2670    0.4680 C   0  0  2  0  0  0  0  0  0  0  0  0
    2.9360   -1.4240   -0.1670 O   0  0  0  0  0  0  0  0  0  0  0  0
   -3.9720   -0.0320   -0.4210 C   0  0  2  0  0  0  0  0  0  0  0  0
   -4.1270   -1.1510    0.5100 C   0  0  0  0  0  0  0  0  0  0  0  0
   -4.9040   -2.3440    0.1310 C   0  0  0  0  0  0  0  0  0  0  0  0
   -4.3690   -2.9930   -0.9760 O   0  0  0  0  0  0  0  0  0  0  0  0
   -3.3430   -0.2180   -1.7340 C   0  0  0  0  0  0  0  0  0  0  0  0
   -3.9060   -1.0880   -2.6190 O   0  0  0  0  0  0  0  0  0  0  0  0
   -3.2200   -1.1750   -3.8180 C   0  0  0  0  0  0  0  0  0  0  0  0
   -1.9110   -1.6020   -3.6570 O   0  0  0  0  0  0  0  0  0  0  0  0
  1  2  2  0
  2  3  1  0
  2  5  1  0
  3  4  1  0
  5  6  1  0
  6  7  2  0
  6  8  1  0
  8  9  1  1
  8 29  1  0
  9 10  1  0
 10 11  2  0
 10 12  1  0
 12 13  1  0
 12 14  2  3
 15 14  1  6
 15 16  1  0
 15 27  1  0
 16 17  1  6
 16 18  1  0
 18 19  1  6
 18 20  1  0
 21 20  1  6
 21 22  1  0
 21 26  1  0
 21 27  1  0
 22 23  1  0
 23 24  1  0
 24 25  1  0
 25 26  1  0
 27 28  1  6
 29 30  1  1
 29 33  1  0
 30 31  1  0
 31 32  1  0
 33 34  1  0
 34 35  1  0
 35 36  1  0
M  END
