
     RDKit          3D

 37 37  0  0  0  0  0  0  0  0999 V2000
   -3.9180   -3.2580    1.1110 C   0  0  0  0  0  0  0  0  0  0  0  0
   -2.8860   -2.4110    0.9810 O   0  0  0  0  0  0  0  0  0  0  0  0
   -3.1090   -1.0900    0.6200 C   0  0  1  0  0  0  0  0  0  0  0  0
   -2.8690   -0.4120    1.8590 O   0  0  0  0  0  0  0  0  0  0  0  0
   -4.0340   -0.0820    2.4550 N   0  0  0  0  0  0  0  0  0  0  0  0
   -2.0580   -0.6550   -0.3630 C   0  0  2  0  0  0  0  0  0  0  0  0
   -2.2050   -1.5410   -1.5640 C   0  0  0  0  0  0  0  0  0  0  0  0
   -3.4590   -1.4900   -2.3300 C   0  0  0  0  0  0  0  0  0  0  0  0
   -4.6380   -1.7510   -1.7110 O   0  0  0  0  0  0  0  0  0  0  0  0
   -0.7570   -1.0470    0.2980 C   0  0  1  0  0  0  0  0  0  0  0  0
   -0.9240   -2.4350    0.5970 O   0  0  0  0  0  0  0  0  0  0  0  0
    0.4700   -0.9850   -0.4960 C   0  0  0  0  0  0  0  0  0  0  0  0
    1.6440   -0.3780    0.2890 C   0  0  1  0  0  0  0  0  0  0  0  0
    1.5260   -0.5610    1.7640 C   0  0  0  0  0  0  0  0  0  0  0  0
    2.9120   -1.1160   -0.1110 C   0  0  0  0  0  0  0  0  0  0  0  0
    2.9560   -2.3280    0.1870 O   0  0  0  0  0  0  0  0  0  0  0  0
    3.9650   -0.5650   -0.7490 O   0  0  0  0  0  0  0  0  0  0  0  0
    5.1480   -1.1250   -1.1610 C   0  0  0  0  0  0  0  0  0  0  0  0
    5.1460   -2.2170   -2.1450 C   0  0  1  0  0  0  0  0  0  0  0  0
    6.6030   -2.6920   -2.2970 C   0  0  0  0  0  0  0  0  0  0  0  0
    4.4450   -3.3240   -1.6970 O   0  0  0  0  0  0  0  0  0  0  0  0
    1.8420    0.9150   -0.1590 O   0  0  0  0  0  0  0  0  0  0  0  0
    2.3200    2.0530    0.3490 C   0  0  0  0  0  0  0  0  0  0  0  0
    3.3600    2.5830   -0.2050 O   0  0  0  0  0  0  0  0  0  0  0  0
    1.8210    2.8410    1.5020 C   0  0  1  0  0  0  0  0  0  0  0  0
    2.6470    3.9160    1.8350 O   0  0  0  0  0  0  0  0  0  0  0  0
    0.4070    3.3310    1.2970 C   0  0  2  0  0  0  0  0  0  0  0  0
    0.3070    4.8030    1.6990 C   0  0  0  0  0  0  0  0  0  0  0  0
   -0.9860    5.2630    1.5160 O   0  0  0  0  0  0  0  0  0  0  0  0
   -0.5960    2.5690    2.0780 C   0  0  0  0  0  0  0  0  0  0  0  0
   -0.6550    2.8760    3.2940 O   0  0  0  0  0  0  0  0  0  0  0  0
   -1.3550    1.6210    1.4310 O   0  0  0  0  0  0  0  0  0  0  0  0
   -2.2640    1.7700    0.4070 C   0  0  0  0  0  0  0  0  0  0  0  0
   -2.2470    0.7700   -0.7010 C   0  0  2  0  0  0  0  0  0  0  0  0
   -3.5950    0.8000   -1.1900 O   0  0  0  0  0  0  0  0  0  0  0  0
   -1.4330    1.3770   -1.7920 C   0  0  0  0  0  0  0  0  0  0  0  0
   -1.3820    0.8040   -3.0070 O   0  0  0  0  0  0  0  0  0  0  0  0
  1  2  1  0
  3  2  1  1
  3  4  1  0
  3  6  1  0
  4  5  1  0
  6  7  1  6
  6 10  1  0
  6 34  1  0
  7  8  1  0
  8  9  1  0
 10 11  1  6
 10 12  1  0
 12 13  1  0
 13 14  1  1
 13 15  1  0
 13 22  1  0
 15 16  2  0
 15 17  1  0
 17 18  1  0
 18 19  1  0
 19 20  1  1
 19 21  1  0
 22 23  1  0
 23 24  2  0
 23 25  1  0
 25 26  1  6
 25 27  1  0
 27 28  1  1
 27 30  1  0
 28 29  1  0
 30 31  2  0
 30 32  1  0
 32 33  1  0
 33 34  1  0
 34 35  1  6
 34 36  1  0
 36 37  1  0
M  END
