
     RDKit          3D

 37 38  0  0  0  0  0  0  0  0999 V2000
   -0.3170   -4.0030   -0.0380 O   0  0  0  0  0  0  0  0  0  0  0  0
   -0.8730   -3.4300    0.9120 C   0  0  0  0  0  0  0  0  0  0  0  0
   -1.5510   -4.2430    1.8190 O   0  0  0  0  0  0  0  0  0  0  0  0
   -0.8000   -2.0150    1.0360 N   0  0  0  0  0  0  0  0  0  0  0  0
   -0.1030   -1.1620    0.1030 C   0  0  2  0  0  0  0  0  0  0  0  0
    1.1860   -0.6190    0.7060 C   0  0  0  0  0  0  0  0  0  0  0  0
    2.3690   -0.7490   -0.1960 C   0  0  2  0  0  0  0  0  0  0  0  0
    1.9600   -1.1780   -1.4610 O   0  0  0  0  0  0  0  0  0  0  0  0
    3.4060   -1.7160    0.3340 C   0  0  0  0  0  0  0  0  0  0  0  0
    3.8870   -1.3910    1.5780 O   0  0  0  0  0  0  0  0  0  0  0  0
    4.8210   -2.3470    1.9510 C   0  0  2  0  0  0  0  0  0  0  0  0
    4.5070   -2.9410    3.1700 O   0  0  0  0  0  0  0  0  0  0  0  0
    6.0640   -1.7020    2.0060 O   0  0  0  0  0  0  0  0  0  0  0  0
    3.1130    0.5790   -0.4120 C   0  0  0  0  0  0  0  0  0  0  0  0
    3.3490    1.1220    0.8540 O   0  0  0  0  0  0  0  0  0  0  0  0
    3.8990    2.3130    1.2030 C   0  0  0  0  0  0  0  0  0  0  0  0
    4.8480    2.3330    2.0410 O   0  0  0  0  0  0  0  0  0  0  0  0
    3.4820    3.6570    0.6810 C   0  0  0  0  0  0  0  0  0  0  0  0
    2.0820    3.6080    0.1880 C   0  0  0  0  0  0  0  0  0  0  0  0
    1.2470    4.6270    0.6220 O   0  0  0  0  0  0  0  0  0  0  0  0
   -0.0000    4.4510    0.0330 C   0  0  0  0  0  0  0  0  0  0  0  0
   -0.8080    3.3180    0.6730 C   0  0  0  0  0  0  0  0  0  0  0  0
   -0.5380    2.1780    0.0210 O   0  0  0  0  0  0  0  0  0  0  0  0
   -1.3320    1.0630    0.2410 C   0  0  1  0  0  0  0  0  0  0  0  0
   -2.7550    1.4550    0.0400 C   0  0  0  0  0  0  0  0  0  0  0  0
   -3.7660    0.3750    0.0040 C   0  0  2  0  0  0  0  0  0  0  0  0
   -4.8240    0.7490   -0.8660 O   0  0  0  0  0  0  0  0  0  0  0  0
   -4.4570    0.1260    1.3340 C   0  0  0  0  0  0  0  0  0  0  0  0
   -3.5980   -0.2490    2.3360 O   0  0  0  0  0  0  0  0  0  0  0  0
   -3.2580   -0.9470   -0.5890 C   0  0  1  0  0  0  0  0  0  0  0  0
   -4.2590   -1.5680   -1.3000 O   0  0  0  0  0  0  0  0  0  0  0  0
   -2.0620   -0.6100   -1.4090 C   0  0  2  0  0  0  0  0  0  0  0  0
   -1.6870   -1.5600   -2.4690 C   0  0  0  0  0  0  0  0  0  0  0  0
   -2.6960   -1.7940   -3.5560 C   0  0  0  0  0  0  0  0  0  0  0  0
   -2.1620   -2.7000   -4.5110 O   0  0  0  0  0  0  0  0  0  0  0  0
   -0.8950   -0.1180   -0.5870 C   0  0  2  0  0  0  0  0  0  0  0  0
   -0.0380    0.4730   -1.5690 O   0  0  0  0  0  0  0  0  0  0  0  0
  1  2  2  0
  2  3  1  0
  2  4  1  0
  5  4  1  1
  5  6  1  0
  5 36  1  0
  6  7  1  0
  7  8  1  6
  7  9  1  0
  7 14  1  0
  9 10  1  0
 10 11  1  0
 11 12  1  1
 11 13  1  0
 14 15  1  0
 15 16  1  0
 16 17  2  0
 16 18  1  0
 18 19  1  0
 19 20  1  0
 20 21  1  0
 21 22  1  0
 22 23  1  0
 23 24  1  0
 24 25  1  6
 24 36  1  0
 25 26  1  0
 26 27  1  6
 26 28  1  0
 26 30  1  0
 28 29  1  0
 30 31  1  6
 30 32  1  0
 32 33  1  1
 32 36  1  0
 33 34  1  0
 34 35  1  0
 36 37  1  6
M  END
