
     RDKit          3D

 33 34  0  0  0  0  0  0  0  0999 V2000
   -4.4480   -2.7920   -2.1560 C   0  0  0  0  0  0  0  0  0  0  0  0
   -3.2230   -2.1760   -2.4190 O   0  0  0  0  0  0  0  0  0  0  0  0
   -2.3020   -1.8630   -1.4310 C   0  0  0  0  0  0  0  0  0  0  0  0
   -2.6170   -2.1620   -0.2530 O   0  0  0  0  0  0  0  0  0  0  0  0
   -1.0270   -1.2130   -1.7950 C   0  0  0  0  0  0  0  0  0  0  0  0
   -1.0800    0.2530   -1.4980 C   0  0  2  0  0  0  0  0  0  0  0  0
    0.1390    1.0210   -1.8180 C   0  0  0  0  0  0  0  0  0  0  0  0
    1.4380    0.7350   -1.2310 C   0  0  2  0  0  0  0  0  0  0  0  0
    2.3880    1.7990   -1.8500 C   0  0  0  0  0  0  0  0  0  0  0  0
    2.0530   -0.5920   -1.6710 C   0  0  0  0  0  0  0  0  0  0  0  0
    1.6090    0.8570    0.2330 C   0  0  0  0  0  0  0  0  0  0  0  0
    2.9990    0.5290    0.6080 N   0  0  0  0  0  0  0  0  0  0  0  0
    3.4140    0.5830    1.9640 C   0  0  0  0  0  0  0  0  0  0  0  0
    2.5120    0.9290    2.7940 O   0  0  0  0  0  0  0  0  0  0  0  0
    4.7550    0.2730    2.4180 C   0  0  0  0  0  0  0  0  0  0  0  0
    5.2160    0.3130    3.7140 C   0  0  0  0  0  0  0  0  0  0  0  0
    6.4810   -0.0300    3.7370 O   0  0  0  0  0  0  0  0  0  0  0  0
    6.8990   -0.2990    2.5250 C   0  0  0  0  0  0  0  0  0  0  0  0
    5.8320   -0.1180    1.6600 C   0  0  0  0  0  0  0  0  0  0  0  0
    5.8660   -0.3010    0.3060 O   0  0  0  0  0  0  0  0  0  0  0  0
    7.3500   -0.8170   -0.4720 P   0  0  0  0  0  0  0  0  0  0  0  0
    8.4090    0.5410   -0.6210 O   0  0  0  0  0  0  0  0  0  0  0  0
    8.0780   -2.0570    0.4750 O   0  0  0  0  0  0  0  0  0  0  0  0
   -1.7630    0.6170   -0.2830 N   0  0  0  0  0  0  0  0  0  0  0  0
   -3.1560    0.5840   -0.0440 C   0  0  0  0  0  0  0  0  0  0  0  0
   -3.6070    0.6190    1.2780 C   0  0  0  0  0  0  0  0  0  0  0  0
   -4.9250    0.6200    1.6430 C   0  0  0  0  0  0  0  0  0  0  0  0
   -5.8930    0.5830    0.6460 C   0  0  0  0  0  0  0  0  0  0  0  0
   -7.2890    0.5800    0.9990 C   0  0  0  0  0  0  0  0  0  0  0  0
   -7.7440    0.6120    2.4070 C   0  0  0  0  0  0  0  0  0  0  0  0
   -8.1400    0.5480    0.0570 O   0  0  0  0  0  0  0  0  0  0  0  0
   -5.4660    0.5480   -0.6640 C   0  0  0  0  0  0  0  0  0  0  0  0
   -4.1330    0.5480   -1.0110 C   0  0  0  0  0  0  0  0  0  0  0  0
  1  2  1  0
  2  3  1  0
  3  4  2  0
  3  5  1  0
  6  5  1  1
  6  7  1  0
  6 24  1  0
  7  8  1  0
  8  9  1  6
  8 10  1  0
  8 11  1  0
 11 12  1  0
 12 13  1  0
 13 14  2  0
 13 15  1  0
 15 16  2  0
 15 19  1  0
 16 17  1  0
 17 18  1  0
 18 19  2  0
 19 20  1  0
 20 21  1  0
 21 22  1  0
 21 23  1  0
 24 25  1  0
 25 26  2  0
 25 33  1  0
 26 27  1  0
 27 28  2  0
 28 29  1  0
 28 32  1  0
 29 30  1  0
 29 31  2  0
 32 33  2  0
M  END
