
     RDKit          3D

 33 34  0  0  0  0  0  0  0  0999 V2000
    7.1440   -1.7500   -3.1770 C   0  0  0  0  0  0  0  0  0  0  0  0
    6.2660   -1.2620   -2.0310 C   0  0  0  0  0  0  0  0  0  0  0  0
    6.6110   -1.8920   -0.8400 O   0  0  0  0  0  0  0  0  0  0  0  0
    5.6360   -1.3570    0.4220 P   0  0  0  0  0  0  0  0  0  0  0  0
    6.2170   -0.1550    1.4480 O   0  0  0  0  0  0  0  0  0  0  0  0
    6.3490    1.0500    0.7700 C   0  0  0  0  0  0  0  0  0  0  0  0
    3.8360   -1.5220    0.2410 C   0  0  2  0  0  0  0  0  0  0  0  0
    3.5700   -2.3240   -0.8920 O   0  0  0  0  0  0  0  0  0  0  0  0
    3.2270   -0.1720   -0.0030 C   0  0  0  0  0  0  0  0  0  0  0  0
    1.7480   -0.2380   -0.1560 C   0  0  0  0  0  0  0  0  0  0  0  0
    1.2620   -0.5450   -1.2730 O   0  0  0  0  0  0  0  0  0  0  0  0
    0.8660    0.0220    0.8740 O   0  0  0  0  0  0  0  0  0  0  0  0
   -0.5180   -0.0290    0.7760 C   0  0  0  0  0  0  0  0  0  0  0  0
   -1.1790   -1.2030    1.0000 C   0  0  0  0  0  0  0  0  0  0  0  0
   -2.5580   -1.2650    0.9050 C   0  0  0  0  0  0  0  0  0  0  0  0
   -3.2060   -2.5110    1.1530 N   0  0  0  0  0  0  0  0  0  0  0  0
   -4.6370   -2.6150    0.9650 C   0  0  1  0  0  0  0  0  0  0  0  0
   -4.9660   -2.3720   -0.4710 C   0  0  0  0  0  0  0  0  0  0  0  0
   -5.0740   -3.9890    1.4400 C   0  0  0  0  0  0  0  0  0  0  0  0
   -6.5220   -4.1530    1.2720 C   0  0  0  0  0  0  0  0  0  0  0  0
   -7.3270   -3.6290    2.0590 O   0  0  0  0  0  0  0  0  0  0  0  0
   -7.0080   -4.9070    0.2190 O   0  0  0  0  0  0  0  0  0  0  0  0
   -3.2440   -0.1200    0.5810 C   0  0  0  0  0  0  0  0  0  0  0  0
   -2.5840    1.0820    0.3510 C   0  0  0  0  0  0  0  0  0  0  0  0
   -1.2120    1.1480    0.4450 C   0  0  0  0  0  0  0  0  0  0  0  0
   -0.4950    2.3370    0.1820 N   0  0  0  0  0  0  0  0  0  0  0  0
   -1.0530    3.6050    0.0420 C   0  0  0  0  0  0  0  0  0  0  0  0
   -2.0910    4.0800    0.7760 C   0  0  0  0  0  0  0  0  0  0  0  0
   -2.6440    5.3540    0.5780 C   0  0  0  0  0  0  0  0  0  0  0  0
   -2.1120    6.1620   -0.4030 C   0  0  0  0  0  0  0  0  0  0  0  0
   -2.6250    7.4150   -0.6270 O   0  0  0  0  0  0  0  0  0  0  0  0
   -1.0550    5.7100   -1.1650 C   0  0  0  0  0  0  0  0  0  0  0  0
   -0.5520    4.4700   -0.9400 C   0  0  0  0  0  0  0  0  0  0  0  0
  1  2  1  0
  2  3  1  0
  3  4  1  0
  4  5  1  0
  4  7  1  0
  5  6  1  0
  7  8  1  6
  7  9  1  0
  9 10  1  0
 10 11  2  0
 10 12  1  0
 12 13  1  0
 13 14  2  0
 13 25  1  0
 14 15  1  0
 15 16  1  0
 15 23  2  0
 16 17  1  0
 17 18  1  6
 17 19  1  0
 19 20  1  0
 20 21  2  0
 20 22  1  0
 23 24  1  0
 24 25  2  0
 25 26  1  0
 26 27  1  0
 27 28  2  0
 27 33  1  0
 28 29  1  0
 29 30  2  0
 30 31  1  0
 30 32  1  0
 32 33  2  0
M  END
