
     RDKit          3D

 33 35  0  0  0  0  0  0  0  0999 V2000
    3.1930   -0.4990   -0.4960 O   0  0  0  0  0  0  0  0  0  0  0  0
    3.1390   -1.7300   -0.4290 C   0  0  0  0  0  0  0  0  0  0  0  0
    1.9020   -2.4080   -0.4000 N   0  0  0  0  0  0  0  0  0  0  0  0
    0.6090   -1.7710   -0.4420 C   0  0  0  0  0  0  0  0  0  0  0  0
    0.4630   -0.8730    0.7410 C   0  0  0  0  0  0  0  0  0  0  0  0
   -0.7090   -0.1990    0.8360 O   0  0  0  0  0  0  0  0  0  0  0  0
   -1.8710   -0.8950    0.9210 C   0  0  1  0  0  0  0  0  0  0  0  0
   -2.6180   -0.7070    2.0450 O   0  0  0  0  0  0  0  0  0  0  0  0
   -2.8600    0.5620    2.4560 C   0  0  0  0  0  0  0  0  0  0  0  0
   -3.3670    1.5240    1.4580 C   0  0  0  0  0  0  0  0  0  0  0  0
   -2.6600    1.5960    0.1530 C   0  0  0  0  0  0  0  0  0  0  0  0
   -2.8750    0.5870   -0.7280 O   0  0  0  0  0  0  0  0  0  0  0  0
   -2.6600   -0.6900   -0.3630 C   0  0  2  0  0  0  0  0  0  0  0  0
   -3.9260   -1.5220   -0.2250 C   0  0  0  0  0  0  0  0  0  0  0  0
   -4.8150   -1.4200   -1.4470 C   0  0  0  0  0  0  0  0  0  0  0  0
   -5.2550   -0.0940   -1.7340 N   0  0  0  0  0  0  0  0  0  0  0  0
   -6.1620    0.6550   -0.9340 C   0  0  0  0  0  0  0  0  0  0  0  0
   -6.2160    1.9650   -1.0480 C   0  0  0  0  0  0  0  0  0  0  0  0
   -7.1340    2.8130   -0.2510 C   0  0  0  0  0  0  0  0  0  0  0  0
   -7.9180    2.0500    0.6170 O   0  0  0  0  0  0  0  0  0  0  0  0
   -7.8600    0.6730    0.7360 C   0  0  0  0  0  0  0  0  0  0  0  0
   -7.0230   -0.0310    0.0020 C   0  0  0  0  0  0  0  0  0  0  0  0
    4.3390   -2.4390   -0.3820 O   0  0  0  0  0  0  0  0  0  0  0  0
    5.5330   -1.7370   -0.4120 C   0  0  0  0  0  0  0  0  0  0  0  0
    6.1290   -1.3490    0.7650 C   0  0  0  0  0  0  0  0  0  0  0  0
    7.3290   -0.6430    0.7170 C   0  0  0  0  0  0  0  0  0  0  0  0
    7.9000   -0.3460   -0.5090 C   0  0  0  0  0  0  0  0  0  0  0  0
    9.1900    0.4190   -0.4740 C   0  0  0  0  0  0  0  0  0  0  0  0
    8.7460    2.2430   -0.5070 P   0  0  0  0  0  0  0  0  0  0  0  0
    7.1190    2.4490    0.0930 O   0  0  0  0  0  0  0  0  0  0  0  0
    9.8120    3.0890    0.5870 O   0  0  0  0  0  0  0  0  0  0  0  0
    7.3150   -0.7280   -1.6800 C   0  0  0  0  0  0  0  0  0  0  0  0
    6.1240   -1.4270   -1.6010 C   0  0  0  0  0  0  0  0  0  0  0  0
  1  2  2  0
  2  3  1  0
  2 23  1  0
  3  4  1  0
  4  5  1  0
  5  6  1  0
  7  6  1  1
  7  8  1  0
  7 13  1  0
  8  9  1  0
  9 10  1  0
 10 11  1  0
 11 12  1  0
 12 13  1  0
 13 14  1  1
 14 15  1  0
 15 16  1  0
 16 17  1  0
 17 18  2  0
 17 22  1  0
 18 19  1  0
 19 20  1  0
 20 21  1  0
 21 22  2  0
 23 24  1  0
 24 25  2  0
 24 33  1  0
 25 26  1  0
 26 27  2  0
 27 28  1  0
 27 32  1  0
 28 29  1  0
 29 30  1  0
 29 31  1  0
 32 33  2  0
M  END
