
     RDKit          3D

 22 24  0  0  0  0  0  0  0  0999 V2000
   -3.8540    1.1760    1.8510 C   0  0  0  0  0  0  0  0  0  0  0  0
   -3.5940    0.2370    0.9790 C   0  0  0  0  0  0  0  0  0  0  0  0
   -4.1080   -1.1460    1.2230 C   0  0  0  0  0  0  0  0  0  0  0  0
   -3.3920   -2.2070    0.4830 C   0  0  0  0  0  0  0  0  0  0  0  0
   -2.2760   -1.9800   -0.1920 C   0  0  0  0  0  0  0  0  0  0  0  0
   -1.7510   -0.6200   -0.1930 C   0  0  0  0  0  0  0  0  0  0  0  0
   -0.4680   -0.3800   -0.1620 C   0  0  0  0  0  0  0  0  0  0  0  0
    0.6820   -1.2800   -0.1290 C   0  0  0  0  0  0  0  0  0  0  0  0
    0.5830   -2.7480   -0.0790 C   0  0  0  0  0  0  0  0  0  0  0  0
    1.7660   -0.5080   -0.1130 C   0  0  0  0  0  0  0  0  0  0  0  0
    3.1480   -0.9540   -0.0830 C   0  0  0  0  0  0  0  0  0  0  0  0
    3.4470   -2.1490   -0.0740 O   0  0  0  0  0  0  0  0  0  0  0  0
    4.1590   -0.0230   -0.0630 O   0  0  0  0  0  0  0  0  0  0  0  0
    5.5360   -0.3740   -0.0330 C   0  0  0  0  0  0  0  0  0  0  0  0
    6.4220    0.8300   -0.0170 C   0  0  0  0  0  0  0  0  0  0  0  0
    1.3480    0.9110   -0.1290 C   0  0  0  0  0  0  0  0  0  0  0  0
    2.2990    2.0410   -0.1170 C   0  0  0  0  0  0  0  0  0  0  0  0
    0.0410    0.9900   -0.1560 C   0  0  0  0  0  0  0  0  0  0  0  0
   -0.8920    2.1250   -0.1210 C   0  0  0  0  0  0  0  0  0  0  0  0
   -2.2660    1.7680   -0.5400 C   0  0  0  0  0  0  0  0  0  0  0  0
   -2.8070    0.4430   -0.2620 C   0  0  2  0  0  0  0  0  0  0  0  0
   -3.8080    0.1280   -1.4050 C   0  0  0  0  0  0  0  0  0  0  0  0
  1  2  2  0
  2  3  1  0
  2 21  1  0
  3  4  1  0
  4  5  2  0
  5  6  1  0
  6  7  2  0
  6 21  1  0
  7  8  1  0
  7 18  1  0
  8  9  1  0
  8 10  2  0
 10 11  1  0
 10 16  1  0
 11 12  2  0
 11 13  1  0
 13 14  1  0
 14 15  1  0
 16 17  1  0
 16 18  2  0
 18 19  1  0
 19 20  1  0
 20 21  1  0
 21 22  1  6
M  END
