
     RDKit          3D

 22 23  0  0  0  0  0  0  0  0999 V2000
   -3.3550   -1.6170   -1.0390 C   0  0  0  0  0  0  0  0  0  0  0  0
   -3.1140   -0.2220   -0.6270 C   0  0  0  0  0  0  0  0  0  0  0  0
   -4.1650    0.5520   -0.9410 C   0  0  0  0  0  0  0  0  0  0  0  0
   -4.4470    1.9970   -0.7460 C   0  0  0  0  0  0  0  0  0  0  0  0
   -4.1460    2.8230    0.2570 C   0  0  0  0  0  0  0  0  0  0  0  0
   -3.4250    2.5920    1.5250 C   0  0  0  0  0  0  0  0  0  0  0  0
   -2.4040    1.7910    1.8750 C   0  0  0  0  0  0  0  0  0  0  0  0
   -1.6180    0.8290    1.0830 C   0  0  0  0  0  0  0  0  0  0  0  0
   -1.8630   -0.0180    0.0430 C   0  0  0  0  0  0  0  0  0  0  0  0
   -0.7270   -0.7590   -0.3780 C   0  0  0  0  0  0  0  0  0  0  0  0
   -0.4920   -1.5960   -1.3330 C   0  0  0  0  0  0  0  0  0  0  0  0
    0.7690   -2.2910   -1.6260 C   0  0  0  0  0  0  0  0  0  0  0  0
    0.8390   -3.2490   -2.6800 C   0  0  0  0  0  0  0  0  0  0  0  0
    2.1380   -3.6890   -2.6650 C   0  0  0  0  0  0  0  0  0  0  0  0
    2.7820   -3.0790   -1.7230 O   0  0  0  0  0  0  0  0  0  0  0  0
    2.0010   -2.2220   -1.0640 C   0  0  0  0  0  0  0  0  0  0  0  0
    2.4940   -1.3830    0.0680 C   0  0  0  0  0  0  0  0  0  0  0  0
    2.7740   -0.0020   -0.4200 C   0  0  0  0  0  0  0  0  0  0  0  0
    3.2730    0.9560    0.6160 C   0  0  2  0  0  0  0  0  0  0  0  0
    2.2950    1.1440    1.7250 C   0  0  0  0  0  0  0  0  0  0  0  0
    3.4570    2.3100   -0.0810 C   0  0  0  0  0  0  0  0  0  0  0  0
    4.5000    0.5610    1.1570 O   0  0  0  0  0  0  0  0  0  0  0  0
  1  2  1  0
  2  3  2  0
  2  9  1  0
  3  4  1  0
  4  5  2  0
  5  6  1  0
  6  7  2  0
  7  8  1  0
  8  9  2  0
  9 10  1  0
 10 11  2  3
 11 12  1  0
 12 13  1  0
 12 16  2  0
 13 14  2  0
 14 15  1  0
 15 16  1  0
 16 17  1  0
 17 18  1  0
 18 19  1  0
 19 20  1  1
 19 21  1  0
 19 22  1  0
M  END
