
     RDKit          3D

 22 23  0  0  0  0  0  0  0  0999 V2000
   -1.7490    2.7150   -1.9530 C   0  0  0  0  0  0  0  0  0  0  0  0
   -2.2430    1.4590   -1.1740 C   0  0  0  0  0  0  0  0  0  0  0  0
   -3.7150    1.3770   -1.1440 C   0  0  0  0  0  0  0  0  0  0  0  0
   -1.3230    0.7220   -0.6500 C   0  0  0  0  0  0  0  0  0  0  0  0
   -1.3100   -0.4950    0.1270 C   0  0  0  0  0  0  0  0  0  0  0  0
   -0.1620   -1.0510    0.6080 C   0  0  0  0  0  0  0  0  0  0  0  0
    1.2050   -0.5470    0.4380 C   0  0  0  0  0  0  0  0  0  0  0  0
    1.5370    0.7490    0.7150 C   0  0  0  0  0  0  0  0  0  0  0  0
    2.8360    1.2430    0.5330 C   0  0  0  0  0  0  0  0  0  0  0  0
    3.1440    2.6760    0.8540 C   0  0  0  0  0  0  0  0  0  0  0  0
    2.0330    3.3450    1.3120 O   0  0  0  0  0  0  0  0  0  0  0  0
    3.8180    0.4070    0.0620 C   0  0  0  0  0  0  0  0  0  0  0  0
    5.2150    0.9030   -0.1430 C   0  0  0  0  0  0  0  0  0  0  0  0
    3.5210   -0.8970   -0.2250 C   0  0  0  0  0  0  0  0  0  0  0  0
    2.2370   -1.3610   -0.0380 C   0  0  0  0  0  0  0  0  0  0  0  0
    1.9380   -2.7620   -0.3500 C   0  0  0  0  0  0  0  0  0  0  0  0
   -0.5080   -2.2260    1.3980 C   0  0  0  0  0  0  0  0  0  0  0  0
    0.2070   -2.6840    2.3420 O   0  0  0  0  0  0  0  0  0  0  0  0
   -1.7810   -2.6970    0.8690 C   0  0  0  0  0  0  0  0  0  0  0  0
   -2.4520   -1.3540    0.4740 C   0  0  2  0  0  0  0  0  0  0  0  0
   -3.3640   -1.6800   -0.7100 C   0  0  0  0  0  0  0  0  0  0  0  0
   -3.1930   -0.9290    1.6970 C   0  0  0  0  0  0  0  0  0  0  0  0
  1  2  1  0
  2  3  1  0
  2  4  2  3
  4  5  1  0
  5  6  2  0
  5 20  1  0
  6  7  1  0
  6 17  1  0
  7  8  2  0
  7 15  1  0
  8  9  1  0
  9 10  1  0
  9 12  2  0
 10 11  1  0
 12 13  1  0
 12 14  1  0
 14 15  2  0
 15 16  1  0
 17 18  2  0
 17 19  1  0
 19 20  1  0
 20 21  1  6
 20 22  1  0
M  END
