
     RDKit          3D

 22 23  0  0  0  0  0  0  0  0999 V2000
    4.9330    3.2060   -0.9000 C   0  0  0  0  0  0  0  0  0  0  0  0
    4.9720    1.8570   -1.5830 C   0  0  0  0  0  0  0  0  0  0  0  0
    3.7870    1.0880   -1.0750 C   0  0  0  0  0  0  0  0  0  0  0  0
    3.9310   -0.0540   -0.4360 C   0  0  0  0  0  0  0  0  0  0  0  0
    2.8380   -0.8570    0.0850 C   0  0  0  0  0  0  0  0  0  0  0  0
    3.1460   -1.9200    0.6710 O   0  0  0  0  0  0  0  0  0  0  0  0
    1.4470   -0.4880   -0.0410 C   0  0  0  0  0  0  0  0  0  0  0  0
    0.4010   -1.1630    0.3980 C   0  0  0  0  0  0  0  0  0  0  0  0
   -0.9820   -0.6730    0.2060 C   0  0  0  0  0  0  0  0  0  0  0  0
   -1.4870    0.4950   -0.3820 C   0  0  0  0  0  0  0  0  0  0  0  0
   -2.8430    0.7300   -0.4470 C   0  0  0  0  0  0  0  0  0  0  0  0
   -3.4020    1.9530   -1.0640 C   0  0  2  0  0  0  0  0  0  0  0  0
   -2.2560    2.8610   -1.4290 C   0  0  0  0  0  0  0  0  0  0  0  0
   -4.2920    2.5840   -0.2150 O   0  0  0  0  0  0  0  0  0  0  0  0
   -3.7520   -0.1860    0.0690 C   0  0  0  0  0  0  0  0  0  0  0  0
   -5.2190    0.0480    0.0090 C   0  0  0  0  0  0  0  0  0  0  0  0
   -3.2150   -1.3170    0.6360 C   0  0  0  0  0  0  0  0  0  0  0  0
   -1.8580   -1.5840    0.7180 C   0  0  0  0  0  0  0  0  0  0  0  0
   -1.1310   -2.7390    1.2970 C   0  0  0  0  0  0  0  0  0  0  0  0
    0.3210   -2.4340    1.1050 C   0  0  1  0  0  0  0  0  0  0  0  0
    0.9270   -3.6100    0.3670 C   0  0  0  0  0  0  0  0  0  0  0  0
    0.9770   -2.2520    2.4660 C   0  0  0  0  0  0  0  0  0  0  0  0
  1  2  1  0
  2  3  1  0
  3  4  2  3
  4  5  1  0
  5  6  2  0
  5  7  1  0
  7  8  2  3
  8  9  1  0
  8 20  1  0
  9 10  2  0
  9 18  1  0
 10 11  1  0
 11 12  1  0
 11 15  2  0
 12 13  1  1
 12 14  1  0
 15 16  1  0
 15 17  1  0
 17 18  2  0
 18 19  1  0
 19 20  1  0
 20 21  1  6
 20 22  1  0
M  END
