
     RDKit          3D

 22 24  0  0  0  0  0  0  0  0999 V2000
   -5.0280    3.4640    0.0970 C   0  0  0  0  0  0  0  0  0  0  0  0
   -4.8730    1.9790   -0.0750 C   0  0  0  0  0  0  0  0  0  0  0  0
   -3.3520    1.7380   -0.3040 C   0  0  0  0  0  0  0  0  0  0  0  0
   -3.2130    0.2430   -0.4750 C   0  0  0  0  0  0  0  0  0  0  0  0
   -2.1110   -0.3430   -0.7270 O   0  0  0  0  0  0  0  0  0  0  0  0
   -0.9100   -0.4790   -0.1830 C   0  0  1  0  0  0  0  0  0  0  0  0
   -0.1610    0.8080   -0.1020 C   0  0  0  0  0  0  0  0  0  0  0  0
    1.1850    0.8890    0.4280 C   0  0  0  0  0  0  0  0  0  0  0  0
    2.3710    0.4690   -0.2990 C   0  0  0  0  0  0  0  0  0  0  0  0
    2.4280    0.1260   -1.5480 C   0  0  0  0  0  0  0  0  0  0  0  0
    3.6440   -0.3130   -2.2950 C   0  0  0  0  0  0  0  0  0  0  0  0
    4.8170   -0.3490   -1.5860 O   0  0  0  0  0  0  0  0  0  0  0  0
    4.8850   -0.0060   -0.2500 C   0  0  0  0  0  0  0  0  0  0  0  0
    5.9120    0.0210    0.6060 C   0  0  0  0  0  0  0  0  0  0  0  0
    5.3860    0.4710    1.9110 C   0  0  0  0  0  0  0  0  0  0  0  0
    3.9420    0.6880    1.6720 C   0  0  0  0  0  0  0  0  0  0  0  0
    3.6800    0.4050    0.4170 C   0  0  0  0  0  0  0  0  0  0  0  0
   -0.9880   -1.1060    1.2330 C   0  0  0  0  0  0  0  0  0  0  0  0
   -0.3790   -2.4780    1.2960 C   0  0  0  0  0  0  0  0  0  0  0  0
   -0.9910   -3.4250    0.2840 C   0  0  0  0  0  0  0  0  0  0  0  0
   -1.1850   -2.7360   -1.0240 C   0  0  0  0  0  0  0  0  0  0  0  0
   -0.2110   -1.5180   -0.9920 C   0  0  0  0  0  0  0  0  0  0  0  0
  1  2  1  0
  2  3  1  0
  3  4  1  0
  4  5  1  0
  5  6  1  0
  6  7  1  1
  6 18  1  0
  6 22  1  0
  7  8  1  0
  8  9  1  0
  9 10  2  0
  9 17  1  0
 10 11  1  0
 11 12  1  0
 12 13  1  0
 13 14  2  0
 13 17  1  0
 14 15  1  0
 15 16  1  0
 16 17  2  0
 18 19  1  0
 19 20  1  0
 20 21  1  0
 21 22  1  0
M  END
