
     RDKit          3D

 22 23  0  0  0  0  0  0  0  0999 V2000
    5.3510   -0.5860   -0.5760 C   0  0  0  0  0  0  0  0  0  0  0  0
    4.8540   -1.6930    0.3060 C   0  0  0  0  0  0  0  0  0  0  0  0
    4.0740   -1.1980    1.4790 C   0  0  0  0  0  0  0  0  0  0  0  0
    2.8620   -0.4170    1.1700 C   0  0  0  0  0  0  0  0  0  0  0  0
    1.8180   -1.1350    0.3670 C   0  0  0  0  0  0  0  0  0  0  0  0
    0.6340   -0.2170    0.1250 C   0  0  0  0  0  0  0  0  0  0  0  0
    0.2420    0.1150   -1.0510 C   0  0  0  0  0  0  0  0  0  0  0  0
   -0.8580    0.9610   -1.4740 C   0  0  0  0  0  0  0  0  0  0  0  0
   -0.8950    1.2530   -2.7960 C   0  0  0  0  0  0  0  0  0  0  0  0
   -1.8860    2.1030   -3.4100 C   0  0  0  0  0  0  0  0  0  0  0  0
   -2.8170    2.6580   -2.6940 C   0  0  0  0  0  0  0  0  0  0  0  0
   -3.8600    3.5530   -3.3230 C   0  0  0  0  0  0  0  0  0  0  0  0
   -2.8830    2.4140   -1.2900 C   0  0  0  0  0  0  0  0  0  0  0  0
   -3.7480    2.9160   -0.5600 O   0  0  0  0  0  0  0  0  0  0  0  0
   -1.8340    1.4790   -0.5900 C   0  0  0  0  0  0  0  0  0  0  0  0
   -2.3770    0.9640    0.4590 C   0  0  0  0  0  0  0  0  0  0  0  0
   -2.3780   -0.2560    1.2110 C   0  0  0  0  0  0  0  0  0  0  0  0
   -3.0200   -0.3960    2.4060 C   0  0  0  0  0  0  0  0  0  0  0  0
   -2.8680   -1.7410    2.9250 C   0  0  2  0  0  0  0  0  0  0  0  0
   -2.0980   -1.7190    4.1170 O   0  0  0  0  0  0  0  0  0  0  0  0
   -2.1580   -2.4450    1.8600 C   0  0  0  0  0  0  0  0  0  0  0  0
   -1.8760   -1.5900    0.9040 C   0  0  0  0  0  0  0  0  0  0  0  0
  1  2  1  0
  2  3  1  0
  3  4  1  0
  4  5  1  0
  5  6  1  0
  6  7  2  3
  7  8  1  0
  8  9  2  0
  8 15  1  0
  9 10  1  0
 10 11  2  0
 11 12  1  0
 11 13  1  0
 13 14  2  0
 13 15  1  0
 15 16  2  3
 16 17  1  0
 17 18  2  0
 17 22  1  0
 18 19  1  0
 19 20  1  1
 19 21  1  0
 21 22  2  0
M  END
