
     RDKit          3D

 17 16  0  0  0  0  0  0  0  0999 V2000
    1.4270   -1.2940    1.1710 C   0  0  0  0  0  0  0  0  0  0  0  0
    1.3770   -0.1170    0.3360 N   0  0  0  0  0  0  0  0  0  0  0  0
    0.1670   -0.0230   -0.4370 C   0  0  0  0  0  0  0  0  0  0  0  0
   -1.0520    0.2320    0.4260 C   0  0  0  0  0  0  0  0  0  0  0  0
   -2.2380    0.2980   -0.4530 C   0  0  0  0  0  0  0  0  0  0  0  0
   -2.9610    1.3510   -0.4710 N   0  0  0  0  0  0  0  0  0  0  0  0
   -2.6420    2.4520    0.3330 C   0  0  0  0  0  0  0  0  0  0  0  0
   -2.6790    2.5070    1.5860 O   0  0  0  0  0  0  0  0  0  0  0  0
   -2.5990   -0.7590   -1.2700 O   0  0  0  0  0  0  0  0  0  0  0  0
   -3.9520   -0.9590   -1.6590 C   0  0  0  0  0  0  0  0  0  0  0  0
   -4.8290   -1.1580   -0.5360 N   0  0  0  0  0  0  0  0  0  0  0  0
    1.6770    1.0910    1.0610 C   0  0  0  0  0  0  0  0  0  0  0  0
    3.3610    0.9580    1.8190 P   0  0  0  0  0  0  0  0  0  0  0  0
    4.9710    0.2960    0.8920 P   0  0  0  0  0  0  0  0  0  0  0  0
    5.0420   -0.2470   -0.7330 O   0  0  0  0  0  0  0  0  0  0  0  0
    6.1370    0.1790   -1.3480 O   0  0  0  0  0  0  0  0  0  0  0  0
    6.9460    0.7720   -0.4920 O   0  0  0  0  0  0  0  0  0  0  0  0
  1  2  1  0
  2  3  1  0
  2 12  1  0
  3  4  1  0
  4  5  1  0
  5  6  2  3
  5  9  1  0
  6  7  1  0
  7  8  2  0
  9 10  1  0
 10 11  1  0
 12 13  1  0
 13 14  2  3
 14 15  1  0
 15 16  1  0
 16 17  1  0
M  END
