
     RDKit          3D

 17 16  0  0  0  0  0  0  0  0999 V2000
    6.0940    1.9530    0.1600 C   0  0  0  0  0  0  0  0  0  0  0  0
    4.7610    2.3350    0.2460 O   0  0  0  0  0  0  0  0  0  0  0  0
    3.9960    1.3070    0.6890 N   0  0  0  0  0  0  0  0  0  0  0  0
    2.3790    1.8720    1.1930 P   0  0  0  0  0  0  0  0  0  0  0  0
    0.8030    0.6380    1.0290 P   0  0  0  0  0  0  0  0  0  0  0  0
    0.9530   -1.0730    0.3730 C   0  0  0  0  0  0  0  0  0  0  0  0
   -0.2400   -1.5200   -0.4170 C   0  0  1  0  0  0  0  0  0  0  0  0
   -0.3510   -0.6060   -1.4940 O   0  0  0  0  0  0  0  0  0  0  0  0
    0.0110   -2.7670   -1.0120 O   0  0  0  0  0  0  0  0  0  0  0  0
   -1.5080   -1.5650    0.2870 C   0  0  0  0  0  0  0  0  0  0  0  0
   -2.1760   -0.4070    0.9270 C   0  0  0  0  0  0  0  0  0  0  0  0
   -2.4680    0.6740   -0.0420 C   0  0  0  0  0  0  0  0  0  0  0  0
   -2.8990    2.1530    0.5100 P   0  0  0  0  0  0  0  0  0  0  0  0
   -3.3680    3.8710   -0.7500 P   0  0  0  0  0  0  0  0  0  0  0  0
   -2.1210   -2.7130    0.3730 N   0  0  0  0  0  0  0  0  0  0  0  0
   -3.3160   -2.8730    1.0110 O   0  0  0  0  0  0  0  0  0  0  0  0
   -4.4780   -2.5930    0.3230 N   0  0  0  0  0  0  0  0  0  0  0  0
  1  2  1  0
  2  3  1  0
  3  4  1  0
  4  5  2  3
  5  6  1  0
  6  7  1  0
  7  8  1  6
  7  9  1  0
  7 10  1  0
 10 11  1  0
 10 15  2  3
 11 12  1  0
 12 13  2  3
 13 14  1  0
 15 16  1  0
 16 17  1  0
M  END
