
     RDKit          3D

 16 17  0  0  0  0  0  0  0  0999 V2000
   -3.0730   -3.3540    1.0520 C   0  0  0  0  0  0  0  0  0  0  0  0
   -3.4870   -2.7340   -0.1130 O   0  0  0  0  0  0  0  0  0  0  0  0
   -3.0130   -1.2390   -0.3740 P   0  0  0  0  0  0  0  0  0  0  0  0
   -3.7870    0.3710   -0.4800 O   0  0  0  0  0  0  0  0  0  0  0  0
   -2.7660    1.2640   -0.4660 C   0  0  0  0  0  0  0  0  0  0  0  0
   -3.3410    3.0600   -0.5700 P   0  0  0  0  0  0  0  0  0  0  0  0
   -1.5260    0.9320   -0.3890 C   0  0  0  0  0  0  0  0  0  0  0  0
   -0.2900    1.5300   -0.3510 C   0  0  0  0  0  0  0  0  0  0  0  0
   -0.3840    2.8270   -0.4100 O   0  0  0  0  0  0  0  0  0  0  0  0
    0.9100    1.0760   -0.2710 N   0  0  0  0  0  0  0  0  0  0  0  0
    1.5150   -0.0990   -0.1910 C   0  0  0  0  0  0  0  0  0  0  0  0
    2.8890   -0.3520   -0.1090 N   0  0  0  0  0  0  0  0  0  0  0  0
    3.8140    0.7520   -0.1060 C   0  0  0  0  0  0  0  0  0  0  0  0
    5.5710    0.1580    0.0090 P   0  0  0  0  0  0  0  0  0  0  0  0
    0.2590   -1.3210   -0.2040 P   0  0  0  0  0  0  0  0  0  0  0  0
   -1.3470   -0.6520   -0.3140 C   0  0  0  0  0  0  0  0  0  0  0  0
  1  2  1  0
  2  3  1  0
  3  4  1  0
  3 16  1  0
  4  5  1  0
  5  6  1  0
  5  7  2  0
  7  8  1  0
  7 16  1  0
  8  9  2  0
  8 10  1  0
 10 11  2  0
 11 12  1  0
 11 15  1  0
 12 13  1  0
 13 14  1  0
 15 16  2  0
M  END
