
     RDKit          3D

 16 16  0  0  0  0  0  0  0  0999 V2000
   -3.9310   -0.4660   -1.4660 C   0  0  0  0  0  0  0  0  0  0  0  0
   -3.7620    0.9960   -1.1580 C   0  0  0  0  0  0  0  0  0  0  0  0
   -2.6400    1.1360   -0.2530 N   0  0  0  0  0  0  0  0  0  0  0  0
   -2.8350    0.6680    1.0490 C   0  0  0  0  0  0  0  0  0  0  0  0
   -1.8910   -0.3050    1.6380 C   0  0  0  0  0  0  0  0  0  0  0  0
   -0.5620    0.2640    1.9120 N   0  0  0  0  0  0  0  0  0  0  0  0
   -0.2330   -0.0610    3.1830 O   0  0  0  0  0  0  0  0  0  0  0  0
   -0.0820   -1.4090    3.2830 N   0  0  0  0  0  0  0  0  0  0  0  0
    0.5540   -0.5560    0.7360 P   0  0  0  0  0  0  0  0  0  0  0  0
    2.3550    0.6250    0.3810 P   0  0  0  0  0  0  0  0  0  0  0  0
    2.5380    1.0060   -1.3090 O   0  0  0  0  0  0  0  0  0  0  0  0
    4.1720    0.5810   -1.7510 P   0  0  0  0  0  0  0  0  0  0  0  0
    5.2300    0.9250   -0.2480 C   0  0  0  0  0  0  0  0  0  0  0  0
    4.2800   -1.2260   -2.1120 C   0  0  0  0  0  0  0  0  0  0  0  0
   -0.4000   -0.7130   -0.7360 O   0  0  0  0  0  0  0  0  0  0  0  0
   -1.0870    0.8480   -1.0170 P   0  0  0  0  0  0  0  0  0  0  0  0
  1  2  1  0
  2  3  1  0
  3  4  1  0
  3 16  1  0
  4  5  1  0
  5  6  1  0
  6  7  1  0
  6  9  1  0
  7  8  1  0
  9 10  1  0
  9 15  1  0
 10 11  1  0
 11 12  1  0
 12 13  1  0
 12 14  1  0
 15 16  1  0
M  END
