
     RDKit          3D

 29 30  0  0  0  0  0  0  0  0999 V2000
   -2.7070    5.6100    0.2770 C   0  0  0  0  0  0  0  0  0  0  0  0
   -3.3520    4.5880    1.1820 C   0  0  0  0  0  0  0  0  0  0  0  0
   -3.1510    3.3230    0.6360 O   0  0  0  0  0  0  0  0  0  0  0  0
   -1.9120    2.7590    0.4040 C   0  0  0  0  0  0  0  0  0  0  0  0
   -0.9390    3.4870    0.7290 O   0  0  0  0  0  0  0  0  0  0  0  0
   -1.7300    1.3910   -0.1910 C   0  0  0  0  0  0  0  0  0  0  0  0
   -0.4670    1.0600   -0.3370 C   0  0  0  0  0  0  0  0  0  0  0  0
    0.1710   -0.1270   -0.8550 C   0  0  0  0  0  0  0  0  0  0  0  0
    1.4590   -0.4180   -0.7700 C   0  0  0  0  0  0  0  0  0  0  0  0
    2.4160    0.4650   -0.1120 C   0  0  0  0  0  0  0  0  0  0  0  0
    3.7160    0.1170   -0.0530 C   0  0  0  0  0  0  0  0  0  0  0  0
    4.6290    1.0710    0.6340 C   0  0  0  0  0  0  0  0  0  0  0  0
    5.7100    0.2850    1.3400 C   0  0  0  0  0  0  0  0  0  0  0  0
    6.4790   -0.4210    0.2280 C   0  0  0  0  0  0  0  0  0  0  0  0
    5.6200   -1.4870   -0.3460 C   0  0  0  0  0  0  0  0  0  0  0  0
    4.2090   -1.1380   -0.6300 C   0  0  0  0  0  0  0  0  0  0  0  0
   -0.6110   -1.1970   -1.5920 C   0  0  0  0  0  0  0  0  0  0  0  0
   -0.8610   -2.3020   -0.8830 O   0  0  0  0  0  0  0  0  0  0  0  0
   -0.1450   -2.6510    0.2070 C   0  0  0  0  0  0  0  0  0  0  0  0
   -0.8410   -3.6620    1.1140 C   0  0  0  0  0  0  0  0  0  0  0  0
   -1.8590   -3.0940    1.8700 O   0  0  0  0  0  0  0  0  0  0  0  0
   -2.9580   -2.7300    1.0620 C   0  0  0  0  0  0  0  0  0  0  0  0
   -3.0360   -1.2320    1.1080 C   0  0  0  0  0  0  0  0  0  0  0  0
   -3.4470   -0.5870   -0.1200 N   0  0  0  0  0  0  0  0  0  0  0  0
   -4.3970   -1.2930   -0.9030 C   0  0  0  0  0  0  0  0  0  0  0  0
   -4.8860   -0.7570   -2.1990 C   0  0  0  0  0  0  0  0  0  0  0  0
   -4.8380   -2.3840   -0.5110 O   0  0  0  0  0  0  0  0  0  0  0  0
   -2.9530    0.7100   -0.5060 C   0  0  0  0  0  0  0  0  0  0  0  0
   -3.8250    1.2980   -1.2710 O   0  0  0  0  0  0  0  0  0  0  0  0
  1  2  1  0
  2  3  1  0
  3  4  1  0
  4  5  2  0
  4  6  1  0
  6  7  2  0
  6 28  1  0
  7  8  1  0
  8  9  2  3
  8 17  1  0
  9 10  1  0
 10 11  2  3
 11 12  1  0
 11 16  1  0
 12 13  1  0
 13 14  1  0
 14 15  1  0
 15 16  1  0
 17 18  1  0
 18 19  1  0
 19 20  1  0
 20 21  1  0
 21 22  1  0
 22 23  1  0
 23 24  1  0
 24 25  1  0
 24 28  1  0
 25 26  1  0
 25 27  2  0
 28 29  2  0
M  END
