
     RDKit          3D

 29 31  0  0  0  0  0  0  0  0999 V2000
   -5.7780    2.7290    0.0460 C   0  0  0  0  0  0  0  0  0  0  0  0
   -4.8470    1.5620    0.0850 C   0  0  0  0  0  0  0  0  0  0  0  0
   -5.0790    0.5090    0.9500 C   0  0  0  0  0  0  0  0  0  0  0  0
   -4.2370   -0.5940    1.0160 C   0  0  0  0  0  0  0  0  0  0  0  0
   -3.1510   -0.6240    0.1960 C   0  0  0  0  0  0  0  0  0  0  0  0
   -2.1940   -1.7250    0.1420 C   0  0  2  0  0  0  0  0  0  0  0  0
   -2.5800   -3.0160    0.7510 C   0  0  0  0  0  0  0  0  0  0  0  0
   -3.7770   -3.6820    0.1500 C   0  0  0  0  0  0  0  0  0  0  0  0
   -3.5710   -3.9670   -1.2170 O   0  0  0  0  0  0  0  0  0  0  0  0
   -0.9150   -1.2650    0.4330 O   0  0  0  0  0  0  0  0  0  0  0  0
    0.1010   -1.1640   -0.4940 C   0  0  0  0  0  0  0  0  0  0  0  0
   -0.1330   -1.5080   -1.6760 O   0  0  0  0  0  0  0  0  0  0  0  0
    1.3960   -0.6640   -0.0510 C   0  0  0  0  0  0  0  0  0  0  0  0
    1.6340   -0.2910    1.2550 C   0  0  0  0  0  0  0  0  0  0  0  0
    2.8510    0.1860    1.7000 C   0  0  0  0  0  0  0  0  0  0  0  0
    3.9000    0.3050    0.8110 C   0  0  0  0  0  0  0  0  0  0  0  0
    3.6800   -0.0600   -0.4840 C   0  0  0  0  0  0  0  0  0  0  0  0
    2.4650   -0.5370   -0.9310 C   0  0  0  0  0  0  0  0  0  0  0  0
    4.6200   -0.0040   -1.4980 O   0  0  0  0  0  0  0  0  0  0  0  0
    5.9900   -0.0090   -1.5850 C   0  0  0  0  0  0  0  0  0  0  0  0
    6.7240    0.6820   -0.5310 C   0  0  0  0  0  0  0  0  0  0  0  0
    7.9150    0.9600   -0.8280 O   0  0  0  0  0  0  0  0  0  0  0  0
    6.3710    1.1160    0.7840 N   0  0  0  0  0  0  0  0  0  0  0  0
    7.3080    1.9020    1.5360 C   0  0  0  0  0  0  0  0  0  0  0  0
    5.1320    0.8270    1.4350 C   0  0  0  0  0  0  0  0  0  0  0  0
    5.0700    1.0370    2.6800 O   0  0  0  0  0  0  0  0  0  0  0  0
   -2.9000    0.4360   -0.6870 C   0  0  0  0  0  0  0  0  0  0  0  0
   -3.7420    1.5230   -0.7430 C   0  0  0  0  0  0  0  0  0  0  0  0
   -3.4780    2.6480   -1.6780 C   0  0  0  0  0  0  0  0  0  0  0  0
  1  2  1  0
  2  3  2  0
  2 28  1  0
  3  4  1  0
  4  5  2  0
  5  6  1  0
  5 27  1  0
  6  7  1  1
  6 10  1  0
  7  8  1  0
  8  9  1  0
 10 11  1  0
 11 12  2  0
 11 13  1  0
 13 14  2  0
 13 18  1  0
 14 15  1  0
 15 16  2  0
 16 17  1  0
 16 25  1  0
 17 18  2  0
 17 19  1  0
 19 20  1  0
 20 21  1  0
 21 22  2  0
 21 23  1  0
 23 24  1  0
 23 25  1  0
 25 26  2  0
 27 28  2  0
 28 29  1  0
M  END
