
     RDKit          3D

 29 31  0  0  0  0  0  0  0  0999 V2000
    9.4820    0.3300    0.9930 C   0  0  0  0  0  0  0  0  0  0  0  0
    8.6350    1.0880    0.0080 C   0  0  0  0  0  0  0  0  0  0  0  0
    7.2640    0.7520    0.0860 O   0  0  0  0  0  0  0  0  0  0  0  0
    6.4920    0.9170    1.2230 C   0  0  0  0  0  0  0  0  0  0  0  0
    7.0350    1.3920    2.2490 O   0  0  0  0  0  0  0  0  0  0  0  0
    5.0600    0.5430    1.2320 C   0  0  0  0  0  0  0  0  0  0  0  0
    4.3680    0.0380    0.2350 C   0  0  0  0  0  0  0  0  0  0  0  0
    4.4490   -0.3950   -1.1700 C   0  0  0  0  0  0  0  0  0  0  0  0
    3.1540   -0.8270   -1.4510 O   0  0  0  0  0  0  0  0  0  0  0  0
    2.2940   -0.7030   -0.3690 C   0  0  0  0  0  0  0  0  0  0  0  0
    0.8450   -1.0750   -0.3370 C   0  0  0  0  0  0  0  0  0  0  0  0
    0.0780   -0.2620   -1.3880 C   0  0  0  0  0  0  0  0  0  0  0  0
   -1.3600   -0.6550   -1.3290 C   0  0  0  0  0  0  0  0  0  0  0  0
   -1.7470   -1.5250   -0.5020 O   0  0  0  0  0  0  0  0  0  0  0  0
   -2.3340   -0.0770   -2.1840 N   0  0  0  0  0  0  0  0  0  0  0  0
   -3.7330   -0.4130   -2.1610 C   0  0  0  0  0  0  0  0  0  0  0  0
   -4.3260    0.0060   -0.8830 C   0  0  0  0  0  0  0  0  0  0  0  0
   -3.6920    0.6750    0.1280 C   0  0  0  0  0  0  0  0  0  0  0  0
   -4.3050    1.0660    1.3090 C   0  0  0  0  0  0  0  0  0  0  0  0
   -3.5360    1.7970    2.3680 C   0  0  0  0  0  0  0  0  0  0  0  0
   -5.6350    0.7580    1.4670 C   0  0  0  0  0  0  0  0  0  0  0  0
   -6.3000    0.0850    0.4640 C   0  0  0  0  0  0  0  0  0  0  0  0
   -7.7530   -0.2560    0.6270 C   0  0  0  0  0  0  0  0  0  0  0  0
   -5.6820   -0.2950   -0.6950 C   0  0  0  0  0  0  0  0  0  0  0  0
   -6.4270   -1.0200   -1.7560 C   0  0  0  0  0  0  0  0  0  0  0  0
    2.9930   -0.1900    0.6480 C   0  0  0  0  0  0  0  0  0  0  0  0
    2.9440    0.2500    2.0490 C   0  0  0  0  0  0  0  0  0  0  0  0
    1.9200    0.2120    2.7650 O   0  0  0  0  0  0  0  0  0  0  0  0
    4.2290    0.6790    2.3290 O   0  0  0  0  0  0  0  0  0  0  0  0
  1  2  1  0
  2  3  1  0
  3  4  1  0
  4  5  2  0
  4  6  1  0
  6  7  2  0
  6 29  1  0
  7  8  1  0
  7 26  1  0
  8  9  1  0
  9 10  1  0
 10 11  1  0
 10 26  2  0
 11 12  1  0
 12 13  1  0
 13 14  2  0
 13 15  1  0
 15 16  1  0
 16 17  1  0
 17 18  2  0
 17 24  1  0
 18 19  1  0
 19 20  1  0
 19 21  2  0
 21 22  1  0
 22 23  1  0
 22 24  2  0
 24 25  1  0
 26 27  1  0
 27 28  2  0
 27 29  1  0
M  END
