
     RDKit          3D

 28 32  0  0  0  0  0  0  0  0999 V2000
   -4.5170   -0.1480   -1.9890 O   0  0  0  0  0  0  0  0  0  0  0  0
   -4.5300    0.0500   -0.6940 C   0  0  0  0  0  0  0  0  0  0  0  0
   -5.5030    1.0110   -0.2440 C   0  0  0  0  0  0  0  0  0  0  0  0
   -6.4700    1.5700   -1.0960 C   0  0  0  0  0  0  0  0  0  0  0  0
   -7.1670    2.4370   -0.3580 N   0  0  0  0  0  0  0  0  0  0  0  0
   -6.7370    2.4780    0.8610 N   0  0  0  0  0  0  0  0  0  0  0  0
   -5.7060    1.6100    0.9760 C   0  0  0  0  0  0  0  0  0  0  0  0
   -3.5960   -0.7090   -0.0130 N   0  0  0  0  0  0  0  0  0  0  0  0
   -3.4070   -0.7540    1.3920 C   0  0  0  0  0  0  0  0  0  0  0  0
   -2.1660    0.0180    1.8120 C   0  0  0  0  0  0  0  0  0  0  0  0
   -1.2810    0.0270    0.5470 C   0  0  0  0  0  0  0  0  0  0  0  0
   -1.3200   -1.3770   -0.0140 C   0  0  2  0  0  0  0  0  0  0  0  0
   -0.1660   -1.5390   -0.8760 N   0  0  0  0  0  0  0  0  0  0  0  0
    0.8530   -2.5310   -0.6370 C   0  0  0  0  0  0  0  0  0  0  0  0
    2.1140   -1.9360   -1.2510 C   0  0  2  0  0  0  0  0  0  0  0  0
    2.7070   -1.0150   -0.2260 C   0  0  0  0  0  0  0  0  0  0  0  0
    3.9430   -0.3600   -0.6810 C   0  0  0  0  0  0  0  0  0  0  0  0
    4.6070   -0.4500   -1.8270 N   0  0  0  0  0  0  0  0  0  0  0  0
    5.6810    0.3300   -1.7920 N   0  0  0  0  0  0  0  0  0  0  0  0
    5.7020    0.9320   -0.5930 C   0  0  0  0  0  0  0  0  0  0  0  0
    4.6430    0.5160    0.0940 N   0  0  0  0  0  0  0  0  0  0  0  0
    4.6320    1.1430    1.4000 C   0  0  0  0  0  0  0  0  0  0  0  0
    5.3980    2.4230    1.1570 C   0  0  0  0  0  0  0  0  0  0  0  0
    6.5060    1.9100    0.2280 C   0  0  0  0  0  0  0  0  0  0  0  0
    1.5890   -1.2520   -2.4620 C   0  0  0  0  0  0  0  0  0  0  0  0
    0.2110   -0.8480   -2.0360 C   0  0  0  0  0  0  0  0  0  0  0  0
   -0.5270   -0.0070   -2.6200 O   0  0  0  0  0  0  0  0  0  0  0  0
   -2.6150   -1.5580   -0.7720 C   0  0  0  0  0  0  0  0  0  0  0  0
  1  2  2  0
  2  3  1  0
  2  8  1  0
  3  4  1  0
  3  7  2  0
  4  5  2  0
  5  6  1  0
  6  7  1  0
  8  9  1  0
  8 28  1  0
  9 10  1  0
 10 11  1  0
 11 12  1  0
 12 13  1  6
 12 28  1  0
 13 14  1  0
 13 26  1  0
 14 15  1  0
 15 16  1  1
 15 25  1  0
 16 17  1  0
 17 18  2  0
 17 21  1  0
 18 19  1  0
 19 20  2  0
 20 21  1  0
 20 24  1  0
 21 22  1  0
 22 23  1  0
 23 24  1  0
 25 26  1  0
 26 27  2  0
M  END
