
     RDKit          3D

 29 31  0  0  0  0  0  0  0  0999 V2000
    5.3070    1.1760   -1.1380 C   0  0  0  0  0  0  0  0  0  0  0  0
    4.1060    2.0940   -1.1890 C   0  0  0  0  0  0  0  0  0  0  0  0
    2.8370    1.3680   -0.7140 C   0  0  0  0  0  0  0  0  0  0  0  0
    2.6470    0.2230   -1.6280 C   0  0  0  0  0  0  0  0  0  0  0  0
    1.4250   -0.6530   -1.3200 C   0  0  2  0  0  0  0  0  0  0  0  0
    0.3370    0.1260   -1.4290 O   0  0  0  0  0  0  0  0  0  0  0  0
   -0.2790    1.1650   -0.8450 C   0  0  0  0  0  0  0  0  0  0  0  0
   -0.5430    2.2110   -1.5600 O   0  0  0  0  0  0  0  0  0  0  0  0
   -0.7180    1.3130    0.5380 C   0  0  0  0  0  0  0  0  0  0  0  0
    0.1380    2.1690    1.3460 O   0  0  0  0  0  0  0  0  0  0  0  0
   -0.3730    3.3400    1.9160 C   0  0  0  0  0  0  0  0  0  0  0  0
   -0.8980    4.3260    0.9070 C   0  0  0  0  0  0  0  0  0  0  0  0
   -1.7680    0.7880    1.1270 C   0  0  0  0  0  0  0  0  0  0  0  0
   -2.8180   -0.0730    0.6510 C   0  0  0  0  0  0  0  0  0  0  0  0
   -3.8510   -0.2080    1.4620 O   0  0  0  0  0  0  0  0  0  0  0  0
   -2.9980   -0.8460   -0.5670 C   0  0  0  0  0  0  0  0  0  0  0  0
   -2.2870   -1.8560   -1.0870 C   0  0  0  0  0  0  0  0  0  0  0  0
   -2.9310   -2.2160   -2.2970 C   0  0  0  0  0  0  0  0  0  0  0  0
   -3.9600   -1.4670   -2.4790 O   0  0  0  0  0  0  0  0  0  0  0  0
   -4.0570   -0.6370   -1.4920 C   0  0  0  0  0  0  0  0  0  0  0  0
   -5.1730    0.3740   -1.4130 C   0  0  0  0  0  0  0  0  0  0  0  0
   -1.0880   -2.5840   -0.6010 C   0  0  0  0  0  0  0  0  0  0  0  0
   -0.6040   -2.3570    0.7310 C   0  0  1  0  0  0  0  0  0  0  0  0
   -0.3180   -3.6730    1.5230 C   0  0  0  0  0  0  0  0  0  0  0  0
    0.3220   -3.0450    2.7620 C   0  0  0  0  0  0  0  0  0  0  0  0
    0.7150   -1.6160    2.3580 C   0  0  0  0  0  0  0  0  0  0  0  0
    0.6740   -1.7410    0.9160 N   0  0  0  0  0  0  0  0  0  0  0  0
    1.6380   -1.3810   -0.0370 C   0  0  0  0  0  0  0  0  0  0  0  0
    2.8830   -1.6820    0.1490 O   0  0  0  0  0  0  0  0  0  0  0  0
  1  2  1  0
  2  3  1  0
  3  4  1  0
  5  4  1  1
  5  6  1  0
  5 28  1  0
  6  7  1  0
  7  8  2  0
  7  9  1  0
  9 10  1  0
  9 13  2  0
 10 11  1  0
 11 12  1  0
 13 14  1  0
 14 15  2  0
 14 16  1  0
 16 17  1  0
 16 20  2  0
 17 18  2  0
 17 22  1  0
 18 19  1  0
 19 20  1  0
 20 21  1  0
 23 22  1  6
 23 24  1  0
 23 27  1  0
 24 25  1  0
 25 26  1  0
 26 27  1  0
 27 28  1  0
 28 29  2  0
M  END
