
     RDKit          3D

 29 33  0  0  0  0  0  0  0  0999 V2000
    2.9260    5.4160    1.3730 C   0  0  0  0  0  0  0  0  0  0  0  0
    2.9230    4.0410    1.9330 C   0  0  0  0  0  0  0  0  0  0  0  0
    2.4710    2.9010    1.4000 N   0  0  0  0  0  0  0  0  0  0  0  0
    2.6680    1.8710    2.2620 C   0  0  0  0  0  0  0  0  0  0  0  0
    2.3210    0.4780    2.0670 C   0  0  0  0  0  0  0  0  0  0  0  0
    2.4610   -0.6030    2.8310 N   0  0  0  0  0  0  0  0  0  0  0  0
    2.0040   -1.6770    2.2560 N   0  0  0  0  0  0  0  0  0  0  0  0
    1.5330   -1.3160    1.0540 C   0  0  0  0  0  0  0  0  0  0  0  0
    0.9190   -2.2530    0.0820 C   0  0  2  0  0  0  0  0  0  0  0  0
    1.7060   -2.3470   -1.1810 C   0  0  0  0  0  0  0  0  0  0  0  0
    0.6850   -2.1760   -2.2520 C   0  0  0  0  0  0  0  0  0  0  0  0
    0.8050   -2.5780   -3.4280 O   0  0  0  0  0  0  0  0  0  0  0  0
   -0.4200   -1.4820   -1.6840 N   0  0  0  0  0  0  0  0  0  0  0  0
   -1.3130   -0.5860   -2.3620 C   0  0  0  0  0  0  0  0  0  0  0  0
   -2.5300   -1.2720   -2.9730 C   0  0  1  0  0  0  0  0  0  0  0  0
   -3.2130   -2.0910   -1.9570 C   0  0  0  0  0  0  0  0  0  0  0  0
   -4.7030   -2.2410   -2.1050 C   0  0  0  0  0  0  0  0  0  0  0  0
   -5.3860   -1.0640   -2.6980 C   0  0  0  0  0  0  0  0  0  0  0  0
   -4.5730   -0.5980   -3.8840 C   0  0  2  0  0  0  0  0  0  0  0  0
   -4.7640   -1.5470   -5.0610 C   0  0  0  0  0  0  0  0  0  0  0  0
   -3.2820   -0.3090   -3.5930 O   0  0  0  0  0  0  0  0  0  0  0  0
   -0.4970   -1.8300   -0.2650 C   0  0  0  0  0  0  0  0  0  0  0  0
    1.7250    0.0080    0.9320 N   0  0  0  0  0  0  0  0  0  0  0  0
    3.2710    2.4250    3.3710 C   0  0  0  0  0  0  0  0  0  0  0  0
    3.7730    2.1280    4.6060 N   0  0  0  0  0  0  0  0  0  0  0  0
    3.8000    0.8250    5.2020 C   0  0  0  0  0  0  0  0  0  0  0  0
    4.2360    3.2660    5.1630 C   0  0  0  0  0  0  0  0  0  0  0  0
    4.0150    4.2770    4.2580 C   0  0  0  0  0  0  0  0  0  0  0  0
    3.4260    3.7690    3.1610 N   0  0  0  0  0  0  0  0  0  0  0  0
  1  2  1  0
  2  3  2  0
  2 29  1  0
  3  4  1  0
  4  5  1  0
  4 24  2  0
  5  6  2  0
  5 23  1  0
  6  7  1  0
  7  8  1  0
  9  8  1  1
  8 23  2  0
  9 10  1  0
  9 22  1  0
 10 11  1  0
 11 12  2  0
 11 13  1  0
 13 14  1  0
 13 22  1  0
 15 14  1  1
 15 16  1  0
 15 21  1  0
 16 17  1  0
 17 18  1  0
 18 19  1  0
 19 20  1  6
 19 21  1  0
 24 25  1  0
 24 29  1  0
 25 26  1  0
 25 27  1  0
 27 28  2  0
 28 29  1  0
M  END
