
     RDKit          3D

 28 31  0  0  0  0  0  0  0  0999 V2000
   -4.8130    1.4310   -3.5200 C   0  0  0  0  0  0  0  0  0  0  0  0
   -3.9630    0.9200   -2.4730 N   0  0  0  0  0  0  0  0  0  0  0  0
   -4.1550    1.3450   -1.1490 C   0  0  0  0  0  0  0  0  0  0  0  0
   -5.4200    2.4900   -0.7000 S   0  0  0  0  0  0  0  0  0  0  0  0
   -5.0630    2.5350    1.0500 C   0  0  0  0  0  0  0  0  0  0  0  0
   -3.9940    1.6620    1.1460 C   0  0  0  0  0  0  0  0  0  0  0  0
   -3.5400    1.0650    0.0390 C   0  0  0  0  0  0  0  0  0  0  0  0
   -2.3580    0.1630    0.0470 C   0  0  0  0  0  0  0  0  0  0  0  0
   -1.8840   -0.2240   -1.0750 O   0  0  0  0  0  0  0  0  0  0  0  0
   -1.7100   -0.3060    1.2230 N   0  0  0  0  0  0  0  0  0  0  0  0
   -2.0990   -0.3720    2.5910 C   0  0  0  0  0  0  0  0  0  0  0  0
   -1.3870   -1.6180    3.1190 C   0  0  0  0  0  0  0  0  0  0  0  0
   -0.1810   -1.6910    2.2860 C   0  0  0  0  0  0  0  0  0  0  0  0
   -0.3930   -0.9270    1.1780 C   0  0  0  0  0  0  0  0  0  0  0  0
    0.5850   -0.8110    0.1970 C   0  0  0  0  0  0  0  0  0  0  0  0
    1.7840   -1.4480    0.3030 C   0  0  0  0  0  0  0  0  0  0  0  0
    2.0120   -2.2220    1.4150 C   0  0  0  0  0  0  0  0  0  0  0  0
    3.2860   -2.7480    1.2720 C   0  0  0  0  0  0  0  0  0  0  0  0
    3.7640   -2.2710    0.0900 C   0  0  0  0  0  0  0  0  0  0  0  0
    2.8630   -1.4760   -0.5170 N   0  0  0  0  0  0  0  0  0  0  0  0
    2.9730   -0.7790   -1.7710 C   0  0  0  0  0  0  0  0  0  0  0  0
    3.5490    0.6150   -1.6200 C   0  0  0  0  0  0  0  0  0  0  0  0
    4.8800    0.5810   -1.0460 N   0  0  0  0  0  0  0  0  0  0  0  0
    5.5130    2.1570   -0.8840 S   0  0  2  0  0  0  0  0  0  0  0  0
    4.9510    3.0330   -1.9580 O   0  0  0  0  0  0  0  0  0  0  0  0
    7.0130    2.0870   -0.9930 O   0  0  0  0  0  0  0  0  0  0  0  0
    1.0490   -2.3440    2.3920 C   0  0  0  0  0  0  0  0  0  0  0  0
    1.3160   -3.3180    3.8060 Cl  0  0  0  0  0  0  0  0  0  0  0  0
  1  2  1  0
  2  3  1  0
  3  4  1  0
  3  7  2  0
  4  5  1  0
  5  6  2  0
  6  7  1  0
  7  8  1  0
  8  9  2  0
  8 10  1  0
 10 11  1  0
 10 14  1  0
 11 12  1  0
 12 13  1  0
 13 14  2  0
 13 27  1  0
 14 15  1  0
 15 16  2  0
 16 17  1  0
 16 20  1  0
 17 18  1  0
 17 27  2  0
 18 19  2  0
 19 20  1  0
 20 21  1  0
 21 22  1  0
 22 23  1  0
 24 23  1  6
 24 25  2  0
 24 26  2  0
 27 28  1  0
M  END
