
     RDKit          3D

 28 30  0  0  0  0  0  0  0  0999 V2000
    7.9840    0.0940    0.2790 C   0  0  0  0  0  0  0  0  0  0  0  0
    7.0170   -0.5320   -0.6570 C   0  0  0  0  0  0  0  0  0  0  0  0
    5.6990   -0.3070   -0.4840 C   0  0  0  0  0  0  0  0  0  0  0  0
    5.2790    0.5260    0.5950 C   0  0  0  0  0  0  0  0  0  0  0  0
    4.0900    0.8880    0.9760 C   0  0  0  0  0  0  0  0  0  0  0  0
    3.8430    2.0160    2.4520 S   0  0  0  0  0  0  0  0  0  0  0  0
    2.4600    2.8240    1.5540 C   0  0  0  0  0  0  0  0  0  0  0  0
    2.1900    4.0280    1.5790 O   0  0  0  0  0  0  0  0  0  0  0  0
    1.8800    1.6780    0.8930 C   0  0  0  0  0  0  0  0  0  0  0  0
    0.1410    1.6430    0.5010 Cl  0  0  0  0  0  0  0  0  0  0  0  0
    2.7210    0.6840    0.6000 C   0  0  0  0  0  0  0  0  0  0  0  0
    2.2150   -0.5720   -0.0210 C   0  0  0  0  0  0  0  0  0  0  0  0
    2.6390   -1.2960   -1.0230 N   0  0  0  0  0  0  0  0  0  0  0  0
    1.8800   -2.3530   -1.2390 N   0  0  0  0  0  0  0  0  0  0  0  0
    0.8980   -2.3230   -0.3260 C   0  0  0  0  0  0  0  0  0  0  0  0
   -0.4380   -3.5340   -0.1540 S   0  0  0  0  0  0  0  0  0  0  0  0
   -1.8130   -2.9410   -1.1700 C   0  0  0  0  0  0  0  0  0  0  0  0
   -2.3300   -1.6710   -0.5540 C   0  0  0  0  0  0  0  0  0  0  0  0
   -3.4600   -1.1760   -1.3720 C   0  0  0  0  0  0  0  0  0  0  0  0
   -3.7980   -1.7650   -2.4140 O   0  0  0  0  0  0  0  0  0  0  0  0
   -4.1520   -0.0170   -0.9480 N   0  0  0  0  0  0  0  0  0  0  0  0
   -5.2520    0.4690   -1.7450 C   0  0  0  0  0  0  0  0  0  0  0  0
   -5.0430    1.9790   -1.8740 C   0  0  0  0  0  0  0  0  0  0  0  0
   -5.2010    2.4960   -0.6020 O   0  0  0  0  0  0  0  0  0  0  0  0
   -4.2170    2.1310    0.2790 C   0  0  0  0  0  0  0  0  0  0  0  0
   -3.8060    0.7030    0.2560 C   0  0  1  0  0  0  0  0  0  0  0  0
   -4.3150   -0.0490    1.4660 C   0  0  0  0  0  0  0  0  0  0  0  0
    1.0980   -1.2360    0.4210 N   0  0  0  0  0  0  0  0  0  0  0  0
  1  2  1  0
  2  3  2  3
  3  4  1  0
  4  5  2  3
  5  6  1  0
  5 11  1  0
  6  7  1  0
  7  8  2  0
  7  9  1  0
  9 10  1  0
  9 11  2  0
 11 12  1  0
 12 13  2  0
 12 28  1  0
 13 14  1  0
 14 15  1  0
 15 16  1  0
 15 28  2  0
 16 17  1  0
 17 18  1  0
 18 19  1  0
 19 20  2  0
 19 21  1  0
 21 22  1  0
 21 26  1  0
 22 23  1  0
 23 24  1  0
 24 25  1  0
 25 26  1  0
 26 27  1  1
M  END
