
     RDKit          3D

 28 31  0  0  0  0  0  0  0  0999 V2000
    6.5620   -0.4050   -0.2390 C   0  0  0  0  0  0  0  0  0  0  0  0
    6.1060    0.5840    0.8200 C   0  0  0  0  0  0  0  0  0  0  0  0
    5.0330    0.0110    1.6820 C   0  0  0  0  0  0  0  0  0  0  0  0
    5.1070   -0.4570    2.9380 N   0  0  0  0  0  0  0  0  0  0  0  0
    3.9210   -0.8770    3.3400 N   0  0  0  0  0  0  0  0  0  0  0  0
    3.0170   -0.6920    2.3370 C   0  0  0  0  0  0  0  0  0  0  0  0
    1.3190   -1.1150    2.4470 Cl  0  0  0  0  0  0  0  0  0  0  0  0
    3.7040   -0.1390    1.3000 C   0  0  0  0  0  0  0  0  0  0  0  0
    3.1670    0.2480   -0.0120 C   0  0  0  0  0  0  0  0  0  0  0  0
    1.4000   -0.1240   -0.0750 S   0  0  0  0  0  0  0  0  0  0  0  0
    0.8090    0.3730   -1.7110 C   0  0  0  0  0  0  0  0  0  0  0  0
    1.6540    0.9070   -2.6050 N   0  0  0  0  0  0  0  0  0  0  0  0
    1.3200    1.3060   -3.8380 C   0  0  0  0  0  0  0  0  0  0  0  0
   -0.0030    1.1410   -4.1800 C   0  0  0  0  0  0  0  0  0  0  0  0
   -0.9180    0.5950   -3.2960 C   0  0  0  0  0  0  0  0  0  0  0  0
   -2.5730    0.3560   -3.6390 S   0  0  0  0  0  0  0  0  0  0  0  0
   -3.4460   -0.3370   -2.3470 C   0  0  0  0  0  0  0  0  0  0  0  0
   -4.6770   -0.5870   -2.4150 O   0  0  0  0  0  0  0  0  0  0  0  0
   -2.7010   -0.5900   -1.2540 N   0  0  0  0  0  0  0  0  0  0  0  0
   -3.4680   -1.1890   -0.1390 C   0  0  0  0  0  0  0  0  0  0  0  0
   -4.0290   -0.1110    0.7500 C   0  0  2  0  0  0  0  0  0  0  0  0
   -4.8220   -0.6840    1.9020 C   0  0  0  0  0  0  0  0  0  0  0  0
   -5.6400    0.5150    2.3360 C   0  0  0  0  0  0  0  0  0  0  0  0
   -5.3820    1.4950    1.1990 C   0  0  0  0  0  0  0  0  0  0  0  0
   -4.9740    0.6810    0.1160 O   0  0  0  0  0  0  0  0  0  0  0  0
   -1.4000   -0.3490   -1.1220 C   0  0  0  0  0  0  0  0  0  0  0  0
   -0.8900   -0.6690    0.0080 O   0  0  0  0  0  0  0  0  0  0  0  0
   -0.5360    0.1950   -2.0320 C   0  0  0  0  0  0  0  0  0  0  0  0
  1  2  1  0
  2  3  1  0
  3  4  2  0
  3  8  1  0
  4  5  1  0
  5  6  1  0
  6  7  1  0
  6  8  2  0
  8  9  1  0
  9 10  1  0
 10 11  1  0
 11 12  2  0
 11 28  1  0
 12 13  1  0
 13 14  2  0
 14 15  1  0
 15 16  1  0
 15 28  2  0
 16 17  1  0
 17 18  2  0
 17 19  1  0
 19 20  1  0
 19 26  1  0
 21 20  1  6
 21 22  1  0
 21 25  1  0
 22 23  1  0
 23 24  1  0
 24 25  1  0
 26 27  2  0
 26 28  1  0
M  END
