
     RDKit          3D

 32 33  0  0  0  0  0  0  0  0999 V2000
   -5.2820   -3.0560   -0.2040 C   0  0  0  0  0  0  0  0  0  0  0  0
   -5.0270   -2.3430   -1.2700 C   0  0  0  0  0  0  0  0  0  0  0  0
   -3.9220   -1.3950   -1.3970 C   0  0  0  0  0  0  0  0  0  0  0  0
   -3.1130   -1.2990   -0.2360 N   0  0  0  0  0  0  0  0  0  0  0  0
   -1.9710   -0.4210   -0.1600 C   0  0  0  0  0  0  0  0  0  0  0  0
   -2.0160    0.8750    0.2710 C   0  0  0  0  0  0  0  0  0  0  0  0
   -0.7400    1.3560    0.1880 C   0  0  0  0  0  0  0  0  0  0  0  0
    0.1130    0.3660   -0.2980 N   0  0  0  0  0  0  0  0  0  0  0  0
    1.4950    0.6350   -0.3780 C   0  0  0  0  0  0  0  0  0  0  0  0
    1.9610    1.6180    0.3220 O   0  0  0  0  0  0  0  0  0  0  0  0
    2.4580   -0.0130   -1.1300 N   0  0  0  0  0  0  0  0  0  0  0  0
    3.8600    0.1060   -1.3090 C   0  0  0  0  0  0  0  0  0  0  0  0
    4.7670    0.0210   -0.1760 C   0  0  0  0  0  0  0  0  0  0  0  0
    5.2400    1.0240    0.7270 C   0  0  0  0  0  0  0  0  0  0  0  0
    4.9680    2.2990    0.7430 C   0  0  0  0  0  0  0  0  0  0  0  0
    5.5290    3.1010    1.7190 F   0  0  0  0  0  0  0  0  0  0  0  0
    4.2440    2.9780   -0.1590 F   0  0  0  0  0  0  0  0  0  0  0  0
    5.3150   -1.2220    0.0070 C   0  0  0  0  0  0  0  0  0  0  0  0
    6.2550   -1.5280    1.0910 C   0  0  1  0  0  0  0  0  0  0  0  0
    5.6930   -1.3840    2.3560 F   0  0  0  0  0  0  0  0  0  0  0  0
    6.5770   -2.8970    0.9620 F   0  0  0  0  0  0  0  0  0  0  0  0
    7.4600   -0.8620    0.9920 F   0  0  0  0  0  0  0  0  0  0  0  0
   -0.6330   -0.7020   -0.5020 C   0  0  0  0  0  0  0  0  0  0  0  0
   -0.2850   -2.0430   -0.9070 C   0  0  0  0  0  0  0  0  0  0  0  0
    0.8310   -2.4360   -1.2050 O   0  0  0  0  0  0  0  0  0  0  0  0
   -1.2810   -3.0550   -0.9890 O   0  0  0  0  0  0  0  0  0  0  0  0
   -0.9230   -4.3610   -1.3860 C   0  0  0  0  0  0  0  0  0  0  0  0
   -0.3370    2.7260    0.5460 C   0  0  0  0  0  0  0  0  0  0  0  0
   -1.5430    3.6340    0.4290 C   0  0  0  0  0  0  0  0  0  0  0  0
   -2.3790    3.6810    1.6730 C   0  0  0  0  0  0  0  0  0  0  0  0
   -3.0830    2.3870    1.9540 C   0  0  0  0  0  0  0  0  0  0  0  0
   -3.2890    1.5440    0.7390 C   0  0  0  0  0  0  0  0  0  0  0  0
  1  2  2  0
  2  3  1  0
  3  4  1  0
  4  5  1  0
  5  6  1  0
  5 23  2  0
  6  7  2  0
  6 32  1  0
  7  8  1  0
  7 28  1  0
  8  9  1  0
  8 23  1  0
  9 10  2  0
  9 11  1  0
 11 12  1  0
 12 13  1  0
 13 14  1  0
 13 18  2  3
 14 15  2  3
 15 16  1  0
 15 17  1  0
 18 19  1  0
 19 20  1  1
 19 21  1  0
 19 22  1  0
 23 24  1  0
 24 25  2  0
 24 26  1  0
 26 27  1  0
 28 29  1  0
 29 30  1  0
 30 31  1  0
 31 32  1  0
M  END
