
     RDKit          3D

 33 37  0  0  0  0  0  0  0  0999 V2000
    0.1500    1.9570   -1.2500 O   0  0  0  0  0  0  0  0  0  0  0  0
    0.1340    1.0930   -0.3780 C   0  0  0  0  0  0  0  0  0  0  0  0
    1.1660    0.0270   -0.2620 C   0  0  0  0  0  0  0  0  0  0  0  0
    1.6880    0.1470    1.0520 N   0  0  0  0  0  0  0  0  0  0  0  0
    3.1030    1.0240    1.2430 S   0  0  1  0  0  0  0  0  0  0  0  0
    2.8630    2.4410    0.7330 O   0  0  0  0  0  0  0  0  0  0  0  0
    3.4120    1.1570    2.7080 O   0  0  0  0  0  0  0  0  0  0  0  0
    4.4690    0.4010    0.4150 C   0  0  0  0  0  0  0  0  0  0  0  0
    4.6760   -0.6750   -0.3700 C   0  0  0  0  0  0  0  0  0  0  0  0
    5.8960   -0.9040   -0.8860 C   0  0  0  0  0  0  0  0  0  0  0  0
    6.2830   -1.9800   -1.7250 C   0  0  0  0  0  0  0  0  0  0  0  0
    7.5500   -2.1180   -2.1940 C   0  0  0  0  0  0  0  0  0  0  0  0
    8.5460   -1.2370   -1.8960 C   0  0  0  0  0  0  0  0  0  0  0  0
   10.1760   -1.3820   -2.4760 Cl  0  0  0  0  0  0  0  0  0  0  0  0
    8.2160   -0.1540   -1.0690 C   0  0  0  0  0  0  0  0  0  0  0  0
    6.9110   -0.0480   -0.6100 C   0  0  0  0  0  0  0  0  0  0  0  0
    6.1340    1.2100    0.4660 S   0  0  0  0  0  0  0  0  0  0  0  0
    0.7940    0.1040    2.1370 C   0  0  0  0  0  0  0  0  0  0  0  0
   -0.6370    0.1450    1.7100 C   0  0  0  0  0  0  0  0  0  0  0  0
   -0.8990    1.0530    0.6020 N   0  0  0  0  0  0  0  0  0  0  0  0
   -2.0970    1.8590    0.5010 C   0  0  0  0  0  0  0  0  0  0  0  0
   -3.2030    1.2490   -0.2210 C   0  0  0  0  0  0  0  0  0  0  0  0
   -3.2580    1.1890   -1.6150 C   0  0  0  0  0  0  0  0  0  0  0  0
   -4.4290    0.5720   -1.9940 C   0  0  0  0  0  0  0  0  0  0  0  0
   -5.0350    0.2290   -3.1830 C   0  0  0  0  0  0  0  0  0  0  0  0
   -6.2220   -0.3900   -3.2460 N   0  0  0  0  0  0  0  0  0  0  0  0
   -6.8830   -0.7090   -2.1120 C   0  0  0  0  0  0  0  0  0  0  0  0
   -6.3070   -0.3820   -0.9070 C   0  0  0  0  0  0  0  0  0  0  0  0
   -5.0850    0.2570   -0.8240 C   0  0  0  0  0  0  0  0  0  0  0  0
   -4.3240    0.6760    0.2200 N   0  0  0  0  0  0  0  0  0  0  0  0
   -4.7500    0.4990    1.5800 C   0  0  0  0  0  0  0  0  0  0  0  0
   -4.3370   -0.8290    2.1660 C   0  0  0  0  0  0  0  0  0  0  0  0
   -4.8760   -1.8980    1.4430 O   0  0  0  0  0  0  0  0  0  0  0  0
  1  2  2  0
  2  3  1  0
  2 20  1  0
  3  4  1  0
  5  4  1  1
  4 18  1  0
  5  6  2  0
  5  7  2  0
  5  8  1  0
  8  9  2  0
  8 17  1  0
  9 10  1  0
 10 11  2  0
 10 16  1  0
 11 12  1  0
 12 13  2  0
 13 14  1  0
 13 15  1  0
 15 16  2  0
 16 17  1  0
 18 19  1  0
 19 20  1  0
 20 21  1  0
 21 22  1  0
 22 23  2  0
 22 30  1  0
 23 24  1  0
 24 25  2  0
 24 29  1  0
 25 26  1  0
 26 27  2  0
 27 28  1  0
 28 29  2  0
 29 30  1  0
 30 31  1  0
 31 32  1  0
 32 33  1  0
M  END
