
     RDKit          3D

 32 35  0  0  0  0  0  0  0  0999 V2000
   -4.1550    2.0600   -1.8530 C   0  0  0  0  0  0  0  0  0  0  0  0
   -3.5880    0.9150   -1.5370 C   0  0  0  0  0  0  0  0  0  0  0  0
   -3.8160   -0.1340   -2.4570 C   0  0  0  0  0  0  0  0  0  0  0  0
   -3.2920   -1.3690   -2.2540 C   0  0  0  0  0  0  0  0  0  0  0  0
   -2.5410   -1.5620   -1.1360 C   0  0  0  0  0  0  0  0  0  0  0  0
   -2.2840   -0.5980   -0.2150 C   0  0  0  0  0  0  0  0  0  0  0  0
   -1.5670   -0.8320    1.0460 C   0  0  0  0  0  0  0  0  0  0  0  0
   -2.3600   -0.9080    2.2130 C   0  0  0  0  0  0  0  0  0  0  0  0
   -1.8200   -1.1570    3.4400 C   0  0  0  0  0  0  0  0  0  0  0  0
   -0.4530   -1.3310    3.4830 C   0  0  0  0  0  0  0  0  0  0  0  0
    0.3380   -1.2630    2.3780 C   0  0  0  0  0  0  0  0  0  0  0  0
   -0.2210   -1.0040    1.0980 C   0  0  0  0  0  0  0  0  0  0  0  0
    0.7030   -0.8890    0.0260 N   0  0  0  0  0  0  0  0  0  0  0  0
    0.9740   -1.8310   -0.9680 C   0  0  0  0  0  0  0  0  0  0  0  0
    1.8810   -2.9730   -0.6650 C   0  0  0  0  0  0  0  0  0  0  0  0
    1.4740   -3.9230    0.4130 C   0  0  0  0  0  0  0  0  0  0  0  0
    0.1470   -4.5950    0.1660 C   0  0  0  0  0  0  0  0  0  0  0  0
    1.4530    0.3690    0.0490 C   0  0  0  0  0  0  0  0  0  0  0  0
    1.2000    1.3250    0.9860 C   0  0  0  0  0  0  0  0  0  0  0  0
    1.8830    2.5210    1.0580 C   0  0  0  0  0  0  0  0  0  0  0  0
    2.8730    2.7630    0.1360 C   0  0  0  0  0  0  0  0  0  0  0  0
    3.5800    3.9220    0.1560 N   0  0  0  0  0  0  0  0  0  0  0  0
    4.5360    4.1190   -0.7590 C   0  0  0  0  0  0  0  0  0  0  0  0
    5.1890    5.2070   -0.7290 O   0  0  0  0  0  0  0  0  0  0  0  0
    4.8420    3.1900   -1.7350 C   0  0  0  0  0  0  0  0  0  0  0  0
    5.7530    3.4290   -2.5720 O   0  0  0  0  0  0  0  0  0  0  0  0
    4.1470    2.0410   -1.7610 N   0  0  0  0  0  0  0  0  0  0  0  0
    3.1740    1.8370   -0.8320 C   0  0  0  0  0  0  0  0  0  0  0  0
    2.4450    0.6350   -0.8580 C   0  0  0  0  0  0  0  0  0  0  0  0
   -2.8290    0.7030   -0.4160 C   0  0  0  0  0  0  0  0  0  0  0  0
   -2.5640    1.6110    0.4890 C   0  0  0  0  0  0  0  0  0  0  0  0
   -2.9310    3.0130    0.6310 C   0  0  0  0  0  0  0  0  0  0  0  0
  1  2  2  0
  2  3  1  0
  2 30  1  0
  3  4  2  0
  4  5  1  0
  5  6  2  0
  6  7  1  0
  6 30  1  0
  7  8  2  0
  7 12  1  0
  8  9  1  0
  9 10  2  0
 10 11  1  0
 11 12  2  0
 12 13  1  0
 13 14  1  0
 13 18  1  0
 14 15  1  0
 15 16  1  0
 16 17  1  0
 18 19  2  0
 18 29  1  0
 19 20  1  0
 20 21  2  0
 21 22  1  0
 21 28  1  0
 22 23  1  0
 23 24  2  0
 23 25  1  0
 25 26  2  0
 25 27  1  0
 27 28  1  0
 28 29  2  0
 30 31  2  3
 31 32  1  0
M  END
