
     RDKit          3D

 33 34  0  0  0  0  0  0  0  0999 V2000
    5.6000   -0.4600   -2.7030 C   0  0  0  0  0  0  0  0  0  0  0  0
    6.1200   -0.1530   -1.3690 C   0  0  0  0  0  0  0  0  0  0  0  0
    7.6260   -0.3090   -1.1950 C   0  0  0  0  0  0  0  0  0  0  0  0
    5.4610    0.2440   -0.3110 C   0  0  0  0  0  0  0  0  0  0  0  0
    4.0200    0.4570   -0.2770 C   0  0  0  0  0  0  0  0  0  0  0  0
    3.5100    0.8520    0.8780 C   0  0  0  0  0  0  0  0  0  0  0  0
    4.3540    1.0800    2.1000 C   0  0  2  0  0  0  0  0  0  0  0  0
    3.4740    1.5160    3.0990 F   0  0  0  0  0  0  0  0  0  0  0  0
    5.2040    2.1300    1.8360 F   0  0  0  0  0  0  0  0  0  0  0  0
    4.9400   -0.0480    2.5370 F   0  0  0  0  0  0  0  0  0  0  0  0
    3.1770    0.3010   -1.3820 N   0  0  0  0  0  0  0  0  0  0  0  0
    2.3290   -0.8590   -1.5100 C   0  0  0  0  0  0  0  0  0  0  0  0
    1.2200   -0.9670   -0.5370 C   0  0  2  0  0  0  0  0  0  0  0  0
    0.4660   -2.1620   -0.8300 O   0  0  0  0  0  0  0  0  0  0  0  0
   -0.7310   -2.3680   -0.1010 C   0  0  0  0  0  0  0  0  0  0  0  0
   -1.1630   -3.5240    0.0890 O   0  0  0  0  0  0  0  0  0  0  0  0
   -1.4390   -1.2300    0.4130 C   0  0  0  0  0  0  0  0  0  0  0  0
   -2.5760   -1.3260    1.1090 C   0  0  0  0  0  0  0  0  0  0  0  0
   -3.1440   -2.6450    1.3700 C   0  0  0  0  0  0  0  0  0  0  0  0
   -3.1510   -0.1190    1.5650 N   0  0  0  0  0  0  0  0  0  0  0  0
   -4.3770    0.4410    1.1000 C   0  0  0  0  0  0  0  0  0  0  0  0
   -4.7740    1.7100    1.5110 C   0  0  0  0  0  0  0  0  0  0  0  0
   -5.9640    2.2660    1.0770 C   0  0  0  0  0  0  0  0  0  0  0  0
   -6.8210    1.5750    0.2170 C   0  0  0  0  0  0  0  0  0  0  0  0
   -8.1040    2.2160   -0.1770 C   0  0  1  0  0  0  0  0  0  0  0  0
   -9.0820    2.1170    0.7780 F   0  0  0  0  0  0  0  0  0  0  0  0
   -7.9030    3.5930   -0.3690 F   0  0  0  0  0  0  0  0  0  0  0  0
   -8.5480    1.6480   -1.3400 F   0  0  0  0  0  0  0  0  0  0  0  0
   -6.4150    0.3180   -0.1850 C   0  0  0  0  0  0  0  0  0  0  0  0
   -5.2290   -0.2290    0.2470 C   0  0  0  0  0  0  0  0  0  0  0  0
   -0.9060    0.0860    0.1560 N   0  0  0  0  0  0  0  0  0  0  0  0
    0.3100    0.2020   -0.6030 C   0  0  0  0  0  0  0  0  0  0  0  0
    0.6070    1.1830   -1.2670 O   0  0  0  0  0  0  0  0  0  0  0  0
  1  2  1  0
  2  3  1  0
  2  4  2  3
  4  5  1  0
  5  6  2  3
  5 11  1  0
  6  7  1  0
  7  8  1  1
  7  9  1  0
  7 10  1  0
 11 12  1  0
 13 12  1  6
 13 14  1  0
 13 32  1  0
 14 15  1  0
 15 16  2  0
 15 17  1  0
 17 18  2  3
 17 31  1  0
 18 19  1  0
 18 20  1  0
 20 21  1  0
 21 22  2  0
 21 30  1  0
 22 23  1  0
 23 24  2  0
 24 25  1  0
 24 29  1  0
 25 26  1  1
 25 27  1  0
 25 28  1  0
 29 30  2  0
 31 32  1  0
 32 33  2  0
M  END
