
     RDKit          3D

 33 34  0  0  0  0  0  0  0  0999 V2000
    7.3120    1.4800   -3.1500 C   0  0  0  0  0  0  0  0  0  0  0  0
    8.0050    1.6450   -1.8690 C   0  0  0  0  0  0  0  0  0  0  0  0
    7.6670    0.9300   -0.7970 C   0  0  0  0  0  0  0  0  0  0  0  0
    6.6120    0.0140   -0.9680 N   0  0  0  0  0  0  0  0  0  0  0  0
    5.3560    0.2710   -0.3180 C   0  0  0  0  0  0  0  0  0  0  0  0
    5.2340    1.3020    0.3650 O   0  0  0  0  0  0  0  0  0  0  0  0
    4.2690   -0.6190   -0.4410 N   0  0  0  0  0  0  0  0  0  0  0  0
    2.9920   -0.5060    0.1140 C   0  0  0  0  0  0  0  0  0  0  0  0
    2.1490   -1.6200    0.1070 C   0  0  0  0  0  0  0  0  0  0  0  0
    0.8750   -1.5840    0.6210 C   0  0  0  0  0  0  0  0  0  0  0  0
    0.3690   -0.4320    1.1700 C   0  0  0  0  0  0  0  0  0  0  0  0
   -0.8390   -0.2390    1.7030 O   0  0  0  0  0  0  0  0  0  0  0  0
   -2.0000   -0.8610    1.9500 C   0  0  0  0  0  0  0  0  0  0  0  0
   -2.8400   -1.3630    0.8190 C   0  0  2  0  0  0  0  0  0  0  0  0
   -2.2870   -2.2920   -0.0040 O   0  0  0  0  0  0  0  0  0  0  0  0
   -3.4080   -0.1830    0.0520 C   0  0  0  0  0  0  0  0  0  0  0  0
   -4.4240   -0.5830   -0.8590 N   0  0  0  0  0  0  0  0  0  0  0  0
   -4.9450    0.5620   -1.5730 C   0  0  0  0  0  0  0  0  0  0  0  0
   -5.7420    1.4790   -0.6730 C   0  0  0  0  0  0  0  0  0  0  0  0
   -6.8760    0.6940   -0.0490 C   0  0  0  0  0  0  0  0  0  0  0  0
   -6.2180   -0.4570    0.7240 C   0  0  1  0  0  0  0  0  0  0  0  0
   -7.2610   -1.2240    1.5040 C   0  0  1  0  0  0  0  0  0  0  0  0
   -6.6550   -2.2380    2.1800 F   0  0  0  0  0  0  0  0  0  0  0  0
   -7.8900   -0.3650    2.3830 F   0  0  0  0  0  0  0  0  0  0  0  0
   -8.2190   -1.7020    0.6290 F   0  0  0  0  0  0  0  0  0  0  0  0
   -5.5150   -1.3070   -0.2900 C   0  0  0  0  0  0  0  0  0  0  0  0
    1.2200    0.6790    1.1730 C   0  0  0  0  0  0  0  0  0  0  0  0
    2.4950    0.6360    0.6570 C   0  0  0  0  0  0  0  0  0  0  0  0
    8.3570    1.0930    0.4660 C   0  0  0  0  0  0  0  0  0  0  0  0
    9.3540    2.0480    0.4980 F   0  0  0  0  0  0  0  0  0  0  0  0
    8.0650    0.3900    1.5140 C   0  0  0  0  0  0  0  0  0  0  0  0
    8.7980    0.6510    2.6500 F   0  0  0  0  0  0  0  0  0  0  0  0
    7.1370   -0.5700    1.5350 F   0  0  0  0  0  0  0  0  0  0  0  0
  1  2  1  0
  2  3  2  3
  3  4  1  0
  3 29  1  0
  4  5  1  0
  5  6  2  0
  5  7  1  0
  7  8  1  0
  8  9  2  0
  8 28  1  0
  9 10  1  0
 10 11  2  0
 11 12  1  0
 11 27  1  0
 12 13  1  0
 13 14  1  0
 14 15  1  6
 14 16  1  0
 16 17  1  0
 17 18  1  0
 17 26  1  0
 18 19  1  0
 19 20  1  0
 21 20  1  6
 21 22  1  0
 21 26  1  0
 22 23  1  1
 22 24  1  0
 22 25  1  0
 27 28  2  0
 29 30  1  0
 29 31  2  3
 31 32  1  0
 31 33  1  0
M  END
