
     RDKit          3D

 46 49  0  0  0  0  0  0  0  0999 V2000
    7.9500   -4.2250    2.7260 C   0  0  0  0  0  0  0  0  0  0  0  0
    8.9680   -3.3760    1.9950 C   0  0  0  0  0  0  0  0  0  0  0  0
    8.6490   -3.3450    0.5100 C   0  0  2  0  0  0  0  0  0  0  0  0
    8.6950   -4.7620   -0.0110 C   0  0  0  0  0  0  0  0  0  0  0  0
    9.6580   -2.4830   -0.2000 C   0  0  0  0  0  0  0  0  0  0  0  0
    7.2990   -2.7460    0.3110 C   0  0  0  0  0  0  0  0  0  0  0  0
    7.1170   -1.4610    0.1420 C   0  0  0  0  0  0  0  0  0  0  0  0
    5.7860   -0.9340   -0.0480 C   0  0  0  0  0  0  0  0  0  0  0  0
    4.7720   -1.7090   -0.0630 O   0  0  0  0  0  0  0  0  0  0  0  0
    5.5340    0.4640   -0.2270 N   0  0  0  0  0  0  0  0  0  0  0  0
    4.2210    0.9970   -0.4100 C   0  0  0  0  0  0  0  0  0  0  0  0
    3.4020    0.8090    0.8010 C   0  0  0  0  0  0  0  0  0  0  0  0
    3.9110    0.2800    1.9370 C   0  0  0  0  0  0  0  0  0  0  0  0
    3.1380    0.1200    3.0960 C   0  0  0  0  0  0  0  0  0  0  0  0
    1.8340    0.5160    3.0620 C   0  0  0  0  0  0  0  0  0  0  0  0
    1.2970    1.0550    1.9230 C   0  0  0  0  0  0  0  0  0  0  0  0
    2.0580    1.2060    0.8010 C   0  0  0  0  0  0  0  0  0  0  0  0
    1.4960    1.7990   -0.4490 C   0  0  0  0  0  0  0  0  0  0  0  0
    0.0750    2.1040   -0.1800 N   0  0  0  0  0  0  0  0  0  0  0  0
   -0.3130    3.3870    0.3540 C   0  0  0  0  0  0  0  0  0  0  0  0
   -0.5780    4.3630   -0.7650 C   0  0  1  0  0  0  0  0  0  0  0  0
   -0.8050    5.7190   -0.0830 C   0  0  0  0  0  0  0  0  0  0  0  0
   -0.5060    6.8130   -0.9360 N   0  0  0  0  0  0  0  0  0  0  0  0
    0.4130    7.7770   -0.4330 C   0  0  0  0  0  0  0  0  0  0  0  0
   -0.4310    6.5440   -2.3290 C   0  0  0  0  0  0  0  0  0  0  0  0
    0.2380    5.2380   -2.6670 C   0  0  0  0  0  0  0  0  0  0  0  0
    0.5800    4.5120   -1.5290 O   0  0  0  0  0  0  0  0  0  0  0  0
   -0.9010    1.1250   -0.4500 C   0  0  0  0  0  0  0  0  0  0  0  0
   -0.5320    0.0100   -0.9200 O   0  0  0  0  0  0  0  0  0  0  0  0
   -2.3260    1.3870   -0.1920 C   0  0  0  0  0  0  0  0  0  0  0  0
   -3.0700    0.0720   -0.4460 C   0  0  0  0  0  0  0  0  0  0  0  0
   -4.5020    0.3040   -0.1990 C   0  0  0  0  0  0  0  0  0  0  0  0
   -4.9260    1.4220    0.0920 O   0  0  0  0  0  0  0  0  0  0  0  0
   -5.3830   -0.7970   -0.3040 N   0  0  0  0  0  0  0  0  0  0  0  0
   -6.7970   -0.5910   -0.0660 C   0  0  2  0  0  0  0  0  0  0  0  0
   -7.2710   -1.3140    1.1680 C   0  0  0  0  0  0  0  0  0  0  0  0
   -7.9110   -2.6010    0.6600 C   0  0  2  0  0  0  0  0  0  0  0  0
   -7.0200   -3.7730    0.9130 C   0  0  0  0  0  0  0  0  0  0  0  0
   -7.5890   -5.0780    0.4340 C   0  0  0  0  0  0  0  0  0  0  0  0
   -6.6800   -6.1260    0.7430 O   0  0  0  0  0  0  0  0  0  0  0  0
   -8.1930   -2.3150   -0.7480 C   0  0  0  0  0  0  0  0  0  0  0  0
   -8.9780   -3.0060   -1.6650 C   0  0  0  0  0  0  0  0  0  0  0  0
   -9.1250   -2.5830   -2.9630 C   0  0  0  0  0  0  0  0  0  0  0  0
   -8.4850   -1.4420   -3.3970 C   0  0  0  0  0  0  0  0  0  0  0  0
   -7.7070   -0.7490   -2.5040 C   0  0  0  0  0  0  0  0  0  0  0  0
   -7.5610   -1.1850   -1.1770 C   0  0  0  0  0  0  0  0  0  0  0  0
  1  2  1  0
  2  3  1  0
  3  4  1  6
  3  5  1  0
  3  6  1  0
  6  7  2  3
  7  8  1  0
  8  9  2  0
  8 10  1  0
 10 11  1  0
 11 12  1  0
 12 13  2  0
 12 17  1  0
 13 14  1  0
 14 15  2  0
 15 16  1  0
 16 17  2  0
 17 18  1  0
 18 19  1  0
 19 20  1  0
 19 28  1  0
 21 20  1  1
 21 22  1  0
 21 27  1  0
 22 23  1  0
 23 24  1  0
 23 25  1  0
 25 26  1  0
 26 27  1  0
 28 29  2  0
 28 30  1  0
 30 31  1  0
 31 32  1  0
 32 33  2  0
 32 34  1  0
 35 34  1  6
 35 36  1  0
 35 46  1  0
 36 37  1  0
 37 38  1  6
 37 41  1  0
 38 39  1  0
 39 40  1  0
 41 42  2  0
 41 46  1  0
 42 43  1  0
 43 44  2  0
 44 45  1  0
 45 46  2  0
M  END
