
     RDKit          3D

 46 49  0  0  0  0  0  0  0  0999 V2000
   -3.8930    3.3110    2.3020 C   0  0  0  0  0  0  0  0  0  0  0  0
   -3.9680    2.7380    1.1260 C   0  0  0  0  0  0  0  0  0  0  0  0
   -2.7980    2.7310    0.2660 C   0  0  0  0  0  0  0  0  0  0  0  0
   -2.4190    3.9800   -0.2600 C   0  0  0  0  0  0  0  0  0  0  0  0
   -1.3570    4.1160   -1.0870 C   0  0  0  0  0  0  0  0  0  0  0  0
   -0.6240    2.9710   -1.4230 C   0  0  0  0  0  0  0  0  0  0  0  0
   -0.9810    1.7690   -0.9230 C   0  0  0  0  0  0  0  0  0  0  0  0
   -2.0760    1.6200   -0.0620 C   0  0  0  0  0  0  0  0  0  0  0  0
   -2.3500    0.3760    0.5530 N   0  0  0  0  0  0  0  0  0  0  0  0
   -3.4300    0.0870    1.4290 C   0  0  1  0  0  0  0  0  0  0  0  0
   -4.1980   -1.0360    0.6790 C   0  0  0  0  0  0  0  0  0  0  0  0
   -2.8780   -0.7010    2.6730 C   0  0  0  0  0  0  0  0  0  0  0  0
   -4.0100   -1.0110    3.6170 C   0  0  0  0  0  0  0  0  0  0  0  0
   -1.4160   -0.6830    0.2250 C   0  0  0  0  0  0  0  0  0  0  0  0
   -1.7430   -1.8460    0.2540 O   0  0  0  0  0  0  0  0  0  0  0  0
   -0.0220   -0.2290   -0.1540 C   0  0  2  0  0  0  0  0  0  0  0  0
    0.9490   -1.2040    0.0860 N   0  0  0  0  0  0  0  0  0  0  0  0
    1.0480   -2.5690   -0.2340 C   0  0  0  0  0  0  0  0  0  0  0  0
    0.1590   -3.1530   -0.8290 O   0  0  0  0  0  0  0  0  0  0  0  0
    2.2440   -3.4260    0.1280 C   0  0  1  0  0  0  0  0  0  0  0  0
    2.6230   -4.2950   -1.0180 C   0  0  0  0  0  0  0  0  0  0  0  0
    3.7970   -5.1770   -0.7540 C   0  0  0  0  0  0  0  0  0  0  0  0
    4.9220   -4.4380   -0.4490 O   0  0  0  0  0  0  0  0  0  0  0  0
    3.3420   -2.6700    0.6540 N   0  0  0  0  0  0  0  0  0  0  0  0
    4.1200   -1.7560   -0.1440 C   0  0  0  0  0  0  0  0  0  0  0  0
    3.8800   -1.4430   -1.3350 O   0  0  0  0  0  0  0  0  0  0  0  0
    5.2490   -1.2400    0.6450 C   0  0  0  0  0  0  0  0  0  0  0  0
    5.1080   -1.8470    2.0260 C   0  0  0  0  0  0  0  0  0  0  0  0
    3.8660   -2.6510    1.9720 C   0  0  0  0  0  0  0  0  0  0  0  0
    3.3520   -3.2310    2.9580 O   0  0  0  0  0  0  0  0  0  0  0  0
    0.2530    0.7980    0.9000 N   0  0  0  0  0  0  0  0  0  0  0  0
    1.3720    1.5510    1.1520 C   0  0  0  0  0  0  0  0  0  0  0  0
    2.5670    1.4650    0.5070 C   0  0  0  0  0  0  0  0  0  0  0  0
    3.6850    2.2590    0.8330 C   0  0  0  0  0  0  0  0  0  0  0  0
    3.5950    3.1780    1.8490 C   0  0  0  0  0  0  0  0  0  0  0  0
    2.4030    3.2940    2.5240 C   0  0  0  0  0  0  0  0  0  0  0  0
    2.2990    4.2860    3.6250 C   0  0  0  0  0  0  0  0  0  0  0  0
    1.3410    2.5110    2.1850 C   0  0  0  0  0  0  0  0  0  0  0  0
    0.0980    2.6820    2.9470 C   0  0  0  0  0  0  0  0  0  0  0  0
   -0.2430    0.4970   -1.4150 C   0  0  2  0  0  0  0  0  0  0  0  0
    0.8900    0.8240   -2.2850 C   0  0  0  0  0  0  0  0  0  0  0  0
   -1.3410   -0.0230   -2.3500 C   0  0  0  0  0  0  0  0  0  0  0  0
   -1.0670   -1.2060   -3.1680 C   0  0  0  0  0  0  0  0  0  0  0  0
   -2.2950   -1.5880   -4.0350 C   0  0  0  0  0  0  0  0  0  0  0  0
   -2.6700   -0.4720   -4.9710 C   0  0  0  0  0  0  0  0  0  0  0  0
   -3.8760   -0.9150   -5.8110 C   0  0  0  0  0  0  0  0  0  0  0  0
  1  2  2  0
  2  3  1  0
  3  4  2  0
  3  8  1  0
  4  5  1  0
  5  6  2  0
  6  7  1  0
  7  8  2  0
  7 40  1  0
  8  9  1  0
  9 10  1  0
  9 14  1  0
 10 11  1  6
 10 12  1  0
 12 13  1  0
 14 15  2  0
 14 16  1  0
 16 17  1  6
 16 31  1  0
 16 40  1  0
 17 18  1  0
 18 19  2  0
 18 20  1  0
 20 21  1  6
 20 24  1  0
 21 22  1  0
 22 23  1  0
 24 25  1  0
 24 29  1  0
 25 26  2  0
 25 27  1  0
 27 28  1  0
 28 29  1  0
 29 30  2  0
 31 32  1  0
 32 33  2  0
 32 38  1  0
 33 34  1  0
 34 35  2  0
 35 36  1  0
 36 37  1  0
 36 38  2  0
 38 39  1  0
 40 41  1  6
 40 42  1  0
 42 43  1  0
 43 44  1  0
 44 45  1  0
 45 46  1  0
M  END
