
     RDKit          3D

 46 49  0  0  0  0  0  0  0  0999 V2000
    5.7080   -1.5940    3.0610 C   0  0  0  0  0  0  0  0  0  0  0  0
    5.6200   -0.3110    2.8030 C   0  0  0  0  0  0  0  0  0  0  0  0
    5.1860    0.2650    1.4860 C   0  0  0  0  0  0  0  0  0  0  0  0
    4.8460   -0.7310    0.5270 N   0  0  0  0  0  0  0  0  0  0  0  0
    5.8090   -1.3210   -0.3130 C   0  0  0  0  0  0  0  0  0  0  0  0
    5.3440   -2.0660   -1.2830 O   0  0  0  0  0  0  0  0  0  0  0  0
    7.2630   -1.2270   -0.2560 C   0  0  1  0  0  0  0  0  0  0  0  0
    7.7670   -2.0110   -1.3420 O   0  0  0  0  0  0  0  0  0  0  0  0
    7.8750    0.0930   -0.3030 C   0  0  0  0  0  0  0  0  0  0  0  0
    8.5810    0.5860    0.8000 C   0  0  0  0  0  0  0  0  0  0  0  0
    9.1680    1.8090    0.7860 C   0  0  0  0  0  0  0  0  0  0  0  0
    9.0870    2.6210   -0.3330 C   0  0  0  0  0  0  0  0  0  0  0  0
    9.7190    3.9320   -0.3360 C   0  0  0  0  0  0  0  0  0  0  0  0
    9.7530    4.6710   -1.5290 N   0  0  0  0  0  0  0  0  0  0  0  0
   10.2160    4.3720    0.7200 O   0  0  0  0  0  0  0  0  0  0  0  0
    8.4010    2.1650   -1.4310 C   0  0  0  0  0  0  0  0  0  0  0  0
    7.8060    0.9110   -1.4030 C   0  0  0  0  0  0  0  0  0  0  0  0
    3.4740   -1.0970    0.3480 C   0  0  0  0  0  0  0  0  0  0  0  0
    2.8950   -1.0100   -0.9280 C   0  0  0  0  0  0  0  0  0  0  0  0
    1.5870   -1.3630   -1.1590 C   0  0  0  0  0  0  0  0  0  0  0  0
    0.7720   -1.8260   -0.1450 C   0  0  0  0  0  0  0  0  0  0  0  0
    1.3080   -1.9230    1.1150 C   0  0  0  0  0  0  0  0  0  0  0  0
    2.6470   -1.5570    1.3380 C   0  0  0  0  0  0  0  0  0  0  0  0
    0.4830   -2.4140    2.2460 C   0  0  0  0  0  0  0  0  0  0  0  0
   -0.3950   -3.5230    1.8070 C   0  0  0  0  0  0  0  0  0  0  0  0
   -0.7390   -3.5840    0.3660 C   0  0  0  0  0  0  0  0  0  0  0  0
   -0.6250   -2.2360   -0.3640 C   0  0  1  0  0  0  0  0  0  0  0  0
   -1.5250   -1.2670    0.1430 N   0  0  0  0  0  0  0  0  0  0  0  0
   -2.7290   -0.8540   -0.5140 C   0  0  0  0  0  0  0  0  0  0  0  0
   -3.0070   -1.3730   -1.5960 O   0  0  0  0  0  0  0  0  0  0  0  0
   -3.5580    0.1460    0.1230 C   0  0  0  0  0  0  0  0  0  0  0  0
   -4.8320    0.5580   -0.5270 C   0  0  2  0  0  0  0  0  0  0  0  0
   -5.7430   -0.6050   -0.7100 C   0  0  0  0  0  0  0  0  0  0  0  0
   -5.9090   -1.2730   -1.8930 C   0  0  0  0  0  0  0  0  0  0  0  0
   -6.7720   -2.3600   -1.9090 C   0  0  0  0  0  0  0  0  0  0  0  0
   -7.4550   -2.7810   -0.7910 C   0  0  0  0  0  0  0  0  0  0  0  0
   -8.3630   -3.9690   -0.9130 C   0  0  0  0  0  0  0  0  0  0  0  0
   -7.2890   -2.1280    0.3510 N   0  0  0  0  0  0  0  0  0  0  0  0
   -6.4630   -1.0730    0.4040 C   0  0  0  0  0  0  0  0  0  0  0  0
   -4.8450    1.6180   -1.5210 C   0  0  2  0  0  0  0  0  0  0  0  0
   -4.0400    1.4750   -2.7820 C   0  0  0  0  0  0  0  0  0  0  0  0
   -4.6170    2.8800   -0.9470 O   0  0  0  0  0  0  0  0  0  0  0  0
   -5.5990    3.7880   -1.0400 C   0  0  0  0  0  0  0  0  0  0  0  0
   -6.7890    3.4780   -0.1890 C   0  0  0  0  0  0  0  0  0  0  0  0
   -6.4860    3.5510    1.2900 C   0  0  0  0  0  0  0  0  0  0  0  0
   -7.7180    3.1960    2.1180 C   0  0  0  0  0  0  0  0  0  0  0  0
  1  2  2  0
  2  3  1  0
  3  4  1  0
  4  5  1  0
  4 18  1  0
  5  6  2  0
  5  7  1  0
  7  8  1  6
  7  9  1  0
  9 10  2  0
  9 17  1  0
 10 11  1  0
 11 12  2  0
 12 13  1  0
 12 16  1  0
 13 14  1  0
 13 15  2  0
 16 17  2  0
 18 19  2  0
 18 23  1  0
 19 20  1  0
 20 21  2  0
 21 22  1  0
 21 27  1  0
 22 23  2  0
 22 24  1  0
 24 25  1  0
 25 26  1  0
 26 27  1  0
 27 28  1  1
 28 29  1  0
 29 30  2  0
 29 31  1  0
 32 31  1  6
 32 33  1  0
 32 40  1  0
 33 34  2  0
 33 39  1  0
 34 35  1  0
 35 36  2  0
 36 37  1  0
 36 38  1  0
 38 39  2  0
 40 41  1  6
 40 42  1  0
 42 43  1  0
 43 44  1  0
 44 45  1  0
 45 46  1  0
M  END
