
     RDKit          3D

 46 49  0  0  0  0  0  0  0  0999 V2000
   -3.1600    4.1800   -1.5410 C   0  0  0  0  0  0  0  0  0  0  0  0
   -2.2480    4.4930   -0.5170 N   0  0  0  0  0  0  0  0  0  0  0  0
   -2.0990    3.5100    0.5660 C   0  0  2  0  0  0  0  0  0  0  0  0
   -1.6720    2.2300    0.0130 C   0  0  0  0  0  0  0  0  0  0  0  0
   -1.6270    2.1250   -1.2740 O   0  0  0  0  0  0  0  0  0  0  0  0
   -1.2960    1.0940    0.7280 N   0  0  0  0  0  0  0  0  0  0  0  0
   -0.8820   -0.1140    0.0010 C   0  0  1  0  0  0  0  0  0  0  0  0
    0.0270   -0.9850    0.6980 C   0  0  0  0  0  0  0  0  0  0  0  0
    1.3030   -1.0860    0.4960 C   0  0  0  0  0  0  0  0  0  0  0  0
    2.0630   -0.3290   -0.4670 N   0  0  0  0  0  0  0  0  0  0  0  0
    2.5510    0.9410   -0.0990 C   0  0  0  0  0  0  0  0  0  0  0  0
    2.0910    2.1580   -0.8250 C   0  0  0  0  0  0  0  0  0  0  0  0
    2.7620    3.3930   -0.2440 C   0  0  0  0  0  0  0  0  0  0  0  0
    2.1340    4.0090    0.8110 C   0  0  0  0  0  0  0  0  0  0  0  0
    2.6690    5.1490    1.4090 C   0  0  0  0  0  0  0  0  0  0  0  0
    3.8580    5.6780    0.9340 C   0  0  0  0  0  0  0  0  0  0  0  0
    4.3920    6.8150    1.5290 O   0  0  0  0  0  0  0  0  0  0  0  0
    4.4620    5.0370   -0.1250 C   0  0  0  0  0  0  0  0  0  0  0  0
    3.9270    3.9000   -0.7190 C   0  0  0  0  0  0  0  0  0  0  0  0
    2.3810   -0.9480   -1.6840 C   0  0  2  0  0  0  0  0  0  0  0  0
    3.1350   -0.1750   -2.7310 C   0  0  0  0  0  0  0  0  0  0  0  0
    3.4260   -1.3740   -3.6900 C   0  0  0  0  0  0  0  0  0  0  0  0
    2.1510   -2.2000   -3.6200 C   0  0  0  0  0  0  0  0  0  0  0  0
    1.3000   -1.5470   -2.5150 C   0  0  0  0  0  0  0  0  0  0  0  0
    2.1300   -2.1220    1.1950 C   0  0  0  0  0  0  0  0  0  0  0  0
    1.6220   -2.9840    2.0250 C   0  0  0  0  0  0  0  0  0  0  0  0
    2.4200   -3.9910    2.7300 C   0  0  0  0  0  0  0  0  0  0  0  0
    1.9480   -4.8180    3.5450 O   0  0  0  0  0  0  0  0  0  0  0  0
    3.8090   -4.0850    2.5190 O   0  0  0  0  0  0  0  0  0  0  0  0
    4.5870   -5.0390    3.1800 C   0  0  0  0  0  0  0  0  0  0  0  0
    0.1590   -3.0370    2.1710 C   0  0  2  0  0  0  0  0  0  0  0  0
   -0.3410   -4.0750    1.1450 C   0  0  0  0  0  0  0  0  0  0  0  0
    0.2140   -5.4150    1.3450 C   0  0  0  0  0  0  0  0  0  0  0  0
   -0.4220   -6.3450    2.2020 N   0  0  0  0  0  0  0  0  0  0  0  0
    1.2830   -5.8020    0.7640 O   0  0  0  0  0  0  0  0  0  0  0  0
   -0.5460   -1.7380    1.8760 C   0  0  0  0  0  0  0  0  0  0  0  0
   -2.1530   -0.8070   -0.4810 C   0  0  0  0  0  0  0  0  0  0  0  0
   -3.2340   -0.8660    0.3440 C   0  0  0  0  0  0  0  0  0  0  0  0
   -4.4240   -1.4890   -0.0470 C   0  0  0  0  0  0  0  0  0  0  0  0
   -4.5310   -2.0640   -1.2940 C   0  0  0  0  0  0  0  0  0  0  0  0
   -5.8120   -2.7150   -1.6690 C   0  0  0  0  0  0  0  0  0  0  0  0
   -3.4560   -2.0090   -2.1250 C   0  0  0  0  0  0  0  0  0  0  0  0
   -2.2700   -1.3820   -1.7200 C   0  0  0  0  0  0  0  0  0  0  0  0
   -3.2440    3.6100    1.4670 C   0  0  2  0  0  0  0  0  0  0  0  0
   -3.1260    2.6540    2.6530 C   0  0  0  0  0  0  0  0  0  0  0  0
   -4.6250    3.4950    0.8760 C   0  0  0  0  0  0  0  0  0  0  0  0
  1  2  1  0
  3  2  1  6
  3  4  1  0
  3 44  1  0
  4  5  2  0
  4  6  1  0
  7  6  1  1
  7  8  1  0
  7 37  1  0
  8  9  2  0
  8 36  1  0
  9 10  1  0
  9 25  1  0
 10 11  1  0
 20 10  1  1
 11 12  1  0
 12 13  1  0
 13 14  2  0
 13 19  1  0
 14 15  1  0
 15 16  2  0
 16 17  1  0
 16 18  1  0
 18 19  2  0
 20 21  1  0
 20 24  1  0
 21 22  1  0
 22 23  1  0
 23 24  1  0
 25 26  2  0
 26 27  1  0
 26 31  1  0
 27 28  2  0
 27 29  1  0
 29 30  1  0
 31 32  1  6
 31 36  1  0
 32 33  1  0
 33 34  1  0
 33 35  2  0
 37 38  2  0
 37 43  1  0
 38 39  1  0
 39 40  2  0
 40 41  1  0
 40 42  1  0
 42 43  2  0
 44 45  1  1
 44 46  1  0
M  END
