
     RDKit          3D

 46 49  0  0  0  0  0  0  0  0999 V2000
   -0.6330    3.4670   -2.8090 C   0  0  0  0  0  0  0  0  0  0  0  0
    0.3890    2.3400   -2.6900 C   0  0  0  0  0  0  0  0  0  0  0  0
   -0.0310    1.4820   -1.4810 C   0  0  0  0  0  0  0  0  0  0  0  0
    0.9300    0.3700   -1.3580 C   0  0  0  0  0  0  0  0  0  0  0  0
    2.0880    0.3810   -2.1450 C   0  0  0  0  0  0  0  0  0  0  0  0
    3.0490   -0.5960   -2.0470 C   0  0  0  0  0  0  0  0  0  0  0  0
    2.8350   -1.6050   -1.1350 C   0  0  0  0  0  0  0  0  0  0  0  0
    3.7960   -2.6150   -1.0080 O   0  0  0  0  0  0  0  0  0  0  0  0
    4.9660   -2.6340   -1.7450 C   0  0  0  0  0  0  0  0  0  0  0  0
    5.8740   -1.4580   -1.4600 C   0  0  0  0  0  0  0  0  0  0  0  0
    6.8660   -1.2960   -2.1900 O   0  0  0  0  0  0  0  0  0  0  0  0
    5.5800   -0.6030   -0.4020 N   0  0  0  0  0  0  0  0  0  0  0  0
    6.3450    0.5260   -0.0340 C   0  0  0  0  0  0  0  0  0  0  0  0
    7.7240    0.1690    0.4170 C   0  0  1  0  0  0  0  0  0  0  0  0
    8.4800   -0.4500   -0.5240 O   0  0  0  0  0  0  0  0  0  0  0  0
    8.3540    1.4560    0.9330 C   0  0  0  0  0  0  0  0  0  0  0  0
    9.7560    1.2370    1.4240 C   0  0  0  0  0  0  0  0  0  0  0  0
    9.8350    0.2480    2.5550 C   0  0  0  0  0  0  0  0  0  0  0  0
    1.6930   -1.6150   -0.3620 C   0  0  0  0  0  0  0  0  0  0  0  0
    0.6960   -0.6330   -0.4410 C   0  0  0  0  0  0  0  0  0  0  0  0
   -0.5060   -0.7680    0.3930 C   0  0  2  0  0  0  0  0  0  0  0  0
   -1.6500   -1.2560   -0.4100 C   0  0  0  0  0  0  0  0  0  0  0  0
   -1.5360   -1.4710   -1.6420 O   0  0  0  0  0  0  0  0  0  0  0  0
   -2.9320   -1.5040    0.1920 N   0  0  0  0  0  0  0  0  0  0  0  0
   -3.9890   -1.9600   -0.6080 C   0  0  1  0  0  0  0  0  0  0  0  0
   -4.3830   -3.3800   -0.4540 C   0  0  0  0  0  0  0  0  0  0  0  0
   -3.9470   -4.1890    0.3920 N   0  0  0  0  0  0  0  0  0  0  0  0
   -2.9990   -4.0670    1.4270 C   0  0  0  0  0  0  0  0  0  0  0  0
   -5.3890   -3.8140   -1.4080 N   0  0  0  0  0  0  0  0  0  0  0  0
   -6.1350   -2.8270   -2.1620 C   0  0  0  0  0  0  0  0  0  0  0  0
   -6.3060   -1.6360   -1.2880 C   0  0  0  0  0  0  0  0  0  0  0  0
   -7.5240   -0.9750   -1.2550 C   0  0  0  0  0  0  0  0  0  0  0  0
   -8.6560   -1.4500   -2.0910 C   0  0  0  0  0  0  0  0  0  0  0  0
   -7.6970    0.1290   -0.4460 C   0  0  0  0  0  0  0  0  0  0  0  0
   -6.6550    0.5750    0.3300 C   0  0  0  0  0  0  0  0  0  0  0  0
   -6.8290    1.7750    1.2200 C   0  0  0  0  0  0  0  0  0  0  0  0
   -5.4560   -0.0950    0.2820 C   0  0  0  0  0  0  0  0  0  0  0  0
   -5.2490   -1.1890   -0.5050 C   0  0  0  0  0  0  0  0  0  0  0  0
   -0.8100    0.3520    1.2940 C   0  0  0  0  0  0  0  0  0  0  0  0
   -1.8600    1.2160    1.1120 C   0  0  0  0  0  0  0  0  0  0  0  0
   -2.0620    2.2310    2.0080 C   0  0  0  0  0  0  0  0  0  0  0  0
   -1.2650    2.4590    3.1170 C   0  0  0  0  0  0  0  0  0  0  0  0
   -1.4790    3.4930    4.0190 O   0  0  0  0  0  0  0  0  0  0  0  0
   -2.5700    4.3600    3.7910 C   0  0  0  0  0  0  0  0  0  0  0  0
   -0.2110    1.5650    3.2700 C   0  0  0  0  0  0  0  0  0  0  0  0
    0.0080    0.5420    2.3840 C   0  0  0  0  0  0  0  0  0  0  0  0
  1  2  1  0
  2  3  1  0
  3  4  1  0
  4  5  2  0
  4 20  1  0
  5  6  1  0
  6  7  2  0
  7  8  1  0
  7 19  1  0
  8  9  1  0
  9 10  1  0
 10 11  2  0
 10 12  1  0
 12 13  1  0
 13 14  1  0
 14 15  1  6
 14 16  1  0
 16 17  1  0
 17 18  1  0
 19 20  2  0
 20 21  1  0
 21 22  1  6
 21 39  1  0
 22 23  2  0
 22 24  1  0
 25 24  1  1
 25 26  1  0
 25 38  1  0
 26 27  2  3
 26 29  1  0
 27 28  1  0
 29 30  1  0
 30 31  1  0
 31 32  2  0
 31 38  1  0
 32 33  1  0
 32 34  1  0
 34 35  2  0
 35 36  1  0
 35 37  1  0
 37 38  2  0
 39 40  2  0
 39 46  1  0
 40 41  1  0
 41 42  2  0
 42 43  1  0
 42 45  1  0
 43 44  1  0
 45 46  2  0
M  END
