
     RDKit          3D

 46 49  0  0  0  0  0  0  0  0999 V2000
    4.3570   -3.0850    1.3560 C   0  0  0  0  0  0  0  0  0  0  0  0
    4.2570   -1.6090    1.7090 C   0  0  0  0  0  0  0  0  0  0  0  0
    4.5160   -0.8210    0.4110 C   0  0  0  0  0  0  0  0  0  0  0  0
    5.4710    0.0100    0.4470 C   0  0  0  0  0  0  0  0  0  0  0  0
    5.9750    0.8390   -0.6320 C   0  0  0  0  0  0  0  0  0  0  0  0
    6.7700    1.8170   -0.7920 C   0  0  0  0  0  0  0  0  0  0  0  0
    6.8880    2.2570   -2.2320 C   0  0  0  0  0  0  0  0  0  0  0  0
    5.8680    1.3750   -2.9470 C   0  0  0  0  0  0  0  0  0  0  0  0
    6.0100    0.1540   -2.0510 C   0  0  1  0  0  0  0  0  0  0  0  0
    7.4380   -0.3510   -2.2210 C   0  0  0  0  0  0  0  0  0  0  0  0
    8.4860   -0.3870   -1.5340 C   0  0  0  0  0  0  0  0  0  0  0  0
    9.0100   -0.0250   -0.2180 C   0  0  0  0  0  0  0  0  0  0  0  0
    9.5520   -1.1680    0.4950 O   0  0  0  0  0  0  0  0  0  0  0  0
   10.0160   -0.6840    1.7080 C   0  0  0  0  0  0  0  0  0  0  0  0
    3.2760   -0.8250   -0.3800 C   0  0  0  0  0  0  0  0  0  0  0  0
    2.5360   -1.8610   -0.4200 O   0  0  0  0  0  0  0  0  0  0  0  0
    2.8600    0.3110   -1.0610 N   0  0  0  0  0  0  0  0  0  0  0  0
    1.7030    0.6350   -1.7890 C   0  0  0  0  0  0  0  0  0  0  0  0
    0.3980    0.7670   -1.0250 C   0  0  2  0  0  0  0  0  0  0  0  0
   -0.1230   -0.4340   -0.4100 C   0  0  0  0  0  0  0  0  0  0  0  0
   -1.4140   -0.4260    0.3420 C   0  0  0  0  0  0  0  0  0  0  0  0
   -1.4200   -0.5010    1.7270 C   0  0  0  0  0  0  0  0  0  0  0  0
   -2.6100   -0.6690    2.4170 C   0  0  0  0  0  0  0  0  0  0  0  0
   -3.8310   -0.7660    1.7340 C   0  0  0  0  0  0  0  0  0  0  0  0
   -5.0030   -1.1020    2.4970 C   0  0  0  0  0  0  0  0  0  0  0  0
   -5.7330   -0.6750    3.4040 C   0  0  0  0  0  0  0  0  0  0  0  0
   -5.8860    0.4680    4.2990 C   0  0  0  0  0  0  0  0  0  0  0  0
   -7.1380    1.1190    4.0820 O   0  0  0  0  0  0  0  0  0  0  0  0
   -8.2500    0.3630    4.2040 C   0  0  0  0  0  0  0  0  0  0  0  0
   -3.8270   -0.6710    0.3570 C   0  0  0  0  0  0  0  0  0  0  0  0
   -5.0620   -0.5970   -0.4230 C   0  0  0  0  0  0  0  0  0  0  0  0
   -5.1060   -0.6480   -1.8130 C   0  0  0  0  0  0  0  0  0  0  0  0
   -6.2710   -0.4940   -2.5440 C   0  0  0  0  0  0  0  0  0  0  0  0
   -7.4990   -0.2820   -1.9170 C   0  0  0  0  0  0  0  0  0  0  0  0
   -8.7900   -0.2910   -2.6100 C   0  0  0  0  0  0  0  0  0  0  0  0
   -8.7500    0.8310   -3.5960 N   0  0  0  0  0  0  0  0  0  0  0  0
   -7.4810   -0.2380   -0.5450 C   0  0  0  0  0  0  0  0  0  0  0  0
   -8.7030    0.0950    0.2760 C   0  0  0  0  0  0  0  0  0  0  0  0
   -6.2890   -0.3900    0.1690 C   0  0  0  0  0  0  0  0  0  0  0  0
   -2.6230   -0.5110   -0.2850 C   0  0  0  0  0  0  0  0  0  0  0  0
   -0.5440    1.6520   -1.6470 N   0  0  0  0  0  0  0  0  0  0  0  0
    0.1250    2.9180   -1.6990 C   0  0  0  0  0  0  0  0  0  0  0  0
    0.0190    3.8500   -2.5230 O   0  0  0  0  0  0  0  0  0  0  0  0
    1.0230    2.9660   -0.5740 N   0  0  0  0  0  0  0  0  0  0  0  0
    0.8580    1.7450    0.1140 C   0  0  0  0  0  0  0  0  0  0  0  0
    1.0070    1.4300    1.2820 O   0  0  0  0  0  0  0  0  0  0  0  0
  1  2  1  0
  2  3  1  0
  3  4  2  3
  3 15  1  0
  4  5  1  0
  5  6  2  0
  5  9  1  0
  6  7  1  0
  7  8  1  0
  8  9  1  0
  9 10  1  6
 10 11  2  3
 11 12  1  0
 12 13  1  0
 13 14  1  0
 15 16  2  0
 15 17  1  0
 17 18  1  0
 19 18  1  6
 19 20  1  0
 19 41  1  0
 19 45  1  0
 20 21  1  0
 21 22  2  0
 21 40  1  0
 22 23  1  0
 23 24  2  0
 24 25  1  0
 24 30  1  0
 25 26  2  3
 26 27  1  0
 27 28  1  0
 28 29  1  0
 30 31  1  0
 30 40  2  0
 31 32  2  0
 31 39  1  0
 32 33  1  0
 33 34  2  0
 34 35  1  0
 34 37  1  0
 35 36  1  0
 37 38  1  0
 37 39  2  0
 41 42  1  0
 42 43  2  0
 42 44  1  0
 44 45  1  0
 45 46  2  0
M  END
