
     RDKit          3D

 46 49  0  0  0  0  0  0  0  0999 V2000
    7.8930    4.9790    0.0840 C   0  0  0  0  0  0  0  0  0  0  0  0
    8.1530    3.8520    0.6800 O   0  0  0  0  0  0  0  0  0  0  0  0
    8.4560    2.7970    1.3530 C   0  0  0  0  0  0  0  0  0  0  0  0
    9.1150    2.9800    2.6200 C   0  0  0  0  0  0  0  0  0  0  0  0
    9.4820    1.9550    3.4090 C   0  0  0  0  0  0  0  0  0  0  0  0
   10.1590    2.2100    4.7340 C   0  0  0  0  0  0  0  0  0  0  0  0
    9.2400    0.6490    3.0280 C   0  0  0  0  0  0  0  0  0  0  0  0
    9.6810   -0.4370    3.9290 C   0  0  0  0  0  0  0  0  0  0  0  0
    8.6210    0.4490    1.8440 C   0  0  0  0  0  0  0  0  0  0  0  0
    8.2150    1.4880    0.9840 C   0  0  0  0  0  0  0  0  0  0  0  0
    7.5290    1.1000   -0.2220 C   0  0  0  0  0  0  0  0  0  0  0  0
    7.3900   -0.1610   -0.4730 O   0  0  0  0  0  0  0  0  0  0  0  0
    6.9630    1.9140   -1.2180 N   0  0  0  0  0  0  0  0  0  0  0  0
    6.2970    1.3920   -2.3960 C   0  0  0  0  0  0  0  0  0  0  0  0
    4.9700    0.8850   -1.9800 C   0  0  0  0  0  0  0  0  0  0  0  0
    4.6720   -0.4890   -2.0170 C   0  0  0  0  0  0  0  0  0  0  0  0
    3.4180   -0.8740   -1.6240 C   0  0  0  0  0  0  0  0  0  0  0  0
    2.4110   -0.0290   -1.1950 C   0  0  0  0  0  0  0  0  0  0  0  0
    1.0690   -0.5500   -0.7960 C   0  0  0  0  0  0  0  0  0  0  0  0
    0.2520   -0.6610   -2.0860 C   0  0  0  0  0  0  0  0  0  0  0  0
   -1.0750   -1.2150   -1.7810 C   0  0  1  0  0  0  0  0  0  0  0  0
   -1.8660   -0.4670   -0.9160 O   0  0  0  0  0  0  0  0  0  0  0  0
   -3.1740   -0.8830   -1.1150 C   0  0  2  0  0  0  0  0  0  0  0  0
   -3.9130   -1.3720    0.0890 C   0  0  0  0  0  0  0  0  0  0  0  0
   -4.1460   -0.3670    1.1470 C   0  0  2  0  0  0  0  0  0  0  0  0
   -4.8690   -0.7410    2.3650 C   0  0  0  0  0  0  0  0  0  0  0  0
   -4.3870   -1.7830    3.2790 C   0  0  2  0  0  0  0  0  0  0  0  0
   -4.2800   -3.1450    2.6580 C   0  0  0  0  0  0  0  0  0  0  0  0
   -5.4080   -1.8970    4.4260 C   0  0  0  0  0  0  0  0  0  0  0  0
   -4.9660    0.8030    0.5620 C   0  0  0  0  0  0  0  0  0  0  0  0
   -4.8920    1.9500    1.0380 O   0  0  0  0  0  0  0  0  0  0  0  0
   -5.8250    0.5330   -0.5410 N   0  0  0  0  0  0  0  0  0  0  0  0
   -6.6700    1.5160   -1.1750 C   0  0  0  0  0  0  0  0  0  0  0  0
   -7.3560    0.8450   -2.3590 C   0  0  0  0  0  0  0  0  0  0  0  0
   -8.0450   -0.3590   -1.8690 C   0  0  0  0  0  0  0  0  0  0  0  0
   -7.5830   -1.6520   -2.0650 C   0  0  0  0  0  0  0  0  0  0  0  0
   -8.4470   -2.4900   -1.4880 N   0  0  0  0  0  0  0  0  0  0  0  0
   -9.4440   -1.8100   -0.9280 N   0  0  0  0  0  0  0  0  0  0  0  0
   -9.2040   -0.4900   -1.1590 C   0  0  0  0  0  0  0  0  0  0  0  0
  -10.0760    0.6220   -0.7090 C   0  0  0  0  0  0  0  0  0  0  0  0
   -3.2420   -1.7810   -2.3140 C   0  0  0  0  0  0  0  0  0  0  0  0
   -1.9670   -1.2750   -3.0360 C   0  0  2  0  0  0  0  0  0  0  0  0
   -1.4780   -2.2260   -4.0660 C   0  0  0  0  0  0  0  0  0  0  0  0
   -2.1300    0.0280   -3.4740 O   0  0  0  0  0  0  0  0  0  0  0  0
    2.7440    1.3210   -1.1750 C   0  0  0  0  0  0  0  0  0  0  0  0
    3.9960    1.7400   -1.5610 C   0  0  0  0  0  0  0  0  0  0  0  0
  1  2  1  0
  2  3  1  0
  3  4  2  0
  3 10  1  0
  4  5  1  0
  5  6  1  0
  5  7  2  0
  7  8  1  0
  7  9  1  0
  9 10  2  0
 10 11  1  0
 11 12  2  0
 11 13  1  0
 13 14  1  0
 14 15  1  0
 15 16  2  0
 15 46  1  0
 16 17  1  0
 17 18  2  0
 18 19  1  0
 18 45  1  0
 19 20  1  0
 21 20  1  6
 21 22  1  0
 21 42  1  0
 22 23  1  0
 23 24  1  1
 23 41  1  0
 25 24  1  6
 25 26  1  0
 25 30  1  0
 26 27  1  0
 27 28  1  6
 27 29  1  0
 30 31  2  0
 30 32  1  0
 32 33  1  0
 33 34  1  0
 34 35  1  0
 35 36  1  0
 35 39  2  0
 36 37  2  0
 37 38  1  0
 38 39  1  0
 39 40  1  0
 41 42  1  0
 42 43  1  6
 42 44  1  0
 45 46  2  0
M  END
