
     RDKit          3D

 33 36  0  0  0  0  0  0  0  0999 V2000
   -3.6090    2.7980    1.5290 C   0  0  0  0  0  0  0  0  0  0  0  0
   -4.8000    2.0790    1.1730 N   0  0  0  0  0  0  0  0  0  0  0  0
   -4.7850    0.8520    0.4480 C   0  0  0  0  0  0  0  0  0  0  0  0
   -3.6470    0.2690    0.0370 N   0  0  0  0  0  0  0  0  0  0  0  0
   -3.5780   -0.8820   -0.6470 C   0  0  0  0  0  0  0  0  0  0  0  0
   -2.3590   -1.4730   -1.0660 N   0  0  0  0  0  0  0  0  0  0  0  0
   -1.0870   -0.8840   -0.7920 C   0  0  0  0  0  0  0  0  0  0  0  0
   -0.9100    0.4150   -0.8690 C   0  0  0  0  0  0  0  0  0  0  0  0
    0.4080    0.9650   -0.5790 C   0  0  0  0  0  0  0  0  0  0  0  0
    0.5090    2.2070   -0.6720 O   0  0  0  0  0  0  0  0  0  0  0  0
    1.5650    0.1260   -0.1980 C   0  0  0  0  0  0  0  0  0  0  0  0
    2.7370    0.6610    0.0650 C   0  0  0  0  0  0  0  0  0  0  0  0
    2.8390    2.1740   -0.0400 C   0  0  0  0  0  0  0  0  0  0  0  0
    3.9510    0.0650    0.4290 N   0  0  0  0  0  0  0  0  0  0  0  0
    4.3720    0.2410    1.8310 C   0  0  0  0  0  0  0  0  0  0  0  0
    5.8610    0.1230    1.8650 C   0  0  0  0  0  0  0  0  0  0  0  0
    6.3850    0.7970    0.7620 O   0  0  0  0  0  0  0  0  0  0  0  0
    6.2410    0.0420   -0.4010 C   0  0  2  0  0  0  0  0  0  0  0  0
    6.4470    0.8670   -1.6400 C   0  0  1  0  0  0  0  0  0  0  0  0
    6.2970    0.0840   -2.7920 F   0  0  0  0  0  0  0  0  0  0  0  0
    5.5480    1.8930   -1.7450 F   0  0  0  0  0  0  0  0  0  0  0  0
    7.7440    1.3630   -1.7140 F   0  0  0  0  0  0  0  0  0  0  0  0
    4.8810   -0.6400   -0.4200 C   0  0  0  0  0  0  0  0  0  0  0  0
    1.2660   -1.2940   -0.1400 C   0  0  0  0  0  0  0  0  0  0  0  0
    2.3140   -2.3100    0.2380 C   0  0  0  0  0  0  0  0  0  0  0  0
    0.0320   -1.7330   -0.4190 C   0  0  0  0  0  0  0  0  0  0  0  0
   -4.7460   -1.4820   -0.9340 N   0  0  0  0  0  0  0  0  0  0  0  0
   -5.9420   -0.9820   -0.5690 C   0  0  0  0  0  0  0  0  0  0  0  0
   -5.9610    0.2090    0.1350 C   0  0  0  0  0  0  0  0  0  0  0  0
   -7.2840    0.5250    0.3980 C   0  0  0  0  0  0  0  0  0  0  0  0
   -8.0300   -0.4670   -0.1450 N   0  0  0  0  0  0  0  0  0  0  0  0
   -7.2280   -1.3520   -0.7140 N   0  0  0  0  0  0  0  0  0  0  0  0
   -7.6790   -2.5500   -1.3960 C   0  0  0  0  0  0  0  0  0  0  0  0
  1  2  1  0
  2  3  1  0
  3  4  2  0
  3 29  1  0
  4  5  1  0
  5  6  1  0
  5 27  2  0
  6  7  1  0
  7  8  2  0
  7 26  1  0
  8  9  1  0
  9 10  2  0
  9 11  1  0
 11 12  2  3
 11 24  1  0
 12 13  1  0
 12 14  1  0
 14 15  1  0
 14 23  1  0
 15 16  1  0
 16 17  1  0
 17 18  1  0
 18 19  1  0
 18 23  1  6
 19 20  1  6
 19 21  1  0
 19 22  1  0
 24 25  1  0
 24 26  2  0
 27 28  1  0
 28 29  2  0
 28 32  1  0
 29 30  1  0
 30 31  2  0
 31 32  1  0
 32 33  1  0
M  END
