
     RDKit          3D

 34 36  0  0  0  0  0  0  0  0999 V2000
    7.4260   -0.4870   -1.5090 C   0  0  0  0  0  0  0  0  0  0  0  0
    7.4000    0.3630   -0.2600 C   0  0  2  0  0  0  0  0  0  0  0  0
    7.0140   -0.3960    0.9360 C   0  0  0  0  0  0  0  0  0  0  0  0
    5.9850    0.1640    1.4450 N   0  0  0  0  0  0  0  0  0  0  0  0
    5.5920    1.2970    0.6850 C   0  0  0  0  0  0  0  0  0  0  0  0
    4.4740    2.1730    0.9590 N   0  0  0  0  0  0  0  0  0  0  0  0
    4.5250    3.4200    1.3910 N   0  0  0  0  0  0  0  0  0  0  0  0
    3.3070    3.9530    1.5430 C   0  0  0  0  0  0  0  0  0  0  0  0
    2.3990    2.9700    1.1800 C   0  0  0  0  0  0  0  0  0  0  0  0
    1.0260    2.9070    1.1220 C   0  0  0  0  0  0  0  0  0  0  0  0
    0.4510    1.7530    0.7080 N   0  0  0  0  0  0  0  0  0  0  0  0
    1.1880    0.6890    0.3600 C   0  0  0  0  0  0  0  0  0  0  0  0
    0.5710   -0.5980   -0.1020 C   0  0  2  0  0  0  0  0  0  0  0  0
   -0.1970   -0.3910   -1.3690 C   0  0  0  0  0  0  0  0  0  0  0  0
   -0.2110   -1.1430    1.0480 C   0  0  0  0  0  0  0  0  0  0  0  0
   -0.9050   -2.4320    0.8300 C   0  0  0  0  0  0  0  0  0  0  0  0
   -1.8820   -2.3560   -0.2090 N   0  0  0  0  0  0  0  0  0  0  0  0
   -2.9980   -1.4620   -0.1040 C   0  0  0  0  0  0  0  0  0  0  0  0
   -3.0940   -0.7660    0.9100 O   0  0  0  0  0  0  0  0  0  0  0  0
   -3.9680   -1.3710   -1.1230 N   0  0  0  0  0  0  0  0  0  0  0  0
   -5.1340   -0.5650   -1.1580 C   0  0  0  0  0  0  0  0  0  0  0  0
   -6.2140   -0.8010   -0.1750 C   0  0  1  0  0  0  0  0  0  0  0  0
   -6.6940   -2.2550   -0.3360 C   0  0  0  0  0  0  0  0  0  0  0  0
   -5.9140   -0.5100    1.2360 C   0  0  0  0  0  0  0  0  0  0  0  0
   -7.4690    0.0350   -0.5720 C   0  0  2  0  0  0  0  0  0  0  0  0
   -7.1460    1.3670   -0.5850 F   0  0  0  0  0  0  0  0  0  0  0  0
   -8.3810   -0.1770    0.4320 F   0  0  0  0  0  0  0  0  0  0  0  0
   -7.9360   -0.3590   -1.7880 F   0  0  0  0  0  0  0  0  0  0  0  0
    2.5220    0.7680    0.4220 N   0  0  0  0  0  0  0  0  0  0  0  0
    3.1710    1.8780    0.8230 C   0  0  0  0  0  0  0  0  0  0  0  0
    6.4080    1.4510   -0.3380 C   0  0  0  0  0  0  0  0  0  0  0  0
    6.3170    2.5180   -1.3470 C   0  0  0  0  0  0  0  0  0  0  0  0
    5.4000    3.3550   -1.2440 O   0  0  0  0  0  0  0  0  0  0  0  0
    7.1800    2.6280   -2.3760 F   0  0  0  0  0  0  0  0  0  0  0  0
  2  1  1  6
  2  3  1  0
  2 31  1  0
  3  4  2  0
  4  5  1  0
  5  6  1  0
  5 31  2  0
  6  7  1  0
  6 30  1  0
  7  8  2  0
  8  9  1  0
  9 10  2  0
  9 30  1  0
 10 11  1  0
 11 12  2  0
 12 13  1  0
 12 29  1  0
 13 14  1  6
 13 15  1  0
 15 16  1  0
 16 17  1  0
 17 18  1  0
 18 19  2  0
 18 20  1  0
 20 21  1  0
 21 22  1  0
 22 23  1  1
 22 24  1  0
 22 25  1  0
 25 26  1  6
 25 27  1  0
 25 28  1  0
 29 30  2  0
 31 32  1  0
 32 33  2  0
 32 34  1  0
M  END
