
     RDKit          3D

 34 38  0  0  0  0  0  0  0  0999 V2000
   -4.0060    2.2190    1.8630 C   0  0  0  0  0  0  0  0  0  0  0  0
   -4.2740    1.3430    0.6980 C   0  0  0  0  0  0  0  0  0  0  0  0
   -4.5460    1.9280   -0.5360 C   0  0  0  0  0  0  0  0  0  0  0  0
   -4.8020    1.1310   -1.6580 C   0  0  0  0  0  0  0  0  0  0  0  0
   -5.0800    1.7870   -2.9330 C   0  0  0  0  0  0  0  0  0  0  0  0
   -4.7920   -0.2160   -1.5660 C   0  0  0  0  0  0  0  0  0  0  0  0
   -4.5240   -0.8070   -0.3490 C   0  0  0  0  0  0  0  0  0  0  0  0
   -4.2630   -0.0280    0.7910 C   0  0  0  0  0  0  0  0  0  0  0  0
   -4.5420   -2.2190   -0.2590 N   0  0  0  0  0  0  0  0  0  0  0  0
   -3.5770   -2.8910    0.4930 C   0  0  0  0  0  0  0  0  0  0  0  0
   -3.9140   -4.0790    0.8710 O   0  0  0  0  0  0  0  0  0  0  0  0
   -2.2710   -2.4280    0.8920 C   0  0  0  0  0  0  0  0  0  0  0  0
   -1.6290   -1.3360    0.3710 C   0  0  0  0  0  0  0  0  0  0  0  0
   -0.3910   -0.9370    0.8650 C   0  0  0  0  0  0  0  0  0  0  0  0
    0.2620   -1.5810    1.8720 C   0  0  0  0  0  0  0  0  0  0  0  0
    1.5130   -1.2430    2.4270 N   0  0  0  0  0  0  0  0  0  0  0  0
    2.3540   -0.1740    2.0640 C   0  0  0  0  0  0  0  0  0  0  0  0
    2.0130    0.6030    1.1530 O   0  0  0  0  0  0  0  0  0  0  0  0
    3.6520    0.0690    2.7320 C   0  0  0  0  0  0  0  0  0  0  0  0
    4.3410    1.2560    2.1600 C   0  0  0  0  0  0  0  0  0  0  0  0
    4.2370    2.5400    2.5710 N   0  0  0  0  0  0  0  0  0  0  0  0
    5.0000    3.3170    1.8170 N   0  0  0  0  0  0  0  0  0  0  0  0
    5.6210    2.5630    0.8940 C   0  0  0  0  0  0  0  0  0  0  0  0
    5.2000    1.3030    1.1270 N   0  0  0  0  0  0  0  0  0  0  0  0
    5.6010    0.1270    0.3810 C   0  0  0  0  0  0  0  0  0  0  0  0
    7.1140    0.1420    0.3340 C   0  0  0  0  0  0  0  0  0  0  0  0
    7.5500    0.8660   -0.8870 C   0  0  0  0  0  0  0  0  0  0  0  0
    6.7660    2.0790   -1.2520 C   0  0  0  0  0  0  0  0  0  0  0  0
    6.5760    3.0700   -0.1540 C   0  0  0  0  0  0  0  0  0  0  0  0
   -0.3860   -2.6990    2.4080 C   0  0  0  0  0  0  0  0  0  0  0  0
   -1.6100   -3.1110    1.9370 C   0  0  0  0  0  0  0  0  0  0  0  0
   -5.5760   -2.9340   -1.0150 C   0  0  0  0  0  0  0  0  0  0  0  0
   -6.0120   -2.2070   -2.2320 C   0  0  0  0  0  0  0  0  0  0  0  0
   -5.0720   -1.1050   -2.7030 C   0  0  0  0  0  0  0  0  0  0  0  0
  1  2  1  0
  2  3  2  0
  2  8  1  0
  3  4  1  0
  4  5  1  0
  4  6  2  0
  6  7  1  0
  6 34  1  0
  7  8  2  0
  7  9  1  0
  9 10  1  0
  9 32  1  0
 10 11  2  0
 10 12  1  0
 12 13  2  0
 12 31  1  0
 13 14  1  0
 14 15  2  0
 15 16  1  0
 15 30  1  0
 16 17  1  0
 17 18  2  0
 17 19  1  0
 19 20  1  0
 20 21  2  0
 20 24  1  0
 21 22  1  0
 22 23  2  0
 23 24  1  0
 23 29  1  0
 24 25  1  0
 25 26  1  0
 26 27  1  0
 27 28  1  0
 28 29  1  0
 30 31  2  0
 32 33  1  0
 33 34  1  0
M  END
