
     RDKit          3D

 32 33  0  0  0  0  0  0  0  0999 V2000
   -5.9790   -3.0470   -0.0380 C   0  0  0  0  0  0  0  0  0  0  0  0
   -4.9580   -1.8920   -0.2090 C   0  0  2  0  0  0  0  0  0  0  0  0
   -4.5050   -2.0680   -1.5190 O   0  0  0  0  0  0  0  0  0  0  0  0
   -3.9140   -1.9840    0.8360 C   0  0  0  0  0  0  0  0  0  0  0  0
   -2.8510   -0.9660    0.8920 C   0  0  0  0  0  0  0  0  0  0  0  0
   -1.9410   -0.8600   -0.3260 C   0  0  2  0  0  0  0  0  0  0  0  0
   -2.6150   -0.5330   -1.4940 O   0  0  0  0  0  0  0  0  0  0  0  0
   -1.3360   -2.1610   -0.4210 N   0  0  0  0  0  0  0  0  0  0  0  0
    0.0490   -2.0240   -0.1960 C   0  0  0  0  0  0  0  0  0  0  0  0
    0.8600   -3.0150   -0.1970 O   0  0  0  0  0  0  0  0  0  0  0  0
    0.3430   -0.6350    0.0190 C   0  0  0  0  0  0  0  0  0  0  0  0
    1.6200   -0.0530    0.2630 N   0  0  0  0  0  0  0  0  0  0  0  0
    2.8450   -0.7200    0.3530 C   0  0  0  0  0  0  0  0  0  0  0  0
    2.9080   -1.9300    0.2200 O   0  0  0  0  0  0  0  0  0  0  0  0
    4.0800   -0.0250    0.6030 N   0  0  0  0  0  0  0  0  0  0  0  0
    5.3520   -0.6970    0.6950 C   0  0  0  0  0  0  0  0  0  0  0  0
    5.7250   -1.4540   -0.5660 C   0  0  2  0  0  0  0  0  0  0  0  0
    7.0300   -2.0420   -0.2880 N   0  0  0  0  0  0  0  0  0  0  0  0
    7.9960   -0.9820   -0.4330 C   0  0  0  0  0  0  0  0  0  0  0  0
    9.4710   -0.8920    0.2430 S   0  0  0  0  0  0  0  0  0  0  0  0
    7.3600   -0.0240   -1.3050 N   0  0  0  0  0  0  0  0  0  0  0  0
    6.0790   -0.4900   -1.6630 C   0  0  0  0  0  0  0  0  0  0  0  0
    5.4060   -0.1820   -2.6430 O   0  0  0  0  0  0  0  0  0  0  0  0
   -0.8150    0.0620   -0.0600 C   0  0  0  0  0  0  0  0  0  0  0  0
   -0.7940    1.4820    0.1580 C   0  0  0  0  0  0  0  0  0  0  0  0
    0.0060    2.2760    0.4650 O   0  0  0  0  0  0  0  0  0  0  0  0
   -2.3500    2.2000   -0.1110 N   0  0  0  0  0  0  0  0  0  0  0  0
   -2.0000    3.5050    0.2790 C   0  0  0  0  0  0  0  0  0  0  0  0
   -1.0180    4.0160    0.7150 O   0  0  0  0  0  0  0  0  0  0  0  0
   -3.1970    4.3870    0.0580 N   0  0  0  0  0  0  0  0  0  0  0  0
   -3.1790    5.7280    0.3450 C   0  0  0  0  0  0  0  0  0  0  0  0
   -2.1780    6.3570    0.8200 N   0  0  0  0  0  0  0  0  0  0  0  0
  2  1  1  1
  2  3  1  0
  2  4  1  0
  4  5  1  0
  5  6  1  0
  6  7  1  6
  6  8  1  0
  6 24  1  0
  8  9  1  0
  9 10  2  0
  9 11  1  0
 11 12  1  0
 11 24  2  0
 12 13  1  0
 13 14  2  0
 13 15  1  0
 15 16  1  0
 17 16  1  1
 17 18  1  0
 17 22  1  0
 18 19  1  0
 19 20  2  0
 19 21  1  0
 21 22  1  0
 22 23  2  0
 24 25  1  0
 25 26  2  0
 25 27  1  0
 27 28  1  0
 28 29  2  0
 28 30  1  0
 30 31  1  0
 31 32  2  0
M  CHG  1  32   1
M  END
