
     RDKit          3D

 32 33  0  0  0  0  0  0  0  0999 V2000
    1.1260    2.3730   -0.4000 N   0  0  0  0  0  0  0  0  0  0  0  0
   -0.2610    2.5520   -0.1490 C   0  0  0  0  0  0  0  0  0  0  0  0
   -0.9530    4.1140   -0.2590 S   0  0  0  0  0  0  0  0  0  0  0  0
   -2.6200    4.0860    0.0850 C   0  0  0  0  0  0  0  0  0  0  0  0
   -3.3710    5.1120    0.0730 O   0  0  0  0  0  0  0  0  0  0  0  0
   -3.0990    2.8680    0.3790 N   0  0  0  0  0  0  0  0  0  0  0  0
   -4.5530    2.8620    0.6790 C   0  0  0  0  0  0  0  0  0  0  0  0
   -5.2360    2.6450   -0.5700 N   0  0  0  0  0  0  0  0  0  0  0  0
   -2.4360    1.7270    0.4280 C   0  0  0  0  0  0  0  0  0  0  0  0
   -3.1360    0.7020    0.7410 O   0  0  0  0  0  0  0  0  0  0  0  0
   -1.1060    1.4770    0.1950 C   0  0  0  0  0  0  0  0  0  0  0  0
   -0.4440    0.1840    0.2980 C   0  0  1  0  0  0  0  0  0  0  0  0
   -1.2800   -1.0500    0.2590 C   0  0  0  0  0  0  0  0  0  0  0  0
   -2.0030   -1.2230   -0.9650 N   0  0  0  0  0  0  0  0  0  0  0  0
   -3.1600   -2.0890   -0.8580 C   0  0  0  0  0  0  0  0  0  0  0  0
   -2.7910   -3.5060   -0.4770 C   0  0  1  0  0  0  0  0  0  0  0  0
   -2.1330   -3.5630    0.7560 O   0  0  0  0  0  0  0  0  0  0  0  0
   -4.1150   -4.2440   -0.2550 C   0  0  0  0  0  0  0  0  0  0  0  0
   -4.8890   -4.2730   -1.4030 O   0  0  0  0  0  0  0  0  0  0  0  0
    0.4900    0.0290   -0.8280 N   0  0  0  0  0  0  0  0  0  0  0  0
    1.8070   -0.4040   -0.6970 C   0  0  0  0  0  0  0  0  0  0  0  0
    2.2660   -0.6910    0.4280 O   0  0  0  0  0  0  0  0  0  0  0  0
    2.6740   -0.5270   -1.8870 C   0  0  0  0  0  0  0  0  0  0  0  0
    3.9560   -0.9910   -1.5850 O   0  0  0  0  0  0  0  0  0  0  0  0
    4.8030   -0.3100   -0.7200 C   0  0  0  0  0  0  0  0  0  0  0  0
    4.3710    0.7500   -0.2140 O   0  0  0  0  0  0  0  0  0  0  0  0
    6.1020   -0.7580   -0.3980 N   0  0  0  0  0  0  0  0  0  0  0  0
    6.9860   -0.0880    0.4850 C   0  0  0  0  0  0  0  0  0  0  0  0
    6.7990    1.0650    1.1800 C   0  0  0  0  0  0  0  0  0  0  0  0
    7.9430    1.3470    1.9240 C   0  0  0  0  0  0  0  0  0  0  0  0
    8.7950    0.3290    1.6430 N   0  0  0  0  0  0  0  0  0  0  0  0
    8.2240   -0.5090    0.7960 N   0  0  0  0  0  0  0  0  0  0  0  0
  1  2  1  0
  2  3  1  0
  2 11  2  0
  3  4  1  0
  4  5  2  0
  4  6  1  0
  6  7  1  0
  6  9  1  0
  7  8  1  0
  9 10  2  0
  9 11  1  0
 11 12  1  0
 12 13  1  6
 12 20  1  0
 13 14  1  0
 14 15  1  0
 15 16  1  0
 16 17  1  1
 16 18  1  0
 18 19  1  0
 20 21  1  0
 21 22  2  0
 21 23  1  0
 23 24  1  0
 24 25  1  0
 25 26  2  0
 25 27  1  0
 27 28  1  0
 28 29  1  0
 28 32  2  0
 29 30  2  0
 30 31  1  0
 31 32  1  0
M  CHG  2   8   1  14   1
M  END
