
     RDKit          3D

 21 22  0  0  0  0  0  0  0  0999 V2000
    2.6880    0.5620    0.7950 O   0  0  0  0  0  0  0  0  0  0  0  0
    2.3730    0.1860   -0.3630 C   0  0  0  0  0  0  0  0  0  0  0  0
    3.3980    0.1920   -1.3490 N   0  0  0  0  0  0  0  0  0  0  0  0
    4.7190    0.6120   -1.0160 C   0  0  0  0  0  0  0  0  0  0  0  0
    5.3850   -0.2070    0.0600 C   0  0  0  0  0  0  0  0  0  0  0  0
    6.6680    0.3610    0.2420 O   0  0  0  0  0  0  0  0  0  0  0  0
    7.3250   -0.3000    1.1730 O   0  0  0  0  0  0  0  0  0  0  0  0
    1.0670   -0.2220   -0.6640 O   0  0  0  0  0  0  0  0  0  0  0  0
    0.1060   -0.2010    0.3690 C   0  0  0  0  0  0  0  0  0  0  0  0
   -1.2180   -0.6890   -0.2290 C   0  0  1  0  0  0  0  0  0  0  0  0
   -2.1660   -0.6760    0.7610 O   0  0  0  0  0  0  0  0  0  0  0  0
   -3.3580   -0.0860    0.4210 C   0  0  2  0  0  0  0  0  0  0  0  0
   -3.1560    1.3390   -0.1050 C   0  0  0  0  0  0  0  0  0  0  0  0
   -2.4040    1.1910   -1.3470 N   0  0  0  0  0  0  0  0  0  0  0  0
   -1.5800    0.0360   -1.4480 C   0  0  0  0  0  0  0  0  0  0  0  0
   -1.1910   -0.3220   -2.5840 O   0  0  0  0  0  0  0  0  0  0  0  0
   -4.2510   -0.0620    1.6450 C   0  0  0  0  0  0  0  0  0  0  0  0
   -4.7300   -1.3170    1.9350 O   0  0  0  0  0  0  0  0  0  0  0  0
   -5.0100   -2.0350    0.8910 O   0  0  0  0  0  0  0  0  0  0  0  0
   -5.3080   -1.2540   -0.1490 O   0  0  0  0  0  0  0  0  0  0  0  0
   -4.0830   -0.8450   -0.6760 C   0  0  0  0  0  0  0  0  0  0  0  0
  1  2  2  0
  2  3  1  0
  2  8  1  0
  3  4  1  0
  4  5  1  0
  5  6  1  0
  6  7  1  0
  8  9  1  0
 10  9  1  1
 10 11  1  0
 10 15  1  0
 11 12  1  0
 12 13  1  6
 12 17  1  0
 12 21  1  0
 13 14  1  0
 14 15  1  0
 15 16  2  0
 17 18  1  0
 18 19  1  0
 19 20  1  0
 20 21  1  0
M  END
