
     RDKit          3D

 23 22  0  0  0  0  0  0  0  0999 V2000
   -8.8350    0.1980   -0.9180 C   0  0  0  0  0  0  0  0  0  0  0  0
   -7.7990    0.3910   -0.1460 C   0  0  0  0  0  0  0  0  0  0  0  0
   -6.4340    0.0750   -0.5360 C   0  0  0  0  0  0  0  0  0  0  0  0
   -5.4040    0.2790    0.2610 C   0  0  0  0  0  0  0  0  0  0  0  0
   -4.0410   -0.0400   -0.1340 C   0  0  0  0  0  0  0  0  0  0  0  0
   -3.0280    0.1730    0.6790 C   0  0  0  0  0  0  0  0  0  0  0  0
   -1.6930   -0.1520    0.2580 C   0  0  0  0  0  0  0  0  0  0  0  0
   -0.6800    0.0700    1.0940 C   0  0  0  0  0  0  0  0  0  0  0  0
    0.6800   -0.2520    0.6910 C   0  0  0  0  0  0  0  0  0  0  0  0
    1.7080   -0.0430    1.4980 C   0  0  0  0  0  0  0  0  0  0  0  0
    3.0120   -0.3380    1.1430 O   0  0  0  0  0  0  0  0  0  0  0  0
    4.0590    0.6320    1.3020 C   0  0  0  0  0  0  0  0  0  0  0  0
    5.3760    0.0170    0.8270 C   0  0  0  0  0  0  0  0  0  0  0  0
    5.3140   -0.3870   -0.6070 C   0  0  2  0  0  0  0  0  0  0  0  0
    4.2760   -1.3400   -0.7270 O   0  0  0  0  0  0  0  0  0  0  0  0
    6.5720   -1.1210   -0.9290 C   0  0  0  0  0  0  0  0  0  0  0  0
    6.6870   -2.3620   -0.4960 C   0  0  0  0  0  0  0  0  0  0  0  0
    5.0310    0.6240   -1.4810 O   0  0  0  0  0  0  0  0  0  0  0  0
    5.9270    1.6550   -1.5140 C   0  0  0  0  0  0  0  0  0  0  0  0
   -0.8820    0.6070    2.3580 O   0  0  0  0  0  0  0  0  0  0  0  0
   -0.8450    1.9950    2.6040 C   0  0  0  0  0  0  0  0  0  0  0  0
   -6.2400   -0.4620   -1.8020 O   0  0  0  0  0  0  0  0  0  0  0  0
   -6.2410   -1.8490   -2.0530 C   0  0  0  0  0  0  0  0  0  0  0  0
  1  2  2  0
  2  3  1  0
  3  4  2  3
  3 22  1  0
  4  5  1  0
  5  6  2  3
  6  7  1  0
  7  8  2  3
  8  9  1  0
  8 20  1  0
  9 10  2  3
 10 11  1  0
 11 12  1  0
 12 13  1  0
 13 14  1  0
 14 15  1  1
 14 16  1  0
 14 18  1  0
 16 17  2  0
 18 19  1  0
 20 21  1  0
 22 23  1  0
M  END
