
     RDKit          3D

 23 22  0  0  0  0  0  0  0  0999 V2000
   -4.9930   -2.4050    2.5580 C   0  0  0  0  0  0  0  0  0  0  0  0
   -3.7790   -2.2990    2.0120 C   0  0  0  0  0  0  0  0  0  0  0  0
   -3.2380   -1.0500    1.7620 O   0  0  0  0  0  0  0  0  0  0  0  0
   -3.1460   -0.4770    0.5190 C   0  0  0  0  0  0  0  0  0  0  0  0
   -2.1330    0.2600    0.1090 C   0  0  0  0  0  0  0  0  0  0  0  0
   -2.2560    0.7710   -1.2800 C   0  0  0  0  0  0  0  0  0  0  0  0
   -1.4020    1.4880   -1.8300 O   0  0  0  0  0  0  0  0  0  0  0  0
   -3.3790    0.4370   -2.0150 O   0  0  0  0  0  0  0  0  0  0  0  0
   -0.9330    0.6010    0.9130 C   0  0  2  0  0  0  0  0  0  0  0  0
   -1.1030    0.0780    2.3140 C   0  0  0  0  0  0  0  0  0  0  0  0
   -1.0200    2.1380    1.0640 C   0  0  0  0  0  0  0  0  0  0  0  0
    0.3790    0.2280    0.3160 C   0  0  2  0  0  0  0  0  0  0  0  0
    0.6070   -1.2050    0.0220 C   0  0  0  0  0  0  0  0  0  0  0  0
    1.5400   -1.7560    0.6400 O   0  0  0  0  0  0  0  0  0  0  0  0
   -0.1850   -2.0180   -0.9460 C   0  0  0  0  0  0  0  0  0  0  0  0
    0.4280   -3.4160   -1.0630 C   0  0  0  0  0  0  0  0  0  0  0  0
    1.5390    0.8260    1.0040 C   0  0  0  0  0  0  0  0  0  0  0  0
    2.0390    0.2590    2.3180 C   0  0  0  0  0  0  0  0  0  0  0  0
    2.2280    1.8460    0.5630 C   0  0  0  0  0  0  0  0  0  0  0  0
    1.9840    2.5830   -0.6800 C   0  0  0  0  0  0  0  0  0  0  0  0
    3.1050    2.5230   -1.5410 O   0  0  0  0  0  0  0  0  0  0  0  0
    3.3590    1.1780   -1.8490 C   0  0  0  0  0  0  0  0  0  0  0  0
    4.5360    1.0650   -2.7600 C   0  0  0  0  0  0  0  0  0  0  0  0
  1  2  2  0
  2  3  1  0
  3  4  1  0
  4  5  2  3
  5  6  1  0
  5  9  1  0
  6  7  2  0
  6  8  1  0
  9 10  1  1
  9 11  1  0
  9 12  1  0
 12 13  1  1
 12 17  1  0
 13 14  2  0
 13 15  1  0
 15 16  1  0
 17 18  1  0
 17 19  2  3
 19 20  1  0
 20 21  1  0
 21 22  1  0
 22 23  1  0
M  END
