
     RDKit          3D

 23 22  0  0  0  0  0  0  0  0999 V2000
   -1.9420    2.2160   -0.3160 C   0  0  0  0  0  0  0  0  0  0  0  0
   -1.7790    1.0560    0.3610 C   0  0  0  0  0  0  0  0  0  0  0  0
   -0.7750    0.2430    0.2130 O   0  0  0  0  0  0  0  0  0  0  0  0
    0.3620   -0.4090    0.2310 C   0  0  2  0  0  0  0  0  0  0  0  0
    0.7400   -0.8850    1.6190 C   0  0  0  0  0  0  0  0  0  0  0  0
   -0.0280   -0.5780    2.8410 C   0  0  0  0  0  0  0  0  0  0  0  0
    1.7420   -1.5640    1.7690 O   0  0  0  0  0  0  0  0  0  0  0  0
    1.5360    0.4600   -0.1400 C   0  0  0  0  0  0  0  0  0  0  0  0
    1.2810    1.6340   -0.4560 O   0  0  0  0  0  0  0  0  0  0  0  0
    2.8270    0.0550   -0.1500 O   0  0  0  0  0  0  0  0  0  0  0  0
    3.9410    0.7650   -0.4670 C   0  0  0  0  0  0  0  0  0  0  0  0
    4.0250    2.0240   -0.8410 C   0  0  0  0  0  0  0  0  0  0  0  0
    5.2940    2.5730   -1.1260 O   0  0  0  0  0  0  0  0  0  0  0  0
    6.0040    3.1720   -0.0390 C   0  0  0  0  0  0  0  0  0  0  0  0
    0.3130   -1.6340   -0.6650 C   0  0  1  0  0  0  0  0  0  0  0  0
   -0.7620   -2.5500   -0.1330 C   0  0  0  0  0  0  0  0  0  0  0  0
   -0.2150   -1.1860   -2.0490 C   0  0  0  0  0  0  0  0  0  0  0  0
    1.5900   -2.3180   -0.9360 C   0  0  0  0  0  0  0  0  0  0  0  0
    1.3710   -3.5500   -1.8520 C   0  0  0  0  0  0  0  0  0  0  0  0
   -2.8750    0.7510    1.3260 C   0  0  2  0  0  0  0  0  0  0  0  0
   -3.4250   -0.6450    1.0770 C   0  0  0  0  0  0  0  0  0  0  0  0
   -4.0170    1.7010    1.3430 C   0  0  0  0  0  0  0  0  0  0  0  0
   -4.8080    1.8200    0.0850 C   0  0  0  0  0  0  0  0  0  0  0  0
  1  2  2  0
  2  3  1  0
  2 20  1  0
  4  3  1  1
  4  5  1  0
  4  8  1  0
  4 15  1  0
  5  6  1  0
  5  7  2  0
  8  9  2  0
  8 10  1  0
 10 11  1  0
 11 12  2  3
 12 13  1  0
 13 14  1  0
 15 16  1  1
 15 17  1  0
 15 18  1  0
 18 19  1  0
 20 21  1  6
 20 22  1  0
 22 23  1  0
M  END
