
     RDKit          3D

 21 21  0  0  0  0  0  0  0  0999 V2000
   -0.5460    0.8550   -3.5350 O   0  0  0  0  0  0  0  0  0  0  0  0
   -0.6370   -0.2800   -3.0150 C   0  0  0  0  0  0  0  0  0  0  0  0
   -0.2150   -1.3660   -3.7690 O   0  0  0  0  0  0  0  0  0  0  0  0
   -1.1620   -0.5260   -1.6570 C   0  0  0  0  0  0  0  0  0  0  0  0
   -1.5550    0.7210   -0.9450 C   0  0  2  0  0  0  0  0  0  0  0  0
   -0.5040    1.7300   -0.7110 C   0  0  0  0  0  0  0  0  0  0  0  0
    0.6360    1.3430    0.0550 N   0  0  0  0  0  0  0  0  0  0  0  0
    1.8380    0.7150   -0.4490 C   0  0  0  0  0  0  0  0  0  0  0  0
    2.5110    0.0710    0.7440 C   0  0  1  0  0  0  0  0  0  0  0  0
    3.7070    0.6990    1.0760 O   0  0  0  0  0  0  0  0  0  0  0  0
    5.0360   -0.3780    1.1730 P   0  0  0  0  0  0  0  0  0  0  0  0
    5.7230   -0.3990    2.7700 O   0  0  0  0  0  0  0  0  0  0  0  0
    4.5640   -2.0120    0.7810 O   0  0  0  0  0  0  0  0  0  0  0  0
    1.6000    0.3500    1.8190 O   0  0  0  0  0  0  0  0  0  0  0  0
    0.8360    1.4710    1.4470 C   0  0  0  0  0  0  0  0  0  0  0  0
    0.4310    2.3870    2.2280 O   0  0  0  0  0  0  0  0  0  0  0  0
   -2.3110    0.3570    0.2750 C   0  0  0  0  0  0  0  0  0  0  0  0
   -1.9130    0.6650    1.4210 O   0  0  0  0  0  0  0  0  0  0  0  0
   -3.5490   -0.3780    0.1680 N   0  0  0  0  0  0  0  0  0  0  0  0
   -4.2340   -0.7010    1.3830 C   0  0  0  0  0  0  0  0  0  0  0  0
   -4.5470    0.5110    2.0360 O   0  0  0  0  0  0  0  0  0  0  0  0
  1  2  2  0
  2  3  1  0
  2  4  1  0
  5  4  1  1
  5  6  1  0
  5 17  1  0
  6  7  1  0
  7  8  1  0
  7 15  1  0
  8  9  1  0
  9 10  1  1
  9 14  1  0
 10 11  1  0
 11 12  1  0
 11 13  1  0
 14 15  1  0
 15 16  2  0
 17 18  2  0
 17 19  1  0
 19 20  1  0
 20 21  1  0
M  END
