
     RDKit          3D

 23 22  0  0  0  0  0  0  0  0999 V2000
   -4.6440    0.4140   -7.1290 C   0  0  0  0  0  0  0  0  0  0  0  0
   -4.9020    1.3340   -6.0420 O   0  0  0  0  0  0  0  0  0  0  0  0
   -3.9490    1.3290   -5.0600 C   0  0  0  0  0  0  0  0  0  0  0  0
   -4.2410    0.6910   -3.8550 C   0  0  0  0  0  0  0  0  0  0  0  0
   -3.2380    0.7350   -2.9310 C   0  0  0  0  0  0  0  0  0  0  0  0
   -3.2310    0.2310   -1.6490 C   0  0  0  0  0  0  0  0  0  0  0  0
   -2.0130    0.4660   -1.0140 C   0  0  0  0  0  0  0  0  0  0  0  0
   -0.9340    0.6420   -0.3870 C   0  0  0  0  0  0  0  0  0  0  0  0
   -0.4840    0.1870    0.9030 C   0  0  0  0  0  0  0  0  0  0  0  0
    0.7770    0.5480    1.2570 C   0  0  0  0  0  0  0  0  0  0  0  0
    1.5690    1.3500    0.3140 C   0  0  0  0  0  0  0  0  0  0  0  0
    1.2840    0.0230    2.5190 C   0  0  0  0  0  0  0  0  0  0  0  0
    2.4200    0.2150    3.1060 C   0  0  0  0  0  0  0  0  0  0  0  0
    3.5330    1.0510    2.6380 C   0  0  0  0  0  0  0  0  0  0  0  0
    2.6550   -0.5170    4.3810 C   0  0  0  0  0  0  0  0  0  0  0  0
    1.6870   -1.2580    4.7890 O   0  0  0  0  0  0  0  0  0  0  0  0
    3.8660   -0.4660    5.1910 C   0  0  0  0  0  0  0  0  0  0  0  0
    4.8030   -1.4980    4.6640 C   0  0  0  0  0  0  0  0  0  0  0  0
    4.7190   -2.6880    5.1160 O   0  0  0  0  0  0  0  0  0  0  0  0
    5.7630   -1.2550    3.7110 O   0  0  0  0  0  0  0  0  0  0  0  0
    6.5900   -2.3080    3.2800 C   0  0  0  0  0  0  0  0  0  0  0  0
   -5.4780    0.1490   -3.8680 O   0  0  0  0  0  0  0  0  0  0  0  0
   -6.2620   -0.4550   -2.9170 C   0  0  0  0  0  0  0  0  0  0  0  0
  1  2  1  0
  2  3  1  0
  3  4  2  3
  4  5  1  0
  4 22  1  0
  5  6  2  3
  6  7  1  0
  7  8  2  3
  8  9  1  0
  9 10  2  3
 10 11  1  0
 10 12  1  0
 12 13  2  3
 13 14  1  0
 13 15  1  0
 15 16  2  0
 15 17  1  0
 17 18  1  0
 18 19  2  0
 18 20  1  0
 20 21  1  0
 22 23  1  0
M  END
