
     RDKit          3D

 22 22  0  0  0  0  0  0  0  0999 V2000
   -6.4640   -1.3370    1.2550 C   0  0  0  0  0  0  0  0  0  0  0  0
   -5.4790   -1.4510    0.1210 C   0  0  0  0  0  0  0  0  0  0  0  0
   -4.1880   -1.6050    0.5010 O   0  0  0  0  0  0  0  0  0  0  0  0
   -3.6040   -0.6420    1.2540 C   0  0  0  0  0  0  0  0  0  0  0  0
   -3.4500    0.7110    0.7240 C   0  0  0  0  0  0  0  0  0  0  0  0
   -2.6720    1.0150   -0.4810 C   0  0  2  0  0  0  0  0  0  0  0  0
   -2.8000    2.5530   -0.6600 C   0  0  0  0  0  0  0  0  0  0  0  0
   -3.2740    0.4770   -1.7630 C   0  0  0  0  0  0  0  0  0  0  0  0
   -1.1740    0.7980   -0.3940 C   0  0  1  0  0  0  0  0  0  0  0  0
   -0.8490   -0.6550   -0.1130 C   0  0  0  0  0  0  0  0  0  0  0  0
   -0.4750    1.2170   -1.6590 C   0  0  0  0  0  0  0  0  0  0  0  0
    0.9700    1.1180   -1.6670 C   0  0  0  0  0  0  0  0  0  0  0  0
    1.7310    0.7510   -0.6660 C   0  0  0  0  0  0  0  0  0  0  0  0
    3.2010    0.6940   -0.8210 C   0  0  0  0  0  0  0  0  0  0  0  0
    4.0610    0.3480    0.0890 C   0  0  0  0  0  0  0  0  0  0  0  0
    5.4300    0.4340   -0.5020 C   0  0  1  0  0  0  0  0  0  0  0  0
    6.1420   -0.8660   -0.1880 C   0  0  0  0  0  0  0  0  0  0  0  0
    6.3930   -0.9740    1.1830 O   0  0  0  0  0  0  0  0  0  0  0  0
    7.0050   -2.0950    1.4400 O   0  0  0  0  0  0  0  0  0  0  0  0
    8.3270   -1.9580    1.0230 C   0  0  0  0  0  0  0  0  0  0  0  0
    5.1830    0.5420   -1.8530 O   0  0  0  0  0  0  0  0  0  0  0  0
    3.9300    1.0000   -1.9710 O   0  0  0  0  0  0  0  0  0  0  0  0
  1  2  1  0
  2  3  1  0
  3  4  1  0
  4  5  1  0
  5  6  1  0
  6  7  1  6
  6  8  1  0
  6  9  1  0
  9 10  1  6
  9 11  1  0
 11 12  1  0
 12 13  2  3
 13 14  1  0
 14 15  2  0
 14 22  1  0
 15 16  1  0
 16 17  1  6
 16 21  1  0
 17 18  1  0
 18 19  1  0
 19 20  1  0
 21 22  1  0
M  END
