
     RDKit          3D

 23 22  0  0  0  0  0  0  0  0999 V2000
   -2.8720   -0.3000    1.9560 C   0  0  0  0  0  0  0  0  0  0  0  0
   -2.1550    0.2620    0.9810 C   0  0  0  0  0  0  0  0  0  0  0  0
   -1.1550   -0.4340    0.4670 O   0  0  0  0  0  0  0  0  0  0  0  0
    0.1720   -0.6500    0.5220 C   0  0  2  0  0  0  0  0  0  0  0  0
    0.7770   -1.0740    1.7900 C   0  0  0  0  0  0  0  0  0  0  0  0
    0.1400   -1.3270    3.0730 C   0  0  0  0  0  0  0  0  0  0  0  0
    2.0100   -1.2330    1.7390 O   0  0  0  0  0  0  0  0  0  0  0  0
    0.9440    0.5090    0.0160 C   0  0  0  0  0  0  0  0  0  0  0  0
    0.4300    1.4940   -0.5600 O   0  0  0  0  0  0  0  0  0  0  0  0
    2.3460    0.5850    0.1540 O   0  0  0  0  0  0  0  0  0  0  0  0
    3.0660    1.6580   -0.3100 C   0  0  0  0  0  0  0  0  0  0  0  0
    4.3700    1.6800   -0.1560 C   0  0  0  0  0  0  0  0  0  0  0  0
    5.1610    2.7390   -0.6030 O   0  0  0  0  0  0  0  0  0  0  0  0
    5.4070    2.9540   -1.9800 C   0  0  0  0  0  0  0  0  0  0  0  0
    0.4170   -1.8250   -0.4590 C   0  0  2  0  0  0  0  0  0  0  0  0
    1.8300   -2.2690   -0.5640 C   0  0  0  0  0  0  0  0  0  0  0  0
   -0.0110   -1.3610   -1.8570 C   0  0  0  0  0  0  0  0  0  0  0  0
   -0.4180   -3.0180   -0.0440 C   0  0  0  0  0  0  0  0  0  0  0  0
   -0.2180   -4.1890   -0.9700 C   0  0  0  0  0  0  0  0  0  0  0  0
   -2.5330    1.6180    0.5430 C   0  0  2  0  0  0  0  0  0  0  0  0
   -3.7660    2.0790    1.3350 C   0  0  0  0  0  0  0  0  0  0  0  0
   -2.8870    1.5940   -0.9410 C   0  0  0  0  0  0  0  0  0  0  0  0
   -3.2790    2.9430   -1.4590 C   0  0  0  0  0  0  0  0  0  0  0  0
  1  2  2  0
  2  3  1  0
  2 20  1  0
  4  3  1  1
  4  5  1  0
  4  8  1  0
  4 15  1  0
  5  6  1  0
  5  7  2  0
  8  9  2  0
  8 10  1  0
 10 11  1  0
 11 12  2  3
 12 13  1  0
 13 14  1  0
 15 16  1  6
 15 17  1  0
 15 18  1  0
 18 19  1  0
 20 21  1  1
 20 22  1  0
 22 23  1  0
M  END
