
     RDKit          3D

 23 22  0  0  0  0  0  0  0  0999 V2000
   -3.0410    3.9800    2.4450 C   0  0  0  0  0  0  0  0  0  0  0  0
   -2.8050    3.3560    1.3080 C   0  0  0  0  0  0  0  0  0  0  0  0
   -2.0520    2.1930    1.3250 O   0  0  0  0  0  0  0  0  0  0  0  0
   -1.5580    1.5810    0.1850 C   0  0  0  0  0  0  0  0  0  0  0  0
   -1.5670    0.2430    0.1110 C   0  0  0  0  0  0  0  0  0  0  0  0
   -2.1030   -0.4510    1.2530 C   0  0  0  0  0  0  0  0  0  0  0  0
   -2.1760   -1.6860    1.3220 O   0  0  0  0  0  0  0  0  0  0  0  0
   -2.5670    0.2650    2.3410 O   0  0  0  0  0  0  0  0  0  0  0  0
   -1.0610   -0.3380   -1.1330 C   0  0  1  0  0  0  0  0  0  0  0  0
   -2.3300   -1.0230   -1.7520 C   0  0  0  0  0  0  0  0  0  0  0  0
   -0.7700    0.7640   -2.1430 C   0  0  0  0  0  0  0  0  0  0  0  0
    0.0590   -1.2830   -1.1060 C   0  0  2  0  0  0  0  0  0  0  0  0
   -0.0530   -2.5610   -0.3910 C   0  0  0  0  0  0  0  0  0  0  0  0
    0.6460   -2.7430    0.6280 O   0  0  0  0  0  0  0  0  0  0  0  0
   -0.9390   -3.6820   -0.7780 C   0  0  0  0  0  0  0  0  0  0  0  0
   -0.6850   -4.8680    0.1690 C   0  0  0  0  0  0  0  0  0  0  0  0
    1.4430   -0.7290   -1.0130 C   0  0  0  0  0  0  0  0  0  0  0  0
    2.5770   -1.5340   -1.6440 C   0  0  0  0  0  0  0  0  0  0  0  0
    1.7980    0.3970   -0.4330 C   0  0  0  0  0  0  0  0  0  0  0  0
    3.2370    0.8460   -0.4130 C   0  0  0  0  0  0  0  0  0  0  0  0
    3.7470    0.9940    0.8410 O   0  0  0  0  0  0  0  0  0  0  0  0
    3.1280    1.8940    1.6570 C   0  0  0  0  0  0  0  0  0  0  0  0
    3.0980    3.2980    1.1770 C   0  0  0  0  0  0  0  0  0  0  0  0
  1  2  2  0
  2  3  1  0
  3  4  1  0
  4  5  2  3
  5  6  1  0
  5  9  1  0
  6  7  2  0
  6  8  1  0
  9 10  1  6
  9 11  1  0
  9 12  1  0
 12 13  1  1
 12 17  1  0
 13 14  2  0
 13 15  1  0
 15 16  1  0
 17 18  1  0
 17 19  2  3
 19 20  1  0
 20 21  1  0
 21 22  1  0
 22 23  1  0
M  END
