
     RDKit          3D

 20 21  0  0  0  0  0  0  0  0999 V2000
   -5.9440    0.5200   -1.7220 N   0  0  0  0  0  0  0  0  0  0  0  0
   -4.6760    0.4640   -1.0370 C   0  0  0  0  0  0  0  0  0  0  0  0
   -3.9290   -0.6940   -1.0650 C   0  0  0  0  0  0  0  0  0  0  0  0
   -2.7090   -0.7140   -0.3920 C   0  0  0  0  0  0  0  0  0  0  0  0
   -2.2550    0.3570    0.2720 N   0  0  0  0  0  0  0  0  0  0  0  0
   -0.9970    0.3120    0.9550 C   0  0  1  0  0  0  0  0  0  0  0  0
   -0.8320   -0.9240    1.8050 C   0  0  0  0  0  0  0  0  0  0  0  0
    0.6310   -1.2890    1.5290 C   0  0  2  0  0  0  0  0  0  0  0  0
    1.2690   -1.5330    2.7570 O   0  0  0  0  0  0  0  0  0  0  0  0
    1.1320   -0.0280    0.8890 C   0  0  1  0  0  0  0  0  0  0  0  0
    2.4140   -0.2590    0.0890 C   0  0  0  0  0  0  0  0  0  0  0  0
    2.7040    0.9290   -0.5260 O   0  0  0  0  0  0  0  0  0  0  0  0
    4.1040    0.7300   -1.4200 P   0  0  0  0  0  0  0  0  0  0  0  0
    4.5080    1.8090   -2.5440 O   0  0  0  0  0  0  0  0  0  0  0  0
    4.9250    1.2890   -0.2630 O   0  0  0  0  0  0  0  0  0  0  0  0
    4.9610   -0.7070   -1.3390 O   0  0  0  0  0  0  0  0  0  0  0  0
    0.0860    0.3480    0.0790 O   0  0  0  0  0  0  0  0  0  0  0  0
   -3.0120    1.4670    0.2760 C   0  0  0  0  0  0  0  0  0  0  0  0
   -2.6220    2.4870    0.8850 O   0  0  0  0  0  0  0  0  0  0  0  0
   -4.1960    1.5110   -0.3670 N   0  0  0  0  0  0  0  0  0  0  0  0
  1  2  1  0
  2  3  1  0
  2 20  2  0
  3  4  2  0
  4  5  1  0
  6  5  1  6
  5 18  1  0
  6  7  1  0
  6 17  1  0
  7  8  1  0
  8  9  1  1
  8 10  1  0
 10 11  1  6
 10 17  1  0
 11 12  1  0
 12 13  1  0
 13 14  1  0
 13 15  1  0
 13 16  1  0
 18 19  2  0
 18 20  1  0
M  END
