
     RDKit          3D

 20 21  0  0  0  0  0  0  0  0999 V2000
   -6.4840   -0.6260   -1.0510 O   0  0  0  0  0  0  0  0  0  0  0  0
   -5.3340   -0.2670   -0.6860 C   0  0  0  0  0  0  0  0  0  0  0  0
   -4.9890    1.0500   -0.4580 C   0  0  0  0  0  0  0  0  0  0  0  0
   -3.7060    1.3750   -0.0580 C   0  0  0  0  0  0  0  0  0  0  0  0
   -2.7570    0.4320    0.1200 N   0  0  0  0  0  0  0  0  0  0  0  0
   -1.4150    0.7530    0.5360 C   0  0  1  0  0  0  0  0  0  0  0  0
   -0.9930    0.0510    1.7930 C   0  0  0  0  0  0  0  0  0  0  0  0
    0.4190   -0.4190    1.4210 C   0  0  2  0  0  0  0  0  0  0  0  0
    1.2730   -0.2650    2.4860 O   0  0  0  0  0  0  0  0  0  0  0  0
    0.7240    0.5610    0.2840 C   0  0  1  0  0  0  0  0  0  0  0  0
    1.9000    0.0930   -0.5350 C   0  0  0  0  0  0  0  0  0  0  0  0
    3.0700    0.1510    0.1690 O   0  0  0  0  0  0  0  0  0  0  0  0
    4.3090   -0.3750   -0.7740 P   0  0  0  0  0  0  0  0  0  0  0  0
    4.7280    1.0600   -1.0950 O   0  0  0  0  0  0  0  0  0  0  0  0
    5.6860   -0.9240   -0.1670 O   0  0  0  0  0  0  0  0  0  0  0  0
    3.9920   -0.5600   -2.4540 O   0  0  0  0  0  0  0  0  0  0  0  0
   -0.4680    0.5010   -0.4350 O   0  0  0  0  0  0  0  0  0  0  0  0
   -3.1110   -0.8500   -0.1080 C   0  0  0  0  0  0  0  0  0  0  0  0
   -2.2150   -1.7350    0.0610 O   0  0  0  0  0  0  0  0  0  0  0  0
   -4.3640   -1.1860   -0.5000 N   0  0  0  0  0  0  0  0  0  0  0  0
  1  2  2  0
  2  3  1  0
  2 20  1  0
  3  4  2  0
  4  5  1  0
  6  5  1  6
  5 18  1  0
  6  7  1  0
  6 17  1  0
  7  8  1  0
  8  9  1  1
  8 10  1  0
 10 11  1  6
 10 17  1  0
 11 12  1  0
 12 13  1  0
 13 14  1  0
 13 15  1  0
 13 16  1  0
 18 19  2  0
 18 20  1  0
M  END
