
     RDKit          3D

 13 14  0  0  0  0  0  0  0  0999 V2000
    2.4870    1.5890    0.2850 O   0  0  0  0  0  0  0  0  0  0  0  0
    1.4750    1.9230    0.9530 C   0  0  0  0  0  0  0  0  0  0  0  0
    0.3730    1.0850    1.0390 O   0  0  0  0  0  0  0  0  0  0  0  0
    0.3870   -0.1420    0.3770 C   0  0  2  0  0  0  0  0  0  0  0  0
    0.5560    0.1290   -1.0010 O   0  0  0  0  0  0  0  0  0  0  0  0
   -0.5070    0.9960   -1.3120 C   0  0  0  0  0  0  0  0  0  0  0  0
   -1.6100    0.1940   -1.5670 O   0  0  0  0  0  0  0  0  0  0  0  0
   -1.5320   -1.0170   -0.9210 C   0  0  0  0  0  0  0  0  0  0  0  0
   -0.9280   -0.8840    0.4780 C   0  0  1  0  0  0  0  0  0  0  0  0
   -0.6450   -2.1680    0.9080 O   0  0  0  0  0  0  0  0  0  0  0  0
    0.6600   -2.3450    0.8940 O   0  0  0  0  0  0  0  0  0  0  0  0
    1.3400   -1.1250    0.8860 C   0  0  0  0  0  0  0  0  0  0  0  0
    2.5220   -0.8670    1.2300 O   0  0  0  0  0  0  0  0  0  0  0  0
  1  2  2  0
  2  3  1  0
  4  3  1  1
  4  5  1  0
  4  9  1  0
  4 12  1  0
  5  6  1  0
  6  7  1  0
  7  8  1  0
  9  8  1  6
  9 10  1  0
 10 11  1  0
 11 12  1  0
 12 13  2  0
M  END
