
     RDKit          3D

 13 13  0  0  0  0  0  0  0  0999 V2000
   -3.3370   -1.0140   -0.7070 O   0  0  0  0  0  0  0  0  0  0  0  0
   -2.1410   -0.6380   -0.7000 C   0  0  0  0  0  0  0  0  0  0  0  0
   -1.4800   -0.3350   -1.8680 O   0  0  0  0  0  0  0  0  0  0  0  0
   -0.1130    0.0810   -1.9010 C   0  0  0  0  0  0  0  0  0  0  0  0
    0.5040   -0.0440   -0.5290 C   0  0  1  0  0  0  0  0  0  0  0  0
    1.8060    0.7390   -0.4320 C   0  0  0  0  0  0  0  0  0  0  0  0
    2.8180   -0.1200   -0.8460 O   0  0  0  0  0  0  0  0  0  0  0  0
    3.5120   -0.5550    0.1470 O   0  0  0  0  0  0  0  0  0  0  0  0
    4.4020    0.1380    0.6850 O   0  0  0  0  0  0  0  0  0  0  0  0
   -0.4070    0.4780    0.3920 O   0  0  0  0  0  0  0  0  0  0  0  0
   -1.4020   -0.4700    0.5830 C   0  0  1  0  0  0  0  0  0  0  0  0
   -2.3500    0.0530    1.6330 C   0  0  0  0  0  0  0  0  0  0  0  0
   -2.7260    1.3550    1.2120 O   0  0  0  0  0  0  0  0  0  0  0  0
  1  2  2  0
  2  3  1  0
  2 11  1  0
  3  4  1  0
  4  5  1  0
  5  6  1  6
  5 10  1  0
  6  7  1  0
  7  8  1  0
  8  9  1  0
 10 11  1  0
 11 12  1  1
 12 13  1  0
M  END
