
     RDKit          3D

 22 22  0  0  0  0  0  0  0  0999 V2000
   -6.9910    0.3440   -0.1140 C   0  0  0  0  0  0  0  0  0  0  0  0
   -5.9220   -0.6150    0.3820 C   0  0  0  0  0  0  0  0  0  0  0  0
   -5.1120   -1.0630   -0.6440 O   0  0  0  0  0  0  0  0  0  0  0  0
   -4.4270   -0.0770   -1.3100 C   0  0  0  0  0  0  0  0  0  0  0  0
   -3.4400    0.7090   -0.5550 C   0  0  0  0  0  0  0  0  0  0  0  0
   -2.2620   -0.0390    0.0430 C   0  0  1  0  0  0  0  0  0  0  0  0
   -1.3810    0.9920    0.7890 C   0  0  0  0  0  0  0  0  0  0  0  0
   -2.6420   -1.0700    1.0490 C   0  0  0  0  0  0  0  0  0  0  0  0
   -1.4880   -0.6800   -1.0560 C   0  0  1  0  0  0  0  0  0  0  0  0
   -0.9450    0.3370   -2.0490 C   0  0  0  0  0  0  0  0  0  0  0  0
   -0.4530   -1.6740   -0.7040 C   0  0  0  0  0  0  0  0  0  0  0  0
    0.6310   -1.1680    0.1350 C   0  0  0  0  0  0  0  0  0  0  0  0
    1.9120   -1.1680   -0.2720 C   0  0  0  0  0  0  0  0  0  0  0  0
    2.9230   -0.6500    0.6180 C   0  0  0  0  0  0  0  0  0  0  0  0
    4.2150   -0.5840    0.3610 C   0  0  0  0  0  0  0  0  0  0  0  0
    4.8940    0.0120    1.5400 C   0  0  1  0  0  0  0  0  0  0  0  0
    5.7740    1.1580    1.0980 C   0  0  0  0  0  0  0  0  0  0  0  0
    6.7800    0.6350    0.2970 O   0  0  0  0  0  0  0  0  0  0  0  0
    7.5850    1.5570   -0.1270 O   0  0  0  0  0  0  0  0  0  0  0  0
    8.9120    1.2030   -0.1640 C   0  0  0  0  0  0  0  0  0  0  0  0
    3.8540    0.4180    2.3450 O   0  0  0  0  0  0  0  0  0  0  0  0
    2.7280   -0.1380    1.8760 O   0  0  0  0  0  0  0  0  0  0  0  0
  1  2  1  0
  2  3  1  0
  3  4  1  0
  4  5  1  0
  5  6  1  0
  6  7  1  1
  6  8  1  0
  6  9  1  0
  9 10  1  1
  9 11  1  0
 11 12  1  0
 12 13  2  3
 13 14  1  0
 14 15  2  0
 14 22  1  0
 15 16  1  0
 16 17  1  6
 16 21  1  0
 17 18  1  0
 18 19  1  0
 19 20  1  0
 21 22  1  0
M  END
