
     RDKit          3D

 23 22  0  0  0  0  0  0  0  0999 V2000
   -1.4200   -2.7410   -1.8040 C   0  0  0  0  0  0  0  0  0  0  0  0
   -1.3170   -1.2170   -1.9900 C   0  0  0  0  0  0  0  0  0  0  0  0
   -1.0550   -0.5980   -0.6290 C   0  0  0  0  0  0  0  0  0  0  0  0
   -1.9830   -0.8720    0.2500 O   0  0  0  0  0  0  0  0  0  0  0  0
   -2.6790   -0.9360    1.3360 C   0  0  2  0  0  0  0  0  0  0  0  0
   -3.2130    0.3230    1.9810 C   0  0  0  0  0  0  0  0  0  0  0  0
   -1.9590   -1.7080    2.4450 C   0  0  0  0  0  0  0  0  0  0  0  0
   -3.9370   -1.7550    1.0610 C   0  0  0  0  0  0  0  0  0  0  0  0
   -4.9290   -2.0140    2.1270 C   0  0  0  0  0  0  0  0  0  0  0  0
   -4.1620   -2.2190   -0.0430 O   0  0  0  0  0  0  0  0  0  0  0  0
    0.0450    0.1170   -0.5080 C   0  0  0  0  0  0  0  0  0  0  0  0
    0.3340    0.7220    0.7820 C   0  0  0  0  0  0  0  0  0  0  0  0
    1.3550    1.4710    1.0900 C   0  0  0  0  0  0  0  0  0  0  0  0
    1.5060    2.0090    2.4480 C   0  0  0  0  0  0  0  0  0  0  0  0
    2.5330    2.7550    2.7350 C   0  0  0  0  0  0  0  0  0  0  0  0
    3.4830    3.0420    1.7610 O   0  0  0  0  0  0  0  0  0  0  0  0
    2.6850    3.2920    4.0920 C   0  0  0  0  0  0  0  0  0  0  0  0
    3.6680    4.0090    4.3770 O   0  0  0  0  0  0  0  0  0  0  0  0
    0.9860    0.3920   -1.6040 C   0  0  0  0  0  0  0  0  0  0  0  0
    2.2830   -0.3810   -1.5240 C   0  0  0  0  0  0  0  0  0  0  0  0
    3.1910   -0.0240   -2.6850 C   0  0  0  0  0  0  0  0  0  0  0  0
    3.5110    1.3140   -2.7060 O   0  0  0  0  0  0  0  0  0  0  0  0
    4.3390    1.5490   -3.7930 C   0  0  0  0  0  0  0  0  0  0  0  0
  1  2  1  0
  2  3  1  0
  3  4  1  0
  3 11  2  3
  4  5  1  0
  5  6  1  1
  5  7  1  0
  5  8  1  0
  8  9  1  0
  8 10  2  0
 11 12  1  0
 11 19  1  0
 12 13  2  3
 13 14  1  0
 14 15  2  3
 15 16  1  0
 15 17  1  0
 17 18  2  0
 19 20  1  0
 20 21  1  0
 21 22  1  0
 22 23  1  0
M  END
