
     RDKit          3D

 23 22  0  0  0  0  0  0  0  0999 V2000
    7.9040   -0.9100   -1.4940 C   0  0  0  0  0  0  0  0  0  0  0  0
    6.6220   -0.8560   -1.1100 C   0  0  0  0  0  0  0  0  0  0  0  0
    6.1850    0.3100   -0.3840 C   0  0  0  0  0  0  0  0  0  0  0  0
    4.9500    0.4420    0.0280 C   0  0  0  0  0  0  0  0  0  0  0  0
    3.9500   -0.5600   -0.2150 C   0  0  0  0  0  0  0  0  0  0  0  0
    2.7130   -0.3830    0.2210 C   0  0  0  0  0  0  0  0  0  0  0  0
    1.7040   -1.3760   -0.0140 C   0  0  0  0  0  0  0  0  0  0  0  0
    0.4720   -1.1850    0.4320 C   0  0  0  0  0  0  0  0  0  0  0  0
   -0.5140   -2.2330    0.1590 C   0  0  0  0  0  0  0  0  0  0  0  0
   -1.7620   -2.1330    0.5520 C   0  0  0  0  0  0  0  0  0  0  0  0
   -2.1680   -1.0140    1.2400 O   0  0  0  0  0  0  0  0  0  0  0  0
   -2.8860    0.0260    0.5590 C   0  0  0  0  0  0  0  0  0  0  0  0
   -4.1530   -0.6560    0.0280 C   0  0  0  0  0  0  0  0  0  0  0  0
   -4.9980    0.3280   -0.7100 C   0  0  2  0  0  0  0  0  0  0  0  0
   -4.2390    0.8220   -1.7720 O   0  0  0  0  0  0  0  0  0  0  0  0
   -5.3830    1.4200    0.2250 C   0  0  0  0  0  0  0  0  0  0  0  0
   -6.0860    2.4350   -0.2390 C   0  0  0  0  0  0  0  0  0  0  0  0
   -6.1060   -0.3160   -1.2360 O   0  0  0  0  0  0  0  0  0  0  0  0
   -6.9350   -0.8480   -0.2650 C   0  0  0  0  0  0  0  0  0  0  0  0
    0.1420   -0.0520    1.1200 O   0  0  0  0  0  0  0  0  0  0  0  0
    0.3140    0.1640    2.4920 C   0  0  0  0  0  0  0  0  0  0  0  0
    7.1130    1.3400   -0.1080 O   0  0  0  0  0  0  0  0  0  0  0  0
    6.6390    2.5900    0.3600 C   0  0  0  0  0  0  0  0  0  0  0  0
  1  2  2  0
  2  3  1  0
  3  4  2  3
  3 22  1  0
  4  5  1  0
  5  6  2  3
  6  7  1  0
  7  8  2  3
  8  9  1  0
  8 20  1  0
  9 10  2  3
 10 11  1  0
 11 12  1  0
 12 13  1  0
 13 14  1  0
 14 15  1  6
 14 16  1  0
 14 18  1  0
 16 17  2  0
 18 19  1  0
 20 21  1  0
 22 23  1  0
M  END
