
     RDKit          3D

 20 21  0  0  0  0  0  0  0  0999 V2000
    4.1570    1.8750   -1.6060 N   0  0  0  0  0  0  0  0  0  0  0  0
    3.2240    0.8720   -1.2500 C   0  0  0  0  0  0  0  0  0  0  0  0
    3.3910    0.0850   -0.1250 C   0  0  0  0  0  0  0  0  0  0  0  0
    2.4750   -0.8860    0.2080 C   0  0  0  0  0  0  0  0  0  0  0  0
    1.4110   -1.0590   -0.5810 N   0  0  0  0  0  0  0  0  0  0  0  0
    0.4330   -2.0690   -0.2600 C   0  0  1  0  0  0  0  0  0  0  0  0
    0.2330   -2.3260    1.1740 C   0  0  0  0  0  0  0  0  0  0  0  0
   -1.2620   -2.1640    1.4170 C   0  0  2  0  0  0  0  0  0  0  0  0
   -1.9090   -3.4000    1.4490 O   0  0  0  0  0  0  0  0  0  0  0  0
   -1.6600   -1.3770    0.1900 C   0  0  1  0  0  0  0  0  0  0  0  0
   -1.6660    0.1230    0.4860 C   0  0  0  0  0  0  0  0  0  0  0  0
   -2.0300    0.7380   -0.6720 O   0  0  0  0  0  0  0  0  0  0  0  0
   -2.0470    2.3910   -0.3900 P   0  0  0  0  0  0  0  0  0  0  0  0
   -1.8580    3.4360   -1.6700 O   0  0  0  0  0  0  0  0  0  0  0  0
   -2.0380    2.9440    1.1230 O   0  0  0  0  0  0  0  0  0  0  0  0
   -3.5600    2.3990   -0.5640 O   0  0  0  0  0  0  0  0  0  0  0  0
   -0.7780   -1.7030   -0.8070 O   0  0  0  0  0  0  0  0  0  0  0  0
    1.2260   -0.3180   -1.6660 C   0  0  0  0  0  0  0  0  0  0  0  0
    0.2310   -0.4730   -2.4130 O   0  0  0  0  0  0  0  0  0  0  0  0
    2.1190    0.6220   -1.9830 N   0  0  0  0  0  0  0  0  0  0  0  0
  1  2  1  0
  2  3  1  0
  2 20  2  0
  3  4  2  0
  4  5  1  0
  6  5  1  1
  5 18  1  0
  6  7  1  0
  6 17  1  0
  7  8  1  0
  8  9  1  6
  8 10  1  0
 10 11  1  1
 10 17  1  0
 11 12  1  0
 12 13  1  0
 13 14  1  0
 13 15  1  0
 13 16  1  0
 18 19  2  0
 18 20  1  0
M  END
