
     RDKit          3D

 23 22  0  0  0  0  0  0  0  0999 V2000
    6.9190    1.1260   -0.5260 C   0  0  0  0  0  0  0  0  0  0  0  0
    5.9200    1.3730    0.5290 C   0  0  0  0  0  0  0  0  0  0  0  0
    4.6220    1.0430    0.4380 C   0  0  0  0  0  0  0  0  0  0  0  0
    3.7040    1.3100    1.4940 C   0  0  0  0  0  0  0  0  0  0  0  0
    2.4510    1.0790    1.5750 C   0  0  0  0  0  0  0  0  0  0  0  0
    1.6510    0.4570    0.5370 C   0  0  0  0  0  0  0  0  0  0  0  0
    0.3370    0.2480    0.7120 C   0  0  0  0  0  0  0  0  0  0  0  0
   -0.4860   -0.3880   -0.3440 C   0  0  0  0  0  0  0  0  0  0  0  0
    0.2940   -0.9080   -1.4980 C   0  0  0  0  0  0  0  0  0  0  0  0
    0.8830    0.0480   -2.2810 O   0  0  0  0  0  0  0  0  0  0  0  0
   -1.7540   -0.5530   -0.1250 C   0  0  0  0  0  0  0  0  0  0  0  0
   -2.2800   -0.0980    1.2010 C   0  0  0  0  0  0  0  0  0  0  0  0
   -3.5390   -0.2270    1.5700 C   0  0  0  0  0  0  0  0  0  0  0  0
   -3.9330    0.2400    2.8500 O   0  0  0  0  0  0  0  0  0  0  0  0
   -3.1860    1.1490    3.4420 O   0  0  0  0  0  0  0  0  0  0  0  0
   -3.8270    2.3830    3.5610 C   0  0  0  0  0  0  0  0  0  0  0  0
   -2.7820   -1.0180   -1.0330 C   0  0  1  0  0  0  0  0  0  0  0  0
   -3.7550    0.1680   -1.2230 C   0  0  0  0  0  0  0  0  0  0  0  0
   -2.3920   -1.3600   -2.4370 C   0  0  0  0  0  0  0  0  0  0  0  0
   -3.4180   -2.1010   -0.4120 O   0  0  0  0  0  0  0  0  0  0  0  0
   -4.4190   -2.6680   -1.1470 C   0  0  0  0  0  0  0  0  0  0  0  0
    4.2450    0.4330   -0.7320 O   0  0  0  0  0  0  0  0  0  0  0  0
    4.5950   -0.9500   -0.8970 C   0  0  0  0  0  0  0  0  0  0  0  0
  1  2  1  0
  2  3  2  3
  3  4  1  0
  3 22  1  0
  4  5  2  3
  5  6  1  0
  6  7  2  3
  7  8  1  0
  8  9  1  0
  8 11  2  3
  9 10  1  0
 11 12  1  0
 11 17  1  0
 12 13  2  3
 13 14  1  0
 14 15  1  0
 15 16  1  0
 17 18  1  6
 17 19  1  0
 17 20  1  0
 20 21  1  0
 22 23  1  0
M  END
