
     RDKit          3D

 23 22  0  0  0  0  0  0  0  0999 V2000
   -2.9030    3.8830   -0.3850 C   0  0  0  0  0  0  0  0  0  0  0  0
   -1.7340    4.0470    0.1950 C   0  0  0  0  0  0  0  0  0  0  0  0
   -1.1220    2.9980    0.8050 O   0  0  0  0  0  0  0  0  0  0  0  0
   -1.0590    1.6880    0.3700 C   0  0  0  0  0  0  0  0  0  0  0  0
   -1.6100    0.7140    1.0310 C   0  0  0  0  0  0  0  0  0  0  0  0
   -2.3030    1.0480    2.2500 C   0  0  0  0  0  0  0  0  0  0  0  0
   -2.8640    0.1770    2.9410 O   0  0  0  0  0  0  0  0  0  0  0  0
   -2.3660    2.3480    2.6900 O   0  0  0  0  0  0  0  0  0  0  0  0
   -1.5270   -0.6780    0.5000 C   0  0  2  0  0  0  0  0  0  0  0  0
   -2.9560   -1.0960    0.0970 C   0  0  0  0  0  0  0  0  0  0  0  0
   -1.2030   -1.5740    1.6840 C   0  0  0  0  0  0  0  0  0  0  0  0
   -0.5990   -0.9230   -0.5750 C   0  0  2  0  0  0  0  0  0  0  0  0
   -0.5350   -2.3140   -1.0710 C   0  0  0  0  0  0  0  0  0  0  0  0
    0.5790   -2.8790   -0.8900 O   0  0  0  0  0  0  0  0  0  0  0  0
   -1.5810   -3.0990   -1.7340 C   0  0  0  0  0  0  0  0  0  0  0  0
   -0.9680   -4.4210   -2.2090 C   0  0  0  0  0  0  0  0  0  0  0  0
    0.8090   -0.4870   -0.4130 C   0  0  0  0  0  0  0  0  0  0  0  0
    1.6270   -0.5110   -1.6910 C   0  0  0  0  0  0  0  0  0  0  0  0
    1.4330   -0.0990    0.6460 C   0  0  0  0  0  0  0  0  0  0  0  0
    2.8510    0.3080    0.6500 C   0  0  0  0  0  0  0  0  0  0  0  0
    3.0240    1.6310    1.0790 O   0  0  0  0  0  0  0  0  0  0  0  0
    4.3530    1.9660    1.0660 C   0  0  0  0  0  0  0  0  0  0  0  0
    4.9840    1.8570   -0.3000 C   0  0  0  0  0  0  0  0  0  0  0  0
  1  2  2  0
  2  3  1  0
  3  4  1  0
  4  5  2  3
  5  6  1  0
  5  9  1  0
  6  7  2  0
  6  8  1  0
  9 10  1  6
  9 11  1  0
  9 12  1  0
 12 13  1  1
 12 17  1  0
 13 14  2  0
 13 15  1  0
 15 16  1  0
 17 18  1  0
 17 19  2  3
 19 20  1  0
 20 21  1  0
 21 22  1  0
 22 23  1  0
M  END
