
     RDKit          3D

 21 22  0  0  0  0  0  0  0  0999 V2000
    1.9570   -1.5940    0.3280 O   0  0  0  0  0  0  0  0  0  0  0  0
    2.0490   -0.4890   -0.2400 C   0  0  0  0  0  0  0  0  0  0  0  0
    3.1550    0.3770    0.0430 N   0  0  0  0  0  0  0  0  0  0  0  0
    4.1290   -0.0850    0.9920 C   0  0  0  0  0  0  0  0  0  0  0  0
    5.1980    0.9600    1.1460 C   0  0  0  0  0  0  0  0  0  0  0  0
    5.7800    1.1440   -0.1120 O   0  0  0  0  0  0  0  0  0  0  0  0
    6.7270    2.0550   -0.0250 O   0  0  0  0  0  0  0  0  0  0  0  0
    1.0720   -0.1090   -1.1450 O   0  0  0  0  0  0  0  0  0  0  0  0
   -0.0400   -0.8640   -1.4920 C   0  0  0  0  0  0  0  0  0  0  0  0
   -0.9690   -1.1890   -0.3410 C   0  0  1  0  0  0  0  0  0  0  0  0
   -1.4070    0.0030    0.1760 O   0  0  0  0  0  0  0  0  0  0  0  0
   -2.7300    0.1500    0.3980 C   0  0  2  0  0  0  0  0  0  0  0  0
   -3.4740   -1.0720    0.8220 C   0  0  0  0  0  0  0  0  0  0  0  0
   -3.2930   -2.0700   -0.2270 N   0  0  0  0  0  0  0  0  0  0  0  0
   -2.0320   -2.0590   -0.8680 C   0  0  0  0  0  0  0  0  0  0  0  0
   -1.8130   -2.7690   -1.8620 O   0  0  0  0  0  0  0  0  0  0  0  0
   -3.4680    0.7600   -0.7990 C   0  0  0  0  0  0  0  0  0  0  0  0
   -3.7620    2.0820   -0.6030 O   0  0  0  0  0  0  0  0  0  0  0  0
   -4.4070    2.3670    0.4740 O   0  0  0  0  0  0  0  0  0  0  0  0
   -4.2690    1.5430    1.4590 O   0  0  0  0  0  0  0  0  0  0  0  0
   -2.9060    1.1760    1.5290 C   0  0  0  0  0  0  0  0  0  0  0  0
  1  2  2  0
  2  3  1  0
  2  8  1  0
  3  4  1  0
  4  5  1  0
  5  6  1  0
  6  7  1  0
  8  9  1  0
 10  9  1  6
 10 11  1  0
 10 15  1  0
 11 12  1  0
 12 13  1  1
 12 17  1  0
 12 21  1  0
 13 14  1  0
 14 15  1  0
 15 16  2  0
 17 18  1  0
 18 19  1  0
 19 20  1  0
 20 21  1  0
M  END
