
     RDKit          3D

 27 28  0  0  0  0  0  0  0  0999 V2000
    2.2450    0.3160   -1.0110 C   0  0  0  0  0  0  0  0  0  0  0  0
    3.0680    1.1870   -0.0980 C   0  0  1  0  0  0  0  0  0  0  0  0
    4.2900    1.6840   -0.8470 C   0  0  0  0  0  0  0  0  0  0  0  0
    5.0050    0.6270   -1.4600 N   0  0  0  0  0  0  0  0  0  0  0  0
    5.6720   -0.3010   -0.6510 C   0  0  0  0  0  0  0  0  0  0  0  0
    6.3640   -1.3190   -1.5610 C   0  0  0  0  0  0  0  0  0  0  0  0
    7.0420   -2.2640   -0.8330 O   0  0  0  0  0  0  0  0  0  0  0  0
    7.6120   -3.1060   -1.6430 O   0  0  0  0  0  0  0  0  0  0  0  0
    2.3400    2.1210    0.5090 O   0  0  0  0  0  0  0  0  0  0  0  0
    2.1900    2.2580    1.8140 C   0  0  0  0  0  0  0  0  0  0  0  0
    1.5400    1.0550    2.4430 C   0  0  0  0  0  0  0  0  0  0  0  0
    0.2030    0.8610    1.8820 C   0  0  0  0  0  0  0  0  0  0  0  0
   -0.2220    1.6680    0.9870 O   0  0  0  0  0  0  0  0  0  0  0  0
   -0.6400   -0.1880    2.2900 O   0  0  0  0  0  0  0  0  0  0  0  0
   -1.8820   -0.2630    1.6790 C   0  0  0  0  0  0  0  0  0  0  0  0
   -2.9640    0.3480    2.1300 C   0  0  0  0  0  0  0  0  0  0  0  0
   -4.1910    0.2520    1.4950 O   0  0  0  0  0  0  0  0  0  0  0  0
   -4.3540   -0.5040    0.3300 C   0  0  0  0  0  0  0  0  0  0  0  0
   -5.6450   -0.6010   -0.3320 C   0  0  0  0  0  0  0  0  0  0  0  0
   -5.7370   -1.3640   -1.4700 C   0  0  0  0  0  0  0  0  0  0  0  0
   -6.9350   -1.4810   -2.1280 C   0  0  0  0  0  0  0  0  0  0  0  0
   -8.0270   -0.8110   -1.6070 C   0  0  0  0  0  0  0  0  0  0  0  0
   -9.2280   -0.9520   -2.3020 O   0  0  0  0  0  0  0  0  0  0  0  0
   -7.9470   -0.0420   -0.4660 C   0  0  0  0  0  0  0  0  0  0  0  0
   -6.7280    0.0610    0.1800 C   0  0  0  0  0  0  0  0  0  0  0  0
   -3.3010   -1.1090   -0.1230 N   0  0  0  0  0  0  0  0  0  0  0  0
   -2.0500   -1.0360    0.4880 N   0  0  0  0  0  0  0  0  0  0  0  0
  2  1  1  6
  2  3  1  0
  2  9  1  0
  3  4  1  0
  4  5  1  0
  5  6  1  0
  6  7  1  0
  7  8  1  0
  9 10  1  0
 10 11  1  0
 11 12  1  0
 12 13  2  0
 12 14  1  0
 14 15  1  0
 15 16  2  0
 15 27  1  0
 16 17  1  0
 17 18  1  0
 18 19  1  0
 18 26  2  0
 19 20  2  0
 19 25  1  0
 20 21  1  0
 21 22  2  0
 22 23  1  0
 22 24  1  0
 24 25  2  0
 26 27  1  0
M  END
