
     RDKit          3D

 27 28  0  0  0  0  0  0  0  0999 V2000
    4.4590    1.6150    0.9780 C   0  0  0  0  0  0  0  0  0  0  0  0
    4.0940    0.6490   -0.0740 C   0  0  1  0  0  0  0  0  0  0  0  0
    4.9240   -0.5560   -0.2790 C   0  0  0  0  0  0  0  0  0  0  0  0
    6.2320   -0.2840   -0.6230 O   0  0  0  0  0  0  0  0  0  0  0  0
    7.2610    0.2810    0.0340 C   0  0  0  0  0  0  0  0  0  0  0  0
    7.1170    0.6630    1.2030 O   0  0  0  0  0  0  0  0  0  0  0  0
    8.5370    0.4790   -0.5240 O   0  0  0  0  0  0  0  0  0  0  0  0
    2.6380    0.2570    0.1520 C   0  0  0  0  0  0  0  0  0  0  0  0
    2.0060    0.7560    1.1060 O   0  0  0  0  0  0  0  0  0  0  0  0
    2.0190   -0.6180   -0.6580 O   0  0  0  0  0  0  0  0  0  0  0  0
    0.7550   -1.1450   -0.7080 C   0  0  0  0  0  0  0  0  0  0  0  0
   -0.3960   -0.2370   -0.9210 C   0  0  0  0  0  0  0  0  0  0  0  0
   -0.6790    0.7470   -0.0060 O   0  0  0  0  0  0  0  0  0  0  0  0
   -1.0340    0.5290    1.3150 C   0  0  0  0  0  0  0  0  0  0  0  0
   -1.8320   -0.3890    1.6180 N   0  0  0  0  0  0  0  0  0  0  0  0
   -2.5170   -1.3360    0.8690 C   0  0  0  0  0  0  0  0  0  0  0  0
   -2.1360   -2.6750    0.7440 C   0  0  0  0  0  0  0  0  0  0  0  0
   -3.0340   -3.2880   -0.0400 N   0  0  0  0  0  0  0  0  0  0  0  0
   -3.9710   -2.3990   -0.4220 C   0  0  0  0  0  0  0  0  0  0  0  0
   -4.9680   -2.6650   -1.1730 O   0  0  0  0  0  0  0  0  0  0  0  0
   -3.6500   -1.2270    0.1310 N   0  0  0  0  0  0  0  0  0  0  0  0
   -4.3640   -0.0060   -0.0030 C   0  0  0  0  0  0  0  0  0  0  0  0
   -3.9650    0.9280   -0.9530 C   0  0  0  0  0  0  0  0  0  0  0  0
   -4.6240    2.1310   -1.1250 C   0  0  0  0  0  0  0  0  0  0  0  0
   -5.7070    2.3840   -0.3150 C   0  0  0  0  0  0  0  0  0  0  0  0
   -6.1200    1.4830    0.6260 C   0  0  0  0  0  0  0  0  0  0  0  0
   -5.4460    0.2850    0.7810 C   0  0  0  0  0  0  0  0  0  0  0  0
  2  1  1  1
  2  3  1  0
  2  8  1  0
  3  4  1  0
  4  5  1  0
  5  6  2  0
  5  7  1  0
  8  9  2  0
  8 10  1  0
 10 11  1  0
 11 12  1  0
 12 13  1  0
 13 14  1  0
 14 15  2  3
 15 16  1  0
 16 17  2  0
 16 21  1  0
 17 18  1  0
 18 19  1  0
 19 20  2  0
 19 21  1  0
 21 22  1  0
 22 23  2  0
 22 27  1  0
 23 24  1  0
 24 25  2  0
 25 26  1  0
 26 27  2  0
M  END
