
     RDKit          3D

 27 28  0  0  0  0  0  0  0  0999 V2000
    3.6980   -1.3540    3.9510 O   0  0  0  0  0  0  0  0  0  0  0  0
    3.7480   -2.5760    3.7490 C   0  0  0  0  0  0  0  0  0  0  0  0
    3.9590   -3.0980    2.5050 O   0  0  0  0  0  0  0  0  0  0  0  0
    4.1310   -2.3160    1.3640 C   0  0  0  0  0  0  0  0  0  0  0  0
    2.8640   -1.5070    1.1220 C   0  0  0  0  0  0  0  0  0  0  0  0
    2.9920   -0.6520   -0.0990 C   0  0  0  0  0  0  0  0  0  0  0  0
    1.8430    0.1410   -0.3510 N   0  0  0  0  0  0  0  0  0  0  0  0
    1.7020    1.5110    0.2000 C   0  0  0  0  0  0  0  0  0  0  0  0
    2.5240    1.7910    1.1170 O   0  0  0  0  0  0  0  0  0  0  0  0
    0.7720    2.4850   -0.1970 N   0  0  0  0  0  0  0  0  0  0  0  0
   -0.6350    2.6760   -0.1150 C   0  0  0  0  0  0  0  0  0  0  0  0
   -1.4150    2.8560   -1.3960 C   0  0  0  0  0  0  0  0  0  0  0  0
   -1.8500    1.8020   -2.0870 O   0  0  0  0  0  0  0  0  0  0  0  0
   -3.1720    1.4400   -2.0840 C   0  0  0  0  0  0  0  0  0  0  0  0
   -3.3450    0.1340   -3.0140 C   0  0  0  0  0  0  0  0  0  0  0  0
   -1.9350   -0.0650   -3.4440 C   0  0  0  0  0  0  0  0  0  0  0  0
   -0.8890   -0.2150   -2.6120 C   0  0  0  0  0  0  0  0  0  0  0  0
    0.2650   -0.3250   -3.3300 O   0  0  0  0  0  0  0  0  0  0  0  0
    1.2510   -0.3940   -2.6050 N   0  0  0  0  0  0  0  0  0  0  0  0
    0.8040   -0.3320   -1.2870 C   0  0  0  0  0  0  0  0  0  0  0  0
   -0.5680   -0.2600   -1.2650 C   0  0  0  0  0  0  0  0  0  0  0  0
   -1.4380   -0.5660   -0.2120 C   0  0  0  0  0  0  0  0  0  0  0  0
   -1.4990   -0.7040    1.1570 C   0  0  0  0  0  0  0  0  0  0  0  0
   -2.7530   -1.0570    1.6500 C   0  0  0  0  0  0  0  0  0  0  0  0
   -3.7770   -1.2280    0.7540 O   0  0  0  0  0  0  0  0  0  0  0  0
   -0.5160   -0.6370    2.2210 C   0  0  0  0  0  0  0  0  0  0  0  0
    0.0430    0.5950    2.3750 O   0  0  0  0  0  0  0  0  0  0  0  0
  1  2  2  0
  2  3  1  0
  3  4  1  0
  4  5  1  0
  5  6  1  0
  6  7  1  0
  7  8  1  0
  7 20  1  0
  8  9  2  0
  8 10  1  0
 10 11  1  0
 11 12  1  0
 12 13  1  0
 13 14  1  0
 14 15  1  0
 15 16  1  0
 16 17  2  0
 17 18  1  0
 17 21  1  0
 18 19  1  0
 19 20  2  0
 20 21  1  0
 21 22  2  3
 22 23  1  0
 23 24  2  3
 23 26  1  0
 24 25  1  0
 26 27  1  0
M  END
