
     RDKit          3D

 27 29  0  0  0  0  0  0  0  0999 V2000
   -6.1330    1.7450    2.0280 N   0  0  0  0  0  0  0  0  0  0  0  0
   -5.2430    0.6730    1.7750 C   0  0  0  0  0  0  0  0  0  0  0  0
   -5.3730   -0.4460    2.5060 N   0  0  0  0  0  0  0  0  0  0  0  0
   -4.5530   -1.4990    2.3080 C   0  0  0  0  0  0  0  0  0  0  0  0
   -3.5730   -1.4810    1.3780 N   0  0  0  0  0  0  0  0  0  0  0  0
   -3.4000   -0.3810    0.6170 C   0  0  0  0  0  0  0  0  0  0  0  0
   -4.2430    0.6900    0.8260 C   0  0  0  0  0  0  0  0  0  0  0  0
   -3.8610    1.6310   -0.0450 N   0  0  0  0  0  0  0  0  0  0  0  0
   -2.8220    1.1580   -0.7640 C   0  0  0  0  0  0  0  0  0  0  0  0
   -2.5170   -0.0910   -0.3710 N   0  0  0  0  0  0  0  0  0  0  0  0
   -1.4890   -0.9810   -0.8540 C   0  0  2  0  0  0  0  0  0  0  0  0
   -0.4180   -1.1240   -0.0020 O   0  0  0  0  0  0  0  0  0  0  0  0
    0.7230   -1.2970   -0.7390 C   0  0  2  0  0  0  0  0  0  0  0  0
    1.7650   -0.2350   -0.4010 C   0  0  0  0  0  0  0  0  0  0  0  0
    2.1070   -0.3020    0.9550 O   0  0  0  0  0  0  0  0  0  0  0  0
    3.2610    0.8840    1.3020 P   0  0  2  0  0  0  0  0  0  0  0  0
    2.6820    1.9770    2.1770 O   0  0  0  0  0  0  0  0  0  0  0  0
    3.8090    1.6030   -0.1250 O   0  0  0  0  0  0  0  0  0  0  0  0
    4.5240    0.1150    2.1360 O   0  0  0  0  0  0  0  0  0  0  0  0
    5.9280    0.0290    1.2300 P   0  0  2  0  0  0  0  0  0  0  0  0
    6.1850    1.3800    0.6190 O   0  0  0  0  0  0  0  0  0  0  0  0
    5.7460   -1.1670    0.0360 O   0  0  0  0  0  0  0  0  0  0  0  0
    7.1960   -0.4020    2.2630 O   0  0  0  0  0  0  0  0  0  0  0  0
    0.4000   -1.2490   -2.1930 C   0  0  1  0  0  0  0  0  0  0  0  0
    0.2430   -2.5160   -2.7150 O   0  0  0  0  0  0  0  0  0  0  0  0
   -0.9630   -0.5410   -2.1840 C   0  0  1  0  0  0  0  0  0  0  0  0
   -1.7930   -1.0740   -3.1830 O   0  0  0  0  0  0  0  0  0  0  0  0
  1  2  1  0
  2  3  2  0
  2  7  1  0
  3  4  1  0
  4  5  2  0
  5  6  1  0
  6  7  2  0
  6 10  1  0
  7  8  1  0
  8  9  2  0
  9 10  1  0
 11 10  1  1
 11 12  1  0
 11 26  1  0
 12 13  1  0
 13 14  1  6
 13 24  1  0
 14 15  1  0
 15 16  1  0
 16 17  2  0
 16 18  1  6
 16 19  1  0
 19 20  1  0
 20 21  2  0
 20 22  1  6
 20 23  1  0
 24 25  1  1
 24 26  1  0
 26 27  1  6
M  END
