
     RDKit          3D

 27 27  0  0  0  0  0  0  0  0999 V2000
    2.7090   -4.4810    2.9690 C   0  0  0  0  0  0  0  0  0  0  0  0
    2.1040   -3.2420    2.6660 O   0  0  0  0  0  0  0  0  0  0  0  0
    2.5730   -2.5280    1.5830 C   0  0  0  0  0  0  0  0  0  0  0  0
    3.5250   -3.0200    0.9110 O   0  0  0  0  0  0  0  0  0  0  0  0
    1.9860   -1.1960    1.1900 C   0  0  0  0  0  0  0  0  0  0  0  0
    2.5200   -0.6180    0.1640 C   0  0  0  0  0  0  0  0  0  0  0  0
    2.3020    0.6170   -0.5470 C   0  0  0  0  0  0  0  0  0  0  0  0
    2.7390    0.5220   -1.9410 O   0  0  0  0  0  0  0  0  0  0  0  0
    1.8020    0.2130   -2.8420 O   0  0  0  0  0  0  0  0  0  0  0  0
    1.8120    1.7770   -0.2430 C   0  0  0  0  0  0  0  0  0  0  0  0
    1.2480    2.3840    0.9290 C   0  0  0  0  0  0  0  0  0  0  0  0
    0.0320    2.7540    1.2690 C   0  0  0  0  0  0  0  0  0  0  0  0
   -1.2380    2.7010    0.5730 C   0  0  0  0  0  0  0  0  0  0  0  0
   -2.2100    3.5670    0.8460 C   0  0  0  0  0  0  0  0  0  0  0  0
   -2.0660    4.6140    1.8450 C   0  0  0  0  0  0  0  0  0  0  0  0
   -2.2420    5.8450    1.1720 O   0  0  0  0  0  0  0  0  0  0  0  0
   -1.5450    1.7690   -0.4720 N   0  0  0  0  0  0  0  0  0  0  0  0
   -1.2220    0.3880   -0.5350 C   0  0  0  0  0  0  0  0  0  0  0  0
   -1.4780   -0.2550   -1.8960 C   0  0  2  0  0  0  0  0  0  0  0  0
   -2.8930   -0.1000   -2.1820 N   0  0  0  0  0  0  0  0  0  0  0  0
   -1.1430   -1.6610   -1.9560 C   0  0  0  0  0  0  0  0  0  0  0  0
    0.0310   -2.0750   -1.7380 O   0  0  0  0  0  0  0  0  0  0  0  0
   -2.0830   -2.6410   -2.2530 O   0  0  0  0  0  0  0  0  0  0  0  0
   -1.7870   -4.0120   -2.3180 C   0  0  0  0  0  0  0  0  0  0  0  0
   -0.7620   -0.3270    0.3560 N   0  0  0  0  0  0  0  0  0  0  0  0
   -0.3400   -0.3800    1.6450 C   0  0  0  0  0  0  0  0  0  0  0  0
    0.8870   -0.7660    2.0360 C   0  0  0  0  0  0  0  0  0  0  0  0
  1  2  1  0
  2  3  1  0
  3  4  2  0
  3  5  1  0
  5  6  2  0
  5 27  1  0
  6  7  1  0
  7  8  1  0
  7 10  2  0
  8  9  1  0
 10 11  1  0
 11 12  2  0
 12 13  1  0
 13 14  2  3
 13 17  1  0
 14 15  1  0
 15 16  1  0
 17 18  1  0
 18 19  1  0
 18 25  2  0
 19 20  1  1
 19 21  1  0
 21 22  2  0
 21 23  1  0
 23 24  1  0
 25 26  1  0
 26 27  2  0
M  END
