
     RDKit          3D

 27 28  0  0  0  0  0  0  0  0999 V2000
   -6.9450    1.5580   -1.7850 C   0  0  0  0  0  0  0  0  0  0  0  0
   -6.1840    1.7440   -0.6140 O   0  0  0  0  0  0  0  0  0  0  0  0
   -6.8180    2.0510    0.5650 C   0  0  0  0  0  0  0  0  0  0  0  0
   -8.0680    2.1570    0.5650 O   0  0  0  0  0  0  0  0  0  0  0  0
   -6.0430    2.2530    1.8150 C   0  0  0  0  0  0  0  0  0  0  0  0
   -4.6730    2.0880    1.5930 O   0  0  0  0  0  0  0  0  0  0  0  0
   -4.1300    0.8740    1.1140 C   0  0  0  0  0  0  0  0  0  0  0  0
   -4.9620   -0.0220    0.9100 O   0  0  0  0  0  0  0  0  0  0  0  0
   -2.7350    0.7590    0.9060 N   0  0  0  0  0  0  0  0  0  0  0  0
   -2.1970   -0.4530    0.4280 C   0  0  0  0  0  0  0  0  0  0  0  0
   -2.7610   -1.6130    0.1020 N   0  0  0  0  0  0  0  0  0  0  0  0
   -1.8150   -2.4800   -0.3080 C   0  0  0  0  0  0  0  0  0  0  0  0
   -0.6570   -1.8440   -0.2320 N   0  0  0  0  0  0  0  0  0  0  0  0
   -0.8140   -0.5880    0.2150 C   0  0  0  0  0  0  0  0  0  0  0  0
    0.2250    0.4510    0.4420 C   0  0  0  0  0  0  0  0  0  0  0  0
    1.4710   -0.1160    0.0980 O   0  0  0  0  0  0  0  0  0  0  0  0
    2.6690    0.5450    0.1780 C   0  0  0  0  0  0  0  0  0  0  0  0
    2.6730    1.7350    0.5830 O   0  0  0  0  0  0  0  0  0  0  0  0
    3.9470   -0.0750   -0.1880 C   0  0  0  0  0  0  0  0  0  0  0  0
    4.9850    0.7340   -0.0380 C   0  0  0  0  0  0  0  0  0  0  0  0
    6.4290    0.6000   -0.2580 C   0  0  0  0  0  0  0  0  0  0  0  0
    7.2880   -0.4160   -0.2860 C   0  0  0  0  0  0  0  0  0  0  0  0
    7.2690   -1.8790   -0.1210 C   0  0  0  0  0  0  0  0  0  0  0  0
    6.1670   -2.5580   -0.8210 C   0  0  0  0  0  0  0  0  0  0  0  0
    6.5750   -3.4920   -1.5380 O   0  0  0  0  0  0  0  0  0  0  0  0
    4.7380   -2.4070   -0.8810 C   0  0  0  0  0  0  0  0  0  0  0  0
    3.8290   -1.4480   -0.6410 C   0  0  0  0  0  0  0  0  0  0  0  0
  1  2  1  0
  2  3  1  0
  3  4  2  0
  3  5  1  0
  5  6  1  0
  6  7  1  0
  7  8  2  0
  7  9  1  0
  9 10  1  0
 10 11  1  0
 10 14  2  0
 11 12  1  0
 12 13  2  0
 13 14  1  0
 14 15  1  0
 15 16  1  0
 16 17  1  0
 17 18  2  0
 17 19  1  0
 19 20  2  0
 19 27  1  0
 20 21  1  0
 21 22  2  0
 22 23  1  0
 23 24  1  0
 24 25  2  0
 24 26  1  0
 26 27  2  0
M  END
