
     RDKit          3D

 27 28  0  0  0  0  0  0  0  0999 V2000
   -4.4740   -2.8990   -0.6800 C   0  0  0  0  0  0  0  0  0  0  0  0
   -3.8060   -1.6450   -0.6620 O   0  0  0  0  0  0  0  0  0  0  0  0
   -2.6190   -1.5580    0.0290 C   0  0  0  0  0  0  0  0  0  0  0  0
   -2.1370   -2.5420    0.6240 O   0  0  0  0  0  0  0  0  0  0  0  0
   -1.8810   -0.2700    0.0800 C   0  0  0  0  0  0  0  0  0  0  0  0
   -0.7520   -0.2350    0.7550 C   0  0  0  0  0  0  0  0  0  0  0  0
    0.0350    0.9290    0.8670 N   0  0  0  0  0  0  0  0  0  0  0  0
    1.4440    0.7380    1.1490 C   0  0  0  0  0  0  0  0  0  0  0  0
    1.9690   -0.4130    1.0920 N   0  0  0  0  0  0  0  0  0  0  0  0
    3.3180   -0.7120    1.3450 C   0  0  0  0  0  0  0  0  0  0  0  0
    3.6350   -1.3530    2.3630 O   0  0  0  0  0  0  0  0  0  0  0  0
    4.3500   -0.2820    0.4300 C   0  0  0  0  0  0  0  0  0  0  0  0
    4.0940    0.4380   -0.7250 C   0  0  0  0  0  0  0  0  0  0  0  0
    5.0700    0.8480   -1.5970 C   0  0  0  0  0  0  0  0  0  0  0  0
    6.3130    0.5390   -1.3150 O   0  0  0  0  0  0  0  0  0  0  0  0
    6.6490   -0.1460   -0.2320 C   0  0  0  0  0  0  0  0  0  0  0  0
    7.8600   -0.4330    0.0180 O   0  0  0  0  0  0  0  0  0  0  0  0
    5.6970   -0.5770    0.6690 C   0  0  0  0  0  0  0  0  0  0  0  0
   -0.3220   -1.3950    1.3810 O   0  0  0  0  0  0  0  0  0  0  0  0
   -0.4070   -1.5790    2.7890 C   0  0  0  0  0  0  0  0  0  0  0  0
   -2.4920    0.8750   -0.5880 C   0  0  0  0  0  0  0  0  0  0  0  0
   -2.7540    2.0710    0.0220 C   0  0  0  0  0  0  0  0  0  0  0  0
   -3.3120    3.0820   -0.7700 C   0  0  0  0  0  0  0  0  0  0  0  0
   -3.5960    2.9110   -2.1030 C   0  0  0  0  0  0  0  0  0  0  0  0
   -3.3280    1.7360   -2.6590 N   0  0  0  0  0  0  0  0  0  0  0  0
   -2.7920    0.7300   -1.9450 C   0  0  0  0  0  0  0  0  0  0  0  0
   -2.5780   -0.3430   -2.5750 O   0  0  0  0  0  0  0  0  0  0  0  0
  1  2  1  0
  2  3  1  0
  3  4  2  0
  3  5  1  0
  5  6  2  3
  5 21  1  0
  6  7  1  0
  6 19  1  0
  7  8  1  0
  8  9  2  3
  9 10  1  0
 10 11  2  0
 10 12  1  0
 12 13  1  0
 12 18  2  0
 13 14  2  0
 14 15  1  0
 15 16  1  0
 16 17  2  0
 16 18  1  0
 19 20  1  0
 21 22  2  0
 21 26  1  0
 22 23  1  0
 23 24  2  0
 24 25  1  0
 25 26  1  0
 26 27  2  0
M  END
