
     RDKit          3D

 45 49  0  0  0  0  0  0  0  0999 V2000
   -8.4070    2.4450   -2.5030 C   0  0  0  0  0  0  0  0  0  0  0  0
   -7.4220    1.9460   -1.8480 C   0  0  0  0  0  0  0  0  0  0  0  0
   -6.4640    1.1880   -2.6100 C   0  0  0  0  0  0  0  0  0  0  0  0
   -5.3820    0.6200   -1.9960 C   0  0  0  0  0  0  0  0  0  0  0  0
   -5.1450    0.7310   -0.6450 C   0  0  0  0  0  0  0  0  0  0  0  0
   -3.9410    0.0470   -0.1470 C   0  0  1  0  0  0  0  0  0  0  0  0
   -3.3720    0.6930    0.9870 N   0  0  0  0  0  0  0  0  0  0  0  0
   -2.0090    0.6460    1.5160 C   0  0  0  0  0  0  0  0  0  0  0  0
   -1.5730    1.5150    2.2580 O   0  0  0  0  0  0  0  0  0  0  0  0
   -1.1580   -0.4450    1.1580 N   0  0  0  0  0  0  0  0  0  0  0  0
    0.3020   -0.2150    1.1100 C   0  0  0  0  0  0  0  0  0  0  0  0
    0.9890   -0.5550    2.3600 C   0  0  0  0  0  0  0  0  0  0  0  0
    2.4560   -0.3650    2.4360 C   0  0  0  0  0  0  0  0  0  0  0  0
    3.3760   -1.1470    1.5860 C   0  0  0  0  0  0  0  0  0  0  0  0
    3.2650   -0.9770    0.1920 N   0  0  2  0  0  0  0  0  0  0  0  0
    2.7780   -2.2670   -0.3490 C   0  0  0  0  0  0  0  0  0  0  0  0
    4.0170   -3.1460   -0.2490 C   0  0  0  0  0  0  0  0  0  0  0  0
    5.2000   -2.1650   -0.2050 C   0  0  0  0  0  0  0  0  0  0  0  0
    4.5120   -0.9030   -0.5460 C   0  0  1  0  0  0  0  0  0  0  0  0
    4.1140   -0.9700   -2.0220 C   0  0  0  0  0  0  0  0  0  0  0  0
    5.2930    0.3460   -0.3140 C   0  0  0  0  0  0  0  0  0  0  0  0
    4.8980    1.2660    0.4130 O   0  0  0  0  0  0  0  0  0  0  0  0
    6.4940    0.4620   -0.9430 O   0  0  0  0  0  0  0  0  0  0  0  0
    7.4580    1.4140   -0.9650 C   0  0  0  0  0  0  0  0  0  0  0  0
    8.2110    1.6360    0.2770 C   0  0  1  0  0  0  0  0  0  0  0  0
    9.4470    2.5210    0.0470 C   0  0  0  0  0  0  0  0  0  0  0  0
    9.0100    3.9310   -0.1390 C   0  0  0  0  0  0  0  0  0  0  0  0
    8.2330    4.3860    1.0620 C   0  0  0  0  0  0  0  0  0  0  0  0
    7.0700    3.4540    1.3560 C   0  0  0  0  0  0  0  0  0  0  0  0
    7.5760    2.0930    1.4490 N   0  0  0  0  0  0  0  0  0  0  0  0
   -1.5450   -1.7750    0.8240 C   0  0  0  0  0  0  0  0  0  0  0  0
   -0.6470   -2.6770    0.9070 O   0  0  0  0  0  0  0  0  0  0  0  0
   -2.8540   -2.1490    0.4120 N   0  0  0  0  0  0  0  0  0  0  0  0
   -3.8440   -1.3930   -0.3460 C   0  0  1  0  0  0  0  0  0  0  0  0
   -5.0480   -2.1810   -0.5620 C   0  0  0  0  0  0  0  0  0  0  0  0
   -4.9420   -3.3100   -1.4140 C   0  0  0  0  0  0  0  0  0  0  0  0
   -6.0580   -4.1310   -1.6240 C   0  0  0  0  0  0  0  0  0  0  0  0
   -7.2670   -3.8750   -1.0240 C   0  0  0  0  0  0  0  0  0  0  0  0
   -8.4420   -4.7880   -1.2890 C   0  0  0  0  0  0  0  0  0  0  0  0
   -7.3570   -2.7820   -0.2030 C   0  0  0  0  0  0  0  0  0  0  0  0
   -6.2350   -1.9590    0.0070 C   0  0  0  0  0  0  0  0  0  0  0  0
   -6.0580    1.4500    0.0720 C   0  0  0  0  0  0  0  0  0  0  0  0
   -7.2080    2.0650   -0.5120 C   0  0  0  0  0  0  0  0  0  0  0  0
   -8.0700    2.5700    0.3650 C   0  0  0  0  0  0  0  0  0  0  0  0
   -9.4130    3.0810    0.0840 C   0  0  0  0  0  0  0  0  0  0  0  0
  1  2  2  0
  2  3  1  0
  2 43  1  0
  3  4  2  0
  4  5  1  0
  6  5  1  1
  5 42  2  0
  6  7  1  0
  6 34  1  0
  7  8  1  0
  8  9  2  0
  8 10  1  0
 10 11  1  0
 10 31  1  0
 11 12  1  0
 12 13  1  0
 13 14  1  0
 15 14  1  1
 15 16  1  0
 15 19  1  0
 16 17  1  0
 17 18  1  0
 18 19  1  0
 19 20  1  6
 19 21  1  0
 21 22  2  0
 21 23  1  0
 23 24  1  0
 25 24  1  6
 25 26  1  0
 25 30  1  0
 26 27  1  0
 27 28  1  0
 28 29  1  0
 29 30  1  0
 31 32  2  0
 31 33  1  0
 33 34  1  0
 34 35  1  1
 35 36  2  0
 35 41  1  0
 36 37  1  0
 37 38  2  0
 38 39  1  0
 38 40  1  0
 40 41  2  0
 42 43  1  0
 43 44  2  3
 44 45  1  0
M  CHG  2  15   1  30   1
M  END
