
     RDKit          3D

 45 49  0  0  0  0  0  0  0  0999 V2000
   -9.6490   -3.5460   -0.2620 C   0  0  0  0  0  0  0  0  0  0  0  0
   -8.3040   -2.9510   -0.4980 C   0  0  0  0  0  0  0  0  0  0  0  0
   -8.0470   -1.7080   -0.1500 C   0  0  0  0  0  0  0  0  0  0  0  0
   -6.7330   -1.0760   -0.3660 C   0  0  0  0  0  0  0  0  0  0  0  0
   -6.5170    0.2320   -0.2690 C   0  0  0  0  0  0  0  0  0  0  0  0
   -7.5990    1.1570    0.0010 C   0  0  0  0  0  0  0  0  0  0  0  0
   -9.0310    0.7230   -0.5110 C   0  0  0  0  0  0  0  0  0  0  0  0
   -7.6710    2.4150    0.2740 C   0  0  0  0  0  0  0  0  0  0  0  0
   -7.0740    3.6540    0.4950 C   0  0  0  0  0  0  0  0  0  0  0  0
   -5.7230    4.0250    0.4700 N   0  0  0  0  0  0  0  0  0  0  0  0
   -5.1230    0.7690   -0.3160 C   0  0  1  0  0  0  0  0  0  0  0  0
   -4.6720    0.9830    1.1320 C   0  0  1  0  0  0  0  0  0  0  0  0
   -4.5430   -0.3820    1.7920 C   0  0  0  0  0  0  0  0  0  0  0  0
   -3.4150    1.7620    1.1780 C   0  0  0  0  0  0  0  0  0  0  0  0
   -2.1850    1.0070    1.1430 N   0  0  2  0  0  0  0  0  0  0  0  0
   -1.1520    1.7960    1.7900 C   0  0  0  0  0  0  0  0  0  0  0  0
    0.1620    1.6110    1.0930 C   0  0  0  0  0  0  0  0  0  0  0  0
    0.9380    0.5040    1.3450 C   0  0  0  0  0  0  0  0  0  0  0  0
    2.1690    0.3200    0.6840 C   0  0  0  0  0  0  0  0  0  0  0  0
    2.6510    1.2190   -0.2290 C   0  0  0  0  0  0  0  0  0  0  0  0
    3.8600    1.1200   -0.9380 N   0  0  0  0  0  0  0  0  0  0  0  0
    4.8950    0.2130   -0.6480 C   0  0  0  0  0  0  0  0  0  0  0  0
    4.8250   -0.5920    0.3030 O   0  0  0  0  0  0  0  0  0  0  0  0
    6.1490    0.1460   -1.4600 C   0  0  2  0  0  0  0  0  0  0  0  0
    5.6580   -0.2170   -2.8830 C   0  0  0  0  0  0  0  0  0  0  0  0
    7.0850   -0.8200   -0.9910 N   0  0  0  0  0  0  0  0  0  0  0  0
    8.5030   -0.5980   -0.9100 C   0  0  0  0  0  0  0  0  0  0  0  0
    8.8820    0.5360   -1.2940 O   0  0  0  0  0  0  0  0  0  0  0  0
    9.4170   -1.6520   -0.4060 C   0  0  0  0  0  0  0  0  0  0  0  0
   10.8430   -1.2830   -0.4970 C   0  0  0  0  0  0  0  0  0  0  0  0
   11.3230   -0.0920    0.2250 C   0  0  1  0  0  0  0  0  0  0  0  0
   11.1590   -0.0710    1.6880 C   0  0  0  0  0  0  0  0  0  0  0  0
   12.4560   -0.5410    2.2440 C   0  0  0  0  0  0  0  0  0  0  0  0
   13.2540   -0.8130    0.9750 C   0  0  0  0  0  0  0  0  0  0  0  0
   12.7010    0.0570    0.0440 O   0  0  0  0  0  0  0  0  0  0  0  0
    1.8340    2.3340   -0.4590 C   0  0  0  0  0  0  0  0  0  0  0  0
    0.6290    2.5270    0.1800 C   0  0  0  0  0  0  0  0  0  0  0  0
   -1.7920    0.9710   -0.2800 C   0  0  0  0  0  0  0  0  0  0  0  0
   -2.7540    0.1560   -1.0540 C   0  0  0  0  0  0  0  0  0  0  0  0
   -2.2710   -0.4300   -2.0880 O   0  0  0  0  0  0  0  0  0  0  0  0
   -4.1510   -0.1160   -0.8730 N   0  0  0  0  0  0  0  0  0  0  0  0
   -4.3960   -1.4410   -1.3220 C   0  0  0  0  0  0  0  0  0  0  0  0
   -5.7380   -1.9410   -0.9780 C   0  0  0  0  0  0  0  0  0  0  0  0
   -6.0010   -3.1740   -1.3040 C   0  0  0  0  0  0  0  0  0  0  0  0
   -7.2890   -3.8260   -1.1050 C   0  0  0  0  0  0  0  0  0  0  0  0
  1  2  1  0
  2  3  2  0
  2 45  1  0
  3  4  1  0
  4  5  2  0
  4 43  1  0
  5  6  1  0
 11  5  1  1
  6  7  1  0
  6  8  2  3
  8  9  1  0
  9 10  1  0
 11 12  1  0
 11 41  1  0
 12 13  1  6
 12 14  1  0
 14 15  1  0
 15 16  1  1
 15 38  1  0
 16 17  1  0
 17 18  2  0
 17 37  1  0
 18 19  1  0
 19 20  2  0
 20 21  1  0
 20 36  1  0
 21 22  1  0
 22 23  2  0
 22 24  1  0
 24 25  1  6
 24 26  1  0
 26 27  1  0
 27 28  2  0
 27 29  1  0
 29 30  1  0
 31 30  1  1
 31 32  1  0
 31 35  1  0
 32 33  1  0
 33 34  1  0
 34 35  1  0
 36 37  2  0
 38 39  1  0
 39 40  2  0
 39 41  1  0
 41 42  1  0
 42 43  1  0
 43 44  2  0
 44 45  1  0
M  CHG  2  10   1  15   1
M  END
