
     RDKit          3D

 38 40  0  0  0  0  0  0  0  0999 V2000
    1.4510   -6.1680   -2.4120 C   0  0  0  0  0  0  0  0  0  0  0  0
    0.5040   -5.5390   -1.3540 C   0  0  0  0  0  0  0  0  0  0  0  0
    0.8950   -4.1590   -1.0830 C   0  0  0  0  0  0  0  0  0  0  0  0
    1.9430   -3.7900   -1.7420 O   0  0  0  0  0  0  0  0  0  0  0  0
    0.2250   -3.2000   -0.1650 C   0  0  0  0  0  0  0  0  0  0  0  0
   -0.9000   -3.4700    0.4070 C   0  0  0  0  0  0  0  0  0  0  0  0
   -1.8110   -4.6420    0.3960 C   0  0  0  0  0  0  0  0  0  0  0  0
   -3.1210   -4.3090   -0.2970 C   0  0  0  0  0  0  0  0  0  0  0  0
   -1.3090   -2.2420    1.1040 C   0  0  0  0  0  0  0  0  0  0  0  0
   -2.3750   -2.0940    1.7870 O   0  0  0  0  0  0  0  0  0  0  0  0
   -0.3090   -1.2070    0.9010 N   0  0  0  0  0  0  0  0  0  0  0  0
   -0.4060    0.0210    1.5430 C   0  0  0  0  0  0  0  0  0  0  0  0
   -1.1350    1.2090    1.1360 C   0  0  0  0  0  0  0  0  0  0  0  0
   -2.5840    1.1960    0.8560 C   0  0  2  0  0  0  0  0  0  0  0  0
   -3.0500    0.3790   -0.2990 C   0  0  0  0  0  0  0  0  0  0  0  0
   -4.5920    0.4140   -0.2250 C   0  0  0  0  0  0  0  0  0  0  0  0
   -4.9730    1.6970   -0.5300 O   0  0  0  0  0  0  0  0  0  0  0  0
   -4.5060    2.6840    0.2970 C   0  0  1  0  0  0  0  0  0  0  0  0
   -4.8020    4.0170   -0.3600 C   0  0  0  0  0  0  0  0  0  0  0  0
   -5.2430    2.6770    1.6210 C   0  0  0  0  0  0  0  0  0  0  0  0
   -3.0010    2.6460    0.5190 C   0  0  0  0  0  0  0  0  0  0  0  0
    0.7360   -1.8720    0.0500 C   0  0  0  0  0  0  0  0  0  0  0  0
    1.9770   -1.3930    0.2050 C   0  0  0  0  0  0  0  0  0  0  0  0
    3.1770   -2.1720    0.2710 C   0  0  0  0  0  0  0  0  0  0  0  0
    3.3280   -3.5730    0.3630 N   0  0  0  0  0  0  0  0  0  0  0  0
    4.3490   -1.6100    0.2470 O   0  0  0  0  0  0  0  0  0  0  0  0
    2.1910    0.0580   -0.0600 C   0  0  0  0  0  0  0  0  0  0  0  0
    1.2810    0.7390   -0.5830 O   0  0  0  0  0  0  0  0  0  0  0  0
    3.3750    0.7660    0.2450 N   0  0  0  0  0  0  0  0  0  0  0  0
    3.5110    2.1610   -0.0520 C   0  0  0  0  0  0  0  0  0  0  0  0
    4.5010    2.9880    0.1440 C   0  0  0  0  0  0  0  0  0  0  0  0
    5.7700    2.5440    0.7760 C   0  0  0  0  0  0  0  0  0  0  0  0
    6.6770    3.3920    0.9290 O   0  0  0  0  0  0  0  0  0  0  0  0
    6.0270    1.2710    1.2070 O   0  0  0  0  0  0  0  0  0  0  0  0
    4.3010    4.3640   -0.3060 C   0  0  2  0  0  0  0  0  0  0  0  0
    5.0790    5.3160    0.5760 C   0  0  0  0  0  0  0  0  0  0  0  0
    2.8400    4.7440   -0.2740 C   0  0  0  0  0  0  0  0  0  0  0  0
    2.1860    3.1040   -0.8140 S   0  0  0  0  0  0  0  0  0  0  0  0
  1  2  1  0
  2  3  1  0
  3  4  2  0
  3  5  1  0
  5  6  2  0
  5 22  1  0
  6  7  1  0
  6  9  1  0
  7  8  1  0
  9 10  2  0
  9 11  1  0
 11 12  1  0
 11 22  1  0
 12 13  1  0
 14 13  1  6
 14 15  1  0
 14 21  1  0
 15 16  1  0
 16 17  1  0
 17 18  1  0
 18 19  1  6
 18 20  1  0
 18 21  1  0
 22 23  2  3
 23 24  1  0
 23 27  1  0
 24 25  1  0
 24 26  2  0
 27 28  2  0
 27 29  1  0
 29 30  1  0
 30 31  2  0
 30 38  1  0
 31 32  1  0
 31 35  1  0
 32 33  2  0
 32 34  1  0
 35 36  1  1
 35 37  1  0
 37 38  1  0
M  END
