
     RDKit          3D

 38 41  0  0  0  0  0  0  0  0999 V2000
   -3.3590    2.5370    2.3250 C   0  0  0  0  0  0  0  0  0  0  0  0
   -2.8670    2.0530    0.9270 C   0  0  0  0  0  0  0  0  0  0  0  0
   -4.0410    1.6990    0.0770 C   0  0  0  0  0  0  0  0  0  0  0  0
   -3.8500    1.2520   -1.2800 C   0  0  0  0  0  0  0  0  0  0  0  0
   -3.1930    0.0140   -1.7410 C   0  0  2  0  0  0  0  0  0  0  0  0
   -3.7650   -1.2530   -1.3000 C   0  0  0  0  0  0  0  0  0  0  0  0
   -3.1160   -2.2920   -1.0090 O   0  0  0  0  0  0  0  0  0  0  0  0
   -5.1760   -1.3730   -1.1730 N   0  0  0  0  0  0  0  0  0  0  0  0
   -5.8400   -2.5840   -0.7440 C   0  0  1  0  0  0  0  0  0  0  0  0
   -6.7830   -2.2170    0.3770 C   0  0  0  0  0  0  0  0  0  0  0  0
   -8.0390   -1.8640   -0.3820 C   0  0  0  0  0  0  0  0  0  0  0  0
   -8.0520   -2.5990   -1.5340 O   0  0  0  0  0  0  0  0  0  0  0  0
   -6.7950   -3.0390   -1.8190 C   0  0  0  0  0  0  0  0  0  0  0  0
   -1.7620   -0.0070   -1.8890 N   0  0  0  0  0  0  0  0  0  0  0  0
   -1.1490    0.3270   -3.2050 C   0  0  0  0  0  0  0  0  0  0  0  0
   -0.8060   -0.3160   -0.8940 C   0  0  0  0  0  0  0  0  0  0  0  0
   -1.0890   -0.7180    0.2740 O   0  0  0  0  0  0  0  0  0  0  0  0
    0.6640   -0.1820   -1.1730 C   0  0  0  0  0  0  0  0  0  0  0  0
    1.4870   -0.5500    0.0330 C   0  0  0  0  0  0  0  0  0  0  0  0
    2.9270   -0.4400   -0.1930 C   0  0  0  0  0  0  0  0  0  0  0  0
    3.6850    0.4880    0.3570 C   0  0  0  0  0  0  0  0  0  0  0  0
    2.9620    1.4500    1.2270 C   0  0  0  0  0  0  0  0  0  0  0  0
    1.7270    1.4930    1.1840 O   0  0  0  0  0  0  0  0  0  0  0  0
    3.6390    2.3510    2.1220 C   0  0  0  0  0  0  0  0  0  0  0  0
    2.9960    3.1550    2.8480 O   0  0  0  0  0  0  0  0  0  0  0  0
    5.0880    2.2830    2.1410 C   0  0  0  0  0  0  0  0  0  0  0  0
    5.6680    3.0920    2.9380 O   0  0  0  0  0  0  0  0  0  0  0  0
    5.8010    1.3470    1.2980 C   0  0  0  0  0  0  0  0  0  0  0  0
    7.1120    1.2490    1.5410 C   0  0  0  0  0  0  0  0  0  0  0  0
    7.7710    2.0800    2.6180 C   0  0  0  0  0  0  0  0  0  0  0  0
    7.9320    0.3070    0.8940 N   0  0  0  0  0  0  0  0  0  0  0  0
    7.3830   -0.5860   -0.0330 C   0  0  0  0  0  0  0  0  0  0  0  0
    8.0580   -1.4350   -0.6480 O   0  0  0  0  0  0  0  0  0  0  0  0
    5.9130   -0.5220   -0.3050 C   0  0  0  0  0  0  0  0  0  0  0  0
    5.4160   -1.5420   -0.9760 C   0  0  0  0  0  0  0  0  0  0  0  0
    6.2640   -2.6930   -1.4340 C   0  0  0  0  0  0  0  0  0  0  0  0
    3.6980   -1.5820   -1.3710 S   0  0  0  0  0  0  0  0  0  0  0  0
    5.1430    0.6290    0.1750 C   0  0  1  0  0  0  0  0  0  0  0  0
  1  2  1  0
  2  3  1  0
  3  4  1  0
  5  4  1  1
  5  6  1  0
  5 14  1  0
  6  7  2  0
  6  8  1  0
  9  8  1  6
  9 10  1  0
  9 13  1  0
 10 11  1  0
 11 12  1  0
 12 13  1  0
 14 15  1  0
 14 16  1  0
 16 17  2  0
 16 18  1  0
 18 19  1  0
 19 20  1  0
 20 21  2  0
 20 37  1  0
 21 22  1  0
 38 21  1  1
 22 23  2  0
 22 24  1  0
 24 25  2  0
 24 26  1  0
 26 27  2  0
 26 28  1  0
 28 29  2  0
 28 38  1  0
 29 30  1  0
 29 31  1  0
 31 32  1  0
 32 33  2  0
 32 34  1  0
 34 35  2  0
 34 38  1  0
 35 36  1  0
 35 37  1  0
M  END
