
     RDKit          3D

 38 40  0  0  0  0  0  0  0  0999 V2000
    6.6730    0.9480    1.1140 C   0  0  0  0  0  0  0  0  0  0  0  0
    5.9990    1.2340   -0.2190 C   0  0  0  0  0  0  0  0  0  0  0  0
    5.1900    0.0900   -0.6900 C   0  0  0  0  0  0  0  0  0  0  0  0
    3.8980    0.2250   -0.8710 C   0  0  0  0  0  0  0  0  0  0  0  0
    3.1750    1.5230   -0.6170 C   0  0  0  0  0  0  0  0  0  0  0  0
    1.7970    1.3860   -1.1520 C   0  0  0  0  0  0  0  0  0  0  0  0
    0.9640    0.3090   -0.4850 C   0  0  2  0  0  0  0  0  0  0  0  0
    0.6240    0.8080    0.8740 C   0  0  1  0  0  0  0  0  0  0  0  0
    0.0240    2.0590    0.7940 O   0  0  0  0  0  0  0  0  0  0  0  0
   -0.0050   -0.0710    1.8610 C   0  0  0  0  0  0  0  0  0  0  0  0
   -1.4000   -0.1990    1.9920 N   0  0  0  0  0  0  0  0  0  0  0  0
   -2.0520    0.6010    3.0920 C   0  0  0  0  0  0  0  0  0  0  0  0
   -2.6050    1.8520    2.7170 C   0  0  0  0  0  0  0  0  0  0  0  0
   -2.7750    2.6970    3.7050 O   0  0  0  0  0  0  0  0  0  0  0  0
   -3.0180    2.3810    1.5120 O   0  0  0  0  0  0  0  0  0  0  0  0
   -3.5550    3.7260    1.4770 C   0  0  0  0  0  0  0  0  0  0  0  0
   -2.5370    4.7870    1.6830 C   0  0  1  0  0  0  0  0  0  0  0  0
   -1.5050    4.8280    0.5610 C   0  0  0  0  0  0  0  0  0  0  0  0
   -2.9650    6.0810    1.9990 C   0  0  0  0  0  0  0  0  0  0  0  0
   -3.3470    7.1870    2.2560 N   0  0  0  0  0  0  0  0  0  0  0  0
   -2.2590   -1.0310    1.3470 C   0  0  0  0  0  0  0  0  0  0  0  0
   -3.5350   -1.0230    1.5670 O   0  0  0  0  0  0  0  0  0  0  0  0
   -1.9180   -2.0430    0.3420 C   0  0  0  0  0  0  0  0  0  0  0  0
   -1.4940   -3.2850    0.7480 C   0  0  0  0  0  0  0  0  0  0  0  0
   -1.1580   -4.3220   -0.1380 C   0  0  0  0  0  0  0  0  0  0  0  0
   -1.2770   -4.0250   -1.4720 C   0  0  0  0  0  0  0  0  0  0  0  0
   -1.6820   -2.8300   -1.8720 N   0  0  0  0  0  0  0  0  0  0  0  0
   -2.0170   -1.8060   -1.0220 C   0  0  0  0  0  0  0  0  0  0  0  0
   -2.4390   -0.5790   -1.4380 O   0  0  0  0  0  0  0  0  0  0  0  0
   -2.5860   -0.1910   -2.7480 C   0  0  0  0  0  0  0  0  0  0  0  0
   -3.6000   -0.9270   -3.5230 C   0  0  0  0  0  0  0  0  0  0  0  0
   -3.4050   -2.2820   -3.6410 O   0  0  0  0  0  0  0  0  0  0  0  0
   -0.8160   -5.5520   -2.3430 S   0  0  0  0  0  0  0  0  0  0  0  0
   -1.1810   -6.6420   -0.8860 C   0  0  0  0  0  0  0  0  0  0  0  0
   -0.6790   -5.6840    0.1750 C   0  0  0  0  0  0  0  0  0  0  0  0
    1.8580   -0.9350   -0.3700 C   0  0  1  0  0  0  0  0  0  0  0  0
    1.1350   -2.0700   -0.6610 O   0  0  0  0  0  0  0  0  0  0  0  0
    3.0080   -0.8730   -1.3390 C   0  0  0  0  0  0  0  0  0  0  0  0
  1  2  1  0
  2  3  1  0
  3  4  2  3
  4  5  1  0
  4 38  1  0
  5  6  1  0
  7  6  1  6
  7  8  1  0
  7 36  1  0
  8  9  1  6
  8 10  1  0
 10 11  1  0
 11 12  1  0
 11 21  1  0
 12 13  1  0
 13 14  2  0
 13 15  1  0
 15 16  1  0
 16 17  1  0
 17 18  1  6
 17 19  1  0
 19 20  3  0
 21 22  2  0
 21 23  1  0
 23 24  2  0
 23 28  1  0
 24 25  1  0
 25 26  2  0
 25 35  1  0
 26 27  1  0
 26 33  1  0
 27 28  2  0
 28 29  1  0
 29 30  1  0
 30 31  1  0
 31 32  1  0
 33 34  1  0
 34 35  1  0
 36 37  1  6
 36 38  1  0
M  END
