
     RDKit          3D

 38 41  0  0  0  0  0  0  0  0999 V2000
    9.0290    3.4250    2.0870 C   0  0  0  0  0  0  0  0  0  0  0  0
    8.3200    2.2180    2.3640 O   0  0  0  0  0  0  0  0  0  0  0  0
    7.8230    1.4610    1.3100 C   0  0  0  0  0  0  0  0  0  0  0  0
    7.9890    1.8380   -0.0110 C   0  0  0  0  0  0  0  0  0  0  0  0
    7.4730    1.0480   -1.0430 C   0  0  0  0  0  0  0  0  0  0  0  0
    6.7900   -0.1180   -0.7820 C   0  0  0  0  0  0  0  0  0  0  0  0
    6.2710   -0.9120   -1.8180 O   0  0  0  0  0  0  0  0  0  0  0  0
    6.4730   -0.4760   -3.1520 C   0  0  0  0  0  0  0  0  0  0  0  0
    6.6250   -0.4920    0.5320 C   0  0  0  0  0  0  0  0  0  0  0  0
    5.9020   -1.7290    0.8410 C   0  0  0  0  0  0  0  0  0  0  0  0
    4.4400   -1.5810    0.6950 C   0  0  0  0  0  0  0  0  0  0  0  0
    3.9640   -0.4730    0.3390 O   0  0  0  0  0  0  0  0  0  0  0  0
    3.5250   -2.6400    0.9380 N   0  0  0  0  0  0  0  0  0  0  0  0
    2.1370   -2.5140    0.8060 N   0  0  0  0  0  0  0  0  0  0  0  0
    1.5050   -2.1130   -0.4020 C   0  0  0  0  0  0  0  0  0  0  0  0
    2.1980   -1.8550   -1.4110 O   0  0  0  0  0  0  0  0  0  0  0  0
    0.0010   -2.0000   -0.4610 C   0  0  0  0  0  0  0  0  0  0  0  0
   -0.4530   -1.5470   -1.8060 C   0  0  0  0  0  0  0  0  0  0  0  0
   -1.9430   -1.4130   -1.8440 C   0  0  0  0  0  0  0  0  0  0  0  0
   -2.5630   -2.6750   -1.5660 N   0  0  0  0  0  0  0  0  0  0  0  0
   -4.3010   -2.5990   -1.5880 S   0  0  1  0  0  0  0  0  0  0  0  0
   -4.8650   -2.3910   -2.9350 O   0  0  0  0  0  0  0  0  0  0  0  0
   -4.7560   -3.9970   -1.1600 O   0  0  0  0  0  0  0  0  0  0  0  0
   -4.8970   -1.5100   -0.3640 C   0  0  0  0  0  0  0  0  0  0  0  0
   -5.0670   -1.8880    0.9000 C   0  0  0  0  0  0  0  0  0  0  0  0
   -5.5700   -1.0420    1.9720 C   0  0  0  0  0  0  0  0  0  0  0  0
   -5.9150    0.1960    1.7300 C   0  0  0  0  0  0  0  0  0  0  0  0
   -6.4230    1.1420    2.7380 C   0  0  1  0  0  0  0  0  0  0  0  0
   -5.3600    1.7850    3.4150 O   0  0  0  0  0  0  0  0  0  0  0  0
   -7.3320    2.2060    2.2180 C   0  0  0  0  0  0  0  0  0  0  0  0
   -6.8520    2.9230    0.9790 C   0  0  0  0  0  0  0  0  0  0  0  0
   -5.7320    2.1520    0.3000 C   0  0  2  0  0  0  0  0  0  0  0  0
   -5.4650    2.6960   -1.0330 C   0  0  0  0  0  0  0  0  0  0  0  0
   -5.0340    1.9010   -1.9940 C   0  0  0  0  0  0  0  0  0  0  0  0
   -4.8380    0.4660   -1.7750 C   0  0  0  0  0  0  0  0  0  0  0  0
   -5.1280   -0.0680   -0.6170 C   0  0  0  0  0  0  0  0  0  0  0  0
   -5.9360    0.7180    0.3180 C   0  0  1  0  0  0  0  0  0  0  0  0
    7.1370    0.2920    1.5630 C   0  0  0  0  0  0  0  0  0  0  0  0
  1  2  1  0
  2  3  1  0
  3  4  2  0
  3 38  1  0
  4  5  1  0
  5  6  2  0
  6  7  1  0
  6  9  1  0
  7  8  1  0
  9 10  1  0
  9 38  2  0
 10 11  1  0
 11 12  2  0
 11 13  1  0
 13 14  1  0
 14 15  1  0
 15 16  2  0
 15 17  1  0
 17 18  1  0
 18 19  1  0
 19 20  1  0
 21 20  1  6
 21 22  2  0
 21 23  2  0
 21 24  1  0
 24 25  2  0
 24 36  1  0
 25 26  1  0
 26 27  2  0
 27 28  1  0
 37 27  1  1
 28 29  1  6
 28 30  1  0
 30 31  1  0
 32 31  1  6
 32 33  1  0
 32 37  1  0
 33 34  2  0
 34 35  1  0
 35 36  2  0
 36 37  1  0
M  END
