
     RDKit          3D

 20 21  0  0  0  0  0  0  0  0999 V2000
   -3.4640    2.6570    1.2930 O   0  0  0  0  0  0  0  0  0  0  0  0
   -3.7610    1.6300    0.5130 O   0  0  0  0  0  0  0  0  0  0  0  0
   -3.6250    0.4510    1.2250 C   0  0  1  0  0  0  0  0  0  0  0  0
   -4.8810   -0.1300    1.3130 F   0  0  0  0  0  0  0  0  0  0  0  0
   -2.7210   -0.5390    0.5370 C   0  0  1  0  0  0  0  0  0  0  0  0
   -2.6340   -1.6920    1.3090 O   0  0  0  0  0  0  0  0  0  0  0  0
   -3.2990   -0.9130   -0.7900 C   0  0  0  0  0  0  0  0  0  0  0  0
   -2.4160   -1.7910   -1.6090 C   0  0  0  0  0  0  0  0  0  0  0  0
   -1.0610   -1.7490   -1.2500 O   0  0  0  0  0  0  0  0  0  0  0  0
   -0.5470   -0.6710   -0.5860 C   0  0  0  0  0  0  0  0  0  0  0  0
    0.6780   -0.0260   -0.6150 C   0  0  0  0  0  0  0  0  0  0  0  0
    1.8060   -0.3530   -1.4160 N   0  0  0  0  0  0  0  0  0  0  0  0
    3.0340    0.3810   -1.3710 C   0  0  0  0  0  0  0  0  0  0  0  0
    3.5840    0.2930    0.0550 C   0  0  0  0  0  0  0  0  0  0  0  0
    5.1830    1.2220    0.2010 P   0  0  0  0  0  0  0  0  0  0  0  0
    5.3400    1.7710    1.8350 O   0  0  0  0  0  0  0  0  0  0  0  0
    6.5420    0.2030   -0.1440 O   0  0  0  0  0  0  0  0  0  0  0  0
    0.5690    0.9750    0.2740 N   0  0  0  0  0  0  0  0  0  0  0  0
   -0.6210    0.9550    0.8120 O   0  0  0  0  0  0  0  0  0  0  0  0
   -1.3520   -0.0170    0.3380 C   0  0  0  0  0  0  0  0  0  0  0  0
  1  2  1  0
  2  3  1  0
  3  4  1  6
  3  5  1  0
  5  6  1  1
  5  7  1  0
  5 20  1  0
  7  8  1  0
  8  9  1  0
  9 10  1  0
 10 11  1  0
 10 20  2  0
 11 12  1  0
 11 18  2  0
 12 13  1  0
 13 14  1  0
 14 15  1  0
 15 16  1  0
 15 17  1  0
 18 19  1  0
 19 20  1  0
M  END
