
     RDKit          3D

 20 21  0  0  0  0  0  0  0  0999 V2000
   -4.4960   -0.0550    1.9710 O   0  0  0  0  0  0  0  0  0  0  0  0
   -4.1610    0.1550    0.7710 C   0  0  0  0  0  0  0  0  0  0  0  0
   -4.8960    0.9990   -0.0670 O   0  0  0  0  0  0  0  0  0  0  0  0
   -3.9800    1.4490   -1.0430 C   0  0  0  0  0  0  0  0  0  0  0  0
   -4.1970    2.2350   -2.0120 O   0  0  0  0  0  0  0  0  0  0  0  0
   -2.7130    0.8740   -0.7810 N   0  0  0  0  0  0  0  0  0  0  0  0
   -1.3020    0.9100   -0.8930 C   0  0  0  0  0  0  0  0  0  0  0  0
   -0.7150    1.4510   -1.8650 O   0  0  0  0  0  0  0  0  0  0  0  0
   -0.7250    0.2180    0.3070 C   0  0  2  0  0  0  0  0  0  0  0  0
    0.5300   -0.3940    0.0260 N   0  0  0  0  0  0  0  0  0  0  0  0
    0.6630   -1.3830   -1.0220 C   0  0  0  0  0  0  0  0  0  0  0  0
    0.4450   -2.6640   -0.5530 F   0  0  0  0  0  0  0  0  0  0  0  0
    1.6700   -0.0390    0.7780 C   0  0  0  0  0  0  0  0  0  0  0  0
    1.5650    0.8170    1.6890 O   0  0  0  0  0  0  0  0  0  0  0  0
    2.9840   -0.6550    0.5130 C   0  0  0  0  0  0  0  0  0  0  0  0
    3.9780    0.2800   -0.7370 P   0  0  0  0  0  0  0  0  0  0  0  0
    3.5900    1.9680   -0.7310 O   0  0  0  0  0  0  0  0  0  0  0  0
    5.6650    0.0290   -0.4040 O   0  0  0  0  0  0  0  0  0  0  0  0
   -1.8110   -0.7360    0.6720 C   0  0  0  0  0  0  0  0  0  0  0  0
   -3.0450   -0.3480   -0.0240 C   0  0  1  0  0  0  0  0  0  0  0  0
  1  2  2  0
  2  3  1  0
  2 20  1  0
  3  4  1  0
  4  5  2  0
  4  6  1  0
  6  7  1  0
  6 20  1  0
  7  8  2  0
  7  9  1  0
  9 10  1  6
  9 19  1  0
 10 11  1  0
 10 13  1  0
 11 12  1  0
 13 14  2  0
 13 15  1  0
 15 16  1  0
 16 17  1  0
 16 18  1  0
 20 19  1  1
M  END
