
     RDKit          3D

 20 20  0  0  0  0  0  0  0  0999 V2000
   -5.4010    0.2210   -0.4130 C   0  0  0  0  0  0  0  0  0  0  0  0
   -3.9800    0.3880   -0.5310 O   0  0  0  0  0  0  0  0  0  0  0  0
   -3.0880   -0.5070    0.0060 C   0  0  0  0  0  0  0  0  0  0  0  0
   -3.5680   -1.4970    0.6170 O   0  0  0  0  0  0  0  0  0  0  0  0
   -1.6240   -0.3880   -0.0830 C   0  0  2  0  0  0  0  0  0  0  0  0
   -1.2600   -0.3640   -1.5580 C   0  0  0  0  0  0  0  0  0  0  0  0
   -1.7120   -1.5540   -2.1030 F   0  0  0  0  0  0  0  0  0  0  0  0
   -0.9810   -1.4660    0.5680 O   0  0  0  0  0  0  0  0  0  0  0  0
    0.4230   -1.3980    0.6540 C   0  0  0  0  0  0  0  0  0  0  0  0
    1.0610   -2.4930    0.6750 O   0  0  0  0  0  0  0  0  0  0  0  0
    1.0820   -0.1400    0.7150 N   0  0  0  0  0  0  0  0  0  0  0  0
    2.5020   -0.0800    0.8020 C   0  0  0  0  0  0  0  0  0  0  0  0
    3.2070   -0.0310   -0.5190 C   0  0  0  0  0  0  0  0  0  0  0  0
    5.0440    0.0430   -0.1700 P   0  0  0  0  0  0  0  0  0  0  0  0
    5.8480   -1.0610   -1.2330 O   0  0  0  0  0  0  0  0  0  0  0  0
    5.6650    1.6360   -0.3760 O   0  0  0  0  0  0  0  0  0  0  0  0
    0.2650    1.0190    0.6850 C   0  0  0  0  0  0  0  0  0  0  0  0
    0.7460    2.1760    0.7270 O   0  0  0  0  0  0  0  0  0  0  0  0
   -1.2060    0.8890    0.6010 C   0  0  2  0  0  0  0  0  0  0  0  0
   -1.7290    0.8550    1.9510 N   0  0  0  0  0  0  0  0  0  0  0  0
  1  2  1  0
  2  3  1  0
  3  4  2  0
  3  5  1  0
  5  6  1  6
  5  8  1  0
  5 19  1  0
  6  7  1  0
  8  9  1  0
  9 10  2  0
  9 11  1  0
 11 12  1  0
 11 17  1  0
 12 13  1  0
 13 14  1  0
 14 15  1  0
 14 16  1  0
 17 18  2  0
 17 19  1  0
 19 20  1  1
M  END
