
     RDKit          3D

 20 21  0  0  0  0  0  0  0  0999 V2000
   -2.0430    0.8550    1.8410 O   0  0  0  0  0  0  0  0  0  0  0  0
   -2.2740    0.1920    0.7840 C   0  0  0  0  0  0  0  0  0  0  0  0
   -1.1470   -0.2800    0.0530 N   0  0  0  0  0  0  0  0  0  0  0  0
    0.2120   -0.0320    0.4680 C   0  0  0  0  0  0  0  0  0  0  0  0
    1.1670   -0.6630   -0.5190 C   0  0  0  0  0  0  0  0  0  0  0  0
    2.4790   -0.4300   -0.1280 O   0  0  0  0  0  0  0  0  0  0  0  0
    3.5780   -1.1480   -1.2500 P   0  0  0  0  0  0  0  0  0  0  0  0
    3.8440   -2.8070   -0.8120 O   0  0  0  0  0  0  0  0  0  0  0  0
    5.0740   -0.3020   -1.2700 O   0  0  0  0  0  0  0  0  0  0  0  0
    5.1880    0.5300   -0.1530 C   0  0  1  0  0  0  0  0  0  0  0  0
    6.4000    0.1590    0.6860 C   0  0  0  0  0  0  0  0  0  0  0  0
    7.2580    1.2250    0.4190 O   0  0  0  0  0  0  0  0  0  0  0  0
    6.4090    2.2300    0.3400 O   0  0  0  0  0  0  0  0  0  0  0  0
    5.4820    1.8400   -0.5160 O   0  0  0  0  0  0  0  0  0  0  0  0
   -3.6160   -0.1060    0.2890 C   0  0  2  0  0  0  0  0  0  0  0  0
   -3.9160    0.5770   -1.0470 C   0  0  0  0  0  0  0  0  0  0  0  0
   -5.4160    0.3560   -1.1350 C   0  0  2  0  0  0  0  0  0  0  0  0
   -6.0460    1.3580   -1.8300 F   0  0  0  0  0  0  0  0  0  0  0  0
   -5.8620    0.2380    0.2900 C   0  0  0  0  0  0  0  0  0  0  0  0
   -4.6680    0.4260    1.1180 N   0  0  0  0  0  0  0  0  0  0  0  0
  1  2  2  0
  2  3  1  0
 15  2  1  1
  3  4  1  0
  4  5  1  0
  5  6  1  0
  6  7  1  0
  7  8  1  0
  7  9  1  0
 10  9  1  6
 10 11  1  0
 10 14  1  0
 11 12  1  0
 12 13  1  0
 13 14  1  0
 15 16  1  0
 15 20  1  0
 16 17  1  0
 17 18  1  1
 17 19  1  0
 19 20  1  0
M  END
