
     RDKit          3D

 21 22  0  0  0  0  0  0  0  0999 V2000
    6.3090    1.6110    1.6910 O   0  0  0  0  0  0  0  0  0  0  0  0
    5.7590    0.7480    0.9130 C   0  0  0  0  0  0  0  0  0  0  0  0
    4.5170    1.0350    0.2650 N   0  0  0  0  0  0  0  0  0  0  0  0
    4.0020    0.1360   -0.4750 C   0  0  0  0  0  0  0  0  0  0  0  0
    2.7650    0.6520   -1.0750 O   0  0  0  0  0  0  0  0  0  0  0  0
    1.6490    0.8460   -0.1630 C   0  0  0  0  0  0  0  0  0  0  0  0
    1.7480    0.5750    1.0380 O   0  0  0  0  0  0  0  0  0  0  0  0
    0.5010    1.3680   -0.7880 N   0  0  0  0  0  0  0  0  0  0  0  0
   -0.7450    1.6400   -0.2340 C   0  0  0  0  0  0  0  0  0  0  0  0
   -1.3370    0.2840    0.2350 C   0  0  0  0  0  0  0  0  0  0  0  0
   -2.6180    0.7150    0.6520 O   0  0  0  0  0  0  0  0  0  0  0  0
   -3.7190   -0.1360   -0.4390 P   0  0  0  0  0  0  0  0  0  0  0  0
   -4.2470   -1.5880    0.2320 O   0  0  0  0  0  0  0  0  0  0  0  0
   -5.5930   -1.3120    0.5370 C   0  0  0  0  0  0  0  0  0  0  0  0
   -6.1650   -0.2440   -0.2940 C   0  0  0  0  0  0  0  0  0  0  0  0
   -5.1910    0.7680   -0.4610 O   0  0  0  0  0  0  0  0  0  0  0  0
    4.4600   -1.1990   -0.7980 C   0  0  1  0  0  0  0  0  0  0  0  0
    4.5830   -1.4580   -2.1550 F   0  0  0  0  0  0  0  0  0  0  0  0
    5.8030   -1.3900   -0.1250 C   0  0  0  0  0  0  0  0  0  0  0  0
    6.3860   -2.4910   -0.3950 O   0  0  0  0  0  0  0  0  0  0  0  0
    6.3530   -0.4660    0.6960 O   0  0  0  0  0  0  0  0  0  0  0  0
  1  2  2  0
  2  3  1  0
  2 21  1  0
  3  4  2  0
  4  5  1  0
  4 17  1  0
  5  6  1  0
  6  7  2  0
  6  8  1  0
  8  9  1  0
  9 10  1  0
 10 11  1  0
 11 12  1  0
 12 13  1  0
 12 16  1  0
 13 14  1  0
 14 15  1  0
 15 16  1  0
 17 18  1  6
 17 19  1  0
 19 20  2  0
 19 21  1  0
M  END
