
     RDKit          3D

 39 42  0  0  0  0  0  0  0  0999 V2000
   -0.0780   -4.7580   -2.7760 C   0  0  0  0  0  0  0  0  0  0  0  0
   -1.0300   -3.6070   -2.7810 C   0  0  0  0  0  0  0  0  0  0  0  0
   -2.3810   -3.7830   -2.6340 C   0  0  0  0  0  0  0  0  0  0  0  0
   -3.2160   -2.7000   -2.6410 C   0  0  0  0  0  0  0  0  0  0  0  0
   -4.6770   -2.9410   -2.5830 C   0  0  0  0  0  0  0  0  0  0  0  0
   -2.7050   -1.4380   -2.7910 C   0  0  0  0  0  0  0  0  0  0  0  0
   -3.4310   -0.2960   -2.7970 O   0  0  0  0  0  0  0  0  0  0  0  0
   -3.6980    0.6360   -1.8580 C   0  0  0  0  0  0  0  0  0  0  0  0
   -4.3450    0.2070   -0.6240 C   0  0  0  0  0  0  0  0  0  0  0  0
   -4.6040   -0.9580   -0.3310 O   0  0  0  0  0  0  0  0  0  0  0  0
   -4.7420    1.1790    0.3800 N   0  0  0  0  0  0  0  0  0  0  0  0
   -5.3790    0.8080    1.6010 C   0  0  2  0  0  0  0  0  0  0  0  0
   -6.6530    1.5720    1.9250 C   0  0  2  0  0  0  0  0  0  0  0  0
   -7.0770    2.7490    1.1170 C   0  0  0  0  0  0  0  0  0  0  0  0
   -5.4090    1.6690    2.7930 C   0  0  2  0  0  0  0  0  0  0  0  0
   -4.7620    3.0150    2.8510 C   0  0  0  0  0  0  0  0  0  0  0  0
   -5.4610    0.9350    4.0900 C   0  0  0  0  0  0  0  0  0  0  0  0
   -5.9790   -0.2030    4.1550 O   0  0  0  0  0  0  0  0  0  0  0  0
   -4.9420    1.4820    5.2500 O   0  0  0  0  0  0  0  0  0  0  0  0
   -1.2990   -1.2540   -2.9490 C   0  0  0  0  0  0  0  0  0  0  0  0
   -0.8230    0.0460   -3.1830 N   0  0  0  0  0  0  0  0  0  0  0  0
    0.5530    0.3740   -3.2120 C   0  0  0  0  0  0  0  0  0  0  0  0
    1.4770   -0.4340   -3.0330 O   0  0  0  0  0  0  0  0  0  0  0  0
    0.9720    1.8010   -3.4800 C   0  0  0  0  0  0  0  0  0  0  0  0
    2.4600    1.8560   -3.5600 C   0  0  0  0  0  0  0  0  0  0  0  0
    2.9930    1.4070   -2.3030 O   0  0  0  0  0  0  0  0  0  0  0  0
    4.3560    1.3530   -2.1010 C   0  0  0  0  0  0  0  0  0  0  0  0
    5.1390    1.6820   -2.9790 O   0  0  0  0  0  0  0  0  0  0  0  0
    4.9170    0.8880   -0.8040 C   0  0  0  0  0  0  0  0  0  0  0  0
    6.1900    0.7640   -0.4290 C   0  0  0  0  0  0  0  0  0  0  0  0
    6.4600    0.3140    0.8150 C   0  0  0  0  0  0  0  0  0  0  0  0
    5.4560    0.0050    1.6430 C   0  0  0  0  0  0  0  0  0  0  0  0
    4.0090    0.3810    0.5720 S   0  0  0  0  0  0  0  0  0  0  0  0
    5.4760   -0.4910    3.0080 C   0  0  0  0  0  0  0  0  0  0  0  0
    6.8500   -0.8150    3.4580 C   0  0  2  0  0  0  0  0  0  0  0  0
    7.4990    0.2770    4.2680 C   0  0  0  0  0  0  0  0  0  0  0  0
    7.7090   -1.1480    2.2630 C   0  0  0  0  0  0  0  0  0  0  0  0
    7.8510    0.0980    1.4310 C   0  0  0  0  0  0  0  0  0  0  0  0
   -0.4700   -2.3370   -2.9430 C   0  0  0  0  0  0  0  0  0  0  0  0
  1  2  1  0
  2  3  2  0
  2 39  1  0
  3  4  1  0
  4  5  1  0
  4  6  2  0
  6  7  1  0
  6 20  1  0
  7  8  1  0
  8  9  1  0
  9 10  2  0
  9 11  1  0
 12 11  1  6
 12 13  1  0
 12 15  1  0
 13 14  1  6
 13 15  1  0
 15 16  1  1
 15 17  1  0
 17 18  2  0
 17 19  1  0
 20 21  1  0
 20 39  2  0
 21 22  1  0
 22 23  2  0
 22 24  1  0
 24 25  1  0
 25 26  1  0
 26 27  1  0
 27 28  2  0
 27 29  1  0
 29 30  2  0
 29 33  1  0
 30 31  1  0
 31 32  2  0
 31 38  1  0
 32 33  1  0
 32 34  1  0
 34 35  1  0
 35 36  1  6
 35 37  1  0
 37 38  1  0
M  END
