
     RDKit          3D

 39 42  0  0  0  0  0  0  0  0999 V2000
    8.0970    2.7360    1.8510 C   0  0  0  0  0  0  0  0  0  0  0  0
    7.4680    1.5900    2.1170 C   0  0  0  0  0  0  0  0  0  0  0  0
    8.1900    0.2870    2.1710 C   0  0  0  0  0  0  0  0  0  0  0  0
    7.7270   -0.6230    1.2610 O   0  0  0  0  0  0  0  0  0  0  0  0
    7.8180   -0.2390   -0.0670 C   0  0  1  0  0  0  0  0  0  0  0  0
    8.4710   -1.2750   -0.9370 C   0  0  0  0  0  0  0  0  0  0  0  0
    7.7790   -2.6000   -0.8940 C   0  0  0  0  0  0  0  0  0  0  0  0
    6.4460   -2.5650   -0.1660 C   0  0  0  0  0  0  0  0  0  0  0  0
    5.7130   -1.3490   -0.5730 C   0  0  0  0  0  0  0  0  0  0  0  0
    4.4820   -1.1230   -0.9960 N   0  0  0  0  0  0  0  0  0  0  0  0
    4.4090    0.2240   -1.2160 C   0  0  0  0  0  0  0  0  0  0  0  0
    3.1840    0.8480   -1.6940 C   0  0  0  0  0  0  0  0  0  0  0  0
    3.2650    1.8800   -2.6280 O   0  0  0  0  0  0  0  0  0  0  0  0
    2.0010    0.4610   -1.2660 C   0  0  0  0  0  0  0  0  0  0  0  0
    0.6610    0.9210   -1.5890 C   0  0  0  0  0  0  0  0  0  0  0  0
   -0.2140    0.5620   -0.6800 C   0  0  0  0  0  0  0  0  0  0  0  0
   -1.6420    0.8550   -0.6880 C   0  0  0  0  0  0  0  0  0  0  0  0
   -2.1600    1.5150   -1.6390 O   0  0  0  0  0  0  0  0  0  0  0  0
   -2.5020    0.4260    0.3460 N   0  0  0  0  0  0  0  0  0  0  0  0
   -3.9290    0.7400    0.3050 C   0  0  2  0  0  0  0  0  0  0  0  0
   -4.2340    1.6750    1.4270 C   0  0  0  0  0  0  0  0  0  0  0  0
   -5.6230    2.0750    1.5180 C   0  0  0  0  0  0  0  0  0  0  0  0
   -6.3460    3.0900    0.9650 C   0  0  0  0  0  0  0  0  0  0  0  0
   -7.6460    3.2250    1.2520 C   0  0  0  0  0  0  0  0  0  0  0  0
   -8.2290    2.3380    2.0970 C   0  0  0  0  0  0  0  0  0  0  0  0
   -9.6250    2.2300    2.5990 C   0  0  0  0  0  0  0  0  0  0  0  0
   -6.9190    1.2620    2.5210 S   0  0  0  0  0  0  0  0  0  0  0  0
   -4.7360   -0.5300    0.3210 C   0  0  1  0  0  0  0  0  0  0  0  0
   -4.5540   -1.2900    1.6320 C   0  0  0  0  0  0  0  0  0  0  0  0
   -6.0910   -0.2110    0.2640 O   0  0  0  0  0  0  0  0  0  0  0  0
   -4.3500   -1.4590   -0.7570 C   0  0  0  0  0  0  0  0  0  0  0  0
   -3.1680   -1.8550   -0.8300 O   0  0  0  0  0  0  0  0  0  0  0  0
   -5.2630   -1.9030   -1.6880 O   0  0  0  0  0  0  0  0  0  0  0  0
   -4.8890   -2.8080   -2.7380 C   0  0  0  0  0  0  0  0  0  0  0  0
   -6.1110   -3.0860   -3.5710 C   0  0  0  0  0  0  0  0  0  0  0  0
    0.4930   -0.2140    0.3780 C   0  0  0  0  0  0  0  0  0  0  0  0
    1.8090   -0.6330   -0.2580 C   0  0  0  0  0  0  0  0  0  0  0  0
    5.5620    0.7550   -0.9280 O   0  0  0  0  0  0  0  0  0  0  0  0
    6.3900   -0.1480   -0.5340 C   0  0  0  0  0  0  0  0  0  0  0  0
  1  2  2  0
  2  3  1  0
  3  4  1  0
  5  4  1  1
  5  6  1  0
  5 39  1  0
  6  7  1  0
  7  8  1  0
  8  9  1  0
  9 10  1  0
  9 39  2  0
 10 11  2  0
 11 12  1  0
 11 38  1  0
 12 13  1  0
 12 14  2  3
 14 15  1  0
 14 37  1  0
 15 16  2  0
 16 17  1  0
 16 36  1  0
 17 18  2  0
 17 19  1  0
 19 20  1  0
 20 21  1  1
 20 28  1  0
 21 22  1  0
 22 23  2  0
 22 27  1  0
 23 24  1  0
 24 25  2  0
 25 26  1  0
 25 27  1  0
 28 29  1  1
 28 30  1  0
 28 31  1  0
 31 32  2  0
 31 33  1  0
 33 34  1  0
 34 35  1  0
 36 37  1  0
 38 39  1  0
M  END
