
     RDKit          3D

 39 41  0  0  0  0  0  0  0  0999 V2000
    2.7410    4.1860   -0.4800 C   0  0  0  0  0  0  0  0  0  0  0  0
    4.1040    3.5700   -0.4990 C   0  0  0  0  0  0  0  0  0  0  0  0
    4.1300    2.1040   -0.1510 C   0  0  0  0  0  0  0  0  0  0  0  0
    3.5880    1.8220    1.2440 C   0  0  0  0  0  0  0  0  0  0  0  0
    3.6920    0.3400    1.4440 C   0  0  0  0  0  0  0  0  0  0  0  0
    2.9150   -0.4320    0.4740 N   0  0  0  0  0  0  0  0  0  0  0  0
    3.0040   -1.8550    0.5530 C   0  0  0  0  0  0  0  0  0  0  0  0
    3.7640   -2.3260    1.4700 O   0  0  0  0  0  0  0  0  0  0  0  0
    2.2750   -2.7720   -0.3630 C   0  0  2  0  0  0  0  0  0  0  0  0
    0.9060   -3.1360    0.1000 C   0  0  0  0  0  0  0  0  0  0  0  0
   -0.0780   -2.0840    0.2660 C   0  0  0  0  0  0  0  0  0  0  0  0
   -0.3570   -1.5950    1.5300 C   0  0  0  0  0  0  0  0  0  0  0  0
   -1.2830   -0.6150    1.7580 C   0  0  0  0  0  0  0  0  0  0  0  0
   -2.0190   -0.0410    0.7020 C   0  0  0  0  0  0  0  0  0  0  0  0
   -2.9650    0.9520    1.0800 N   0  0  0  0  0  0  0  0  0  0  0  0
   -2.4750    2.1110    1.7270 C   0  0  0  0  0  0  0  0  0  0  0  0
   -3.2970    2.9350    2.2220 O   0  0  0  0  0  0  0  0  0  0  0  0
   -1.0730    2.4210    1.8590 C   0  0  0  0  0  0  0  0  0  0  0  0
   -0.1260    1.7140    1.3900 O   0  0  0  0  0  0  0  0  0  0  0  0
   -0.6280    3.5730    2.5390 O   0  0  0  0  0  0  0  0  0  0  0  0
   -4.3710    0.8550    0.8970 C   0  0  0  0  0  0  0  0  0  0  0  0
   -5.0540   -0.2240    1.4540 C   0  0  0  0  0  0  0  0  0  0  0  0
   -6.4210   -0.3530    1.3660 C   0  0  0  0  0  0  0  0  0  0  0  0
   -7.1620    0.5980    0.7160 C   0  0  0  0  0  0  0  0  0  0  0  0
   -6.5010    1.6650    0.1620 C   0  0  0  0  0  0  0  0  0  0  0  0
   -5.1080    1.8120    0.2400 C   0  0  0  0  0  0  0  0  0  0  0  0
   -4.5780    2.9640   -0.4520 C   0  0  0  0  0  0  0  0  0  0  0  0
   -5.3650    3.8050   -0.9710 O   0  0  0  0  0  0  0  0  0  0  0  0
   -3.2410    3.2280   -0.6030 O   0  0  0  0  0  0  0  0  0  0  0  0
   -1.7600   -0.5070   -0.5380 C   0  0  0  0  0  0  0  0  0  0  0  0
   -2.4700    0.0080   -1.6100 C   0  0  0  0  0  0  0  0  0  0  0  0
   -2.2280   -0.4730   -2.8780 C   0  0  0  0  0  0  0  0  0  0  0  0
   -1.3030   -1.4480   -3.1000 C   0  0  0  0  0  0  0  0  0  0  0  0
   -0.5910   -1.9690   -2.0370 C   0  0  0  0  0  0  0  0  0  0  0  0
   -0.8060   -1.5120   -0.7590 C   0  0  0  0  0  0  0  0  0  0  0  0
    3.0540   -4.0400   -0.4280 N   0  0  0  0  0  0  0  0  0  0  0  0
    3.6180   -4.4190   -1.6820 C   0  0  0  0  0  0  0  0  0  0  0  0
    4.4160   -5.6900   -1.8100 C   0  0  0  0  0  0  0  0  0  0  0  0
    3.4220   -3.6550   -2.6570 O   0  0  0  0  0  0  0  0  0  0  0  0
  1  2  1  0
  2  3  1  0
  3  4  1  0
  4  5  1  0
  5  6  1  0
  6  7  1  0
  7  8  2  0
  7  9  1  0
  9 10  1  1
  9 36  1  0
 10 11  1  0
 11 12  2  0
 11 35  1  0
 12 13  1  0
 13 14  2  0
 14 15  1  0
 14 30  1  0
 15 16  1  0
 15 21  1  0
 16 17  2  0
 16 18  1  0
 18 19  2  0
 18 20  1  0
 21 22  2  0
 21 26  1  0
 22 23  1  0
 23 24  2  0
 24 25  1  0
 25 26  2  0
 26 27  1  0
 27 28  2  0
 27 29  1  0
 30 31  2  0
 30 35  1  0
 31 32  1  0
 32 33  2  0
 33 34  1  0
 34 35  2  0
 36 37  1  0
 37 38  1  0
 37 39  2  0
M  END
