
     RDKit          3D

 10 11  0  0  0  0  0  0  0  0999 V2000
   -1.2860    1.8880   -0.1000 N   0  0  0  0  0  0  0  0  0  0  0  0
   -1.0230    0.4900   -0.0480 C   0  0  0  0  0  0  0  0  0  0  0  0
   -2.0080   -0.4240   -0.0470 N   0  0  0  0  0  0  0  0  0  0  0  0
   -1.7540   -1.7420    0.0020 C   0  0  0  0  0  0  0  0  0  0  0  0
   -0.4770   -2.1420    0.0520 N   0  0  0  0  0  0  0  0  0  0  0  0
    0.5690   -1.2920    0.0550 C   0  0  0  0  0  0  0  0  0  0  0  0
    1.9050   -1.4090    0.0970 N   0  0  0  0  0  0  0  0  0  0  0  0
    2.4960   -0.2050    0.0750 C   0  0  0  0  0  0  0  0  0  0  0  0
    1.4860    0.6830    0.0180 N   0  0  0  0  0  0  0  0  0  0  0  0
    0.2960    0.0580    0.0040 C   0  0  0  0  0  0  0  0  0  0  0  0
  1  2  1  0
  2  3  2  0
  2 10  1  0
  3  4  1  0
  4  5  2  0
  5  6  1  0
  6  7  1  0
  6 10  2  0
  7  8  2  0
  8  9  1  0
  9 10  1  0
M  END
