
     RDKit          3D

 10 11  0  0  0  0  0  0  0  0999 V2000
    3.0170    0.2260   -0.3110 N   0  0  0  0  0  0  0  0  0  0  0  0
    1.6460    0.0430   -0.0480 C   0  0  0  0  0  0  0  0  0  0  0  0
    1.1960   -0.6770    1.0460 C   0  0  0  0  0  0  0  0  0  0  0  0
   -0.1270   -0.8180    1.2460 N   0  0  0  0  0  0  0  0  0  0  0  0
   -1.0250   -0.2710    0.4010 C   0  0  0  0  0  0  0  0  0  0  0  0
   -2.4020   -0.2440    0.3450 C   0  0  0  0  0  0  0  0  0  0  0  0
   -2.7930    0.4670   -0.7450 N   0  0  0  0  0  0  0  0  0  0  0  0
   -1.7040    0.8720   -1.3500 N   0  0  0  0  0  0  0  0  0  0  0  0
   -0.5960    0.4530   -0.6980 C   0  0  0  0  0  0  0  0  0  0  0  0
    0.7280    0.5880   -0.8890 N   0  0  0  0  0  0  0  0  0  0  0  0
  1  2  1  0
  2  3  1  0
  2 10  2  0
  3  4  2  0
  4  5  1  0
  5  6  2  0
  5  9  1  0
  6  7  1  0
  7  8  1  0
  8  9  2  0
  9 10  1  0
M  END
