
     RDKit          3D

 10 11  0  0  0  0  0  0  0  0999 V2000
    3.0900   -0.3180   -0.0740 N   0  0  0  0  0  0  0  0  0  0  0  0
    1.6640   -0.2900    0.0360 C   0  0  0  0  0  0  0  0  0  0  0  0
    0.8460   -1.1470    0.6610 N   0  0  0  0  0  0  0  0  0  0  0  0
   -0.4380   -0.7620    0.5290 C   0  0  0  0  0  0  0  0  0  0  0  0
   -1.6360   -1.2210    0.9320 N   0  0  0  0  0  0  0  0  0  0  0  0
   -2.7940   -0.6300    0.6560 C   0  0  0  0  0  0  0  0  0  0  0  0
   -2.7770    0.5020   -0.0730 N   0  0  0  0  0  0  0  0  0  0  0  0
   -1.6120    1.0370   -0.5210 C   0  0  0  0  0  0  0  0  0  0  0  0
   -0.4140    0.4030   -0.2220 C   0  0  0  0  0  0  0  0  0  0  0  0
    0.8760    0.6660   -0.5070 N   0  0  0  0  0  0  0  0  0  0  0  0
  1  2  1  0
  2  3  2  0
  2 10  1  0
  3  4  1  0
  4  5  2  0
  4  9  1  0
  5  6  1  0
  6  7  2  0
  7  8  1  0
  8  9  2  0
  9 10  1  0
M  END
