
     RDKit          3D

 10 11  0  0  0  0  0  0  0  0999 V2000
   -2.3060   -0.8570   -0.3790 N   0  0  0  0  0  0  0  0  0  0  0  0
   -1.1450   -0.0600   -0.1970 C   0  0  0  0  0  0  0  0  0  0  0  0
   -1.1930    1.3200   -0.2390 C   0  0  0  0  0  0  0  0  0  0  0  0
   -0.0710    2.0600   -0.0620 N   0  0  0  0  0  0  0  0  0  0  0  0
    1.1180    1.4860    0.1580 C   0  0  0  0  0  0  0  0  0  0  0  0
    1.2490    0.1220    0.2130 C   0  0  0  0  0  0  0  0  0  0  0  0
    2.2870   -0.7010    0.4130 N   0  0  0  0  0  0  0  0  0  0  0  0
    1.8320   -1.9140    0.3630 N   0  0  0  0  0  0  0  0  0  0  0  0
    0.5150   -1.9230    0.1350 N   0  0  0  0  0  0  0  0  0  0  0  0
    0.0870   -0.6360    0.0300 C   0  0  0  0  0  0  0  0  0  0  0  0
  1  2  1  0
  2  3  2  0
  2 10  1  0
  3  4  1  0
  4  5  2  0
  5  6  1  0
  6  7  1  0
  6 10  2  0
  7  8  1  0
  8  9  2  0
  9 10  1  0
M  END
