
     RDKit          3D

 10 11  0  0  0  0  0  0  0  0999 V2000
   -2.5010   -0.8320   -0.0240 C   0  0  0  0  0  0  0  0  0  0  0  0
   -1.4760    0.2020    0.0530 N   0  0  0  0  0  0  0  0  0  0  0  0
   -1.6150    1.4940    0.1870 N   0  0  0  0  0  0  0  0  0  0  0  0
   -0.4330    2.1280    0.2200 C   0  0  0  0  0  0  0  0  0  0  0  0
    0.5490    1.1500    0.0950 C   0  0  0  0  0  0  0  0  0  0  0  0
    1.8720    0.9020    0.0350 N   0  0  0  0  0  0  0  0  0  0  0  0
    1.9980   -0.4240   -0.1020 C   0  0  0  0  0  0  0  0  0  0  0  0
    3.1520   -1.0350   -0.1950 N   0  0  0  0  0  0  0  0  0  0  0  0
    0.7920   -1.0160   -0.1300 N   0  0  0  0  0  0  0  0  0  0  0  0
   -0.1360   -0.0470   -0.0080 C   0  0  0  0  0  0  0  0  0  0  0  0
  1  2  1  0
  2  3  1  0
  2 10  1  0
  3  4  2  0
  4  5  1  0
  5  6  1  0
  5 10  2  0
  6  7  1  0
  7  8  2  0
  7  9  1  0
  9 10  1  0
M  END
