
     RDKit          3D

 10 11  0  0  0  0  0  0  0  0999 V2000
    3.0080   -0.8550    0.1380 N   0  0  0  0  0  0  0  0  0  0  0  0
    1.7000   -0.2690    0.1360 C   0  0  0  0  0  0  0  0  0  0  0  0
    1.5340    1.0190    0.4810 N   0  0  0  0  0  0  0  0  0  0  0  0
    0.3150    1.6080    0.4910 C   0  0  0  0  0  0  0  0  0  0  0  0
   -0.8120    0.8960    0.1450 C   0  0  0  0  0  0  0  0  0  0  0  0
   -2.1150    1.1570    0.0520 N   0  0  0  0  0  0  0  0  0  0  0  0
   -2.7990    0.0880   -0.3390 N   0  0  0  0  0  0  0  0  0  0  0  0
   -1.8980   -0.8950   -0.5020 C   0  0  0  0  0  0  0  0  0  0  0  0
   -0.6320   -0.4340   -0.2090 C   0  0  0  0  0  0  0  0  0  0  0  0
    0.6070   -0.9730   -0.2030 N   0  0  0  0  0  0  0  0  0  0  0  0
  1  2  1  0
  2  3  1  0
  2 10  2  0
  3  4  2  0
  4  5  1  0
  5  6  2  0
  5  9  1  0
  6  7  1  0
  7  8  1  0
  8  9  2  0
  9 10  1  0
M  END
