
     RDKit          3D

 44 48  0  0  0  0  0  0  0  0999 V2000
   -9.0940    1.9210    0.6070 N   0  0  0  0  0  0  0  0  0  0  0  0
   -9.4760    0.7260    1.2460 C   0  0  0  0  0  0  0  0  0  0  0  0
  -10.5420    0.7010    1.9080 O   0  0  0  0  0  0  0  0  0  0  0  0
   -8.6850   -0.4950    1.1750 C   0  0  0  0  0  0  0  0  0  0  0  0
   -9.0760   -1.6550    1.8070 C   0  0  0  0  0  0  0  0  0  0  0  0
   -8.2570   -2.7600    1.6780 C   0  0  0  0  0  0  0  0  0  0  0  0
   -7.0930   -2.6870    0.9420 C   0  0  0  0  0  0  0  0  0  0  0  0
   -6.7030   -1.5510    0.3190 N   0  0  0  0  0  0  0  0  0  0  0  0
   -5.4850   -1.5410   -0.4300 C   0  0  2  0  0  0  0  0  0  0  0  0
   -4.4270   -0.9430    0.2700 O   0  0  0  0  0  0  0  0  0  0  0  0
   -3.4540   -0.8860   -0.7260 C   0  0  2  0  0  0  0  0  0  0  0  0
   -2.2340   -0.1070   -0.3000 C   0  0  0  0  0  0  0  0  0  0  0  0
   -2.5510    1.2090    0.0250 O   0  0  0  0  0  0  0  0  0  0  0  0
   -1.2200    2.0950    0.5010 P   0  0  1  0  0  0  0  0  0  0  0  0
   -1.6620    3.0730    1.5860 O   0  0  0  0  0  0  0  0  0  0  0  0
   -0.0790    1.0600    1.1940 O   0  0  0  0  0  0  0  0  0  0  0  0
   -0.4850    2.9400   -0.7360 O   0  0  0  0  0  0  0  0  0  0  0  0
    1.1730    3.1060   -0.5390 P   0  0  1  0  0  0  0  0  0  0  0  0
    1.5960    4.3570   -1.3140 O   0  0  0  0  0  0  0  0  0  0  0  0
    1.6380    3.3040    1.0550 O   0  0  0  0  0  0  0  0  0  0  0  0
    1.9520    1.7670   -1.1860 O   0  0  0  0  0  0  0  0  0  0  0  0
    3.3180    1.7880   -0.9880 C   0  0  0  0  0  0  0  0  0  0  0  0
    3.8740    0.5170   -1.6270 C   0  0  1  0  0  0  0  0  0  0  0  0
    5.2250    0.5140   -1.4450 O   0  0  0  0  0  0  0  0  0  0  0  0
    5.5780   -0.4740   -0.5680 C   0  0  1  0  0  0  0  0  0  0  0  0
    6.5920   -0.0460    0.3860 N   0  0  0  0  0  0  0  0  0  0  0  0
    6.4000    0.6960    1.4910 C   0  0  0  0  0  0  0  0  0  0  0  0
    7.6000    0.8760    2.1100 N   0  0  0  0  0  0  0  0  0  0  0  0
    8.5500    0.2530    1.4030 C   0  0  0  0  0  0  0  0  0  0  0  0
    9.9090    0.1380    1.6070 C   0  0  0  0  0  0  0  0  0  0  0  0
   10.5600    0.7330    2.7190 N   0  0  0  0  0  0  0  0  0  0  0  0
   10.6120   -0.5670    0.7010 N   0  0  0  0  0  0  0  0  0  0  0  0
   10.0060   -1.1460   -0.3730 C   0  0  0  0  0  0  0  0  0  0  0  0
    8.6830   -1.0190   -0.5470 N   0  0  0  0  0  0  0  0  0  0  0  0
    7.9060   -0.3250    0.3180 C   0  0  0  0  0  0  0  0  0  0  0  0
    4.3410   -0.9390    0.1510 C   0  0  2  0  0  0  0  0  0  0  0  0
    4.3710   -2.2920    0.4640 O   0  0  0  0  0  0  0  0  0  0  0  0
    3.2740   -0.6500   -0.9140 C   0  0  2  0  0  0  0  0  0  0  0  0
    3.1550   -1.7090   -1.7990 O   0  0  0  0  0  0  0  0  0  0  0  0
   -4.2200   -0.1240   -1.8160 C   0  0  1  0  0  0  0  0  0  0  0  0
   -3.6240   -0.2740   -3.0480 O   0  0  0  0  0  0  0  0  0  0  0  0
   -5.5690   -0.8390   -1.7480 C   0  0  1  0  0  0  0  0  0  0  0  0
   -5.6780   -1.7150   -2.8250 O   0  0  0  0  0  0  0  0  0  0  0  0
   -7.5040   -0.4790    0.4460 C   0  0  0  0  0  0  0  0  0  0  0  0
  1  2  1  0
  2  3  2  0
  2  4  1  0
  4  5  2  0
  4 44  1  0
  5  6  1  0
  6  7  2  0
  7  8  1  0
  9  8  1  1
  8 44  2  0
  9 10  1  0
  9 42  1  0
 10 11  1  0
 11 12  1  1
 11 40  1  0
 12 13  1  0
 13 14  1  0
 14 15  2  0
 14 16  1  1
 14 17  1  0
 17 18  1  0
 18 19  2  0
 18 20  1  1
 18 21  1  0
 21 22  1  0
 23 22  1  1
 23 24  1  0
 23 38  1  0
 24 25  1  0
 25 26  1  1
 25 36  1  0
 26 27  1  0
 26 35  1  0
 27 28  2  0
 28 29  1  0
 29 30  2  0
 29 35  1  0
 30 31  1  0
 30 32  1  0
 32 33  2  0
 33 34  1  0
 34 35  2  0
 36 37  1  6
 36 38  1  0
 38 39  1  6
 40 41  1  6
 40 42  1  0
 42 43  1  6
M  CHG  2   8   1  16  -1
M  END
