
     RDKit          3D

 43 46  0  0  0  0  0  0  0  0999 V2000
    8.9010    0.1960    1.3030 C   0  0  0  0  0  0  0  0  0  0  0  0
    9.5420    0.5250   -0.0270 C   0  0  0  0  0  0  0  0  0  0  0  0
    8.9450   -0.1630   -1.0710 O   0  0  0  0  0  0  0  0  0  0  0  0
    7.6210   -0.0330   -1.3820 C   0  0  0  0  0  0  0  0  0  0  0  0
    6.8380    0.7220   -0.7350 O   0  0  0  0  0  0  0  0  0  0  0  0
    7.1410   -0.7780   -2.4650 O   0  0  0  0  0  0  0  0  0  0  0  0
    5.7580   -0.6550   -2.7780 C   0  0  0  0  0  0  0  0  0  0  0  0
    4.9760   -1.1010   -1.6110 C   0  0  0  0  0  0  0  0  0  0  0  0
    5.4460   -1.5480   -0.5150 O   0  0  0  0  0  0  0  0  0  0  0  0
    4.4550   -1.8690    0.3260 C   0  0  0  0  0  0  0  0  0  0  0  0
    4.6710   -2.3580    1.5100 N   0  0  0  0  0  0  0  0  0  0  0  0
    3.2700   -1.6230   -0.2130 N   0  0  0  0  0  0  0  0  0  0  0  0
    1.9880   -1.7470    0.2030 C   0  0  0  0  0  0  0  0  0  0  0  0
    1.6410   -2.1300    1.3970 C   0  0  0  0  0  0  0  0  0  0  0  0
    2.2680   -2.5050    2.6090 C   0  0  0  0  0  0  0  0  0  0  0  0
    2.4140   -3.7610    3.1930 C   0  0  0  0  0  0  0  0  0  0  0  0
    3.0510   -3.6910    4.3320 N   0  0  0  0  0  0  0  0  0  0  0  0
    3.3320   -2.3750    4.4980 C   0  0  0  0  0  0  0  0  0  0  0  0
    2.8740   -1.6980    3.4860 O   0  0  0  0  0  0  0  0  0  0  0  0
    0.9740   -1.3510   -0.7100 C   0  0  0  0  0  0  0  0  0  0  0  0
   -0.2550   -1.1600   -0.2780 C   0  0  0  0  0  0  0  0  0  0  0  0
   -1.4570   -0.8290   -0.7640 C   0  0  0  0  0  0  0  0  0  0  0  0
   -2.4570   -0.5340   -1.4980 C   0  0  0  0  0  0  0  0  0  0  0  0
   -3.7530   -0.2310   -0.8970 N   0  0  0  0  0  0  0  0  0  0  0  0
   -4.6700   -0.0060   -1.7610 C   0  0  0  0  0  0  0  0  0  0  0  0
   -5.9960    0.3070   -1.3230 N   0  0  0  0  0  0  0  0  0  0  0  0
   -6.2790    0.3450    0.1280 C   0  0  2  0  0  0  0  0  0  0  0  0
   -7.7170    0.6400    0.3550 C   0  0  0  0  0  0  0  0  0  0  0  0
   -8.2250    1.7710   -0.1470 O   0  0  0  0  0  0  0  0  0  0  0  0
   -7.7870    2.9570    0.3290 C   0  0  0  0  0  0  0  0  0  0  0  0
   -8.5480    4.0390   -0.4980 C   0  0  0  0  0  0  0  0  0  0  0  0
   -8.1490    5.2870   -0.0660 O   0  0  0  0  0  0  0  0  0  0  0  0
   -8.7800    6.2080   -0.7730 O   0  0  0  0  0  0  0  0  0  0  0  0
   -5.3000    1.1430    0.8510 C   0  0  0  0  0  0  0  0  0  0  0  0
   -4.4480    1.9160    0.2650 O   0  0  0  0  0  0  0  0  0  0  0  0
   -5.1950    1.1530    2.2320 O   0  0  0  0  0  0  0  0  0  0  0  0
   -4.1240   -0.1310   -3.0200 O   0  0  0  0  0  0  0  0  0  0  0  0
   -2.7580   -0.4520   -2.9090 C   0  0  0  0  0  0  0  0  0  0  0  0
   -1.9880   -0.6350   -3.8580 O   0  0  0  0  0  0  0  0  0  0  0  0
    1.3830   -0.8880   -1.9420 C   0  0  0  0  0  0  0  0  0  0  0  0
    0.5050   -0.5270   -2.7980 N   0  0  0  0  0  0  0  0  0  0  0  0
    2.6640   -0.7900   -2.2820 O   0  0  0  0  0  0  0  0  0  0  0  0
    3.5890   -1.1380   -1.4580 C   0  0  0  0  0  0  0  0  0  0  0  0
  1  2  1  0
  2  3  1  0
  3  4  1  0
  4  5  2  0
  4  6  1  0
  6  7  1  0
  7  8  1  0
  8  9  1  0
  8 43  2  0
  9 10  1  0
 10 11  2  0
 10 12  1  0
 12 13  1  0
 12 43  1  0
 13 14  2  3
 13 20  1  0
 14 15  1  0
 15 16  2  0
 15 19  1  0
 16 17  1  0
 17 18  2  0
 18 19  1  0
 20 21  2  3
 20 40  1  0
 21 22  1  0
 22 23  2  3
 23 24  1  0
 23 38  1  0
 24 25  2  0
 25 26  1  0
 25 37  1  0
 26 27  1  0
 27 28  1  6
 27 34  1  0
 28 29  1  0
 29 30  1  0
 30 31  1  0
 31 32  1  0
 32 33  1  0
 34 35  2  0
 34 36  1  0
 37 38  1  0
 38 39  2  0
 40 41  2  0
 40 42  1  0
 42 43  1  0
M  END
