
     RDKit          3D

 43 46  0  0  0  0  0  0  0  0999 V2000
    1.7220    7.9720   -0.1780 C   0  0  0  0  0  0  0  0  0  0  0  0
    0.6440    7.0580    0.3630 C   0  0  0  0  0  0  0  0  0  0  0  0
    1.0490    5.7150    0.1460 O   0  0  0  0  0  0  0  0  0  0  0  0
    0.2800    4.6270    0.5290 C   0  0  0  0  0  0  0  0  0  0  0  0
   -0.8210    4.8600    1.0920 O   0  0  0  0  0  0  0  0  0  0  0  0
    0.6490    3.3220    0.3310 O   0  0  0  0  0  0  0  0  0  0  0  0
   -0.2230    2.2680    0.7670 C   0  0  0  0  0  0  0  0  0  0  0  0
    0.4220    0.9160    0.4280 C   0  0  1  0  0  0  0  0  0  0  0  0
    1.5730    0.7510    1.3280 C   0  0  0  0  0  0  0  0  0  0  0  0
    2.3840   -0.4840    1.2130 C   0  0  0  0  0  0  0  0  0  0  0  0
    3.0230   -0.7030    0.0230 O   0  0  0  0  0  0  0  0  0  0  0  0
    3.9640    0.2750   -0.2810 C   0  0  0  0  0  0  0  0  0  0  0  0
    5.0640    0.3910    0.7310 C   0  0  0  0  0  0  0  0  0  0  0  0
    5.8250   -0.7600    0.9230 O   0  0  0  0  0  0  0  0  0  0  0  0
    6.5840   -1.4050   -0.0460 C   0  0  0  0  0  0  0  0  0  0  0  0
    6.5530   -0.8620   -1.1920 O   0  0  0  0  0  0  0  0  0  0  0  0
    7.3320   -2.5740    0.2220 N   0  0  0  0  0  0  0  0  0  0  0  0
    8.1020   -3.1950   -0.8280 C   0  0  0  0  0  0  0  0  0  0  0  0
    9.1470   -2.2360   -1.3430 C   0  0  0  0  0  0  0  0  0  0  0  0
    9.9020   -2.8330   -2.3640 O   0  0  0  0  0  0  0  0  0  0  0  0
   -0.6750   -0.1180    0.6520 C   0  0  0  0  0  0  0  0  0  0  0  0
   -1.5030   -0.0910   -0.5330 N   0  0  0  0  0  0  0  0  0  0  0  0
   -2.7820   -0.6330   -0.7520 C   0  0  0  0  0  0  0  0  0  0  0  0
   -3.2580   -0.3960   -1.9470 O   0  0  0  0  0  0  0  0  0  0  0  0
   -3.5710   -1.3630    0.1180 N   0  0  0  0  0  0  0  0  0  0  0  0
   -3.2140   -1.7650    1.4380 C   0  0  0  0  0  0  0  0  0  0  0  0
   -4.0010   -0.8270    2.3740 C   0  0  0  0  0  0  0  0  0  0  0  0
   -5.2900   -0.6290    1.8430 O   0  0  0  0  0  0  0  0  0  0  0  0
   -5.7200   -1.7060    1.0720 C   0  0  0  0  0  0  0  0  0  0  0  0
   -4.9290   -1.8000   -0.2410 C   0  0  1  0  0  0  0  0  0  0  0  0
   -5.5610   -1.0400   -1.3350 C   0  0  0  0  0  0  0  0  0  0  0  0
   -6.9870   -1.2260   -1.2310 O   0  0  0  0  0  0  0  0  0  0  0  0
   -7.7480   -2.3800   -1.4190 C   0  0  0  0  0  0  0  0  0  0  0  0
   -9.0610   -2.4830   -1.7440 C   0  0  0  0  0  0  0  0  0  0  0  0
   -9.3560   -3.7650   -1.8180 O   0  0  0  0  0  0  0  0  0  0  0  0
   -8.2890   -4.4840   -1.5540 N   0  0  0  0  0  0  0  0  0  0  0  0
   -7.2530   -3.6730   -1.2980 C   0  0  0  0  0  0  0  0  0  0  0  0
   -5.9240   -4.0890   -0.9690 N   0  0  0  0  0  0  0  0  0  0  0  0
   -4.8330   -3.2340   -0.6040 C   0  0  0  0  0  0  0  0  0  0  0  0
   -3.6770   -3.7790   -0.5980 O   0  0  0  0  0  0  0  0  0  0  0  0
   -0.7080    0.6330   -1.5110 C   0  0  0  0  0  0  0  0  0  0  0  0
   -1.1450    0.9950   -2.6230 O   0  0  0  0  0  0  0  0  0  0  0  0
    0.6150    0.8360   -0.9670 N   0  0  0  0  0  0  0  0  0  0  0  0
  1  2  1  0
  2  3  1  0
  3  4  1  0
  4  5  2  0
  4  6  1  0
  6  7  1  0
  8  7  1  6
  8  9  1  0
  8 21  1  0
  8 43  1  0
  9 10  1  0
 10 11  1  0
 11 12  1  0
 12 13  1  0
 13 14  1  0
 14 15  1  0
 15 16  2  0
 15 17  1  0
 17 18  1  0
 18 19  1  0
 19 20  1  0
 21 22  1  0
 22 23  1  0
 22 41  1  0
 23 24  2  0
 23 25  1  0
 25 26  1  0
 25 30  1  0
 26 27  1  0
 27 28  1  0
 28 29  1  0
 30 29  1  1
 30 31  1  0
 30 39  1  0
 31 32  1  0
 32 33  1  0
 33 34  2  0
 33 37  1  0
 34 35  1  0
 35 36  1  0
 36 37  2  0
 37 38  1  0
 38 39  1  0
 39 40  2  0
 41 42  2  0
 41 43  1  0
M  END
