
     RDKit          3D

 43 46  0  0  0  0  0  0  0  0999 V2000
    8.6890    0.8350   -0.7300 C   0  0  0  0  0  0  0  0  0  0  0  0
    7.4620    1.4950   -0.7540 O   0  0  0  0  0  0  0  0  0  0  0  0
    6.2970    1.0830   -0.1430 C   0  0  0  0  0  0  0  0  0  0  0  0
    6.2880   -0.1230    0.5920 C   0  0  0  0  0  0  0  0  0  0  0  0
    5.1370   -0.5600    1.2110 C   0  0  0  0  0  0  0  0  0  0  0  0
    4.0250    0.2220    1.0790 C   0  0  0  0  0  0  0  0  0  0  0  0
    3.9760    1.3940    0.3800 C   0  0  0  0  0  0  0  0  0  0  0  0
    2.7730    2.2120    0.2290 C   0  0  0  0  0  0  0  0  0  0  0  0
    1.9340    2.1090   -0.9040 C   0  0  2  0  0  0  0  0  0  0  0  0
    0.7120    3.0950   -0.8010 C   0  0  0  0  0  0  0  0  0  0  0  0
    0.3030    3.3350    0.2800 N   0  0  0  0  0  0  0  0  0  0  0  0
   -0.2730    3.7050    1.4490 C   0  0  0  0  0  0  0  0  0  0  0  0
   -0.6230    2.8130    2.3710 N   0  0  0  0  0  0  0  0  0  0  0  0
   -0.5140    1.4210    2.4090 C   0  0  0  0  0  0  0  0  0  0  0  0
    0.4180    1.0020    3.2160 O   0  0  0  0  0  0  0  0  0  0  0  0
   -1.2590    0.4930    1.7150 O   0  0  0  0  0  0  0  0  0  0  0  0
   -1.9480    0.5210    0.5320 C   0  0  0  0  0  0  0  0  0  0  0  0
   -2.6750   -0.7940    0.2100 C   0  0  1  0  0  0  0  0  0  0  0  0
   -3.6780   -0.8280    1.1990 O   0  0  0  0  0  0  0  0  0  0  0  0
   -4.5500   -1.8990    1.0920 C   0  0  0  0  0  0  0  0  0  0  0  0
   -5.5360   -1.7010    2.2520 C   0  0  0  0  0  0  0  0  0  0  0  0
   -6.5060   -2.7060    2.2970 O   0  0  0  0  0  0  0  0  0  0  0  0
   -7.3350   -2.4830    3.3020 O   0  0  0  0  0  0  0  0  0  0  0  0
   -8.1530   -1.4860    3.0270 O   0  0  0  0  0  0  0  0  0  0  0  0
   -3.3650   -0.7250   -1.0100 O   0  0  0  0  0  0  0  0  0  0  0  0
   -4.3900    0.1760   -1.2290 C   0  0  0  0  0  0  0  0  0  0  0  0
   -4.7790    0.9820   -0.3560 O   0  0  0  0  0  0  0  0  0  0  0  0
   -5.0200    0.1980   -2.4630 O   0  0  0  0  0  0  0  0  0  0  0  0
   -1.8020   -1.9950    0.2830 C   0  0  0  0  0  0  0  0  0  0  0  0
   -1.5670   -2.3420    1.5130 O   0  0  0  0  0  0  0  0  0  0  0  0
   -1.2150   -2.7820   -0.6870 N   0  0  0  0  0  0  0  0  0  0  0  0
   -1.2020   -4.2360   -0.5430 C   0  0  0  0  0  0  0  0  0  0  0  0
   -0.5640   -2.2910   -1.9320 C   0  0  0  0  0  0  0  0  0  0  0  0
   -0.5520   -3.0660   -2.9220 O   0  0  0  0  0  0  0  0  0  0  0  0
    0.0620   -0.9310   -2.0400 C   0  0  0  0  0  0  0  0  0  0  0  0
    0.8980   -0.3040   -1.2350 C   0  0  0  0  0  0  0  0  0  0  0  0
    1.1270    1.1100   -1.4650 N   0  0  0  0  0  0  0  0  0  0  0  0
    0.4780    1.8290   -2.5470 C   0  0  0  0  0  0  0  0  0  0  0  0
    0.7070    3.1500   -2.3040 N   0  0  0  0  0  0  0  0  0  0  0  0
   -0.3990    1.1600   -3.4450 N   0  0  0  0  0  0  0  0  0  0  0  0
   -0.6120   -0.2240   -3.1950 C   0  0  0  0  0  0  0  0  0  0  0  0
   -1.3890   -0.7830   -4.0050 O   0  0  0  0  0  0  0  0  0  0  0  0
    5.1410    1.8120   -0.2320 C   0  0  0  0  0  0  0  0  0  0  0  0
  1  2  1  0
  2  3  1  0
  3  4  2  0
  3 43  1  0
  4  5  1  0
  5  6  2  0
  6  7  1  0
  7  8  1  0
  7 43  2  0
  9  8  1  1
  9 10  1  0
  9 37  1  0
 10 11  2  0
 10 39  1  0
 11 12  1  0
 12 13  2  0
 13 14  1  0
 14 15  2  0
 14 16  1  0
 16 17  1  0
 17 18  1  0
 18 19  1  1
 18 25  1  0
 18 29  1  0
 19 20  1  0
 20 21  1  0
 21 22  1  0
 22 23  1  0
 23 24  1  0
 25 26  1  0
 26 27  2  0
 26 28  1  0
 29 30  2  0
 29 31  1  0
 31 32  1  0
 31 33  1  0
 33 34  2  0
 33 35  1  0
 35 36  2  0
 35 41  1  0
 36 37  1  0
 37 38  1  0
 38 39  2  0
 38 40  1  0
 40 41  1  0
 41 42  2  0
M  END
