
     RDKit          3D

 35 38  0  0  0  0  0  0  0  0999 V2000
   -9.1140   -0.4520   -1.4650 C   0  0  0  0  0  0  0  0  0  0  0  0
   -7.9940   -1.4770   -1.5720 C   0  0  2  0  0  0  0  0  0  0  0  0
   -8.3460   -2.4250   -2.7200 C   0  0  0  0  0  0  0  0  0  0  0  0
   -7.9560   -2.4530   -0.0870 Cl  0  0  0  0  0  0  0  0  0  0  0  0
   -6.7020   -0.8340   -1.8700 C   0  0  0  0  0  0  0  0  0  0  0  0
   -6.3580    0.4370   -1.3670 C   0  0  0  0  0  0  0  0  0  0  0  0
   -5.1560    1.0300   -1.6690 C   0  0  0  0  0  0  0  0  0  0  0  0
   -4.2300    0.4060   -2.4860 C   0  0  0  0  0  0  0  0  0  0  0  0
   -3.0030    1.0180   -2.8400 N   0  0  0  0  0  0  0  0  0  0  0  0
   -1.8230    0.6780   -2.1320 C   0  0  0  0  0  0  0  0  0  0  0  0
   -0.6160    1.1970   -2.4120 N   0  0  0  0  0  0  0  0  0  0  0  0
    0.2400    0.6630   -1.5660 N   0  0  0  0  0  0  0  0  0  0  0  0
   -0.4160   -0.1700   -0.7720 C   0  0  0  0  0  0  0  0  0  0  0  0
    0.1270   -0.9950    0.3340 C   0  0  0  0  0  0  0  0  0  0  0  0
    0.6760   -0.3230    1.4230 N   0  0  0  0  0  0  0  0  0  0  0  0
   -0.1150    0.5660    2.1850 C   0  0  0  0  0  0  0  0  0  0  0  0
    0.6280    1.8390    2.5550 C   0  0  0  0  0  0  0  0  0  0  0  0
    1.9250    1.4100    3.1980 C   0  0  0  0  0  0  0  0  0  0  0  0
    2.6480    0.5690    2.4780 C   0  0  0  0  0  0  0  0  0  0  0  0
    3.9330    0.0420    2.9260 C   0  0  0  0  0  0  0  0  0  0  0  0
    5.0060    0.3720    2.0670 O   0  0  0  0  0  0  0  0  0  0  0  0
    6.2500   -0.2170    2.2670 C   0  0  0  0  0  0  0  0  0  0  0  0
    6.3360   -1.0340    3.2100 O   0  0  0  0  0  0  0  0  0  0  0  0
    7.3900    0.1020    1.4140 C   0  0  0  0  0  0  0  0  0  0  0  0
    8.5520   -0.6150    1.5150 C   0  0  0  0  0  0  0  0  0  0  0  0
    9.6820   -0.3700    0.7610 C   0  0  0  0  0  0  0  0  0  0  0  0
    9.6580    0.6890   -0.1780 C   0  0  0  0  0  0  0  0  0  0  0  0
   10.7970    0.9750   -0.9990 C   0  0  0  0  0  0  0  0  0  0  0  0
   11.7290    1.2100   -1.6910 N   0  0  0  0  0  0  0  0  0  0  0  0
    8.4950    1.3980   -0.2670 C   0  0  0  0  0  0  0  0  0  0  0  0
    7.3640    1.1440    0.4920 C   0  0  0  0  0  0  0  0  0  0  0  0
    2.0180    0.1690    1.1710 C   0  0  0  0  0  0  0  0  0  0  0  0
   -1.6740   -0.1410   -1.1410 O   0  0  0  0  0  0  0  0  0  0  0  0
   -4.5500   -0.8400   -2.9890 C   0  0  0  0  0  0  0  0  0  0  0  0
   -5.7450   -1.3940   -2.6660 C   0  0  0  0  0  0  0  0  0  0  0  0
  2  1  1  1
  2  3  1  0
  2  4  1  0
  2  5  1  0
  5  6  2  0
  5 35  1  0
  6  7  1  0
  7  8  2  0
  8  9  1  0
  8 34  1  0
  9 10  1  0
 10 11  2  0
 10 33  1  0
 11 12  1  0
 12 13  2  0
 13 14  1  0
 13 33  1  0
 14 15  1  0
 15 16  1  0
 15 32  1  0
 16 17  1  0
 17 18  1  0
 18 19  2  0
 19 20  1  0
 19 32  1  0
 20 21  1  0
 21 22  1  0
 22 23  2  0
 22 24  1  0
 24 25  2  0
 24 31  1  0
 25 26  1  0
 26 27  2  0
 27 28  1  0
 27 30  1  0
 28 29  3  0
 30 31  2  0
 34 35  2  0
M  END
