
     RDKit          3D

 36 39  0  0  0  0  0  0  0  0999 V2000
    4.5630   -3.6690    0.1970 C   0  0  0  0  0  0  0  0  0  0  0  0
    3.8530   -2.3930   -0.0980 C   0  0  0  0  0  0  0  0  0  0  0  0
    2.5350   -2.2500   -0.1960 O   0  0  0  0  0  0  0  0  0  0  0  0
    2.2020   -1.0370   -0.4580 C   0  0  0  0  0  0  0  0  0  0  0  0
    0.8190   -0.4790   -0.6430 C   0  0  0  0  0  0  0  0  0  0  0  0
   -0.1560   -1.4920   -0.3930 N   0  0  0  0  0  0  0  0  0  0  0  0
   -1.5430   -1.1810   -0.5120 C   0  0  0  0  0  0  0  0  0  0  0  0
   -1.8880   -0.0210   -0.8370 O   0  0  0  0  0  0  0  0  0  0  0  0
   -2.5210   -2.2250   -0.2530 C   0  0  0  0  0  0  0  0  0  0  0  0
   -2.1650   -3.3830    0.0710 O   0  0  0  0  0  0  0  0  0  0  0  0
   -3.8990   -1.9150   -0.3710 N   0  0  0  0  0  0  0  0  0  0  0  0
   -4.3680   -0.6120   -0.7410 C   0  0  0  0  0  0  0  0  0  0  0  0
   -5.8850   -0.6490   -0.8000 C   0  0  0  0  0  0  0  0  0  0  0  0
   -6.4730   -1.1540    0.3980 N   0  0  0  0  0  0  0  0  0  0  0  0
   -6.6530   -0.1660    1.4270 C   0  0  0  0  0  0  0  0  0  0  0  0
   -7.5530    0.9460    1.0480 C   0  0  0  0  0  0  0  0  0  0  0  0
   -7.6330    2.0570    1.8570 C   0  0  0  0  0  0  0  0  0  0  0  0
   -8.4610    3.0920    1.5280 C   0  0  0  0  0  0  0  0  0  0  0  0
   -9.2200    3.0310    0.3860 C   0  0  0  0  0  0  0  0  0  0  0  0
   -9.1270    1.9150   -0.4070 C   0  0  0  0  0  0  0  0  0  0  0  0
   -8.3060    0.9100   -0.0650 N   0  0  0  0  0  0  0  0  0  0  0  0
   -5.8550   -2.3440    0.8970 C   0  0  0  0  0  0  0  0  0  0  0  0
   -4.8870   -2.9480   -0.1080 C   0  0  0  0  0  0  0  0  0  0  0  0
    3.3460   -0.3000   -0.5460 C   0  0  0  0  0  0  0  0  0  0  0  0
    4.4170   -1.1810   -0.3120 C   0  0  0  0  0  0  0  0  0  0  0  0
    5.8190   -0.7550   -0.3200 C   0  0  0  0  0  0  0  0  0  0  0  0
    6.8890   -1.5740   -0.1310 C   0  0  0  0  0  0  0  0  0  0  0  0
    8.1930   -1.0590   -0.1600 C   0  0  0  0  0  0  0  0  0  0  0  0
    8.3920    0.2780   -0.3800 C   0  0  0  0  0  0  0  0  0  0  0  0
    9.9800    1.0130   -0.4340 Cl  0  0  0  0  0  0  0  0  0  0  0  0
    7.3020    1.0950   -0.5700 C   0  0  0  0  0  0  0  0  0  0  0  0
    7.4950    2.5680   -0.8120 C   0  0  0  0  0  0  0  0  0  0  0  0
    7.8390    3.2730    0.4860 C   0  0  0  0  0  0  0  0  0  0  0  0
    8.0200    4.7300    0.1940 C   0  0  0  0  0  0  0  0  0  0  0  0
    6.5170    5.3970   -0.4800 Cl  0  0  0  0  0  0  0  0  0  0  0  0
    6.0870    0.5480   -0.5310 N   0  0  0  0  0  0  0  0  0  0  0  0
  1  2  1  0
  2  3  1  0
  2 25  2  0
  3  4  1  0
  4  5  1  0
  4 24  2  0
  5  6  1  0
  6  7  1  0
  7  8  2  0
  7  9  1  0
  9 10  2  0
  9 11  1  0
 11 12  1  0
 11 23  1  0
 12 13  1  0
 13 14  1  0
 14 15  1  0
 14 22  1  0
 15 16  1  0
 16 17  2  0
 16 21  1  0
 17 18  1  0
 18 19  2  0
 19 20  1  0
 20 21  2  0
 22 23  1  0
 24 25  1  0
 25 26  1  0
 26 27  2  0
 26 36  1  0
 27 28  1  0
 28 29  2  0
 29 30  1  0
 29 31  1  0
 31 32  1  0
 31 36  2  0
 32 33  1  0
 33 34  1  0
 34 35  1  0
M  END
