
     RDKit          3D

 36 40  0  0  0  0  0  0  0  0999 V2000
   -4.8930   -1.0320   -2.9760 C   0  0  0  0  0  0  0  0  0  0  0  0
   -4.2850    0.0230   -2.0860 C   0  0  0  0  0  0  0  0  0  0  0  0
   -5.0290    0.0800   -0.7850 C   0  0  0  0  0  0  0  0  0  0  0  0
   -4.4700   -0.5030    0.3530 C   0  0  0  0  0  0  0  0  0  0  0  0
   -5.1140   -0.4890    1.5660 C   0  0  0  0  0  0  0  0  0  0  0  0
   -4.4590   -1.1350    2.7480 C   0  0  0  0  0  0  0  0  0  0  0  0
   -2.8850   -1.8270    2.2610 S   0  0  0  0  0  0  0  0  0  0  0  0
   -1.6870   -0.5770    1.8310 C   0  0  0  0  0  0  0  0  0  0  0  0
   -0.5020   -0.9510    1.4700 N   0  0  0  0  0  0  0  0  0  0  0  0
    0.5310   -0.0450    1.1070 C   0  0  0  0  0  0  0  0  0  0  0  0
    0.2800    1.2990    1.1310 C   0  0  0  0  0  0  0  0  0  0  0  0
    1.3330    2.1610    0.8230 C   0  0  0  0  0  0  0  0  0  0  0  0
    2.5900    1.6510    0.5020 C   0  0  0  0  0  0  0  0  0  0  0  0
    2.8260    0.3120    0.4810 C   0  0  0  0  0  0  0  0  0  0  0  0
    1.8080   -0.5630    0.7800 C   0  0  0  0  0  0  0  0  0  0  0  0
    1.9840   -2.0240    0.7720 C   0  0  0  0  0  0  0  0  0  0  0  0
    3.1660   -2.4620   -0.0100 C   0  0  0  0  0  0  0  0  0  0  0  0
    3.7850   -1.4040   -0.7560 N   0  0  0  0  0  0  0  0  0  0  0  0
    4.1390   -0.3280    0.1620 C   0  0  1  0  0  0  0  0  0  0  0  0
    5.1470    0.5860   -0.3860 C   0  0  0  0  0  0  0  0  0  0  0  0
    6.4200   -0.1290   -0.6650 C   0  0  0  0  0  0  0  0  0  0  0  0
    6.7500   -1.3010   -0.0400 C   0  0  0  0  0  0  0  0  0  0  0  0
    7.9590   -1.9010   -0.3470 C   0  0  0  0  0  0  0  0  0  0  0  0
    8.8360   -1.3560   -1.2590 C   0  0  0  0  0  0  0  0  0  0  0  0
    8.4460   -0.2050   -1.8340 N   0  0  0  0  0  0  0  0  0  0  0  0
    7.3050    0.4310   -1.5940 C   0  0  0  0  0  0  0  0  0  0  0  0
    6.9720    1.6390   -2.2420 O   0  0  0  0  0  0  0  0  0  0  0  0
    7.9370    2.1430   -3.1730 C   0  0  0  0  0  0  0  0  0  0  0  0
   -1.0570    1.8530    1.4570 C   0  0  0  0  0  0  0  0  0  0  0  0
   -1.9410    0.8060    1.8660 N   0  0  0  0  0  0  0  0  0  0  0  0
   -6.3500    0.1160    1.6770 C   0  0  0  0  0  0  0  0  0  0  0  0
   -6.9960    0.1270    2.8970 O   0  0  0  0  0  0  0  0  0  0  0  0
   -8.2390    0.6900    3.1700 C   0  0  0  0  0  0  0  0  0  0  0  0
   -6.9060    0.6910    0.5620 C   0  0  0  0  0  0  0  0  0  0  0  0
   -6.2620    0.6860   -0.6810 C   0  0  0  0  0  0  0  0  0  0  0  0
   -6.9180    1.3250   -1.8580 C   0  0  0  0  0  0  0  0  0  0  0  0
  1  2  1  0
  2  3  1  0
  3  4  2  0
  3 35  1  0
  4  5  1  0
  5  6  1  0
  5 31  2  0
  6  7  1  0
  7  8  1  0
  8  9  2  0
  8 30  1  0
  9 10  1  0
 10 11  2  0
 10 15  1  0
 11 12  1  0
 11 29  1  0
 12 13  2  0
 13 14  1  0
 14 15  2  0
 14 19  1  0
 15 16  1  0
 16 17  1  0
 17 18  1  0
 18 19  1  0
 19 20  1  6
 20 21  1  0
 21 22  2  0
 21 26  1  0
 22 23  1  0
 23 24  2  0
 24 25  1  0
 25 26  2  0
 26 27  1  0
 27 28  1  0
 29 30  1  0
 31 32  1  0
 31 34  1  0
 32 33  1  0
 34 35  2  0
 35 36  1  0
M  CHG  1  18   1
M  END
