
     RDKit          3D

 36 40  0  0  0  0  0  0  0  0999 V2000
    7.1260    1.1160   -1.8180 C   0  0  0  0  0  0  0  0  0  0  0  0
    6.7860    0.0710   -0.7870 C   0  0  0  0  0  0  0  0  0  0  0  0
    5.3180   -0.2800   -0.7760 C   0  0  1  0  0  0  0  0  0  0  0  0
    5.1620   -1.3090    0.2690 N   0  0  0  0  0  0  0  0  0  0  0  0
    3.8620   -1.7970    0.3590 C   0  0  0  0  0  0  0  0  0  0  0  0
    2.7480   -0.7660    0.3070 C   0  0  0  0  0  0  0  0  0  0  0  0
    1.5500   -1.2410    0.6050 C   0  0  0  0  0  0  0  0  0  0  0  0
    1.4260   -2.7060    0.9480 C   0  0  0  0  0  0  0  0  0  0  0  0
    0.3230   -3.2340    0.0380 C   0  0  0  0  0  0  0  0  0  0  0  0
    0.4890   -4.2310   -0.6840 O   0  0  0  0  0  0  0  0  0  0  0  0
   -0.9500   -2.5160    0.0480 C   0  0  0  0  0  0  0  0  0  0  0  0
   -2.1940   -3.2240   -0.2740 C   0  0  0  0  0  0  0  0  0  0  0  0
   -2.3550   -4.5220    0.1780 C   0  0  0  0  0  0  0  0  0  0  0  0
   -3.4760   -5.2550   -0.0710 C   0  0  0  0  0  0  0  0  0  0  0  0
   -4.4730   -4.6500   -0.8060 C   0  0  0  0  0  0  0  0  0  0  0  0
   -4.3460   -3.4010   -1.2550 N   0  0  0  0  0  0  0  0  0  0  0  0
   -3.2180   -2.6830   -0.9960 C   0  0  0  0  0  0  0  0  0  0  0  0
   -0.9250   -1.2280    0.3460 C   0  0  0  0  0  0  0  0  0  0  0  0
   -2.1100   -0.4880    0.3760 N   0  0  0  0  0  0  0  0  0  0  0  0
   -2.2920    0.7520    0.1310 C   0  0  0  0  0  0  0  0  0  0  0  0
   -3.6850    1.2510    0.2490 C   0  0  0  0  0  0  0  0  0  0  0  0
   -4.7010    0.3930    0.6110 C   0  0  0  0  0  0  0  0  0  0  0  0
   -6.0220    0.7580    0.7500 C   0  0  0  0  0  0  0  0  0  0  0  0
   -7.0690   -0.2220    1.1460 C   0  0  0  0  0  0  0  0  0  0  0  0
   -6.3040    2.0910    0.4970 C   0  0  0  0  0  0  0  0  0  0  0  0
   -5.3260    2.9880    0.1330 C   0  0  0  0  0  0  0  0  0  0  0  0
   -4.0020    2.5680    0.0060 C   0  0  0  0  0  0  0  0  0  0  0  0
   -3.0180    3.4830   -0.3640 O   0  0  0  0  0  0  0  0  0  0  0  0
   -3.3320    4.8440   -0.6190 C   0  0  0  0  0  0  0  0  0  0  0  0
    0.3290   -0.5460    0.6370 N   0  0  0  0  0  0  0  0  0  0  0  0
    3.0510    0.5840   -0.1040 C   0  0  1  0  0  0  0  0  0  0  0  0
    2.4300    1.6880    0.6580 C   0  0  0  0  0  0  0  0  0  0  0  0
    3.2770    2.9460    0.8100 C   0  0  0  0  0  0  0  0  0  0  0  0
    3.6340    3.5940   -0.5040 C   0  0  0  0  0  0  0  0  0  0  0  0
    4.5880    2.3030   -1.4440 S   0  0  0  0  0  0  0  0  0  0  0  0
    4.5440    0.9010   -0.3040 C   0  0  2  0  0  0  0  0  0  0  0  0
  1  2  1  0
  3  2  1  1
  3  4  1  0
  3 36  1  0
  4  5  1  0
  5  6  1  0
  6  7  2  3
  6 31  1  0
  7  8  1  0
  7 30  1  0
  8  9  1  0
  9 10  2  0
  9 11  1  0
 11 12  1  0
 11 18  2  0
 12 13  2  0
 12 17  1  0
 13 14  1  0
 14 15  2  0
 15 16  1  0
 16 17  2  0
 18 19  1  0
 18 30  1  0
 19 20  2  3
 20 21  1  0
 21 22  2  0
 21 27  1  0
 22 23  1  0
 23 24  1  0
 23 25  2  0
 25 26  1  0
 26 27  2  0
 27 28  1  0
 28 29  1  0
 31 32  1  1
 31 36  1  0
 32 33  1  0
 33 34  1  0
 34 35  1  0
 36 35  1  6
M  CHG  1  16   1
M  END
