
     RDKit          3D

 36 39  0  0  0  0  0  0  0  0999 V2000
    4.7540    5.4510   -0.4760 C   0  0  0  0  0  0  0  0  0  0  0  0
    3.9610    4.3140   -0.2740 O   0  0  0  0  0  0  0  0  0  0  0  0
    4.5330    3.0510   -0.3430 C   0  0  0  0  0  0  0  0  0  0  0  0
    5.8810    2.8760   -0.6090 C   0  0  0  0  0  0  0  0  0  0  0  0
    6.4490    1.6390   -0.6780 C   0  0  0  0  0  0  0  0  0  0  0  0
    8.1520    1.4770   -1.0170 Cl  0  0  0  0  0  0  0  0  0  0  0  0
    5.6370    0.5260   -0.4730 C   0  0  0  0  0  0  0  0  0  0  0  0
    4.3050    0.6410   -0.2080 C   0  0  0  0  0  0  0  0  0  0  0  0
    3.7690    1.9040   -0.1470 C   0  0  0  0  0  0  0  0  0  0  0  0
    3.7000   -0.6750   -0.0270 N   0  0  0  0  0  0  0  0  0  0  0  0
    2.3180   -0.8950   -0.2410 C   0  0  0  0  0  0  0  0  0  0  0  0
    1.7160    0.0530   -0.9190 O   0  0  0  0  0  0  0  0  0  0  0  0
    1.4700   -1.9760    0.1530 C   0  0  0  0  0  0  0  0  0  0  0  0
    1.7410   -3.0430    0.9720 C   0  0  0  0  0  0  0  0  0  0  0  0
    2.9390   -3.3130    1.8480 C   0  0  0  0  0  0  0  0  0  0  0  0
    0.6600   -3.8460    0.9370 N   0  0  0  0  0  0  0  0  0  0  0  0
   -0.2880   -3.3360    0.1360 C   0  0  0  0  0  0  0  0  0  0  0  0
   -1.6120   -4.0040   -0.1350 C   0  0  0  0  0  0  0  0  0  0  0  0
    0.1540   -2.1540   -0.3920 C   0  0  0  0  0  0  0  0  0  0  0  0
   -0.4840   -1.2180   -1.3380 C   0  0  0  0  0  0  0  0  0  0  0  0
   -1.8000   -1.4950   -1.7720 N   0  0  0  0  0  0  0  0  0  0  0  0
   -2.0500   -2.3530   -2.9630 C   0  0  0  0  0  0  0  0  0  0  0  0
   -2.9540   -0.9820   -1.1650 C   0  0  0  0  0  0  0  0  0  0  0  0
   -4.1180   -1.3260   -1.5990 O   0  0  0  0  0  0  0  0  0  0  0  0
   -2.8950   -0.0400   -0.0370 C   0  0  2  0  0  0  0  0  0  0  0  0
   -2.7120   -0.6510    1.3160 C   0  0  0  0  0  0  0  0  0  0  0  0
   -4.1050   -1.1950    1.6200 C   0  0  0  0  0  0  0  0  0  0  0  0
   -4.9810   -0.1470    1.0230 C   0  0  0  0  0  0  0  0  0  0  0  0
   -4.2040    0.6270    0.1130 N   0  0  0  0  0  0  0  0  0  0  0  0
   -3.9350    1.9700    0.5630 C   0  0  0  0  0  0  0  0  0  0  0  0
   -5.1850    2.6810    0.7630 N   0  0  0  0  0  0  0  0  0  0  0  0
   -5.8870    2.7120   -0.5040 C   0  0  0  0  0  0  0  0  0  0  0  0
   -4.9030    3.9830    1.2830 C   0  0  0  0  0  0  0  0  0  0  0  0
   -4.0520    3.8140    2.8240 Cl  0  0  0  0  0  0  0  0  0  0  0  0
    4.8100   -1.5280    0.2860 C   0  0  0  0  0  0  0  0  0  0  0  0
    5.9680   -0.8900   -0.5000 C   0  0  0  0  0  0  0  0  0  0  0  0
  1  2  1  0
  2  3  1  0
  3  4  2  0
  3  9  1  0
  4  5  1  0
  5  6  1  0
  5  7  2  0
  7  8  1  0
  7 36  1  0
  8  9  2  0
  8 10  1  0
 10 11  1  0
 10 35  1  0
 11 12  2  0
 11 13  1  0
 13 14  2  0
 13 19  1  0
 14 15  1  0
 14 16  1  0
 16 17  1  0
 17 18  1  0
 17 19  2  0
 19 20  1  0
 20 21  1  0
 21 22  1  0
 21 23  1  0
 23 24  2  0
 25 23  1  6
 25 26  1  0
 25 29  1  0
 26 27  1  0
 27 28  1  0
 28 29  1  0
 29 30  1  0
 30 31  1  0
 31 32  1  0
 31 33  1  0
 33 34  1  0
 35 36  1  0
M  END
