
     RDKit          3D

 43 46  0  0  0  0  0  0  0  0999 V2000
    7.9380   -0.5020    0.1050 C   0  0  0  0  0  0  0  0  0  0  0  0
    6.8200   -0.4300    0.8870 O   0  0  0  0  0  0  0  0  0  0  0  0
    5.7470    0.3260    0.5260 C   0  0  0  0  0  0  0  0  0  0  0  0
    5.9160    1.1590   -0.7170 C   0  0  0  0  0  0  0  0  0  0  0  0
    4.8690    1.8870   -0.9950 C   0  0  0  0  0  0  0  0  0  0  0  0
    3.6840    1.9870   -0.3520 C   0  0  0  0  0  0  0  0  0  0  0  0
    3.5820    1.1460    0.8810 C   0  0  0  0  0  0  0  0  0  0  0  0
    2.3110    1.4160    1.5650 C   0  0  0  0  0  0  0  0  0  0  0  0
    1.3060    0.3860    1.4320 C   0  0  2  0  0  0  0  0  0  0  0  0
    1.4200   -0.9230    2.3220 C   0  0  0  0  0  0  0  0  0  0  0  0
    0.6550   -0.6850    3.1430 N   0  0  0  0  0  0  0  0  0  0  0  0
   -0.0480   -0.9930    4.1840 C   0  0  0  0  0  0  0  0  0  0  0  0
   -1.2950   -1.7640    3.9800 N   0  0  0  0  0  0  0  0  0  0  0  0
   -1.4590   -2.1830    2.5080 C   0  0  0  0  0  0  0  0  0  0  0  0
   -0.5620   -3.5560    2.7150 O   0  0  0  0  0  0  0  0  0  0  0  0
   -1.7680   -2.0530    1.3870 O   0  0  0  0  0  0  0  0  0  0  0  0
   -2.5320   -1.5300    0.3600 C   0  0  0  0  0  0  0  0  0  0  0  0
   -2.6290   -0.0470    0.4190 C   0  0  1  0  0  0  0  0  0  0  0  0
   -3.9670    0.4080    0.6070 O   0  0  0  0  0  0  0  0  0  0  0  0
   -4.6850    0.3420   -0.4260 C   0  0  0  0  0  0  0  0  0  0  0  0
   -5.2380   -0.8670   -1.1540 C   0  0  0  0  0  0  0  0  0  0  0  0
   -5.8260   -0.0610   -2.2040 O   0  0  0  0  0  0  0  0  0  0  0  0
   -7.0700   -0.3560   -2.3760 O   0  0  0  0  0  0  0  0  0  0  0  0
   -7.5670    0.8320   -2.9390 O   0  0  0  0  0  0  0  0  0  0  0  0
   -2.1970    0.2920    1.6860 O   0  0  0  0  0  0  0  0  0  0  0  0
   -2.2940    1.4990    2.3070 C   0  0  0  0  0  0  0  0  0  0  0  0
   -2.9290    2.4170    1.6350 O   0  0  0  0  0  0  0  0  0  0  0  0
   -1.8240    1.9620    3.5360 O   0  0  0  0  0  0  0  0  0  0  0  0
   -2.1780    0.5710   -0.7890 C   0  0  0  0  0  0  0  0  0  0  0  0
   -1.9370    1.8510   -0.6130 O   0  0  0  0  0  0  0  0  0  0  0  0
   -1.9520    0.1970   -2.1330 N   0  0  0  0  0  0  0  0  0  0  0  0
   -2.6130    0.8840   -3.2660 C   0  0  0  0  0  0  0  0  0  0  0  0
   -0.9530   -0.7590   -2.7210 C   0  0  0  0  0  0  0  0  0  0  0  0
   -1.1920   -1.3710   -3.6690 O   0  0  0  0  0  0  0  0  0  0  0  0
    0.3580   -0.8710   -1.8560 C   0  0  0  0  0  0  0  0  0  0  0  0
    0.5880    0.1890   -0.9680 C   0  0  0  0  0  0  0  0  0  0  0  0
    1.2800   -0.3360    0.1260 N   0  0  0  0  0  0  0  0  0  0  0  0
    1.7250   -1.6430    0.3610 C   0  0  0  0  0  0  0  0  0  0  0  0
    2.4010   -1.6580    1.5340 N   0  0  0  0  0  0  0  0  0  0  0  0
    1.4680   -2.6920   -0.6090 N   0  0  0  0  0  0  0  0  0  0  0  0
    0.7650   -2.2830   -1.7720 C   0  0  0  0  0  0  0  0  0  0  0  0
    0.4880   -3.1020   -2.7140 O   0  0  0  0  0  0  0  0  0  0  0  0
    4.5900    0.4320    1.1800 C   0  0  0  0  0  0  0  0  0  0  0  0
  1  2  1  0
  2  3  1  0
  3  4  2  0
  3 43  1  0
  4  5  1  0
  5  6  2  0
  6  7  1  0
  7  8  1  0
  7 43  2  0
  9  8  1  6
  9 10  1  0
  9 37  1  0
 10 11  2  0
 10 39  1  0
 11 12  1  0
 12 13  2  0
 13 14  1  0
 14 15  2  0
 14 16  1  0
 16 17  1  0
 17 18  1  0
 18 19  1  1
 18 25  1  0
 18 29  1  0
 19 20  1  0
 20 21  1  0
 21 22  1  0
 22 23  1  0
 23 24  1  0
 25 26  1  0
 26 27  2  0
 26 28  1  0
 29 30  2  0
 29 31  1  0
 31 32  1  0
 31 33  1  0
 33 34  2  0
 33 35  1  0
 35 36  2  0
 35 41  1  0
 36 37  1  0
 37 38  1  0
 38 39  2  0
 38 40  1  0
 40 41  1  0
 41 42  2  0
M  END
