
     RDKit          3D

 43 46  0  0  0  0  0  0  0  0999 V2000
   -3.1910    6.2440    1.6830 C   0  0  0  0  0  0  0  0  0  0  0  0
   -3.6800    5.1010    2.3560 O   0  0  0  0  0  0  0  0  0  0  0  0
   -4.6340    4.2730    1.8310 N   0  0  0  0  0  0  0  0  0  0  0  0
   -4.2790    3.2230    1.1330 C   0  0  0  0  0  0  0  0  0  0  0  0
   -2.8810    2.9190    0.9030 C   0  0  0  0  0  0  0  0  0  0  0  0
   -2.4640    1.8760    0.2010 C   0  0  0  0  0  0  0  0  0  0  0  0
   -3.4100    0.9490   -0.3990 C   0  0  0  0  0  0  0  0  0  0  0  0
   -3.4130   -0.3610   -0.2900 C   0  0  0  0  0  0  0  0  0  0  0  0
   -2.4660   -1.0290    0.4460 O   0  0  0  0  0  0  0  0  0  0  0  0
   -2.8710   -2.3610    0.6960 C   0  0  2  0  0  0  0  0  0  0  0  0
   -1.6630   -3.2710    0.6190 C   0  0  0  0  0  0  0  0  0  0  0  0
   -0.4580   -2.4540    0.9710 C   0  0  0  0  0  0  0  0  0  0  0  0
    0.8460   -2.9950    0.5040 C   0  0  0  0  0  0  0  0  0  0  0  0
    0.9560   -2.9810   -0.9220 N   0  0  0  0  0  0  0  0  0  0  0  0
    2.1460   -2.8000   -1.6720 C   0  0  0  0  0  0  0  0  0  0  0  0
    2.2990   -3.5800   -2.6780 O   0  0  0  0  0  0  0  0  0  0  0  0
    3.0510   -1.8340   -1.3050 O   0  0  0  0  0  0  0  0  0  0  0  0
    2.7530   -0.4680   -1.1090 C   0  0  1  0  0  0  0  0  0  0  0  0
    1.3920   -0.3800   -0.9680 O   0  0  0  0  0  0  0  0  0  0  0  0
    1.0060    0.9230   -0.7850 C   0  0  2  0  0  0  0  0  0  0  0  0
    1.3790    1.3100    0.6300 C   0  0  0  0  0  0  0  0  0  0  0  0
    2.8800    1.2330    0.7370 C   0  0  0  0  0  0  0  0  0  0  0  0
    3.4650   -0.0000    0.1330 C   0  0  2  0  0  0  0  0  0  0  0  0
    4.8730    0.2150   -0.0570 N   0  0  0  0  0  0  0  0  0  0  0  0
    5.4240    1.1950   -0.9710 C   0  0  0  0  0  0  0  0  0  0  0  0
    6.9090    1.0920   -0.9410 C   0  0  0  0  0  0  0  0  0  0  0  0
    7.1850   -0.0480   -0.1270 N   0  0  0  0  0  0  0  0  0  0  0  0
    8.4580   -0.7140   -0.0040 C   0  0  0  0  0  0  0  0  0  0  0  0
    9.0450   -0.8010    1.1310 N   0  0  0  0  0  0  0  0  0  0  0  0
    5.9900   -0.4200    0.5470 C   0  0  0  0  0  0  0  0  0  0  0  0
    5.9480   -1.1860    1.5170 O   0  0  0  0  0  0  0  0  0  0  0  0
   -0.4460    1.1690   -1.0830 C   0  0  0  0  0  0  0  0  0  0  0  0
   -1.0740    1.6950    0.0560 O   0  0  0  0  0  0  0  0  0  0  0  0
   -3.8040   -2.6580   -0.3750 N   0  0  0  0  0  0  0  0  0  0  0  0
   -4.1340   -3.9660   -0.8430 C   0  0  0  0  0  0  0  0  0  0  0  0
   -5.2300   -4.4440   -0.1070 O   0  0  0  0  0  0  0  0  0  0  0  0
   -5.5310   -5.6480   -0.5380 O   0  0  0  0  0  0  0  0  0  0  0  0
   -4.2940   -1.4050   -0.8340 C   0  0  0  0  0  0  0  0  0  0  0  0
   -5.2930   -1.1970   -1.5670 O   0  0  0  0  0  0  0  0  0  0  0  0
   -5.3150    2.4540    0.6500 O   0  0  0  0  0  0  0  0  0  0  0  0
   -6.6540    2.7620    0.8830 C   0  0  0  0  0  0  0  0  0  0  0  0
   -6.8910    3.7820    1.5600 O   0  0  0  0  0  0  0  0  0  0  0  0
   -7.6970    1.9900    0.3980 O   0  0  0  0  0  0  0  0  0  0  0  0
  1  2  1  0
  2  3  1  0
  3  4  2  3
  4  5  1  0
  4 40  1  0
  5  6  2  3
  6  7  1  0
  6 33  1  0
  7  8  2  0
  8  9  1  0
  8 38  1  0
  9 10  1  0
 10 11  1  6
 10 34  1  0
 11 12  1  0
 12 13  1  0
 13 14  1  0
 14 15  1  0
 15 16  2  0
 15 17  1  0
 18 17  1  1
 18 19  1  0
 18 23  1  0
 19 20  1  0
 20 21  1  1
 20 32  1  0
 21 22  1  0
 22 23  1  0
 23 24  1  6
 24 25  1  0
 24 30  1  0
 25 26  1  0
 26 27  1  0
 27 28  1  0
 27 30  1  0
 28 29  2  0
 30 31  2  0
 32 33  1  0
 34 35  1  0
 34 38  1  0
 35 36  1  0
 36 37  1  0
 38 39  2  0
 40 41  1  0
 41 42  2  0
 41 43  1  0
M  END
