
     RDKit          3D

 43 47  0  0  0  0  0  0  0  0999 V2000
   -7.1560   -1.0930   -2.5790 O   0  0  0  0  0  0  0  0  0  0  0  0
   -6.9600   -1.5590   -1.4360 C   0  0  0  0  0  0  0  0  0  0  0  0
   -6.0500   -1.0400   -0.4710 C   0  0  0  0  0  0  0  0  0  0  0  0
   -5.4560    0.3080   -0.4690 C   0  0  1  0  0  0  0  0  0  0  0  0
   -4.6190    0.6940   -1.5600 O   0  0  0  0  0  0  0  0  0  0  0  0
   -3.2110    0.5300   -1.5270 C   0  0  0  0  0  0  0  0  0  0  0  0
   -2.6760   -0.2340   -2.5920 C   0  0  0  0  0  0  0  0  0  0  0  0
   -1.3150   -0.5350   -2.6860 C   0  0  0  0  0  0  0  0  0  0  0  0
   -0.4870   -0.0510   -1.7030 C   0  0  0  0  0  0  0  0  0  0  0  0
    0.7600   -0.6430   -1.5230 N   0  0  0  0  0  0  0  0  0  0  0  0
    1.9350    0.0070   -0.8550 C   0  0  0  0  0  0  0  0  0  0  0  0
    1.8820    1.1470   -0.6580 O   0  0  0  0  0  0  0  0  0  0  0  0
    2.8660   -1.0410   -0.6070 N   0  0  0  0  0  0  0  0  0  0  0  0
    4.1900   -0.0420    0.0490 C   0  0  0  0  0  0  0  0  0  0  0  0
    3.9790    1.0700   -0.0610 O   0  0  0  0  0  0  0  0  0  0  0  0
    5.1660   -0.9550    0.5800 C   0  0  0  0  0  0  0  0  0  0  0  0
    4.9950   -2.2670    1.0720 C   0  0  0  0  0  0  0  0  0  0  0  0
    6.1550   -2.7080    1.5370 N   0  0  0  0  0  0  0  0  0  0  0  0
    7.0530   -1.7580    1.3710 N   0  0  0  0  0  0  0  0  0  0  0  0
    8.3320   -1.4650    1.5740 C   0  0  0  0  0  0  0  0  0  0  0  0
    8.5900   -0.1650    1.0900 C   0  0  0  0  0  0  0  0  0  0  0  0
    9.8820    0.5360    1.1210 C   0  0  2  0  0  0  0  0  0  0  0  0
   10.0580    1.4400   -0.0700 C   0  0  0  0  0  0  0  0  0  0  0  0
   10.1320    0.5330   -1.1300 O   0  0  0  0  0  0  0  0  0  0  0  0
   10.3830   -0.7300   -0.5740 C   0  0  0  0  0  0  0  0  0  0  0  0
   10.8180   -0.5010    0.7330 O   0  0  0  0  0  0  0  0  0  0  0  0
    7.4350    0.2680    0.6300 O   0  0  0  0  0  0  0  0  0  0  0  0
    6.5090   -0.6580    0.7890 C   0  0  0  0  0  0  0  0  0  0  0  0
   -1.0250    0.7190   -0.6670 C   0  0  0  0  0  0  0  0  0  0  0  0
   -2.3890    1.0240   -0.5520 C   0  0  0  0  0  0  0  0  0  0  0  0
   -2.7210    1.9700    0.5560 C   0  0  0  0  0  0  0  0  0  0  0  0
   -3.4410    1.5500    1.5780 O   0  0  0  0  0  0  0  0  0  0  0  0
   -4.1270    2.5140    2.3080 C   0  0  0  0  0  0  0  0  0  0  0  0
   -5.1060    1.8410    3.2350 C   0  0  0  0  0  0  0  0  0  0  0  0
   -6.4520    2.2330    3.1000 O   0  0  0  0  0  0  0  0  0  0  0  0
   -7.3850    1.8620    2.1900 C   0  0  0  0  0  0  0  0  0  0  0  0
   -8.5400    1.4420    2.6170 O   0  0  0  0  0  0  0  0  0  0  0  0
   -7.2890    1.8820    0.7320 N   0  0  0  0  0  0  0  0  0  0  0  0
   -6.2450    1.3600   -0.0040 C   0  0  0  0  0  0  0  0  0  0  0  0
   -5.6480    2.6230   -0.5640 O   0  0  0  0  0  0  0  0  0  0  0  0
   -7.7280   -2.7280   -1.0570 N   0  0  0  0  0  0  0  0  0  0  0  0
   -8.6440   -3.2960   -1.8880 O   0  0  0  0  0  0  0  0  0  0  0  0
   -8.1740   -3.8460   -2.9600 O   0  0  0  0  0  0  0  0  0  0  0  0
  1  2  2  0
  2  3  1  0
  2 41  1  0
  4  3  1  6
  4  5  1  0
  4 39  1  0
  5  6  1  0
  6  7  2  0
  6 30  1  0
  7  8  1  0
  8  9  2  0
  9 10  1  0
  9 29  1  0
 10 11  1  0
 11 12  2  0
 11 13  1  0
 13 14  1  0
 14 15  2  0
 14 16  1  0
 16 17  1  0
 16 28  2  0
 17 18  2  0
 18 19  1  0
 19 20  1  0
 19 28  1  0
 20 21  2  0
 22 21  1  6
 21 27  1  0
 22 23  1  0
 22 26  1  0
 23 24  1  0
 24 25  1  0
 25 26  1  0
 27 28  1  0
 29 30  2  0
 30 31  1  0
 31 32  1  0
 32 33  1  0
 33 34  1  0
 34 35  1  0
 35 36  1  0
 36 37  2  0
 36 38  1  0
 38 39  1  0
 39 40  2  0
 41 42  1  0
 42 43  1  0
M  END
