
     RDKit          3D

 25 26  0  0  0  0  0  0  0  0999 V2000
   -5.5860    1.2900    1.9040 C   0  0  0  0  0  0  0  0  0  0  0  0
   -4.4880    0.8650    1.0350 C   0  0  0  0  0  0  0  0  0  0  0  0
   -3.3270    1.0920    1.5490 O   0  0  0  0  0  0  0  0  0  0  0  0
   -4.5550    0.2530   -0.2490 C   0  0  0  0  0  0  0  0  0  0  0  0
   -3.3080   -0.1440   -0.9410 C   0  0  0  0  0  0  0  0  0  0  0  0
   -3.4610   -0.7160   -2.0930 O   0  0  0  0  0  0  0  0  0  0  0  0
   -1.9870    0.0530   -0.4400 C   0  0  0  0  0  0  0  0  0  0  0  0
   -0.9140   -0.3840   -1.1170 C   0  0  0  0  0  0  0  0  0  0  0  0
    0.4090   -0.1270   -0.5140 C   0  0  0  0  0  0  0  0  0  0  0  0
    1.4830   -0.5650   -1.1370 C   0  0  0  0  0  0  0  0  0  0  0  0
    2.8280   -0.3690   -0.6460 C   0  0  0  0  0  0  0  0  0  0  0  0
    3.9240   -0.8270   -1.2730 C   0  0  0  0  0  0  0  0  0  0  0  0
    5.2160   -0.5570   -0.6660 C   0  0  0  0  0  0  0  0  0  0  0  0
    5.6490    0.6510   -0.2250 C   0  0  0  0  0  0  0  0  0  0  0  0
    6.9230    0.4740    0.2820 C   0  0  0  0  0  0  0  0  0  0  0  0
    7.1860   -0.8630    0.1110 C   0  0  0  0  0  0  0  0  0  0  0  0
    8.4270   -1.5980    0.4880 C   0  0  0  0  0  0  0  0  0  0  0  0
    6.1710   -1.4520   -0.4480 O   0  0  0  0  0  0  0  0  0  0  0  0
    3.0090    0.3260    0.5460 O   0  0  0  0  0  0  0  0  0  0  0  0
    1.9040    0.8020    1.2060 C   0  0  0  0  0  0  0  0  0  0  0  0
    2.1280    1.4620    2.2740 O   0  0  0  0  0  0  0  0  0  0  0  0
    0.5120    0.6020    0.7660 C   0  0  0  0  0  0  0  0  0  0  0  0
   -5.7060    0.0240   -0.8760 C   0  0  0  0  0  0  0  0  0  0  0  0
   -7.0260    0.3470   -0.3770 C   0  0  0  0  0  0  0  0  0  0  0  0
   -5.6060   -0.5970   -2.2020 N   0  0  0  0  0  0  0  0  0  0  0  0
  1  2  1  0
  2  3  2  0
  2  4  1  0
  4  5  1  0
  4 23  2  3
  5  6  2  0
  5  7  1  0
  7  8  2  3
  8  9  1  0
  9 10  2  0
  9 22  1  0
 10 11  1  0
 11 12  2  3
 11 19  1  0
 12 13  1  0
 13 14  2  0
 13 18  1  0
 14 15  1  0
 15 16  2  0
 16 17  1  0
 16 18  1  0
 19 20  1  0
 20 21  2  0
 20 22  1  0
 23 24  1  0
 23 25  1  0
M  END
