
     RDKit          3D

 25 27  0  0  0  0  0  0  0  0999 V2000
    2.6140    1.6330   -1.3920 O   0  0  0  0  0  0  0  0  0  0  0  0
    1.7020    2.4170   -1.0450 C   0  0  0  0  0  0  0  0  0  0  0  0
    1.8180    3.7460   -1.3900 O   0  0  0  0  0  0  0  0  0  0  0  0
    0.5840    1.8700   -0.2980 C   0  0  0  0  0  0  0  0  0  0  0  0
   -0.3190    2.7120    0.0180 O   0  0  0  0  0  0  0  0  0  0  0  0
    0.4490    0.5200    0.0730 N   0  0  0  0  0  0  0  0  0  0  0  0
    1.4220   -0.4810   -0.1830 C   0  0  0  0  0  0  0  0  0  0  0  0
    1.2190   -1.4520   -1.1630 C   0  0  0  0  0  0  0  0  0  0  0  0
    2.1220   -2.4360   -1.4540 C   0  0  0  0  0  0  0  0  0  0  0  0
    3.3080   -2.4890   -0.7470 C   0  0  0  0  0  0  0  0  0  0  0  0
    3.5560   -1.5390    0.2440 C   0  0  0  0  0  0  0  0  0  0  0  0
    2.6200   -0.5490    0.5180 C   0  0  0  0  0  0  0  0  0  0  0  0
    2.9440    0.3870    1.5720 C   0  0  0  0  0  0  0  0  0  0  0  0
    4.0560    0.2710    2.1710 O   0  0  0  0  0  0  0  0  0  0  0  0
    2.1010    1.3910    1.9520 O   0  0  0  0  0  0  0  0  0  0  0  0
   -0.7470    0.0930    0.7090 C   0  0  0  0  0  0  0  0  0  0  0  0
   -0.7570   -0.3130    2.0040 C   0  0  0  0  0  0  0  0  0  0  0  0
   -1.9520   -0.7340    2.5940 C   0  0  0  0  0  0  0  0  0  0  0  0
   -3.0940   -0.7280    1.8420 C   0  0  0  0  0  0  0  0  0  0  0  0
   -3.1190   -0.3200    0.5140 C   0  0  0  0  0  0  0  0  0  0  0  0
   -4.3040   -0.3420   -0.1850 C   0  0  0  0  0  0  0  0  0  0  0  0
   -4.2950    0.0630   -1.4960 C   0  0  0  0  0  0  0  0  0  0  0  0
   -3.1040    0.4760   -2.0640 C   0  0  0  0  0  0  0  0  0  0  0  0
   -1.9210    0.4960   -1.3590 C   0  0  0  0  0  0  0  0  0  0  0  0
   -1.9350    0.0880   -0.0380 C   0  0  0  0  0  0  0  0  0  0  0  0
  1  2  2  0
  2  3  1  0
  2  4  1  0
  4  5  2  0
  4  6  1  0
  6  7  1  0
  6 16  1  0
  7  8  2  0
  7 12  1  0
  8  9  1  0
  9 10  2  0
 10 11  1  0
 11 12  2  0
 12 13  1  0
 13 14  2  0
 13 15  1  0
 16 17  2  0
 16 25  1  0
 17 18  1  0
 18 19  2  0
 19 20  1  0
 20 21  2  0
 20 25  1  0
 21 22  1  0
 22 23  2  0
 23 24  1  0
 24 25  2  0
M  END
