
     RDKit          3D

 25 28  0  0  0  0  0  0  0  0999 V2000
   -0.5160    5.6260   -0.5010 O   0  0  0  0  0  0  0  0  0  0  0  0
   -0.1530    4.4040   -0.4010 C   0  0  0  0  0  0  0  0  0  0  0  0
   -1.0700    3.4550   -0.0560 C   0  0  0  0  0  0  0  0  0  0  0  0
   -0.6970    2.1150    0.0590 C   0  0  0  0  0  0  0  0  0  0  0  0
   -1.6990    1.1200    0.3900 C   0  0  0  0  0  0  0  0  0  0  0  0
   -2.4530    1.2540    1.5430 C   0  0  0  0  0  0  0  0  0  0  0  0
   -3.4200    0.3300    1.8410 C   0  0  0  0  0  0  0  0  0  0  0  0
   -3.6510   -0.7330    1.0050 C   0  0  0  0  0  0  0  0  0  0  0  0
   -2.8980   -0.8780   -0.1600 C   0  0  0  0  0  0  0  0  0  0  0  0
   -1.9460    0.0460   -0.4390 C   0  0  0  0  0  0  0  0  0  0  0  0
   -3.1130   -1.9480   -1.0250 O   0  0  0  0  0  0  0  0  0  0  0  0
   -4.3070   -2.7150   -0.8530 C   0  0  0  0  0  0  0  0  0  0  0  0
   -4.4020   -2.9720    0.6570 C   0  0  0  0  0  0  0  0  0  0  0  0
   -4.6140   -1.7030    1.2480 O   0  0  0  0  0  0  0  0  0  0  0  0
    0.6010    1.7840   -0.1790 C   0  0  0  0  0  0  0  0  0  0  0  0
    1.0430    0.4830   -0.0720 C   0  0  0  0  0  0  0  0  0  0  0  0
    2.3720    0.1050   -0.3010 C   0  0  0  0  0  0  0  0  0  0  0  0
    2.7660   -1.2200   -0.1810 O   0  0  0  0  0  0  0  0  0  0  0  0
    4.1200   -1.5170   -0.4270 C   0  0  0  0  0  0  0  0  0  0  0  0
    4.4130   -2.9880   -0.2620 C   0  0  0  0  0  0  0  0  0  0  0  0
    5.7640   -3.1880   -0.5240 O   0  0  0  0  0  0  0  0  0  0  0  0
    3.2320    1.1220   -0.6450 C   0  0  0  0  0  0  0  0  0  0  0  0
    2.8270    2.4290   -0.7600 C   0  0  0  0  0  0  0  0  0  0  0  0
    1.5090    2.7950   -0.5310 C   0  0  0  0  0  0  0  0  0  0  0  0
    1.1220    4.0730   -0.6350 N   0  0  0  0  0  0  0  0  0  0  0  0
  1  2  2  0
  2  3  1  0
  2 25  1  0
  3  4  2  0
  4  5  1  0
  4 15  1  0
  5  6  2  0
  5 10  1  0
  6  7  1  0
  7  8  2  0
  8  9  1  0
  8 14  1  0
  9 10  2  0
  9 11  1  0
 11 12  1  0
 12 13  1  0
 13 14  1  0
 15 16  2  0
 15 24  1  0
 16 17  1  0
 17 18  1  0
 17 22  2  0
 18 19  1  0
 19 20  1  0
 20 21  1  0
 22 23  1  0
 23 24  2  0
 24 25  1  0
M  END
