
     RDKit          3D

 25 28  0  0  0  0  0  0  0  0999 V2000
   -3.6330    3.5040    0.0220 C   0  0  0  0  0  0  0  0  0  0  0  0
   -2.8870    2.2120    0.1060 C   0  0  0  0  0  0  0  0  0  0  0  0
   -3.5180    1.0530   -0.2930 C   0  0  0  0  0  0  0  0  0  0  0  0
   -2.8400   -0.1400   -0.2210 C   0  0  0  0  0  0  0  0  0  0  0  0
   -3.1600   -1.4050   -0.5190 O   0  0  0  0  0  0  0  0  0  0  0  0
   -2.1850   -2.2170   -0.2850 C   0  0  0  0  0  0  0  0  0  0  0  0
   -1.1440   -1.4170    0.2030 C   0  0  0  0  0  0  0  0  0  0  0  0
   -1.5370   -0.1090    0.2550 C   0  0  0  0  0  0  0  0  0  0  0  0
   -0.8690    1.0130    0.6640 C   0  0  0  0  0  0  0  0  0  0  0  0
   -1.5850    2.1980    0.5770 C   0  0  0  0  0  0  0  0  0  0  0  0
   -1.0120    3.3870    0.9590 O   0  0  0  0  0  0  0  0  0  0  0  0
    0.2180   -1.9020    0.5720 C   0  0  0  0  0  0  0  0  0  0  0  0
    1.1970   -1.1240    0.2310 C   0  0  0  0  0  0  0  0  0  0  0  0
    2.5790   -1.3920    0.4850 C   0  0  0  0  0  0  0  0  0  0  0  0
    3.6540   -0.7360    0.2320 C   0  0  0  0  0  0  0  0  0  0  0  0
    3.9510    0.5130   -0.3930 C   0  0  0  0  0  0  0  0  0  0  0  0
    3.1200    1.4510   -0.9300 C   0  0  0  0  0  0  0  0  0  0  0  0
    3.8950    2.5120   -1.4290 C   0  0  0  0  0  0  0  0  0  0  0  0
    5.1760    2.1520   -1.1640 C   0  0  0  0  0  0  0  0  0  0  0  0
    5.1960    1.0050   -0.5700 O   0  0  0  0  0  0  0  0  0  0  0  0
    0.4050   -3.1990    1.2440 C   0  0  0  0  0  0  0  0  0  0  0  0
    1.2650   -3.2700    2.1030 O   0  0  0  0  0  0  0  0  0  0  0  0
   -0.3860   -4.3780    0.9270 N   0  0  0  0  0  0  0  0  0  0  0  0
   -1.6920   -4.3950    0.6260 O   0  0  0  0  0  0  0  0  0  0  0  0
   -2.1130   -3.7030   -0.4690 C   0  0  0  0  0  0  0  0  0  0  0  0
  1  2  1  0
  2  3  2  0
  2 10  1  0
  3  4  1  0
  4  5  1  0
  4  8  2  0
  5  6  1  0
  6  7  2  0
  6 25  1  0
  7  8  1  0
  7 12  1  0
  8  9  1  0
  9 10  2  0
 10 11  1  0
 12 13  2  3
 12 21  1  0
 13 14  1  0
 14 15  2  3
 15 16  1  0
 16 17  2  0
 16 20  1  0
 17 18  1  0
 18 19  2  0
 19 20  1  0
 21 22  2  0
 21 23  1  0
 23 24  1  0
 24 25  1  0
M  END
