
     RDKit          3D

 25 27  0  0  0  0  0  0  0  0999 V2000
    1.5690    6.7510   -1.8690 O   0  0  0  0  0  0  0  0  0  0  0  0
    0.9580    5.6520   -1.7480 C   0  0  0  0  0  0  0  0  0  0  0  0
    1.3870    4.6370   -0.8370 C   0  0  0  0  0  0  0  0  0  0  0  0
    0.8050    3.4690   -0.6560 C   0  0  0  0  0  0  0  0  0  0  0  0
    1.3110    2.5560    0.2600 C   0  0  0  0  0  0  0  0  0  0  0  0
    0.7260    1.3210    0.4770 C   0  0  0  0  0  0  0  0  0  0  0  0
    1.3010    0.4490    1.3940 O   0  0  0  0  0  0  0  0  0  0  0  0
    1.8750   -0.7490    1.0290 C   0  0  0  0  0  0  0  0  0  0  0  0
    1.9460   -1.1360   -0.2850 C   0  0  0  0  0  0  0  0  0  0  0  0
    2.5310   -2.3560   -0.6470 C   0  0  0  0  0  0  0  0  0  0  0  0
    3.0440   -3.1850    0.3070 C   0  0  0  0  0  0  0  0  0  0  0  0
    2.9710   -2.7930    1.6280 C   0  0  0  0  0  0  0  0  0  0  0  0
    2.3870   -1.5740    2.0000 C   0  0  0  0  0  0  0  0  0  0  0  0
   -0.3970    0.9820   -0.2290 C   0  0  0  0  0  0  0  0  0  0  0  0
   -1.2030   -0.0280    0.0370 C   0  0  0  0  0  0  0  0  0  0  0  0
   -2.3690   -0.2810   -0.8690 C   0  0  0  0  0  0  0  0  0  0  0  0
   -2.7670   -1.7610   -0.7760 C   0  0  0  0  0  0  0  0  0  0  0  0
   -3.1650   -2.2520    0.5490 C   0  0  0  0  0  0  0  0  0  0  0  0
   -2.0360   -2.9700    1.2760 C   0  0  0  0  0  0  0  0  0  0  0  0
   -0.9560   -2.0660    1.5480 O   0  0  0  0  0  0  0  0  0  0  0  0
   -0.9810   -0.7000    1.3280 C   0  0  0  0  0  0  0  0  0  0  0  0
   -0.8040    0.1040    2.3170 O   0  0  0  0  0  0  0  0  0  0  0  0
   -0.8940    1.9250   -1.1580 C   0  0  0  0  0  0  0  0  0  0  0  0
   -1.9000    1.7370   -1.8570 O   0  0  0  0  0  0  0  0  0  0  0  0
   -0.2820    3.1320   -1.3430 N   0  0  0  0  0  0  0  0  0  0  0  0
  1  2  2  0
  2  3  1  0
  3  4  2  3
  4  5  1  0
  4 25  1  0
  5  6  2  0
  6  7  1  0
  6 14  1  0
  7  8  1  0
  8  9  2  0
  8 13  1  0
  9 10  1  0
 10 11  2  0
 11 12  1  0
 12 13  2  0
 14 15  2  3
 14 23  1  0
 15 16  1  0
 15 21  1  0
 16 17  1  0
 17 18  1  0
 18 19  1  0
 19 20  1  0
 20 21  1  0
 21 22  2  0
 23 24  2  0
 23 25  1  0
M  END
