
     RDKit          3D

 31 33  0  0  0  0  0  0  0  0999 V2000
   -2.4660    4.6980    1.0740 O   0  0  0  0  0  0  0  0  0  0  0  0
   -3.3900    4.9120    0.2610 C   0  0  0  0  0  0  0  0  0  0  0  0
   -4.0750    3.8800   -0.4500 C   0  0  0  0  0  0  0  0  0  0  0  0
   -3.8670    2.6090   -0.3780 C   0  0  0  0  0  0  0  0  0  0  0  0
   -2.8930    1.9340    0.4420 C   0  0  0  0  0  0  0  0  0  0  0  0
   -2.6320    0.6720    0.5420 C   0  0  0  0  0  0  0  0  0  0  0  0
   -3.2190   -0.4660   -0.1350 C   0  0  0  0  0  0  0  0  0  0  0  0
   -3.6800   -0.5700   -1.3520 C   0  0  0  0  0  0  0  0  0  0  0  0
   -4.2400   -1.7950   -1.8620 C   0  0  0  0  0  0  0  0  0  0  0  0
   -4.7080   -1.9290   -3.0720 N   0  0  0  0  0  0  0  0  0  0  0  0
   -5.1760   -3.1740   -3.3000 O   0  0  0  0  0  0  0  0  0  0  0  0
   -4.9790   -3.9570   -2.1440 C   0  0  0  0  0  0  0  0  0  0  0  0
   -4.4110   -3.0180   -1.2630 O   0  0  0  0  0  0  0  0  0  0  0  0
   -3.1320   -1.5750    0.7880 N   0  0  0  0  0  0  0  0  0  0  0  0
   -2.4940   -1.1160    2.0020 C   0  0  0  0  0  0  0  0  0  0  0  0
   -2.5510   -1.5150    3.1610 O   0  0  0  0  0  0  0  0  0  0  0  0
   -1.6750    0.0510    1.5090 C   0  0  1  0  0  0  0  0  0  0  0  0
   -0.4640   -0.3910    0.7700 C   0  0  0  0  0  0  0  0  0  0  0  0
    0.4850    0.6740    1.0110 N   0  0  0  0  0  0  0  0  0  0  0  0
    1.5840    1.0000    0.1460 C   0  0  0  0  0  0  0  0  0  0  0  0
    2.8080    0.2310    0.4870 C   0  0  0  0  0  0  0  0  0  0  0  0
    2.7470   -0.5940    1.4520 O   0  0  0  0  0  0  0  0  0  0  0  0
    4.0450    0.3550   -0.1940 N   0  0  0  0  0  0  0  0  0  0  0  0
    5.2180   -0.4330    0.1980 C   0  0  0  0  0  0  0  0  0  0  0  0
    6.3800   -0.1050   -0.6840 C   0  0  0  0  0  0  0  0  0  0  0  0
    7.8320   -1.1430   -0.1330 P   0  0  0  0  0  0  0  0  0  0  0  0
    7.2720   -2.4110    0.8830 O   0  0  0  0  0  0  0  0  0  0  0  0
    8.7060   -1.7580   -1.5040 O   0  0  0  0  0  0  0  0  0  0  0  0
    0.0700    1.2540    2.2410 C   0  0  0  0  0  0  0  0  0  0  0  0
    0.8290    2.0110    2.9400 O   0  0  0  0  0  0  0  0  0  0  0  0
   -1.2330    0.8680    2.5190 O   0  0  0  0  0  0  0  0  0  0  0  0
  1  2  2  0
  2  3  1  0
  3  4  2  3
  4  5  1  0
  5  6  2  3
  6  7  1  0
  6 17  1  0
  7  8  2  3
  7 14  1  0
  8  9  1  0
  9 10  2  0
  9 13  1  0
 10 11  1  0
 11 12  1  0
 12 13  1  0
 14 15  1  0
 15 16  2  0
 15 17  1  0
 17 18  1  6
 17 31  1  0
 18 19  1  0
 19 20  1  0
 19 29  1  0
 20 21  1  0
 21 22  2  0
 21 23  1  0
 23 24  1  0
 24 25  1  0
 25 26  1  0
 26 27  1  0
 26 28  1  0
 29 30  2  0
 29 31  1  0
M  END
