
     RDKit          3D

 31 33  0  0  0  0  0  0  0  0999 V2000
   -3.8080   -3.3140   -1.2250 C   0  0  0  0  0  0  0  0  0  0  0  0
   -3.9590   -2.4570    0.0130 C   0  0  1  0  0  0  0  0  0  0  0  0
   -2.7790   -1.5780    0.2180 C   0  0  0  0  0  0  0  0  0  0  0  0
   -1.6020   -1.9830    0.3450 O   0  0  0  0  0  0  0  0  0  0  0  0
   -3.2480   -0.2340    0.2390 N   0  0  0  0  0  0  0  0  0  0  0  0
   -2.9100    1.1720    0.3670 C   0  0  0  0  0  0  0  0  0  0  0  0
   -1.5580    1.6700    0.5710 C   0  0  0  0  0  0  0  0  0  0  0  0
   -1.2850    2.8890    0.6810 O   0  0  0  0  0  0  0  0  0  0  0  0
   -0.3950    0.8560    0.6710 N   0  0  0  0  0  0  0  0  0  0  0  0
    0.9160    1.5200    0.8800 C   0  0  0  0  0  0  0  0  0  0  0  0
    1.9950    0.4600    0.9550 C   0  0  0  0  0  0  0  0  0  0  0  0
    2.0420   -0.2730   -0.2100 O   0  0  0  0  0  0  0  0  0  0  0  0
    3.2650   -1.5000   -0.1680 P   0  0  0  0  0  0  0  0  0  0  0  0
    3.3350   -2.3990   -1.6270 O   0  0  0  0  0  0  0  0  0  0  0  0
    4.9110   -0.8390    0.3400 C   0  0  1  0  0  0  0  0  0  0  0  0
    5.9820   -1.7540   -0.2630 C   0  0  0  0  0  0  0  0  0  0  0  0
    7.3650   -1.2500    0.0870 C   0  0  0  0  0  0  0  0  0  0  0  0
    7.3740    0.2770    0.0470 C   0  0  0  0  0  0  0  0  0  0  0  0
    6.3500    0.6480   -0.8210 O   0  0  0  0  0  0  0  0  0  0  0  0
    5.1430    0.5760   -0.0980 C   0  0  0  0  0  0  0  0  0  0  0  0
   -3.9980    1.9430    0.2740 C   0  0  0  0  0  0  0  0  0  0  0  0
   -4.1150    3.4010    0.3480 C   0  0  0  0  0  0  0  0  0  0  0  0
   -3.1410    4.3830    0.5310 N   0  0  0  0  0  0  0  0  0  0  0  0
   -5.2960    3.9360    0.2290 O   0  0  0  0  0  0  0  0  0  0  0  0
   -5.1260    1.0760    0.0770 N   0  0  0  0  0  0  0  0  0  0  0  0
   -6.4770    1.4570   -0.0740 C   0  0  0  0  0  0  0  0  0  0  0  0
   -6.9930    2.5750   -0.0740 O   0  0  0  0  0  0  0  0  0  0  0  0
   -7.4390    0.4130   -0.2590 O   0  0  0  0  0  0  0  0  0  0  0  0
   -4.6490   -0.2760    0.0570 C   0  0  0  0  0  0  0  0  0  0  0  0
   -5.0800   -1.5260   -0.0740 C   0  0  0  0  0  0  0  0  0  0  0  0
   -6.4380   -1.8790   -0.2690 O   0  0  0  0  0  0  0  0  0  0  0  0
  2  1  1  6
  2  3  1  0
  2 30  1  0
  3  4  2  0
  3  5  1  0
  5  6  1  0
  5 29  1  0
  6  7  1  0
  6 21  2  0
  7  8  2  0
  7  9  1  0
  9 10  1  0
 10 11  1  0
 11 12  1  0
 12 13  1  0
 13 14  1  0
 15 13  1  6
 15 16  1  0
 15 20  1  0
 16 17  1  0
 17 18  1  0
 18 19  1  0
 19 20  1  0
 21 22  1  0
 21 25  1  0
 22 23  1  0
 22 24  2  0
 25 26  1  0
 25 29  1  0
 26 27  2  0
 26 28  1  0
 29 30  2  0
 30 31  1  0
M  END
