
     RDKit          3D

 31 33  0  0  0  0  0  0  0  0999 V2000
   -3.7370    0.5650   -2.6480 C   0  0  0  0  0  0  0  0  0  0  0  0
   -4.5270    0.1230   -1.5350 C   0  0  0  0  0  0  0  0  0  0  0  0
   -4.1780   -0.3150   -0.3670 C   0  0  0  0  0  0  0  0  0  0  0  0
   -2.8270   -0.4600    0.0950 C   0  0  0  0  0  0  0  0  0  0  0  0
   -2.6410   -0.9160    1.3030 O   0  0  0  0  0  0  0  0  0  0  0  0
   -1.6160   -0.1700   -0.5910 N   0  0  0  0  0  0  0  0  0  0  0  0
   -0.3420   -0.3700    0.0120 C   0  0  0  0  0  0  0  0  0  0  0  0
    0.7390   -0.0920   -0.6510 C   0  0  0  0  0  0  0  0  0  0  0  0
    0.9040    0.4110   -1.9580 O   0  0  0  0  0  0  0  0  0  0  0  0
    2.3110    0.6690   -2.2110 C   0  0  0  0  0  0  0  0  0  0  0  0
    2.8880    0.8470   -0.8370 C   0  0  2  0  0  0  0  0  0  0  0  0
    4.3110    0.7190   -0.7290 C   0  0  0  0  0  0  0  0  0  0  0  0
    5.0370    1.3400   -1.5770 O   0  0  0  0  0  0  0  0  0  0  0  0
    4.9230   -0.0760    0.2940 N   0  0  0  0  0  0  0  0  0  0  0  0
    6.3420    0.0670    0.4810 C   0  0  1  0  0  0  0  0  0  0  0  0
    6.7160    0.4450    1.8440 C   0  0  0  0  0  0  0  0  0  0  0  0
    7.4910   -0.4410    2.3610 N   0  0  0  0  0  0  0  0  0  0  0  0
    7.7380   -1.4870    1.4700 N   0  0  0  0  0  0  0  0  0  0  0  0
    7.0440   -1.2360    0.2590 C   0  0  0  0  0  0  0  0  0  0  0  0
    7.0560   -1.9820   -0.7470 O   0  0  0  0  0  0  0  0  0  0  0  0
    4.1120   -0.9470    1.0540 C   0  0  0  0  0  0  0  0  0  0  0  0
    4.6420   -1.6630    1.9560 O   0  0  0  0  0  0  0  0  0  0  0  0
    2.6840   -0.9960    0.7760 C   0  0  0  0  0  0  0  0  0  0  0  0
    2.1120   -0.2580   -0.1340 C   0  0  0  0  0  0  0  0  0  0  0  0
   -5.2940   -0.6820    0.5280 C   0  0  0  0  0  0  0  0  0  0  0  0
   -5.2800   -1.1370    1.7230 C   0  0  0  0  0  0  0  0  0  0  0  0
   -6.4680   -1.4350    2.4330 O   0  0  0  0  0  0  0  0  0  0  0  0
   -6.5860   -0.4970   -0.0340 O   0  0  0  0  0  0  0  0  0  0  0  0
   -7.3040    1.0880    0.2290 P   0  0  0  0  0  0  0  0  0  0  0  0
   -8.0460    1.1850    1.7900 O   0  0  0  0  0  0  0  0  0  0  0  0
   -6.0470    2.2650    0.0310 O   0  0  0  0  0  0  0  0  0  0  0  0
  1  2  1  0
  2  3  2  3
  3  4  1  0
  3 25  1  0
  4  5  2  0
  4  6  1  0
  6  7  1  0
  7  8  2  3
  8  9  1  0
  8 24  1  0
  9 10  1  0
 11 10  1  6
 11 12  1  0
 11 24  1  0
 12 13  2  0
 12 14  1  0
 15 14  1  1
 14 21  1  0
 15 16  1  0
 15 19  1  0
 16 17  2  0
 17 18  1  0
 18 19  1  0
 19 20  2  0
 21 22  2  0
 21 23  1  0
 23 24  2  0
 25 26  2  3
 25 28  1  0
 26 27  1  0
 28 29  1  0
 29 30  1  0
 29 31  1  0
M  END
