
     RDKit          3D

 31 32  0  0  0  0  0  0  0  0999 V2000
    4.0860   -1.9220   -1.8290 C   0  0  0  0  0  0  0  0  0  0  0  0
    4.9490   -1.8580   -0.6760 C   0  0  0  0  0  0  0  0  0  0  0  0
    4.6650   -1.1530    0.4480 C   0  0  0  0  0  0  0  0  0  0  0  0
    5.6550   -1.2240    1.4720 C   0  0  0  0  0  0  0  0  0  0  0  0
    5.7720   -0.7310    2.6320 C   0  0  0  0  0  0  0  0  0  0  0  0
    6.9770   -1.0730    3.3480 O   0  0  0  0  0  0  0  0  0  0  0  0
    8.1480    0.1980    3.6120 P   0  0  0  0  0  0  0  0  0  0  0  0
    9.7270   -0.3110    3.0800 O   0  0  0  0  0  0  0  0  0  0  0  0
    8.1780    0.6530    5.3000 O   0  0  0  0  0  0  0  0  0  0  0  0
    3.4450   -0.4800    0.3980 C   0  0  0  0  0  0  0  0  0  0  0  0
    2.6630   -0.5240   -0.6150 O   0  0  0  0  0  0  0  0  0  0  0  0
    2.9540    0.2870    1.4040 N   0  0  0  0  0  0  0  0  0  0  0  0
    1.8240    0.9920    1.5000 C   0  0  0  0  0  0  0  0  0  0  0  0
    2.1140    1.4650    2.7860 O   0  0  0  0  0  0  0  0  0  0  0  0
    0.6720    1.6080    1.3930 N   0  0  0  0  0  0  0  0  0  0  0  0
   -0.2650    1.5760    0.4010 C   0  0  0  0  0  0  0  0  0  0  0  0
   -0.0030    0.9320   -0.6100 O   0  0  0  0  0  0  0  0  0  0  0  0
   -1.4980    2.3010    0.6250 C   0  0  0  0  0  0  0  0  0  0  0  0
   -1.7340    3.0060    1.6160 O   0  0  0  0  0  0  0  0  0  0  0  0
   -2.4230    2.1580   -0.3410 O   0  0  0  0  0  0  0  0  0  0  0  0
   -3.6630    2.7740   -0.2780 C   0  0  0  0  0  0  0  0  0  0  0  0
   -4.4620    2.3660   -1.5310 C   0  0  0  0  0  0  0  0  0  0  0  0
   -4.5860    0.9160   -1.5150 N   0  0  0  0  0  0  0  0  0  0  0  0
   -5.7000    0.2570   -0.8670 C   0  0  0  0  0  0  0  0  0  0  0  0
   -5.8010   -1.1980   -1.1820 C   0  0  1  0  0  0  0  0  0  0  0  0
   -6.3000   -1.4200   -2.5710 C   0  0  0  0  0  0  0  0  0  0  0  0
   -5.0730   -1.3760   -3.4240 C   0  0  0  0  0  0  0  0  0  0  0  0
   -3.9240   -1.3010   -2.4110 C   0  0  2  0  0  0  0  0  0  0  0  0
   -4.5030   -1.8310   -1.1790 N   0  0  0  0  0  0  0  0  0  0  0  0
   -3.6090    0.1150   -2.1410 C   0  0  0  0  0  0  0  0  0  0  0  0
   -2.5070    0.5980   -2.4560 O   0  0  0  0  0  0  0  0  0  0  0  0
  1  2  1  0
  2  3  2  3
  3  4  1  0
  3 10  1  0
  4  5  2  3
  5  6  1  0
  6  7  1  0
  7  8  1  0
  7  9  1  0
 10 11  2  0
 10 12  1  0
 12 13  1  0
 13 14  2  0
 13 15  1  0
 15 16  1  0
 16 17  2  0
 16 18  1  0
 18 19  2  0
 18 20  1  0
 20 21  1  0
 21 22  1  0
 22 23  1  0
 23 24  1  0
 23 30  1  0
 25 24  1  6
 25 26  1  0
 25 29  1  0
 26 27  1  0
 28 27  1  6
 28 29  1  0
 28 30  1  0
 30 31  2  0
M  END
