
     RDKit          3D

 31 33  0  0  0  0  0  0  0  0999 V2000
    9.2950    1.1080    0.2340 N   0  0  0  0  0  0  0  0  0  0  0  0
    8.0330    1.3540    0.8540 C   0  0  0  0  0  0  0  0  0  0  0  0
    7.9730    2.0930    1.8740 O   0  0  0  0  0  0  0  0  0  0  0  0
    6.8300    0.7960    0.3610 N   0  0  0  0  0  0  0  0  0  0  0  0
    5.5770    1.0650    1.0100 C   0  0  1  0  0  0  0  0  0  0  0  0
    4.4820    1.3900    0.0160 C   0  0  0  0  0  0  0  0  0  0  0  0
    4.0590   -0.0040    0.0200 N   0  0  0  0  0  0  0  0  0  0  0  0
    3.2360   -0.8000   -0.8260 C   0  0  0  0  0  0  0  0  0  0  0  0
    2.6950   -0.2920   -1.8390 O   0  0  0  0  0  0  0  0  0  0  0  0
    3.0370   -2.1400   -0.5210 O   0  0  0  0  0  0  0  0  0  0  0  0
    2.2150   -2.8950   -1.3840 C   0  0  0  0  0  0  0  0  0  0  0  0
    0.9230   -2.3340   -1.4230 O   0  0  0  0  0  0  0  0  0  0  0  0
    0.1060   -2.1930   -0.3160 C   0  0  0  0  0  0  0  0  0  0  0  0
    0.5530   -2.5910    0.7880 O   0  0  0  0  0  0  0  0  0  0  0  0
   -1.2350   -1.5850   -0.4940 C   0  0  2  0  0  0  0  0  0  0  0  0
   -1.1110   -0.1580   -1.0500 C   0  0  0  0  0  0  0  0  0  0  0  0
   -2.5470    0.3290   -0.7530 C   0  0  0  0  0  0  0  0  0  0  0  0
   -3.0270   -0.4290    0.3420 N   0  0  0  0  0  0  0  0  0  0  0  0
   -4.2800   -0.5110    0.9670 C   0  0  0  0  0  0  0  0  0  0  0  0
   -4.3880   -1.3550    1.9760 O   0  0  0  0  0  0  0  0  0  0  0  0
   -5.5130    0.1940    0.6870 C   0  0  0  0  0  0  0  0  0  0  0  0
   -5.6590    1.0860   -0.2550 C   0  0  0  0  0  0  0  0  0  0  0  0
   -6.9200    1.8080   -0.5440 C   0  0  1  0  0  0  0  0  0  0  0  0
   -6.7050    3.1820   -0.4190 O   0  0  0  0  0  0  0  0  0  0  0  0
   -7.4430    1.4810   -2.3150 P   0  0  0  0  0  0  0  0  0  0  0  0
   -7.1390    0.1100   -2.9460 O   0  0  0  0  0  0  0  0  0  0  0  0
   -7.9720    1.4480    0.2970 O   0  0  0  0  0  0  0  0  0  0  0  0
   -7.8330    0.5190    1.2840 C   0  0  0  0  0  0  0  0  0  0  0  0
   -6.6950   -0.1030    1.5120 C   0  0  0  0  0  0  0  0  0  0  0  0
   -1.8780   -1.2400    0.8310 C   0  0  0  0  0  0  0  0  0  0  0  0
    4.8220   -0.2310    1.2310 C   0  0  0  0  0  0  0  0  0  0  0  0
  1  2  1  0
  2  3  2  0
  2  4  1  0
  5  4  1  6
  5  6  1  0
  5 31  1  0
  6  7  1  0
  7  8  1  0
  7 31  1  0
  8  9  2  0
  8 10  1  0
 10 11  1  0
 11 12  1  0
 12 13  1  0
 13 14  2  0
 15 13  1  1
 15 16  1  0
 15 30  1  0
 16 17  1  0
 17 18  1  0
 18 19  1  0
 18 30  1  0
 19 20  2  0
 19 21  1  0
 21 22  2  0
 21 29  1  0
 22 23  1  0
 23 24  1  6
 23 25  1  0
 23 27  1  0
 25 26  2  0
 27 28  1  0
 28 29  2  0
M  END
