
     RDKit          3D

 30 32  0  0  0  0  0  0  0  0999 V2000
   -0.7800   -4.6540    0.7320 O   0  0  0  0  0  0  0  0  0  0  0  0
   -0.5340   -3.6290    1.4530 C   0  0  0  0  0  0  0  0  0  0  0  0
    0.1130   -3.8920    2.6650 O   0  0  0  0  0  0  0  0  0  0  0  0
   -0.9000   -2.3350    1.0320 N   0  0  0  0  0  0  0  0  0  0  0  0
   -2.1350   -2.0520    0.8910 C   0  0  0  0  0  0  0  0  0  0  0  0
   -3.1260   -3.0000    1.1470 O   0  0  0  0  0  0  0  0  0  0  0  0
   -4.4970   -2.7590    1.1010 C   0  0  0  0  0  0  0  0  0  0  0  0
   -4.7780   -1.7200    0.0080 C   0  0  0  0  0  0  0  0  0  0  0  0
   -3.9850   -0.5570    0.3530 N   0  0  0  0  0  0  0  0  0  0  0  0
   -2.5320   -0.7230    0.4610 C   0  0  0  0  0  0  0  0  0  0  0  0
   -1.7830    0.2840    0.1600 C   0  0  0  0  0  0  0  0  0  0  0  0
   -0.4180    0.6370    0.0760 C   0  0  0  0  0  0  0  0  0  0  0  0
   -0.1970    1.9350   -0.2790 N   0  0  0  0  0  0  0  0  0  0  0  0
   -1.2610    2.7150   -0.5030 O   0  0  0  0  0  0  0  0  0  0  0  0
   -1.6260    3.2750   -1.7440 C   0  0  0  0  0  0  0  0  0  0  0  0
   -2.8920    4.0980   -1.5940 C   0  0  2  0  0  0  0  0  0  0  0  0
   -2.8300    5.2800   -0.6130 C   0  0  0  0  0  0  0  0  0  0  0  0
   -3.6610    4.0560   -0.3090 C   0  0  0  0  0  0  0  0  0  0  0  0
    0.8420   -0.0730    0.2210 C   0  0  1  0  0  0  0  0  0  0  0  0
    1.1610   -1.0920   -0.8270 C   0  0  0  0  0  0  0  0  0  0  0  0
    1.9560   -0.5250   -1.8180 O   0  0  0  0  0  0  0  0  0  0  0  0
    3.2580   -1.0280   -1.7880 C   0  0  0  0  0  0  0  0  0  0  0  0
    3.9000   -0.7870   -0.4250 C   0  0  1  0  0  0  0  0  0  0  0  0
    5.4050   -0.7660   -0.5070 C   0  0  0  0  0  0  0  0  0  0  0  0
    6.0340   -0.4630    1.2250 P   0  0  0  0  0  0  0  0  0  0  0  0
    7.6880   -0.8960    1.3910 O   0  0  0  0  0  0  0  0  0  0  0  0
    5.1090   -1.4280    2.3390 O   0  0  0  0  0  0  0  0  0  0  0  0
    3.3530    0.5080    0.0560 C   0  0  0  0  0  0  0  0  0  0  0  0
    4.1920    1.3960    0.3980 O   0  0  0  0  0  0  0  0  0  0  0  0
    1.9960    0.8730    0.1800 N   0  0  0  0  0  0  0  0  0  0  0  0
  1  2  2  0
  2  3  1  0
  2  4  1  0
  4  5  2  3
  5  6  1  0
  5 10  1  0
  6  7  1  0
  7  8  1  0
  8  9  1  0
  9 10  1  0
 10 11  2  3
 11 12  1  0
 12 13  2  3
 19 12  1  6
 13 14  1  0
 14 15  1  0
 16 15  1  1
 16 17  1  0
 16 18  1  0
 17 18  1  0
 19 20  1  0
 19 30  1  0
 20 21  1  0
 21 22  1  0
 22 23  1  0
 23 24  1  6
 23 28  1  0
 24 25  1  0
 25 26  1  0
 25 27  1  0
 28 29  2  0
 28 30  1  0
M  END
