
     RDKit          3D

 31 33  0  0  0  0  0  0  0  0999 V2000
   -4.2860   -0.7710   -3.7180 C   0  0  0  0  0  0  0  0  0  0  0  0
   -3.5470   -0.4440   -2.4700 C   0  0  0  0  0  0  0  0  0  0  0  0
   -3.9620   -0.8840   -1.2330 C   0  0  0  0  0  0  0  0  0  0  0  0
   -3.3060   -0.6040   -0.0470 C   0  0  0  0  0  0  0  0  0  0  0  0
   -3.7640   -1.0490    1.1380 N   0  0  0  0  0  0  0  0  0  0  0  0
   -3.1580   -0.7810    2.2870 C   0  0  0  0  0  0  0  0  0  0  0  0
   -3.5960   -1.2190    3.5290 C   0  0  0  0  0  0  0  0  0  0  0  0
   -4.6330   -1.9170    3.5990 O   0  0  0  0  0  0  0  0  0  0  0  0
   -2.9430   -0.9190    4.6750 N   0  0  0  0  0  0  0  0  0  0  0  0
   -1.8300   -0.1710    4.6040 C   0  0  0  0  0  0  0  0  0  0  0  0
   -1.1940    0.1310    5.6400 O   0  0  0  0  0  0  0  0  0  0  0  0
   -1.3550    0.2840    3.4270 N   0  0  0  0  0  0  0  0  0  0  0  0
   -1.9520    0.0250    2.2590 C   0  0  0  0  0  0  0  0  0  0  0  0
   -1.4980    0.4680    1.0540 N   0  0  0  0  0  0  0  0  0  0  0  0
   -0.3320    1.2790    1.0510 C   0  0  0  0  0  0  0  0  0  0  0  0
    0.9870    0.5890    1.0620 C   0  0  2  0  0  0  0  0  0  0  0  0
    1.9590    1.6200    1.0300 O   0  0  0  0  0  0  0  0  0  0  0  0
    1.2540   -0.3210   -0.0890 C   0  0  2  0  0  0  0  0  0  0  0  0
    0.3450   -1.4010   -0.1070 O   0  0  0  0  0  0  0  0  0  0  0  0
    2.6240   -0.9710    0.0340 C   0  0  2  0  0  0  0  0  0  0  0  0
    2.7910   -1.7210    1.1680 O   0  0  0  0  0  0  0  0  0  0  0  0
    3.7610   -0.0230   -0.2670 C   0  0  0  0  0  0  0  0  0  0  0  0
    4.9550   -0.7580   -0.4550 O   0  0  0  0  0  0  0  0  0  0  0  0
    6.2310    0.2820   -0.7900 P   0  0  2  0  0  0  0  0  0  0  0  0
    5.7330    1.6870   -1.0980 O   0  0  0  0  0  0  0  0  0  0  0  0
    7.0010   -0.2830   -2.1910 O   0  0  0  0  0  0  0  0  0  0  0  0
    7.3480    0.3280    0.4810 O   0  0  0  0  0  0  0  0  0  0  0  0
   -2.1430    0.1750   -0.0880 C   0  0  0  0  0  0  0  0  0  0  0  0
   -1.7280    0.6160   -1.3320 C   0  0  0  0  0  0  0  0  0  0  0  0
   -2.3940    0.3270   -2.5030 C   0  0  0  0  0  0  0  0  0  0  0  0
   -1.9240    0.8160   -3.8260 C   0  0  0  0  0  0  0  0  0  0  0  0
  1  2  1  0
  2  3  2  0
  2 30  1  0
  3  4  1  0
  4  5  1  0
  4 28  2  0
  5  6  2  0
  6  7  1  0
  6 13  1  0
  7  8  2  0
  7  9  1  0
  9 10  1  0
 10 11  2  0
 10 12  1  0
 12 13  2  0
 13 14  1  0
 14 15  1  0
 14 28  1  0
 15 16  1  0
 16 17  1  6
 16 18  1  0
 18 19  1  1
 18 20  1  0
 20 21  1  1
 20 22  1  0
 22 23  1  0
 23 24  1  0
 24 25  2  0
 24 26  1  6
 24 27  1  0
 28 29  1  0
 29 30  2  0
 30 31  1  0
M  END
