
     RDKit          3D

 25 27  0  0  0  0  0  0  0  0999 V2000
   -5.7520   -1.7390   -1.7240 C   0  0  0  0  0  0  0  0  0  0  0  0
   -5.3630   -1.0950   -0.3990 C   0  0  0  0  0  0  0  0  0  0  0  0
   -4.1460   -0.2730   -0.6020 C   0  0  0  0  0  0  0  0  0  0  0  0
   -2.8970   -0.7230   -0.1930 C   0  0  0  0  0  0  0  0  0  0  0  0
   -1.7760    0.0800   -0.4090 C   0  0  0  0  0  0  0  0  0  0  0  0
   -0.5630   -0.4060    0.0070 C   0  0  0  0  0  0  0  0  0  0  0  0
    0.5940    0.3580   -0.1890 C   0  0  0  0  0  0  0  0  0  0  0  0
    1.8620   -0.1480    0.2690 C   0  0  0  0  0  0  0  0  0  0  0  0
    1.9030   -1.4140    0.4890 O   0  0  0  0  0  0  0  0  0  0  0  0
    3.0520    0.5530    0.5060 N   0  0  0  0  0  0  0  0  0  0  0  0
    4.2980    0.0390    0.9350 C   0  0  0  0  0  0  0  0  0  0  0  0
    5.2510    0.9370    1.4460 C   0  0  0  0  0  0  0  0  0  0  0  0
    6.4920    0.5490    1.8670 C   0  0  0  0  0  0  0  0  0  0  0  0
    6.8320   -0.7750    1.7920 C   0  0  0  0  0  0  0  0  0  0  0  0
    8.0960   -1.1560    2.2240 O   0  0  0  0  0  0  0  0  0  0  0  0
    5.9260   -1.6890    1.2970 C   0  0  0  0  0  0  0  0  0  0  0  0
    4.6620   -1.2660    0.8720 C   0  0  0  0  0  0  0  0  0  0  0  0
    0.4340    1.5590   -0.7930 C   0  0  0  0  0  0  0  0  0  0  0  0
    1.4320    2.2970   -1.0040 O   0  0  0  0  0  0  0  0  0  0  0  0
   -0.7700    2.0350   -1.2030 N   0  0  0  0  0  0  0  0  0  0  0  0
   -1.8640    1.3200   -1.0210 C   0  0  0  0  0  0  0  0  0  0  0  0
   -3.1260    1.7640   -1.4290 C   0  0  0  0  0  0  0  0  0  0  0  0
   -4.2250    0.9670   -1.2130 C   0  0  0  0  0  0  0  0  0  0  0  0
   -5.5360    1.3970   -1.6330 C   0  0  0  0  0  0  0  0  0  0  0  0
   -6.3490    2.4980   -0.7600 S   0  0  0  0  0  0  0  0  0  0  0  0
  1  2  1  0
  2  3  1  0
  3  4  2  0
  3 23  1  0
  4  5  1  0
  5  6  1  0
  5 21  2  0
  6  7  2  0
  7  8  1  0
  7 18  1  0
  8  9  2  0
  8 10  1  0
 10 11  1  0
 11 12  2  0
 11 17  1  0
 12 13  1  0
 13 14  2  0
 14 15  1  0
 14 16  1  0
 16 17  2  0
 18 19  2  0
 18 20  1  0
 20 21  1  0
 21 22  1  0
 22 23  2  0
 23 24  1  0
 24 25  2  0
M  END
