
     RDKit          3D

 14 14  0  0  0  0  0  0  0  0999 V2000
   -2.5590    2.3230    0.1390 C   0  0  0  0  0  0  0  0  0  0  0  0
   -3.2820    0.7810   -0.3890 S   0  0  0  0  0  0  0  0  0  0  0  0
   -2.1530   -0.3210   -1.2660 C   0  0  0  0  0  0  0  0  0  0  0  0
   -1.1060   -0.7890   -0.3150 C   0  0  1  0  0  0  0  0  0  0  0  0
   -1.7140   -1.5190    0.8610 C   0  0  0  0  0  0  0  0  0  0  0  0
   -2.5110   -2.5650    0.3970 O   0  0  0  0  0  0  0  0  0  0  0  0
   -0.1190   -1.7500   -0.9640 C   0  0  0  0  0  0  0  0  0  0  0  0
    1.0320   -1.4880   -0.2150 O   0  0  0  0  0  0  0  0  0  0  0  0
    1.0670   -0.1000   -0.3020 C   0  0  2  0  0  0  0  0  0  0  0  0
    2.0470    0.5230    0.6420 C   0  0  2  0  0  0  0  0  0  0  0  0
    1.9160    1.9170    0.5770 O   0  0  0  0  0  0  0  0  0  0  0  0
    3.4360    0.2420    0.0490 C   0  0  0  0  0  0  0  0  0  0  0  0
    4.4310    0.8620    0.7630 O   0  0  0  0  0  0  0  0  0  0  0  0
   -0.2770    0.3010    0.0870 N   0  0  0  0  0  0  0  0  0  0  0  0
  1  2  1  0
  2  3  1  0
  4  3  1  6
  4  5  1  0
  4  7  1  0
  4 14  1  0
  5  6  1  0
  7  8  1  0
  8  9  1  0
  9 10  1  0
  9 14  1  1
 10 11  1  6
 10 12  1  0
 12 13  1  0
M  END
