
     RDKit          3D

 25 27  0  0  0  0  0  0  0  0999 V2000
   -3.8470    1.9710    1.0720 C   0  0  0  0  0  0  0  0  0  0  0  0
   -3.6260    0.9270   -0.0170 C   0  0  2  0  0  0  0  0  0  0  0  0
   -3.8360    1.5980   -1.3600 C   0  0  0  0  0  0  0  0  0  0  0  0
   -4.7180   -0.0750    0.1230 C   0  0  0  0  0  0  0  0  0  0  0  0
   -4.5110   -1.4030   -0.4510 C   0  0  0  0  0  0  0  0  0  0  0  0
   -3.9350   -2.4390    0.4370 C   0  0  0  0  0  0  0  0  0  0  0  0
   -2.6240   -2.0000    0.9290 C   0  0  0  0  0  0  0  0  0  0  0  0
   -2.0340   -2.6650    1.8460 O   0  0  0  0  0  0  0  0  0  0  0  0
   -1.8330   -0.8430    0.5040 C   0  0  0  0  0  0  0  0  0  0  0  0
   -0.4790   -1.1050    0.5430 C   0  0  0  0  0  0  0  0  0  0  0  0
    0.4630   -0.1460    0.1820 C   0  0  0  0  0  0  0  0  0  0  0  0
    1.8340   -0.4950    0.2340 N   0  0  0  0  0  0  0  0  0  0  0  0
    2.9460    0.3580    0.1710 C   0  0  0  0  0  0  0  0  0  0  0  0
    2.7790    1.5890    0.0600 O   0  0  0  0  0  0  0  0  0  0  0  0
    4.3210   -0.1850    0.2340 C   0  0  0  0  0  0  0  0  0  0  0  0
    4.7690   -1.4230    0.3480 C   0  0  0  0  0  0  0  0  0  0  0  0
    6.0950   -1.6610    0.3840 C   0  0  0  0  0  0  0  0  0  0  0  0
    6.9340   -0.5780    0.2970 C   0  0  0  0  0  0  0  0  0  0  0  0
    8.4170   -0.5120    0.3080 C   0  0  0  0  0  0  0  0  0  0  0  0
    8.8580    0.8040    0.1960 O   0  0  0  0  0  0  0  0  0  0  0  0
    5.7940    0.7820    0.1650 S   0  0  0  0  0  0  0  0  0  0  0  0
    0.0210    1.0830   -0.2190 C   0  0  0  0  0  0  0  0  0  0  0  0
   -1.3500    1.3820   -0.2690 C   0  0  0  0  0  0  0  0  0  0  0  0
   -1.6360    2.6940   -0.7040 N   0  0  0  0  0  0  0  0  0  0  0  0
   -2.2670    0.4260    0.0900 C   0  0  0  0  0  0  0  0  0  0  0  0
  2  1  1  1
  2  3  1  0
  2  4  1  0
  2 25  1  0
  4  5  1  0
  5  6  1  0
  6  7  1  0
  7  8  2  0
  7  9  1  0
  9 10  2  0
  9 25  1  0
 10 11  1  0
 11 12  1  0
 11 22  2  0
 12 13  1  0
 13 14  2  0
 13 15  1  0
 15 16  2  0
 15 21  1  0
 16 17  1  0
 17 18  2  0
 18 19  1  0
 18 21  1  0
 19 20  1  0
 22 23  1  0
 23 24  1  0
 23 25  2  0
M  END
