
     RDKit          3D

 21 23  0  0  0  0  0  0  0  0999 V2000
    6.7800    1.6740    0.3110 O   0  0  0  0  0  0  0  0  0  0  0  0
    5.7480    0.9390    0.2310 C   0  0  0  0  0  0  0  0  0  0  0  0
    5.9570   -0.4080   -0.4020 C   0  0  0  0  0  0  0  0  0  0  0  0
    4.7400   -0.8990   -0.9210 O   0  0  0  0  0  0  0  0  0  0  0  0
    3.4880   -0.5050   -0.4620 C   0  0  0  0  0  0  0  0  0  0  0  0
    2.4200   -1.2760   -0.8520 C   0  0  0  0  0  0  0  0  0  0  0  0
    1.1510   -0.8980   -0.4020 C   0  0  0  0  0  0  0  0  0  0  0  0
    0.9390    0.1870    0.3940 C   0  0  0  0  0  0  0  0  0  0  0  0
   -0.3370    0.5660    0.8240 N   0  0  0  0  0  0  0  0  0  0  0  0
   -1.5790    0.1160    0.3460 C   0  0  0  0  0  0  0  0  0  0  0  0
   -1.6190   -0.7200   -0.5840 O   0  0  0  0  0  0  0  0  0  0  0  0
   -2.8210    0.6050    0.9150 N   0  0  0  0  0  0  0  0  0  0  0  0
   -4.0610    0.1070    0.3840 C   0  0  0  0  0  0  0  0  0  0  0  0
   -4.9990    0.8560   -0.1720 C   0  0  0  0  0  0  0  0  0  0  0  0
   -6.1340    0.0190   -0.6050 C   0  0  0  0  0  0  0  0  0  0  0  0
   -5.7320   -1.3380   -0.2240 C   0  0  0  0  0  0  0  0  0  0  0  0
   -4.5380   -1.2550    0.3410 C   0  0  0  0  0  0  0  0  0  0  0  0
   -3.8260   -2.3080    0.8300 F   0  0  0  0  0  0  0  0  0  0  0  0
    2.0590    0.9400    0.7650 C   0  0  0  0  0  0  0  0  0  0  0  0
    3.3220    0.6020    0.3440 C   0  0  0  0  0  0  0  0  0  0  0  0
    4.4770    1.3470    0.7040 N   0  0  0  0  0  0  0  0  0  0  0  0
  1  2  2  0
  2  3  1  0
  2 21  1  0
  3  4  1  0
  4  5  1  0
  5  6  2  0
  5 20  1  0
  6  7  1  0
  7  8  2  0
  8  9  1  0
  8 19  1  0
  9 10  1  0
 10 11  2  0
 10 12  1  0
 12 13  1  0
 13 14  2  0
 13 17  1  0
 14 15  1  0
 15 16  1  0
 16 17  2  0
 17 18  1  0
 19 20  2  0
 20 21  1  0
M  END
