
     RDKit          3D

 21 23  0  0  0  0  0  0  0  0999 V2000
    6.1560    0.6910   -0.4430 O   0  0  0  0  0  0  0  0  0  0  0  0
    4.9150    0.6120   -0.3250 C   0  0  0  0  0  0  0  0  0  0  0  0
    4.2550    1.7350    0.0290 N   0  0  0  0  0  0  0  0  0  0  0  0
    2.9240    1.7230    0.1740 C   0  0  0  0  0  0  0  0  0  0  0  0
    2.3030    2.7660    0.5030 O   0  0  0  0  0  0  0  0  0  0  0  0
    2.1820    0.5640   -0.0330 C   0  0  0  0  0  0  0  0  0  0  0  0
    0.8540    0.5330    0.1070 N   0  0  0  0  0  0  0  0  0  0  0  0
    0.0990   -0.6000   -0.0920 C   0  0  0  0  0  0  0  0  0  0  0  0
   -1.3430   -0.5310    0.0850 C   0  0  0  0  0  0  0  0  0  0  0  0
   -1.8870    0.7220    0.4590 C   0  0  0  0  0  0  0  0  0  0  0  0
   -3.2310    0.9000    0.6530 C   0  0  0  0  0  0  0  0  0  0  0  0
   -3.8290    2.1840    1.0400 C   0  0  0  0  0  0  0  0  0  0  0  0
   -3.9150    2.3550    2.4090 F   0  0  0  0  0  0  0  0  0  0  0  0
   -4.0510   -0.1950    0.4700 C   0  0  0  0  0  0  0  0  0  0  0  0
   -3.5480   -1.4240    0.1080 C   0  0  0  0  0  0  0  0  0  0  0  0
   -2.1610   -1.5970   -0.0900 C   0  0  0  0  0  0  0  0  0  0  0  0
   -1.6860   -2.8400   -0.4530 O   0  0  0  0  0  0  0  0  0  0  0  0
    0.8220   -1.7040   -0.4480 C   0  0  0  0  0  0  0  0  0  0  0  0
    2.2090   -1.7030   -0.6020 C   0  0  0  0  0  0  0  0  0  0  0  0
    2.9120   -0.5600   -0.3950 C   0  0  0  0  0  0  0  0  0  0  0  0
    4.2450   -0.5350   -0.5370 N   0  0  0  0  0  0  0  0  0  0  0  0
  1  2  2  0
  2  3  1  0
  2 21  1  0
  3  4  1  0
  4  5  2  0
  4  6  1  0
  6  7  2  0
  6 20  1  0
  7  8  1  0
  8  9  1  0
  8 18  2  0
  9 10  2  0
  9 16  1  0
 10 11  1  0
 11 12  1  0
 11 14  2  0
 12 13  1  0
 14 15  1  0
 15 16  2  0
 16 17  1  0
 18 19  1  0
 19 20  2  0
 20 21  1  0
M  END
