
     RDKit          3D

 25 25  0  0  0  0  0  0  0  0999 V2000
    4.2630    1.5760   -0.4520 C   0  0  0  0  0  0  0  0  0  0  0  0
    5.1570    0.5800    0.2650 C   0  0  0  0  0  0  0  0  0  0  0  0
    4.6580   -0.6700    0.7330 C   0  0  0  0  0  0  0  0  0  0  0  0
    3.4620   -1.1760    0.7660 C   0  0  0  0  0  0  0  0  0  0  0  0
    2.1980   -0.6530    0.3470 C   0  0  0  0  0  0  0  0  0  0  0  0
    1.0820   -1.3720    0.4450 C   0  0  0  0  0  0  0  0  0  0  0  0
    1.1980   -2.7480    0.9980 C   0  0  0  0  0  0  0  0  0  0  0  0
   -0.2310   -0.8230    0.1220 C   0  0  0  0  0  0  0  0  0  0  0  0
   -1.3330   -1.6250   -0.0370 C   0  0  0  0  0  0  0  0  0  0  0  0
   -2.6170   -1.0990   -0.2650 C   0  0  0  0  0  0  0  0  0  0  0  0
   -3.7650   -2.0100   -0.4460 C   0  0  2  0  0  0  0  0  0  0  0  0
   -4.9410   -1.2410   -0.9800 C   0  0  0  0  0  0  0  0  0  0  0  0
   -4.2000   -2.6680    0.8480 C   0  0  0  0  0  0  0  0  0  0  0  0
   -3.4610   -3.0930   -1.4710 C   0  0  0  0  0  0  0  0  0  0  0  0
   -2.8160    0.2550   -0.3370 C   0  0  0  0  0  0  0  0  0  0  0  0
   -1.7110    1.0910   -0.1790 C   0  0  0  0  0  0  0  0  0  0  0  0
   -1.8980    2.5600   -0.2180 C   0  0  1  0  0  0  0  0  0  0  0  0
   -0.8120    3.3120    0.5430 C   0  0  0  0  0  0  0  0  0  0  0  0
   -1.9770    3.1100   -1.6180 C   0  0  0  0  0  0  0  0  0  0  0  0
   -3.2130    2.9630    0.4760 C   0  0  0  0  0  0  0  0  0  0  0  0
   -0.4680    0.5590    0.0410 C   0  0  0  0  0  0  0  0  0  0  0  0
    6.4070    0.9430    0.3380 C   0  0  0  0  0  0  0  0  0  0  0  0
    7.4790    0.2560    0.9300 C   0  0  0  0  0  0  0  0  0  0  0  0
    7.4030   -0.8480    1.5040 O   0  0  0  0  0  0  0  0  0  0  0  0
    8.7730    0.8150    0.9070 O   0  0  0  0  0  0  0  0  0  0  0  0
  1  2  1  0
  2  3  1  0
  2 22  2  3
  3  4  2  3
  4  5  1  0
  5  6  2  3
  6  7  1  0
  6  8  1  0
  8  9  2  0
  8 21  1  0
  9 10  1  0
 10 11  1  0
 10 15  2  0
 11 12  1  6
 11 13  1  0
 11 14  1  0
 15 16  1  0
 16 17  1  0
 16 21  2  0
 17 18  1  1
 17 19  1  0
 17 20  1  0
 22 23  1  0
 23 24  2  0
 23 25  1  0
M  END
