
     RDKit          3D

 21 23  0  0  0  0  0  0  0  0999 V2000
   -4.7060   -1.3440    0.4880 C   0  0  0  0  0  0  0  0  0  0  0  0
   -4.3990   -0.1040   -0.2970 C   0  0  0  0  0  0  0  0  0  0  0  0
   -5.3090    0.7220   -0.9360 C   0  0  0  0  0  0  0  0  0  0  0  0
   -4.5500    1.7140   -1.5100 C   0  0  0  0  0  0  0  0  0  0  0  0
   -5.0950    2.7250   -2.2330 F   0  0  0  0  0  0  0  0  0  0  0  0
   -3.2480    1.4930   -1.2280 N   0  0  0  0  0  0  0  0  0  0  0  0
   -3.1250    0.3830   -0.4840 C   0  0  0  0  0  0  0  0  0  0  0  0
   -1.8740   -0.2210    0.0460 C   0  0  0  0  0  0  0  0  0  0  0  0
   -1.9440   -1.2650    0.7270 O   0  0  0  0  0  0  0  0  0  0  0  0
   -0.6190    0.3740   -0.2140 N   0  0  0  0  0  0  0  0  0  0  0  0
    0.6340   -0.0920    0.2250 C   0  0  0  0  0  0  0  0  0  0  0  0
    0.8700   -1.2020    0.9810 C   0  0  0  0  0  0  0  0  0  0  0  0
    2.1740   -1.5630    1.3560 C   0  0  0  0  0  0  0  0  0  0  0  0
    3.2550   -0.8050    0.9700 C   0  0  0  0  0  0  0  0  0  0  0  0
    3.0180    0.3070    0.2120 C   0  0  0  0  0  0  0  0  0  0  0  0
    1.7380    0.6600   -0.1550 C   0  0  0  0  0  0  0  0  0  0  0  0
    4.1490    1.0960   -0.1890 N   0  0  0  0  0  0  0  0  0  0  0  0
    5.4650    0.7370    0.1860 C   0  0  0  0  0  0  0  0  0  0  0  0
    6.4440    1.4970   -0.0130 O   0  0  0  0  0  0  0  0  0  0  0  0
    5.7080   -0.5720    0.8330 C   0  0  0  0  0  0  0  0  0  0  0  0
    4.5450   -1.1580    1.3380 O   0  0  0  0  0  0  0  0  0  0  0  0
  1  2  1  0
  2  3  1  0
  2  7  2  0
  3  4  2  0
  4  5  1  0
  4  6  1  0
  6  7  1  0
  7  8  1  0
  8  9  2  0
  8 10  1  0
 10 11  1  0
 11 12  2  0
 11 16  1  0
 12 13  1  0
 13 14  2  0
 14 15  1  0
 14 21  1  0
 15 16  2  0
 15 17  1  0
 17 18  1  0
 18 19  2  0
 18 20  1  0
 20 21  1  0
M  END
