
     RDKit          3D

 11 11  0  0  0  0  0  0  0  0999 V2000
    1.2470   -0.7800   -1.2240 C   0  0  0  0  0  0  0  0  0  0  0  0
    0.7270   -0.5870    0.1850 C   0  0  2  0  0  0  0  0  0  0  0  0
    1.8320   -1.1070    1.1150 C   0  0  0  0  0  0  0  0  0  0  0  0
   -0.3490   -1.4370    0.3510 O   0  0  0  0  0  0  0  0  0  0  0  0
   -1.4190   -0.9570   -0.3740 C   0  0  1  0  0  0  0  0  0  0  0  0
   -2.3790   -1.8830   -0.6720 O   0  0  0  0  0  0  0  0  0  0  0  0
   -1.9690    0.2180    0.4480 C   0  0  2  0  0  0  0  0  0  0  0  0
   -3.1740    0.6670   -0.0230 O   0  0  0  0  0  0  0  0  0  0  0  0
   -0.9300    1.2990    0.3330 C   0  0  0  0  0  0  0  0  0  0  0  0
    0.4660    0.8300    0.5380 C   0  0  2  0  0  0  0  0  0  0  0  0
    1.3520    1.7400   -0.1760 N   0  0  0  0  0  0  0  0  0  0  0  0
  2  1  1  6
  2  3  1  0
  2  4  1  0
  2 10  1  0
  4  5  1  0
  5  6  1  1
  5  7  1  0
  7  8  1  6
  7  9  1  0
  9 10  1  0
 10 11  1  6
M  CHG  1  11   1
M  END
