
     RDKit          3D

 35 38  0  0  0  0  0  0  0  0999 V2000
    2.5330    5.4800    0.5750 C   0  0  0  0  0  0  0  0  0  0  0  0
    2.4150    4.1510    1.0060 O   0  0  0  0  0  0  0  0  0  0  0  0
    1.7160    3.4450    0.0240 C   0  0  0  0  0  0  0  0  0  0  0  0
    1.5490    2.0130    0.4130 C   0  0  0  0  0  0  0  0  0  0  0  0
    0.7990    1.2630   -0.6040 C   0  0  1  0  0  0  0  0  0  0  0  0
    0.7230   -0.1720   -0.1770 C   0  0  2  0  0  0  0  0  0  0  0  0
    2.1720   -0.5920   -0.0620 C   0  0  0  0  0  0  0  0  0  0  0  0
    3.0710   -0.3310   -1.0470 C   0  0  0  0  0  0  0  0  0  0  0  0
    4.3770   -0.8710   -1.0300 C   0  0  0  0  0  0  0  0  0  0  0  0
    5.4840   -0.5010   -2.3250 Cl  0  0  0  0  0  0  0  0  0  0  0  0
    4.7840   -1.6830   -0.0150 C   0  0  0  0  0  0  0  0  0  0  0  0
    6.1620   -2.2810    0.0250 C   0  0  0  0  0  0  0  0  0  0  0  0
    6.2690   -3.0350    1.1670 O   0  0  0  0  0  0  0  0  0  0  0  0
    3.8790   -1.9500    0.9850 C   0  0  0  0  0  0  0  0  0  0  0  0
    2.5860   -1.4090    0.9660 C   0  0  0  0  0  0  0  0  0  0  0  0
    1.5920   -1.7040    2.3880 Cl  0  0  0  0  0  0  0  0  0  0  0  0
    0.1170   -1.0090   -1.3650 C   0  0  0  0  0  0  0  0  0  0  0  0
   -0.3570   -2.2080   -1.1540 C   0  0  0  0  0  0  0  0  0  0  0  0
   -0.4520   -2.9650    0.1060 C   0  0  0  0  0  0  0  0  0  0  0  0
    0.2730   -3.9220    0.3940 O   0  0  0  0  0  0  0  0  0  0  0  0
   -1.4840   -2.6080    1.1590 C   0  0  0  0  0  0  0  0  0  0  0  0
   -1.4260   -3.0440    2.3270 O   0  0  0  0  0  0  0  0  0  0  0  0
   -2.5840   -1.7250    0.8080 C   0  0  1  0  0  0  0  0  0  0  0  0
   -4.0010   -2.1950    0.9560 C   0  0  0  0  0  0  0  0  0  0  0  0
   -4.9900   -1.0860    0.7280 C   0  0  2  0  0  0  0  0  0  0  0  0
   -6.0220   -1.5800   -0.2770 C   0  0  0  0  0  0  0  0  0  0  0  0
   -4.5140    0.2330    0.2590 C   0  0  0  0  0  0  0  0  0  0  0  0
   -3.0400    0.4710    0.1980 C   0  0  1  0  0  0  0  0  0  0  0  0
   -2.5410    1.8040    0.3780 C   0  0  0  0  0  0  0  0  0  0  0  0
   -1.4770    2.3070   -0.1980 C   0  0  0  0  0  0  0  0  0  0  0  0
   -0.4950    1.8490   -1.1050 C   0  0  2  0  0  0  0  0  0  0  0  0
   -0.8220    1.0060   -2.2090 O   0  0  0  0  0  0  0  0  0  0  0  0
    0.0640   -0.1200   -2.5170 C   0  0  0  0  0  0  0  0  0  0  0  0
    0.5560   -0.0380   -3.6940 O   0  0  0  0  0  0  0  0  0  0  0  0
   -2.5370   -0.3730    1.4060 C   0  0  0  0  0  0  0  0  0  0  0  0
  1  2  1  0
  2  3  1  0
  3  4  1  0
  5  4  1  1
  5  6  1  0
  5 31  1  0
  6  7  1  6
  6 17  1  0
  7  8  2  0
  7 15  1  0
  8  9  1  0
  9 10  1  0
  9 11  2  0
 11 12  1  0
 11 14  1  0
 12 13  1  0
 14 15  2  0
 15 16  1  0
 17 18  2  0
 17 33  1  0
 18 19  1  0
 19 20  2  0
 19 21  1  0
 21 22  2  0
 21 23  1  0
 23 24  1  1
 23 35  1  0
 24 25  1  0
 25 26  1  6
 25 27  1  0
 28 27  1  1
 28 29  1  0
 28 35  1  0
 29 30  2  0
 30 31  1  0
 31 32  1  1
 32 33  1  0
 33 34  2  0
M  END
