
     RDKit          3D

 35 39  0  0  0  0  0  0  0  0999 V2000
    2.6440    3.1710    4.9160 C   0  0  0  0  0  0  0  0  0  0  0  0
    2.2670    2.1600    3.9600 O   0  0  0  0  0  0  0  0  0  0  0  0
    1.7530    2.5260    2.7310 C   0  0  0  0  0  0  0  0  0  0  0  0
    1.5990    3.7860    2.5300 O   0  0  0  0  0  0  0  0  0  0  0  0
    1.4120    1.6150    1.7150 O   0  0  0  0  0  0  0  0  0  0  0  0
    0.9020    2.1820    0.5170 C   0  0  1  0  0  0  0  0  0  0  0  0
    2.1080    2.3140   -0.4900 C   0  0  0  0  0  0  0  0  0  0  0  0
    1.4560    1.1390   -1.2820 C   0  0  1  0  0  0  0  0  0  0  0  0
    2.2310   -0.0150   -1.0730 O   0  0  0  0  0  0  0  0  0  0  0  0
    3.2470   -0.5410   -1.7620 C   0  0  0  0  0  0  0  0  0  0  0  0
    3.6510    0.1350   -2.7890 O   0  0  0  0  0  0  0  0  0  0  0  0
    3.9730   -1.7750   -1.5360 C   0  0  0  0  0  0  0  0  0  0  0  0
    3.4780   -2.8190   -0.7490 C   0  0  0  0  0  0  0  0  0  0  0  0
    4.1460   -3.9940   -0.5840 C   0  0  0  0  0  0  0  0  0  0  0  0
    3.4730   -5.2370    0.4320 Cl  0  0  0  0  0  0  0  0  0  0  0  0
    5.3650   -4.2420   -1.1910 C   0  0  0  0  0  0  0  0  0  0  0  0
    5.8620   -3.2060   -1.9700 C   0  0  0  0  0  0  0  0  0  0  0  0
    5.1850   -2.0120   -2.1310 C   0  0  0  0  0  0  0  0  0  0  0  0
    5.9070   -0.7330   -3.0990 Cl  0  0  0  0  0  0  0  0  0  0  0  0
    0.2480    1.3770   -0.5000 C   0  0  1  0  0  0  0  0  0  0  0  0
   -0.3690    0.0390   -0.0660 C   0  0  0  0  0  0  0  0  0  0  0  0
   -1.8000    0.3640    0.1480 C   0  0  1  0  0  0  0  0  0  0  0  0
   -2.7500   -0.4420   -0.7160 C   0  0  0  0  0  0  0  0  0  0  0  0
   -2.9970   -1.8320   -0.2440 C   0  0  2  0  0  0  0  0  0  0  0  0
   -2.9840   -2.8040   -1.4150 C   0  0  0  0  0  0  0  0  0  0  0  0
   -4.3110   -1.8970    0.5170 C   0  0  0  0  0  0  0  0  0  0  0  0
   -3.9360   -1.5590    1.9690 C   0  0  0  0  0  0  0  0  0  0  0  0
   -2.4360   -1.2990    1.9400 C   0  0  1  0  0  0  0  0  0  0  0  0
   -2.0470   -2.2800    0.8490 C   0  0  0  0  0  0  0  0  0  0  0  0
   -2.1330    0.1310    1.5970 C   0  0  2  0  0  0  0  0  0  0  0  0
   -3.2390    1.0600    2.0510 C   0  0  0  0  0  0  0  0  0  0  0  0
   -1.9950    1.6880   -0.2130 O   0  0  0  0  0  0  0  0  0  0  0  0
   -0.9500    2.0510   -1.0890 C   0  0  1  0  0  0  0  0  0  0  0  0
   -0.9180    3.5820   -1.0020 C   0  0  0  0  0  0  0  0  0  0  0  0
   -1.2490    1.7050   -2.5060 C   0  0  0  0  0  0  0  0  0  0  0  0
  1  2  1  0
  2  3  1  0
  3  4  2  0
  3  5  1  0
  6  5  1  1
  6  7  1  0
  6 20  1  0
  7  8  1  0
  8  9  1  1
  8 20  1  0
  9 10  1  0
 10 11  2  0
 10 12  1  0
 12 13  2  0
 12 18  1  0
 13 14  1  0
 14 15  1  0
 14 16  2  0
 16 17  1  0
 17 18  2  0
 18 19  1  0
 20 21  1  1
 20 33  1  0
 22 21  1  1
 22 23  1  0
 22 30  1  0
 22 32  1  0
 23 24  1  0
 24 25  1  6
 24 26  1  0
 24 29  1  0
 26 27  1  0
 28 27  1  6
 28 29  1  0
 28 30  1  0
 30 31  1  6
 32 33  1  0
 33 34  1  6
 33 35  1  0
M  END
