
     RDKit          3D

 35 36  0  0  0  0  0  0  0  0999 V2000
   -3.9920   -3.1660    1.1470 C   0  0  0  0  0  0  0  0  0  0  0  0
   -2.8670   -2.1940    1.5350 C   0  0  0  0  0  0  0  0  0  0  0  0
   -2.9650   -1.0100    0.7480 O   0  0  0  0  0  0  0  0  0  0  0  0
   -2.8610   -1.0510   -0.6390 C   0  0  0  0  0  0  0  0  0  0  0  0
   -2.6580   -2.2170   -1.1060 O   0  0  0  0  0  0  0  0  0  0  0  0
   -2.9640    0.0650   -1.5600 C   0  0  2  0  0  0  0  0  0  0  0  0
   -2.7320   -0.6080   -3.2270 Cl  0  0  0  0  0  0  0  0  0  0  0  0
   -1.8820    1.4590   -1.3050 S   0  0  0  0  0  0  0  0  0  0  0  0
    0.1080    0.9560   -1.7460 S   0  0  0  0  0  0  0  0  0  0  0  0
    0.9710    0.4100   -0.2840 C   0  0  1  0  0  0  0  0  0  0  0  0
    0.4620   -0.8730    0.2910 C   0  0  0  0  0  0  0  0  0  0  0  0
    0.4150   -2.0630   -0.4610 N   0  0  0  0  0  0  0  0  0  0  0  0
    0.0560   -0.9060    1.4950 O   0  0  0  0  0  0  0  0  0  0  0  0
    2.4160    0.2070   -0.5160 C   0  0  0  0  0  0  0  0  0  0  0  0
    3.1770    1.2580   -0.3310 C   0  0  0  0  0  0  0  0  0  0  0  0
    4.8940    1.4030   -0.5070 S   0  0  1  0  0  0  0  0  0  0  0  0
    5.4430    0.4970   -1.5720 O   0  0  0  0  0  0  0  0  0  0  0  0
    5.2960    2.8060   -0.8750 O   0  0  0  0  0  0  0  0  0  0  0  0
    5.7310    0.9930    1.0150 C   0  0  1  0  0  0  0  0  0  0  0  0
    5.4230   -0.3850    1.4960 C   0  0  0  0  0  0  0  0  0  0  0  0
    6.2220   -1.4640    0.8510 C   0  0  0  0  0  0  0  0  0  0  0  0
    7.6370   -1.1220    0.5380 C   0  0  0  0  0  0  0  0  0  0  0  0
    8.0740    0.1650    0.9770 N   0  0  0  0  0  0  0  0  0  0  0  0
    7.1710    1.2600    0.9180 C   0  0  0  0  0  0  0  0  0  0  0  0
    7.6160    2.4290    0.7860 O   0  0  0  0  0  0  0  0  0  0  0  0
    2.0080    2.5190    0.1850 S   0  0  0  0  0  0  0  0  0  0  0  0
    0.7960    1.3760    0.7300 O   0  0  0  0  0  0  0  0  0  0  0  0
   -4.3860    0.6130   -1.5890 C   0  0  2  0  0  0  0  0  0  0  0  0
   -4.4010    1.7020   -2.5330 N   0  0  0  0  0  0  0  0  0  0  0  0
   -4.9580    0.9470   -0.2650 C   0  0  1  0  0  0  0  0  0  0  0  0
   -4.2200    2.0150    0.5090 C   0  0  0  0  0  0  0  0  0  0  0  0
   -4.2560    3.2610   -0.0810 O   0  0  0  0  0  0  0  0  0  0  0  0
   -6.3260    1.3270   -0.3820 O   0  0  0  0  0  0  0  0  0  0  0  0
   -7.3590    0.2760    0.4530 S   0  0  0  0  0  0  0  0  0  0  0  0
   -8.8170    1.0000    0.9280 O   0  0  0  0  0  0  0  0  0  0  0  0
  1  2  1  0
  2  3  1  0
  3  4  1  0
  4  5  2  0
  4  6  1  0
  6  7  1  6
  6  8  1  0
  6 28  1  0
  8  9  1  0
 10  9  1  6
 10 11  1  0
 10 14  1  0
 10 27  1  0
 11 12  1  0
 11 13  2  0
 14 15  2  0
 16 15  1  1
 15 26  1  0
 16 17  2  0
 16 18  2  0
 16 19  1  0
 19 20  1  6
 19 24  1  0
 20 21  1  0
 21 22  1  0
 22 23  1  0
 23 24  1  0
 24 25  2  0
 26 27  1  0
 28 29  1  6
 28 30  1  0
 30 31  1  6
 30 33  1  0
 31 32  1  0
 33 34  1  0
 34 35  1  0
M  CHG  1  29   1
M  END
