
     RDKit          3D

 34 35  0  0  0  0  0  0  0  0999 V2000
   -2.8350    1.8700   -2.2620 C   0  0  0  0  0  0  0  0  0  0  0  0
   -2.4810    1.0640   -1.2290 O   0  0  0  0  0  0  0  0  0  0  0  0
   -2.5410    1.5610    0.0320 C   0  0  2  0  0  0  0  0  0  0  0  0
   -4.2080    2.0740    0.4840 S   0  0  0  0  0  0  0  0  0  0  0  0
   -4.7380    3.4100   -0.4130 O   0  0  0  0  0  0  0  0  0  0  0  0
   -1.6390    2.7680    0.1950 C   0  0  2  0  0  0  0  0  0  0  0  0
   -2.2680    3.8750   -0.3300 O   0  0  0  0  0  0  0  0  0  0  0  0
   -0.2870    2.5080   -0.3840 C   0  0  0  0  0  0  0  0  0  0  0  0
    0.5960    2.3660    0.6920 O   0  0  0  0  0  0  0  0  0  0  0  0
    1.8100    1.8750    0.1850 C   0  0  0  0  0  0  0  0  0  0  0  0
    2.5250    1.0100    1.1640 C   0  0  0  0  0  0  0  0  0  0  0  0
    3.3460    0.0460    0.4710 N   0  0  0  0  0  0  0  0  0  0  0  0
    4.3810    0.5830   -0.3890 C   0  0  2  0  0  0  0  0  0  0  0  0
    5.3830    1.1640    0.5190 N   0  0  0  0  0  0  0  0  0  0  0  0
    3.9290    1.5740   -1.2480 O   0  0  0  0  0  0  0  0  0  0  0  0
    5.0420   -0.3740   -1.1410 O   0  0  0  0  0  0  0  0  0  0  0  0
    4.2760   -1.0480   -1.9480 O   0  0  0  0  0  0  0  0  0  0  0  0
    3.2120   -1.3480    0.5860 C   0  0  0  0  0  0  0  0  0  0  0  0
    4.2880   -2.0420    0.4710 O   0  0  0  0  0  0  0  0  0  0  0  0
    1.9830   -2.0970    0.8220 C   0  0  0  0  0  0  0  0  0  0  0  0
    0.8200   -1.7660   -0.0560 C   0  0  1  0  0  0  0  0  0  0  0  0
    1.1470   -2.2480   -1.3460 O   0  0  0  0  0  0  0  0  0  0  0  0
   -0.3790   -2.5470    0.5010 C   0  0  1  0  0  0  0  0  0  0  0  0
   -0.3890   -2.4560    1.9470 N   0  0  0  0  0  0  0  0  0  0  0  0
   -1.6730   -2.1880   -0.1280 C   0  0  1  0  0  0  0  0  0  0  0  0
   -1.3580   -1.5030   -1.7880 S   0  0  0  0  0  0  0  0  0  0  0  0
   -0.9800   -3.3220   -2.8890 S   0  0  0  0  0  0  0  0  0  0  0  0
   -1.5230   -4.6230   -1.2480 S   0  0  0  0  0  0  0  0  0  0  0  0
   -2.5570   -3.4260   -0.3520 C   0  0  2  0  0  0  0  0  0  0  0  0
   -3.6720   -3.0020   -1.3130 C   0  0  0  0  0  0  0  0  0  0  0  0
   -3.1970   -4.0520    1.1360 Cl  0  0  0  0  0  0  0  0  0  0  0  0
   -2.7010   -1.0840    0.8620 S   0  0  0  0  0  0  0  0  0  0  0  0
   -2.0570    0.5450    1.0760 C   0  0  2  0  0  0  0  0  0  0  0  0
   -2.5210    1.0860    2.4230 C   0  0  0  0  0  0  0  0  0  0  0  0
  1  2  1  0
  3  2  1  6
  3  4  1  0
  3  6  1  0
  3 33  1  0
  4  5  1  0
  6  7  1  6
  6  8  1  0
  8  9  1  0
  9 10  1  0
 10 11  1  0
 11 12  1  0
 12 13  1  0
 12 18  1  0
 13 14  1  1
 13 15  1  0
 13 16  1  0
 16 17  1  0
 18 19  2  0
 18 20  1  0
 20 21  1  0
 21 22  1  6
 21 23  1  0
 23 24  1  1
 23 25  1  0
 25 26  1  6
 25 29  1  0
 25 32  1  0
 26 27  1  0
 27 28  1  0
 28 29  1  0
 29 30  1  6
 29 31  1  0
 32 33  1  0
 33 34  1  1
M  CHG  2  14   1  24   1
M  END
