
     RDKit          3D

 35 35  0  0  0  0  0  0  0  0999 V2000
   -1.5590   -5.1390   -0.6790 C   0  0  0  0  0  0  0  0  0  0  0  0
   -2.7650   -4.3880   -1.1730 C   0  0  0  0  0  0  0  0  0  0  0  0
   -2.4060   -2.9680   -1.5020 C   0  0  0  0  0  0  0  0  0  0  0  0
   -1.8850   -2.1600   -0.3610 C   0  0  2  0  0  0  0  0  0  0  0  0
   -2.9050   -2.1500    0.6210 O   0  0  0  0  0  0  0  0  0  0  0  0
   -1.6590   -0.4160   -0.8130 S   0  0  0  0  0  0  0  0  0  0  0  0
   -3.1520    0.2630   -1.5230 C   0  0  0  0  0  0  0  0  0  0  0  0
   -3.9310    1.0000   -0.4320 C   0  0  2  0  0  0  0  0  0  0  0  0
   -4.4990    2.2970   -0.9120 C   0  0  0  0  0  0  0  0  0  0  0  0
   -5.3900    2.7520    0.0560 O   0  0  0  0  0  0  0  0  0  0  0  0
   -3.2090    1.0590    0.8170 N   0  0  0  0  0  0  0  0  0  0  0  0
   -2.0000    1.6490    1.1430 C   0  0  0  0  0  0  0  0  0  0  0  0
   -1.1220    0.8560    1.6680 O   0  0  0  0  0  0  0  0  0  0  0  0
   -1.5020    3.0250    1.0120 C   0  0  2  0  0  0  0  0  0  0  0  0
   -2.7810    4.1650    1.5800 Cl  0  0  0  0  0  0  0  0  0  0  0  0
   -1.0970    3.4930   -0.2910 C   0  0  0  0  0  0  0  0  0  0  0  0
   -0.6770    4.8430   -0.4370 N   0  0  0  0  0  0  0  0  0  0  0  0
   -1.0910    2.7810   -1.3060 O   0  0  0  0  0  0  0  0  0  0  0  0
   -0.0840    3.3270    2.1350 S   0  0  0  0  0  0  0  0  0  0  0  0
    1.2800    1.7100    1.8510 S   0  0  0  0  0  0  0  0  0  0  0  0
    1.0890    0.8470   -0.0820 S   0  0  0  0  0  0  0  0  0  0  0  0
    1.6640   -0.8640   -0.0230 C   0  0  1  0  0  0  0  0  0  0  0  0
    1.7810   -1.4160   -1.2960 O   0  0  0  0  0  0  0  0  0  0  0  0
    3.0510   -0.9060    0.5640 C   0  0  0  0  0  0  0  0  0  0  0  0
    3.7380   -2.0820    0.7310 O   0  0  0  0  0  0  0  0  0  0  0  0
    3.6120    0.1940    0.9210 N   0  0  0  0  0  0  0  0  0  0  0  0
    4.8950    0.2840    1.4770 C   0  0  0  0  0  0  0  0  0  0  0  0
    5.3230   -0.5220    2.3530 O   0  0  0  0  0  0  0  0  0  0  0  0
    5.8150    1.3570    1.0420 C   0  0  2  0  0  0  0  0  0  0  0  0
    5.1790    2.1310    0.0900 O   0  0  0  0  0  0  0  0  0  0  0  0
    7.0940    0.7920    0.4540 C   0  0  0  0  0  0  0  0  0  0  0  0
    7.9570    1.8090    0.0560 O   0  0  0  0  0  0  0  0  0  0  0  0
    0.7940   -1.6390    0.8680 C   0  0  0  0  0  0  0  0  0  0  0  0
    0.9120   -1.4360    2.0810 O   0  0  0  0  0  0  0  0  0  0  0  0
   -0.4160   -2.8450    0.3810 S   0  0  0  0  0  0  0  0  0  0  0  0
  1  2  1  0
  2  3  1  0
  3  4  1  0
  4  5  1  1
  4  6  1  0
  4 35  1  0
  6  7  1  0
  7  8  1  0
  8  9  1  6
  8 11  1  0
  9 10  1  0
 11 12  1  0
 12 13  2  0
 12 14  1  0
 14 15  1  1
 14 16  1  0
 14 19  1  0
 16 17  1  0
 16 18  2  0
 19 20  1  0
 20 21  1  0
 21 22  1  0
 22 23  1  6
 22 24  1  0
 22 33  1  0
 24 25  1  0
 24 26  2  3
 26 27  1  0
 27 28  2  0
 27 29  1  0
 29 30  1  6
 29 31  1  0
 31 32  1  0
 33 34  2  0
 33 35  1  0
M  END
