
     RDKit          3D

 13 13  0  0  0  0  0  0  0  0999 V2000
    4.3070    0.1360    0.8940 C   0  0  0  0  0  0  0  0  0  0  0  0
    3.0600   -0.3640    1.3630 O   0  0  0  0  0  0  0  0  0  0  0  0
    1.9040   -0.2060    0.6140 C   0  0  0  0  0  0  0  0  0  0  0  0
    1.9020    0.3710   -0.4850 O   0  0  0  0  0  0  0  0  0  0  0  0
    0.6480   -0.7700    1.2000 C   0  0  0  0  0  0  0  0  0  0  0  0
   -0.4880   -0.5510    0.3430 N   0  0  0  0  0  0  0  0  0  0  0  0
   -0.9060   -1.3890   -0.6220 C   0  0  0  0  0  0  0  0  0  0  0  0
   -2.0220   -0.8710   -1.2500 C   0  0  0  0  0  0  0  0  0  0  0  0
   -2.2880    0.3370   -0.6320 C   0  0  0  0  0  0  0  0  0  0  0  0
   -3.3670    1.2720   -0.9330 C   0  0  0  0  0  0  0  0  0  0  0  0
   -3.4780    2.3390   -0.2770 O   0  0  0  0  0  0  0  0  0  0  0  0
   -4.3020    1.0450   -1.9260 O   0  0  0  0  0  0  0  0  0  0  0  0
   -1.3280    0.4960    0.3350 C   0  0  0  0  0  0  0  0  0  0  0  0
  1  2  1  0
  2  3  1  0
  3  4  2  0
  3  5  1  0
  5  6  1  0
  6  7  1  0
  6 13  1  0
  7  8  2  0
  8  9  1  0
  9 10  1  0
  9 13  2  0
 10 11  2  0
 10 12  1  0
M  END
