
     RDKit          3D

 13 13  0  0  0  0  0  0  0  0999 V2000
    3.0800    0.8580   -0.1490 C   0  0  0  0  0  0  0  0  0  0  0  0
    1.7000    1.1010   -0.0250 O   0  0  0  0  0  0  0  0  0  0  0  0
    0.7720    0.0760   -0.0400 C   0  0  0  0  0  0  0  0  0  0  0  0
    1.1600   -1.2310   -0.1780 C   0  0  0  0  0  0  0  0  0  0  0  0
    0.1950   -2.2100   -0.1870 C   0  0  0  0  0  0  0  0  0  0  0  0
   -1.1280   -1.9000   -0.0620 C   0  0  0  0  0  0  0  0  0  0  0  0
   -2.1480   -2.8430   -0.0640 O   0  0  0  0  0  0  0  0  0  0  0  0
   -1.5100   -0.5720    0.0770 C   0  0  0  0  0  0  0  0  0  0  0  0
   -0.5660    0.4140    0.0880 C   0  0  0  0  0  0  0  0  0  0  0  0
   -0.9000    1.8740    0.2450 C   0  0  0  0  0  0  0  0  0  0  0  0
   -2.3100    2.0220    0.3400 N   0  0  0  0  0  0  0  0  0  0  0  0
   -2.8230    2.4510    1.3970 O   0  0  0  0  0  0  0  0  0  0  0  0
   -3.1060    1.6940   -0.7290 O   0  0  0  0  0  0  0  0  0  0  0  0
  1  2  1  0
  2  3  1  0
  3  4  2  0
  3  9  1  0
  4  5  1  0
  5  6  2  0
  6  7  1  0
  6  8  1  0
  8  9  2  0
  9 10  1  0
 10 11  1  0
 11 12  2  0
 11 13  1  0
M  CHG  2  11   1  13  -1
M  END
