
     RDKit          3D

 13 13  0  0  0  0  0  0  0  0999 V2000
   -3.2310   -0.9270   -0.3850 C   0  0  0  0  0  0  0  0  0  0  0  0
   -2.4830    0.1890    0.0670 O   0  0  0  0  0  0  0  0  0  0  0  0
   -1.0960    0.1180    0.0380 C   0  0  0  0  0  0  0  0  0  0  0  0
   -0.4460   -1.0100   -0.4180 C   0  0  0  0  0  0  0  0  0  0  0  0
    0.9300   -1.0630   -0.4400 C   0  0  0  0  0  0  0  0  0  0  0  0
    1.6330   -2.1860   -0.8930 O   0  0  0  0  0  0  0  0  0  0  0  0
    1.6090    0.0490    0.0100 C   0  0  0  0  0  0  0  0  0  0  0  0
    3.0980   -0.0140   -0.0160 C   0  0  0  0  0  0  0  0  0  0  0  0
    0.9610    1.1750    0.4650 C   0  0  0  0  0  0  0  0  0  0  0  0
   -0.4190    1.2390    0.4910 C   0  0  0  0  0  0  0  0  0  0  0  0
   -1.0980    2.3970    0.9590 N   0  0  0  0  0  0  0  0  0  0  0  0
   -2.2010    2.7860    0.5370 O   0  0  0  0  0  0  0  0  0  0  0  0
   -0.5040    3.1440    1.9440 O   0  0  0  0  0  0  0  0  0  0  0  0
  1  2  1  0
  2  3  1  0
  3  4  2  0
  3 10  1  0
  4  5  1  0
  5  6  1  0
  5  7  2  0
  7  8  1  0
  7  9  1  0
  9 10  2  0
 10 11  1  0
 11 12  2  0
 11 13  1  0
M  CHG  2  11   1  13  -1
M  END
