
     RDKit          3D

 26 27  0  0  0  0  0  0  0  0999 V2000
   -4.9180   -0.9760    0.6890 C   0  0  0  0  0  0  0  0  0  0  0  0
   -4.2660    0.1180   -0.1350 C   0  0  1  0  0  0  0  0  0  0  0  0
   -5.3810    0.9470   -0.6930 C   0  0  0  0  0  0  0  0  0  0  0  0
   -5.5810    1.0070   -2.0830 N   0  0  0  0  0  0  0  0  0  0  0  0
   -6.1170    1.5730    0.0860 O   0  0  0  0  0  0  0  0  0  0  0  0
   -3.3810    0.9830    0.7220 C   0  0  0  0  0  0  0  0  0  0  0  0
   -2.2690    1.5390   -0.1660 C   0  0  0  0  0  0  0  0  0  0  0  0
   -1.4070    0.4040   -0.6510 C   0  0  1  0  0  0  0  0  0  0  0  0
   -0.2690    0.1690    0.2080 N   0  0  0  0  0  0  0  0  0  0  0  0
    1.0750    0.1650   -0.3550 C   0  0  0  0  0  0  0  0  0  0  0  0
    1.1440    0.3700   -1.5730 O   0  0  0  0  0  0  0  0  0  0  0  0
    2.1880   -0.0600    0.4570 N   0  0  0  0  0  0  0  0  0  0  0  0
    3.5880   -0.0400    0.0150 C   0  0  0  0  0  0  0  0  0  0  0  0
    3.8380    0.6370   -1.0390 C   0  0  0  0  0  0  0  0  0  0  0  0
    4.9370    0.9870   -1.8800 C   0  0  0  0  0  0  0  0  0  0  0  0
    4.6710    1.8610   -3.0600 N   0  0  0  0  0  0  0  0  0  0  0  0
    6.1420    0.7080   -1.8440 O   0  0  0  0  0  0  0  0  0  0  0  0
    4.4820   -0.8290    0.8880 C   0  0  0  0  0  0  0  0  0  0  0  0
    3.9800   -1.4640    1.9360 C   0  0  0  0  0  0  0  0  0  0  0  0
    5.3070   -2.3230    2.7880 S   0  0  0  0  0  0  0  0  0  0  0  0
    5.0590   -3.8340    2.6480 O   0  0  0  0  0  0  0  0  0  0  0  0
    6.5360   -1.7850    1.6680 C   0  0  0  0  0  0  0  0  0  0  0  0
    7.7480   -2.0600    1.7120 O   0  0  0  0  0  0  0  0  0  0  0  0
    5.8420   -0.9820    0.7220 N   0  0  0  0  0  0  0  0  0  0  0  0
   -2.2320   -0.8820   -0.6740 C   0  0  0  0  0  0  0  0  0  0  0  0
   -3.5310   -0.5280   -1.2040 N   0  0  0  0  0  0  0  0  0  0  0  0
  2  1  1  1
  2  3  1  0
  2  6  1  0
  2 26  1  0
  3  4  1  0
  3  5  2  0
  6  7  1  0
  7  8  1  0
  8  9  1  1
  8 25  1  0
  9 10  1  0
 10 11  2  0
 10 12  1  0
 12 13  1  0
 13 14  2  3
 13 18  1  0
 14 15  1  0
 15 16  1  0
 15 17  2  0
 18 19  2  0
 18 24  1  0
 20 19  1  6
 20 21  2  0
 20 22  1  0
 22 23  2  0
 22 24  1  0
 25 26  1  0
M  CHG  1  26   1
M  END
