
     RDKit          3D

 26 28  0  0  0  0  0  0  0  0999 V2000
   -4.0540   -1.7780   -0.6020 C   0  0  0  0  0  0  0  0  0  0  0  0
   -4.2280   -0.6110    0.3420 C   0  0  1  0  0  0  0  0  0  0  0  0
   -5.6160   -0.5200    0.8590 C   0  0  0  0  0  0  0  0  0  0  0  0
   -6.7450   -0.4200    0.0120 N   0  0  0  0  0  0  0  0  0  0  0  0
   -5.8230   -0.5310    2.1170 O   0  0  0  0  0  0  0  0  0  0  0  0
   -3.3370   -0.7010    1.4820 N   0  0  0  0  0  0  0  0  0  0  0  0
   -2.9540    0.5450    2.0560 C   0  0  0  0  0  0  0  0  0  0  0  0
   -1.9750    0.5890    2.8430 O   0  0  0  0  0  0  0  0  0  0  0  0
   -3.7190    1.7470    1.7100 C   0  0  0  0  0  0  0  0  0  0  0  0
   -4.3300    1.7130    0.4860 O   0  0  0  0  0  0  0  0  0  0  0  0
   -3.8490    0.7060   -0.3500 C   0  0  1  0  0  0  0  0  0  0  0  0
   -2.3940    0.7550   -0.4170 C   0  0  0  0  0  0  0  0  0  0  0  0
   -1.4900    1.7170   -0.5660 C   0  0  0  0  0  0  0  0  0  0  0  0
   -0.1710    1.4690   -0.5930 C   0  0  0  0  0  0  0  0  0  0  0  0
    0.2270    0.1670   -0.4600 C   0  0  0  0  0  0  0  0  0  0  0  0
    1.5080   -0.4660   -0.4410 N   0  0  0  0  0  0  0  0  0  0  0  0
    2.7180    0.2130   -0.5700 C   0  0  0  0  0  0  0  0  0  0  0  0
    2.7610    1.4450   -0.7130 O   0  0  0  0  0  0  0  0  0  0  0  0
    3.9770   -0.4680   -0.5440 N   0  0  0  0  0  0  0  0  0  0  0  0
    5.2240    0.2560   -0.6800 C   0  0  1  0  0  0  0  0  0  0  0  0
    6.1280    0.0110    0.5090 C   0  0  0  0  0  0  0  0  0  0  0  0
    7.1870   -0.8670    0.0470 N   0  0  0  0  0  0  0  0  0  0  0  0
    7.1770   -0.7810   -1.3740 C   0  0  0  0  0  0  0  0  0  0  0  0
    8.1070   -1.2060   -2.0950 O   0  0  0  0  0  0  0  0  0  0  0  0
    5.9920   -0.1620   -1.8270 N   0  0  0  0  0  0  0  0  0  0  0  0
   -1.3050   -0.7120   -0.2940 S   0  0  0  0  0  0  0  0  0  0  0  0
  2  1  1  6
  2  3  1  0
  2  6  1  0
  2 11  1  0
  3  4  1  0
  3  5  2  0
  6  7  1  0
  7  8  2  0
  7  9  1  0
  9 10  1  0
 10 11  1  0
 11 12  1  1
 12 13  2  0
 12 26  1  0
 13 14  1  0
 14 15  2  0
 15 16  1  0
 15 26  1  0
 16 17  1  0
 17 18  2  0
 17 19  1  0
 20 19  1  1
 20 21  1  0
 20 25  1  0
 21 22  1  0
 22 23  1  0
 23 24  2  0
 23 25  1  0
M  CHG  1  22   1
M  END
