
     RDKit          3D

 26 27  0  0  0  0  0  0  0  0999 V2000
    6.8300    2.5850   -1.7640 N   0  0  0  0  0  0  0  0  0  0  0  0
    6.5150    3.4880   -0.6850 C   0  0  0  0  0  0  0  0  0  0  0  0
    7.3380    4.3350   -0.3650 O   0  0  0  0  0  0  0  0  0  0  0  0
    5.2300    3.3610   -0.0150 C   0  0  0  0  0  0  0  0  0  0  0  0
    4.4810    2.2550   -0.6400 N   0  0  0  0  0  0  0  0  0  0  0  0
    3.2430    1.9980   -0.0820 C   0  0  0  0  0  0  0  0  0  0  0  0
    2.5140    2.3270    0.7200 O   0  0  0  0  0  0  0  0  0  0  0  0
    2.5850    0.5680   -1.0420 N   0  0  0  0  0  0  0  0  0  0  0  0
    1.2020    0.2900   -0.1400 C   0  0  0  0  0  0  0  0  0  0  0  0
    0.9390    0.8880    0.8070 O   0  0  0  0  0  0  0  0  0  0  0  0
    0.5060   -0.7170   -0.7410 N   0  0  0  0  0  0  0  0  0  0  0  0
   -0.7190   -1.2880   -0.4290 C   0  0  0  0  0  0  0  0  0  0  0  0
   -1.7420   -0.7730    0.1360 C   0  0  0  0  0  0  0  0  0  0  0  0
   -2.2650    0.4060    0.6920 C   0  0  0  0  0  0  0  0  0  0  0  0
   -3.5010    0.4080    1.2540 C   0  0  0  0  0  0  0  0  0  0  0  0
   -3.9660    1.6980    1.8130 C   0  0  0  0  0  0  0  0  0  0  0  0
   -4.0380    2.8340    0.8630 C   0  0  0  0  0  0  0  0  0  0  0  0
   -2.8880    3.0560    0.0460 N   0  0  0  0  0  0  0  0  0  0  0  0
   -1.5940    2.0100    0.6570 S   0  0  0  0  0  0  0  0  0  0  0  0
   -1.3180    2.5020    2.0730 O   0  0  0  0  0  0  0  0  0  0  0  0
   -0.7400   -2.7500   -0.8080 C   0  0  0  0  0  0  0  0  0  0  0  0
    0.2750   -3.2750   -1.3650 O   0  0  0  0  0  0  0  0  0  0  0  0
   -1.8140   -3.6080   -0.5840 N   0  0  0  0  0  0  0  0  0  0  0  0
   -1.7490   -5.0320   -0.9910 C   0  0  2  0  0  0  0  0  0  0  0  0
   -2.8810   -5.9120   -0.7830 C   0  0  0  0  0  0  0  0  0  0  0  0
   -1.6520   -6.0510    0.0940 C   0  0  0  0  0  0  0  0  0  0  0  0
  1  2  1  0
  2  3  2  0
  2  4  1  0
  4  5  1  0
  5  6  1  0
  6  7  2  0
  6  8  1  0
  8  9  1  0
  9 10  2  0
  9 11  1  0
 11 12  1  0
 12 13  2  3
 12 21  1  0
 13 14  1  0
 14 15  2  0
 14 19  1  0
 15 16  1  0
 16 17  1  0
 17 18  1  0
 19 18  1  1
 19 20  2  0
 21 22  2  0
 21 23  1  0
 24 23  1  1
 24 25  1  0
 24 26  1  0
 25 26  1  0
M  CHG  1  18   1
M  END
