
     RDKit          3D

 26 27  0  0  0  0  0  0  0  0999 V2000
   -4.7060    2.0200   -0.6850 N   0  0  0  0  0  0  0  0  0  0  0  0
   -3.7570    0.9770   -0.7930 C   0  0  0  0  0  0  0  0  0  0  0  0
   -3.0750    0.8500   -1.8140 O   0  0  0  0  0  0  0  0  0  0  0  0
   -3.6000    0.0120    0.4090 C   0  0  2  0  0  0  0  0  0  0  0  0
   -2.2900   -0.5200    0.3840 N   0  0  0  0  0  0  0  0  0  0  0  0
   -1.0900    0.4130    0.3770 C   0  0  0  0  0  0  0  0  0  0  0  0
   -1.3520    1.5610    0.3450 O   0  0  0  0  0  0  0  0  0  0  0  0
    0.0420   -0.3720    0.4040 N   0  0  0  0  0  0  0  0  0  0  0  0
    1.1760    0.8600   -0.0320 C   0  0  0  0  0  0  0  0  0  0  0  0
    0.6690    1.8980   -0.2360 O   0  0  0  0  0  0  0  0  0  0  0  0
    2.4720    0.4530   -0.0800 N   0  0  0  0  0  0  0  0  0  0  0  0
    3.4300    1.4830   -0.5680 C   0  0  0  0  0  0  0  0  0  0  0  0
    4.7810    1.3690    0.0070 C   0  0  0  0  0  0  0  0  0  0  0  0
    5.0620    0.2690    0.7660 O   0  0  0  0  0  0  0  0  0  0  0  0
    5.3300   -0.8680    0.0290 C   0  0  2  0  0  0  0  0  0  0  0  0
    6.4300   -0.7380   -0.9690 C   0  0  0  0  0  0  0  0  0  0  0  0
    7.6510   -0.3910   -0.2480 N   0  0  0  0  0  0  0  0  0  0  0  0
    4.0160   -1.3170   -0.6160 C   0  0  0  0  0  0  0  0  0  0  0  0
    2.9120   -0.8490    0.3290 C   0  0  0  0  0  0  0  0  0  0  0  0
   -4.5970   -1.0980    0.2690 C   0  0  2  0  0  0  0  0  0  0  0  0
   -4.3930   -1.8610   -0.9630 N   0  0  0  0  0  0  0  0  0  0  0  0
   -5.9350   -0.5570    0.3750 C   0  0  0  0  0  0  0  0  0  0  0  0
   -6.8860   -0.3790   -0.5220 C   0  0  0  0  0  0  0  0  0  0  0  0
   -8.0360    0.1540   -0.1170 O   0  0  0  0  0  0  0  0  0  0  0  0
   -8.1420    0.7210    1.1350 C   0  0  0  0  0  0  0  0  0  0  0  0
   -6.6310    0.0690    1.9070 S   0  0  0  0  0  0  0  0  0  0  0  0
  1  2  1  0
  2  3  2  0
  2  4  1  0
  4  5  1  6
  4 20  1  0
  5  6  1  0
  6  7  2  0
  6  8  1  0
  8  9  1  0
  9 10  2  0
  9 11  1  0
 11 12  1  0
 11 19  1  0
 12 13  1  0
 13 14  1  0
 14 15  1  0
 15 16  1  6
 15 18  1  0
 16 17  1  0
 18 19  1  0
 20 21  1  6
 20 22  1  0
 22 23  2  0
 22 26  1  0
 23 24  1  0
 24 25  1  0
 25 26  1  0
M  CHG  1  17   1
M  END
