
     RDKit          3D

 29 31  0  0  0  0  0  0  0  0999 V2000
   -2.6140    4.1850    0.3340 C   0  0  0  0  0  0  0  0  0  0  0  0
   -2.6020    3.2340   -0.8480 C   0  0  0  0  0  0  0  0  0  0  0  0
   -1.9530    1.8940   -0.4560 C   0  0  2  0  0  0  0  0  0  0  0  0
   -2.7140    1.2630    0.6520 C   0  0  0  0  0  0  0  0  0  0  0  0
   -3.2110    0.0600    0.6870 C   0  0  0  0  0  0  0  0  0  0  0  0
   -3.1540   -0.9830   -0.3450 C   0  0  2  0  0  0  0  0  0  0  0  0
   -4.5830   -1.4690   -0.6410 C   0  0  0  0  0  0  0  0  0  0  0  0
   -5.2590   -0.3100   -1.0880 O   0  0  0  0  0  0  0  0  0  0  0  0
   -2.3060   -2.1540    0.0460 C   0  0  0  0  0  0  0  0  0  0  0  0
   -1.0950   -2.4450   -0.4870 C   0  0  0  0  0  0  0  0  0  0  0  0
   -0.6320   -3.5910    0.1280 C   0  0  0  0  0  0  0  0  0  0  0  0
   -1.5320   -3.9540    0.9810 O   0  0  0  0  0  0  0  0  0  0  0  0
   -2.5680   -3.1370    0.9860 C   0  0  0  0  0  0  0  0  0  0  0  0
   -3.7300   -3.3400    1.8760 C   0  0  0  0  0  0  0  0  0  0  0  0
   -0.3920   -1.6740   -1.5530 C   0  0  0  0  0  0  0  0  0  0  0  0
    1.0150   -1.3460   -1.1800 C   0  0  0  0  0  0  0  0  0  0  0  0
    1.9750   -1.6350   -1.9770 O   0  0  0  0  0  0  0  0  0  0  0  0
    1.4100   -0.7140    0.0290 N   0  0  0  0  0  0  0  0  0  0  0  0
    2.5340   -1.1810    0.7720 C   0  0  0  0  0  0  0  0  0  0  0  0
    3.8670   -0.6320    0.4610 C   0  0  0  0  0  0  0  0  0  0  0  0
    4.0390    0.8510    0.6350 C   0  0  0  0  0  0  0  0  0  0  0  0
    5.4760    1.1390    0.2670 C   0  0  0  0  0  0  0  0  0  0  0  0
    5.9510    1.4530   -0.9850 C   0  0  0  0  0  0  0  0  0  0  0  0
    7.2780    1.6280   -0.8580 N   0  0  0  0  0  0  0  0  0  0  0  0
    7.6550    1.4440    0.3830 N   0  0  0  0  0  0  0  0  0  0  0  0
    6.5770    1.1440    1.0960 C   0  0  0  0  0  0  0  0  0  0  0  0
    0.6410    0.4040    0.5200 C   0  0  0  0  0  0  0  0  0  0  0  0
    0.3420    1.4760   -0.4630 C   0  0  0  0  0  0  0  0  0  0  0  0
   -0.7070    2.2420    0.0480 O   0  0  0  0  0  0  0  0  0  0  0  0
  1  2  1  0
  3  2  1  1
  3  4  1  0
  3 29  1  0
  4  5  2  0
  5  6  1  0
  6  7  1  1
  6  9  1  0
  7  8  1  0
  9 10  1  0
  9 13  2  0
 10 11  2  0
 10 15  1  0
 11 12  1  0
 12 13  1  0
 13 14  1  0
 15 16  1  0
 16 17  2  0
 16 18  1  0
 18 19  1  0
 18 27  1  0
 19 20  1  0
 20 21  1  0
 21 22  1  0
 22 23  1  0
 22 26  2  0
 23 24  2  0
 24 25  1  0
 25 26  1  0
 27 28  1  0
 28 29  1  0
M  END
