
     RDKit          3D

 29 33  0  0  0  0  0  0  0  0999 V2000
   -4.5650    3.0850    1.6770 C   0  0  0  0  0  0  0  0  0  0  0  0
   -4.4380    1.8210    2.4650 C   0  0  0  0  0  0  0  0  0  0  0  0
   -3.8090    0.7710    1.7660 O   0  0  0  0  0  0  0  0  0  0  0  0
   -4.2630    0.2270    0.5990 C   0  0  0  0  0  0  0  0  0  0  0  0
   -5.3730    0.6090   -0.0560 N   0  0  0  0  0  0  0  0  0  0  0  0
   -5.4960   -0.1510   -1.1600 N   0  0  0  0  0  0  0  0  0  0  0  0
   -4.4750   -1.0230   -1.2260 C   0  0  0  0  0  0  0  0  0  0  0  0
   -3.6770   -0.7910   -0.1030 C   0  0  0  0  0  0  0  0  0  0  0  0
   -2.4770   -1.5990    0.0950 C   0  0  2  0  0  0  0  0  0  0  0  0
   -1.2520   -0.9730   -0.4650 C   0  0  0  0  0  0  0  0  0  0  0  0
   -0.7400   -1.2120   -1.7100 C   0  0  0  0  0  0  0  0  0  0  0  0
    0.4250   -0.5620   -2.1420 C   0  0  0  0  0  0  0  0  0  0  0  0
    1.0900    0.3350   -1.3250 C   0  0  0  0  0  0  0  0  0  0  0  0
    2.2550    0.9530   -1.8190 O   0  0  0  0  0  0  0  0  0  0  0  0
    3.4800    0.7850   -1.1910 C   0  0  0  0  0  0  0  0  0  0  0  0
    4.1780   -0.3610   -1.5650 C   0  0  0  0  0  0  0  0  0  0  0  0
    5.4010   -0.5710   -0.9680 C   0  0  0  0  0  0  0  0  0  0  0  0
    5.9020    0.3370   -0.0310 C   0  0  0  0  0  0  0  0  0  0  0  0
    5.1840    1.4560    0.3120 C   0  0  0  0  0  0  0  0  0  0  0  0
    3.9880    1.6370   -0.2900 N   0  0  0  0  0  0  0  0  0  0  0  0
    5.9580    2.2420    1.3400 C   0  0  0  0  0  0  0  0  0  0  0  0
    6.8050    1.1300    1.9740 C   0  0  0  0  0  0  0  0  0  0  0  0
    7.1680    0.3430    0.7350 C   0  0  0  0  0  0  0  0  0  0  0  0
    0.5860    0.5850   -0.0680 C   0  0  0  0  0  0  0  0  0  0  0  0
    1.4080    1.7210    0.9920 Cl  0  0  0  0  0  0  0  0  0  0  0  0
   -0.5600   -0.0690    0.3240 C   0  0  0  0  0  0  0  0  0  0  0  0
   -2.7100   -3.0070   -0.3450 C   0  0  0  0  0  0  0  0  0  0  0  0
   -3.4430   -3.2440   -1.6000 C   0  0  0  0  0  0  0  0  0  0  0  0
   -4.1250   -2.0640   -2.2030 C   0  0  0  0  0  0  0  0  0  0  0  0
  1  2  1  0
  2  3  1  0
  3  4  1  0
  4  5  1  0
  4  8  2  0
  5  6  1  0
  6  7  2  0
  7  8  1  0
  7 29  1  0
  8  9  1  0
  9 10  1  6
  9 27  1  0
 10 11  2  0
 10 26  1  0
 11 12  1  0
 12 13  2  0
 13 14  1  0
 13 24  1  0
 14 15  1  0
 15 16  2  0
 15 20  1  0
 16 17  1  0
 17 18  2  0
 18 19  1  0
 18 23  1  0
 19 20  2  0
 19 21  1  0
 21 22  1  0
 22 23  1  0
 24 25  1  0
 24 26  2  0
 27 28  1  0
 28 29  1  0
M  END
