
     RDKit          3D

 29 31  0  0  0  0  0  0  0  0999 V2000
    5.9450   -0.4880   -3.0980 C   0  0  0  0  0  0  0  0  0  0  0  0
    6.6440   -0.5380   -1.9890 C   0  0  0  0  0  0  0  0  0  0  0  0
    7.8920   -1.1430   -1.9790 O   0  0  0  0  0  0  0  0  0  0  0  0
    6.1010    0.0480   -0.7590 C   0  0  0  0  0  0  0  0  0  0  0  0
    6.7350    0.0400    0.3930 C   0  0  0  0  0  0  0  0  0  0  0  0
    5.9140    0.7220    1.4600 C   0  0  0  0  0  0  0  0  0  0  0  0
    5.0730    1.6650    0.5720 C   0  0  0  0  0  0  0  0  0  0  0  0
    4.7970    0.7150   -0.5680 C   0  0  2  0  0  0  0  0  0  0  0  0
    3.7640   -0.2460   -0.0650 C   0  0  0  0  0  0  0  0  0  0  0  0
    4.0320   -1.4620    0.1570 O   0  0  0  0  0  0  0  0  0  0  0  0
    2.4280    0.1630    0.1880 N   0  0  0  0  0  0  0  0  0  0  0  0
    1.4080   -0.7420    0.6740 C   0  0  1  0  0  0  0  0  0  0  0  0
    0.9240   -0.3900    2.0590 C   0  0  0  0  0  0  0  0  0  0  0  0
   -0.0480   -1.5190    2.4380 C   0  0  0  0  0  0  0  0  0  0  0  0
   -1.3070   -1.2580    1.6820 C   0  0  0  0  0  0  0  0  0  0  0  0
   -1.0370   -0.8370    0.3270 N   0  0  0  0  0  0  0  0  0  0  0  0
   -2.0850   -0.3070   -0.4490 C   0  0  0  0  0  0  0  0  0  0  0  0
   -1.9150    0.0790   -1.6250 O   0  0  0  0  0  0  0  0  0  0  0  0
   -3.4300   -0.2030    0.1420 C   0  0  0  0  0  0  0  0  0  0  0  0
   -4.3960    0.2880   -0.5760 C   0  0  0  0  0  0  0  0  0  0  0  0
   -5.7490    0.4820   -0.2280 N   0  0  0  0  0  0  0  0  0  0  0  0
   -6.5750    1.0270   -1.1680 C   0  0  0  0  0  0  0  0  0  0  0  0
   -6.0180    1.3890   -2.4990 C   0  0  0  0  0  0  0  0  0  0  0  0
   -7.8910    1.2220   -0.8540 C   0  0  0  0  0  0  0  0  0  0  0  0
   -8.3990    0.8890    0.3700 C   0  0  0  0  0  0  0  0  0  0  0  0
   -7.5540    0.3420    1.3050 C   0  0  0  0  0  0  0  0  0  0  0  0
   -6.2030    0.1450    0.9730 C   0  0  0  0  0  0  0  0  0  0  0  0
   -5.5190   -0.3580    1.8920 O   0  0  0  0  0  0  0  0  0  0  0  0
    0.2750   -0.9430   -0.2700 C   0  0  0  0  0  0  0  0  0  0  0  0
  1  2  2  0
  2  3  1  0
  2  4  1  0
  4  5  2  0
  4  8  1  0
  5  6  1  0
  6  7  1  0
  7  8  1  0
  8  9  1  1
  9 10  2  0
  9 11  1  0
 12 11  1  6
 12 13  1  0
 12 29  1  0
 13 14  1  0
 14 15  1  0
 15 16  1  0
 16 17  1  0
 16 29  1  0
 17 18  2  0
 17 19  1  0
 19 20  2  3
 20 21  1  0
 21 22  1  0
 21 27  1  0
 22 23  1  0
 22 24  2  0
 24 25  1  0
 25 26  2  0
 26 27  1  0
 27 28  2  0
M  END
