
     RDKit          3D

 46 48  0  0  0  0  0  0  0  0999 V2000
   -2.7420    3.2400    1.0070 C   0  0  0  0  0  0  0  0  0  0  0  0
   -4.0460    3.2360    1.7160 C   0  0  0  0  0  0  0  0  0  0  0  0
   -5.1520    2.3860    1.2410 C   0  0  2  0  0  0  0  0  0  0  0  0
   -6.3370    2.8390    2.1800 C   0  0  0  0  0  0  0  0  0  0  0  0
   -5.0840    0.8900    1.3440 C   0  0  2  0  0  0  0  0  0  0  0  0
   -5.0100    0.5550    2.6880 O   0  0  0  0  0  0  0  0  0  0  0  0
   -4.0540    0.2080    0.5740 C   0  0  0  0  0  0  0  0  0  0  0  0
   -2.6750    0.2970    1.0570 N   0  0  0  0  0  0  0  0  0  0  0  0
   -1.6330   -0.2160    0.2560 C   0  0  0  0  0  0  0  0  0  0  0  0
   -2.0710   -0.7420   -0.8490 O   0  0  0  0  0  0  0  0  0  0  0  0
   -0.2220   -0.2390    0.4670 C   0  0  0  0  0  0  0  0  0  0  0  0
    0.6010   -0.6980   -0.6050 C   0  0  0  0  0  0  0  0  0  0  0  0
    1.9410   -0.6230   -0.4490 C   0  0  0  0  0  0  0  0  0  0  0  0
    2.6000   -0.1440    0.6540 C   0  0  0  0  0  0  0  0  0  0  0  0
    3.9870   -0.0770    0.7700 O   0  0  0  0  0  0  0  0  0  0  0  0
    4.8700   -0.5130   -0.2150 C   0  0  0  0  0  0  0  0  0  0  0  0
    4.9060   -1.9820   -0.4400 C   0  0  0  0  0  0  0  0  0  0  0  0
    5.8040   -2.3070   -1.6490 C   0  0  0  0  0  0  0  0  0  0  0  0
    7.0300   -1.9390   -1.6590 O   0  0  0  0  0  0  0  0  0  0  0  0
    8.2730   -1.5410   -1.6660 C   0  0  0  0  0  0  0  0  0  0  0  0
    8.6500   -0.2290   -1.4810 C   0  0  0  0  0  0  0  0  0  0  0  0
    9.9540    0.1590   -1.5000 C   0  0  0  0  0  0  0  0  0  0  0  0
   10.9540   -0.7520   -1.7050 C   0  0  0  0  0  0  0  0  0  0  0  0
   12.2620   -0.4560   -1.7410 O   0  0  0  0  0  0  0  0  0  0  0  0
   12.8510    0.7720   -1.5880 C   0  0  0  0  0  0  0  0  0  0  0  0
   10.5920   -2.0960   -1.8940 C   0  0  0  0  0  0  0  0  0  0  0  0
    9.3030   -2.4910   -1.8780 C   0  0  0  0  0  0  0  0  0  0  0  0
    8.9250   -3.8350   -2.0650 O   0  0  0  0  0  0  0  0  0  0  0  0
    1.7640    0.2990    1.6980 C   0  0  0  0  0  0  0  0  0  0  0  0
    0.3950    0.2410    1.5830 C   0  0  0  0  0  0  0  0  0  0  0  0
   -0.4000    0.6920    2.6540 O   0  0  0  0  0  0  0  0  0  0  0  0
    0.0600    1.1940    3.8590 C   0  0  0  0  0  0  0  0  0  0  0  0
    0.8320    0.1450    4.5760 C   0  0  0  0  0  0  0  0  0  0  0  0
    0.9440   -1.1730    4.0650 N   0  0  0  0  0  0  0  0  0  0  0  0
    1.3840    0.4450    5.6470 O   0  0  0  0  0  0  0  0  0  0  0  0
   -6.4470    0.3480    0.9320 C   0  0  0  0  0  0  0  0  0  0  0  0
   -7.3630    0.5810    1.7990 O   0  0  0  0  0  0  0  0  0  0  0  0
   -6.8660   -0.3310   -0.1960 N   0  0  0  0  0  0  0  0  0  0  0  0
   -8.3390   -0.3230   -0.4140 C   0  0  0  0  0  0  0  0  0  0  0  0
   -8.4610    0.3500   -1.8010 C   0  0  0  0  0  0  0  0  0  0  0  0
   -7.8820   -0.5620   -2.8480 C   0  0  1  0  0  0  0  0  0  0  0  0
   -6.8420    0.1670   -3.5960 C   0  0  0  0  0  0  0  0  0  0  0  0
   -6.0060    0.7660   -4.1840 N   0  0  0  0  0  0  0  0  0  0  0  0
   -7.1200   -1.7030   -2.1820 C   0  0  2  0  0  0  0  0  0  0  0  0
   -7.8940   -2.7200   -1.7760 O   0  0  0  0  0  0  0  0  0  0  0  0
   -6.1420   -1.1290   -1.1440 C   0  0  0  0  0  0  0  0  0  0  0  0
  1  2  1  0
  2  3  1  0
  3  4  1  1
  3  5  1  0
  5  6  1  1
  5  7  1  0
  5 36  1  0
  7  8  1  0
  8  9  1  0
  9 10  2  0
  9 11  1  0
 11 12  2  0
 11 30  1  0
 12 13  1  0
 13 14  2  0
 14 15  1  0
 14 29  1  0
 15 16  1  0
 16 17  1  0
 17 18  1  0
 18 19  1  0
 19 20  1  0
 20 21  2  0
 20 27  1  0
 21 22  1  0
 22 23  2  0
 23 24  1  0
 23 26  1  0
 24 25  1  0
 26 27  2  0
 27 28  1  0
 29 30  2  0
 30 31  1  0
 31 32  1  0
 32 33  1  0
 33 34  1  0
 33 35  2  0
 36 37  2  0
 36 38  1  0
 38 39  1  0
 38 46  1  0
 39 40  1  0
 40 41  1  0
 41 42  1  6
 41 44  1  0
 42 43  3  0
 44 45  1  1
 44 46  1  0
M  END
