
     RDKit          3D

 46 49  0  0  0  0  0  0  0  0999 V2000
   -4.8690    3.3070   -0.7130 C   0  0  0  0  0  0  0  0  0  0  0  0
   -5.6590    3.0980    0.4160 O   0  0  0  0  0  0  0  0  0  0  0  0
   -6.1550    1.8660    0.7810 C   0  0  0  0  0  0  0  0  0  0  0  0
   -5.8670    0.7580    0.0000 C   0  0  0  0  0  0  0  0  0  0  0  0
   -6.3420   -0.4660    0.3380 C   0  0  0  0  0  0  0  0  0  0  0  0
   -6.1100   -1.7160   -0.3730 C   0  0  0  0  0  0  0  0  0  0  0  0
   -7.1940   -2.4710   -0.7240 N   0  0  0  0  0  0  0  0  0  0  0  0
   -7.0660   -3.6290   -1.3890 C   0  0  0  0  0  0  0  0  0  0  0  0
   -5.8290   -4.1160   -1.7520 C   0  0  0  0  0  0  0  0  0  0  0  0
   -4.6870   -3.3930   -1.4210 C   0  0  0  0  0  0  0  0  0  0  0  0
   -3.4530   -3.8980   -1.7910 O   0  0  0  0  0  0  0  0  0  0  0  0
   -3.3980   -5.1210   -2.4890 C   0  0  0  0  0  0  0  0  0  0  0  0
   -4.8670   -2.2050   -0.7350 C   0  0  0  0  0  0  0  0  0  0  0  0
   -3.7180   -1.4700   -0.2830 C   0  0  0  0  0  0  0  0  0  0  0  0
   -3.7870   -0.6950    0.7450 O   0  0  0  0  0  0  0  0  0  0  0  0
   -2.4620   -1.5290   -0.9060 N   0  0  0  0  0  0  0  0  0  0  0  0
   -1.3110   -0.7640   -0.4080 C   0  0  1  0  0  0  0  0  0  0  0  0
   -0.3190   -1.7830    0.0750 C   0  0  0  0  0  0  0  0  0  0  0  0
   -0.8070    0.1680   -1.4150 C   0  0  0  0  0  0  0  0  0  0  0  0
   -1.3860    0.1800   -2.5560 O   0  0  0  0  0  0  0  0  0  0  0  0
    0.2650    1.0740   -1.2690 N   0  0  0  0  0  0  0  0  0  0  0  0
    0.6950    1.9680   -2.3200 C   0  0  0  0  0  0  0  0  0  0  0  0
    1.8350    2.8020   -1.8290 C   0  0  0  0  0  0  0  0  0  0  0  0
    3.0170    2.0000   -1.4420 C   0  0  0  0  0  0  0  0  0  0  0  0
    3.9080    1.6830   -2.3060 O   0  0  0  0  0  0  0  0  0  0  0  0
    3.2460    1.5470   -0.1600 O   0  0  0  0  0  0  0  0  0  0  0  0
    4.3670    0.8100    0.2180 C   0  0  2  0  0  0  0  0  0  0  0  0
    3.9870   -0.6550    0.4040 C   0  0  0  0  0  0  0  0  0  0  0  0
    2.8010   -0.9760    0.2300 O   0  0  0  0  0  0  0  0  0  0  0  0
    4.9300   -1.6330    0.7610 N   0  0  0  0  0  0  0  0  0  0  0  0
    4.5600   -3.0470    0.9390 C   0  0  2  0  0  0  0  0  0  0  0  0
    5.4150   -3.9050    1.7960 C   0  0  0  0  0  0  0  0  0  0  0  0
    5.5920   -3.9800    0.3240 C   0  0  0  0  0  0  0  0  0  0  0  0
    5.0660    1.2820    1.4370 C   0  0  2  0  0  0  0  0  0  0  0  0
    4.2110    1.2910    2.5660 O   0  0  0  0  0  0  0  0  0  0  0  0
    5.7160    2.5870    1.3850 C   0  0  0  0  0  0  0  0  0  0  0  0
    5.9440    3.2920    0.2460 C   0  0  0  0  0  0  0  0  0  0  0  0
    6.5910    4.5380    0.2710 C   0  0  0  0  0  0  0  0  0  0  0  0
    6.9950    5.0350    1.4920 C   0  0  0  0  0  0  0  0  0  0  0  0
    6.7800    4.3460    2.6680 C   0  0  0  0  0  0  0  0  0  0  0  0
    6.1420    3.1300    2.5900 C   0  0  0  0  0  0  0  0  0  0  0  0
    5.9300    2.4460    3.7740 O   0  0  0  0  0  0  0  0  0  0  0  0
   -7.1240   -0.5500    1.4930 C   0  0  0  0  0  0  0  0  0  0  0  0
   -7.4090    0.5520    2.2670 C   0  0  0  0  0  0  0  0  0  0  0  0
   -6.9260    1.7980    1.9250 C   0  0  0  0  0  0  0  0  0  0  0  0
   -7.1970    2.9320    2.6880 O   0  0  0  0  0  0  0  0  0  0  0  0
  1  2  1  0
  2  3  1  0
  3  4  2  0
  3 45  1  0
  4  5  1  0
  5  6  1  0
  5 43  2  0
  6  7  2  0
  6 13  1  0
  7  8  1  0
  8  9  2  0
  9 10  1  0
 10 11  1  0
 10 13  2  0
 11 12  1  0
 13 14  1  0
 14 15  2  0
 14 16  1  0
 16 17  1  0
 17 18  1  6
 17 19  1  0
 19 20  2  0
 19 21  1  0
 21 22  1  0
 22 23  1  0
 23 24  1  0
 24 25  2  0
 24 26  1  0
 27 26  1  1
 27 28  1  0
 27 34  1  0
 28 29  2  0
 28 30  1  0
 31 30  1  1
 31 32  1  0
 31 33  1  0
 32 33  1  0
 34 35  1  1
 34 36  1  0
 36 37  2  0
 36 41  1  0
 37 38  1  0
 38 39  2  0
 39 40  1  0
 40 41  2  0
 41 42  1  0
 43 44  1  0
 44 45  2  0
 45 46  1  0
M  END
