
     RDKit          3D

 46 47  0  0  0  0  0  0  0  0999 V2000
    2.3700    7.8580    2.5000 C   0  0  0  0  0  0  0  0  0  0  0  0
    1.6410    7.1350    1.9960 C   0  0  0  0  0  0  0  0  0  0  0  0
    0.6670    6.1630    1.2920 C   0  0  0  0  0  0  0  0  0  0  0  0
   -0.2990    6.7890    0.6330 C   0  0  0  0  0  0  0  0  0  0  0  0
   -1.1730    5.8930   -0.2780 C   0  0  0  0  0  0  0  0  0  0  0  0
   -0.6890    4.6580   -0.1320 C   0  0  0  0  0  0  0  0  0  0  0  0
    0.1950    4.0030    0.4580 C   0  0  0  0  0  0  0  0  0  0  0  0
    0.5260    2.6570    0.4490 N   0  0  0  0  0  0  0  0  0  0  0  0
    0.7100    1.7240   -0.5730 C   0  0  0  0  0  0  0  0  0  0  0  0
    0.6140    2.0030   -1.7480 O   0  0  0  0  0  0  0  0  0  0  0  0
    1.0100    0.2930   -0.0560 C   0  0  1  0  0  0  0  0  0  0  0  0
   -0.2720    0.0190    0.7960 C   0  0  0  0  0  0  0  0  0  0  0  0
   -0.3220   -0.8710    1.6260 O   0  0  0  0  0  0  0  0  0  0  0  0
   -1.3400    0.7790    0.6080 O   0  0  0  0  0  0  0  0  0  0  0  0
   -2.4530    1.3530    0.6000 C   0  0  0  0  0  0  0  0  0  0  0  0
   -3.8300    0.7430    0.2810 C   0  0  0  0  0  0  0  0  0  0  0  0
   -3.9180   -0.5150    0.0920 C   0  0  0  0  0  0  0  0  0  0  0  0
   -4.8420   -1.5390   -0.2490 C   0  0  0  0  0  0  0  0  0  0  0  0
   -4.7230   -2.7890    0.0120 C   0  0  0  0  0  0  0  0  0  0  0  0
   -4.4650   -4.1560    0.3650 C   0  0  0  0  0  0  0  0  0  0  0  0
   -3.4710   -4.6270    0.9390 O   0  0  0  0  0  0  0  0  0  0  0  0
   -5.4690   -5.1000    0.0340 O   0  0  0  0  0  0  0  0  0  0  0  0
   -5.8030   -1.3510   -1.4270 C   0  0  0  0  0  0  0  0  0  0  0  0
   -6.3850   -2.6350   -1.7850 O   0  0  0  0  0  0  0  0  0  0  0  0
   -6.1540   -0.4010   -2.0980 C   0  0  0  0  0  0  0  0  0  0  0  0
   -7.1970   -0.7950   -3.1570 O   0  0  0  0  0  0  0  0  0  0  0  0
   -4.8290    1.7530    0.3430 C   0  0  0  0  0  0  0  0  0  0  0  0
   -4.3690    3.0000    0.7110 O   0  0  0  0  0  0  0  0  0  0  0  0
   -6.1740    1.7990    0.1260 N   0  0  0  0  0  0  0  0  0  0  0  0
   -7.0540    2.9510    0.2410 C   0  0  0  0  0  0  0  0  0  0  0  0
   -8.4140    2.5820   -0.3510 C   0  0  0  0  0  0  0  0  0  0  0  0
    1.0620   -0.7040   -1.1210 C   0  0  0  0  0  0  0  0  0  0  0  0
    2.3810   -1.4350   -1.3290 C   0  0  0  0  0  0  0  0  0  0  0  0
    3.2780   -1.3980   -0.2490 N   0  0  0  0  0  0  0  0  0  0  0  0
    4.3980   -2.2590   -0.1450 C   0  0  0  0  0  0  0  0  0  0  0  0
    5.2280   -2.0170    0.8160 O   0  0  0  0  0  0  0  0  0  0  0  0
    4.7550   -3.3740   -0.9240 N   0  0  0  0  0  0  0  0  0  0  0  0
    5.9710   -4.1220   -0.5690 C   0  0  1  0  0  0  0  0  0  0  0  0
    5.9520   -4.4040    0.9410 C   0  0  0  0  0  0  0  0  0  0  0  0
    5.8530   -5.5200   -1.2040 C   0  0  0  0  0  0  0  0  0  0  0  0
    7.2500   -3.5250   -0.9620 C   0  0  0  0  0  0  0  0  0  0  0  0
    7.4910   -2.2640   -0.4780 O   0  0  0  0  0  0  0  0  0  0  0  0
    8.7860   -1.8710   -0.9360 C   0  0  0  0  0  0  0  0  0  0  0  0
    3.1390   -0.5440    0.9070 C   0  0  0  0  0  0  0  0  0  0  0  0
    2.1530    0.5000    0.8230 C   0  0  0  0  0  0  0  0  0  0  0  0
    1.0470    4.8650    1.3400 C   0  0  0  0  0  0  0  0  0  0  0  0
  1  2  3  0
  2  3  1  0
  3  4  2  0
  3 46  1  0
  4  5  1  0
  5  6  2  0
  6  7  1  0
  7  8  1  0
  7 46  2  0
  8  9  1  0
  9 10  2  0
 11  9  1  6
 11 12  1  0
 11 32  1  0
 11 45  1  0
 12 13  2  0
 12 14  1  0
 14 15  1  0
 15 16  1  0
 16 17  2  3
 16 27  1  0
 17 18  1  0
 18 19  2  3
 18 23  1  0
 19 20  1  0
 20 21  2  0
 20 22  1  0
 23 24  1  0
 23 25  2  3
 25 26  1  0
 27 28  2  0
 27 29  1  0
 29 30  1  0
 30 31  1  0
 32 33  1  0
 33 34  1  0
 34 35  1  0
 34 44  1  0
 35 36  2  0
 35 37  1  0
 37 38  1  0
 38 39  1  1
 38 40  1  0
 38 41  1  0
 41 42  1  0
 42 43  1  0
 44 45  1  0
M  END
