
     RDKit          3D

 46 48  0  0  0  0  0  0  0  0999 V2000
    2.6650   -6.0910   -1.3800 C   0  0  0  0  0  0  0  0  0  0  0  0
    1.4140   -5.2820   -1.2410 C   0  0  0  0  0  0  0  0  0  0  0  0
    1.4680   -4.3440   -0.2100 O   0  0  0  0  0  0  0  0  0  0  0  0
    2.3700   -3.2990   -0.0990 C   0  0  0  0  0  0  0  0  0  0  0  0
    3.3440   -3.0550   -1.0240 C   0  0  0  0  0  0  0  0  0  0  0  0
    4.2240   -1.9860   -0.8560 C   0  0  0  0  0  0  0  0  0  0  0  0
    4.1370   -1.1680    0.2210 C   0  0  0  0  0  0  0  0  0  0  0  0
    4.9960   -0.0890    0.4680 N   0  0  0  0  0  0  0  0  0  0  0  0
    6.2430    0.0960   -0.1480 C   0  0  0  0  0  0  0  0  0  0  0  0
    6.6900   -0.7240   -0.9770 O   0  0  0  0  0  0  0  0  0  0  0  0
    7.0730    1.2280    0.1340 N   0  0  0  0  0  0  0  0  0  0  0  0
    8.3430    1.3900   -0.4990 C   0  0  1  0  0  0  0  0  0  0  0  0
    8.9890    2.7050   -0.0440 C   0  0  0  0  0  0  0  0  0  0  0  0
    9.1850    2.6920    1.4360 C   0  0  0  0  0  0  0  0  0  0  0  0
    9.3260    0.2570   -0.1820 C   0  0  0  0  0  0  0  0  0  0  0  0
   10.5070    0.5800   -0.8710 O   0  0  0  0  0  0  0  0  0  0  0  0
    8.2040    1.4830   -1.9650 C   0  0  0  0  0  0  0  0  0  0  0  0
    7.0600    1.4150   -2.4680 O   0  0  0  0  0  0  0  0  0  0  0  0
    9.3160    1.6470   -2.7990 O   0  0  0  0  0  0  0  0  0  0  0  0
    3.1350   -1.4390    1.1500 C   0  0  0  0  0  0  0  0  0  0  0  0
    2.2390   -2.4800    1.0320 C   0  0  0  0  0  0  0  0  0  0  0  0
    1.2540   -2.7720    1.9110 O   0  0  0  0  0  0  0  0  0  0  0  0
    0.8670   -2.1510    3.0680 C   0  0  0  0  0  0  0  0  0  0  0  0
    0.3450   -0.7620    2.9290 C   0  0  0  0  0  0  0  0  0  0  0  0
   -0.8140   -0.7220    2.0830 O   0  0  0  0  0  0  0  0  0  0  0  0
   -1.4530    0.4870    1.8470 C   0  0  0  0  0  0  0  0  0  0  0  0
   -1.0410    1.6780    2.3820 C   0  0  0  0  0  0  0  0  0  0  0  0
   -1.7000    2.8560    2.1270 C   0  0  0  0  0  0  0  0  0  0  0  0
   -2.8060    2.8910    1.3200 C   0  0  0  0  0  0  0  0  0  0  0  0
   -3.4680    4.0890    1.0670 O   0  0  0  0  0  0  0  0  0  0  0  0
   -3.0230    5.2920    1.6300 C   0  0  0  0  0  0  0  0  0  0  0  0
   -3.2550    1.6920    0.7550 C   0  0  0  0  0  0  0  0  0  0  0  0
   -4.4460    1.7890   -0.0990 C   0  0  0  0  0  0  0  0  0  0  0  0
   -4.9390    0.5950   -0.6970 N   0  0  1  0  0  0  0  0  0  0  0  0
   -5.7490   -0.0870    0.2600 C   0  0  0  0  0  0  0  0  0  0  0  0
   -6.1560   -1.4450   -0.0950 C   0  0  0  0  0  0  0  0  0  0  0  0
   -5.8470   -2.0190   -1.1480 O   0  0  0  0  0  0  0  0  0  0  0  0
   -6.9660   -2.1740    0.8240 N   0  0  0  0  0  0  0  0  0  0  0  0
   -7.3820   -3.5400    0.4820 C   0  0  0  0  0  0  0  0  0  0  0  0
   -5.4690    0.7550   -2.0030 C   0  0  0  0  0  0  0  0  0  0  0  0
   -6.7970    1.2330   -2.2720 C   0  0  1  0  0  0  0  0  0  0  0  0
   -7.9890    0.3780   -1.9990 C   0  0  0  0  0  0  0  0  0  0  0  0
   -9.0750    1.3070   -2.5980 C   0  0  0  0  0  0  0  0  0  0  0  0
   -8.4780    2.6570   -2.2770 C   0  0  0  0  0  0  0  0  0  0  0  0
   -7.1920    2.4730   -1.8070 O   0  0  0  0  0  0  0  0  0  0  0  0
   -2.5910    0.5340    1.0170 C   0  0  0  0  0  0  0  0  0  0  0  0
  1  2  1  0
  2  3  1  0
  3  4  1  0
  4  5  2  0
  4 21  1  0
  5  6  1  0
  6  7  2  0
  7  8  1  0
  7 20  1  0
  8  9  1  0
  9 10  2  0
  9 11  1  0
 11 12  1  0
 12 13  1  1
 12 15  1  0
 12 17  1  0
 13 14  1  0
 15 16  1  0
 17 18  2  0
 17 19  1  0
 20 21  2  0
 21 22  1  0
 22 23  1  0
 23 24  1  0
 24 25  1  0
 25 26  1  0
 26 27  2  0
 26 46  1  0
 27 28  1  0
 28 29  2  0
 29 30  1  0
 29 32  1  0
 30 31  1  0
 32 33  1  0
 32 46  2  0
 34 33  1  1
 34 35  1  0
 34 40  1  0
 35 36  1  0
 36 37  2  0
 36 38  1  0
 38 39  1  0
 41 40  1  1
 41 42  1  0
 41 45  1  0
 42 43  1  0
 43 44  1  0
 44 45  1  0
M  CHG  1  34   1
M  END
