
     RDKit          3D

 46 49  0  0  0  0  0  0  0  0999 V2000
   12.8150    1.0730   -0.5860 C   0  0  0  0  0  0  0  0  0  0  0  0
   11.6580    1.4330    0.0940 O   0  0  0  0  0  0  0  0  0  0  0  0
   10.3730    0.8820   -0.2080 C   0  0  0  0  0  0  0  0  0  0  0  0
   10.3400   -0.1420   -0.9790 C   0  0  0  0  0  0  0  0  0  0  0  0
    9.1960   -0.9320   -1.4800 C   0  0  0  0  0  0  0  0  0  0  0  0
    9.1920   -2.3380   -0.9980 C   0  0  0  0  0  0  0  0  0  0  0  0
    8.1200   -3.1650   -1.4810 N   0  0  0  0  0  0  0  0  0  0  0  0
   10.0510   -2.7990   -0.2240 O   0  0  0  0  0  0  0  0  0  0  0  0
    9.2690    1.5750    0.4230 C   0  0  0  0  0  0  0  0  0  0  0  0
    8.0160    1.0220    0.1410 O   0  0  0  0  0  0  0  0  0  0  0  0
    6.8470    1.6190    0.6430 C   0  0  0  0  0  0  0  0  0  0  0  0
    7.0360    2.6520    1.3240 O   0  0  0  0  0  0  0  0  0  0  0  0
    5.5070    1.1170    0.4210 C   0  0  0  0  0  0  0  0  0  0  0  0
    4.4430    1.8420    0.9350 C   0  0  0  0  0  0  0  0  0  0  0  0
    3.1260    1.4210    0.7980 C   0  0  0  0  0  0  0  0  0  0  0  0
    2.8190    0.2560    0.1380 C   0  0  0  0  0  0  0  0  0  0  0  0
    1.4980   -0.1730   -0.0020 N   0  0  0  0  0  0  0  0  0  0  0  0
    0.3110    0.5800    0.1330 C   0  0  0  0  0  0  0  0  0  0  0  0
    0.4000    1.7870    0.3900 O   0  0  0  0  0  0  0  0  0  0  0  0
   -0.9790    0.0120   -0.0110 N   0  0  0  0  0  0  0  0  0  0  0  0
   -2.1910    0.7260    0.1090 C   0  0  0  0  0  0  0  0  0  0  0  0
   -2.3600    2.0690   -0.0190 C   0  0  0  0  0  0  0  0  0  0  0  0
   -3.6130    2.6560    0.1780 C   0  0  0  0  0  0  0  0  0  0  0  0
   -4.7200    1.8720    0.5090 C   0  0  0  0  0  0  0  0  0  0  0  0
   -5.9480    2.4490    0.7130 C   0  0  0  0  0  0  0  0  0  0  0  0
   -7.0560    1.7360    1.0470 C   0  0  0  0  0  0  0  0  0  0  0  0
   -8.3070    2.3110    1.2550 O   0  0  0  0  0  0  0  0  0  0  0  0
   -8.7250    2.7000    2.5410 C   0  0  0  0  0  0  0  0  0  0  0  0
  -10.0040    3.2820    2.7140 N   0  0  0  0  0  0  0  0  0  0  0  0
   -7.9290    2.5030    3.4710 O   0  0  0  0  0  0  0  0  0  0  0  0
   -6.9190    0.3420    1.1870 C   0  0  0  0  0  0  0  0  0  0  0  0
   -7.9950   -0.4020    1.5240 O   0  0  0  0  0  0  0  0  0  0  0  0
   -9.0310   -0.9850    0.8800 C   0  0  0  0  0  0  0  0  0  0  0  0
   -8.7180   -1.9530   -0.1290 C   0  0  0  0  0  0  0  0  0  0  0  0
   -8.2310   -3.2030   -0.1970 C   0  0  0  0  0  0  0  0  0  0  0  0
   -8.1000   -3.8510   -1.3470 C   0  0  0  0  0  0  0  0  0  0  0  0
   -8.4690   -3.2420   -2.5260 C   0  0  0  0  0  0  0  0  0  0  0  0
   -8.4600   -3.6400   -3.8950 C   0  0  0  0  0  0  0  0  0  0  0  0
   -8.8420   -2.9320   -4.8400 O   0  0  0  0  0  0  0  0  0  0  0  0
   -9.0480   -1.6050   -1.9130 S   0  0  0  0  0  0  0  0  0  0  0  0
   -5.6810   -0.2300    0.9790 C   0  0  0  0  0  0  0  0  0  0  0  0
   -5.5320   -1.6980    1.1490 C   0  0  0  0  0  0  0  0  0  0  0  0
   -4.5660    0.5260    0.6390 C   0  0  0  0  0  0  0  0  0  0  0  0
   -3.3300   -0.0330    0.4420 C   0  0  0  0  0  0  0  0  0  0  0  0
    3.8690   -0.4650   -0.3750 C   0  0  0  0  0  0  0  0  0  0  0  0
    5.1950   -0.0390   -0.2350 C   0  0  0  0  0  0  0  0  0  0  0  0
  1  2  1  0
  2  3  1  0
  3  4  2  3
  3  9  1  0
  4  5  1  0
  5  6  1  0
  6  7  1  0
  6  8  2  0
  9 10  1  0
 10 11  1  0
 11 12  2  0
 11 13  1  0
 13 14  2  0
 13 46  1  0
 14 15  1  0
 15 16  2  0
 16 17  1  0
 16 45  1  0
 17 18  1  0
 18 19  2  0
 18 20  1  0
 20 21  1  0
 21 22  2  0
 21 44  1  0
 22 23  1  0
 23 24  2  0
 24 25  1  0
 24 43  1  0
 25 26  2  0
 26 27  1  0
 26 31  1  0
 27 28  1  0
 28 29  1  0
 28 30  2  0
 31 32  1  0
 31 41  2  0
 32 33  1  0
 33 34  1  0
 34 35  2  0
 34 40  1  0
 35 36  1  0
 36 37  2  0
 37 38  1  0
 37 40  1  0
 38 39  2  0
 41 42  1  0
 41 43  1  0
 43 44  2  0
 45 46  2  0
M  END
