
     RDKit          3D

 33 36  0  0  0  0  0  0  0  0999 V2000
   -6.0430    3.3400   -2.0870 C   0  0  0  0  0  0  0  0  0  0  0  0
   -5.6830    1.9930   -1.9820 O   0  0  0  0  0  0  0  0  0  0  0  0
   -5.1730    1.2280   -3.0090 C   0  0  0  0  0  0  0  0  0  0  0  0
   -5.0110    1.7740   -4.1340 O   0  0  0  0  0  0  0  0  0  0  0  0
   -4.7990   -0.2130   -2.8750 C   0  0  0  0  0  0  0  0  0  0  0  0
   -5.0230   -0.6800   -1.5360 N   0  0  0  0  0  0  0  0  0  0  0  0
   -6.2120   -1.1820   -1.1890 N   0  0  0  0  0  0  0  0  0  0  0  0
   -6.2450   -1.5370    0.0790 C   0  0  0  0  0  0  0  0  0  0  0  0
   -4.9840   -1.2340    0.5640 C   0  0  0  0  0  0  0  0  0  0  0  0
   -4.1890   -0.6890   -0.4380 C   0  0  0  0  0  0  0  0  0  0  0  0
   -2.8260   -0.2780   -0.4540 C   0  0  0  0  0  0  0  0  0  0  0  0
   -2.3610    0.0010   -1.6500 O   0  0  0  0  0  0  0  0  0  0  0  0
   -1.8850   -0.1160    0.5780 N   0  0  0  0  0  0  0  0  0  0  0  0
   -0.4930    0.2510    0.1670 C   0  0  0  0  0  0  0  0  0  0  0  0
    0.3380    0.4860    1.3530 C   0  0  2  0  0  0  0  0  0  0  0  0
    0.1000    1.7860    1.8320 O   0  0  0  0  0  0  0  0  0  0  0  0
    1.8020    0.4390    0.9530 C   0  0  0  0  0  0  0  0  0  0  0  0
    2.8960    0.6380    1.7190 C   0  0  0  0  0  0  0  0  0  0  0  0
    4.1000    0.5410    1.1320 C   0  0  0  0  0  0  0  0  0  0  0  0
    4.1610    0.2540   -0.1830 C   0  0  0  0  0  0  0  0  0  0  0  0
    5.3100    0.0880   -1.0630 C   0  0  0  0  0  0  0  0  0  0  0  0
    5.1620   -0.0090   -2.3300 N   0  0  0  0  0  0  0  0  0  0  0  0
    6.3520   -0.1710   -3.1380 C   0  0  0  0  0  0  0  0  0  0  0  0
    7.4990    0.6980   -2.6690 C   0  0  0  0  0  0  0  0  0  0  0  0
    7.7850    0.5080   -1.1990 C   0  0  0  0  0  0  0  0  0  0  0  0
    6.5840    0.0290   -0.4990 N   0  0  0  0  0  0  0  0  0  0  0  0
    2.4740    0.1100   -0.6290 S   0  0  0  0  0  0  0  0  0  0  0  0
    0.2310   -0.5180    2.4560 C   0  0  0  0  0  0  0  0  0  0  0  0
   -1.1170   -1.1660    2.5880 C   0  0  1  0  0  0  0  0  0  0  0  0
   -1.1820   -2.4920    1.9240 C   0  0  0  0  0  0  0  0  0  0  0  0
   -1.4330   -1.3200    4.0710 C   0  0  0  0  0  0  0  0  0  0  0  0
   -0.4820   -2.1060    4.7020 O   0  0  0  0  0  0  0  0  0  0  0  0
   -2.1260   -0.1970    1.9850 C   0  0  0  0  0  0  0  0  0  0  0  0
  1  2  1  0
  2  3  1  0
  3  4  2  0
  3  5  1  0
  5  6  1  0
  6  7  1  0
  6 10  1  0
  7  8  2  0
  8  9  1  0
  9 10  2  0
 10 11  1  0
 11 12  2  0
 11 13  1  0
 13 14  1  0
 13 33  1  0
 14 15  1  0
 15 16  1  1
 15 17  1  0
 15 28  1  0
 17 18  2  0
 17 27  1  0
 18 19  1  0
 19 20  2  0
 20 21  1  0
 20 27  1  0
 21 22  2  0
 21 26  1  0
 22 23  1  0
 23 24  1  0
 24 25  1  0
 25 26  1  0
 28 29  1  0
 29 30  1  6
 29 31  1  0
 29 33  1  0
 31 32  1  0
M  CHG  1  22   1
M  END
