
     RDKit          3D

 33 37  0  0  0  0  0  0  0  0999 V2000
    5.5440   -3.7110   -0.8530 C   0  0  0  0  0  0  0  0  0  0  0  0
    4.8820   -2.4940   -0.5670 O   0  0  0  0  0  0  0  0  0  0  0  0
    5.6530   -1.4100   -0.1850 C   0  0  0  0  0  0  0  0  0  0  0  0
    7.0270   -1.5080   -0.0860 C   0  0  0  0  0  0  0  0  0  0  0  0
    7.7990   -0.4250    0.2960 C   0  0  0  0  0  0  0  0  0  0  0  0
    9.1810   -0.2770    0.4650 C   0  0  0  0  0  0  0  0  0  0  0  0
    9.3440    1.0360    0.8540 C   0  0  0  0  0  0  0  0  0  0  0  0
    8.1340    1.6530    0.9190 N   0  0  0  0  0  0  0  0  0  0  0  0
    7.1760    0.7680    0.5780 C   0  0  0  0  0  0  0  0  0  0  0  0
    5.7890    0.8480    0.4730 C   0  0  0  0  0  0  0  0  0  0  0  0
    4.9950   -0.2070    0.0980 C   0  0  0  0  0  0  0  0  0  0  0  0
    3.6310   -0.1950   -0.0250 O   0  0  0  0  0  0  0  0  0  0  0  0
    2.8670    0.9180    0.2290 C   0  0  1  0  0  0  0  0  0  0  0  0
    2.0460    1.3550   -1.0030 C   0  0  0  0  0  0  0  0  0  0  0  0
    1.1140    2.3520   -0.2930 C   0  0  0  0  0  0  0  0  0  0  0  0
    1.0010    1.9070    1.0550 N   0  0  1  0  0  0  0  0  0  0  0  0
   -0.2780    1.9350    1.6540 C   0  0  0  0  0  0  0  0  0  0  0  0
   -1.1640    0.7610    1.4420 C   0  0  0  0  0  0  0  0  0  0  0  0
   -1.5350    0.4680    0.1030 N   0  0  0  0  0  0  0  0  0  0  0  0
   -2.4150    1.4040   -0.5070 C   0  0  0  0  0  0  0  0  0  0  0  0
   -3.8740    1.1560   -0.1770 C   0  0  0  0  0  0  0  0  0  0  0  0
   -4.2210   -0.2790   -0.3640 C   0  0  0  0  0  0  0  0  0  0  0  0
   -5.5650   -0.5810   -0.5640 C   0  0  0  0  0  0  0  0  0  0  0  0
   -6.6010    0.4690   -0.5810 C   0  0  0  0  0  0  0  0  0  0  0  0
   -7.9290   -0.0010   -0.8080 N   0  0  0  0  0  0  0  0  0  0  0  0
   -8.5680   -0.5750    0.3420 C   0  0  0  0  0  0  0  0  0  0  0  0
   -7.6800   -0.7660    1.4120 O   0  0  0  0  0  0  0  0  0  0  0  0
   -5.9430   -1.8930   -0.7480 C   0  0  0  0  0  0  0  0  0  0  0  0
   -4.9330   -2.8460   -0.7200 C   0  0  0  0  0  0  0  0  0  0  0  0
   -3.6120   -2.5460   -0.5220 C   0  0  0  0  0  0  0  0  0  0  0  0
   -3.2470   -1.2280   -0.3390 C   0  0  0  0  0  0  0  0  0  0  0  0
   -1.8350   -0.8950   -0.1270 C   0  0  0  0  0  0  0  0  0  0  0  0
    1.6700    0.6140    1.1530 C   0  0  0  0  0  0  0  0  0  0  0  0
  1  2  1  0
  2  3  1  0
  3  4  2  0
  3 11  1  0
  4  5  1  0
  5  6  1  0
  5  9  2  0
  6  7  2  0
  7  8  1  0
  8  9  1  0
  9 10  1  0
 10 11  2  0
 11 12  1  0
 13 12  1  6
 13 14  1  0
 13 33  1  0
 14 15  1  0
 15 16  1  0
 16 17  1  6
 16 33  1  0
 17 18  1  0
 18 19  1  0
 19 20  1  0
 19 32  1  0
 20 21  1  0
 21 22  1  0
 22 23  2  0
 22 31  1  0
 23 24  1  0
 23 28  1  0
 24 25  1  0
 25 26  1  0
 26 27  1  0
 28 29  2  0
 29 30  1  0
 30 31  2  0
 31 32  1  0
M  CHG  2  16   1  25   1
M  END
