
     RDKit          3D

 33 37  0  0  0  0  0  0  0  0999 V2000
    2.7380   -0.3120    2.1370 O   0  0  0  0  0  0  0  0  0  0  0  0
    2.4640   -0.4420    0.9170 C   0  0  0  0  0  0  0  0  0  0  0  0
    3.4110   -1.0700   -0.0400 C   0  0  0  0  0  0  0  0  0  0  0  0
    4.6450   -1.4690    0.7280 C   0  0  2  0  0  0  0  0  0  0  0  0
    5.1810   -0.3140    1.2810 O   0  0  0  0  0  0  0  0  0  0  0  0
    5.6560   -2.1230   -0.1120 C   0  0  0  0  0  0  0  0  0  0  0  0
    6.8490   -1.5750   -0.2160 C   0  0  0  0  0  0  0  0  0  0  0  0
    7.9480   -2.1320   -1.0260 C   0  0  0  0  0  0  0  0  0  0  0  0
    7.5550   -3.3080   -1.6610 O   0  0  0  0  0  0  0  0  0  0  0  0
    6.3180   -3.8740   -1.5520 C   0  0  0  0  0  0  0  0  0  0  0  0
    5.3450   -3.3640   -0.8250 C   0  0  0  0  0  0  0  0  0  0  0  0
    1.1990    0.0350    0.4630 N   0  0  0  0  0  0  0  0  0  0  0  0
    0.2410    0.6550    1.3580 C   0  0  1  0  0  0  0  0  0  0  0  0
    0.0670    2.0940    0.9350 C   0  0  0  0  0  0  0  0  0  0  0  0
   -0.4190    2.2370   -0.4160 N   0  0  0  0  0  0  0  0  0  0  0  0
   -0.2070    3.6310   -0.7880 C   0  0  1  0  0  0  0  0  0  0  0  0
   -1.1770    4.0600   -1.8700 C   0  0  0  0  0  0  0  0  0  0  0  0
   -1.1420    5.5710   -1.7630 C   0  0  0  0  0  0  0  0  0  0  0  0
   -0.6950    5.8980   -0.3620 C   0  0  0  0  0  0  0  0  0  0  0  0
   -0.5620    4.5590    0.3510 C   0  0  0  0  0  0  0  0  0  0  0  0
   -1.0350   -0.0660    1.4430 C   0  0  0  0  0  0  0  0  0  0  0  0
   -1.6710   -0.2990    2.6410 C   0  0  0  0  0  0  0  0  0  0  0  0
   -2.8510   -0.9720    2.6890 N   0  0  0  0  0  0  0  0  0  0  0  0
   -3.4060   -1.4170    1.5490 C   0  0  0  0  0  0  0  0  0  0  0  0
   -4.6170   -2.1080    1.5900 C   0  0  0  0  0  0  0  0  0  0  0  0
   -5.2250   -2.5830    0.4510 C   0  0  0  0  0  0  0  0  0  0  0  0
   -4.6300   -2.3770   -0.7750 C   0  0  0  0  0  0  0  0  0  0  0  0
   -3.4410   -1.6980   -0.8190 C   0  0  0  0  0  0  0  0  0  0  0  0
   -2.8200   -1.2170    0.3130 C   0  0  0  0  0  0  0  0  0  0  0  0
   -1.6240   -0.5330    0.2800 C   0  0  0  0  0  0  0  0  0  0  0  0
   -5.4810   -2.9790   -1.7950 C   0  0  0  0  0  0  0  0  0  0  0  0
   -6.7750   -3.0620   -1.1460 N   0  0  0  0  0  0  0  0  0  0  0  0
   -6.4880   -3.3310    0.2510 C   0  0  0  0  0  0  0  0  0  0  0  0
  1  2  2  0
  2  3  1  0
  2 12  1  0
  3  4  1  0
  4  5  1  6
  4  6  1  0
  6  7  2  0
  6 11  1  0
  7  8  1  0
  8  9  1  0
  9 10  1  0
 10 11  2  0
 12 13  1  0
 13 14  1  6
 13 21  1  0
 14 15  1  0
 16 15  1  1
 16 17  1  0
 16 20  1  0
 17 18  1  0
 18 19  1  0
 19 20  1  0
 21 22  2  0
 21 30  1  0
 22 23  1  0
 23 24  2  0
 24 25  1  0
 24 29  1  0
 25 26  2  0
 26 27  1  0
 26 33  1  0
 27 28  2  0
 27 31  1  0
 28 29  1  0
 29 30  2  0
 31 32  1  0
 32 33  1  0
M  CHG  2  15   1  32   1
M  END
