
     RDKit          3D

 33 37  0  0  0  0  0  0  0  0999 V2000
    5.1520   -3.1580    0.0560 O   0  0  0  0  0  0  0  0  0  0  0  0
    5.1560   -1.9320    0.3220 C   0  0  0  0  0  0  0  0  0  0  0  0
    3.9190   -1.2790    0.5340 N   0  0  0  0  0  0  0  0  0  0  0  0
    2.6860   -2.0760    0.4320 C   0  0  0  0  0  0  0  0  0  0  0  0
    1.4740   -1.2060    0.6870 C   0  0  0  0  0  0  0  0  0  0  0  0
    1.4380   -0.1730   -0.2860 N   0  0  1  0  0  0  0  0  0  0  0  0
    1.5830   -0.6520   -1.6480 C   0  0  0  0  0  0  0  0  0  0  0  0
    0.8480    0.1500   -2.6650 C   0  0  0  0  0  0  0  0  0  0  0  0
    0.7350    1.6160   -2.3760 C   0  0  0  0  0  0  0  0  0  0  0  0
    0.5490    1.9010   -0.9000 C   0  0  0  0  0  0  0  0  0  0  0  0
    0.1820    0.5870   -0.2760 C   0  0  2  0  0  0  0  0  0  0  0  0
   -0.4160    0.6800    1.0700 C   0  0  0  0  0  0  0  0  0  0  0  0
   -1.6450    1.3950    1.2160 N   0  0  0  0  0  0  0  0  0  0  0  0
   -2.4290    1.6420    0.0630 C   0  0  2  0  0  0  0  0  0  0  0  0
   -2.8460    3.1110    0.0740 C   0  0  0  0  0  0  0  0  0  0  0  0
   -3.6300    3.3890   -1.1720 C   0  0  0  0  0  0  0  0  0  0  0  0
   -4.9090    2.6840   -1.0190 N   0  0  0  0  0  0  0  0  0  0  0  0
   -4.8680    1.3920   -0.3840 C   0  0  0  0  0  0  0  0  0  0  0  0
   -6.0450    0.6680   -0.3080 C   0  0  0  0  0  0  0  0  0  0  0  0
   -6.0550   -0.5940    0.3000 C   0  0  0  0  0  0  0  0  0  0  0  0
   -4.8970   -1.1120    0.8200 C   0  0  0  0  0  0  0  0  0  0  0  0
   -3.7140   -0.3550    0.7290 C   0  0  0  0  0  0  0  0  0  0  0  0
   -3.7050    0.8760    0.1360 C   0  0  0  0  0  0  0  0  0  0  0  0
   -4.9360   -2.3620    1.4150 O   0  0  0  0  0  0  0  0  0  0  0  0
   -5.9740   -3.2690    1.1940 C   0  0  0  0  0  0  0  0  0  0  0  0
   -7.2840   -2.6590    0.8320 C   0  0  0  0  0  0  0  0  0  0  0  0
   -7.2070   -1.3310    0.3880 O   0  0  0  0  0  0  0  0  0  0  0  0
    6.4620   -1.2560    0.3940 C   0  0  0  0  0  0  0  0  0  0  0  0
    7.6220   -1.9750    0.1470 C   0  0  0  0  0  0  0  0  0  0  0  0
    8.8450   -1.3640    0.2100 C   0  0  0  0  0  0  0  0  0  0  0  0
    8.9700   -0.0330    0.5160 C   0  0  0  0  0  0  0  0  0  0  0  0
    7.8310    0.6930    0.7630 C   0  0  0  0  0  0  0  0  0  0  0  0
    6.5860    0.0800    0.7010 C   0  0  0  0  0  0  0  0  0  0  0  0
  1  2  2  0
  2  3  1  0
  2 28  1  0
  3  4  1  0
  4  5  1  0
  6  5  1  1
  6  7  1  0
  6 11  1  0
  7  8  1  0
  8  9  1  0
  9 10  1  0
 10 11  1  0
 11 12  1  1
 12 13  1  0
 14 13  1  1
 14 15  1  0
 14 23  1  0
 15 16  1  0
 16 17  1  0
 17 18  1  0
 18 19  2  0
 18 23  1  0
 19 20  1  0
 20 21  2  0
 20 27  1  0
 21 22  1  0
 21 24  1  0
 22 23  2  0
 24 25  1  0
 25 26  1  0
 26 27  1  0
 28 29  2  0
 28 33  1  0
 29 30  1  0
 30 31  2  0
 31 32  1  0
 32 33  2  0
M  CHG  2   6   1  13   1
M  END
