
     RDKit          3D

 33 37  0  0  0  0  0  0  0  0999 V2000
   -2.8870    3.9950   -2.5070 C   0  0  0  0  0  0  0  0  0  0  0  0
   -2.6370    2.7220   -2.2680 C   0  0  0  0  0  0  0  0  0  0  0  0
   -2.1170    1.7800   -3.2220 N   0  0  0  0  0  0  0  0  0  0  0  0
   -1.9280    0.5280   -2.5310 C   0  0  0  0  0  0  0  0  0  0  0  0
   -1.8030    0.9050   -1.0960 C   0  0  2  0  0  0  0  0  0  0  0  0
   -2.1040   -0.1730   -0.1120 C   0  0  0  0  0  0  0  0  0  0  0  0
   -1.1840   -1.3200   -0.2970 C   0  0  0  0  0  0  0  0  0  0  0  0
   -0.2860   -1.2810   -1.1610 O   0  0  0  0  0  0  0  0  0  0  0  0
   -1.3450   -2.4520    0.5240 N   0  0  0  0  0  0  0  0  0  0  0  0
   -2.4820   -2.6060    1.3930 C   0  0  0  0  0  0  0  0  0  0  0  0
   -2.7320   -4.0790    1.6800 C   0  0  0  0  0  0  0  0  0  0  0  0
   -2.2270   -4.9930    0.6090 C   0  0  0  0  0  0  0  0  0  0  0  0
   -0.7830   -4.8260    0.4900 N   0  0  0  0  0  0  0  0  0  0  0  0
    0.2600   -5.5990    0.3960 N   0  0  0  0  0  0  0  0  0  0  0  0
    1.4000   -4.8470    0.3210 C   0  0  0  0  0  0  0  0  0  0  0  0
    0.9750   -3.5370    0.3780 C   0  0  0  0  0  0  0  0  0  0  0  0
    1.8800   -2.3800    0.4180 C   0  0  0  0  0  0  0  0  0  0  0  0
    2.9480   -2.5280   -0.2740 O   0  0  0  0  0  0  0  0  0  0  0  0
    1.6600   -1.2030    1.1280 N   0  0  0  0  0  0  0  0  0  0  0  0
    2.5320   -0.0880    1.1520 C   0  0  0  0  0  0  0  0  0  0  0  0
    2.3040    0.9010    2.1330 C   0  0  0  0  0  0  0  0  0  0  0  0
    3.0980    2.0180    2.2060 C   0  0  0  0  0  0  0  0  0  0  0  0
    4.1440    2.2320    1.3410 C   0  0  0  0  0  0  0  0  0  0  0  0
    4.3880    1.2910    0.3810 C   0  0  0  0  0  0  0  0  0  0  0  0
    3.5770    0.1460    0.3030 C   0  0  0  0  0  0  0  0  0  0  0  0
    5.4370    1.4710   -0.5120 O   0  0  0  0  0  0  0  0  0  0  0  0
    6.4460    2.4280   -0.2300 C   0  0  0  0  0  0  0  0  0  0  0  0
    5.8500    3.6920    0.3330 C   0  0  0  0  0  0  0  0  0  0  0  0
    4.9650    3.3430    1.3830 O   0  0  0  0  0  0  0  0  0  0  0  0
   -0.3900   -3.5180    0.4820 C   0  0  0  0  0  0  0  0  0  0  0  0
   -2.8270    2.0080   -1.0130 C   0  0  0  0  0  0  0  0  0  0  0  0
   -3.6750    2.2460   -0.0510 C   0  0  0  0  0  0  0  0  0  0  0  0
   -4.6800    3.3250    0.0040 C   0  0  0  0  0  0  0  0  0  0  0  0
  1  2  2  0
  2  3  1  0
  2 31  1  0
  3  4  1  0
  4  5  1  0
  5  6  1  1
  5 31  1  0
  6  7  1  0
  7  8  2  0
  7  9  1  0
  9 10  1  0
  9 30  1  0
 10 11  1  0
 11 12  1  0
 12 13  1  0
 13 14  1  0
 13 30  1  0
 14 15  2  0
 15 16  1  0
 16 17  1  0
 16 30  2  0
 17 18  2  0
 17 19  1  0
 19 20  1  0
 20 21  2  0
 20 25  1  0
 21 22  1  0
 22 23  2  0
 23 24  1  0
 23 29  1  0
 24 25  2  0
 24 26  1  0
 26 27  1  0
 27 28  1  0
 28 29  1  0
 31 32  2  3
 32 33  1  0
M  END
