
     RDKit          3D

 20 21  0  0  0  0  0  0  0  0999 V2000
    6.8450   -0.2210    0.2320 C   0  0  0  0  0  0  0  0  0  0  0  0
    5.6780   -0.2470   -0.5670 O   0  0  0  0  0  0  0  0  0  0  0  0
    4.4410   -0.1770    0.0850 C   0  0  0  0  0  0  0  0  0  0  0  0
    4.1890   -0.0850    1.4030 N   0  0  0  0  0  0  0  0  0  0  0  0
    2.8650   -0.0410    1.6120 N   0  0  0  0  0  0  0  0  0  0  0  0
    2.2190   -0.1030    0.4530 C   0  0  0  0  0  0  0  0  0  0  0  0
    3.1890   -0.1890   -0.5250 C   0  0  0  0  0  0  0  0  0  0  0  0
    2.8720   -0.2710   -1.8800 O   0  0  0  0  0  0  0  0  0  0  0  0
    1.6040   -0.5580   -2.2020 O   0  0  0  0  0  0  0  0  0  0  0  0
    0.8070    0.3340   -1.4610 C   0  0  0  0  0  0  0  0  0  0  0  0
    0.7850   -0.1000    0.0050 C   0  0  2  0  0  0  0  0  0  0  0  0
    0.0910    0.9790    0.8020 C   0  0  0  0  0  0  0  0  0  0  0  0
   -1.2680    1.0690    0.4590 O   0  0  0  0  0  0  0  0  0  0  0  0
   -2.1030   -0.0160    0.6430 C   0  0  0  0  0  0  0  0  0  0  0  0
   -1.7500   -1.1160    1.1060 O   0  0  0  0  0  0  0  0  0  0  0  0
   -3.4830    0.1460    0.2690 N   0  0  0  0  0  0  0  0  0  0  0  0
   -4.3840   -0.9730    0.4490 C   0  0  0  0  0  0  0  0  0  0  0  0
   -5.7630   -0.5570   -0.0130 C   0  0  0  0  0  0  0  0  0  0  0  0
   -6.1920    0.5310    0.7460 O   0  0  0  0  0  0  0  0  0  0  0  0
   -7.3820    0.9400    0.3940 O   0  0  0  0  0  0  0  0  0  0  0  0
  1  2  1  0
  2  3  1  0
  3  4  1  0
  3  7  2  0
  4  5  1  0
  5  6  2  0
  6  7  1  0
  6 11  1  0
  7  8  1  0
  8  9  1  0
  9 10  1  0
 10 11  1  0
 11 12  1  1
 12 13  1  0
 13 14  1  0
 14 15  2  0
 14 16  1  0
 16 17  1  0
 17 18  1  0
 18 19  1  0
 19 20  1  0
M  END
