
     RDKit          3D

 20 21  0  0  0  0  0  0  0  0999 V2000
   -2.5610    3.3100    2.1810 N   0  0  0  0  0  0  0  0  0  0  0  0
   -2.0570    2.1670    1.5110 C   0  0  0  0  0  0  0  0  0  0  0  0
   -2.7820    1.6350    0.5900 N   0  0  0  0  0  0  0  0  0  0  0  0
   -2.3590    0.4900   -0.1340 C   0  0  0  0  0  0  0  0  0  0  0  0
   -3.1050   -0.0540   -1.0790 C   0  0  0  0  0  0  0  0  0  0  0  0
   -2.6130   -1.2350   -1.7900 C   0  0  0  0  0  0  0  0  0  0  0  0
   -3.0850   -2.0120   -2.7630 C   0  0  0  0  0  0  0  0  0  0  0  0
   -1.9150   -2.8570   -2.7520 C   0  0  0  0  0  0  0  0  0  0  0  0
   -1.5860   -3.8680   -3.4180 O   0  0  0  0  0  0  0  0  0  0  0  0
   -1.4710   -2.0350   -1.7570 O   0  0  0  0  0  0  0  0  0  0  0  0
   -1.1050   -0.0240    0.2180 O   0  0  0  0  0  0  0  0  0  0  0  0
   -0.3300    0.5550    1.2110 C   0  0  0  0  0  0  0  0  0  0  0  0
    0.9950    0.0300    1.5980 C   0  0  0  0  0  0  0  0  0  0  0  0
    1.9090    0.0370    0.5190 O   0  0  0  0  0  0  0  0  0  0  0  0
    3.2120   -0.4160    0.6690 C   0  0  0  0  0  0  0  0  0  0  0  0
    3.5460   -0.8340    1.8070 O   0  0  0  0  0  0  0  0  0  0  0  0
    4.1900   -0.4150   -0.4630 C   0  0  0  0  0  0  0  0  0  0  0  0
    3.6420    0.0760   -1.6210 O   0  0  0  0  0  0  0  0  0  0  0  0
    4.5710    0.0380   -2.5520 O   0  0  0  0  0  0  0  0  0  0  0  0
   -0.7930    1.5900    1.8140 N   0  0  0  0  0  0  0  0  0  0  0  0
  1  2  1  0
  2  3  2  0
  2 20  1  0
  3  4  1  0
  4  5  2  3
  4 11  1  0
  5  6  1  0
  6  7  2  0
  6 10  1  0
  7  8  1  0
  8  9  2  0
  8 10  1  0
 11 12  1  0
 12 13  1  0
 12 20  2  0
 13 14  1  0
 14 15  1  0
 15 16  2  0
 15 17  1  0
 17 18  1  0
 18 19  1  0
M  END
