
     RDKit          3D

 19 20  0  0  0  0  0  0  0  0999 V2000
   -2.1640   -2.9770   -0.1840 N   0  0  0  0  0  0  0  0  0  0  0  0
   -1.3730   -1.9570    0.4200 C   0  0  0  0  0  0  0  0  0  0  0  0
   -1.2990   -0.6900   -0.3950 C   0  0  2  0  0  0  0  0  0  0  0  0
   -2.6760   -0.0480   -0.5060 C   0  0  0  0  0  0  0  0  0  0  0  0
   -3.2410    0.1770    0.7250 O   0  0  0  0  0  0  0  0  0  0  0  0
   -4.7910    0.9020    0.4940 P   0  0  0  0  0  0  0  0  0  0  0  0
   -4.6340    2.4820   -0.2010 O   0  0  0  0  0  0  0  0  0  0  0  0
   -5.6130    0.9720    2.0310 O   0  0  0  0  0  0  0  0  0  0  0  0
   -0.7380   -0.9130   -1.6710 O   0  0  0  0  0  0  0  0  0  0  0  0
    0.5000   -0.3430   -1.6490 N   0  0  0  0  0  0  0  0  0  0  0  0
    0.7030    0.3050   -0.5660 C   0  0  0  0  0  0  0  0  0  0  0  0
    1.9230    1.0640   -0.1610 C   0  0  1  0  0  0  0  0  0  0  0  0
    2.4360    0.4460    1.1020 C   0  0  0  0  0  0  0  0  0  0  0  0
    3.6040   -0.4850    0.8560 C   0  0  0  0  0  0  0  0  0  0  0  0
    4.6650    0.3200    0.2770 N   0  0  0  0  0  0  0  0  0  0  0  0
    4.2860    1.1800   -0.8030 C   0  0  0  0  0  0  0  0  0  0  0  0
    5.0830    2.0160   -1.3030 O   0  0  0  0  0  0  0  0  0  0  0  0
    2.8910    1.0270   -1.3010 C   0  0  0  0  0  0  0  0  0  0  0  0
   -0.4170    0.2150    0.2400 O   0  0  0  0  0  0  0  0  0  0  0  0
  1  2  1  0
  3  2  1  1
  3  4  1  0
  3  9  1  0
  3 19  1  0
  4  5  1  0
  5  6  1  0
  6  7  1  0
  6  8  1  0
  9 10  1  0
 10 11  2  0
 12 11  1  6
 11 19  1  0
 12 13  1  0
 12 18  1  0
 13 14  1  0
 14 15  1  0
 15 16  1  0
 16 17  2  0
 16 18  1  0
M  END
