
     RDKit          3D

 27 29  0  0  0  0  0  0  0  0999 V2000
    6.3470   -2.0790   -1.0260 N   0  0  0  0  0  0  0  0  0  0  0  0
    5.2740   -1.8690   -0.1220 C   0  0  0  0  0  0  0  0  0  0  0  0
    5.2100   -2.4130    1.1040 N   0  0  0  0  0  0  0  0  0  0  0  0
    4.1560   -2.1740    1.9230 C   0  0  0  0  0  0  0  0  0  0  0  0
    3.1370   -1.3830    1.5390 N   0  0  0  0  0  0  0  0  0  0  0  0
    3.1540   -0.8150    0.3230 C   0  0  0  0  0  0  0  0  0  0  0  0
    4.2390   -1.0600   -0.5220 C   0  0  0  0  0  0  0  0  0  0  0  0
    3.9930   -0.3790   -1.6460 N   0  0  0  0  0  0  0  0  0  0  0  0
    2.8220    0.2540   -1.5080 C   0  0  0  0  0  0  0  0  0  0  0  0
    2.2850    0.0010   -0.3020 N   0  0  0  0  0  0  0  0  0  0  0  0
    1.0520    0.4850    0.2280 C   0  0  2  0  0  0  0  0  0  0  0  0
    0.1150   -0.5230    0.4140 O   0  0  0  0  0  0  0  0  0  0  0  0
   -1.0790    0.1800    0.6740 C   0  0  2  0  0  0  0  0  0  0  0  0
   -2.2010   -0.8190    0.3550 C   0  0  0  0  0  0  0  0  0  0  0  0
   -2.0220   -1.8820    1.1800 O   0  0  0  0  0  0  0  0  0  0  0  0
   -3.1830   -3.0630    0.9430 P   0  0  0  0  0  0  0  0  0  0  0  0
   -2.8880   -4.5560    1.4480 O   0  0  0  0  0  0  0  0  0  0  0  0
   -3.9480   -2.5550    2.1570 O   0  0  0  0  0  0  0  0  0  0  0  0
   -4.5080   -2.7600   -0.0390 O   0  0  0  0  0  0  0  0  0  0  0  0
   -1.0730    1.3300   -0.2950 C   0  0  1  0  0  0  0  0  0  0  0  0
   -1.2700    2.5080    0.3750 O   0  0  0  0  0  0  0  0  0  0  0  0
   -2.4010    3.4830    0.0660 P   0  0  0  0  0  0  0  0  0  0  0  0
   -3.6380    4.3510   -0.2100 O   0  0  0  0  0  0  0  0  0  0  0  0
   -1.9410    4.4080    1.3440 O   0  0  0  0  0  0  0  0  0  0  0  0
   -1.7910    3.8420   -1.4340 O   0  0  0  0  0  0  0  0  0  0  0  0
    0.3430    1.3380   -0.8320 C   0  0  1  0  0  0  0  0  0  0  0  0
    0.9210    2.5950   -0.7700 O   0  0  0  0  0  0  0  0  0  0  0  0
  1  2  1  0
  2  3  2  0
  2  7  1  0
  3  4  1  0
  4  5  2  0
  5  6  1  0
  6  7  2  0
  6 10  1  0
  7  8  1  0
  8  9  2  0
  9 10  1  0
 11 10  1  6
 11 12  1  0
 11 26  1  0
 12 13  1  0
 13 14  1  6
 13 20  1  0
 14 15  1  0
 15 16  1  0
 16 17  1  0
 16 18  1  0
 16 19  1  0
 20 21  1  1
 20 26  1  0
 21 22  1  0
 22 23  1  0
 22 24  1  0
 22 25  1  0
 26 27  1  1
M  END
