
     RDKit          3D

 20 20  0  0  0  0  0  0  0  0999 V2000
    6.3960    0.0180    0.2200 C   0  0  0  0  0  0  0  0  0  0  0  0
    5.0260   -0.2770    0.4230 O   0  0  0  0  0  0  0  0  0  0  0  0
    4.0470    0.4170   -0.2910 C   0  0  0  0  0  0  0  0  0  0  0  0
    4.3330    1.3150   -1.1280 O   0  0  0  0  0  0  0  0  0  0  0  0
    2.7190    0.1000   -0.0650 O   0  0  0  0  0  0  0  0  0  0  0  0
    1.6630    0.7190   -0.7120 C   0  0  0  0  0  0  0  0  0  0  0  0
    1.9600    1.6090   -1.5410 O   0  0  0  0  0  0  0  0  0  0  0  0
    0.2930    0.4150   -0.4990 N   0  0  0  0  0  0  0  0  0  0  0  0
   -0.7730    1.1180   -1.2170 C   0  0  0  0  0  0  0  0  0  0  0  0
   -2.0380    0.7650   -0.4160 C   0  0  1  0  0  0  0  0  0  0  0  0
   -3.5570    0.9740   -1.4300 P   0  0  0  0  0  0  0  0  0  0  0  0
   -3.1230    1.6760   -2.9580 O   0  0  0  0  0  0  0  0  0  0  0  0
   -4.5770    2.1480   -0.6190 O   0  0  0  0  0  0  0  0  0  0  0  0
   -1.7130   -0.6790   -0.1110 C   0  0  2  0  0  0  0  0  0  0  0  0
   -2.6360   -1.2680    0.9220 C   0  0  0  0  0  0  0  0  0  0  0  0
   -3.9920   -1.1970    0.4160 N   0  0  0  0  0  0  0  0  0  0  0  0
   -0.2960   -0.5540    0.3860 C   0  0  1  0  0  0  0  0  0  0  0  0
    0.4010   -1.8530    0.4280 C   0  0  0  0  0  0  0  0  0  0  0  0
    1.3890   -2.1370   -0.2490 O   0  0  0  0  0  0  0  0  0  0  0  0
   -0.1030   -2.8110    1.2940 O   0  0  0  0  0  0  0  0  0  0  0  0
  1  2  1  0
  2  3  1  0
  3  4  2  0
  3  5  1  0
  5  6  1  0
  6  7  2  0
  6  8  1  0
  8  9  1  0
  8 17  1  0
  9 10  1  0
 10 11  1  6
 10 14  1  0
 11 12  1  0
 11 13  1  0
 14 15  1  1
 14 17  1  0
 15 16  1  0
 17 18  1  6
 18 19  2  0
 18 20  1  0
M  END
