
     RDKit          3D

 20 21  0  0  0  0  0  0  0  0999 V2000
   -3.4740    1.9030   -2.4490 N   0  0  0  0  0  0  0  0  0  0  0  0
   -3.0480    1.1560   -1.4930 C   0  0  0  0  0  0  0  0  0  0  0  0
   -1.6330    1.1330   -1.2260 N   0  0  0  0  0  0  0  0  0  0  0  0
   -0.9910    0.5880   -0.2470 C   0  0  0  0  0  0  0  0  0  0  0  0
    0.4640    0.7320   -0.2390 C   0  0  0  0  0  0  0  0  0  0  0  0
    1.1400    1.3830   -1.1740 C   0  0  0  0  0  0  0  0  0  0  0  0
    2.5020    1.3550   -0.9070 O   0  0  0  0  0  0  0  0  0  0  0  0
    2.6530    0.8630    0.4300 C   0  0  2  0  0  0  0  0  0  0  0  0
    3.7740   -0.1460    0.3950 C   0  0  0  0  0  0  0  0  0  0  0  0
    4.9140    0.5260   -0.0470 O   0  0  0  0  0  0  0  0  0  0  0  0
    6.2950   -0.4830   -0.1470 P   0  0  0  0  0  0  0  0  0  0  0  0
    6.6480   -1.0960    1.4280 O   0  0  0  0  0  0  0  0  0  0  0  0
    6.1360   -1.7650   -1.2770 O   0  0  0  0  0  0  0  0  0  0  0  0
    1.3910    0.2660    0.6580 O   0  0  0  0  0  0  0  0  0  0  0  0
   -1.5860   -0.1160    0.7850 O   0  0  0  0  0  0  0  0  0  0  0  0
   -2.9300   -0.2890    1.1740 C   0  0  0  0  0  0  0  0  0  0  0  0
   -3.8410   -0.6370    0.0290 C   0  0  1  0  0  0  0  0  0  0  0  0
   -5.1500   -1.1750    0.5630 C   0  0  0  0  0  0  0  0  0  0  0  0
   -4.9180   -2.2540    1.4120 O   0  0  0  0  0  0  0  0  0  0  0  0
   -4.0490    0.4570   -0.8340 O   0  0  0  0  0  0  0  0  0  0  0  0
  1  2  2  0
  2  3  1  0
  2 20  1  0
  3  4  2  0
  4  5  1  0
  4 15  1  0
  5  6  2  0
  5 14  1  0
  6  7  1  0
  7  8  1  0
  8  9  1  6
  8 14  1  0
  9 10  1  0
 10 11  1  0
 11 12  1  0
 11 13  1  0
 15 16  1  0
 16 17  1  0
 17 18  1  1
 17 20  1  0
 18 19  1  0
M  END
