
     RDKit          3D

 20 21  0  0  0  0  0  0  0  0999 V2000
   -1.5180   -1.0530   -0.9330 N   0  0  0  0  0  0  0  0  0  0  0  0
   -2.2720   -0.1260   -0.1780 C   0  0  2  0  0  0  0  0  0  0  0  0
   -1.5100    0.9940    0.3710 C   0  0  0  0  0  0  0  0  0  0  0  0
   -0.2200    1.1050    0.5790 C   0  0  0  0  0  0  0  0  0  0  0  0
    0.8590    0.1710    0.3430 C   0  0  0  0  0  0  0  0  0  0  0  0
    0.7670   -0.9840   -0.1220 O   0  0  0  0  0  0  0  0  0  0  0  0
    2.1980    0.5730    0.6610 N   0  0  0  0  0  0  0  0  0  0  0  0
    3.3180   -0.3460    0.4350 C   0  0  0  0  0  0  0  0  0  0  0  0
    3.3390   -0.6380   -0.9130 O   0  0  0  0  0  0  0  0  0  0  0  0
    4.5810   -1.7020   -1.3850 P   0  0  0  0  0  0  0  0  0  0  0  0
    4.7600   -3.0710   -0.3520 O   0  0  0  0  0  0  0  0  0  0  0  0
    6.0620   -0.9420   -1.7650 O   0  0  0  0  0  0  0  0  0  0  0  0
    0.0120    2.4730    1.1540 C   0  0  0  0  0  0  0  0  0  0  0  0
   -1.2450    3.0600    1.3070 O   0  0  0  0  0  0  0  0  0  0  0  0
   -2.2150    2.2260    0.8220 C   0  0  0  0  0  0  0  0  0  0  0  0
   -3.4540    2.4530    0.7670 O   0  0  0  0  0  0  0  0  0  0  0  0
   -3.1970   -0.7590    0.8430 C   0  0  0  0  0  0  0  0  0  0  0  0
   -4.2920   -1.1930    0.0560 O   0  0  0  0  0  0  0  0  0  0  0  0
   -4.4330   -0.1470   -0.8130 C   0  0  0  0  0  0  0  0  0  0  0  0
   -3.2340    0.4050   -1.0740 O   0  0  0  0  0  0  0  0  0  0  0  0
  2  1  1  6
  2  3  1  0
  2 17  1  0
  2 20  1  0
  3  4  2  0
  3 15  1  0
  4  5  1  0
  4 13  1  0
  5  6  2  0
  5  7  1  0
  7  8  1  0
  8  9  1  0
  9 10  1  0
 10 11  1  0
 10 12  1  0
 13 14  1  0
 14 15  1  0
 15 16  2  0
 17 18  1  0
 18 19  1  0
 19 20  1  0
M  END
