
     RDKit          3D

 20 21  0  0  0  0  0  0  0  0999 V2000
    4.8650    2.5940    1.1270 O   0  0  0  0  0  0  0  0  0  0  0  0
    4.5940    1.3830    0.8810 C   0  0  0  0  0  0  0  0  0  0  0  0
    5.2260    0.2430    1.4590 N   0  0  0  0  0  0  0  0  0  0  0  0
    4.2640   -0.8390    1.2880 C   0  0  0  0  0  0  0  0  0  0  0  0
    3.6390   -0.4960   -0.0530 C   0  0  1  0  0  0  0  0  0  0  0  0
    2.2460   -1.0200   -0.0430 C   0  0  0  0  0  0  0  0  0  0  0  0
    1.9940   -2.2480   -0.0770 O   0  0  0  0  0  0  0  0  0  0  0  0
    1.1390   -0.1650    0.0040 O   0  0  0  0  0  0  0  0  0  0  0  0
   -0.1900   -0.6250    0.0140 C   0  0  1  0  0  0  0  0  0  0  0  0
   -0.9320   -0.2050    1.2260 C   0  0  0  0  0  0  0  0  0  0  0  0
   -0.5120    0.0510    2.3290 O   0  0  0  0  0  0  0  0  0  0  0  0
   -2.3570   -0.1520    0.8210 C   0  0  0  0  0  0  0  0  0  0  0  0
   -2.2680    0.3660   -0.5310 N   0  0  0  0  0  0  0  0  0  0  0  0
   -3.3040    1.1540   -1.1670 C   0  0  0  0  0  0  0  0  0  0  0  0
   -4.5090    0.0320   -2.0630 P   0  0  0  0  0  0  0  0  0  0  0  0
   -5.6510    1.0660   -2.8890 O   0  0  0  0  0  0  0  0  0  0  0  0
   -5.4020   -0.9290   -0.9430 O   0  0  0  0  0  0  0  0  0  0  0  0
   -1.0140   -0.0450   -1.0640 C   0  0  0  0  0  0  0  0  0  0  0  0
   -0.7160    0.0930   -2.2730 O   0  0  0  0  0  0  0  0  0  0  0  0
    3.6220    0.9180   -0.0080 O   0  0  0  0  0  0  0  0  0  0  0  0
  1  2  2  0
  2  3  1  0
  2 20  1  0
  3  4  1  0
  4  5  1  0
  5  6  1  1
  5 20  1  0
  6  7  2  0
  6  8  1  0
  9  8  1  1
  9 10  1  0
  9 18  1  0
 10 11  2  0
 10 12  1  0
 12 13  1  0
 13 14  1  0
 13 18  1  0
 14 15  1  0
 15 16  1  0
 15 17  1  0
 18 19  2  0
M  END
