
     RDKit          3D

 21 22  0  0  0  0  0  0  0  0999 V2000
   -3.6230   -4.0930   -0.7460 O   0  0  0  0  0  0  0  0  0  0  0  0
   -2.9340   -3.0740   -0.4340 C   0  0  0  0  0  0  0  0  0  0  0  0
   -2.0690   -3.1130    0.6410 C   0  0  0  0  0  0  0  0  0  0  0  0
   -1.3290   -1.9770    0.9530 C   0  0  0  0  0  0  0  0  0  0  0  0
   -1.4290   -0.8440    0.2410 N   0  0  0  0  0  0  0  0  0  0  0  0
   -0.6330    0.3010    0.6170 C   0  0  2  0  0  0  0  0  0  0  0  0
   -1.2340    1.4520    0.1420 O   0  0  0  0  0  0  0  0  0  0  0  0
   -0.1960    2.3740    0.0390 C   0  0  2  0  0  0  0  0  0  0  0  0
   -0.5960    3.6010   -0.7310 C   0  0  0  0  0  0  0  0  0  0  0  0
   -1.6550    4.1980   -0.0740 O   0  0  0  0  0  0  0  0  0  0  0  0
    0.8380    1.5490   -0.7300 C   0  0  1  0  0  0  0  0  0  0  0  0
    2.0380    2.1990   -0.6360 O   0  0  0  0  0  0  0  0  0  0  0  0
    0.7550    0.2360    0.0060 C   0  0  1  0  0  0  0  0  0  0  0  0
    1.6960    0.1990    0.9790 O   0  0  0  0  0  0  0  0  0  0  0  0
    2.6950   -1.1280    0.9200 P   0  0  0  0  0  0  0  0  0  0  0  0
    3.3780   -1.6820    2.2950 O   0  0  0  0  0  0  0  0  0  0  0  0
    3.8730   -0.2350    0.5630 O   0  0  0  0  0  0  0  0  0  0  0  0
    2.8670   -2.0430   -0.4520 O   0  0  0  0  0  0  0  0  0  0  0  0
   -2.2790   -0.8350   -0.8010 C   0  0  0  0  0  0  0  0  0  0  0  0
   -2.4110    0.1870   -1.4940 O   0  0  0  0  0  0  0  0  0  0  0  0
   -3.0100   -1.9270   -1.1250 N   0  0  0  0  0  0  0  0  0  0  0  0
  1  2  2  0
  2  3  1  0
  2 21  1  0
  3  4  2  0
  4  5  1  0
  6  5  1  6
  5 19  1  0
  6  7  1  0
  6 13  1  0
  7  8  1  0
  8  9  1  6
  8 11  1  0
  9 10  1  0
 11 12  1  1
 11 13  1  0
 13 14  1  1
 14 15  1  0
 15 16  1  0
 15 17  1  0
 15 18  1  0
 19 20  2  0
 19 21  1  0
M  END
