
     RDKit          3D

 25 26  0  0  0  0  0  0  0  0999 V2000
    6.5320    2.6960   -0.8820 C   0  0  0  0  0  0  0  0  0  0  0  0
    6.0730    1.3670   -1.0270 O   0  0  0  0  0  0  0  0  0  0  0  0
    4.8300    1.0200   -0.4600 C   0  0  0  0  0  0  0  0  0  0  0  0
    4.1430    1.8680    0.1590 O   0  0  0  0  0  0  0  0  0  0  0  0
    4.3240   -0.2610   -0.5650 O   0  0  0  0  0  0  0  0  0  0  0  0
    3.0930   -0.6710   -0.0270 C   0  0  0  0  0  0  0  0  0  0  0  0
    1.9370    0.1200   -0.6550 C   0  0  0  0  0  0  0  0  0  0  0  0
    0.6680   -0.3350   -0.0700 N   0  0  0  0  0  0  0  0  0  0  0  0
    0.1650    0.2670    1.1090 C   0  0  0  0  0  0  0  0  0  0  0  0
   -0.9100    0.8840    1.4270 C   0  0  0  0  0  0  0  0  0  0  0  0
   -2.1290    1.2700    0.7350 C   0  0  0  0  0  0  0  0  0  0  0  0
   -2.8530    2.2300    1.2880 O   0  0  0  0  0  0  0  0  0  0  0  0
   -2.7450    0.8020   -0.4870 C   0  0  0  0  0  0  0  0  0  0  0  0
   -2.9850    1.7590   -1.4160 C   0  0  0  0  0  0  0  0  0  0  0  0
   -2.6690    3.1870   -1.2680 C   0  0  0  0  0  0  0  0  0  0  0  0
   -3.8060    4.0020   -1.3570 O   0  0  0  0  0  0  0  0  0  0  0  0
   -3.1450   -0.5870   -0.7880 C   0  0  0  0  0  0  0  0  0  0  0  0
   -3.3190   -1.6020   -0.0330 C   0  0  0  0  0  0  0  0  0  0  0  0
   -3.2090   -1.8600    1.3960 C   0  0  0  0  0  0  0  0  0  0  0  0
   -2.0680   -2.7120    1.8290 C   0  0  0  0  0  0  0  0  0  0  0  0
   -0.8280   -2.4590    1.2250 N   0  0  0  0  0  0  0  0  0  0  0  0
    0.1210   -3.4140    0.7910 C   0  0  0  0  0  0  0  0  0  0  0  0
   -0.6860   -2.5210   -0.1630 C   0  0  2  0  0  0  0  0  0  0  0  0
    0.0710   -1.4050   -0.7780 C   0  0  0  0  0  0  0  0  0  0  0  0
    0.1760   -1.4340   -2.0260 O   0  0  0  0  0  0  0  0  0  0  0  0
  1  2  1  0
  2  3  1  0
  3  4  2  0
  3  5  1  0
  5  6  1  0
  6  7  1  0
  7  8  1  0
  8  9  1  0
  8 24  1  0
  9 10  2  0
 10 11  1  0
 11 12  2  0
 11 13  1  0
 13 14  2  3
 13 17  1  0
 14 15  1  0
 15 16  1  0
 17 18  2  0
 18 19  1  0
 19 20  1  0
 20 21  1  0
 21 22  1  0
 21 23  1  0
 23 22  1  1
 23 24  1  0
 24 25  2  0
M  END
