
     RDKit          3D

 25 26  0  0  0  0  0  0  0  0999 V2000
   -4.7990   -0.3600   -1.0690 C   0  0  0  0  0  0  0  0  0  0  0  0
   -3.5540   -0.9250   -0.4490 C   0  0  0  0  0  0  0  0  0  0  0  0
   -2.6850    0.1510    0.1290 C   0  0  1  0  0  0  0  0  0  0  0  0
   -3.4220    0.9530    1.1960 C   0  0  0  0  0  0  0  0  0  0  0  0
   -3.8960    0.1260    2.3490 C   0  0  0  0  0  0  0  0  0  0  0  0
   -4.5830    0.9420    3.2830 O   0  0  0  0  0  0  0  0  0  0  0  0
   -1.4250   -0.3470    0.7680 C   0  0  0  0  0  0  0  0  0  0  0  0
   -0.5690   -1.2230   -0.1120 C   0  0  0  0  0  0  0  0  0  0  0  0
    0.3140   -0.4100   -0.8340 N   0  0  0  0  0  0  0  0  0  0  0  0
    1.6920   -0.4700   -0.5250 C   0  0  0  0  0  0  0  0  0  0  0  0
    1.9500    0.1280    0.8430 C   0  0  0  0  0  0  0  0  0  0  0  0
    3.3090    0.0910    1.2120 O   0  0  0  0  0  0  0  0  0  0  0  0
    4.3470    0.7000    0.5410 C   0  0  0  0  0  0  0  0  0  0  0  0
    4.0650    1.3610   -0.5120 O   0  0  0  0  0  0  0  0  0  0  0  0
    5.7270    0.6250    0.9720 C   0  0  0  0  0  0  0  0  0  0  0  0
    6.2200   -0.0340    2.0730 C   0  0  0  0  0  0  0  0  0  0  0  0
    7.5880    0.1830    2.0640 C   0  0  0  0  0  0  0  0  0  0  0  0
    7.8960    0.9230    1.0270 O   0  0  0  0  0  0  0  0  0  0  0  0
    6.8020    1.2080    0.3460 C   0  0  0  0  0  0  0  0  0  0  0  0
   -0.1170    0.2880   -1.9660 C   0  0  1  0  0  0  0  0  0  0  0  0
   -0.4160   -0.5630   -3.1900 C   0  0  0  0  0  0  0  0  0  0  0  0
    0.7130   -1.2630   -3.6000 O   0  0  0  0  0  0  0  0  0  0  0  0
   -1.2060    1.2690   -1.7190 C   0  0  0  0  0  0  0  0  0  0  0  0
   -1.1460    2.4010   -2.2670 O   0  0  0  0  0  0  0  0  0  0  0  0
   -2.3590    1.1000   -0.9150 N   0  0  0  0  0  0  0  0  0  0  0  0
  1  2  1  0
  3  2  1  6
  3  4  1  0
  3  7  1  0
  3 25  1  0
  4  5  1  0
  5  6  1  0
  7  8  1  0
  8  9  1  0
  9 10  1  0
  9 20  1  0
 10 11  1  0
 11 12  1  0
 12 13  1  0
 13 14  2  0
 13 15  1  0
 15 16  1  0
 15 19  2  0
 16 17  2  0
 17 18  1  0
 18 19  1  0
 20 21  1  6
 20 23  1  0
 21 22  1  0
 23 24  2  0
 23 25  1  0
M  END
