
     RDKit          3D

 10 10  0  0  0  0  0  0  0  0999 V2000
   -3.2720    0.8840    0.0510 C   0  0  0  0  0  0  0  0  0  0  0  0
   -1.9300    0.2630    0.3850 C   0  0  1  0  0  0  0  0  0  0  0  0
   -2.1260   -1.1400    0.7710 N   0  0  0  0  0  0  0  0  0  0  0  0
   -1.1830    0.2460   -0.8410 O   0  0  0  0  0  0  0  0  0  0  0  0
    0.0910   -0.2880   -0.7610 C   0  0  0  0  0  0  0  0  0  0  0  0
    0.9690    0.2200    0.0730 C   0  0  0  0  0  0  0  0  0  0  0  0
    2.2800   -0.3130    0.1710 N   0  0  0  0  0  0  0  0  0  0  0  0
    3.5490   -0.3090   -0.4940 C   0  0  0  0  0  0  0  0  0  0  0  0
    4.1190    0.0360    1.2490 P   0  0  0  0  0  0  0  0  0  0  0  0
    2.8330   -1.1480    1.1070 O   0  0  0  0  0  0  0  0  0  0  0  0
  2  1  1  6
  2  3  1  0
  2  4  1  0
  4  5  1  0
  5  6  2  3
  6  7  1  0
  7  8  1  0
  7 10  1  0
  8  9  1  0
  9 10  1  0
M  END
