
     RDKit          3D

 10 10  0  0  0  0  0  0  0  0999 V2000
   -1.4260   -2.0690   -0.1080 O   0  0  0  0  0  0  0  0  0  0  0  0
   -1.8540   -0.7700   -0.2650 C   0  0  0  0  0  0  0  0  0  0  0  0
   -1.0750    0.0940    0.5820 N   0  0  0  0  0  0  0  0  0  0  0  0
   -1.6860    1.8090    0.4430 P   0  0  0  0  0  0  0  0  0  0  0  0
    0.2740    0.1280    0.1330 C   0  0  2  0  0  0  0  0  0  0  0  0
    0.4010    0.7430   -1.1320 O   0  0  0  0  0  0  0  0  0  0  0  0
    1.0390   -1.1520    0.1820 C   0  0  0  0  0  0  0  0  0  0  0  0
    2.4090   -0.6440   -0.0180 N   0  0  0  0  0  0  0  0  0  0  0  0
    2.3510    0.7240    0.4100 C   0  0  0  0  0  0  0  0  0  0  0  0
    1.0840    0.9260    0.9830 O   0  0  0  0  0  0  0  0  0  0  0  0
  1  2  1  0
  2  3  1  0
  3  4  1  0
  3  5  1  0
  5  6  1  6
  5  7  1  0
  5 10  1  0
  7  8  1  0
  8  9  1  0
  9 10  1  0
M  END
