
     RDKit          3D

 17 16  0  0  0  0  0  0  0  0999 V2000
   -2.5150   -0.0670   -0.6220 O   0  0  0  0  0  0  0  0  0  0  0  0
   -1.9920   -0.4620    0.4460 C   0  0  0  0  0  0  0  0  0  0  0  0
   -0.8910    0.2680    0.9660 N   0  0  0  0  0  0  0  0  0  0  0  0
   -0.3420    1.4450    0.3220 C   0  0  0  0  0  0  0  0  0  0  0  0
    0.1530    1.0990   -1.0510 C   0  0  1  0  0  0  0  0  0  0  0  0
    0.6960    2.2160   -1.7040 O   0  0  0  0  0  0  0  0  0  0  0  0
    1.2620    0.0720   -0.9070 C   0  0  0  0  0  0  0  0  0  0  0  0
    2.2970    0.6130   -0.1630 O   0  0  0  0  0  0  0  0  0  0  0  0
    3.3130   -0.3280   -0.0320 C   0  0  0  0  0  0  0  0  0  0  0  0
    4.4110    0.3140    0.7850 C   0  0  0  0  0  0  0  0  0  0  0  0
    5.4930   -0.5540    0.9800 O   0  0  0  0  0  0  0  0  0  0  0  0
   -2.5060   -1.6020    1.0880 O   0  0  0  0  0  0  0  0  0  0  0  0
   -3.5770   -2.2420    0.5060 O   0  0  0  0  0  0  0  0  0  0  0  0
   -4.8290   -1.6890    0.5990 C   0  0  0  0  0  0  0  0  0  0  0  0
   -4.9540   -0.6000    1.2250 O   0  0  0  0  0  0  0  0  0  0  0  0
   -5.9780   -2.2420    0.0550 O   0  0  0  0  0  0  0  0  0  0  0  0
   -7.1640   -1.6180    0.2030 O   0  0  0  0  0  0  0  0  0  0  0  0
  1  2  2  0
  2  3  1  0
  2 12  1  0
  3  4  1  0
  4  5  1  0
  5  6  1  1
  5  7  1  0
  7  8  1  0
  8  9  1  0
  9 10  1  0
 10 11  1  0
 12 13  1  0
 13 14  1  0
 14 15  2  0
 14 16  1  0
 16 17  1  0
M  END
