
     RDKit          3D

 21 22  0  0  0  0  0  0  0  0999 V2000
   -6.0930    0.0270   -0.0110 O   0  0  0  0  0  0  0  0  0  0  0  0
   -4.8450   -0.0570    0.2200 C   0  0  0  0  0  0  0  0  0  0  0  0
   -4.1470    0.9610    0.8300 C   0  0  0  0  0  0  0  0  0  0  0  0
   -2.8130    0.8150    1.0510 C   0  0  0  0  0  0  0  0  0  0  0  0
   -2.1450   -0.2910    0.6960 N   0  0  0  0  0  0  0  0  0  0  0  0
   -0.7380   -0.3740    0.9610 C   0  0  2  0  0  0  0  0  0  0  0  0
   -0.2130    0.8470    1.2970 O   0  0  0  0  0  0  0  0  0  0  0  0
    0.6820    1.2410    0.3370 C   0  0  2  0  0  0  0  0  0  0  0  0
    0.0030    1.9630   -0.8080 C   0  0  0  0  0  0  0  0  0  0  0  0
    0.8840    2.3660   -1.7810 O   0  0  0  0  0  0  0  0  0  0  0  0
    1.3110   -0.0640   -0.1120 C   0  0  1  0  0  0  0  0  0  0  0  0
    2.1410   -0.5060    0.8720 O   0  0  0  0  0  0  0  0  0  0  0  0
    3.6460   -0.7760    0.2240 P   0  0  0  0  0  0  0  0  0  0  0  0
    4.2290    0.3440    1.0850 O   0  0  0  0  0  0  0  0  0  0  0  0
    4.0850   -0.2030   -1.2250 O   0  0  0  0  0  0  0  0  0  0  0  0
    4.6400   -1.8730    1.0150 O   0  0  0  0  0  0  0  0  0  0  0  0
    0.0500   -0.9250   -0.1990 C   0  0  1  0  0  0  0  0  0  0  0  0
    0.3660   -2.2700   -0.0420 O   0  0  0  0  0  0  0  0  0  0  0  0
   -2.8330   -1.2790    0.1010 C   0  0  0  0  0  0  0  0  0  0  0  0
   -2.2700   -2.3510   -0.2610 O   0  0  0  0  0  0  0  0  0  0  0  0
   -4.1550   -1.1730   -0.1350 N   0  0  0  0  0  0  0  0  0  0  0  0
  1  2  2  0
  2  3  1  0
  2 21  1  0
  3  4  2  0
  4  5  1  0
  6  5  1  6
  5 19  1  0
  6  7  1  0
  6 17  1  0
  7  8  1  0
  8  9  1  6
  8 11  1  0
  9 10  1  0
 11 12  1  1
 11 17  1  0
 12 13  1  0
 13 14  1  0
 13 15  1  0
 13 16  1  0
 17 18  1  1
 19 20  2  0
 19 21  1  0
M  END
