
     RDKit          3D

 17 17  0  0  0  0  0  0  0  0999 V2000
    2.8490   -0.7010    0.4020 O   0  0  0  0  0  0  0  0  0  0  0  0
    2.9640    0.2490   -0.4070 C   0  0  0  0  0  0  0  0  0  0  0  0
    4.2100    0.6530   -0.9330 N   0  0  0  0  0  0  0  0  0  0  0  0
    5.4560    0.0600   -0.6170 C   0  0  0  0  0  0  0  0  0  0  0  0
    5.8040    0.2330    0.7020 O   0  0  0  0  0  0  0  0  0  0  0  0
    5.0260   -0.2520    1.5880 O   0  0  0  0  0  0  0  0  0  0  0  0
    1.7970    0.9140   -0.7840 O   0  0  0  0  0  0  0  0  0  0  0  0
    0.5760    0.4690   -0.2290 C   0  0  0  0  0  0  0  0  0  0  0  0
   -0.5220    1.3400   -0.7880 C   0  0  0  0  0  0  0  0  0  0  0  0
   -1.7710    1.0200   -0.3290 O   0  0  0  0  0  0  0  0  0  0  0  0
   -2.1930   -0.2680   -0.6140 C   0  0  0  0  0  0  0  0  0  0  0  0
   -3.5870   -0.4040   -0.0320 C   0  0  2  0  0  0  0  0  0  0  0  0
   -3.6090   -0.2020    1.3390 O   0  0  0  0  0  0  0  0  0  0  0  0
   -4.9600   -0.0150    1.6990 C   0  0  0  0  0  0  0  0  0  0  0  0
   -5.7300   -0.8960    0.9480 O   0  0  0  0  0  0  0  0  0  0  0  0
   -5.0600   -1.9690    0.5900 O   0  0  0  0  0  0  0  0  0  0  0  0
   -4.0970   -1.6880   -0.2630 O   0  0  0  0  0  0  0  0  0  0  0  0
  1  2  2  0
  2  3  1  0
  2  7  1  0
  3  4  1  0
  4  5  1  0
  5  6  1  0
  7  8  1  0
  8  9  1  0
  9 10  1  0
 10 11  1  0
 12 11  1  1
 12 13  1  0
 12 17  1  0
 13 14  1  0
 14 15  1  0
 15 16  1  0
 16 17  1  0
M  END
