
     RDKit          3D

 17 17  0  0  0  0  0  0  0  0999 V2000
    3.9160    1.7290   -0.6390 O   0  0  0  0  0  0  0  0  0  0  0  0
    3.7450    0.6230   -0.1060 C   0  0  0  0  0  0  0  0  0  0  0  0
    4.5750   -0.3140    0.7640 C   0  0  0  0  0  0  0  0  0  0  0  0
    5.5160    0.5950    1.5170 O   0  0  0  0  0  0  0  0  0  0  0  0
    6.2650    1.1920    0.6240 O   0  0  0  0  0  0  0  0  0  0  0  0
    2.4720    0.1080   -0.4570 O   0  0  0  0  0  0  0  0  0  0  0  0
    1.3000   -0.0070   -1.0010 N   0  0  0  0  0  0  0  0  0  0  0  0
   -0.0010    0.1280   -0.4330 C   0  0  0  0  0  0  0  0  0  0  0  0
   -0.0890    0.3890    0.9150 O   0  0  0  0  0  0  0  0  0  0  0  0
   -1.1040    0.0040   -0.9770 O   0  0  0  0  0  0  0  0  0  0  0  0
   -2.4270   -0.3460   -0.2550 C   0  0  1  0  0  0  0  0  0  0  0  0
   -3.6460   -0.2730   -1.0950 C   0  0  0  0  0  0  0  0  0  0  0  0
   -3.6570    1.0550   -1.2230 O   0  0  0  0  0  0  0  0  0  0  0  0
   -4.5910    1.7830   -0.7400 O   0  0  0  0  0  0  0  0  0  0  0  0
   -2.0380   -1.8400    0.3220 C   0  0  0  0  0  0  0  0  0  0  0  0
   -1.5690   -1.2100    1.4870 O   0  0  0  0  0  0  0  0  0  0  0  0
   -2.5250   -0.1960    1.1800 C   0  0  0  0  0  0  0  0  0  0  0  0
  1  2  2  0
  2  3  1  0
  2  6  1  0
  3  4  1  0
  4  5  1  0
  6  7  1  0
  7  8  1  0
  8  9  2  0
  8 10  1  0
 10 11  1  0
 11 12  1  6
 11 15  1  0
 11 17  1  0
 12 13  1  0
 13 14  1  0
 15 16  1  0
 16 17  1  0
M  END
