
     RDKit          3D

 18 17  0  0  0  0  0  0  0  0999 V2000
   -4.1910    2.0780    0.3820 O   0  0  0  0  0  0  0  0  0  0  0  0
   -5.1090    1.3650   -0.0590 C   0  0  0  0  0  0  0  0  0  0  0  0
   -4.9330   -0.0500   -0.0330 N   0  0  0  0  0  0  0  0  0  0  0  0
   -3.7980   -0.5940    0.4600 O   0  0  0  0  0  0  0  0  0  0  0  0
   -2.8130   -0.4590   -0.5080 C   0  0  0  0  0  0  0  0  0  0  0  0
   -1.5150   -1.0350   -0.0510 C   0  0  0  0  0  0  0  0  0  0  0  0
   -1.4640   -1.5350    1.0720 O   0  0  0  0  0  0  0  0  0  0  0  0
   -0.4530   -0.9980   -0.8520 O   0  0  0  0  0  0  0  0  0  0  0  0
    0.8420   -1.3600   -0.8420 C   0  0  0  0  0  0  0  0  0  0  0  0
    1.7730   -0.5970    0.0280 C   0  0  1  0  0  0  0  0  0  0  0  0
    1.4400   -0.6650    1.4680 C   0  0  0  0  0  0  0  0  0  0  0  0
    1.3870   -1.9780    1.9150 O   0  0  0  0  0  0  0  0  0  0  0  0
    3.0520   -1.1650   -0.2130 O   0  0  0  0  0  0  0  0  0  0  0  0
    3.8540   -0.2810   -0.7580 O   0  0  0  0  0  0  0  0  0  0  0  0
    3.8860    0.8660   -0.0700 O   0  0  0  0  0  0  0  0  0  0  0  0
    4.1720    2.0800   -0.6300 C   0  0  0  0  0  0  0  0  0  0  0  0
    4.4220    2.1570   -1.8550 O   0  0  0  0  0  0  0  0  0  0  0  0
    4.2060    3.2850    0.0890 O   0  0  0  0  0  0  0  0  0  0  0  0
  1  2  2  0
  2  3  1  0
  3  4  1  0
  4  5  1  0
  5  6  1  0
  6  7  2  0
  6  8  1  0
  8  9  1  0
 10  9  1  6
 10 11  1  0
 10 13  1  0
 11 12  1  0
 13 14  1  0
 14 15  1  0
 15 16  1  0
 16 17  2  0
 16 18  1  0
M  END
