
     RDKit          3D

 42 43  0  0  0  0  0  0  0  0999 V2000
   -1.4670   -4.7330   -0.4210 C   0  0  0  0  0  0  0  0  0  0  0  0
   -1.3010   -3.8780   -1.3920 C   0  0  0  0  0  0  0  0  0  0  0  0
   -0.7110   -4.3400   -2.6690 C   0  0  0  0  0  0  0  0  0  0  0  0
   -1.6820   -2.4780   -1.2540 C   0  0  0  0  0  0  0  0  0  0  0  0
   -1.4950   -1.6860   -2.2410 O   0  0  0  0  0  0  0  0  0  0  0  0
   -2.2560   -1.9200   -0.0820 N   0  0  0  0  0  0  0  0  0  0  0  0
   -2.6340   -0.5860    0.1270 C   0  0  0  0  0  0  0  0  0  0  0  0
   -3.8680   -0.1960    0.1880 C   0  0  0  0  0  0  0  0  0  0  0  0
   -5.0070   -1.0960    0.0420 C   0  0  0  0  0  0  0  0  0  0  0  0
   -6.2850   -0.6490    0.1230 C   0  0  0  0  0  0  0  0  0  0  0  0
   -7.2010   -1.7840   -0.0650 C   0  0  0  0  0  0  0  0  0  0  0  0
   -6.3230   -2.9370   -0.2710 C   0  0  0  0  0  0  0  0  0  0  0  0
   -5.0690   -2.5180   -0.2040 C   0  0  0  0  0  0  0  0  0  0  0  0
   -1.5640    0.4370    0.3870 C   0  0  1  0  0  0  0  0  0  0  0  0
   -0.3640    0.2960   -0.4340 C   0  0  0  0  0  0  0  0  0  0  0  0
   -0.0630    1.0920   -1.3560 O   0  0  0  0  0  0  0  0  0  0  0  0
    0.5520   -0.7990   -0.2010 N   0  0  0  0  0  0  0  0  0  0  0  0
    1.7530   -0.9840   -0.9760 C   0  0  0  0  0  0  0  0  0  0  0  0
    2.7140    0.1800   -0.8760 C   0  0  0  0  0  0  0  0  0  0  0  0
    3.1600    0.4130    0.5480 C   0  0  0  0  0  0  0  0  0  0  0  0
    3.8600   -0.7630    1.1560 C   0  0  0  0  0  0  0  0  0  0  0  0
    5.3860   -1.2680    0.2700 P   0  0  0  0  0  0  0  0  0  0  0  0
    6.6300   -0.0900    0.3000 O   0  0  0  0  0  0  0  0  0  0  0  0
    7.1460    0.0620    1.5870 C   0  0  0  0  0  0  0  0  0  0  0  0
    8.2460    1.0960    1.6330 C   0  0  0  0  0  0  0  0  0  0  0  0
    5.0020   -1.8170   -1.3070 O   0  0  0  0  0  0  0  0  0  0  0  0
    5.9970   -1.5330   -2.2380 C   0  0  0  0  0  0  0  0  0  0  0  0
    5.5320   -2.0670   -3.5800 C   0  0  0  0  0  0  0  0  0  0  0  0
   -2.2110    1.7630    0.1850 N   0  0  0  0  0  0  0  0  0  0  0  0
   -2.6490    2.0660   -1.1000 C   0  0  0  0  0  0  0  0  0  0  0  0
   -2.5120    1.1390   -2.0330 O   0  0  0  0  0  0  0  0  0  0  0  0
   -3.2600    3.2780   -1.6330 C   0  0  1  0  0  0  0  0  0  0  0  0
   -4.6430    2.9390   -2.2660 C   0  0  0  0  0  0  0  0  0  0  0  0
   -3.3670    4.3770   -0.8360 O   0  0  0  0  0  0  0  0  0  0  0  0
   -2.3200    2.5610    1.3200 C   0  0  0  0  0  0  0  0  0  0  0  0
   -2.8870    3.6660    1.3010 O   0  0  0  0  0  0  0  0  0  0  0  0
   -1.7720    2.1680    2.6680 C   0  0  1  0  0  0  0  0  0  0  0  0
   -0.2720    2.1000    2.6770 C   0  0  0  0  0  0  0  0  0  0  0  0
    0.2670    3.2300    3.5330 C   0  0  0  0  0  0  0  0  0  0  0  0
   -0.4260    4.3750    3.0980 O   0  0  0  0  0  0  0  0  0  0  0  0
   -1.7170    4.2950    3.6580 C   0  0  0  0  0  0  0  0  0  0  0  0
   -2.2100    3.0280    3.6420 O   0  0  0  0  0  0  0  0  0  0  0  0
  1  2  2  0
  2  3  1  0
  2  4  1  0
  4  5  2  0
  4  6  1  0
  6  7  1  0
  7  8  2  3
  7 14  1  0
  8  9  1  0
  9 10  2  0
  9 13  1  0
 10 11  1  0
 11 12  1  0
 12 13  2  0
 14 15  1  0
 14 29  1  6
 15 16  2  0
 15 17  1  0
 17 18  1  0
 18 19  1  0
 19 20  1  0
 20 21  1  0
 21 22  1  0
 22 23  1  0
 22 26  1  0
 23 24  1  0
 24 25  1  0
 26 27  1  0
 27 28  1  0
 29 30  1  0
 29 35  1  0
 30 31  2  0
 30 32  1  0
 32 33  1  1
 32 34  1  0
 35 36  2  0
 37 35  1  6
 37 38  1  0
 37 42  1  0
 38 39  1  0
 39 40  1  0
 40 41  1  0
 41 42  1  0
M  END
