
     RDKit          3D

 42 43  0  0  0  0  0  0  0  0999 V2000
    6.0560    1.9890    4.2480 C   0  0  0  0  0  0  0  0  0  0  0  0
    6.0720    1.7970    2.7340 C   0  0  0  0  0  0  0  0  0  0  0  0
    4.8670    2.2060    2.2120 O   0  0  0  0  0  0  0  0  0  0  0  0
    4.7190    2.0480    0.5190 P   0  0  0  0  0  0  0  0  0  0  0  0
    4.2660    0.3570   -0.0230 C   0  0  0  0  0  0  0  0  0  0  0  0
    3.6050    0.4230   -1.3830 C   0  0  0  0  0  0  0  0  0  0  0  0
    2.3860    1.2280   -1.4610 C   0  0  0  0  0  0  0  0  0  0  0  0
    1.2440    1.0300   -0.6890 N   0  0  0  0  0  0  0  0  0  0  0  0
    0.4020   -0.1670   -0.9340 C   0  0  1  0  0  0  0  0  0  0  0  0
    1.0680   -1.3310   -0.4040 C   0  0  0  0  0  0  0  0  0  0  0  0
    0.4590   -2.6540   -0.4720 C   0  0  0  0  0  0  0  0  0  0  0  0
    0.7010   -3.4990   -1.5340 C   0  0  0  0  0  0  0  0  0  0  0  0
    0.1350   -4.7580   -1.6150 C   0  0  0  0  0  0  0  0  0  0  0  0
    0.4280   -5.6450   -2.7850 C   0  0  0  0  0  0  0  0  0  0  0  0
   -0.5390   -5.4040   -3.7640 O   0  0  0  0  0  0  0  0  0  0  0  0
   -0.7030   -5.2090   -0.6180 C   0  0  0  0  0  0  0  0  0  0  0  0
   -0.9330   -4.3800    0.4090 N   0  0  0  0  0  0  0  0  0  0  0  0
   -0.3830   -3.1350    0.5080 C   0  0  0  0  0  0  0  0  0  0  0  0
   -0.6960   -2.3850    1.6080 O   0  0  0  0  0  0  0  0  0  0  0  0
   -1.5560   -2.9090    2.5940 C   0  0  0  0  0  0  0  0  0  0  0  0
   -0.9870    0.2330   -0.7900 C   0  0  1  0  0  0  0  0  0  0  0  0
   -2.1110   -0.6860   -1.0340 C   0  0  0  0  0  0  0  0  0  0  0  0
   -2.2630   -0.9300   -2.5240 C   0  0  0  0  0  0  0  0  0  0  0  0
   -1.7170   -1.9440   -3.0040 O   0  0  0  0  0  0  0  0  0  0  0  0
   -3.0030   -0.0220   -3.3180 N   0  0  0  0  0  0  0  0  0  0  0  0
   -4.2650    0.5750   -2.9260 C   0  0  0  0  0  0  0  0  0  0  0  0
   -4.0550    2.0270   -2.6670 C   0  0  0  0  0  0  0  0  0  0  0  0
   -3.8950    2.4140   -1.3710 O   0  0  0  0  0  0  0  0  0  0  0  0
   -4.9370    2.1490   -0.5290 C   0  0  0  0  0  0  0  0  0  0  0  0
   -4.9920    2.9200    0.7100 C   0  0  0  0  0  0  0  0  0  0  0  0
   -4.7710    2.5200    1.9530 C   0  0  0  0  0  0  0  0  0  0  0  0
   -4.4080    1.1890    2.4040 C   0  0  0  0  0  0  0  0  0  0  0  0
   -5.1370    0.5940    3.3120 C   0  0  0  0  0  0  0  0  0  0  0  0
   -6.3240    1.2120    3.9110 C   0  0  0  0  0  0  0  0  0  0  0  0
   -7.4330    0.4130    3.6450 O   0  0  0  0  0  0  0  0  0  0  0  0
   -3.1820    0.4560    1.8930 C   0  0  0  0  0  0  0  0  0  0  0  0
   -2.4900    1.1600    0.9630 O   0  0  0  0  0  0  0  0  0  0  0  0
   -1.2750    1.1660    0.3820 C   0  0  0  0  0  0  0  0  0  0  0  0
   -0.2750    1.8700    0.6740 O   0  0  0  0  0  0  0  0  0  0  0  0
    5.9530    2.7880   -0.3940 O   0  0  0  0  0  0  0  0  0  0  0  0
    7.0250    1.9710   -0.6620 C   0  0  0  0  0  0  0  0  0  0  0  0
    8.0920    2.6760   -1.4800 C   0  0  0  0  0  0  0  0  0  0  0  0
  1  2  1  0
  2  3  1  0
  3  4  1  0
  4  5  1  0
  4 40  1  0
  5  6  1  0
  6  7  1  0
  7  8  1  0
  8  9  1  0
  9 10  1  1
  9 21  1  0
 10 11  1  0
 11 12  2  0
 11 18  1  0
 12 13  1  0
 13 14  1  0
 13 16  2  0
 14 15  1  0
 16 17  1  0
 17 18  2  0
 18 19  1  0
 19 20  1  0
 21 22  1  1
 21 38  1  0
 22 23  1  0
 23 24  2  0
 23 25  1  0
 25 26  1  0
 26 27  1  0
 27 28  1  0
 28 29  1  0
 29 30  1  0
 30 31  2  0
 31 32  1  0
 32 33  2  3
 32 36  1  0
 33 34  1  0
 34 35  1  0
 36 37  1  0
 37 38  1  0
 38 39  2  0
 40 41  1  0
 41 42  1  0
M  END
