
     RDKit          3D

 41 43  0  0  0  0  0  0  0  0999 V2000
    9.9460    1.8360    2.5400 C   0  0  0  0  0  0  0  0  0  0  0  0
    9.0230    1.1590    1.5480 C   0  0  0  0  0  0  0  0  0  0  0  0
    9.6930    0.7370    0.4170 O   0  0  0  0  0  0  0  0  0  0  0  0
    8.5490   -0.0290   -0.6440 P   0  0  0  0  0  0  0  0  0  0  0  0
    7.8780   -1.5390    0.1580 C   0  0  0  0  0  0  0  0  0  0  0  0
    6.3650   -1.5240    0.3180 C   0  0  0  0  0  0  0  0  0  0  0  0
    5.6570   -1.4170   -0.9910 C   0  0  0  0  0  0  0  0  0  0  0  0
    4.2550   -1.4210   -0.9790 N   0  0  0  0  0  0  0  0  0  0  0  0
    3.5280   -0.3360   -0.4440 C   0  0  1  0  0  0  0  0  0  0  0  0
    2.1290   -0.2850   -1.0340 C   0  0  0  0  0  0  0  0  0  0  0  0
    1.7860   -0.4060   -2.2280 O   0  0  0  0  0  0  0  0  0  0  0  0
    1.2000   -0.0690    0.0120 N   0  0  0  0  0  0  0  0  0  0  0  0
   -0.2040   -0.2800    0.1730 C   0  0  0  0  0  0  0  0  0  0  0  0
   -0.9310   -0.9560   -0.7950 C   0  0  0  0  0  0  0  0  0  0  0  0
   -2.3020   -1.1740   -0.6260 C   0  0  0  0  0  0  0  0  0  0  0  0
   -2.9870   -0.7430    0.4770 C   0  0  0  0  0  0  0  0  0  0  0  0
   -4.4330   -0.9450    0.7290 C   0  0  0  0  0  0  0  0  0  0  0  0
   -5.2640    0.2220    0.2080 C   0  0  1  0  0  0  0  0  0  0  0  0
   -5.1570    0.3920   -1.2560 C   0  0  0  0  0  0  0  0  0  0  0  0
   -5.6310   -0.7620   -2.0420 C   0  0  0  0  0  0  0  0  0  0  0  0
   -7.0270   -1.0330   -1.9670 N   0  0  0  0  0  0  0  0  0  0  0  0
   -7.9480   -0.0680   -2.4760 C   0  0  0  0  0  0  0  0  0  0  0  0
   -7.5580    1.0200   -2.9860 O   0  0  0  0  0  0  0  0  0  0  0  0
   -9.3120   -0.3320   -2.4120 O   0  0  0  0  0  0  0  0  0  0  0  0
   -6.6130    0.1380    0.7220 C   0  0  0  0  0  0  0  0  0  0  0  0
   -7.0250   -0.8150    1.4650 O   0  0  0  0  0  0  0  0  0  0  0  0
   -7.5800    1.0940    0.4570 O   0  0  0  0  0  0  0  0  0  0  0  0
   -8.8790    1.0100    0.9970 C   0  0  2  0  0  0  0  0  0  0  0  0
   -9.6730    2.1860    0.4700 C   0  0  0  0  0  0  0  0  0  0  0  0
   -8.7380    1.2840    2.5060 C   0  0  0  0  0  0  0  0  0  0  0  0
   -9.6160   -0.2470    0.7620 C   0  0  0  0  0  0  0  0  0  0  0  0
   -2.2190   -0.0600    1.4380 C   0  0  0  0  0  0  0  0  0  0  0  0
   -0.8780    0.1590    1.2850 C   0  0  0  0  0  0  0  0  0  0  0  0
   -0.1320    0.8850    2.3340 C   0  0  0  0  0  0  0  0  0  0  0  0
    1.2530    0.2880    2.4300 C   0  0  0  0  0  0  0  0  0  0  0  0
    1.9680    0.4810    1.1120 C   0  0  1  0  0  0  0  0  0  0  0  0
    3.2020   -0.4230    1.0250 C   0  0  1  0  0  0  0  0  0  0  0  0
    2.8680   -1.7580    1.3010 O   0  0  0  0  0  0  0  0  0  0  0  0
    9.3070   -0.3920   -2.1610 O   0  0  0  0  0  0  0  0  0  0  0  0
    9.3400    0.7960   -2.9140 C   0  0  0  0  0  0  0  0  0  0  0  0
    9.9880    0.5790   -4.2500 C   0  0  0  0  0  0  0  0  0  0  0  0
  1  2  1  0
  2  3  1  0
  3  4  1  0
  4  5  1  0
  4 39  1  0
  5  6  1  0
  6  7  1  0
  7  8  1  0
  9  8  1  6
  9 10  1  0
  9 37  1  0
 10 11  2  0
 10 12  1  0
 12 13  1  0
 12 36  1  0
 13 14  2  0
 13 33  1  0
 14 15  1  0
 15 16  2  0
 16 17  1  0
 16 32  1  0
 18 17  1  6
 18 19  1  0
 18 25  1  0
 19 20  1  0
 20 21  1  0
 21 22  1  0
 22 23  2  0
 22 24  1  0
 25 26  2  0
 25 27  1  0
 27 28  1  0
 28 29  1  6
 28 30  1  0
 28 31  1  0
 32 33  2  0
 33 34  1  0
 34 35  1  0
 36 35  1  1
 36 37  1  0
 37 38  1  6
 39 40  1  0
 40 41  1  0
M  END
