
     RDKit          3D

 42 42  0  0  0  0  0  0  0  0999 V2000
  -10.1190   -0.7480   -0.6350 C   0  0  0  0  0  0  0  0  0  0  0  0
   -8.7070   -0.8390   -0.9780 C   0  0  0  0  0  0  0  0  0  0  0  0
   -7.7640   -0.1300   -0.2990 C   0  0  0  0  0  0  0  0  0  0  0  0
   -6.4050   -0.2550   -0.6740 C   0  0  0  0  0  0  0  0  0  0  0  0
   -5.2830    0.2950   -0.2780 C   0  0  0  0  0  0  0  0  0  0  0  0
   -4.1250   -0.1480   -0.9070 C   0  0  0  0  0  0  0  0  0  0  0  0
   -2.8550    0.0670   -0.3750 C   0  0  0  0  0  0  0  0  0  0  0  0
   -1.7470   -0.3940   -1.0510 O   0  0  0  0  0  0  0  0  0  0  0  0
   -1.1640   -2.0000   -0.7810 P   0  0  0  0  0  0  0  0  0  0  0  0
   -2.4240   -3.1600   -0.5120 O   0  0  0  0  0  0  0  0  0  0  0  0
   -2.2930   -3.7750    0.7340 C   0  0  0  0  0  0  0  0  0  0  0  0
   -3.3910   -4.7780    0.9180 C   0  0  0  0  0  0  0  0  0  0  0  0
    0.1160   -2.0640    0.5170 C   0  0  1  0  0  0  0  0  0  0  0  0
    0.8610   -3.2390    0.3220 O   0  0  0  0  0  0  0  0  0  0  0  0
    1.0550   -0.8490    0.3880 C   0  0  0  0  0  0  0  0  0  0  0  0
    1.6450   -0.7540   -0.8710 N   0  0  0  0  0  0  0  0  0  0  0  0
    2.7020    0.0920   -1.1710 C   0  0  0  0  0  0  0  0  0  0  0  0
    4.0850   -0.2950   -0.6760 C   0  0  2  0  0  0  0  0  0  0  0  0
    4.1170   -0.3930    0.8340 C   0  0  0  0  0  0  0  0  0  0  0  0
    5.0350    0.7950   -1.0160 C   0  0  0  0  0  0  0  0  0  0  0  0
    4.4710    1.9170   -1.4090 O   0  0  0  0  0  0  0  0  0  0  0  0
    6.4120    0.8300   -0.9830 N   0  0  0  0  0  0  0  0  0  0  0  0
    7.0200    2.1470   -1.3330 C   0  0  0  0  0  0  0  0  0  0  0  0
    7.1670    3.0160   -0.1230 C   0  0  1  0  0  0  0  0  0  0  0  0
    8.0320    2.4480    0.9670 C   0  0  0  0  0  0  0  0  0  0  0  0
    7.7920    4.2820   -0.5560 C   0  0  0  0  0  0  0  0  0  0  0  0
    7.2040    5.3710   -0.4180 O   0  0  0  0  0  0  0  0  0  0  0  0
    9.0480    4.2520   -1.1220 O   0  0  0  0  0  0  0  0  0  0  0  0
    7.3550   -0.1700   -0.7120 C   0  0  0  0  0  0  0  0  0  0  0  0
    8.6320    0.1340   -0.8020 O   0  0  0  0  0  0  0  0  0  0  0  0
    7.1620   -1.5120   -0.3400 N   0  0  0  0  0  0  0  0  0  0  0  0
    8.2780   -2.4090   -0.1150 C   0  0  0  0  0  0  0  0  0  0  0  0
    8.0480   -3.8160    0.2580 C   0  0  0  0  0  0  0  0  0  0  0  0
    9.4450   -1.9810   -0.2410 O   0  0  0  0  0  0  0  0  0  0  0  0
   -2.8300    0.7460    0.8110 C   0  0  0  0  0  0  0  0  0  0  0  0
   -3.9380    1.2070    1.4540 C   0  0  0  0  0  0  0  0  0  0  0  0
   -5.2790    0.9860    0.8740 C   0  0  0  0  0  0  0  0  0  0  0  0
   -6.0190    1.9750    1.2880 C   0  0  0  0  0  0  0  0  0  0  0  0
   -7.0500    2.7840    0.7840 C   0  0  0  0  0  0  0  0  0  0  0  0
   -7.5150    2.8790   -0.4240 C   0  0  0  0  0  0  0  0  0  0  0  0
   -8.5760    3.7710   -0.6880 O   0  0  0  0  0  0  0  0  0  0  0  0
   -9.8930    3.4530   -0.3310 C   0  0  0  0  0  0  0  0  0  0  0  0
  1  2  1  0
  2  3  2  3
  3  4  1  0
  4  5  2  3
  5  6  1  0
  5 37  1  0
  6  7  2  0
  7  8  1  0
  7 35  1  0
  8  9  1  0
  9 10  1  0
  9 13  1  0
 10 11  1  0
 11 12  1  0
 13 14  1  6
 13 15  1  0
 15 16  1  0
 16 17  1  0
 17 18  1  0
 18 19  1  1
 18 20  1  0
 20 21  2  0
 20 22  1  0
 22 23  1  0
 22 29  1  0
 23 24  1  0
 24 25  1  1
 24 26  1  0
 26 27  2  0
 26 28  1  0
 29 30  2  0
 29 31  1  0
 31 32  1  0
 32 33  1  0
 32 34  2  0
 35 36  2  0
 36 37  1  0
 37 38  2  3
 38 39  1  0
 39 40  2  3
 40 41  1  0
 41 42  1  0
M  END
