
     RDKit          3D

 41 43  0  0  0  0  0  0  0  0999 V2000
    1.9320   -3.9630    2.1550 N   0  0  0  0  0  0  0  0  0  0  0  0
    0.6740   -3.6930    1.6320 C   0  0  0  0  0  0  0  0  0  0  0  0
   -0.0620   -4.5940    1.2230 O   0  0  0  0  0  0  0  0  0  0  0  0
    0.1230   -2.2410    1.5330 C   0  0  1  0  0  0  0  0  0  0  0  0
    1.2880   -1.4590    1.1570 C   0  0  0  0  0  0  0  0  0  0  0  0
    1.3870   -0.1600    0.8330 O   0  0  0  0  0  0  0  0  0  0  0  0
    2.6360    0.3990    0.6520 C   0  0  1  0  0  0  0  0  0  0  0  0
    3.5300   -0.6710    0.2360 N   0  0  0  0  0  0  0  0  0  0  0  0
    4.5790   -1.0740    1.0850 C   0  0  0  0  0  0  0  0  0  0  0  0
    4.7660   -0.5300    2.2030 O   0  0  0  0  0  0  0  0  0  0  0  0
    5.4680   -2.0970    0.7370 O   0  0  0  0  0  0  0  0  0  0  0  0
    2.7500    1.6000   -0.1480 C   0  0  0  0  0  0  0  0  0  0  0  0
    3.5260    2.5530    0.1380 N   0  0  0  0  0  0  0  0  0  0  0  0
    3.6960    3.7410   -0.5750 C   0  0  0  0  0  0  0  0  0  0  0  0
    4.2340    3.7710   -1.7720 C   0  0  0  0  0  0  0  0  0  0  0  0
    4.4210    4.9230   -2.5110 O   0  0  0  0  0  0  0  0  0  0  0  0
    3.2860    4.9390   -0.0100 O   0  0  0  0  0  0  0  0  0  0  0  0
    3.2350    5.1220    1.3240 O   0  0  0  0  0  0  0  0  0  0  0  0
    1.9630    1.7950   -1.3580 O   0  0  0  0  0  0  0  0  0  0  0  0
    0.7900    0.9360   -1.3100 C   0  0  0  0  0  0  0  0  0  0  0  0
    0.9180   -0.3200   -1.7460 C   0  0  0  0  0  0  0  0  0  0  0  0
   -0.2240   -1.1750   -1.5410 C   0  0  0  0  0  0  0  0  0  0  0  0
   -1.2600   -0.6350   -0.9560 C   0  0  0  0  0  0  0  0  0  0  0  0
   -1.4060    0.6690   -0.5580 C   0  0  0  0  0  0  0  0  0  0  0  0
   -0.3120    1.4950   -0.7430 C   0  0  0  0  0  0  0  0  0  0  0  0
   -2.7510    1.1280   -0.2360 N   0  0  0  0  0  0  0  0  0  0  0  0
   -2.8840    2.2590    0.6170 C   0  0  0  0  0  0  0  0  0  0  0  0
   -1.9500    2.8460    1.1880 O   0  0  0  0  0  0  0  0  0  0  0  0
   -4.2780    2.7800    0.8380 C   0  0  0  0  0  0  0  0  0  0  0  0
   -4.2690    3.8590    1.7260 O   0  0  0  0  0  0  0  0  0  0  0  0
   -3.9310    0.4730   -0.7660 C   0  0  0  0  0  0  0  0  0  0  0  0
   -3.9220   -0.5160   -1.8490 C   0  0  0  0  0  0  0  0  0  0  0  0
   -4.1960   -1.8700   -1.4090 N   0  0  0  0  0  0  0  0  0  0  0  0
   -3.4700   -3.0810   -1.3870 C   0  0  0  0  0  0  0  0  0  0  0  0
   -4.2130   -4.0110   -2.0150 O   0  0  0  0  0  0  0  0  0  0  0  0
   -2.2440   -3.6110   -0.9230 C   0  0  0  0  0  0  0  0  0  0  0  0
   -1.2870   -3.4280   -0.0830 N   0  0  0  0  0  0  0  0  0  0  0  0
   -1.1050   -2.3770    0.8890 N   0  0  0  0  0  0  0  0  0  0  0  0
   -2.3560   -1.6450    0.9260 C   0  0  0  0  0  0  0  0  0  0  0  0
   -3.1880   -1.3740    1.7920 O   0  0  0  0  0  0  0  0  0  0  0  0
   -2.4720   -1.2250   -0.4760 O   0  0  0  0  0  0  0  0  0  0  0  0
  1  2  1  0
  2  3  2  0
  4  2  1  6
  4  5  1  0
  4 38  1  0
  5  6  1  0
  6  7  1  0
  7  8  1  6
  7 12  1  0
  8  9  1  0
  9 10  2  0
  9 11  1  0
 12 13  2  3
 12 19  1  0
 13 14  1  0
 14 15  2  3
 14 17  1  0
 15 16  1  0
 17 18  1  0
 19 20  1  0
 20 21  2  0
 20 25  1  0
 21 22  1  0
 22 23  2  0
 23 24  1  0
 23 41  1  0
 24 25  2  0
 24 26  1  0
 26 27  1  0
 26 31  1  0
 27 28  2  0
 27 29  1  0
 29 30  1  0
 31 32  1  0
 32 33  1  0
 33 34  1  0
 34 35  2  0
 34 36  1  0
 36 37  2  0
 37 38  1  0
 38 39  1  0
 39 40  2  0
 39 41  1  0
M  END
