
     RDKit          3D

 35 36  0  0  0  0  0  0  0  0999 V2000
    0.6760   -0.7480   -1.3260 C   0  0  0  0  0  0  0  0  0  0  0  0
    0.6980    0.1590   -0.1890 C   0  0  0  0  0  0  0  0  0  0  0  0
   -0.4260    0.2350    0.5850 C   0  0  0  0  0  0  0  0  0  0  0  0
   -1.5220   -0.6000    0.2430 C   0  0  0  0  0  0  0  0  0  0  0  0
   -2.7810   -0.3680   -0.3750 C   0  0  0  0  0  0  0  0  0  0  0  0
   -3.8080    0.5390    0.1470 C   0  0  0  0  0  0  0  0  0  0  0  0
   -4.0670    0.4360    1.6120 C   0  0  0  0  0  0  0  0  0  0  0  0
   -4.3510    1.4880   -0.5720 C   0  0  0  0  0  0  0  0  0  0  0  0
   -5.4330    2.3490    0.0260 C   0  0  0  0  0  0  0  0  0  0  0  0
   -6.4930    2.0710   -0.9030 O   0  0  0  0  0  0  0  0  0  0  0  0
   -7.2110    0.6170   -0.5470 P   0  0  0  0  0  0  0  0  0  0  0  0
   -8.5110    1.2510   -0.2140 O   0  0  0  0  0  0  0  0  0  0  0  0
   -7.9460   -0.1450   -1.9080 O   0  0  0  0  0  0  0  0  0  0  0  0
   -6.8610   -0.2250    0.7310 O   0  0  0  0  0  0  0  0  0  0  0  0
   -7.9780   -1.3140    1.2430 P   0  0  0  0  0  0  0  0  0  0  0  0
   -9.4830   -1.1900    0.6470 O   0  0  0  0  0  0  0  0  0  0  0  0
   -8.0850   -0.4130    2.5080 O   0  0  0  0  0  0  0  0  0  0  0  0
   -7.3790   -2.2700    0.1690 O   0  0  0  0  0  0  0  0  0  0  0  0
    1.8680    0.8810    0.2720 C   0  0  0  0  0  0  0  0  0  0  0  0
    2.5530    1.8350   -0.3650 O   0  0  0  0  0  0  0  0  0  0  0  0
    3.2700    1.4240   -1.5060 C   0  0  0  0  0  0  0  0  0  0  0  0
    4.0860    0.2220   -1.1690 C   0  0  0  0  0  0  0  0  0  0  0  0
    3.8640   -0.9350   -1.8720 C   0  0  0  0  0  0  0  0  0  0  0  0
    4.5030   -2.0890   -1.5050 C   0  0  0  0  0  0  0  0  0  0  0  0
    5.3720   -2.0750   -0.4300 C   0  0  0  0  0  0  0  0  0  0  0  0
    5.6180   -0.9220    0.2790 C   0  0  0  0  0  0  0  0  0  0  0  0
    6.6160   -0.9300    1.3460 C   0  0  0  0  0  0  0  0  0  0  0  0
    6.4110   -1.4930    2.4160 O   0  0  0  0  0  0  0  0  0  0  0  0
    7.8580   -0.2370    1.0010 C   0  0  0  0  0  0  0  0  0  0  0  0
    8.1160    0.0730   -0.3500 C   0  0  0  0  0  0  0  0  0  0  0  0
    9.2550    0.6850   -0.7720 C   0  0  0  0  0  0  0  0  0  0  0  0
   10.1960    1.0170    0.1640 C   0  0  0  0  0  0  0  0  0  0  0  0
   10.0150    0.7500    1.4920 C   0  0  0  0  0  0  0  0  0  0  0  0
    8.8380    0.1240    1.8880 C   0  0  0  0  0  0  0  0  0  0  0  0
    4.9600    0.2180   -0.1090 C   0  0  0  0  0  0  0  0  0  0  0  0
  1  2  1  0
  2  3  2  3
  2 19  1  0
  3  4  1  0
  4  5  1  0
  5  6  1  0
  6  7  1  0
  6  8  2  3
  8  9  1  0
  9 10  1  0
 10 11  1  0
 11 12  1  0
 11 13  1  0
 11 14  1  0
 14 15  1  0
 15 16  1  0
 15 17  1  0
 15 18  1  0
 19 20  1  0
 20 21  1  0
 21 22  1  0
 22 23  2  0
 22 35  1  0
 23 24  1  0
 24 25  2  0
 25 26  1  0
 26 27  1  0
 26 35  2  0
 27 28  2  0
 27 29  1  0
 29 30  2  0
 29 34  1  0
 30 31  1  0
 31 32  2  0
 32 33  1  0
 33 34  2  0
M  END
