
     RDKit          3D

 41 42  0  0  0  0  0  0  0  0999 V2000
    3.6970   -5.4910    1.6380 C   0  0  0  0  0  0  0  0  0  0  0  0
    4.1740   -4.0550    1.6030 C   0  0  0  0  0  0  0  0  0  0  0  0
    3.5930   -3.4100    0.5040 O   0  0  0  0  0  0  0  0  0  0  0  0
    4.1560   -1.7900    0.4980 P   0  0  0  0  0  0  0  0  0  0  0  0
    5.8420   -1.7360    0.8400 O   0  0  0  0  0  0  0  0  0  0  0  0
    3.7810   -0.8970   -1.0840 C   0  0  0  0  0  0  0  0  0  0  0  0
    3.1220    0.4030   -0.7760 N   0  0  0  0  0  0  0  0  0  0  0  0
    4.0490    1.4840   -0.5700 C   0  0  0  0  0  0  0  0  0  0  0  0
    1.7330    0.3900   -0.7020 C   0  0  0  0  0  0  0  0  0  0  0  0
    1.2140   -0.8040   -0.8700 O   0  0  0  0  0  0  0  0  0  0  0  0
    0.7210    1.4100   -0.4830 C   0  0  2  0  0  0  0  0  0  0  0  0
    0.4060    2.1810   -1.7490 C   0  0  0  0  0  0  0  0  0  0  0  0
    1.5400    2.8810   -2.2470 N   0  0  0  0  0  0  0  0  0  0  0  0
    1.8560    4.2470   -2.0360 C   0  0  0  0  0  0  0  0  0  0  0  0
    0.9860    5.1290   -1.4430 C   0  0  0  0  0  0  0  0  0  0  0  0
    1.3230    6.4590   -1.2570 C   0  0  0  0  0  0  0  0  0  0  0  0
    2.5350    6.9450   -1.6570 C   0  0  0  0  0  0  0  0  0  0  0  0
    3.4320    6.0860   -2.2560 C   0  0  0  0  0  0  0  0  0  0  0  0
    3.0720    4.7680   -2.4280 C   0  0  0  0  0  0  0  0  0  0  0  0
    1.2970    2.5110    0.4490 C   0  0  0  0  0  0  0  0  0  0  0  0
    1.5840    1.8850    1.7740 C   0  0  0  0  0  0  0  0  0  0  0  0
    2.2700    2.4780    2.5990 O   0  0  0  0  0  0  0  0  0  0  0  0
    1.0480    0.6140    2.0370 N   0  0  0  0  0  0  0  0  0  0  0  0
    1.7540   -0.3780    2.8480 C   0  0  0  0  0  0  0  0  0  0  0  0
    1.3320   -0.1560    4.1790 O   0  0  0  0  0  0  0  0  0  0  0  0
   -0.2340    0.2890    1.5070 C   0  0  0  0  0  0  0  0  0  0  0  0
   -0.5270    0.9540    0.2100 C   0  0  2  0  0  0  0  0  0  0  0  0
   -1.4380    0.0290   -0.5580 C   0  0  2  0  0  0  0  0  0  0  0  0
   -1.9190    0.4530   -1.7270 O   0  0  0  0  0  0  0  0  0  0  0  0
   -2.0150   -0.2590   -2.8500 C   0  0  0  0  0  0  0  0  0  0  0  0
   -2.8400   -1.4710   -2.9710 C   0  0  2  0  0  0  0  0  0  0  0  0
   -2.4030   -2.5780   -2.0630 C   0  0  0  0  0  0  0  0  0  0  0  0
   -2.7420   -2.0100   -4.4140 C   0  0  0  0  0  0  0  0  0  0  0  0
   -2.6700   -0.0830    0.3710 C   0  0  0  0  0  0  0  0  0  0  0  0
   -3.7430    0.3750   -0.0840 O   0  0  0  0  0  0  0  0  0  0  0  0
   -2.6690   -0.6240    1.5900 O   0  0  0  0  0  0  0  0  0  0  0  0
   -3.6200   -0.8320    2.5520 C   0  0  0  0  0  0  0  0  0  0  0  0
   -4.7670   -1.7240    2.2740 C   0  0  1  0  0  0  0  0  0  0  0  0
   -4.3550   -3.1380    1.9150 C   0  0  0  0  0  0  0  0  0  0  0  0
   -5.5130   -1.8800    3.6350 C   0  0  0  0  0  0  0  0  0  0  0  0
   -5.7810   -1.1500    1.3510 C   0  0  0  0  0  0  0  0  0  0  0  0
  1  2  1  0
  2  3  1  0
  3  4  1  0
  4  5  1  0
  4  6  1  0
  6  7  1  0
  7  8  1  0
  7  9  1  0
  9 10  2  0
  9 11  1  0
 11 12  1  6
 11 20  1  0
 11 27  1  0
 12 13  1  0
 13 14  1  0
 14 15  2  0
 14 19  1  0
 15 16  1  0
 16 17  2  0
 17 18  1  0
 18 19  2  0
 20 21  1  0
 21 22  2  0
 21 23  1  0
 23 24  1  0
 23 26  1  0
 24 25  1  0
 27 26  1  1
 27 28  1  0
 28 29  1  6
 28 34  1  0
 29 30  1  0
 30 31  1  0
 31 32  1  1
 31 33  1  0
 34 35  2  0
 34 36  1  0
 36 37  1  0
 37 38  1  0
 38 39  1  6
 38 40  1  0
 38 41  1  0
M  END
