
     RDKit          3D

 25 28  0  0  0  0  0  0  0  0999 V2000
    8.2520   -0.6550   -0.4560 N   0  0  0  0  0  0  0  0  0  0  0  0
    7.2150    0.2040   -0.9430 C   0  0  0  0  0  0  0  0  0  0  0  0
    7.5540    1.2030   -1.6610 N   0  0  0  0  0  0  0  0  0  0  0  0
    5.8100   -0.0740   -0.6130 C   0  0  0  0  0  0  0  0  0  0  0  0
    5.4930   -1.1750    0.1740 C   0  0  0  0  0  0  0  0  0  0  0  0
    4.1870   -1.4790    0.5110 C   0  0  0  0  0  0  0  0  0  0  0  0
    3.1560   -0.6780    0.0640 C   0  0  0  0  0  0  0  0  0  0  0  0
    1.8070   -0.7130    0.2220 N   0  0  0  0  0  0  0  0  0  0  0  0
    1.2170    0.2960   -0.4110 C   0  0  0  0  0  0  0  0  0  0  0  0
   -0.1920    0.6390   -0.5070 C   0  0  0  0  0  0  0  0  0  0  0  0
   -0.5910    1.7640   -1.2390 C   0  0  0  0  0  0  0  0  0  0  0  0
   -1.9090    2.1330   -1.3610 C   0  0  0  0  0  0  0  0  0  0  0  0
   -2.9130    1.4060   -0.7630 C   0  0  0  0  0  0  0  0  0  0  0  0
   -2.5530    0.2980   -0.0390 C   0  0  0  0  0  0  0  0  0  0  0  0
   -3.4730   -0.4860    0.5900 O   0  0  0  0  0  0  0  0  0  0  0  0
   -4.8480   -0.3720    0.6480 C   0  0  2  0  0  0  0  0  0  0  0  0
   -5.3550   -0.2260    2.0880 C   0  0  0  0  0  0  0  0  0  0  0  0
   -6.7780   -0.7230    2.0730 C   0  0  0  0  0  0  0  0  0  0  0  0
   -6.9890   -1.4120    0.7480 C   0  0  0  0  0  0  0  0  0  0  0  0
   -5.5830   -1.6230    0.2230 C   0  0  0  0  0  0  0  0  0  0  0  0
   -1.2060   -0.0780    0.0860 C   0  0  0  0  0  0  0  0  0  0  0  0
   -0.8820   -1.2050    0.8270 O   0  0  0  0  0  0  0  0  0  0  0  0
    2.2440    1.0050   -1.0000 C   0  0  0  0  0  0  0  0  0  0  0  0
    3.4480    0.4020   -0.7050 C   0  0  0  0  0  0  0  0  0  0  0  0
    4.7740    0.7100   -1.0480 C   0  0  0  0  0  0  0  0  0  0  0  0
  1  2  1  0
  2  3  2  0
  2  4  1  0
  4  5  2  0
  4 25  1  0
  5  6  1  0
  6  7  2  0
  7  8  1  0
  7 24  1  0
  8  9  1  0
  9 10  1  0
  9 23  2  0
 10 11  2  0
 10 21  1  0
 11 12  1  0
 12 13  2  0
 13 14  1  0
 14 15  1  0
 14 21  2  0
 16 15  1  1
 16 17  1  0
 16 20  1  0
 17 18  1  0
 18 19  1  0
 19 20  1  0
 21 22  1  0
 23 24  1  0
 24 25  2  0
M  CHG  1   3   1
M  END
