
     RDKit          3D

 25 27  0  0  0  0  0  0  0  0999 V2000
   -4.6910    0.9500   -2.1060 N   0  0  0  0  0  0  0  0  0  0  0  0
   -5.2960    0.5040   -0.9030 C   0  0  0  0  0  0  0  0  0  0  0  0
   -6.6350    0.5920   -0.6300 C   0  0  0  0  0  0  0  0  0  0  0  0
   -7.1150    0.1370    0.5480 N   0  0  0  0  0  0  0  0  0  0  0  0
   -6.3230   -0.4110    1.4890 C   0  0  0  0  0  0  0  0  0  0  0  0
   -4.9680   -0.5200    1.2570 C   0  0  0  0  0  0  0  0  0  0  0  0
   -4.1180   -1.0660    2.1720 C   0  0  0  0  0  0  0  0  0  0  0  0
   -2.7760   -1.1540    1.9000 C   0  0  0  0  0  0  0  0  0  0  0  0
   -2.3110   -0.6860    0.6980 C   0  0  0  0  0  0  0  0  0  0  0  0
   -0.8840   -0.7430    0.3270 C   0  0  0  0  0  0  0  0  0  0  0  0
   -0.0590   -1.3220    1.3560 N   0  0  0  0  0  0  0  0  0  0  0  0
    1.2880   -1.3750    1.0010 N   0  0  0  0  0  0  0  0  0  0  0  0
    2.0890   -0.2530    0.6950 C   0  0  0  0  0  0  0  0  0  0  0  0
    1.5660    0.8820    0.7410 O   0  0  0  0  0  0  0  0  0  0  0  0
    3.5170   -0.3920    0.3260 C   0  0  0  0  0  0  0  0  0  0  0  0
    4.0410   -1.5070    0.2790 O   0  0  0  0  0  0  0  0  0  0  0  0
    4.2900    0.7390    0.0250 N   0  0  0  0  0  0  0  0  0  0  0  0
    5.6250    0.8300   -0.3360 C   0  0  0  0  0  0  0  0  0  0  0  0
    6.4720   -0.2400   -0.3970 C   0  0  0  0  0  0  0  0  0  0  0  0
    7.8070   -0.0140   -0.7830 C   0  0  0  0  0  0  0  0  0  0  0  0
    8.2880    1.1860   -1.0930 N   0  0  0  0  0  0  0  0  0  0  0  0
    7.4770    2.2410   -1.0390 C   0  0  0  0  0  0  0  0  0  0  0  0
    6.1620    2.0600   -0.6650 C   0  0  0  0  0  0  0  0  0  0  0  0
   -3.1700   -0.1550   -0.1810 N   0  0  0  0  0  0  0  0  0  0  0  0
   -4.4800   -0.0560    0.0560 C   0  0  0  0  0  0  0  0  0  0  0  0
  1  2  1  0
  2  3  2  0
  2 25  1  0
  3  4  1  0
  4  5  2  0
  5  6  1  0
  6  7  2  0
  6 25  1  0
  7  8  1  0
  8  9  2  0
  9 10  1  0
  9 24  1  0
 10 11  1  0
 11 12  1  0
 12 13  1  0
 13 14  2  0
 13 15  1  0
 15 16  2  0
 15 17  1  0
 17 18  1  0
 18 19  2  0
 18 23  1  0
 19 20  1  0
 20 21  2  0
 21 22  1  0
 22 23  2  0
 24 25  2  0
M  CHG  1   4   1
M  END
