
     RDKit          3D

 25 26  0  0  0  0  0  0  0  0999 V2000
   -6.0910    2.0920   -1.9900 C   0  0  0  0  0  0  0  0  0  0  0  0
   -5.3670    1.0780   -1.2010 C   0  0  0  0  0  0  0  0  0  0  0  0
   -6.0170    0.0090   -0.5880 C   0  0  0  0  0  0  0  0  0  0  0  0
   -5.3270   -0.9200    0.1430 C   0  0  0  0  0  0  0  0  0  0  0  0
   -6.0790   -2.0520    0.7580 C   0  0  0  0  0  0  0  0  0  0  0  0
   -3.9760   -0.8170    0.2900 C   0  0  0  0  0  0  0  0  0  0  0  0
   -3.3060    0.2460   -0.3150 C   0  0  0  0  0  0  0  0  0  0  0  0
   -1.9280    0.4410   -0.1600 N   0  0  0  0  0  0  0  0  0  0  0  0
   -1.3720    0.5700    1.1050 C   0  0  0  0  0  0  0  0  0  0  0  0
   -2.2270    0.5270    2.0870 O   0  0  0  0  0  0  0  0  0  0  0  0
   -0.1390    0.7310    1.4960 N   0  0  0  0  0  0  0  0  0  0  0  0
    1.1220    0.8930    1.8740 C   0  0  0  0  0  0  0  0  0  0  0  0
    1.1290    0.9890    3.2090 O   0  0  0  0  0  0  0  0  0  0  0  0
    2.2460    0.9780    1.2620 N   0  0  0  0  0  0  0  0  0  0  0  0
    3.3510    1.0610    0.6600 N   0  0  0  0  0  0  0  0  0  0  0  0
    4.1500    0.0010    0.6230 C   0  0  0  0  0  0  0  0  0  0  0  0
    3.8350   -1.1880    1.2090 C   0  0  0  0  0  0  0  0  0  0  0  0
    4.7890   -2.2170    1.0660 C   0  0  0  0  0  0  0  0  0  0  0  0
    5.9170   -1.9790    0.3860 N   0  0  0  0  0  0  0  0  0  0  0  0
    6.1470   -0.7620   -0.1620 C   0  0  0  0  0  0  0  0  0  0  0  0
    7.3790   -0.4950   -0.9140 C   0  0  0  0  0  0  0  0  0  0  0  0
    7.6710    0.7790   -1.4540 N   0  0  0  0  0  0  0  0  0  0  0  0
    8.1860   -1.4500   -1.0670 O   0  0  0  0  0  0  0  0  0  0  0  0
    5.2700    0.2420   -0.0520 N   0  0  0  0  0  0  0  0  0  0  0  0
   -4.0010    1.1800   -1.0520 C   0  0  0  0  0  0  0  0  0  0  0  0
  1  2  1  0
  2  3  2  0
  2 25  1  0
  3  4  1  0
  4  5  1  0
  4  6  2  0
  6  7  1  0
  7  8  1  0
  7 25  2  0
  8  9  1  0
  9 10  2  0
  9 11  1  0
 11 12  1  0
 12 13  2  0
 12 14  1  0
 14 15  1  0
 15 16  2  3
 16 17  1  0
 16 24  1  0
 17 18  2  0
 18 19  1  0
 19 20  2  0
 20 21  1  0
 20 24  1  0
 21 22  1  0
 21 23  2  0
M  CHG  1  19   1
M  END
