
     RDKit          3D

 24 26  0  0  0  0  0  0  0  0999 V2000
    6.3290   -2.0190    1.1640 N   0  0  0  0  0  0  0  0  0  0  0  0
    5.1220   -1.5670    0.5850 C   0  0  0  0  0  0  0  0  0  0  0  0
    4.0800   -2.3620    0.3850 C   0  0  0  0  0  0  0  0  0  0  0  0
    2.8590   -1.9410   -0.1930 N   0  0  0  0  0  0  0  0  0  0  0  0
    2.6430   -0.5970   -0.5710 C   0  0  1  0  0  0  0  0  0  0  0  0
    1.3680    0.0030   -0.0080 C   0  0  2  0  0  0  0  0  0  0  0  0
    0.2120   -0.8190   -0.5260 C   0  0  0  0  0  0  0  0  0  0  0  0
   -1.0590   -0.3210   -0.0480 N   0  0  0  0  0  0  0  0  0  0  0  0
   -2.2460   -0.9740   -0.4370 C   0  0  0  0  0  0  0  0  0  0  0  0
   -2.1410   -1.9880   -1.2020 O   0  0  0  0  0  0  0  0  0  0  0  0
   -3.5330   -0.5820   -0.0370 N   0  0  0  0  0  0  0  0  0  0  0  0
   -3.6970    0.5590    0.8280 C   0  0  0  0  0  0  0  0  0  0  0  0
   -5.0900    1.1630    0.6070 C   0  0  0  0  0  0  0  0  0  0  0  0
   -6.0440    0.1430    1.0020 N   0  0  0  0  0  0  0  0  0  0  0  0
   -5.8310   -1.1670    0.4800 C   0  0  0  0  0  0  0  0  0  0  0  0
   -6.5470   -2.1440    0.7990 O   0  0  0  0  0  0  0  0  0  0  0  0
   -4.6910   -1.3090   -0.4830 C   0  0  0  0  0  0  0  0  0  0  0  0
    1.2380    1.3980   -0.3470 N   0  0  0  0  0  0  0  0  0  0  0  0
    0.6900    1.9570   -1.4420 C   0  0  0  0  0  0  0  0  0  0  0  0
    0.7750    3.3310   -1.3630 C   0  0  0  0  0  0  0  0  0  0  0  0
    1.3850    3.6020   -0.2010 N   0  0  0  0  0  0  0  0  0  0  0  0
    1.6590    2.4510    0.4010 C   0  0  0  0  0  0  0  0  0  0  0  0
    3.8010    0.2630   -0.3490 C   0  0  0  0  0  0  0  0  0  0  0  0
    4.9140   -0.1820    0.1730 C   0  0  0  0  0  0  0  0  0  0  0  0
  1  2  1  0
  2  3  2  0
  2 24  1  0
  3  4  1  0
  5  4  1  1
  5  6  1  0
  5 23  1  0
  6  7  1  6
  6 18  1  0
  7  8  1  0
  8  9  1  0
  9 10  2  0
  9 11  1  0
 11 12  1  0
 11 17  1  0
 12 13  1  0
 13 14  1  0
 14 15  1  0
 15 16  2  0
 15 17  1  0
 18 19  1  0
 18 22  2  0
 19 20  2  0
 20 21  1  0
 21 22  1  0
 23 24  2  0
M  CHG  1  18   1
M  END
