
     RDKit          3D

 19 19  0  0  0  0  0  0  0  0999 V2000
   -1.6560    0.1600    1.6620 N   0  0  0  0  0  0  0  0  0  0  0  0
   -1.3980    0.9880    0.5190 C   0  0  0  0  0  0  0  0  0  0  0  0
   -0.6820    2.0860    0.7200 C   0  0  0  0  0  0  0  0  0  0  0  0
   -0.2990    3.0680   -0.2730 C   0  0  0  0  0  0  0  0  0  0  0  0
    0.5680    3.0390   -1.2450 C   0  0  0  0  0  0  0  0  0  0  0  0
    0.7160    4.6760   -2.3630 Br  0  0  0  0  0  0  0  0  0  0  0  0
    1.4830    1.9760   -1.6390 C   0  0  0  0  0  0  0  0  0  0  0  0
    1.4050    1.6980   -2.9180 O   0  0  0  0  0  0  0  0  0  0  0  0
    2.4000    1.2440   -0.8520 N   0  0  0  0  0  0  0  0  0  0  0  0
    2.3420    0.6600    0.4200 C   0  0  0  0  0  0  0  0  0  0  0  0
    1.7930   -0.5090    0.7910 C   0  0  0  0  0  0  0  0  0  0  0  0
    1.8840   -0.8700    2.1990 C   0  0  0  0  0  0  0  0  0  0  0  0
    1.4310   -1.9260    2.6360 O   0  0  0  0  0  0  0  0  0  0  0  0
    1.1210   -1.4250   -0.1330 C   0  0  0  0  0  0  0  0  0  0  0  0
    0.2400   -2.4670    0.4160 C   0  0  0  0  0  0  0  0  0  0  0  0
   -0.8750   -2.7930   -0.6100 C   0  0  0  0  0  0  0  0  0  0  0  0
   -1.1570   -1.6590   -1.3410 O   0  0  0  0  0  0  0  0  0  0  0  0
   -2.2550   -0.9290   -0.8520 C   0  0  0  0  0  0  0  0  0  0  0  0
   -1.9510    0.5420   -0.7700 C   0  0  0  0  0  0  0  0  0  0  0  0
  1  2  1  0
  2  3  2  0
  2 19  1  0
  3  4  1  0
  4  5  2  0
  5  6  1  0
  5  7  1  0
  7  8  2  0
  7  9  1  0
  9 10  1  0
 10 11  2  0
 11 12  1  0
 11 14  1  0
 12 13  2  0
 14 15  1  0
 15 16  1  0
 16 17  1  0
 17 18  1  0
 18 19  1  0
M  END
