
     RDKit          3D

 19 19  0  0  0  0  0  0  0  0999 V2000
    4.2890   -1.5020    1.6800 C   0  0  0  0  0  0  0  0  0  0  0  0
    3.4910   -1.2770    0.5570 O   0  0  0  0  0  0  0  0  0  0  0  0
    2.7390   -0.1590    0.2680 C   0  0  0  0  0  0  0  0  0  0  0  0
    2.7670    0.7750    1.1110 O   0  0  0  0  0  0  0  0  0  0  0  0
    1.9400   -0.0510   -0.9470 C   0  0  1  0  0  0  0  0  0  0  0  0
    2.1320   -1.1940   -1.7050 O   0  0  0  0  0  0  0  0  0  0  0  0
    1.5870   -1.2550   -2.9300 C   0  0  0  0  0  0  0  0  0  0  0  0
    0.3920   -0.3680   -3.0880 C   0  0  0  0  0  0  0  0  0  0  0  0
   -0.3760   -0.4600   -1.7560 C   0  0  0  0  0  0  0  0  0  0  0  0
    0.5020    0.2700   -0.7480 C   0  0  1  0  0  0  0  0  0  0  0  0
   -0.0330    0.2660    0.5580 N   0  0  0  0  0  0  0  0  0  0  0  0
   -1.4400    0.4050    0.8990 C   0  0  0  0  0  0  0  0  0  0  0  0
   -2.0850   -0.7450    1.4650 C   0  0  0  0  0  0  0  0  0  0  0  0
   -3.4660   -0.7100    1.8880 N   0  0  0  0  0  0  0  0  0  0  0  0
   -1.5310   -1.9100    1.6610 C   0  0  0  0  0  0  0  0  0  0  0  0
    0.2490   -2.3510    1.2370 Br  0  0  0  0  0  0  0  0  0  0  0  0
   -1.9890    1.5610    0.7190 C   0  0  0  0  0  0  0  0  0  0  0  0
   -3.3830    1.9850    0.9650 C   0  0  0  0  0  0  0  0  0  0  0  0
   -1.1160    2.7400    0.2470 C   0  0  0  0  0  0  0  0  0  0  0  0
  1  2  1  0
  2  3  1  0
  3  4  2  0
  5  3  1  1
  5  6  1  0
  5 10  1  0
  6  7  1  0
  7  8  1  0
  8  9  1  0
  9 10  1  0
 10 11  1  1
 11 12  1  0
 12 13  1  0
 12 17  2  3
 13 14  1  0
 13 15  2  3
 15 16  1  0
 17 18  1  0
 17 19  1  0
M  END
