
     RDKit          3D

  7  7  0  0  0  0  0  0  0  0999 V2000
   -1.7800   -0.2620    0.4610 C   0  0  0  0  0  0  0  0  0  0  0  0
   -0.5870    0.0960    0.0000 C   0  0  0  0  0  0  0  0  0  0  0  0
   -0.3210    1.4540   -0.5420 C   0  0  0  0  0  0  0  0  0  0  0  0
    1.5040    1.5520   -0.5500 S   0  0  0  0  0  0  0  0  0  0  0  0
    1.8300   -0.0540    0.2840 C   0  0  0  0  0  0  0  0  0  0  0  0
    0.5630   -0.7540   -0.0340 C   0  0  0  0  0  0  0  0  0  0  0  0
    0.5330   -2.0330   -0.3150 N   0  0  0  0  0  0  0  0  0  0  0  0
  1  2  2  0
  2  3  1  0
  2  6  1  0
  3  4  1  0
  4  5  1  0
  5  6  1  0
  6  7  2  0
M  END
