
     RDKit          3D

  8  8  0  0  0  0  0  0  0  0999 V2000
    2.6260    0.9890    0.4540 N   0  0  0  0  0  0  0  0  0  0  0  0
    2.4480   -0.3830    0.2050 C   0  0  0  0  0  0  0  0  0  0  0  0
    1.0590   -1.1440    1.0580 S   0  0  0  0  0  0  0  0  0  0  0  0
   -0.5100   -0.5280    0.4950 C   0  0  0  0  0  0  0  0  0  0  0  0
   -0.7690    0.3730   -0.4360 C   0  0  0  0  0  0  0  0  0  0  0  0
   -2.2220    0.5380   -0.5290 C   0  0  0  0  0  0  0  0  0  0  0  0
   -2.7690   -0.5590    0.1030 O   0  0  0  0  0  0  0  0  0  0  0  0
   -1.8150   -0.9850    1.0370 C   0  0  0  0  0  0  0  0  0  0  0  0
  1  2  1  0
  2  3  1  0
  3  4  1  0
  4  5  2  0
  4  8  1  0
  5  6  1  0
  6  7  1  0
  7  8  1  0
M  END
