
     RDKit          3D

  8  8  0  0  0  0  0  0  0  0999 V2000
    2.2230    0.4730   -0.5250 C   0  0  0  0  0  0  0  0  0  0  0  0
    1.7850   -0.7080    0.2960 C   0  0  0  0  0  0  0  0  0  0  0  0
    0.6090   -1.3060   -0.2190 O   0  0  0  0  0  0  0  0  0  0  0  0
   -0.6000   -0.5660   -0.3310 C   0  0  0  0  0  0  0  0  0  0  0  0
   -0.6540    0.6150    0.0150 N   0  0  0  0  0  0  0  0  0  0  0  0
   -1.8550    1.3670   -0.0920 C   0  0  0  0  0  0  0  0  0  0  0  0
   -3.0720    0.0190   -0.1800 S   0  0  0  0  0  0  0  0  0  0  0  0
   -1.8490   -1.1800   -0.8660 C   0  0  0  0  0  0  0  0  0  0  0  0
  1  2  1  0
  2  3  1  0
  3  4  1  0
  4  5  2  0
  4  8  1  0
  5  6  1  0
  6  7  1  0
  7  8  1  0
M  END
