
     RDKit          3D

  8  8  0  0  0  0  0  0  0  0999 V2000
   -2.1600   -0.7430    0.7970 O   0  0  0  0  0  0  0  0  0  0  0  0
   -1.7370    0.4150    0.1500 C   0  0  0  0  0  0  0  0  0  0  0  0
   -0.2480    0.3510   -0.0730 C   0  0  0  0  0  0  0  0  0  0  0  0
    0.4240   -0.6860    0.3270 C   0  0  0  0  0  0  0  0  0  0  0  0
    1.8510   -0.9660    0.2220 C   0  0  0  0  0  0  0  0  0  0  0  0
    2.7420    0.3640   -0.5910 S   0  0  0  0  0  0  0  0  0  0  0  0
    1.5600    1.5820   -0.9930 N   0  0  0  0  0  0  0  0  0  0  0  0
    0.3330    1.4970   -0.7410 C   0  0  0  0  0  0  0  0  0  0  0  0
  1  2  1  0
  2  3  1  0
  3  4  2  0
  3  8  1  0
  4  5  1  0
  5  6  1  0
  6  7  1  0
  7  8  2  0
M  END
