
     RDKit          3D

 16 16  0  0  0  0  0  0  0  0999 V2000
   -3.2770    1.2140   -1.7860 C   0  0  0  0  0  0  0  0  0  0  0  0
   -2.0720    1.1710   -0.8910 C   0  0  0  0  0  0  0  0  0  0  0  0
   -1.7760    0.0810   -0.2370 C   0  0  0  0  0  0  0  0  0  0  0  0
   -2.6690   -1.1350   -0.4020 C   0  0  0  0  0  0  0  0  0  0  0  0
   -0.6560   -0.0380    0.6550 C   0  0  0  0  0  0  0  0  0  0  0  0
   -0.4580   -1.1960    1.2440 C   0  0  0  0  0  0  0  0  0  0  0  0
    0.6180   -1.4600    2.1510 C   0  0  0  0  0  0  0  0  0  0  0  0
    0.7160   -2.6930    2.7060 C   0  0  0  0  0  0  0  0  0  0  0  0
    1.7440   -3.0480    3.6120 N   0  0  0  0  0  0  0  0  0  0  0  0
    0.3890    1.3030    0.9620 S   0  0  2  0  0  0  0  0  0  0  0  0
    0.8510    1.2430    2.4270 O   0  0  0  0  0  0  0  0  0  0  0  0
   -0.3990    2.5960    0.9010 O   0  0  0  0  0  0  0  0  0  0  0  0
    1.7830    1.3400    0.0140 N   0  0  0  0  0  0  0  0  0  0  0  0
    1.6340    1.4410   -1.3920 C   0  0  2  0  0  0  0  0  0  0  0  0
    2.5370    0.4640   -2.1620 C   0  0  0  0  0  0  0  0  0  0  0  0
    2.7290    1.9350   -2.2660 C   0  0  0  0  0  0  0  0  0  0  0  0
  1  2  1  0
  2  3  2  3
  3  4  1  0
  3  5  1  0
  5  6  2  3
  5 10  1  0
  6  7  1  0
  7  8  2  3
  8  9  1  0
 10 11  2  0
 10 12  2  0
 10 13  1  6
 14 13  1  1
 14 15  1  0
 14 16  1  0
 15 16  1  0
M  END
