
     RDKit          3D

 16 16  0  0  0  0  0  0  0  0999 V2000
    0.2660   -2.3020    0.4490 C   0  0  0  0  0  0  0  0  0  0  0  0
    1.3960   -1.6360    0.4130 C   0  0  0  0  0  0  0  0  0  0  0  0
    1.4280   -0.3370   -0.2240 C   0  0  0  0  0  0  0  0  0  0  0  0
    0.1960    0.1140   -0.7890 N   0  0  0  0  0  0  0  0  0  0  0  0
   -0.6820    0.9300    0.0120 C   0  0  0  0  0  0  0  0  0  0  0  0
   -1.9440    1.2950   -0.7280 C   0  0  1  0  0  0  0  0  0  0  0  0
   -2.6540   -0.0010   -1.0890 C   0  0  0  0  0  0  0  0  0  0  0  0
   -2.8830    2.1350    0.1060 C   0  0  0  0  0  0  0  0  0  0  0  0
   -4.0820    2.4390   -0.6800 C   0  0  0  0  0  0  0  0  0  0  0  0
   -5.0210    2.6900   -1.2810 N   0  0  0  0  0  0  0  0  0  0  0  0
    2.5130    0.4140   -0.3010 C   0  0  0  0  0  0  0  0  0  0  0  0
    3.8090    0.0520    0.2310 C   0  0  0  0  0  0  0  0  0  0  0  0
    4.1030   -1.0610    0.8630 C   0  0  0  0  0  0  0  0  0  0  0  0
    2.8690   -2.2550    1.1160 S   0  0  2  0  0  0  0  0  0  0  0  0
    3.2400   -3.5900    0.5450 O   0  0  0  0  0  0  0  0  0  0  0  0
    2.6320   -2.3380    2.6010 O   0  0  0  0  0  0  0  0  0  0  0  0
  1  2  2  0
  2  3  1  0
  2 14  1  0
  3  4  1  0
  3 11  2  0
  4  5  1  0
  5  6  1  0
  6  7  1  1
  6  8  1  0
  8  9  1  0
  9 10  3  0
 11 12  1  0
 12 13  2  0
 14 13  1  1
 14 15  2  0
 14 16  2  0
M  END
