
     RDKit          3D

 16 16  0  0  0  0  0  0  0  0999 V2000
    3.0180    0.0260    2.4710 C   0  0  0  0  0  0  0  0  0  0  0  0
    3.1520   -0.4620    1.2820 C   0  0  0  0  0  0  0  0  0  0  0  0
    2.5030   -0.2200    0.0340 C   0  0  0  0  0  0  0  0  0  0  0  0
    1.4520    0.6980   -0.2480 C   0  0  0  0  0  0  0  0  0  0  0  0
    0.8000    1.5460    0.4970 C   0  0  0  0  0  0  0  0  0  0  0  0
   -0.4770    2.5290   -0.2820 S   0  0  2  0  0  0  0  0  0  0  0  0
   -0.0670    2.7450   -1.6800 O   0  0  0  0  0  0  0  0  0  0  0  0
   -0.4440    3.8590    0.4270 O   0  0  0  0  0  0  0  0  0  0  0  0
   -1.9830    1.8220   -0.0550 N   0  0  0  0  0  0  0  0  0  0  0  0
   -2.1930    0.5360   -0.5860 C   0  0  2  0  0  0  0  0  0  0  0  0
   -3.3940    0.3820   -1.4710 C   0  0  0  0  0  0  0  0  0  0  0  0
   -3.6650   -1.1220   -1.3390 C   0  0  0  0  0  0  0  0  0  0  0  0
   -3.4520   -1.3720    0.0690 N   0  0  0  0  0  0  0  0  0  0  0  0
   -2.5030   -0.4200    0.5470 C   0  0  0  0  0  0  0  0  0  0  0  0
    2.9620   -0.9730   -1.0020 C   0  0  0  0  0  0  0  0  0  0  0  0
    4.0460   -1.9600   -0.8440 C   0  0  0  0  0  0  0  0  0  0  0  0
  1  2  2  0
  2  3  1  0
  3  4  1  0
  3 15  2  3
  4  5  2  3
  5  6  1  0
  6  7  2  0
  6  8  2  0
  6  9  1  6
 10  9  1  1
 10 11  1  0
 10 14  1  0
 11 12  1  0
 12 13  1  0
 13 14  1  0
 15 16  1  0
M  END
