
     RDKit          3D

 28 30  0  0  0  0  0  0  0  0999 V2000
   -7.4400   -1.1890   -1.2060 C   0  0  0  0  0  0  0  0  0  0  0  0
   -7.2460    0.0040   -0.3000 C   0  0  2  0  0  0  0  0  0  0  0  0
   -7.9840    1.1460   -0.8500 N   0  0  0  0  0  0  0  0  0  0  0  0
   -5.8110    0.3870   -0.3340 C   0  0  0  0  0  0  0  0  0  0  0  0
   -4.8220   -0.4280   -0.8310 C   0  0  0  0  0  0  0  0  0  0  0  0
   -3.4760   -0.0510   -0.8580 C   0  0  0  0  0  0  0  0  0  0  0  0
   -3.0870    1.1740   -0.3780 C   0  0  0  0  0  0  0  0  0  0  0  0
   -1.7090    1.7010   -0.3650 C   0  0  0  0  0  0  0  0  0  0  0  0
   -1.1100    1.4640    0.9140 N   0  0  0  0  0  0  0  0  0  0  0  0
   -0.5510    0.1730    1.1890 C   0  0  0  0  0  0  0  0  0  0  0  0
   -0.5720   -0.7340    0.3490 O   0  0  0  0  0  0  0  0  0  0  0  0
    0.0470   -0.0200    2.5090 C   0  0  0  0  0  0  0  0  0  0  0  0
    0.8820   -1.2430    2.5930 C   0  0  0  0  0  0  0  0  0  0  0  0
    2.0380   -1.2130    1.6730 C   0  0  0  0  0  0  0  0  0  0  0  0
    2.1430   -1.8300    0.4630 C   0  0  0  0  0  0  0  0  0  0  0  0
    3.2510   -1.7250   -0.3740 C   0  0  0  0  0  0  0  0  0  0  0  0
    4.3050   -0.9660    0.0200 C   0  0  0  0  0  0  0  0  0  0  0  0
    5.4930   -0.7500   -0.7280 N   0  0  0  0  0  0  0  0  0  0  0  0
    6.7590   -1.3460   -0.3280 C   0  0  0  0  0  0  0  0  0  0  0  0
    7.8920   -0.3490   -0.4660 C   0  0  0  0  0  0  0  0  0  0  0  0
    7.4480    0.9260   -0.9610 N   0  0  0  0  0  0  0  0  0  0  0  0
    6.7050    0.8500   -2.2040 C   0  0  0  0  0  0  0  0  0  0  0  0
    5.4620    0.0690   -1.8970 C   0  0  0  0  0  0  0  0  0  0  0  0
    4.4310    0.1110   -2.6100 O   0  0  0  0  0  0  0  0  0  0  0  0
    4.2470   -0.3160    1.2490 C   0  0  0  0  0  0  0  0  0  0  0  0
    3.1500   -0.4360    2.0490 C   0  0  0  0  0  0  0  0  0  0  0  0
   -4.0890    2.0210    0.1350 C   0  0  0  0  0  0  0  0  0  0  0  0
   -5.4030    1.6250    0.1490 C   0  0  0  0  0  0  0  0  0  0  0  0
  2  1  1  6
  2  3  1  0
  2  4  1  0
  4  5  2  0
  4 28  1  0
  5  6  1  0
  6  7  2  0
  7  8  1  0
  7 27  1  0
  8  9  1  0
  9 10  1  0
 10 11  2  0
 10 12  1  0
 12 13  1  0
 13 14  1  0
 14 15  2  0
 14 26  1  0
 15 16  1  0
 16 17  2  0
 17 18  1  0
 17 25  1  0
 18 19  1  0
 18 23  1  0
 19 20  1  0
 20 21  1  0
 21 22  1  0
 22 23  1  0
 23 24  2  0
 25 26  2  0
 27 28  2  0
M  CHG  1   3   1
M  END
