
     RDKit          3D

 28 30  0  0  0  0  0  0  0  0999 V2000
   -1.8710    5.3200    1.6490 C   0  0  0  0  0  0  0  0  0  0  0  0
   -1.1490    4.9400    0.3760 C   0  0  0  0  0  0  0  0  0  0  0  0
   -0.6530    3.5390    0.4140 C   0  0  0  0  0  0  0  0  0  0  0  0
    0.5830    3.2830    0.8920 C   0  0  0  0  0  0  0  0  0  0  0  0
    1.0450    1.9730    0.9270 C   0  0  0  0  0  0  0  0  0  0  0  0
    0.2540    0.9320    0.4800 C   0  0  0  0  0  0  0  0  0  0  0  0
    0.7080   -0.3960    0.5540 N   0  0  0  0  0  0  0  0  0  0  0  0
    1.9880   -0.8390    0.9230 C   0  0  0  0  0  0  0  0  0  0  0  0
    2.8760   -0.0420    1.2290 O   0  0  0  0  0  0  0  0  0  0  0  0
    2.3270   -2.3000    0.9600 C   0  0  0  0  0  0  0  0  0  0  0  0
    3.7260   -2.6000    1.3540 C   0  0  0  0  0  0  0  0  0  0  0  0
    4.7310   -2.0590    0.5050 N   0  0  0  0  0  0  0  0  0  0  0  0
    5.2540   -2.6900   -0.7080 C   0  0  0  0  0  0  0  0  0  0  0  0
    5.3760   -1.5150   -1.6450 C   0  0  0  0  0  0  0  0  0  0  0  0
    5.6110   -0.2920   -0.7860 C   0  0  0  0  0  0  0  0  0  0  0  0
    5.4460   -0.8170    0.5930 C   0  0  0  0  0  0  0  0  0  0  0  0
    5.8370   -0.3170    1.6780 O   0  0  0  0  0  0  0  0  0  0  0  0
   -1.0280    1.2100   -0.0150 C   0  0  0  0  0  0  0  0  0  0  0  0
   -1.8080    0.0970   -0.5380 C   0  0  0  0  0  0  0  0  0  0  0  0
   -3.0250   -0.1150   -0.0750 C   0  0  0  0  0  0  0  0  0  0  0  0
   -3.5870    0.7700    0.9700 C   0  0  0  0  0  0  0  0  0  0  0  0
   -4.7710    1.4050    0.4280 N   0  0  0  0  0  0  0  0  0  0  0  0
   -3.8630   -1.2630   -0.6020 C   0  0  0  0  0  0  0  0  0  0  0  0
   -2.9710   -2.4490   -0.8890 C   0  0  1  0  0  0  0  0  0  0  0  0
   -3.8350   -3.4890   -1.5850 C   0  0  0  0  0  0  0  0  0  0  0  0
   -1.7730   -2.0900   -1.6940 C   0  0  0  0  0  0  0  0  0  0  0  0
   -1.3060   -0.7460   -1.5650 N   0  0  0  0  0  0  0  0  0  0  0  0
   -1.4480    2.5110   -0.0340 C   0  0  0  0  0  0  0  0  0  0  0  0
  1  2  1  0
  2  3  1  0
  3  4  2  0
  3 28  1  0
  4  5  1  0
  5  6  2  0
  6  7  1  0
  6 18  1  0
  7  8  1  0
  8  9  2  0
  8 10  1  0
 10 11  1  0
 11 12  1  0
 12 13  1  0
 12 16  1  0
 13 14  1  0
 14 15  1  0
 15 16  1  0
 16 17  2  0
 18 19  1  0
 18 28  2  0
 19 20  2  0
 19 27  1  0
 20 21  1  0
 20 23  1  0
 21 22  1  0
 23 24  1  0
 24 25  1  6
 24 26  1  0
 26 27  1  0
M  CHG  1  22   1
M  END
