
     RDKit          3D

 26 29  0  0  0  0  0  0  0  0999 V2000
    7.7870   -1.4290    0.1890 N   0  0  0  0  0  0  0  0  0  0  0  0
    6.9300   -0.3750   -0.2390 C   0  0  0  0  0  0  0  0  0  0  0  0
    7.4350    0.6330   -0.8280 N   0  0  0  0  0  0  0  0  0  0  0  0
    5.5060   -0.4910    0.0130 C   0  0  0  0  0  0  0  0  0  0  0  0
    4.6040    0.4730   -0.3630 C   0  0  0  0  0  0  0  0  0  0  0  0
    3.2540    0.3170   -0.1010 C   0  0  0  0  0  0  0  0  0  0  0  0
    2.1900    1.1330   -0.3790 C   0  0  0  0  0  0  0  0  0  0  0  0
    1.0030    0.5260    0.0930 C   0  0  0  0  0  0  0  0  0  0  0  0
   -0.3060    1.1260   -0.1220 C   0  0  0  0  0  0  0  0  0  0  0  0
   -0.3140    2.5320   -0.2740 C   0  0  0  0  0  0  0  0  0  0  0  0
   -1.4930    3.1700   -0.4940 C   0  0  0  0  0  0  0  0  0  0  0  0
   -2.6760    2.4730   -0.5700 C   0  0  0  0  0  0  0  0  0  0  0  0
   -2.7310    1.1050   -0.4310 C   0  0  0  0  0  0  0  0  0  0  0  0
   -3.8760    0.4390   -0.5060 O   0  0  0  0  0  0  0  0  0  0  0  0
   -4.3870   -0.8050   -0.4370 C   0  0  2  0  0  0  0  0  0  0  0  0
   -5.2940   -1.1880   -1.6000 C   0  0  0  0  0  0  0  0  0  0  0  0
   -6.5270   -0.3680   -1.4190 C   0  0  0  0  0  0  0  0  0  0  0  0
   -6.6240   -0.1420    0.0770 C   0  0  0  0  0  0  0  0  0  0  0  0
   -5.4410   -0.8190    0.6960 C   0  0  0  0  0  0  0  0  0  0  0  0
   -1.4910    0.4490   -0.2040 C   0  0  0  0  0  0  0  0  0  0  0  0
   -1.5320   -0.9130   -0.0810 O   0  0  0  0  0  0  0  0  0  0  0  0
    1.4030   -0.6130    0.6300 N   0  0  0  0  0  0  0  0  0  0  0  0
    2.7620   -0.7770    0.5300 C   0  0  0  0  0  0  0  0  0  0  0  0
    3.6560   -1.7520    0.9130 C   0  0  0  0  0  0  0  0  0  0  0  0
    4.9900   -1.6220    0.6660 C   0  0  0  0  0  0  0  0  0  0  0  0
    6.1290   -2.8740    1.1590 Cl  0  0  0  0  0  0  0  0  0  0  0  0
  1  2  1  0
  2  3  2  0
  2  4  1  0
  4  5  2  0
  4 25  1  0
  5  6  1  0
  6  7  1  0
  6 23  2  0
  7  8  2  0
  8  9  1  0
  8 22  1  0
  9 10  2  0
  9 20  1  0
 10 11  1  0
 11 12  2  0
 12 13  1  0
 13 14  1  0
 13 20  2  0
 15 14  1  6
 15 16  1  0
 15 19  1  0
 16 17  1  0
 17 18  1  0
 18 19  1  0
 20 21  1  0
 22 23  1  0
 23 24  1  0
 24 25  2  0
 25 26  1  0
M  CHG  1   3   1
M  END
