
     RDKit          3D

 28 30  0  0  0  0  0  0  0  0999 V2000
   -8.2880   -1.1820   -0.9090 C   0  0  0  0  0  0  0  0  0  0  0  0
   -7.0240   -0.9150   -1.0380 C   0  0  0  0  0  0  0  0  0  0  0  0
   -6.2520   -1.6140   -2.1160 C   0  0  0  0  0  0  0  0  0  0  0  0
   -5.0160   -2.1100   -1.5150 N   0  0  0  0  0  0  0  0  0  0  0  0
   -4.2870   -1.2560   -0.6430 C   0  0  0  0  0  0  0  0  0  0  0  0
   -2.9360   -1.4310   -0.4420 C   0  0  0  0  0  0  0  0  0  0  0  0
   -2.1650   -0.6430    0.3850 C   0  0  0  0  0  0  0  0  0  0  0  0
   -0.8070   -0.8920    0.5280 O   0  0  0  0  0  0  0  0  0  0  0  0
   -0.0810   -0.0410    1.3950 C   0  0  0  0  0  0  0  0  0  0  0  0
    1.3780   -0.4300    1.4510 C   0  0  0  0  0  0  0  0  0  0  0  0
    1.9470   -0.3190    0.0460 C   0  0  2  0  0  0  0  0  0  0  0  0
    1.2540   -1.2110   -0.9340 C   0  0  0  0  0  0  0  0  0  0  0  0
    3.3450   -0.7190    0.1360 N   0  0  0  0  0  0  0  0  0  0  0  0
    4.3250    0.2650   -0.1740 C   0  0  0  0  0  0  0  0  0  0  0  0
    4.0160    1.4470   -0.5150 O   0  0  0  0  0  0  0  0  0  0  0  0
    5.7240   -0.0150   -0.1210 N   0  0  0  0  0  0  0  0  0  0  0  0
    6.7210    0.9910   -0.4370 C   0  0  2  0  0  0  0  0  0  0  0  0
    7.5950    0.5710   -1.5920 C   0  0  0  0  0  0  0  0  0  0  0  0
    8.9820    0.3500   -1.0650 C   0  0  0  0  0  0  0  0  0  0  0  0
    8.8840    0.3720    0.4430 C   0  0  0  0  0  0  0  0  0  0  0  0
    7.6180    1.1300    0.7710 C   0  0  0  0  0  0  0  0  0  0  0  0
   -2.8320    0.3730    1.0320 C   0  0  0  0  0  0  0  0  0  0  0  0
   -4.1850    0.5980    0.8710 C   0  0  0  0  0  0  0  0  0  0  0  0
   -4.9260   -0.2050    0.0390 C   0  0  0  0  0  0  0  0  0  0  0  0
   -6.3520    0.0520   -0.1100 C   0  0  0  0  0  0  0  0  0  0  0  0
   -7.0670    0.9890    0.4180 C   0  0  0  0  0  0  0  0  0  0  0  0
   -6.9320    2.0940    1.3080 C   0  0  0  0  0  0  0  0  0  0  0  0
   -8.0220    2.8290    1.5780 N   0  0  0  0  0  0  0  0  0  0  0  0
  1  2  2  0
  2  3  1  0
  2 25  1  0
  3  4  1  0
  4  5  1  0
  5  6  2  0
  5 24  1  0
  6  7  1  0
  7  8  1  0
  7 22  2  0
  8  9  1  0
  9 10  1  0
 10 11  1  0
 11 12  1  6
 11 13  1  0
 13 14  1  0
 14 15  2  0
 14 16  1  0
 17 16  1  1
 17 18  1  0
 17 21  1  0
 18 19  1  0
 19 20  1  0
 20 21  1  0
 22 23  1  0
 23 24  2  0
 24 25  1  0
 25 26  2  3
 26 27  1  0
 27 28  2  0
M  CHG  1  28   1
M  END
