
     RDKit          3D

 28 31  0  0  0  0  0  0  0  0999 V2000
    2.3520   -2.5940    1.3290 N   0  0  0  0  0  0  0  0  0  0  0  0
    1.6840   -1.4560    0.7390 C   0  0  0  0  0  0  0  0  0  0  0  0
    2.4390   -0.4990    0.2730 C   0  0  0  0  0  0  0  0  0  0  0  0
    3.9060   -0.5610    0.3380 C   0  0  0  0  0  0  0  0  0  0  0  0
    4.6070    0.4320   -0.1470 C   0  0  0  0  0  0  0  0  0  0  0  0
    4.1660    1.6670   -0.7810 C   0  0  0  0  0  0  0  0  0  0  0  0
    5.1950    2.4210   -1.1380 C   0  0  0  0  0  0  0  0  0  0  0  0
    5.0440    3.6210   -1.7480 F   0  0  0  0  0  0  0  0  0  0  0  0
    6.4570    1.7800   -0.7850 C   0  0  0  0  0  0  0  0  0  0  0  0
    7.7780    1.8690   -0.8000 C   0  0  0  0  0  0  0  0  0  0  0  0
    8.3360    0.6450   -0.1690 C   0  0  0  0  0  0  0  0  0  0  0  0
    7.1490   -0.1490    0.2050 C   0  0  0  0  0  0  0  0  0  0  0  0
    6.0800    0.5210   -0.1580 C   0  0  0  0  0  0  0  0  0  0  0  0
    0.3070   -1.4740    0.7170 N   0  0  0  0  0  0  0  0  0  0  0  0
   -0.5670   -0.4980    0.2040 C   0  0  0  0  0  0  0  0  0  0  0  0
   -0.0980    0.5200   -0.3000 O   0  0  0  0  0  0  0  0  0  0  0  0
   -1.9930   -0.6480    0.2470 N   0  0  0  0  0  0  0  0  0  0  0  0
   -2.9480    0.2570   -0.2310 C   0  0  0  0  0  0  0  0  0  0  0  0
   -2.6840    1.4350   -0.7900 N   0  0  0  0  0  0  0  0  0  0  0  0
   -3.6550    2.2940   -1.2260 C   0  0  0  0  0  0  0  0  0  0  0  0
   -3.3260    3.3980   -1.7480 O   0  0  0  0  0  0  0  0  0  0  0  0
   -4.9770    1.9740   -1.1050 C   0  0  0  0  0  0  0  0  0  0  0  0
   -5.3020    0.7580   -0.5300 C   0  0  0  0  0  0  0  0  0  0  0  0
   -4.3180   -0.0790   -0.1050 C   0  0  0  0  0  0  0  0  0  0  0  0
   -4.6050   -1.4270    0.5160 C   0  0  0  0  0  0  0  0  0  0  0  0
   -6.0130   -1.8620    0.4530 C   0  0  0  0  0  0  0  0  0  0  0  0
   -6.8420   -1.1030   -0.5570 C   0  0  0  0  0  0  0  0  0  0  0  0
   -6.7280    0.3720   -0.3650 C   0  0  0  0  0  0  0  0  0  0  0  0
  1  2  1  0
  2  3  2  3
  2 14  1  0
  3  4  1  0
  4  5  2  3
  5  6  1  0
  5 13  1  0
  6  7  2  0
  7  8  1  0
  7  9  1  0
  9 10  2  0
  9 13  1  0
 10 11  1  0
 11 12  1  0
 12 13  2  0
 14 15  1  0
 15 16  2  0
 15 17  1  0
 17 18  1  0
 18 19  1  0
 18 24  2  0
 19 20  1  0
 20 21  2  0
 20 22  1  0
 22 23  2  0
 23 24  1  0
 23 28  1  0
 24 25  1  0
 25 26  1  0
 26 27  1  0
 27 28  1  0
M  END
