
     RDKit          3D

 28 31  0  0  0  0  0  0  0  0999 V2000
   -5.2020    2.7900    0.0670 C   0  0  0  0  0  0  0  0  0  0  0  0
   -5.3410    1.3080   -0.2410 C   0  0  2  0  0  0  0  0  0  0  0  0
   -6.0110    0.6470    0.9270 C   0  0  0  0  0  0  0  0  0  0  0  0
   -4.8740    0.5370    1.9490 C   0  0  0  0  0  0  0  0  0  0  0  0
   -3.6960    0.2910    1.0510 C   0  0  0  0  0  0  0  0  0  0  0  0
   -3.9500    0.7170   -0.1630 C   0  0  0  0  0  0  0  0  0  0  0  0
   -2.7620    0.4410   -0.9650 C   0  0  0  0  0  0  0  0  0  0  0  0
   -2.5980    0.7000   -2.2010 O   0  0  0  0  0  0  0  0  0  0  0  0
   -1.7880   -0.1920   -0.0880 C   0  0  0  0  0  0  0  0  0  0  0  0
   -0.4720   -0.6400   -0.4560 N   0  0  0  0  0  0  0  0  0  0  0  0
   -0.0500   -1.9670   -0.1930 C   0  0  0  0  0  0  0  0  0  0  0  0
    1.1870   -2.2470    0.1360 C   0  0  0  0  0  0  0  0  0  0  0  0
    2.1980   -1.2180    0.2560 C   0  0  0  0  0  0  0  0  0  0  0  0
    3.4150   -1.3610   -0.4280 C   0  0  0  0  0  0  0  0  0  0  0  0
    4.3560   -0.3670   -0.2600 C   0  0  0  0  0  0  0  0  0  0  0  0
    5.5770   -0.4550   -0.9140 C   0  0  0  0  0  0  0  0  0  0  0  0
    6.4940    0.5600   -0.7260 C   0  0  0  0  0  0  0  0  0  0  0  0
    6.2590    1.6530    0.0780 C   0  0  0  0  0  0  0  0  0  0  0  0
    7.2870    2.7280    0.2480 C   0  0  0  0  0  0  0  0  0  0  0  0
    7.0640    3.6700   -0.7270 F   0  0  0  0  0  0  0  0  0  0  0  0
    5.0710    1.7160    0.7010 N   0  0  0  0  0  0  0  0  0  0  0  0
    4.1420    0.7320    0.5380 C   0  0  0  0  0  0  0  0  0  0  0  0
    2.9720    0.8530    1.1850 N   0  0  0  0  0  0  0  0  0  0  0  0
    2.0130   -0.1110    1.0450 C   0  0  0  0  0  0  0  0  0  0  0  0
    0.9200    0.0180    1.6650 O   0  0  0  0  0  0  0  0  0  0  0  0
   -1.0280   -3.0860   -0.2870 C   0  0  0  0  0  0  0  0  0  0  0  0
   -1.6120   -3.2170   -1.6080 N   0  0  0  0  0  0  0  0  0  0  0  0
   -2.3560   -0.2720    1.0990 C   0  0  0  0  0  0  0  0  0  0  0  0
  2  1  1  1
  2  3  1  0
  2  6  1  0
  3  4  1  0
  4  5  1  0
  5  6  2  0
  5 28  1  0
  6  7  1  0
  7  8  2  0
  7  9  1  0
  9 10  1  0
  9 28  2  0
 10 11  1  0
 11 12  2  3
 11 26  1  0
 12 13  1  0
 13 14  2  0
 13 24  1  0
 14 15  1  0
 15 16  2  0
 15 22  1  0
 16 17  1  0
 17 18  2  0
 18 19  1  0
 18 21  1  0
 19 20  1  0
 21 22  2  0
 22 23  1  0
 23 24  1  0
 24 25  2  0
 26 27  1  0
M  CHG  1  27   1
M  END
