
     RDKit          3D

 28 30  0  0  0  0  0  0  0  0999 V2000
   -3.6470    2.7770   -1.1960 C   0  0  0  0  0  0  0  0  0  0  0  0
   -2.4700    1.9960   -1.0660 N   0  0  0  0  0  0  0  0  0  0  0  0
   -2.2340    0.7800   -1.2130 C   0  0  0  0  0  0  0  0  0  0  0  0
   -3.1590   -0.2820   -1.5880 C   0  0  0  0  0  0  0  0  0  0  0  0
   -4.4800   -0.2650   -1.6790 C   0  0  0  0  0  0  0  0  0  0  0  0
   -5.1700   -1.3890   -2.0550 F   0  0  0  0  0  0  0  0  0  0  0  0
   -2.3510   -1.5300   -1.8940 C   0  0  2  0  0  0  0  0  0  0  0  0
   -3.0810   -2.7320   -1.7250 N   0  0  0  0  0  0  0  0  0  0  0  0
   -1.2110   -1.3280   -0.9030 C   0  0  2  0  0  0  0  0  0  0  0  0
   -1.4230   -1.9610    0.3900 C   0  0  0  0  0  0  0  0  0  0  0  0
   -2.5570   -1.6310    1.1740 N   0  0  0  0  0  0  0  0  0  0  0  0
   -0.9250    0.1030   -1.0720 C   0  0  2  0  0  0  0  0  0  0  0  0
    0.0600    0.6490   -0.2620 N   0  0  0  0  0  0  0  0  0  0  0  0
    0.0910    1.1380    1.0490 C   0  0  0  0  0  0  0  0  0  0  0  0
   -1.0480    1.2880    1.7930 C   0  0  0  0  0  0  0  0  0  0  0  0
   -1.0540    1.8310    3.0910 C   0  0  0  0  0  0  0  0  0  0  0  0
    0.1190    2.2410    3.6710 C   0  0  0  0  0  0  0  0  0  0  0  0
    1.2740    2.1020    2.9460 C   0  0  0  0  0  0  0  0  0  0  0  0
    1.2770    1.5630    1.6610 C   0  0  0  0  0  0  0  0  0  0  0  0
    2.4570    1.4460    0.9760 O   0  0  0  0  0  0  0  0  0  0  0  0
    3.0570    0.2680    0.5960 C   0  0  0  0  0  0  0  0  0  0  0  0
    2.5350   -0.9700    0.9300 C   0  0  0  0  0  0  0  0  0  0  0  0
    3.1040   -2.1550    0.5690 C   0  0  0  0  0  0  0  0  0  0  0  0
    4.2740   -2.1560   -0.1770 C   0  0  0  0  0  0  0  0  0  0  0  0
    4.8160   -0.9350   -0.5230 C   0  0  0  0  0  0  0  0  0  0  0  0
    4.2320    0.2520   -0.1530 C   0  0  0  0  0  0  0  0  0  0  0  0
    4.8090    1.4330   -0.5210 O   0  0  0  0  0  0  0  0  0  0  0  0
    5.9910    1.5470   -1.2760 C   0  0  0  0  0  0  0  0  0  0  0  0
  1  2  1  0
  2  3  2  3
  3  4  1  0
  3 12  1  0
  4  5  2  3
  4  7  1  0
  5  6  1  0
  7  8  1  1
  7  9  1  0
  9 10  1  1
  9 12  1  0
 10 11  1  0
 12 13  1  1
 13 14  1  0
 14 15  2  0
 14 19  1  0
 15 16  1  0
 16 17  2  0
 17 18  1  0
 18 19  2  0
 19 20  1  0
 20 21  1  0
 21 22  2  0
 21 26  1  0
 22 23  1  0
 23 24  2  0
 24 25  1  0
 25 26  2  0
 26 27  1  0
 27 28  1  0
M  CHG  1  11   1
M  END
