
     RDKit          3D

 27 30  0  0  0  0  0  0  0  0999 V2000
   -6.3880   -0.3500    2.0310 C   0  0  0  0  0  0  0  0  0  0  0  0
   -5.3300   -0.4860    0.9310 C   0  0  2  0  0  0  0  0  0  0  0  0
   -5.0260   -1.9590    0.7670 C   0  0  0  0  0  0  0  0  0  0  0  0
   -4.1270    0.2980    1.4120 C   0  0  0  0  0  0  0  0  0  0  0  0
   -4.2930    1.5980    0.6640 C   0  0  1  0  0  0  0  0  0  0  0  0
   -3.0040    2.3580    0.5380 C   0  0  0  0  0  0  0  0  0  0  0  0
   -2.0080    1.5160   -0.1460 N   0  0  0  0  0  0  0  0  0  0  0  0
   -0.7030    1.6040    0.3310 C   0  0  0  0  0  0  0  0  0  0  0  0
   -0.5580    2.4310    1.3300 O   0  0  0  0  0  0  0  0  0  0  0  0
    0.4890    0.9120   -0.1270 C   0  0  0  0  0  0  0  0  0  0  0  0
    0.6930    0.0040   -1.1270 C   0  0  0  0  0  0  0  0  0  0  0  0
    2.0350   -0.3720   -1.1750 C   0  0  0  0  0  0  0  0  0  0  0  0
    2.7920   -1.2220   -1.9470 C   0  0  0  0  0  0  0  0  0  0  0  0
    4.1620   -1.3760   -1.7280 C   0  0  0  0  0  0  0  0  0  0  0  0
    4.7710   -0.6630   -0.7200 C   0  0  0  0  0  0  0  0  0  0  0  0
    6.2140   -0.7960   -0.4470 C   0  0  2  0  0  0  0  0  0  0  0  0
    6.6060   -2.1870   -0.3930 N   0  0  0  0  0  0  0  0  0  0  0  0
    6.6570   -0.1400    0.8200 C   0  0  0  0  0  0  0  0  0  0  0  0
    8.1570   -0.3690    0.9500 C   0  0  0  0  0  0  0  0  0  0  0  0
    8.6820    0.1940    2.0870 O   0  0  0  0  0  0  0  0  0  0  0  0
    3.9950    0.1700    0.0270 C   0  0  0  0  0  0  0  0  0  0  0  0
    2.6400    0.3340   -0.1760 C   0  0  0  0  0  0  0  0  0  0  0  0
    1.7280    1.0840    0.4340 N   0  0  0  0  0  0  0  0  0  0  0  0
   -2.3660    0.6680   -1.2260 C   0  0  0  0  0  0  0  0  0  0  0  0
   -3.8110    0.6160   -1.6090 C   0  0  0  0  0  0  0  0  0  0  0  0
   -4.8050    1.1460   -0.6610 C   0  0  1  0  0  0  0  0  0  0  0  0
   -5.7700    0.1140   -0.2840 N   0  0  0  0  0  0  0  0  0  0  0  0
  2  1  1  1
  2  3  1  0
  2  4  1  0
  2 27  1  0
  5  4  1  1
  5  6  1  0
  5 26  1  0
  6  7  1  0
  7  8  1  0
  7 24  1  0
  8  9  2  0
  8 10  1  0
 10 11  2  0
 10 23  1  0
 11 12  1  0
 12 13  2  0
 12 22  1  0
 13 14  1  0
 14 15  2  0
 15 16  1  0
 15 21  1  0
 16 17  1  1
 16 18  1  0
 18 19  1  0
 19 20  1  0
 21 22  2  0
 22 23  1  0
 24 25  1  0
 26 25  1  6
 26 27  1  0
M  CHG  1  27   1
M  END
