
     RDKit          3D

 28 30  0  0  0  0  0  0  0  0999 V2000
    6.8950    0.9370   -1.4480 N   0  0  0  0  0  0  0  0  0  0  0  0
    6.5470    0.3390   -0.1820 C   0  0  0  0  0  0  0  0  0  0  0  0
    7.4890    0.0280    0.6280 N   0  0  0  0  0  0  0  0  0  0  0  0
    5.1520    0.1030    0.1480 C   0  0  0  0  0  0  0  0  0  0  0  0
    4.7600   -0.4610    1.3340 C   0  0  0  0  0  0  0  0  0  0  0  0
    3.4030   -0.6760    1.6220 C   0  0  0  0  0  0  0  0  0  0  0  0
    2.4260   -0.3250    0.7180 C   0  0  0  0  0  0  0  0  0  0  0  0
    1.0820   -0.4060    0.7150 N   0  0  0  0  0  0  0  0  0  0  0  0
    0.5790    0.0940   -0.4520 C   0  0  0  0  0  0  0  0  0  0  0  0
   -0.8590    0.1570   -0.7820 C   0  0  0  0  0  0  0  0  0  0  0  0
   -1.7780   -0.3130    0.1360 C   0  0  0  0  0  0  0  0  0  0  0  0
   -3.1260   -0.2810   -0.1150 C   0  0  0  0  0  0  0  0  0  0  0  0
   -4.1110   -0.7920    0.8680 C   0  0  1  0  0  0  0  0  0  0  0  0
   -4.8180    0.3000    1.6350 C   0  0  0  0  0  0  0  0  0  0  0  0
   -5.5780    1.2400    0.8200 C   0  0  0  0  0  0  0  0  0  0  0  0
   -5.0340    2.2640    0.2880 O   0  0  0  0  0  0  0  0  0  0  0  0
   -6.9230    1.0540    0.5950 O   0  0  0  0  0  0  0  0  0  0  0  0
   -5.0290   -1.8030    0.3230 C   0  0  0  0  0  0  0  0  0  0  0  0
   -6.2630   -1.6170    0.3100 O   0  0  0  0  0  0  0  0  0  0  0  0
   -4.5190   -2.9790   -0.1850 O   0  0  0  0  0  0  0  0  0  0  0  0
   -3.5800    0.2290   -1.3050 C   0  0  0  0  0  0  0  0  0  0  0  0
   -2.6710    0.6930   -2.2090 C   0  0  0  0  0  0  0  0  0  0  0  0
   -3.2860    1.4050   -3.8670 Br  0  0  0  0  0  0  0  0  0  0  0  0
   -1.2970    0.6700   -1.9770 C   0  0  0  0  0  0  0  0  0  0  0  0
   -0.4530    1.1640   -2.9580 O   0  0  0  0  0  0  0  0  0  0  0  0
    1.6550    0.4700   -1.1330 N   0  0  0  0  0  0  0  0  0  0  0  0
    2.8020    0.2420   -0.4760 C   0  0  0  0  0  0  0  0  0  0  0  0
    4.1400    0.4500   -0.7520 C   0  0  0  0  0  0  0  0  0  0  0  0
  1  2  1  0
  2  3  2  0
  2  4  1  0
  4  5  2  0
  4 28  1  0
  5  6  1  0
  6  7  2  0
  7  8  1  0
  7 27  1  0
  8  9  1  0
  9 10  1  0
  9 26  2  0
 10 11  2  0
 10 24  1  0
 11 12  1  0
 12 13  1  0
 12 21  2  0
 13 14  1  6
 13 18  1  0
 14 15  1  0
 15 16  2  0
 15 17  1  0
 18 19  2  0
 18 20  1  0
 21 22  1  0
 22 23  1  0
 22 24  2  0
 24 25  1  0
 26 27  1  0
 27 28  2  0
M  CHG  1   3   1
M  END
