
     RDKit          3D

 19 21  0  0  0  0  0  0  0  0999 V2000
   -4.9380   -0.9820    0.4080 C   0  0  0  0  0  0  0  0  0  0  0  0
   -3.5040   -0.9060    0.2320 N   0  0  0  0  0  0  0  0  0  0  0  0
   -2.8340    0.3450    0.4200 C   0  0  0  0  0  0  0  0  0  0  0  0
   -3.4360    1.5380    0.7650 C   0  0  0  0  0  0  0  0  0  0  0  0
   -5.2830    1.8850    1.0900 Br  0  0  0  0  0  0  0  0  0  0  0  0
   -2.4470    2.4230    0.8280 N   0  0  0  0  0  0  0  0  0  0  0  0
   -1.2530    1.8120    0.5330 C   0  0  0  0  0  0  0  0  0  0  0  0
   -0.1360    2.4110    0.5190 O   0  0  0  0  0  0  0  0  0  0  0  0
   -1.4870    0.5250    0.2780 N   0  0  0  0  0  0  0  0  0  0  0  0
   -0.5990   -0.4870   -0.0240 N   0  0  0  0  0  0  0  0  0  0  0  0
    0.7710   -0.2960   -0.2920 C   0  0  0  0  0  0  0  0  0  0  0  0
    1.2710    0.6490   -1.1450 C   0  0  0  0  0  0  0  0  0  0  0  0
    2.6510    0.8000   -1.3290 C   0  0  0  0  0  0  0  0  0  0  0  0
    3.5650    0.0090   -0.6650 C   0  0  0  0  0  0  0  0  0  0  0  0
    4.9290   -0.0370   -0.6750 N   0  0  0  0  0  0  0  0  0  0  0  0
    5.2970   -1.0130    0.1710 C   0  0  0  0  0  0  0  0  0  0  0  0
    4.1820   -1.5940    0.7240 C   0  0  0  0  0  0  0  0  0  0  0  0
    3.0700   -0.9460    0.1950 C   0  0  0  0  0  0  0  0  0  0  0  0
    1.7100   -1.0900    0.3720 C   0  0  0  0  0  0  0  0  0  0  0  0
  1  2  1  0
  2  3  1  0
  3  4  2  0
  3  9  1  0
  4  5  1  0
  4  6  1  0
  6  7  1  0
  7  8  2  0
  7  9  1  0
  9 10  1  0
 10 11  1  0
 11 12  2  0
 11 19  1  0
 12 13  1  0
 13 14  2  0
 14 15  1  0
 14 18  1  0
 15 16  1  0
 16 17  2  0
 17 18  1  0
 18 19  2  0
M  END
