
     RDKit          3D

 19 21  0  0  0  0  0  0  0  0999 V2000
    2.6640   -2.1250    0.1680 N   0  0  0  0  0  0  0  0  0  0  0  0
    3.4130   -0.9240   -0.0170 C   0  0  0  0  0  0  0  0  0  0  0  0
    4.7520   -0.9090   -0.3460 C   0  0  0  0  0  0  0  0  0  0  0  0
    5.0870    0.4370   -0.4300 C   0  0  0  0  0  0  0  0  0  0  0  0
    3.9770    1.1530   -0.1570 N   0  0  0  0  0  0  0  0  0  0  0  0
    2.9650    0.3390    0.0930 N   0  0  0  0  0  0  0  0  0  0  0  0
    1.6060    0.6780    0.4270 C   0  0  0  0  0  0  0  0  0  0  0  0
    0.4610    0.1280   -0.0950 C   0  0  0  0  0  0  0  0  0  0  0  0
   -0.6660    0.7250    0.4850 C   0  0  0  0  0  0  0  0  0  0  0  0
   -2.0280    0.4160    0.1160 C   0  0  0  0  0  0  0  0  0  0  0  0
   -2.2480   -0.8290   -0.5230 C   0  0  0  0  0  0  0  0  0  0  0  0
   -3.4860   -1.2320   -0.9440 C   0  0  0  0  0  0  0  0  0  0  0  0
   -3.8050   -2.8990   -1.8030 Br  0  0  0  0  0  0  0  0  0  0  0  0
   -4.5700   -0.4030   -0.7440 C   0  0  0  0  0  0  0  0  0  0  0  0
   -4.4230    0.8070   -0.1370 C   0  0  0  0  0  0  0  0  0  0  0  0
   -3.1310    1.2090    0.2920 C   0  0  0  0  0  0  0  0  0  0  0  0
   -3.0790    2.4330    0.8750 O   0  0  0  0  0  0  0  0  0  0  0  0
   -0.1660    1.6060    1.3330 N   0  0  0  0  0  0  0  0  0  0  0  0
    1.1910    1.5860    1.3050 N   0  0  0  0  0  0  0  0  0  0  0  0
  1  2  1  0
  2  3  2  0
  2  6  1  0
  3  4  1  0
  4  5  2  0
  5  6  1  0
  6  7  1  0
  7  8  1  0
  7 19  2  0
  8  9  2  0
  9 10  1  0
  9 18  1  0
 10 11  2  0
 10 16  1  0
 11 12  1  0
 12 13  1  0
 12 14  2  0
 14 15  1  0
 15 16  2  0
 16 17  1  0
 18 19  1  0
M  END
