
     RDKit          3D

 19 21  0  0  0  0  0  0  0  0999 V2000
   -5.6060    0.6280   -0.6540 N   0  0  0  0  0  0  0  0  0  0  0  0
   -4.4720    0.2680    0.1130 C   0  0  0  0  0  0  0  0  0  0  0  0
   -3.2090    0.3960   -0.4280 C   0  0  0  0  0  0  0  0  0  0  0  0
   -2.1380    0.0370    0.3440 C   0  0  0  0  0  0  0  0  0  0  0  0
   -0.7600    0.1530   -0.1830 C   0  0  0  0  0  0  0  0  0  0  0  0
    0.3860   -0.1590    0.4550 N   0  0  0  0  0  0  0  0  0  0  0  0
    1.4370    0.0790   -0.3450 C   0  0  0  0  0  0  0  0  0  0  0  0
    2.8650   -0.0870   -0.1390 C   0  0  0  0  0  0  0  0  0  0  0  0
    3.7870    0.2260   -1.1140 C   0  0  0  0  0  0  0  0  0  0  0  0
    5.1240    0.0650   -0.9060 C   0  0  0  0  0  0  0  0  0  0  0  0
    5.5710   -0.4200    0.3040 C   0  0  0  0  0  0  0  0  0  0  0  0
    7.4710   -0.6290    0.5480 Br  0  0  0  0  0  0  0  0  0  0  0  0
    4.7010   -0.7260    1.2530 N   0  0  0  0  0  0  0  0  0  0  0  0
    3.3840   -0.5690    1.0500 C   0  0  0  0  0  0  0  0  0  0  0  0
    0.8980    0.5430   -1.4840 N   0  0  0  0  0  0  0  0  0  0  0  0
   -0.4000    0.5800   -1.3690 O   0  0  0  0  0  0  0  0  0  0  0  0
   -2.3410   -0.4290    1.6080 C   0  0  0  0  0  0  0  0  0  0  0  0
   -3.6080   -0.5390    2.1040 C   0  0  0  0  0  0  0  0  0  0  0  0
   -4.6550   -0.1950    1.3650 N   0  0  0  0  0  0  0  0  0  0  0  0
  1  2  1  0
  2  3  2  0
  2 19  1  0
  3  4  1  0
  4  5  1  0
  4 17  2  0
  5  6  2  0
  5 16  1  0
  6  7  1  0
  7  8  1  0
  7 15  2  0
  8  9  2  0
  8 14  1  0
  9 10  1  0
 10 11  2  0
 11 12  1  0
 11 13  1  0
 13 14  2  0
 15 16  1  0
 17 18  1  0
 18 19  2  0
M  END
