
     RDKit          3D

 34 38  0  0  0  0  0  0  0  0999 V2000
   -6.1750   -2.5000   -2.3270 O   0  0  0  0  0  0  0  0  0  0  0  0
   -7.0060   -2.0210   -1.5260 C   0  0  0  0  0  0  0  0  0  0  0  0
   -8.3830   -2.4600   -1.6350 N   0  0  0  0  0  0  0  0  0  0  0  0
   -9.2840   -2.3000   -0.5380 C   0  0  0  0  0  0  0  0  0  0  0  0
   -9.0330   -1.0710    0.1800 N   0  0  0  0  0  0  0  0  0  0  0  0
   -7.7050   -0.5910    0.3490 C   0  0  0  0  0  0  0  0  0  0  0  0
   -7.4040    0.3220    1.3270 C   0  0  0  0  0  0  0  0  0  0  0  0
   -6.1310    0.7850    1.4920 C   0  0  0  0  0  0  0  0  0  0  0  0
   -5.1320    0.3230    0.6600 C   0  0  0  0  0  0  0  0  0  0  0  0
   -3.8410    0.7940    0.8290 C   0  0  0  0  0  0  0  0  0  0  0  0
   -2.8470    0.3390    0.0060 C   0  0  0  0  0  0  0  0  0  0  0  0
   -1.4960    0.8430    0.1940 C   0  0  0  0  0  0  0  0  0  0  0  0
   -1.1170    1.7150    1.0960 C   0  0  0  0  0  0  0  0  0  0  0  0
    0.3330    2.1070    1.1250 C   0  0  0  0  0  0  0  0  0  0  0  0
    1.0360    1.4140    0.1160 O   0  0  0  0  0  0  0  0  0  0  0  0
    2.4070    1.6640    0.0040 C   0  0  0  0  0  0  0  0  0  0  0  0
    3.1640    1.0150   -0.9700 C   0  0  0  0  0  0  0  0  0  0  0  0
    4.5170    1.2150   -1.1360 C   0  0  0  0  0  0  0  0  0  0  0  0
    5.1420    2.1030   -0.2890 C   0  0  0  0  0  0  0  0  0  0  0  0
    6.5330    2.3360   -0.4280 N   0  0  0  0  0  0  0  0  0  0  0  0
    7.3970    1.4020   -0.2940 C   0  0  0  0  0  0  0  0  0  0  0  0
    7.0610    0.0730   -0.0010 N   0  0  0  0  0  0  0  0  0  0  0  0
    6.4680   -0.3610    1.2650 C   0  0  0  0  0  0  0  0  0  0  0  0
    6.1520   -1.8420    1.0770 C   0  0  0  0  0  0  0  0  0  0  0  0
    7.2800   -2.5880    0.8160 O   0  0  0  0  0  0  0  0  0  0  0  0
    8.0440   -2.0810   -0.2140 C   0  0  0  0  0  0  0  0  0  0  0  0
    7.2920   -0.9830   -0.9740 C   0  0  0  0  0  0  0  0  0  0  0  0
    4.4280    2.7680    0.6920 C   0  0  0  0  0  0  0  0  0  0  0  0
    3.0540    2.5500    0.8410 C   0  0  0  0  0  0  0  0  0  0  0  0
   -3.1380   -0.5800   -0.9810 C   0  0  0  0  0  0  0  0  0  0  0  0
   -2.1970   -0.9700   -1.7130 O   0  0  0  0  0  0  0  0  0  0  0  0
   -4.4080   -1.0400   -1.1440 N   0  0  0  0  0  0  0  0  0  0  0  0
   -5.3830   -0.6070   -0.3510 C   0  0  0  0  0  0  0  0  0  0  0  0
   -6.6860   -1.0590   -0.4970 C   0  0  0  0  0  0  0  0  0  0  0  0
  1  2  2  0
  2  3  1  0
  2 34  1  0
  3  4  1  0
  4  5  1  0
  5  6  1  0
  6  7  2  0
  6 34  1  0
  7  8  1  0
  8  9  2  0
  9 10  1  0
  9 33  1  0
 10 11  2  0
 11 12  1  0
 11 30  1  0
 12 13  2  3
 13 14  1  0
 14 15  1  0
 15 16  1  0
 16 17  2  0
 16 29  1  0
 17 18  1  0
 18 19  2  0
 19 20  1  0
 19 28  1  0
 20 21  2  3
 21 22  1  0
 22 23  1  0
 22 27  1  0
 23 24  1  0
 24 25  1  0
 25 26  1  0
 26 27  1  0
 28 29  2  0
 30 31  2  0
 30 32  1  0
 32 33  1  0
 33 34  2  0
M  END
