
     RDKit          3D

 34 38  0  0  0  0  0  0  0  0999 V2000
   -4.4850    4.8000   -0.3650 C   0  0  0  0  0  0  0  0  0  0  0  0
   -3.8690    3.4410   -0.3260 C   0  0  0  0  0  0  0  0  0  0  0  0
   -4.3150    2.5260    0.6030 C   0  0  0  0  0  0  0  0  0  0  0  0
   -3.7950    1.2490    0.7010 C   0  0  0  0  0  0  0  0  0  0  0  0
   -2.7940    0.8710   -0.1580 C   0  0  0  0  0  0  0  0  0  0  0  0
   -2.1790   -0.4550   -0.1790 C   0  0  0  0  0  0  0  0  0  0  0  0
   -0.8400   -0.5590   -0.1500 C   0  0  0  0  0  0  0  0  0  0  0  0
   -0.1040    0.6100   -0.1010 O   0  0  0  0  0  0  0  0  0  0  0  0
    1.2260    0.6370    0.3110 N   0  0  0  0  0  0  0  0  0  0  0  0
    1.5940    1.5020    1.3750 C   0  0  0  0  0  0  0  0  0  0  0  0
    0.7190    2.2100    1.9120 O   0  0  0  0  0  0  0  0  0  0  0  0
    3.0050    1.5860    1.8700 C   0  0  2  0  0  0  0  0  0  0  0  0
    3.3950    3.0260    1.9030 C   0  0  0  0  0  0  0  0  0  0  0  0
    3.8370    0.7640    1.0490 N   0  0  0  0  0  0  0  0  0  0  0  0
    4.5090   -0.4050    1.5400 C   0  0  0  0  0  0  0  0  0  0  0  0
    4.4870   -0.8950    2.7030 O   0  0  0  0  0  0  0  0  0  0  0  0
    5.2800   -0.9990    0.4430 C   0  0  0  0  0  0  0  0  0  0  0  0
    6.1240   -2.0280    0.0790 C   0  0  0  0  0  0  0  0  0  0  0  0
    6.4680   -1.9310   -1.2170 N   0  0  0  0  0  0  0  0  0  0  0  0
    5.8390   -0.8340   -1.6810 C   0  0  0  0  0  0  0  0  0  0  0  0
    5.0970   -0.2330   -0.6870 C   0  0  0  0  0  0  0  0  0  0  0  0
    4.2040    0.8550   -0.3040 C   0  0  0  0  0  0  0  0  0  0  0  0
    3.8230    1.7510   -1.0990 O   0  0  0  0  0  0  0  0  0  0  0  0
   -0.1400   -1.8390   -0.1670 C   0  0  0  0  0  0  0  0  0  0  0  0
   -1.0030   -2.9970   -0.2290 N   0  0  0  0  0  0  0  0  0  0  0  0
   -0.3290   -4.2970   -0.2500 C   0  0  0  0  0  0  0  0  0  0  0  0
   -2.4110   -2.9250   -0.2670 C   0  0  0  0  0  0  0  0  0  0  0  0
   -3.1350   -4.0710   -0.3400 N   0  0  0  0  0  0  0  0  0  0  0  0
   -4.4650   -3.9800   -0.3910 C   0  0  0  0  0  0  0  0  0  0  0  0
   -5.1390   -2.7790   -0.3730 C   0  0  0  0  0  0  0  0  0  0  0  0
   -4.3750   -1.6200   -0.2980 C   0  0  0  0  0  0  0  0  0  0  0  0
   -2.9950   -1.6660   -0.2420 C   0  0  0  0  0  0  0  0  0  0  0  0
   -2.3450    1.7820   -1.0870 C   0  0  0  0  0  0  0  0  0  0  0  0
   -2.8700    3.0550   -1.1780 C   0  0  0  0  0  0  0  0  0  0  0  0
  1  2  1  0
  2  3  2  0
  2 34  1  0
  3  4  1  0
  4  5  2  0
  5  6  1  0
  5 33  1  0
  6  7  2  0
  6 32  1  0
  7  8  1  0
  7 24  1  0
  8  9  1  0
  9 10  1  0
 10 11  2  0
 10 12  1  0
 12 13  1  6
 12 14  1  0
 14 15  1  0
 14 22  1  0
 15 16  2  0
 15 17  1  0
 17 18  2  0
 17 21  1  0
 18 19  1  0
 19 20  1  0
 20 21  2  0
 21 22  1  0
 22 23  2  0
 24 25  1  0
 25 26  1  0
 25 27  1  0
 27 28  2  0
 27 32  1  0
 28 29  1  0
 29 30  2  0
 30 31  1  0
 31 32  2  0
 33 34  2  0
M  END
