
     RDKit          3D

 34 38  0  0  0  0  0  0  0  0999 V2000
   -1.0160    1.4500   -0.1320 O   0  0  0  0  0  0  0  0  0  0  0  0
   -1.0770    0.5860    0.7810 C   0  0  0  0  0  0  0  0  0  0  0  0
   -2.3660    0.1240    1.1410 N   0  0  0  0  0  0  0  0  0  0  0  0
   -3.5790    0.6010    0.5140 C   0  0  0  0  0  0  0  0  0  0  0  0
   -4.7450   -0.1020    1.1360 C   0  0  0  0  0  0  0  0  0  0  0  0
   -6.0070    0.2750    0.6190 N   0  0  0  0  0  0  0  0  0  0  0  0
   -6.7700    1.3380    1.1660 C   0  0  0  0  0  0  0  0  0  0  0  0
   -6.2280    2.3140    1.7260 O   0  0  0  0  0  0  0  0  0  0  0  0
   -8.2540    1.2570    1.0540 C   0  0  0  0  0  0  0  0  0  0  0  0
   -8.5930    1.1330   -0.4040 C   0  0  0  0  0  0  0  0  0  0  0  0
   -7.8570    0.0090   -1.0220 C   0  0  0  0  0  0  0  0  0  0  0  0
   -8.1690   -0.7830   -2.0720 C   0  0  0  0  0  0  0  0  0  0  0  0
   -7.0850   -1.7630   -2.2880 C   0  0  0  0  0  0  0  0  0  0  0  0
   -6.1110   -1.4390   -1.2350 C   0  0  0  0  0  0  0  0  0  0  0  0
   -6.5690   -0.4100   -0.5070 C   0  0  0  0  0  0  0  0  0  0  0  0
    0.1940    0.1370    1.3870 C   0  0  2  0  0  0  0  0  0  0  0  0
    1.1210   -0.4670    0.3200 C   0  0  0  0  0  0  0  0  0  0  0  0
    2.4430   -0.4290    0.9580 N   0  0  0  0  0  0  0  0  0  0  0  0
    3.6320   -0.2200    0.1900 C   0  0  0  0  0  0  0  0  0  0  0  0
    3.5430   -0.0740   -1.0530 O   0  0  0  0  0  0  0  0  0  0  0  0
    4.9110   -0.1720    0.7890 N   0  0  0  0  0  0  0  0  0  0  0  0
    6.1430    0.0220    0.1370 C   0  0  0  0  0  0  0  0  0  0  0  0
    7.2520    0.2610    0.9540 C   0  0  0  0  0  0  0  0  0  0  0  0
    8.5250    0.4600    0.4720 C   0  0  0  0  0  0  0  0  0  0  0  0
    8.7340    0.4250   -0.8870 C   0  0  0  0  0  0  0  0  0  0  0  0
    9.9590    0.6140   -1.3930 N   0  0  0  0  0  0  0  0  0  0  0  0
   10.2150    0.5890   -2.7110 C   0  0  0  0  0  0  0  0  0  0  0  0
    9.1310    0.3530   -3.5640 C   0  0  0  0  0  0  0  0  0  0  0  0
    7.8660    0.1560   -3.0720 C   0  0  0  0  0  0  0  0  0  0  0  0
    7.6580    0.1910   -1.7230 C   0  0  0  0  0  0  0  0  0  0  0  0
    6.3740   -0.0080   -1.1950 C   0  0  0  0  0  0  0  0  0  0  0  0
    2.4140   -0.6200    2.3900 C   0  0  0  0  0  0  0  0  0  0  0  0
    1.1930   -1.4240    2.7520 C   0  0  0  0  0  0  0  0  0  0  0  0
    0.0380   -0.7920    2.3740 O   0  0  0  0  0  0  0  0  0  0  0  0
  1  2  2  0
  2  3  1  0
 16  2  1  6
  3  4  1  0
  4  5  1  0
  5  6  1  0
  6  7  1  0
  6 15  1  0
  7  8  2  0
  7  9  1  0
  9 10  1  0
 10 11  1  0
 11 12  2  0
 11 15  1  0
 12 13  1  0
 13 14  1  0
 14 15  2  0
 16 17  1  0
 16 34  1  0
 17 18  1  0
 18 19  1  0
 18 32  1  0
 19 20  2  0
 19 21  1  0
 21 22  1  0
 22 23  2  0
 22 31  1  0
 23 24  1  0
 24 25  2  0
 25 26  1  0
 25 30  1  0
 26 27  2  0
 27 28  1  0
 28 29  2  0
 29 30  1  0
 30 31  2  0
 32 33  1  0
 33 34  1  0
M  END
