
     RDKit          3D

 34 38  0  0  0  0  0  0  0  0999 V2000
   -5.6350    0.3100   -2.9570 C   0  0  0  0  0  0  0  0  0  0  0  0
   -4.9380   -0.0670   -1.6440 C   0  0  0  0  0  0  0  0  0  0  0  0
   -3.5700    0.0840   -1.5950 C   0  0  0  0  0  0  0  0  0  0  0  0
   -2.6270    0.5660   -2.6620 C   0  0  0  0  0  0  0  0  0  0  0  0
   -1.2670    0.5720   -2.1580 N   0  0  0  0  0  0  0  0  0  0  0  0
   -0.8480    1.4110   -1.1030 C   0  0  0  0  0  0  0  0  0  0  0  0
   -1.7530    2.3290   -0.5440 C   0  0  0  0  0  0  0  0  0  0  0  0
   -1.3940    3.1690    0.4720 C   0  0  0  0  0  0  0  0  0  0  0  0
   -0.1110    3.0960    0.9430 C   0  0  0  0  0  0  0  0  0  0  0  0
    0.7960    2.2050    0.4130 C   0  0  0  0  0  0  0  0  0  0  0  0
    0.4360    1.3410   -0.6290 C   0  0  0  0  0  0  0  0  0  0  0  0
    1.4320    0.4430   -1.1390 N   0  0  0  0  0  0  0  0  0  0  0  0
    2.7620    0.3980   -0.5530 C   0  0  0  0  0  0  0  0  0  0  0  0
    2.7110   -0.0450    0.8490 C   0  0  0  0  0  0  0  0  0  0  0  0
    1.6210   -0.7270    1.2270 N   0  0  0  0  0  0  0  0  0  0  0  0
    1.4280   -1.1760    2.4410 N   0  0  0  0  0  0  0  0  0  0  0  0
    2.4090   -0.9130    3.3240 C   0  0  0  0  0  0  0  0  0  0  0  0
    3.5470   -0.2180    2.9900 C   0  0  0  0  0  0  0  0  0  0  0  0
    4.4480    0.0080    3.8700 O   0  0  0  0  0  0  0  0  0  0  0  0
    3.6790    0.2170    1.7100 N   0  0  0  0  0  0  0  0  0  0  0  0
    4.8900    0.9520    1.3570 C   0  0  0  0  0  0  0  0  0  0  0  0
    5.9540    0.0780    0.8340 C   0  0  0  0  0  0  0  0  0  0  0  0
    6.8050   -0.6870    1.5990 C   0  0  0  0  0  0  0  0  0  0  0  0
    7.7930   -1.4740    1.0390 C   0  0  0  0  0  0  0  0  0  0  0  0
    7.9710   -1.5270   -0.3250 C   0  0  0  0  0  0  0  0  0  0  0  0
    7.1380   -0.7760   -1.0920 C   0  0  0  0  0  0  0  0  0  0  0  0
    6.1620    0.0020   -0.5470 C   0  0  0  0  0  0  0  0  0  0  0  0
   -3.1240   -0.4210   -0.0060 S   0  0  0  0  0  0  0  0  0  0  0  0
   -4.8360   -0.8340    0.5670 C   0  0  0  0  0  0  0  0  0  0  0  0
   -5.5350   -0.5310   -0.5370 C   0  0  0  0  0  0  0  0  0  0  0  0
   -7.0410   -0.7770   -0.3730 C   0  0  0  0  0  0  0  0  0  0  0  0
   -7.3060   -2.2280   -0.0780 C   0  0  0  0  0  0  0  0  0  0  0  0
   -6.6840   -2.5320    1.6240 S   0  0  0  0  0  0  0  0  0  0  0  0
   -5.3090   -1.3430    1.8320 C   0  0  0  0  0  0  0  0  0  0  0  0
  1  2  1  0
  2  3  2  0
  2 30  1  0
  3  4  1  0
  3 28  1  0
  4  5  1  0
  5  6  1  0
  6  7  2  0
  6 11  1  0
  7  8  1  0
  8  9  2  0
  9 10  1  0
 10 11  2  0
 11 12  1  0
 12 13  1  0
 13 14  1  0
 14 15  2  0
 14 20  1  0
 15 16  1  0
 16 17  2  0
 17 18  1  0
 18 19  2  0
 18 20  1  0
 20 21  1  0
 21 22  1  0
 22 23  2  0
 22 27  1  0
 23 24  1  0
 24 25  2  0
 25 26  1  0
 26 27  2  0
 28 29  1  0
 29 30  2  0
 29 34  1  0
 30 31  1  0
 31 32  1  0
 32 33  1  0
 33 34  1  0
M  END
