
     RDKit          3D

 33 36  0  0  0  0  0  0  0  0999 V2000
    8.9850    5.3570    1.7570 C   0  0  0  0  0  0  0  0  0  0  0  0
    9.7320    4.5130    2.7200 C   0  0  0  0  0  0  0  0  0  0  0  0
    9.5160    3.2220    2.7970 C   0  0  0  0  0  0  0  0  0  0  0  0
    8.5410    2.5260    1.9550 C   0  0  0  0  0  0  0  0  0  0  0  0
    8.3260    1.2350    2.0340 C   0  0  0  0  0  0  0  0  0  0  0  0
    7.3520    0.5920    1.1820 C   0  0  0  0  0  0  0  0  0  0  0  0
    7.0880   -0.7000    1.2120 C   0  0  0  0  0  0  0  0  0  0  0  0
    6.0940   -1.2410    0.3170 N   0  0  0  0  0  0  0  0  0  0  0  0
    4.9370   -1.8960    0.8050 C   0  0  0  0  0  0  0  0  0  0  0  0
    4.7860   -2.0040    2.0450 O   0  0  0  0  0  0  0  0  0  0  0  0
    3.8900   -2.4610   -0.0860 C   0  0  2  0  0  0  0  0  0  0  0  0
    3.3010   -1.4050   -0.9890 C   0  0  0  0  0  0  0  0  0  0  0  0
    1.9160   -1.5040   -1.1100 N   0  0  0  0  0  0  0  0  0  0  0  0
    1.2330   -2.1600   -0.2930 C   0  0  0  0  0  0  0  0  0  0  0  0
   -0.1610   -2.3450   -0.2870 N   0  0  0  0  0  0  0  0  0  0  0  0
   -1.0770   -1.7770   -1.2280 C   0  0  0  0  0  0  0  0  0  0  0  0
   -0.7030   -1.0630   -2.3370 C   0  0  0  0  0  0  0  0  0  0  0  0
   -1.6680   -0.5400   -3.1810 C   0  0  0  0  0  0  0  0  0  0  0  0
   -3.0280   -0.7350   -2.9080 C   0  0  0  0  0  0  0  0  0  0  0  0
   -4.1860   -0.3520   -3.5330 C   0  0  0  0  0  0  0  0  0  0  0  0
   -5.2410   -0.8280   -2.8110 C   0  0  0  0  0  0  0  0  0  0  0  0
   -4.7730   -1.4920   -1.7610 N   0  0  0  0  0  0  0  0  0  0  0  0
   -5.5790   -2.1390   -0.7690 C   0  0  0  0  0  0  0  0  0  0  0  0
   -5.9280   -1.2670    0.3920 C   0  0  0  0  0  0  0  0  0  0  0  0
   -6.6560   -0.0880    0.0900 N   0  0  0  0  0  0  0  0  0  0  0  0
   -7.9930   -0.3000   -0.3690 C   0  0  0  0  0  0  0  0  0  0  0  0
   -8.6360    0.9440   -0.9370 C   0  0  0  0  0  0  0  0  0  0  0  0
   -8.7920    2.1240    0.4620 S   0  0  0  0  0  0  0  0  0  0  0  0
   -7.6960    1.4180    1.7580 C   0  0  0  0  0  0  0  0  0  0  0  0
   -6.4630    0.9470    1.0350 C   0  0  0  0  0  0  0  0  0  0  0  0
   -3.4320   -1.4480   -1.8020 C   0  0  0  0  0  0  0  0  0  0  0  0
   -2.4350   -1.9570   -0.9790 C   0  0  0  0  0  0  0  0  0  0  0  0
    2.3790   -2.8420    0.8950 S   0  0  0  0  0  0  0  0  0  0  0  0
  1  2  1  0
  2  3  2  3
  3  4  1  0
  4  5  2  3
  5  6  1  0
  6  7  2  3
  7  8  1  0
  8  9  1  0
  9 10  2  0
 11  9  1  1
 11 12  1  0
 11 33  1  0
 12 13  1  0
 13 14  2  0
 14 15  1  0
 14 33  1  0
 15 16  1  0
 16 17  2  0
 16 32  1  0
 17 18  1  0
 18 19  2  0
 19 20  1  0
 19 31  1  0
 20 21  2  0
 21 22  1  0
 22 23  1  0
 22 31  1  0
 23 24  1  0
 24 25  1  0
 25 26  1  0
 25 30  1  0
 26 27  1  0
 27 28  1  0
 28 29  1  0
 29 30  1  0
 31 32  2  0
M  END
