
     RDKit          3D

 34 37  0  0  0  0  0  0  0  0999 V2000
    3.7140    0.2860    3.9140 C   0  0  0  0  0  0  0  0  0  0  0  0
    2.4910    1.1000    3.7250 C   0  0  0  0  0  0  0  0  0  0  0  0
    1.8920    1.7090    4.7810 C   0  0  0  0  0  0  0  0  0  0  0  0
    0.7260    2.4170    4.3340 C   0  0  0  0  0  0  0  0  0  0  0  0
    0.5560    2.2820    3.0500 C   0  0  0  0  0  0  0  0  0  0  0  0
    1.6910    1.4200    2.5650 C   0  0  0  0  0  0  0  0  0  0  0  0
    1.8650    1.1880    1.3070 C   0  0  0  0  0  0  0  0  0  0  0  0
    0.7650    1.6670    0.4110 N   0  0  0  0  0  0  0  0  0  0  0  0
   -0.4620    0.9750    0.3850 C   0  0  0  0  0  0  0  0  0  0  0  0
   -1.4950    1.4080   -0.4410 C   0  0  0  0  0  0  0  0  0  0  0  0
   -2.6860    0.7560   -0.4820 C   0  0  0  0  0  0  0  0  0  0  0  0
   -2.8880   -0.3560    0.3040 C   0  0  0  0  0  0  0  0  0  0  0  0
   -4.2140   -1.0490    0.2310 C   0  0  0  0  0  0  0  0  0  0  0  0
   -5.2490   -1.0190   -0.2760 N   0  0  0  0  0  0  0  0  0  0  0  0
   -6.2930   -1.8070   -0.1420 C   0  0  0  0  0  0  0  0  0  0  0  0
   -7.5980   -1.6740   -0.8570 C   0  0  0  0  0  0  0  0  0  0  0  0
   -8.6890   -2.5010   -0.7130 C   0  0  0  0  0  0  0  0  0  0  0  0
   -9.6750   -2.0280   -1.5480 C   0  0  0  0  0  0  0  0  0  0  0  0
   -9.1530   -0.9420   -2.1630 N   0  0  0  0  0  0  0  0  0  0  0  0
   -7.9260   -0.7340   -1.7540 N   0  0  0  0  0  0  0  0  0  0  0  0
   -7.0590    0.3280   -2.1880 C   0  0  0  0  0  0  0  0  0  0  0  0
   -6.1020   -2.8450    0.7690 C   0  0  0  0  0  0  0  0  0  0  0  0
   -4.4350   -2.5690    1.3310 S   0  0  0  0  0  0  0  0  0  0  0  0
   -1.8750   -0.7710    1.1050 C   0  0  0  0  0  0  0  0  0  0  0  0
   -0.7080   -0.1110    1.1290 N   0  0  0  0  0  0  0  0  0  0  0  0
    2.9790    0.7750    0.4720 C   0  0  0  0  0  0  0  0  0  0  0  0
    4.3590    0.7450    0.9590 C   0  0  0  0  0  0  0  0  0  0  0  0
    2.7220    0.5530   -0.8020 C   0  0  0  0  0  0  0  0  0  0  0  0
    3.4320    0.1510   -1.9660 C   0  0  0  0  0  0  0  0  0  0  0  0
    4.8920   -0.0510   -1.9620 C   0  0  0  0  0  0  0  0  0  0  0  0
    5.3330   -0.5740   -3.3590 C   0  0  0  0  0  0  0  0  0  0  0  0
    6.8310   -0.7530   -3.2700 C   0  0  0  0  0  0  0  0  0  0  0  0
    7.2720   -1.9300   -1.9850 S   0  0  0  0  0  0  0  0  0  0  0  0
    7.4930   -1.1510   -0.6960 O   0  0  0  0  0  0  0  0  0  0  0  0
  1  2  1  0
  2  3  2  0
  2  6  1  0
  3  4  1  0
  4  5  2  0
  5  6  1  0
  6  7  2  3
  7  8  1  0
  7 26  1  0
  8  9  1  0
  9 10  2  0
  9 25  1  0
 10 11  1  0
 11 12  2  0
 12 13  1  0
 12 24  1  0
 13 14  2  0
 13 23  1  0
 14 15  1  0
 15 16  1  0
 15 22  2  0
 16 17  2  0
 16 20  1  0
 17 18  1  0
 18 19  2  0
 19 20  1  0
 20 21  1  0
 22 23  1  0
 24 25  2  0
 26 27  1  0
 26 28  2  3
 28 29  1  0
 29 30  1  0
 30 31  1  0
 31 32  1  0
 32 33  1  0
 33 34  2  0
M  END
