
     RDKit          3D

 35 37  0  0  0  0  0  0  0  0999 V2000
   -7.0280    4.0140    0.4610 C   0  0  0  0  0  0  0  0  0  0  0  0
   -6.9550    2.5800    0.1440 C   0  0  0  0  0  0  0  0  0  0  0  0
   -7.8310    1.6610   -0.2090 C   0  0  0  0  0  0  0  0  0  0  0  0
   -7.4650    0.3840   -0.4240 C   0  0  0  0  0  0  0  0  0  0  0  0
   -6.1490    0.0660   -0.2670 C   0  0  0  0  0  0  0  0  0  0  0  0
   -5.4460   -1.2160   -0.4230 C   0  0  1  0  0  0  0  0  0  0  0  0
   -4.2100   -1.2790    0.3880 C   0  0  0  0  0  0  0  0  0  0  0  0
   -3.2130   -0.2690   -0.0490 C   0  0  0  0  0  0  0  0  0  0  0  0
   -2.9640    0.8100    0.5280 O   0  0  0  0  0  0  0  0  0  0  0  0
   -2.4610   -0.5330   -1.2260 O   0  0  0  0  0  0  0  0  0  0  0  0
   -1.4450    0.4510   -1.5540 C   0  0  0  0  0  0  0  0  0  0  0  0
   -0.4800    0.4090   -0.3900 C   0  0  0  0  0  0  0  0  0  0  0  0
   -0.8190   -0.2060    0.6350 O   0  0  0  0  0  0  0  0  0  0  0  0
    0.8150    1.0050   -0.3960 N   0  0  0  0  0  0  0  0  0  0  0  0
    1.6780    0.8690    0.7320 C   0  0  2  0  0  0  0  0  0  0  0  0
    2.9960    1.5320    0.4170 C   0  0  0  0  0  0  0  0  0  0  0  0
    3.2590    2.7120    0.7520 O   0  0  0  0  0  0  0  0  0  0  0  0
    3.8880    0.7210   -0.2840 N   0  0  0  0  0  0  0  0  0  0  0  0
    5.1820    0.8450   -0.7300 C   0  0  0  0  0  0  0  0  0  0  0  0
    5.6600    1.5560   -1.8080 C   0  0  0  0  0  0  0  0  0  0  0  0
    6.9700    1.4930   -2.2130 C   0  0  0  0  0  0  0  0  0  0  0  0
    7.9070    0.7070   -1.5570 C   0  0  0  0  0  0  0  0  0  0  0  0
    7.4580   -0.0010   -0.4800 C   0  0  0  0  0  0  0  0  0  0  0  0
    6.1540    0.0450   -0.0580 C   0  0  0  0  0  0  0  0  0  0  0  0
    8.6710   -0.6780    0.1060 C   0  0  0  0  0  0  0  0  0  0  0  0
    9.6670   -0.6210   -0.9630 C   0  0  0  0  0  0  0  0  0  0  0  0
   10.7210   -1.3250   -1.0560 O   0  0  0  0  0  0  0  0  0  0  0  0
    9.2530    0.3830   -1.8990 N   0  0  0  0  0  0  0  0  0  0  0  0
    1.7770   -0.3950    1.4640 C   0  0  1  0  0  0  0  0  0  0  0  0
    2.2480   -1.6050    0.7530 C   0  0  0  0  0  0  0  0  0  0  0  0
    2.6520   -0.1220    2.7180 C   0  0  0  0  0  0  0  0  0  0  0  0
   -6.3780   -2.3600   -0.0820 C   0  0  1  0  0  0  0  0  0  0  0  0
   -5.5400   -3.6380   -0.2560 C   0  0  0  0  0  0  0  0  0  0  0  0
   -6.7950   -2.2850    1.2140 O   0  0  0  0  0  0  0  0  0  0  0  0
   -5.4110    1.6020    0.2000 S   0  0  0  0  0  0  0  0  0  0  0  0
  1  2  1  0
  2  3  2  0
  2 35  1  0
  3  4  1  0
  4  5  2  0
  5  6  1  0
  5 35  1  0
  6  7  1  1
  6 32  1  0
  7  8  1  0
  8  9  2  0
  8 10  1  0
 10 11  1  0
 11 12  1  0
 12 13  2  0
 12 14  1  0
 15 14  1  6
 15 16  1  0
 15 29  1  0
 16 17  2  0
 16 18  1  0
 18 19  1  0
 19 20  2  0
 19 24  1  0
 20 21  1  0
 21 22  2  0
 22 23  1  0
 22 28  1  0
 23 24  2  0
 23 25  1  0
 25 26  1  0
 26 27  2  0
 26 28  1  0
 29 30  1  6
 29 31  1  0
 32 33  1  1
 32 34  1  0
M  END
