
     RDKit          3D

 18 19  0  0  0  0  0  0  0  0999 V2000
   -0.5670   -0.5780    1.5550 N   0  0  0  0  0  0  0  0  0  0  0  0
   -0.5870   -0.1230    0.1990 C   0  0  1  0  0  0  0  0  0  0  0  0
    0.5090   -0.6500   -0.6620 C   0  0  0  0  0  0  0  0  0  0  0  0
    1.9070   -0.3570   -0.2770 C   0  0  1  0  0  0  0  0  0  0  0  0
    2.7730   -1.0560   -1.3500 C   0  0  0  0  0  0  0  0  0  0  0  0
    4.0970   -1.3970   -0.7220 C   0  0  0  0  0  0  0  0  0  0  0  0
    4.9920   -0.2270   -0.4780 C   0  0  0  0  0  0  0  0  0  0  0  0
    4.6230    0.6150    1.0890 S   0  0  0  0  0  0  0  0  0  0  0  0
    3.0470    1.5010    0.9520 C   0  0  0  0  0  0  0  0  0  0  0  0
    2.3240    1.0850   -0.3390 C   0  0  2  0  0  0  0  0  0  0  0  0
    1.3080    1.9670   -0.6740 O   0  0  0  0  0  0  0  0  0  0  0  0
   -1.8870   -0.4620   -0.4280 C   0  0  0  0  0  0  0  0  0  0  0  0
   -3.1190    0.0940    0.1430 C   0  0  1  0  0  0  0  0  0  0  0  0
   -3.1340    1.5100    0.1380 O   0  0  0  0  0  0  0  0  0  0  0  0
   -4.3410   -0.3150   -0.7040 C   0  0  0  0  0  0  0  0  0  0  0  0
   -5.4530   -0.1810    0.2890 C   0  0  0  0  0  0  0  0  0  0  0  0
   -4.8940    0.1540    1.5050 O   0  0  0  0  0  0  0  0  0  0  0  0
   -3.5620   -0.3450    1.4840 C   0  0  0  0  0  0  0  0  0  0  0  0
  2  1  1  1
  2  3  1  0
  2 12  1  0
  4  3  1  6
  4  5  1  0
  4 10  1  0
  5  6  1  0
  6  7  1  0
  7  8  1  0
  8  9  1  0
  9 10  1  0
 10 11  1  1
 12 13  1  0
 13 14  1  1
 13 15  1  0
 13 18  1  0
 15 16  1  0
 16 17  1  0
 17 18  1  0
M  CHG  1   1   1
M  END
