
     RDKit          3D

 17 18  0  0  0  0  0  0  0  0999 V2000
   -2.3040    0.8510    1.6220 C   0  0  0  0  0  0  0  0  0  0  0  0
   -2.3140    0.6190    0.1310 C   0  0  2  0  0  0  0  0  0  0  0  0
   -1.3950    1.4870   -0.6280 C   0  0  0  0  0  0  0  0  0  0  0  0
   -0.0600    1.3390   -0.4720 O   0  0  0  0  0  0  0  0  0  0  0  0
    0.5130    0.1590   -0.8090 C   0  0  1  0  0  0  0  0  0  0  0  0
    1.5980    0.2610   -1.8520 C   0  0  0  0  0  0  0  0  0  0  0  0
    2.7850   -0.5190   -1.3260 C   0  0  0  0  0  0  0  0  0  0  0  0
    2.6850   -0.2200    0.1660 C   0  0  1  0  0  0  0  0  0  0  0  0
    3.5490   -1.1110    0.9930 C   0  0  0  0  0  0  0  0  0  0  0  0
    3.0970    1.2010    0.3780 C   0  0  0  0  0  0  0  0  0  0  0  0
    4.4100    1.3430   -0.0710 O   0  0  0  0  0  0  0  0  0  0  0  0
    1.2070   -0.4480    0.3970 C   0  0  2  0  0  0  0  0  0  0  0  0
    0.9870   -1.8790    0.3410 N   0  0  0  0  0  0  0  0  0  0  0  0
   -3.7320    0.8970   -0.3910 C   0  0  0  0  0  0  0  0  0  0  0  0
   -4.4990   -0.2890    0.1400 C   0  0  0  0  0  0  0  0  0  0  0  0
   -3.3980   -1.2980    0.3640 C   0  0  0  0  0  0  0  0  0  0  0  0
   -2.2210   -0.7330   -0.0780 O   0  0  0  0  0  0  0  0  0  0  0  0
  2  1  1  1
  2  3  1  0
  2 14  1  0
  2 17  1  0
  3  4  1  0
  5  4  1  1
  5  6  1  0
  5 12  1  0
  6  7  1  0
  7  8  1  0
  8  9  1  1
  8 10  1  0
  8 12  1  0
 10 11  1  0
 12 13  1  6
 14 15  1  0
 15 16  1  0
 16 17  1  0
M  CHG  1  13   1
M  END
