
     RDKit          3D

 18 19  0  0  0  0  0  0  0  0999 V2000
    0.3360    1.3000   -1.3240 C   0  0  0  0  0  0  0  0  0  0  0  0
   -0.0030    0.4740   -0.1190 C   0  0  1  0  0  0  0  0  0  0  0  0
   -1.1480   -0.3190   -0.3930 N   0  0  0  0  0  0  0  0  0  0  0  0
   -2.4130    0.2690   -0.1150 C   0  0  1  0  0  0  0  0  0  0  0  0
   -3.4530   -0.7220   -0.6370 C   0  0  0  0  0  0  0  0  0  0  0  0
   -4.7450   -0.6470    0.0910 C   0  0  0  0  0  0  0  0  0  0  0  0
   -5.2020    1.0530    0.5360 S   0  0  0  0  0  0  0  0  0  0  0  0
   -3.6960    1.7860    1.2890 C   0  0  0  0  0  0  0  0  0  0  0  0
   -2.6600    0.6530    1.2930 C   0  0  0  0  0  0  0  0  0  0  0  0
    1.1200   -0.4600    0.2890 C   0  0  1  0  0  0  0  0  0  0  0  0
    0.6430   -1.1310    1.4410 O   0  0  0  0  0  0  0  0  0  0  0  0
    1.3820   -1.5280   -0.7360 C   0  0  0  0  0  0  0  0  0  0  0  0
    2.3860   -1.1330   -1.7680 C   0  0  0  0  0  0  0  0  0  0  0  0
    3.3990   -0.3340   -1.3210 O   0  0  0  0  0  0  0  0  0  0  0  0
    3.5400   -0.4690    0.0370 C   0  0  1  0  0  0  0  0  0  0  0  0
    4.8630    0.0520    0.5480 C   0  0  0  0  0  0  0  0  0  0  0  0
    5.0560    1.3900    0.2850 O   0  0  0  0  0  0  0  0  0  0  0  0
    2.3670    0.2480    0.6890 C   0  0  0  0  0  0  0  0  0  0  0  0
  2  1  1  6
  2  3  1  0
  2 10  1  0
  4  3  1  1
  4  5  1  0
  4  9  1  0
  5  6  1  0
  6  7  1  0
  7  8  1  0
  8  9  1  0
 10 11  1  1
 10 12  1  0
 10 18  1  0
 12 13  1  0
 13 14  1  0
 14 15  1  0
 15 16  1  1
 15 18  1  0
 16 17  1  0
M  CHG  1   3   1
M  END
