
     RDKit          3D

  9  9  0  0  0  0  0  0  0  0999 V2000
    2.4610   -0.8390    0.5560 C   0  0  0  0  0  0  0  0  0  0  0  0
    1.9000    0.4520    0.4840 O   0  0  0  0  0  0  0  0  0  0  0  0
    0.5650    0.5830    0.1350 C   0  0  0  0  0  0  0  0  0  0  0  0
   -0.0530    1.8170    0.0440 C   0  0  0  0  0  0  0  0  0  0  0  0
   -1.3480    1.8780   -0.2980 N   0  0  0  0  0  0  0  0  0  0  0  0
   -2.0630    0.7430   -0.5580 C   0  0  0  0  0  0  0  0  0  0  0  0
   -1.4600   -0.4920   -0.4720 C   0  0  0  0  0  0  0  0  0  0  0  0
   -2.1790   -1.6760   -0.7360 O   0  0  0  0  0  0  0  0  0  0  0  0
   -0.1630   -0.5400   -0.1280 N   0  0  0  0  0  0  0  0  0  0  0  0
  1  2  1  0
  2  3  1  0
  3  4  2  0
  3  9  1  0
  4  5  1  0
  5  6  2  0
  6  7  1  0
  7  8  1  0
  7  9  2  0
M  END
