
     RDKit          3D

  9  9  0  0  0  0  0  0  0  0999 V2000
   -2.4120   -0.4160    0.2870 C   0  0  0  0  0  0  0  0  0  0  0  0
   -1.4400    0.5860   -0.0950 N   0  0  0  0  0  0  0  0  0  0  0  0
   -0.0460    0.3170   -0.0960 C   0  0  0  0  0  0  0  0  0  0  0  0
    0.4180   -0.9190    0.2710 N   0  0  0  0  0  0  0  0  0  0  0  0
    1.7400   -1.1660    0.2670 C   0  0  0  0  0  0  0  0  0  0  0  0
    2.5620   -0.1260   -0.1170 C   0  0  0  0  0  0  0  0  0  0  0  0
    2.1000    1.0520   -0.4650 O   0  0  0  0  0  0  0  0  0  0  0  0
    0.8160    1.3200   -0.4700 C   0  0  0  0  0  0  0  0  0  0  0  0
    0.3420    2.4300   -0.7960 O   0  0  0  0  0  0  0  0  0  0  0  0
  1  2  1  0
  2  3  1  0
  3  4  2  0
  3  8  1  0
  4  5  1  0
  5  6  2  0
  6  7  1  0
  7  8  1  0
  8  9  2  0
M  END
