
     RDKit          3D

 10 10  0  0  0  0  0  0  0  0999 V2000
   -2.6540    0.2330   -0.4060 C   0  0  0  0  0  0  0  0  0  0  0  0
   -1.5300   -0.0900    0.5410 C   0  0  2  0  0  0  0  0  0  0  0  0
   -1.4430    0.9620    1.6160 C   0  0  0  0  0  0  0  0  0  0  0  0
   -0.2240   -0.3550   -0.1490 C   0  0  1  0  0  0  0  0  0  0  0  0
   -0.4990   -1.5600   -1.0700 C   0  0  0  0  0  0  0  0  0  0  0  0
    0.2740    0.7470   -0.9950 C   0  0  0  0  0  0  0  0  0  0  0  0
    1.5980    1.3240   -0.6700 C   0  0  0  0  0  0  0  0  0  0  0  0
    2.5800    0.4300   -0.0170 C   0  0  0  0  0  0  0  0  0  0  0  0
    2.0960   -0.9610    0.2530 C   0  0  0  0  0  0  0  0  0  0  0  0
    0.7450   -0.8570    0.8830 C   0  0  0  0  0  0  0  0  0  0  0  0
  2  1  1  6
  2  3  1  0
  2  4  1  0
  4  5  1  6
  4  6  1  0
  4 10  1  0
  6  7  1  0
  7  8  1  0
  8  9  1  0
  9 10  1  0
M  END
