
     RDKit          3D

 10 10  0  0  0  0  0  0  0  0999 V2000
   -2.4800    0.0440    0.9240 C   0  0  0  0  0  0  0  0  0  0  0  0
   -1.2890   -0.0600   -0.0420 C   0  0  1  0  0  0  0  0  0  0  0  0
   -1.8890   -0.6090   -1.3400 C   0  0  0  0  0  0  0  0  0  0  0  0
   -0.7890    1.3020   -0.2770 C   0  0  0  0  0  0  0  0  0  0  0  0
    0.4460    1.7000    0.4340 C   0  0  0  0  0  0  0  0  0  0  0  0
    1.6330    1.2020   -0.3840 C   0  0  0  0  0  0  0  0  0  0  0  0
    2.3910    0.2220    0.4410 C   0  0  0  0  0  0  0  0  0  0  0  0
    2.1290   -1.2040    0.1480 C   0  0  0  0  0  0  0  0  0  0  0  0
    0.7410   -1.5090   -0.3420 C   0  0  0  0  0  0  0  0  0  0  0  0
   -0.3400   -1.0320    0.5710 C   0  0  0  0  0  0  0  0  0  0  0  0
  2  1  1  1
  2  3  1  0
  2  4  1  0
  2 10  1  0
  4  5  1  0
  5  6  1  0
  6  7  1  0
  7  8  1  0
  8  9  1  0
  9 10  1  0
M  END
