
     RDKit          3D

 12 12  0  0  0  0  0  0  0  0999 V2000
   -3.7260   -0.4280    0.2290 C   0  0  0  0  0  0  0  0  0  0  0  0
   -2.3460   -0.2660    0.1620 O   0  0  0  0  0  0  0  0  0  0  0  0
   -1.8820   -0.4620   -1.1310 C   0  0  0  0  0  0  0  0  0  0  0  0
   -0.3770   -0.2880   -1.2140 C   0  0  0  0  0  0  0  0  0  0  0  0
    0.1730   -0.4390   -2.3340 O   0  0  0  0  0  0  0  0  0  0  0  0
    0.2670    0.0320   -0.0080 N   0  0  0  0  0  0  0  0  0  0  0  0
    1.7210    0.2220    0.0170 C   0  0  0  0  0  0  0  0  0  0  0  0
    2.4750    0.0940   -1.1150 C   0  0  0  0  0  0  0  0  0  0  0  0
    4.2270    0.4240   -0.5700 S   0  0  0  0  0  0  0  0  0  0  0  0
    3.7170    0.6950    1.1310 C   0  0  0  0  0  0  0  0  0  0  0  0
    2.3690    0.5300    1.1590 C   0  0  0  0  0  0  0  0  0  0  0  0
    1.6950    0.6900    2.4010 O   0  0  0  0  0  0  0  0  0  0  0  0
  1  2  1  0
  2  3  1  0
  3  4  1  0
  4  5  2  0
  4  6  1  0
  6  7  1  0
  7  8  2  0
  7 11  1  0
  8  9  1  0
  9 10  1  0
 10 11  2  0
 11 12  1  0
M  END
