
     RDKit          3D

 12 12  0  0  0  0  0  0  0  0999 V2000
    4.7980    0.6430    0.0150 C   0  0  0  0  0  0  0  0  0  0  0  0
    3.7890   -0.8050   -0.4100 S   0  0  0  0  0  0  0  0  0  0  0  0
    2.4360   -1.0800    0.7230 C   0  0  0  0  0  0  0  0  0  0  0  0
    1.3710   -0.0250    0.6550 C   0  0  0  0  0  0  0  0  0  0  0  0
    1.7070    1.1570    0.7600 O   0  0  0  0  0  0  0  0  0  0  0  0
    0.0110   -0.3990    0.4680 N   0  0  0  0  0  0  0  0  0  0  0  0
   -1.0360    0.5670    0.3970 C   0  0  0  0  0  0  0  0  0  0  0  0
   -2.3850   -0.0690    0.1780 C   0  0  1  0  0  0  0  0  0  0  0  0
   -2.7890   -0.9600    1.1470 O   0  0  0  0  0  0  0  0  0  0  0  0
   -3.4320    0.9500   -0.1790 C   0  0  0  0  0  0  0  0  0  0  0  0
   -3.9850   -0.0200   -1.0390 O   0  0  0  0  0  0  0  0  0  0  0  0
   -2.6850   -0.5150   -1.2200 C   0  0  0  0  0  0  0  0  0  0  0  0
  1  2  1  0
  2  3  1  0
  3  4  1  0
  4  5  2  0
  4  6  1  0
  6  7  1  0
  7  8  1  0
  8  9  1  1
  8 10  1  0
  8 12  1  0
 10 11  1  0
 11 12  1  0
M  END
