
     RDKit          3D

 12 12  0  0  0  0  0  0  0  0999 V2000
    0.5940   -0.1390   -2.2990 O   0  0  0  0  0  0  0  0  0  0  0  0
    0.1530   -0.1440   -1.1000 C   0  0  0  0  0  0  0  0  0  0  0  0
    1.0060   -0.3890    0.0010 N   0  0  0  0  0  0  0  0  0  0  0  0
    2.4160   -0.6460   -0.1740 C   0  0  0  0  0  0  0  0  0  0  0  0
    3.0930   -0.8750    1.1600 C   0  0  0  0  0  0  0  0  0  0  0  0
    2.9570    0.2420    1.9820 O   0  0  0  0  0  0  0  0  0  0  0  0
   -1.2550    0.1080   -0.8490 C   0  0  0  0  0  0  0  0  0  0  0  0
   -2.2430    0.3670   -1.7960 C   0  0  0  0  0  0  0  0  0  0  0  0
   -3.3950    0.5340   -1.0640 C   0  0  0  0  0  0  0  0  0  0  0  0
   -3.0970    0.3760    0.2790 C   0  0  0  0  0  0  0  0  0  0  0  0
   -4.2570    0.4970    1.6480 S   0  0  0  0  0  0  0  0  0  0  0  0
   -1.8130    0.1260    0.3340 O   0  0  0  0  0  0  0  0  0  0  0  0
  1  2  2  0
  2  3  1  0
  2  7  1  0
  3  4  1  0
  4  5  1  0
  5  6  1  0
  7  8  2  0
  7 12  1  0
  8  9  1  0
  9 10  2  0
 10 11  1  0
 10 12  1  0
M  END
