
     RDKit          3D

 12 12  0  0  0  0  0  0  0  0999 V2000
    4.3830   -0.1920    0.3280 C   0  0  0  0  0  0  0  0  0  0  0  0
    2.9140    0.0360    0.3350 C   0  0  0  0  0  0  0  0  0  0  0  0
    2.4100    1.0180    0.9400 O   0  0  0  0  0  0  0  0  0  0  0  0
    2.0200   -0.8040   -0.3120 O   0  0  0  0  0  0  0  0  0  0  0  0
    0.6140   -0.5210   -0.2620 C   0  0  0  0  0  0  0  0  0  0  0  0
   -0.3140   -0.9080    0.6040 C   0  0  0  0  0  0  0  0  0  0  0  0
   -1.5860   -0.5000    0.4280 C   0  0  0  0  0  0  0  0  0  0  0  0
   -1.8350    0.2850   -0.6300 C   0  0  0  0  0  0  0  0  0  0  0  0
   -3.1460    0.8760   -1.0580 C   0  0  0  0  0  0  0  0  0  0  0  0
   -4.3150    0.6440   -0.3390 N   0  0  0  0  0  0  0  0  0  0  0  0
   -3.1960    1.5980   -2.0910 O   0  0  0  0  0  0  0  0  0  0  0  0
   -0.2910    0.4680   -1.4010 S   0  0  0  0  0  0  0  0  0  0  0  0
  1  2  1  0
  2  3  2  0
  2  4  1  0
  4  5  1  0
  5  6  2  0
  5 12  1  0
  6  7  1  0
  7  8  2  0
  8  9  1  0
  8 12  1  0
  9 10  1  0
  9 11  2  0
M  END
