
     RDKit          3D

 12 11  0  0  0  0  0  0  0  0999 V2000
   -1.8450   -0.5590   -1.3970 C   0  0  0  0  0  0  0  0  0  0  0  0
   -1.5910   -0.0390   -0.0210 C   0  0  2  0  0  0  0  0  0  0  0  0
   -1.3430   -1.2020    0.9180 C   0  0  0  0  0  0  0  0  0  0  0  0
   -2.8870    0.6290    0.4490 C   0  0  0  0  0  0  0  0  0  0  0  0
   -0.5460    0.9570    0.0250 N   0  0  0  0  0  0  0  0  0  0  0  0
    0.7500    0.5720   -0.4200 C   0  0  0  0  0  0  0  0  0  0  0  0
    0.9490   -0.6010   -0.8340 O   0  0  0  0  0  0  0  0  0  0  0  0
    1.8540    1.5890   -0.3830 C   0  0  0  0  0  0  0  0  0  0  0  0
    3.3620    0.7950   -1.0140 S   0  0  0  0  0  0  0  0  0  0  0  0
    3.9130   -0.4930    0.0810 C   0  0  0  0  0  0  0  0  0  0  0  0
    3.2680   -0.7410    1.1430 O   0  0  0  0  0  0  0  0  0  0  0  0
    5.0320   -1.2590   -0.1640 O   0  0  0  0  0  0  0  0  0  0  0  0
  2  1  1  6
  2  3  1  0
  2  4  1  0
  2  5  1  0
  5  6  1  0
  6  7  2  0
  6  8  1  0
  8  9  1  0
  9 10  1  0
 10 11  2  0
 10 12  1  0
M  END
