
     RDKit          3D

 12 12  0  0  0  0  0  0  0  0999 V2000
    4.5660   -0.0200   -0.0360 C   0  0  0  0  0  0  0  0  0  0  0  0
    3.3010   -0.5210    0.4180 O   0  0  0  0  0  0  0  0  0  0  0  0
    2.1570    0.1330   -0.0310 C   0  0  0  0  0  0  0  0  0  0  0  0
    2.2890    1.1320   -0.8150 O   0  0  0  0  0  0  0  0  0  0  0  0
    0.8440   -0.2910    0.3660 N   0  0  0  0  0  0  0  0  0  0  0  0
   -0.2650    0.4550   -0.1570 C   0  0  0  0  0  0  0  0  0  0  0  0
   -1.5680   -0.0190    0.2790 C   0  0  0  0  0  0  0  0  0  0  0  0
   -1.8180   -1.0800    1.1170 C   0  0  0  0  0  0  0  0  0  0  0  0
   -3.1570   -1.2030    1.2810 N   0  0  0  0  0  0  0  0  0  0  0  0
   -3.7790   -0.2370    0.5620 C   0  0  0  0  0  0  0  0  0  0  0  0
   -2.7910    0.5070   -0.0670 C   0  0  0  0  0  0  0  0  0  0  0  0
   -3.0810    1.5860   -0.8910 O   0  0  0  0  0  0  0  0  0  0  0  0
  1  2  1  0
  2  3  1  0
  3  4  2  0
  3  5  1  0
  5  6  1  0
  6  7  1  0
  7  8  2  0
  7 11  1  0
  8  9  1  0
  9 10  1  0
 10 11  2  0
 11 12  1  0
M  END
