
     RDKit          3D

 12 12  0  0  0  0  0  0  0  0999 V2000
    3.4120   -0.6610    0.3210 C   0  0  0  0  0  0  0  0  0  0  0  0
    1.9030   -0.4930    0.3190 C   0  0  0  0  0  0  0  0  0  0  0  0
    1.1680    0.5080   -0.1810 C   0  0  0  0  0  0  0  0  0  0  0  0
   -0.1910    0.4490   -0.0670 C   0  0  0  0  0  0  0  0  0  0  0  0
   -1.0160    1.6610   -0.4260 C   0  0  0  0  0  0  0  0  0  0  0  0
   -2.2090    1.7650   -0.1520 O   0  0  0  0  0  0  0  0  0  0  0  0
   -0.4570    2.7400   -1.0980 O   0  0  0  0  0  0  0  0  0  0  0  0
   -0.7630   -0.5990    0.5280 C   0  0  0  0  0  0  0  0  0  0  0  0
   -1.9870   -1.2200    0.7150 N   0  0  0  0  0  0  0  0  0  0  0  0
   -3.1680   -1.1580   -0.0350 C   0  0  0  0  0  0  0  0  0  0  0  0
   -3.2460   -0.4930   -1.0860 O   0  0  0  0  0  0  0  0  0  0  0  0
    0.7780   -1.6040    0.9890 S   0  0  0  0  0  0  0  0  0  0  0  0
  1  2  1  0
  2  3  2  0
  2 12  1  0
  3  4  1  0
  4  5  1  0
  4  8  2  0
  5  6  2  0
  5  7  1  0
  8  9  1  0
  8 12  1  0
  9 10  1  0
 10 11  2  0
M  END
