
     RDKit          3D

 26 28  0  0  0  0  0  0  0  0999 V2000
   -6.3660   -0.7190   -2.5380 C   0  0  0  0  0  0  0  0  0  0  0  0
   -5.2960    0.0410   -1.7750 C   0  0  0  0  0  0  0  0  0  0  0  0
   -4.5600   -0.1080   -0.8930 N   0  0  0  0  0  0  0  0  0  0  0  0
   -3.6820    0.7070   -0.3690 C   0  0  0  0  0  0  0  0  0  0  0  0
   -2.7620    0.4400    0.7780 C   0  0  0  0  0  0  0  0  0  0  0  0
   -1.9260    1.3670    1.1950 C   0  0  0  0  0  0  0  0  0  0  0  0
   -1.0760    1.0630    2.2860 N   0  0  0  0  0  0  0  0  0  0  0  0
    0.2970    0.7240    2.1200 C   0  0  0  0  0  0  0  0  0  0  0  0
    0.9020    0.6630    0.9120 C   0  0  0  0  0  0  0  0  0  0  0  0
    2.2740    0.3200    0.7950 C   0  0  0  0  0  0  0  0  0  0  0  0
    2.8830    0.2620   -0.4500 N   0  0  0  0  0  0  0  0  0  0  0  0
    4.2100   -0.0590   -0.7250 C   0  0  0  0  0  0  0  0  0  0  0  0
    4.6970   -0.0540   -2.0520 C   0  0  0  0  0  0  0  0  0  0  0  0
    5.9940   -0.3650   -2.3680 C   0  0  0  0  0  0  0  0  0  0  0  0
    6.8740   -0.6980   -1.3730 C   0  0  0  0  0  0  0  0  0  0  0  0
    6.4470   -0.7120   -0.1120 N   0  0  0  0  0  0  0  0  0  0  0  0
    5.1560   -0.4030    0.2100 C   0  0  0  0  0  0  0  0  0  0  0  0
    2.8920    0.0710    1.9500 N   0  0  0  0  0  0  0  0  0  0  0  0
    2.3080    0.1290    3.1320 C   0  0  0  0  0  0  0  0  0  0  0  0
    1.0140    0.4540    3.2220 N   0  0  0  0  0  0  0  0  0  0  0  0
   -2.7960   -1.1200    1.5730 S   0  0  2  0  0  0  0  0  0  0  0  0
   -1.6590   -2.1450    0.7580 N   0  0  0  0  0  0  0  0  0  0  0  0
   -4.1940   -1.6840    1.3630 O   0  0  0  0  0  0  0  0  0  0  0  0
   -2.5180   -1.0000    3.0220 O   0  0  0  0  0  0  0  0  0  0  0  0
   -3.6410    1.9590   -0.9920 C   0  0  0  0  0  0  0  0  0  0  0  0
   -4.9160    1.7890   -2.2920 S   0  0  0  0  0  0  0  0  0  0  0  0
  1  2  1  0
  2  3  2  0
  2 26  1  0
  3  4  1  0
  4  5  1  0
  4 25  2  0
  5  6  2  3
  5 21  1  0
  6  7  1  0
  7  8  1  0
  8  9  2  0
  8 20  1  0
  9 10  1  0
 10 11  1  0
 10 18  2  0
 11 12  1  0
 12 13  2  0
 12 17  1  0
 13 14  1  0
 14 15  2  0
 15 16  1  0
 16 17  2  0
 18 19  1  0
 19 20  2  0
 21 22  1  6
 21 23  2  0
 21 24  2  0
 25 26  1  0
M  END
