
     RDKit          3D

 27 29  0  0  0  0  0  0  0  0999 V2000
    4.5380    2.0100    5.0880 C   0  0  0  0  0  0  0  0  0  0  0  0
    4.1260    1.6710    4.0230 C   0  0  0  0  0  0  0  0  0  0  0  0
    4.7710    1.3890    2.7190 C   0  0  0  0  0  0  0  0  0  0  0  0
    4.2640    1.0690    1.7460 C   0  0  0  0  0  0  0  0  0  0  0  0
    4.3170    0.6710    0.2930 C   0  0  0  0  0  0  0  0  0  0  0  0
    3.5510    0.4620   -0.5260 C   0  0  0  0  0  0  0  0  0  0  0  0
    2.0750    0.4930   -0.4020 C   0  0  1  0  0  0  0  0  0  0  0  0
    1.5500   -0.9360   -0.4880 C   0  0  0  0  0  0  0  0  0  0  0  0
    1.2820   -1.4450   -1.8450 C   0  0  0  0  0  0  0  0  0  0  0  0
   -0.0140   -2.2170   -1.9680 C   0  0  0  0  0  0  0  0  0  0  0  0
   -0.9900   -2.0400   -0.8420 C   0  0  0  0  0  0  0  0  0  0  0  0
   -2.2660   -2.5220   -1.2590 N   0  0  0  0  0  0  0  0  0  0  0  0
   -3.5460   -1.8890   -1.1100 C   0  0  0  0  0  0  0  0  0  0  0  0
   -4.5830   -2.5980   -0.6530 N   0  0  0  0  0  0  0  0  0  0  0  0
   -5.8350   -2.1960   -0.4740 C   0  0  0  0  0  0  0  0  0  0  0  0
   -6.1050   -0.8890   -0.7970 C   0  0  0  0  0  0  0  0  0  0  0  0
   -5.0930   -0.0870   -1.2770 C   0  0  0  0  0  0  0  0  0  0  0  0
   -3.8050   -0.5510   -1.4490 C   0  0  0  0  0  0  0  0  0  0  0  0
   -2.8030    0.3950   -2.0020 C   0  0  0  0  0  0  0  0  0  0  0  0
   -2.7240    1.6370   -1.3480 N   0  0  0  0  0  0  0  0  0  0  0  0
   -1.0420    2.0670   -0.9810 S   0  0  2  0  0  0  0  0  0  0  0  0
   -0.9040    3.5730   -1.1460 O   0  0  0  0  0  0  0  0  0  0  0  0
   -0.2210    1.4850   -2.0890 O   0  0  0  0  0  0  0  0  0  0  0  0
   -0.6770    1.5740    0.6050 C   0  0  0  0  0  0  0  0  0  0  0  0
    0.3270    1.1920    1.2980 C   0  0  0  0  0  0  0  0  0  0  0  0
    1.7710    0.9980    0.9450 C   0  0  0  0  0  0  0  0  0  0  0  0
    2.6180    1.1940    1.8560 C   0  0  0  0  0  0  0  0  0  0  0  0
  1  2  2  0
  2  3  1  0
  3  4  2  3
  4  5  1  0
  4 27  1  0
  5  6  2  0
  6  7  1  0
  7  8  1  1
  7 26  1  0
  8  9  1  0
  9 10  1  0
 10 11  1  0
 11 12  1  0
 12 13  1  0
 13 14  2  0
 13 18  1  0
 14 15  1  0
 15 16  2  0
 16 17  1  0
 17 18  2  0
 18 19  1  0
 19 20  1  0
 21 20  1  6
 21 22  2  0
 21 23  2  0
 21 24  1  0
 24 25  2  0
 25 26  1  0
 26 27  2  0
M  END
