
     RDKit          3D

 25 28  0  0  0  0  0  0  0  0999 V2000
   -5.4160    0.6280    3.1670 N   0  0  0  0  0  0  0  0  0  0  0  0
   -5.7980    0.3810    1.8160 C   0  0  0  0  0  0  0  0  0  0  0  0
   -7.0480    0.3310    1.5380 N   0  0  0  0  0  0  0  0  0  0  0  0
   -4.7780    0.1890    0.7770 C   0  0  0  0  0  0  0  0  0  0  0  0
   -5.0630   -0.0540   -0.5450 C   0  0  0  0  0  0  0  0  0  0  0  0
   -4.0790   -0.2290   -1.4950 C   0  0  0  0  0  0  0  0  0  0  0  0
   -2.7280   -0.1670   -1.1460 C   0  0  0  0  0  0  0  0  0  0  0  0
   -1.6050   -0.3000   -1.8650 N   0  0  0  0  0  0  0  0  0  0  0  0
   -0.5570   -0.1440   -1.0130 C   0  0  0  0  0  0  0  0  0  0  0  0
    0.8420   -0.2300   -1.4720 C   0  0  0  0  0  0  0  0  0  0  0  0
    1.1140   -0.4730   -2.7990 C   0  0  0  0  0  0  0  0  0  0  0  0
    2.4070   -0.5610   -3.2720 C   0  0  0  0  0  0  0  0  0  0  0  0
    3.4310   -0.3980   -2.3780 C   0  0  0  0  0  0  0  0  0  0  0  0
    3.1820   -0.1530   -1.0490 C   0  0  0  0  0  0  0  0  0  0  0  0
    4.2830    0.0620   -0.1050 C   0  0  0  0  0  0  0  0  0  0  0  0
    5.2660   -0.9080    0.0520 C   0  0  0  0  0  0  0  0  0  0  0  0
    6.3360   -0.7620    0.8910 C   0  0  0  0  0  0  0  0  0  0  0  0
    6.4760    0.3980    1.6350 C   0  0  0  0  0  0  0  0  0  0  0  0
    5.5110    1.3710    1.4920 C   0  0  0  0  0  0  0  0  0  0  0  0
    4.4220    1.2130    0.6320 C   0  0  0  0  0  0  0  0  0  0  0  0
    1.8760   -0.0680   -0.5850 C   0  0  0  0  0  0  0  0  0  0  0  0
    1.6710    0.1730    0.7560 O   0  0  0  0  0  0  0  0  0  0  0  0
   -1.0440    0.0880    0.2490 C   0  0  0  0  0  0  0  0  0  0  0  0
   -2.4480    0.0750    0.1700 C   0  0  0  0  0  0  0  0  0  0  0  0
   -3.4250    0.2510    1.1220 C   0  0  0  0  0  0  0  0  0  0  0  0
  1  2  1  0
  2  3  2  0
  2  4  1  0
  4  5  2  0
  4 25  1  0
  5  6  1  0
  6  7  2  0
  7  8  1  0
  7 24  1  0
  8  9  1  0
  9 10  1  0
  9 23  2  0
 10 11  2  0
 10 21  1  0
 11 12  1  0
 12 13  2  0
 13 14  1  0
 14 15  1  0
 14 21  2  0
 15 16  2  0
 15 20  1  0
 16 17  1  0
 17 18  2  0
 18 19  1  0
 19 20  2  0
 21 22  1  0
 23 24  1  0
 24 25  2  0
M  CHG  1   3   1
M  END
