
     RDKit          3D

 27 29  0  0  0  0  0  0  0  0999 V2000
    8.9020   -1.9580   -0.1570 C   0  0  0  0  0  0  0  0  0  0  0  0
    7.5160   -1.4240   -0.0700 C   0  0  0  0  0  0  0  0  0  0  0  0
    7.0310   -0.9100   -1.1330 O   0  0  0  0  0  0  0  0  0  0  0  0
    6.7270   -1.4470    1.0830 N   0  0  0  0  0  0  0  0  0  0  0  0
    5.3890   -0.9080    1.1660 C   0  0  0  0  0  0  0  0  0  0  0  0
    4.4680   -0.7370    1.8730 N   0  0  0  0  0  0  0  0  0  0  0  0
    3.3510   -0.1630    1.5640 N   0  0  0  0  0  0  0  0  0  0  0  0
    3.0850    0.2860    0.4930 C   0  0  0  0  0  0  0  0  0  0  0  0
    2.1240    0.9920   -0.3820 C   0  0  2  0  0  0  0  0  0  0  0  0
    2.1860    2.4900   -0.1880 C   0  0  0  0  0  0  0  0  0  0  0  0
    0.7870    0.5330   -0.0790 N   0  0  0  0  0  0  0  0  0  0  0  0
   -0.2880    1.0250   -0.8640 C   0  0  0  0  0  0  0  0  0  0  0  0
   -0.2310    1.5270   -2.0510 N   0  0  0  0  0  0  0  0  0  0  0  0
   -1.5030    1.9130   -2.5230 C   0  0  0  0  0  0  0  0  0  0  0  0
   -2.4340    1.6560   -1.6130 C   0  0  0  0  0  0  0  0  0  0  0  0
   -1.7120    1.0710   -0.4940 C   0  0  0  0  0  0  0  0  0  0  0  0
   -2.1760    0.6670    0.6050 N   0  0  0  0  0  0  0  0  0  0  0  0
   -3.4590    0.6480    1.0750 N   0  0  0  0  0  0  0  0  0  0  0  0
   -4.5340   -0.1510    0.6270 C   0  0  0  0  0  0  0  0  0  0  0  0
   -4.5420   -1.5220    0.7880 C   0  0  0  0  0  0  0  0  0  0  0  0
   -5.5960   -2.3000    0.3630 C   0  0  0  0  0  0  0  0  0  0  0  0
   -6.6740   -1.6950   -0.2410 C   0  0  0  0  0  0  0  0  0  0  0  0
   -8.0740   -2.6790   -0.8150 S   0  0  0  0  0  0  0  0  0  0  0  0
   -6.6840   -0.3360   -0.4090 C   0  0  0  0  0  0  0  0  0  0  0  0
   -5.6260    0.4370    0.0190 C   0  0  0  0  0  0  0  0  0  0  0  0
   -5.6960    1.8100   -0.1790 O   0  0  0  0  0  0  0  0  0  0  0  0
    4.6840   -0.1150   -0.4110 S   0  0  0  0  0  0  0  0  0  0  0  0
  1  2  1  0
  2  3  2  0
  2  4  1  0
  4  5  1  0
  5  6  2  0
  5 27  1  0
  6  7  1  0
  7  8  2  0
  8  9  1  0
  8 27  1  0
  9 10  1  1
  9 11  1  0
 11 12  1  0
 12 13  2  0
 12 16  1  0
 13 14  1  0
 14 15  2  0
 15 16  1  0
 16 17  2  3
 17 18  1  0
 18 19  1  0
 19 20  2  0
 19 25  1  0
 20 21  1  0
 21 22  2  0
 22 23  1  0
 22 24  1  0
 24 25  2  0
 25 26  1  0
M  END
