
     RDKit          3D

 27 29  0  0  0  0  0  0  0  0999 V2000
   -6.5800   -2.2500   -0.9690 C   0  0  0  0  0  0  0  0  0  0  0  0
   -5.8590   -0.9410   -0.8220 C   0  0  0  0  0  0  0  0  0  0  0  0
   -6.5150    0.2360   -1.1020 C   0  0  0  0  0  0  0  0  0  0  0  0
   -5.8380    1.4380   -0.9630 C   0  0  0  0  0  0  0  0  0  0  0  0
   -6.5000    2.6730   -1.2480 N   0  0  0  0  0  0  0  0  0  0  0  0
   -4.5340    1.4210   -0.5490 C   0  0  0  0  0  0  0  0  0  0  0  0
   -3.8250    2.7240   -0.4060 C   0  0  0  0  0  0  0  0  0  0  0  0
   -3.8250    0.2420   -0.2530 C   0  0  0  0  0  0  0  0  0  0  0  0
   -2.4840    0.3610    0.1630 N   0  0  0  0  0  0  0  0  0  0  0  0
   -1.6810   -0.7340    0.4860 C   0  0  0  0  0  0  0  0  0  0  0  0
   -2.0710   -1.8970    0.4350 O   0  0  0  0  0  0  0  0  0  0  0  0
   -0.2790   -0.5330    0.9160 C   0  0  0  0  0  0  0  0  0  0  0  0
    0.1720    0.6340    0.9850 O   0  0  0  0  0  0  0  0  0  0  0  0
    0.5750   -1.5930    1.2520 N   0  0  0  0  0  0  0  0  0  0  0  0
    1.9390   -1.3860    1.6700 C   0  0  0  0  0  0  0  0  0  0  0  0
    2.8880   -2.1400    2.0160 N   0  0  0  0  0  0  0  0  0  0  0  0
    4.0320   -1.6450    2.3470 N   0  0  0  0  0  0  0  0  0  0  0  0
    4.3510   -0.5200    2.3770 C   0  0  0  0  0  0  0  0  0  0  0  0
    5.7160    0.5910    2.7390 S   0  0  0  0  0  0  0  0  0  0  0  0
    6.6460    0.8200    1.2380 C   0  0  0  0  0  0  0  0  0  0  0  0
    7.7050    0.0230    0.8590 C   0  0  0  0  0  0  0  0  0  0  0  0
    8.1950    0.4780   -0.3530 C   0  0  0  0  0  0  0  0  0  0  0  0
    9.3240   -0.1230   -1.0700 C   0  0  0  0  0  0  0  0  0  0  0  0
    7.4190    1.5310   -0.6670 N   0  0  0  0  0  0  0  0  0  0  0  0
    6.5070    1.7300    0.2710 N   0  0  0  0  0  0  0  0  0  0  0  0
    2.6820    0.2360    1.8030 S   0  0  0  0  0  0  0  0  0  0  0  0
   -4.5300   -0.9170   -0.4040 C   0  0  0  0  0  0  0  0  0  0  0  0
  1  2  1  0
  2  3  2  0
  2 27  1  0
  3  4  1  0
  4  5  1  0
  4  6  2  0
  6  7  1  0
  6  8  1  0
  8  9  1  0
  8 27  2  0
  9 10  1  0
 10 11  2  0
 10 12  1  0
 12 13  2  0
 12 14  1  0
 14 15  1  0
 15 16  2  0
 15 26  1  0
 16 17  1  0
 17 18  2  0
 18 19  1  0
 18 26  1  0
 19 20  1  0
 20 21  1  0
 20 25  2  0
 21 22  2  0
 22 23  1  0
 22 24  1  0
 24 25  1  0
M  END
