
     RDKit          3D

 13 13  0  0  0  0  0  0  0  0999 V2000
    0.8660   -1.9720    0.8310 C   0  0  0  0  0  0  0  0  0  0  0  0
    0.2540   -0.7640    0.2940 N   0  0  0  0  0  0  0  0  0  0  0  0
   -1.1750   -0.7320    0.1140 C   0  0  0  0  0  0  0  0  0  0  0  0
   -1.7080    0.5430   -0.3720 C   0  0  0  0  0  0  0  0  0  0  0  0
   -3.1400    0.7050   -0.5530 N   0  0  0  0  0  0  0  0  0  0  0  0
   -0.9200    1.5520   -0.6500 C   0  0  0  0  0  0  0  0  0  0  0  0
   -1.6950    3.1820   -1.2810 Br  0  0  0  0  0  0  0  0  0  0  0  0
    0.5100    1.4250   -0.4630 C   0  0  0  0  0  0  0  0  0  0  0  0
    1.0970    0.3190   -0.0120 C   0  0  0  0  0  0  0  0  0  0  0  0
    2.5700    0.3250    0.1150 C   0  0  2  0  0  0  0  0  0  0  0  0
    3.3590   -0.8760   -1.1820 Br  0  0  0  0  0  0  0  0  0  0  0  0
    3.1260   -0.2040    1.9040 Br  0  0  0  0  0  0  0  0  0  0  0  0
    3.2500    2.1190   -0.1440 Br  0  0  0  0  0  0  0  0  0  0  0  0
  1  2  1  0
  2  3  1  0
  2  9  1  0
  3  4  1  0
  4  5  1  0
  4  6  2  0
  6  7  1  0
  6  8  1  0
  8  9  2  0
  9 10  1  0
 10 11  1  6
 10 12  1  0
 10 13  1  0
M  END
