
     RDKit          3D

 14 14  0  0  0  0  0  0  0  0999 V2000
   -2.0930   -1.3130    0.3800 C   0  0  0  0  0  0  0  0  0  0  0  0
   -0.9360   -0.7120    0.1550 C   0  0  0  0  0  0  0  0  0  0  0  0
   -0.9370    0.6520   -0.3430 C   0  0  0  0  0  0  0  0  0  0  0  0
   -2.2910    1.1510   -0.6810 C   0  0  0  0  0  0  0  0  0  0  0  0
   -2.1580    2.9720   -1.3610 Br  0  0  0  0  0  0  0  0  0  0  0  0
    0.0530    1.4910   -0.5330 N   0  0  0  0  0  0  0  0  0  0  0  0
    1.4270    1.2340   -0.2790 C   0  0  0  0  0  0  0  0  0  0  0  0
    2.6660    2.5740   -0.8920 Br  0  0  0  0  0  0  0  0  0  0  0  0
    2.0170    0.2250    0.3110 C   0  0  0  0  0  0  0  0  0  0  0  0
    3.4260    0.2720    0.4050 N   0  0  0  0  0  0  0  0  0  0  0  0
    1.3780   -0.8790    0.8480 O   0  0  0  0  0  0  0  0  0  0  0  0
    0.2400   -1.5670    0.4600 C   0  0  2  0  0  0  0  0  0  0  0  0
    0.5670   -2.6460   -1.1160 Br  0  0  0  0  0  0  0  0  0  0  0  0
   -0.2700   -2.7310    1.9450 Br  0  0  0  0  0  0  0  0  0  0  0  0
  1  2  2  0
  2  3  1  0
  2 12  1  0
  3  4  1  0
  3  6  2  0
  4  5  1  0
  6  7  1  0
  7  8  1  0
  7  9  2  0
  9 10  1  0
  9 11  1  0
 11 12  1  0
 12 13  1  6
 12 14  1  0
M  END
