
     RDKit          3D

 27 29  0  0  0  0  0  0  0  0999 V2000
   -2.9950   -2.3980    3.1090 C   0  0  0  0  0  0  0  0  0  0  0  0
   -3.1460   -1.3530    2.0600 C   0  0  0  0  0  0  0  0  0  0  0  0
   -2.3750   -0.1850    2.0610 C   0  0  0  0  0  0  0  0  0  0  0  0
   -2.5240    0.7720    1.0860 C   0  0  0  0  0  0  0  0  0  0  0  0
   -1.7260    2.0240    1.0540 C   0  0  0  0  0  0  0  0  0  0  0  0
   -0.5330    1.9420    0.2720 N   0  0  0  0  0  0  0  0  0  0  0  0
    0.6610    1.3100    0.6600 C   0  0  0  0  0  0  0  0  0  0  0  0
    0.7140    0.7620    1.7900 O   0  0  0  0  0  0  0  0  0  0  0  0
    1.8560    1.2510   -0.1730 C   0  0  0  0  0  0  0  0  0  0  0  0
    3.0430    0.6910    0.0920 N   0  0  0  0  0  0  0  0  0  0  0  0
    3.8660    0.8670   -0.9550 C   0  0  0  0  0  0  0  0  0  0  0  0
    5.2560    0.4200   -1.0970 C   0  0  0  0  0  0  0  0  0  0  0  0
    5.8870    0.6710   -2.1540 O   0  0  0  0  0  0  0  0  0  0  0  0
    5.8440   -0.2810   -0.0360 N   0  0  0  0  0  0  0  0  0  0  0  0
    7.2180   -0.7610   -0.0900 C   0  0  0  0  0  0  0  0  0  0  0  0
    8.0300   -1.3360    0.5140 N   0  0  0  0  0  0  0  0  0  0  0  0
    9.2560   -1.6360    0.1900 C   0  0  0  0  0  0  0  0  0  0  0  0
    9.6690   -1.2150   -1.0550 C   0  0  0  0  0  0  0  0  0  0  0  0
    8.1930   -0.3930   -1.6660 S   0  0  0  0  0  0  0  0  0  0  0  0
    3.1150    1.5660   -1.8750 C   0  0  0  0  0  0  0  0  0  0  0  0
    1.9310    1.7690   -1.3650 O   0  0  0  0  0  0  0  0  0  0  0  0
   -3.4660    0.5270    0.1110 C   0  0  0  0  0  0  0  0  0  0  0  0
   -4.2540   -0.6050    0.0580 C   0  0  0  0  0  0  0  0  0  0  0  0
   -5.2530   -0.8510   -0.9840 C   0  0  1  0  0  0  0  0  0  0  0  0
   -6.3500    0.1910   -0.9830 C   0  0  0  0  0  0  0  0  0  0  0  0
   -4.6560   -0.9280   -2.3720 C   0  0  0  0  0  0  0  0  0  0  0  0
   -4.0730   -1.5410    1.0560 C   0  0  0  0  0  0  0  0  0  0  0  0
  1  2  1  0
  2  3  2  0
  2 27  1  0
  3  4  1  0
  4  5  1  0
  4 22  2  0
  5  6  1  0
  6  7  1  0
  7  8  2  0
  7  9  1  0
  9 10  2  0
  9 21  1  0
 10 11  1  0
 11 12  1  0
 11 20  2  0
 12 13  2  0
 12 14  1  0
 14 15  1  0
 15 16  2  0
 15 19  1  0
 16 17  1  0
 17 18  2  0
 18 19  1  0
 20 21  1  0
 22 23  1  0
 23 24  1  0
 23 27  2  0
 24 25  1  6
 24 26  1  0
M  END
