
     RDKit          3D

 14 15  0  0  0  0  0  0  0  0999 V2000
    2.4970   -2.1300    0.2860 O   0  0  0  0  0  0  0  0  0  0  0  0
    2.7350   -1.0030   -0.3930 N   0  0  0  0  0  0  0  0  0  0  0  0
    2.2390    0.2280    0.0800 C   0  0  0  0  0  0  0  0  0  0  0  0
    0.9490    0.4940    0.2050 C   0  0  0  0  0  0  0  0  0  0  0  0
   -0.0480   -0.4620   -0.1350 N   0  0  0  0  0  0  0  0  0  0  0  0
   -1.4360   -0.2060   -0.0110 C   0  0  0  0  0  0  0  0  0  0  0  0
   -2.4110   -1.2530   -0.3860 C   0  0  0  0  0  0  0  0  0  0  0  0
   -4.2160   -0.6570   -0.1250 Br  0  0  0  0  0  0  0  0  0  0  0  0
   -1.8190    0.9730    0.4400 C   0  0  0  0  0  0  0  0  0  0  0  0
   -3.6590    1.4100    0.6410 Br  0  0  0  0  0  0  0  0  0  0  0  0
   -0.8320    1.9950    0.8060 C   0  0  0  0  0  0  0  0  0  0  0  0
   -1.4170    3.6780    1.4510 Br  0  0  0  0  0  0  0  0  0  0  0  0
    0.4690    1.7760    0.6970 C   0  0  0  0  0  0  0  0  0  0  0  0
    1.7430    3.1070    1.1730 Br  0  0  0  0  0  0  0  0  0  0  0  0
  1  2  1  0
  2  3  1  0
  3  4  2  3
  4  5  1  0
  4 13  1  0
  5  6  1  0
  6  7  1  0
  6  9  2  0
  7  8  1  0
  9 10  1  0
  9 11  1  0
 11 12  1  0
 11 13  2  0
 13 14  1  0
 10  8  1  0
M  END
