
     RDKit          3D

 21 23  0  0  0  0  0  0  0  0999 V2000
    5.5810    0.5110   -0.8820 C   0  0  0  0  0  0  0  0  0  0  0  0
    4.5360   -0.2580   -0.1660 C   0  0  0  0  0  0  0  0  0  0  0  0
    4.9290   -1.3310    0.6000 C   0  0  0  0  0  0  0  0  0  0  0  0
    3.9450   -2.0390    1.2620 C   0  0  0  0  0  0  0  0  0  0  0  0
    4.4660   -3.5200    2.3230 Br  0  0  0  0  0  0  0  0  0  0  0  0
    2.6190   -1.6840    1.1590 C   0  0  0  0  0  0  0  0  0  0  0  0
    1.6800   -2.4310    1.8450 O   0  0  0  0  0  0  0  0  0  0  0  0
    2.2110   -0.6130    0.3970 C   0  0  0  0  0  0  0  0  0  0  0  0
    0.8080   -0.2310    0.2820 C   0  0  0  0  0  0  0  0  0  0  0  0
   -0.2720   -0.7750    0.8320 N   0  0  0  0  0  0  0  0  0  0  0  0
   -1.3720   -0.0990    0.4560 C   0  0  0  0  0  0  0  0  0  0  0  0
   -2.7290   -0.2270    0.7240 C   0  0  0  0  0  0  0  0  0  0  0  0
   -3.6860    0.6130    0.2060 C   0  0  0  0  0  0  0  0  0  0  0  0
   -5.1100    0.4690    0.4940 C   0  0  0  0  0  0  0  0  0  0  0  0
   -6.0080    1.4020   -0.1020 N   0  0  0  0  0  0  0  0  0  0  0  0
   -5.6070   -0.4290    1.2400 N   0  0  0  0  0  0  0  0  0  0  0  0
   -3.2310    1.6370   -0.6300 C   0  0  0  0  0  0  0  0  0  0  0  0
   -1.8970    1.7940   -0.9170 C   0  0  0  0  0  0  0  0  0  0  0  0
   -0.9620    0.9240   -0.3730 C   0  0  0  0  0  0  0  0  0  0  0  0
    0.3760    0.8120   -0.4560 N   0  0  0  0  0  0  0  0  0  0  0  0
    3.2200    0.0840   -0.2610 C   0  0  0  0  0  0  0  0  0  0  0  0
  1  2  1  0
  2  3  2  0
  2 21  1  0
  3  4  1  0
  4  5  1  0
  4  6  2  0
  6  7  1  0
  6  8  1  0
  8  9  1  0
  8 21  2  0
  9 10  2  0
  9 20  1  0
 10 11  1  0
 11 12  2  0
 11 19  1  0
 12 13  1  0
 13 14  1  0
 13 17  2  0
 14 15  1  0
 14 16  2  0
 17 18  1  0
 18 19  2  0
 19 20  1  0
M  CHG  1  16   1
M  END
