
     RDKit          3D

 21 22  0  0  0  0  0  0  0  0999 V2000
    7.8410   -0.0510    0.3230 C   0  0  0  0  0  0  0  0  0  0  0  0
    6.3360   -0.0020    0.3030 C   0  0  0  0  0  0  0  0  0  0  0  0
    5.5830    0.8970    1.0190 C   0  0  0  0  0  0  0  0  0  0  0  0
    4.2360    0.6250    0.7390 C   0  0  0  0  0  0  0  0  0  0  0  0
    4.2350   -0.4220   -0.1300 C   0  0  0  0  0  0  0  0  0  0  0  0
    3.1710   -1.1410   -0.7700 C   0  0  0  0  0  0  0  0  0  0  0  0
    1.8990   -1.0430   -0.7400 C   0  0  0  0  0  0  0  0  0  0  0  0
    1.1180   -0.1050    0.0070 C   0  0  0  0  0  0  0  0  0  0  0  0
   -0.2310   -0.1260   -0.0650 C   0  0  0  0  0  0  0  0  0  0  0  0
   -1.0720    0.7490    0.6280 N   0  0  0  0  0  0  0  0  0  0  0  0
   -2.4820    0.4250    0.2940 C   0  0  0  0  0  0  0  0  0  0  0  0
   -3.4290    1.1690    0.8020 C   0  0  0  0  0  0  0  0  0  0  0  0
   -4.8650    1.1370    0.6520 C   0  0  0  0  0  0  0  0  0  0  0  0
   -5.3580    2.5180    0.2830 N   0  0  0  0  0  0  0  0  0  0  0  0
   -2.4300   -0.6850   -0.6090 C   0  0  0  0  0  0  0  0  0  0  0  0
   -3.2980   -1.5840   -0.9730 C   0  0  0  0  0  0  0  0  0  0  0  0
   -4.6160   -2.0660   -0.7880 C   0  0  0  0  0  0  0  0  0  0  0  0
   -5.5080   -1.6860    0.0190 N   0  0  0  0  0  0  0  0  0  0  0  0
   -5.2320   -3.5650   -1.9340 Br  0  0  0  0  0  0  0  0  0  0  0  0
   -0.9860   -1.0150   -0.8340 N   0  0  0  0  0  0  0  0  0  0  0  0
    5.5270   -0.7520   -0.3520 O   0  0  0  0  0  0  0  0  0  0  0  0
  1  2  1  0
  2  3  2  0
  2 21  1  0
  3  4  1  0
  4  5  2  0
  5  6  1  0
  5 21  1  0
  6  7  2  3
  7  8  1  0
  8  9  2  3
  9 10  1  0
  9 20  1  0
 10 11  1  0
 11 12  2  3
 11 15  1  0
 12 13  1  0
 13 14  1  0
 15 16  2  3
 15 20  1  0
 16 17  1  0
 17 18  2  0
 17 19  1  0
M  CHG  1  14   1
M  END
