
     RDKit          3D

 21 23  0  0  0  0  0  0  0  0999 V2000
    6.7480   -0.8440    0.1880 C   0  0  0  0  0  0  0  0  0  0  0  0
    5.2310   -0.8510    0.2230 C   0  0  0  0  0  0  0  0  0  0  0  0
    4.6350   -1.9380    0.3410 O   0  0  0  0  0  0  0  0  0  0  0  0
    4.5030    0.3520    0.1250 N   0  0  0  0  0  0  0  0  0  0  0  0
    3.1150    0.4840    0.1430 C   0  0  0  0  0  0  0  0  0  0  0  0
    2.5790    1.7810    0.1120 C   0  0  0  0  0  0  0  0  0  0  0  0
    1.2190    2.0060    0.1220 C   0  0  0  0  0  0  0  0  0  0  0  0
    0.3390    0.9470    0.1620 C   0  0  0  0  0  0  0  0  0  0  0  0
    0.8370   -0.3260    0.1920 C   0  0  0  0  0  0  0  0  0  0  0  0
    2.2320   -0.5280    0.1810 C   0  0  0  0  0  0  0  0  0  0  0  0
   -0.1970   -1.1730    0.2280 N   0  0  0  0  0  0  0  0  0  0  0  0
   -1.3770   -0.5010    0.2230 C   0  0  0  0  0  0  0  0  0  0  0  0
   -2.6880   -0.8990    0.2500 C   0  0  0  0  0  0  0  0  0  0  0  0
   -3.7460    0.0250    0.2360 C   0  0  0  0  0  0  0  0  0  0  0  0
   -5.0780   -0.5080    0.2670 C   0  0  0  0  0  0  0  0  0  0  0  0
   -5.2340   -1.9550    0.3100 N   0  0  0  0  0  0  0  0  0  0  0  0
   -6.1710    0.1180    0.2620 N   0  0  0  0  0  0  0  0  0  0  0  0
   -3.3730    1.3280    0.1950 C   0  0  0  0  0  0  0  0  0  0  0  0
   -4.6750    2.7210    0.1710 Br  0  0  0  0  0  0  0  0  0  0  0  0
   -2.0260    1.7540    0.1670 C   0  0  0  0  0  0  0  0  0  0  0  0
   -1.0340    0.8320    0.1810 C   0  0  0  0  0  0  0  0  0  0  0  0
  1  2  1  0
  2  3  2  0
  2  4  1  0
  4  5  1  0
  5  6  2  0
  5 10  1  0
  6  7  1  0
  7  8  2  0
  8  9  1  0
  8 21  1  0
  9 10  2  0
  9 11  1  0
 11 12  1  0
 12 13  2  0
 12 21  1  0
 13 14  1  0
 14 15  1  0
 14 18  2  0
 15 16  1  0
 15 17  2  0
 18 19  1  0
 18 20  1  0
 20 21  2  0
M  CHG  1  17   1
M  END
