
     RDKit          3D

 21 23  0  0  0  0  0  0  0  0999 V2000
   -2.6520   -0.9570    1.9760 N   0  0  0  0  0  0  0  0  0  0  0  0
   -3.1910   -0.0140    1.0550 C   0  0  0  0  0  0  0  0  0  0  0  0
   -4.5060    0.2300    0.9860 N   0  0  0  0  0  0  0  0  0  0  0  0
   -5.0430    1.1410    0.1610 C   0  0  0  0  0  0  0  0  0  0  0  0
   -6.9270    1.4660    0.0870 Br  0  0  0  0  0  0  0  0  0  0  0  0
   -4.2400    1.8870   -0.6740 C   0  0  0  0  0  0  0  0  0  0  0  0
   -2.8860    1.6680   -0.6350 C   0  0  0  0  0  0  0  0  0  0  0  0
   -2.3560    0.7090    0.2360 C   0  0  0  0  0  0  0  0  0  0  0  0
   -0.9040    0.4930    0.1880 C   0  0  0  0  0  0  0  0  0  0  0  0
   -0.3190   -0.6350   -0.1410 C   0  0  0  0  0  0  0  0  0  0  0  0
   -1.1010   -1.8210   -0.5110 C   0  0  0  0  0  0  0  0  0  0  0  0
   -0.7480   -2.2980   -1.8510 N   0  0  0  0  0  0  0  0  0  0  0  0
    1.1480   -0.7080   -0.1360 C   0  0  0  0  0  0  0  0  0  0  0  0
    1.9200    0.3100    0.1840 C   0  0  0  0  0  0  0  0  0  0  0  0
    3.3950    0.1810    0.1710 C   0  0  0  0  0  0  0  0  0  0  0  0
    4.2600    1.1130    0.4670 C   0  0  0  0  0  0  0  0  0  0  0  0
    5.6210    0.5720    0.3290 C   0  0  0  0  0  0  0  0  0  0  0  0
    5.3650   -0.7810   -0.0820 N   0  0  0  0  0  0  0  0  0  0  0  0
    4.1040   -1.0240   -0.1780 C   0  0  0  0  0  0  0  0  0  0  0  0
    1.2910    1.5930    0.5580 C   0  0  0  0  0  0  0  0  0  0  0  0
   -0.1110    1.5680    0.5150 O   0  0  0  0  0  0  0  0  0  0  0  0
  1  2  1  0
  2  3  2  0
  2  8  1  0
  3  4  1  0
  4  5  1  0
  4  6  2  0
  6  7  1  0
  7  8  2  0
  8  9  1  0
  9 10  2  0
  9 21  1  0
 10 11  1  0
 10 13  1  0
 11 12  1  0
 13 14  2  0
 14 15  1  0
 14 20  1  0
 15 16  2  0
 15 19  1  0
 16 17  1  0
 17 18  1  0
 18 19  2  0
 20 21  1  0
M  CHG  1  12   1
M  END
