
     RDKit          3D

 21 23  0  0  0  0  0  0  0  0999 V2000
   -5.3500   -0.4440    0.0860 C   0  0  0  0  0  0  0  0  0  0  0  0
   -4.1880    0.1660    0.0580 C   0  0  0  0  0  0  0  0  0  0  0  0
   -3.9330    1.6050    0.1560 C   0  0  0  0  0  0  0  0  0  0  0  0
   -4.8010    2.5470    0.2880 N   0  0  0  0  0  0  0  0  0  0  0  0
   -2.5230    1.7600    0.0760 N   0  0  0  0  0  0  0  0  0  0  0  0
   -1.8780    0.5060   -0.0660 C   0  0  0  0  0  0  0  0  0  0  0  0
   -0.5410    0.1560   -0.1810 C   0  0  0  0  0  0  0  0  0  0  0  0
    0.4650    1.2330   -0.1820 C   0  0  0  0  0  0  0  0  0  0  0  0
    1.8200    0.8160   -0.2630 N   0  0  0  0  0  0  0  0  0  0  0  0
    2.5030    0.0570    0.7310 C   0  0  0  0  0  0  0  0  0  0  0  0
    1.8600   -0.2620    1.7630 O   0  0  0  0  0  0  0  0  0  0  0  0
    3.9030   -0.3390    0.5600 C   0  0  0  0  0  0  0  0  0  0  0  0
    4.6230   -1.0630    1.4710 C   0  0  0  0  0  0  0  0  0  0  0  0
    5.9070   -1.2320    0.9420 C   0  0  0  0  0  0  0  0  0  0  0  0
    5.9710   -0.6280   -0.2590 N   0  0  0  0  0  0  0  0  0  0  0  0
    4.7480   -0.0830   -0.4920 C   0  0  0  0  0  0  0  0  0  0  0  0
   -0.1800   -1.1410   -0.3080 C   0  0  0  0  0  0  0  0  0  0  0  0
   -1.1630   -2.1430   -0.3230 C   0  0  0  0  0  0  0  0  0  0  0  0
   -0.6500   -3.9650   -0.5010 Br  0  0  0  0  0  0  0  0  0  0  0  0
   -2.4850   -1.7760   -0.2070 C   0  0  0  0  0  0  0  0  0  0  0  0
   -2.8750   -0.4600   -0.0770 C   0  0  0  0  0  0  0  0  0  0  0  0
  1  2  2  0
  2  3  1  0
  2 21  1  0
  3  4  2  0
  3  5  1  0
  5  6  1  0
  6  7  2  0
  6 21  1  0
  7  8  1  0
  7 17  1  0
  8  9  1  0
  9 10  1  0
 10 11  2  0
 10 12  1  0
 12 13  1  0
 12 16  2  0
 13 14  2  0
 14 15  1  0
 15 16  1  0
 17 18  2  0
 18 19  1  0
 18 20  1  0
 20 21  2  0
M  CHG  1   4   1
M  END
