
     RDKit          3D

 21 23  0  0  0  0  0  0  0  0999 V2000
    3.6460    3.0370   -0.1160 N   0  0  0  0  0  0  0  0  0  0  0  0
    3.1170    1.8800   -0.0830 C   0  0  0  0  0  0  0  0  0  0  0  0
    3.9320    0.7820   -0.0120 N   0  0  0  0  0  0  0  0  0  0  0  0
    3.4330   -0.4440    0.0250 C   0  0  0  0  0  0  0  0  0  0  0  0
    4.3280   -1.5040    0.0970 C   0  0  0  0  0  0  0  0  0  0  0  0
    3.8560   -2.8010    0.1380 C   0  0  0  0  0  0  0  0  0  0  0  0
    2.5090   -3.0300    0.1070 C   0  0  0  0  0  0  0  0  0  0  0  0
    1.6230   -1.9960    0.0360 C   0  0  0  0  0  0  0  0  0  0  0  0
    2.0960   -0.6960   -0.0040 C   0  0  0  0  0  0  0  0  0  0  0  0
    1.2330    0.3640   -0.0750 C   0  0  0  0  0  0  0  0  0  0  0  0
    1.7660    1.6590   -0.1140 C   0  0  0  0  0  0  0  0  0  0  0  0
    0.8610    2.7960   -0.1900 C   0  0  0  0  0  0  0  0  0  0  0  0
   -0.4530    2.5310   -0.2180 C   0  0  0  0  0  0  0  0  0  0  0  0
   -1.6690    4.0140   -0.3180 Br  0  0  0  0  0  0  0  0  0  0  0  0
   -0.9930    1.2060   -0.1780 C   0  0  0  0  0  0  0  0  0  0  0  0
   -2.3150    1.0340   -0.2110 C   0  0  0  0  0  0  0  0  0  0  0  0
   -2.9430   -0.3170   -0.1720 C   0  0  2  0  0  0  0  0  0  0  0  0
   -3.7040   -0.4180   -1.4280 N   0  0  0  0  0  0  0  0  0  0  0  0
   -3.8860   -0.3130    1.0130 C   0  0  0  0  0  0  0  0  0  0  0  0
   -4.5670   -1.5760    1.1670 N   0  0  0  0  0  0  0  0  0  0  0  0
   -0.1440    0.1380   -0.1070 O   0  0  0  0  0  0  0  0  0  0  0  0
  1  2  2  0
  2  3  1  0
  2 11  1  0
  3  4  1  0
  4  5  2  0
  4  9  1  0
  5  6  1  0
  6  7  2  0
  7  8  1  0
  8  9  2  0
  9 10  1  0
 10 11  2  0
 10 21  1  0
 11 12  1  0
 12 13  2  0
 13 14  1  0
 13 15  1  0
 15 16  2  3
 15 21  1  0
 16 17  1  0
 17 18  1  6
 17 19  1  0
 19 20  1  0
M  CHG  1  18   1
M  END
