
     RDKit          3D

  9  8  0  0  0  0  0  0  0  0999 V2000
   -1.3200   -1.4790    1.3530 C   0  0  0  0  0  0  0  0  0  0  0  0
   -1.3590   -0.3270    0.4000 C   0  0  0  0  0  0  0  0  0  0  0  0
   -0.2630   -0.0010   -0.2390 C   0  0  0  0  0  0  0  0  0  0  0  0
    0.9530   -0.7620   -0.0070 C   0  0  0  0  0  0  0  0  0  0  0  0
    2.0920   -0.5000   -0.6060 C   0  0  0  0  0  0  0  0  0  0  0  0
    3.2110   -1.2560   -0.3460 O   0  0  0  0  0  0  0  0  0  0  0  0
   -0.2600    1.0440   -1.1170 O   0  0  0  0  0  0  0  0  0  0  0  0
   -0.8570    2.2880   -0.9440 C   0  0  0  0  0  0  0  0  0  0  0  0
   -0.5240    3.2500   -2.4210 Cl  0  0  0  0  0  0  0  0  0  0  0  0
  1  2  1  0
  2  3  2  3
  3  4  1  0
  3  7  1  0
  4  5  2  3
  5  6  1  0
  7  8  1  0
  8  9  1  0
M  END
