
     RDKit          3D

  9  8  0  0  0  0  0  0  0  0999 V2000
    3.0590   -0.0240   -0.9750 C   0  0  0  0  0  0  0  0  0  0  0  0
    1.8880   -0.4860   -0.3760 O   0  0  0  0  0  0  0  0  0  0  0  0
    1.6030    0.1860    0.8000 C   0  0  0  0  0  0  0  0  0  0  0  0
    0.3850   -0.3880    1.2990 O   0  0  0  0  0  0  0  0  0  0  0  0
   -0.7850   -0.3380    0.5310 C   0  0  0  0  0  0  0  0  0  0  0  0
   -1.0600   -1.2990   -0.5520 C   0  0  0  0  0  0  0  0  0  0  0  0
   -1.6440    0.6170    0.8190 C   0  0  0  0  0  0  0  0  0  0  0  0
   -2.9060    0.7100    0.0280 C   0  0  0  0  0  0  0  0  0  0  0  0
   -2.9330    2.3110   -0.7600 Cl  0  0  0  0  0  0  0  0  0  0  0  0
  1  2  1  0
  2  3  1  0
  3  4  1  0
  4  5  1  0
  5  6  1  0
  5  7  2  3
  7  8  1  0
  8  9  1  0
M  END
