
     RDKit          3D

  9  8  0  0  0  0  0  0  0  0999 V2000
   -1.9200   -1.3200    0.1110 C   0  0  0  0  0  0  0  0  0  0  0  0
   -1.0000   -0.4160    0.3370 C   0  0  0  0  0  0  0  0  0  0  0  0
   -1.3430    0.8710    0.7230 O   0  0  0  0  0  0  0  0  0  0  0  0
   -2.2420    1.5700   -0.1500 C   0  0  0  0  0  0  0  0  0  0  0  0
    0.3960   -0.7440    0.1880 C   0  0  0  0  0  0  0  0  0  0  0  0
    0.8450   -2.3540   -0.2960 Cl  0  0  0  0  0  0  0  0  0  0  0  0
    1.3290    0.1410    0.4080 C   0  0  0  0  0  0  0  0  0  0  0  0
    2.7460   -0.2480    0.2400 C   0  0  0  0  0  0  0  0  0  0  0  0
    3.2710    0.6040   -0.7590 O   0  0  0  0  0  0  0  0  0  0  0  0
  1  2  2  0
  2  3  1  0
  2  5  1  0
  3  4  1  0
  5  6  1  0
  5  7  2  3
  7  8  1  0
  8  9  1  0
M  END
