
     RDKit          3D

 27 29  0  0  0  0  0  0  0  0999 V2000
   -0.6830   -4.0630    1.3520 C   0  0  0  0  0  0  0  0  0  0  0  0
   -0.5270   -2.8200    0.4440 C   0  0  0  0  0  0  0  0  0  0  0  0
    0.6930   -2.3410    0.3210 C   0  0  0  0  0  0  0  0  0  0  0  0
    1.3400   -1.3110   -0.3250 N   0  0  0  0  0  0  0  0  0  0  0  0
    2.0700   -0.1090    0.1390 C   0  0  0  0  0  0  0  0  0  0  0  0
    3.1700    0.1160   -0.5110 N   0  0  0  0  0  0  0  0  0  0  0  0
    4.2660    1.3450   -0.2970 S   0  0  1  0  0  0  0  0  0  0  0  0
    5.8860    0.7660    0.2160 C   0  0  0  0  0  0  0  0  0  0  0  0
    4.4620    2.2010   -1.5470 O   0  0  0  0  0  0  0  0  0  0  0  0
    3.8000    2.3470    0.7570 O   0  0  0  0  0  0  0  0  0  0  0  0
    1.7020    0.7620    1.2200 C   0  0  0  0  0  0  0  0  0  0  0  0
    0.9710    1.8600    1.3210 C   0  0  0  0  0  0  0  0  0  0  0  0
    0.2550    2.5970    0.2590 C   0  0  0  0  0  0  0  0  0  0  0  0
    0.5920    3.9480    0.0590 C   0  0  0  0  0  0  0  0  0  0  0  0
    0.0810    4.7050   -0.9500 C   0  0  0  0  0  0  0  0  0  0  0  0
   -0.8150    4.1620   -1.8460 C   0  0  0  0  0  0  0  0  0  0  0  0
   -1.1450    2.8500   -1.6510 C   0  0  0  0  0  0  0  0  0  0  0  0
   -0.6380    2.0370   -0.6130 C   0  0  0  0  0  0  0  0  0  0  0  0
   -1.1430    0.6960   -0.5200 N   0  0  0  0  0  0  0  0  0  0  0  0
   -1.8680    0.0190    0.4740 C   0  0  2  0  0  0  0  0  0  0  0  0
   -1.4100   -0.1370    1.8540 C   0  0  0  0  0  0  0  0  0  0  0  0
   -2.4200   -1.2300   -0.1740 C   0  0  0  0  0  0  0  0  0  0  0  0
   -3.6440   -1.0880   -0.8300 C   0  0  0  0  0  0  0  0  0  0  0  0
   -4.3070   -2.1100   -1.4730 C   0  0  0  0  0  0  0  0  0  0  0  0
   -3.7220   -3.3390   -1.4640 C   0  0  0  0  0  0  0  0  0  0  0  0
   -2.5310   -3.4940   -0.8320 C   0  0  0  0  0  0  0  0  0  0  0  0
   -1.8210   -2.4610   -0.1600 C   0  0  0  0  0  0  0  0  0  0  0  0
  1  2  1  0
  2  3  2  0
  2 27  1  0
  3  4  1  0
  4  5  1  0
  5  6  2  3
  5 11  1  0
  6  7  1  0
  7  8  1  1
  7  9  2  0
  7 10  2  0
 11 12  2  0
 12 13  1  0
 13 14  2  0
 13 18  1  0
 14 15  1  0
 15 16  2  0
 16 17  1  0
 17 18  2  0
 18 19  1  0
 19 20  1  0
 20 21  1  1
 20 22  1  0
 22 23  2  0
 22 27  1  0
 23 24  1  0
 24 25  2  0
 25 26  1  0
 26 27  2  0
M  END
