
     RDKit          3D

 27 29  0  0  0  0  0  0  0  0999 V2000
   -3.0700    1.0410   -1.8030 C   0  0  0  0  0  0  0  0  0  0  0  0
   -2.4730    0.0200   -0.9570 N   0  0  0  0  0  0  0  0  0  0  0  0
   -1.5400    0.3370    0.0630 C   0  0  0  0  0  0  0  0  0  0  0  0
   -0.2060    0.3190   -0.1550 N   0  0  0  0  0  0  0  0  0  0  0  0
    0.7000    0.6390    0.7770 C   0  0  0  0  0  0  0  0  0  0  0  0
    2.1230    0.5730    0.4500 C   0  0  0  0  0  0  0  0  0  0  0  0
    3.2670    0.8490    1.1000 C   0  0  0  0  0  0  0  0  0  0  0  0
    4.4380    0.6420    0.4540 C   0  0  0  0  0  0  0  0  0  0  0  0
    4.4220    0.1790   -0.7910 C   0  0  0  0  0  0  0  0  0  0  0  0
    5.5620   -0.1400   -1.7330 C   0  0  0  0  0  0  0  0  0  0  0  0
    5.8790   -1.6070   -1.4120 C   0  0  0  0  0  0  0  0  0  0  0  0
    6.9500   -2.1280   -2.2020 N   0  0  0  0  0  0  0  0  0  0  0  0
    2.7470   -0.0170   -1.1870 S   0  0  0  0  0  0  0  0  0  0  0  0
    0.2910    1.0010    2.0060 N   0  0  0  0  0  0  0  0  0  0  0  0
   -1.0250    1.0390    2.2830 C   0  0  0  0  0  0  0  0  0  0  0  0
   -1.5220    1.4080    3.5540 N   0  0  0  0  0  0  0  0  0  0  0  0
   -1.9700    0.7030    1.3030 C   0  0  0  0  0  0  0  0  0  0  0  0
   -3.3760    0.7690    1.6320 C   0  0  0  0  0  0  0  0  0  0  0  0
   -4.1490    1.8300    1.1600 C   0  0  0  0  0  0  0  0  0  0  0  0
   -5.4880    1.9220    1.4770 C   0  0  0  0  0  0  0  0  0  0  0  0
   -6.0810    1.0060    2.2380 N   0  0  0  0  0  0  0  0  0  0  0  0
   -5.3590   -0.0190    2.7010 N   0  0  0  0  0  0  0  0  0  0  0  0
   -4.0530   -0.1450    2.4160 C   0  0  0  0  0  0  0  0  0  0  0  0
   -2.9270   -1.6250   -1.2210 S   0  0  1  0  0  0  0  0  0  0  0  0
   -1.5120   -2.5980   -1.6940 C   0  0  0  0  0  0  0  0  0  0  0  0
   -3.4490   -2.1890    0.0620 O   0  0  0  0  0  0  0  0  0  0  0  0
   -4.0200   -1.7220   -2.2530 O   0  0  0  0  0  0  0  0  0  0  0  0
  1  2  1  0
  2  3  1  0
  2 24  1  0
  3  4  2  0
  3 17  1  0
  4  5  1  0
  5  6  1  0
  5 14  2  0
  6  7  2  0
  6 13  1  0
  7  8  1  0
  8  9  2  0
  9 10  1  0
  9 13  1  0
 10 11  1  0
 11 12  1  0
 14 15  1  0
 15 16  1  0
 15 17  2  0
 17 18  1  0
 18 19  2  0
 18 23  1  0
 19 20  1  0
 20 21  2  0
 21 22  1  0
 22 23  2  0
 24 25  1  6
 24 26  2  0
 24 27  2  0
M  END
