
     RDKit          3D

 27 29  0  0  0  0  0  0  0  0999 V2000
   -6.4550   -0.9020    2.3880 C   0  0  0  0  0  0  0  0  0  0  0  0
   -5.7770   -0.1390    1.3090 C   0  0  0  0  0  0  0  0  0  0  0  0
   -6.4430    0.8460    0.6130 C   0  0  0  0  0  0  0  0  0  0  0  0
   -5.7890    1.5390   -0.3850 C   0  0  0  0  0  0  0  0  0  0  0  0
   -6.4550    2.5570   -1.1140 N   0  0  0  0  0  0  0  0  0  0  0  0
   -4.4920    1.2410   -0.6680 C   0  0  0  0  0  0  0  0  0  0  0  0
   -3.7910    1.9920   -1.7460 C   0  0  0  0  0  0  0  0  0  0  0  0
   -3.7940    0.2420    0.0280 C   0  0  0  0  0  0  0  0  0  0  0  0
   -2.4380   -0.0020   -0.3380 N   0  0  0  0  0  0  0  0  0  0  0  0
   -1.5580   -0.9320    0.2020 C   0  0  0  0  0  0  0  0  0  0  0  0
   -1.9230   -1.6840    1.1260 O   0  0  0  0  0  0  0  0  0  0  0  0
   -0.1670   -1.0610   -0.2950 C   0  0  0  0  0  0  0  0  0  0  0  0
    0.2470   -0.3320   -1.2160 O   0  0  0  0  0  0  0  0  0  0  0  0
    0.7230   -2.0130    0.2610 N   0  0  0  0  0  0  0  0  0  0  0  0
    2.0430   -2.1870   -0.1610 C   0  0  0  0  0  0  0  0  0  0  0  0
    2.9400   -3.0630    0.3150 N   0  0  0  0  0  0  0  0  0  0  0  0
    4.0900   -3.1100   -0.1590 N   0  0  0  0  0  0  0  0  0  0  0  0
    4.5220   -2.3530   -1.1160 C   0  0  0  0  0  0  0  0  0  0  0  0
    6.0360   -2.1310   -2.0270 S   0  0  0  0  0  0  0  0  0  0  0  0
    7.0760   -0.9370   -1.2190 C   0  0  0  0  0  0  0  0  0  0  0  0
    6.8460   -0.2340   -0.0620 C   0  0  0  0  0  0  0  0  0  0  0  0
    7.9460    0.5860    0.1800 C   0  0  0  0  0  0  0  0  0  0  0  0
    8.1000    1.5120    1.3350 C   0  0  0  0  0  0  0  0  0  0  0  0
    8.8040    0.3500   -0.8400 N   0  0  0  0  0  0  0  0  0  0  0  0
    8.2830   -0.5530   -1.6650 N   0  0  0  0  0  0  0  0  0  0  0  0
    2.9630   -1.3740   -1.3960 S   0  0  0  0  0  0  0  0  0  0  0  0
   -4.4430   -0.4500    1.0220 C   0  0  0  0  0  0  0  0  0  0  0  0
  1  2  1  0
  2  3  2  0
  2 27  1  0
  3  4  1  0
  4  5  1  0
  4  6  2  0
  6  7  1  0
  6  8  1  0
  8  9  1  0
  8 27  2  0
  9 10  1  0
 10 11  2  0
 10 12  1  0
 12 13  2  0
 12 14  1  0
 14 15  1  0
 15 16  2  0
 15 26  1  0
 16 17  1  0
 17 18  2  0
 18 19  1  0
 18 26  1  0
 19 20  1  0
 20 21  1  0
 20 25  2  0
 21 22  2  0
 22 23  1  0
 22 24  1  0
 24 25  1  0
M  END
