
     RDKit          3D

 26 28  0  0  0  0  0  0  0  0999 V2000
   -2.9450    2.8560    1.2860 C   0  0  0  0  0  0  0  0  0  0  0  0
   -3.4230    1.6340    0.5250 C   0  0  0  0  0  0  0  0  0  0  0  0
   -3.1180    0.5080    0.3240 N   0  0  0  0  0  0  0  0  0  0  0  0
   -3.7220   -0.4040   -0.4090 C   0  0  0  0  0  0  0  0  0  0  0  0
   -3.2720   -1.7890   -0.6200 C   0  0  0  0  0  0  0  0  0  0  0  0
   -2.1440   -2.1720   -0.0650 C   0  0  0  0  0  0  0  0  0  0  0  0
   -1.3300   -1.3370    0.7270 N   0  0  0  0  0  0  0  0  0  0  0  0
   -0.0000   -1.0450    0.3140 C   0  0  0  0  0  0  0  0  0  0  0  0
    0.8280   -0.2360    1.0540 C   0  0  0  0  0  0  0  0  0  0  0  0
    2.1350    0.0390    0.6290 C   0  0  0  0  0  0  0  0  0  0  0  0
    2.9800    0.8750    1.4000 N   0  0  0  0  0  0  0  0  0  0  0  0
    4.2910    1.2620    1.1510 C   0  0  0  0  0  0  0  0  0  0  0  0
    4.9800    0.8530    0.0470 C   0  0  0  0  0  0  0  0  0  0  0  0
    6.2960    1.2780   -0.1450 C   0  0  0  0  0  0  0  0  0  0  0  0
    6.9260    2.1010    0.7470 C   0  0  0  0  0  0  0  0  0  0  0  0
    6.2170    2.4870    1.8280 N   0  0  0  0  0  0  0  0  0  0  0  0
    4.9550    2.0930    2.0340 C   0  0  0  0  0  0  0  0  0  0  0  0
    2.4780   -0.5420   -0.5200 N   0  0  0  0  0  0  0  0  0  0  0  0
    1.6760   -1.3330   -1.2490 C   0  0  0  0  0  0  0  0  0  0  0  0
    0.4250   -1.6020   -0.8520 N   0  0  0  0  0  0  0  0  0  0  0  0
   -4.1930   -2.9140   -1.5530 S   0  0  1  0  0  0  0  0  0  0  0  0
   -3.7140   -2.7400   -3.2260 N   0  0  0  0  0  0  0  0  0  0  0  0
   -3.8550   -4.3490   -1.1490 O   0  0  0  0  0  0  0  0  0  0  0  0
   -5.6650   -2.7080   -1.4900 O   0  0  0  0  0  0  0  0  0  0  0  0
   -4.8840    0.0480   -1.0260 C   0  0  0  0  0  0  0  0  0  0  0  0
   -4.9840    1.7610   -0.4760 S   0  0  0  0  0  0  0  0  0  0  0  0
  1  2  1  0
  2  3  2  0
  2 26  1  0
  3  4  1  0
  4  5  1  0
  4 25  2  0
  5  6  2  3
  5 21  1  0
  6  7  1  0
  7  8  1  0
  8  9  2  0
  8 20  1  0
  9 10  1  0
 10 11  1  0
 10 18  2  0
 11 12  1  0
 12 13  2  0
 12 17  1  0
 13 14  1  0
 14 15  2  0
 15 16  1  0
 16 17  2  0
 18 19  1  0
 19 20  2  0
 21 22  1  6
 21 23  2  0
 21 24  2  0
 25 26  1  0
M  END
