
     RDKit          3D

 28 31  0  0  0  0  0  0  0  0999 V2000
    5.2660    1.2630   -0.3550 C   0  0  0  0  0  0  0  0  0  0  0  0
    3.9150    1.4980    0.1760 N   0  0  0  0  0  0  0  0  0  0  0  0
    3.1020    0.2920   -0.0650 C   0  0  2  0  0  0  0  0  0  0  0  0
    3.7900   -0.7860    0.7260 C   0  0  0  0  0  0  0  0  0  0  0  0
    4.8120   -0.6150    1.4040 O   0  0  0  0  0  0  0  0  0  0  0  0
    3.2190   -2.0510    0.6770 O   0  0  0  0  0  0  0  0  0  0  0  0
    3.8150   -3.0650    1.3860 N   0  0  0  0  0  0  0  0  0  0  0  0
    3.2030   -0.0410   -1.4960 C   0  0  0  0  0  0  0  0  0  0  0  0
    1.9440   -0.4160   -2.1850 C   0  0  0  0  0  0  0  0  0  0  0  0
    0.7050    0.3020   -1.6200 C   0  0  0  0  0  0  0  0  0  0  0  0
    0.6200   -0.1620   -0.2120 C   0  0  2  0  0  0  0  0  0  0  0  0
   -0.5600    0.1300    0.5090 N   0  0  0  0  0  0  0  0  0  0  0  0
   -1.7780    0.2960   -0.2170 C   0  0  1  0  0  0  0  0  0  0  0  0
   -2.5410   -0.9640   -0.3790 C   0  0  0  0  0  0  0  0  0  0  0  0
   -2.0310   -2.0680   -1.0260 C   0  0  0  0  0  0  0  0  0  0  0  0
   -2.7450   -3.2410   -1.1690 C   0  0  0  0  0  0  0  0  0  0  0  0
   -4.0020   -3.3590   -0.6700 C   0  0  0  0  0  0  0  0  0  0  0  0
   -4.5480   -2.2900   -0.0210 C   0  0  0  0  0  0  0  0  0  0  0  0
   -3.8210   -1.1020    0.1230 C   0  0  0  0  0  0  0  0  0  0  0  0
   -4.4860   -0.0570    0.8050 N   0  0  0  0  0  0  0  0  0  0  0  0
   -3.8260    1.1880    0.9890 C   0  0  0  0  0  0  0  0  0  0  0  0
   -4.4780    2.2340    1.6560 C   0  0  0  0  0  0  0  0  0  0  0  0
   -3.8460    3.4420    1.8290 C   0  0  0  0  0  0  0  0  0  0  0  0
   -2.5720    3.6070    1.3400 C   0  0  0  0  0  0  0  0  0  0  0  0
   -1.8930    4.7860    1.4820 F   0  0  0  0  0  0  0  0  0  0  0  0
   -1.9370    2.5790    0.6870 C   0  0  0  0  0  0  0  0  0  0  0  0
   -2.5690    1.3420    0.5040 C   0  0  0  0  0  0  0  0  0  0  0  0
    1.7800    0.5130    0.5220 C   0  0  0  0  0  0  0  0  0  0  0  0
  1  2  1  0
  3  2  1  6
  3  4  1  0
  3  8  1  0
  3 28  1  0
  4  5  2  0
  4  6  1  0
  6  7  1  0
  8  9  1  0
  9 10  1  0
 10 11  1  0
 11 12  1  1
 11 28  1  0
 13 12  1  1
 13 14  1  0
 13 27  1  0
 14 15  2  0
 14 19  1  0
 15 16  1  0
 16 17  2  0
 17 18  1  0
 18 19  2  0
 19 20  1  0
 20 21  1  0
 21 22  2  0
 21 27  1  0
 22 23  1  0
 23 24  2  0
 24 25  1  0
 24 26  1  0
 26 27  2  0
M  CHG  1  12   1
M  END
