
     RDKit          3D

 28 31  0  0  0  0  0  0  0  0999 V2000
   -6.8800    0.2720    1.5130 C   0  0  0  0  0  0  0  0  0  0  0  0
   -5.5630   -0.0280    0.8960 C   0  0  0  0  0  0  0  0  0  0  0  0
   -4.4020    0.5620    1.1280 C   0  0  0  0  0  0  0  0  0  0  0  0
   -4.0150    1.5970    1.9660 C   0  0  0  0  0  0  0  0  0  0  0  0
   -2.7570    2.0880    2.0830 C   0  0  0  0  0  0  0  0  0  0  0  0
   -1.7440    1.5110    1.2950 C   0  0  0  0  0  0  0  0  0  0  0  0
   -0.4550    2.0580    1.4340 N   0  0  0  0  0  0  0  0  0  0  0  0
    0.6960    1.4260    0.9350 C   0  0  0  0  0  0  0  0  0  0  0  0
    0.7250    0.3320    0.3300 O   0  0  0  0  0  0  0  0  0  0  0  0
    2.0080    2.0340    1.0990 N   0  0  0  0  0  0  0  0  0  0  0  0
    3.1630    1.4490    0.6260 N   0  0  0  0  0  0  0  0  0  0  0  0
    3.2790    0.8650   -0.5130 C   0  0  0  0  0  0  0  0  0  0  0  0
    4.5680    0.2910   -0.8770 C   0  0  0  0  0  0  0  0  0  0  0  0
    5.6530    0.3660   -0.0230 C   0  0  0  0  0  0  0  0  0  0  0  0
    6.8840   -0.1470   -0.2970 C   0  0  0  0  0  0  0  0  0  0  0  0
    7.9590    0.0090    0.7170 C   0  0  0  0  0  0  0  0  0  0  0  0
    7.9460   -1.0740    1.5790 F   0  0  0  0  0  0  0  0  0  0  0  0
    7.0810   -0.7900   -1.5060 C   0  0  0  0  0  0  0  0  0  0  0  0
    6.0250   -0.8860   -2.3830 C   0  0  0  0  0  0  0  0  0  0  0  0
    4.7710   -0.3520   -2.0810 C   0  0  0  0  0  0  0  0  0  0  0  0
    3.7670   -0.4840   -3.0010 O   0  0  0  0  0  0  0  0  0  0  0  0
   -2.0900    0.4780    0.4480 C   0  0  0  0  0  0  0  0  0  0  0  0
   -3.4020    0.0110    0.3670 C   0  0  0  0  0  0  0  0  0  0  0  0
   -3.8910   -0.9750   -0.4000 C   0  0  0  0  0  0  0  0  0  0  0  0
   -3.6060   -2.0090   -1.4130 C   0  0  0  0  0  0  0  0  0  0  0  0
   -4.8500   -2.6460   -1.6660 N   0  0  0  0  0  0  0  0  0  0  0  0
   -5.8250   -2.0320   -0.8540 C   0  0  0  0  0  0  0  0  0  0  0  0
   -5.3120   -1.0690   -0.1140 C   0  0  0  0  0  0  0  0  0  0  0  0
  1  2  1  0
  2  3  2  0
  2 28  1  0
  3  4  1  0
  3 23  1  0
  4  5  2  0
  5  6  1  0
  6  7  1  0
  6 22  2  0
  7  8  1  0
  8  9  2  0
  8 10  1  0
 10 11  1  0
 11 12  2  3
 12 13  1  0
 13 14  2  0
 13 20  1  0
 14 15  1  0
 15 16  1  0
 15 18  2  0
 16 17  1  0
 18 19  1  0
 19 20  2  0
 20 21  1  0
 22 23  1  0
 23 24  2  0
 24 25  1  0
 24 28  1  0
 25 26  1  0
 26 27  1  0
 27 28  2  0
M  CHG  1  26   1
M  END
