
     RDKit          3D

 28 31  0  0  0  0  0  0  0  0999 V2000
   -4.8080    1.7230    2.0800 C   0  0  0  0  0  0  0  0  0  0  0  0
   -5.4590    1.5390    0.9500 C   0  0  0  0  0  0  0  0  0  0  0  0
   -6.6990    2.0700    0.5470 N   0  0  0  0  0  0  0  0  0  0  0  0
   -7.0290    1.6060   -0.7520 C   0  0  0  0  0  0  0  0  0  0  0  0
   -8.0600    1.8780   -1.4220 O   0  0  0  0  0  0  0  0  0  0  0  0
   -5.9300    0.7270   -1.2010 C   0  0  0  0  0  0  0  0  0  0  0  0
   -5.7260    0.0130   -2.3630 C   0  0  0  0  0  0  0  0  0  0  0  0
   -4.5920   -0.7470   -2.5280 C   0  0  0  0  0  0  0  0  0  0  0  0
   -3.6500   -0.7940   -1.5210 C   0  0  0  0  0  0  0  0  0  0  0  0
   -2.4780   -1.5450   -1.6230 O   0  0  0  0  0  0  0  0  0  0  0  0
   -1.5640   -1.5590   -0.5850 C   0  0  0  0  0  0  0  0  0  0  0  0
   -1.8110   -2.4650    0.5440 C   0  0  0  0  0  0  0  0  0  0  0  0
   -0.5160   -0.7690   -0.6520 C   0  0  0  0  0  0  0  0  0  0  0  0
    0.4960   -0.7220    0.4080 C   0  0  0  0  0  0  0  0  0  0  0  0
    0.3200   -0.6700    1.7650 C   0  0  0  0  0  0  0  0  0  0  0  0
    1.5510   -0.6530    2.3740 C   0  0  0  0  0  0  0  0  0  0  0  0
    1.8370   -0.6000    3.7150 F   0  0  0  0  0  0  0  0  0  0  0  0
    2.5170   -0.6960    1.3500 C   0  0  0  0  0  0  0  0  0  0  0  0
    3.9610   -0.7010    1.5910 C   0  0  0  0  0  0  0  0  0  0  0  0
    4.8600   -0.1230    0.8400 C   0  0  0  0  0  0  0  0  0  0  0  0
    6.2820   -0.0940    1.0250 N   0  0  0  0  0  0  0  0  0  0  0  0
    6.8470    1.0180    0.2970 C   0  0  0  0  0  0  0  0  0  0  0  0
    5.7200    1.6730   -0.3010 N   0  0  0  0  0  0  0  0  0  0  0  0
    4.6490    0.6590   -0.3940 C   0  0  1  0  0  0  0  0  0  0  0  0
    4.9600   -0.2410   -1.5920 C   0  0  0  0  0  0  0  0  0  0  0  0
    1.8180   -0.7370    0.2060 N   0  0  0  0  0  0  0  0  0  0  0  0
   -3.8800   -0.0720   -0.3750 C   0  0  0  0  0  0  0  0  0  0  0  0
   -5.0180    0.7100   -0.1690 C   0  0  0  0  0  0  0  0  0  0  0  0
  1  2  2  0
  2  3  1  0
  2 28  1  0
  3  4  1  0
  4  5  2  0
  4  6  1  0
  6  7  2  0
  6 28  1  0
  7  8  1  0
  8  9  2  0
  9 10  1  0
  9 27  1  0
 10 11  1  0
 11 12  1  0
 11 13  2  3
 13 14  1  0
 14 15  2  0
 14 26  1  0
 15 16  1  0
 16 17  1  0
 16 18  2  0
 18 19  1  0
 18 26  1  0
 19 20  2  3
 20 21  1  0
 20 24  1  0
 21 22  1  0
 22 23  1  0
 23 24  1  0
 24 25  1  6
 27 28  2  0
M  CHG  1  23   1
M  END
