
     RDKit          3D

 28 31  0  0  0  0  0  0  0  0999 V2000
   -5.5250    1.7570   -0.6310 C   0  0  0  0  0  0  0  0  0  0  0  0
   -4.8560    0.4620   -0.9510 C   0  0  2  0  0  0  0  0  0  0  0  0
   -5.8430   -0.6410   -1.1280 C   0  0  0  0  0  0  0  0  0  0  0  0
   -5.5480   -1.9030   -0.3920 C   0  0  0  0  0  0  0  0  0  0  0  0
   -5.3160   -1.7100    1.0710 C   0  0  0  0  0  0  0  0  0  0  0  0
   -4.6670   -0.3790    1.3800 C   0  0  0  0  0  0  0  0  0  0  0  0
   -3.8470    0.0560    0.1440 C   0  0  2  0  0  0  0  0  0  0  0  0
   -2.9670    0.9660    0.4510 O   0  0  0  0  0  0  0  0  0  0  0  0
   -1.7300    1.4270    0.5740 C   0  0  0  0  0  0  0  0  0  0  0  0
   -1.5530    2.7510    1.0670 C   0  0  0  0  0  0  0  0  0  0  0  0
   -0.3230    3.2920    1.2200 C   0  0  0  0  0  0  0  0  0  0  0  0
    0.7880    2.5590    0.8980 C   0  0  0  0  0  0  0  0  0  0  0  0
    0.7190    1.2730    0.4150 C   0  0  0  0  0  0  0  0  0  0  0  0
    1.9220    0.5170    0.0800 C   0  0  0  0  0  0  0  0  0  0  0  0
    3.1670    1.0550    0.2320 N   0  0  0  0  0  0  0  0  0  0  0  0
    4.1040    0.1970   -0.1310 C   0  0  0  0  0  0  0  0  0  0  0  0
    5.4700    0.3080   -0.1450 C   0  0  0  0  0  0  0  0  0  0  0  0
    6.2740   -0.7190   -0.5660 C   0  0  0  0  0  0  0  0  0  0  0  0
    7.7300   -0.6650   -0.6060 C   0  0  0  0  0  0  0  0  0  0  0  0
    8.4610   -1.7930   -1.0620 N   0  0  0  0  0  0  0  0  0  0  0  0
    8.3620    0.3750   -0.2390 N   0  0  0  0  0  0  0  0  0  0  0  0
    5.6150   -1.8820   -0.9780 C   0  0  0  0  0  0  0  0  0  0  0  0
    6.3880   -2.9110   -1.3990 F   0  0  0  0  0  0  0  0  0  0  0  0
    4.2420   -1.9860   -0.9610 C   0  0  0  0  0  0  0  0  0  0  0  0
    3.4600   -0.9430   -0.5350 C   0  0  0  0  0  0  0  0  0  0  0  0
    2.1370   -0.6960   -0.3870 N   0  0  0  0  0  0  0  0  0  0  0  0
   -0.5650    0.7240    0.2610 C   0  0  0  0  0  0  0  0  0  0  0  0
   -0.6200   -0.5490   -0.2180 O   0  0  0  0  0  0  0  0  0  0  0  0
  2  1  1  1
  2  3  1  0
  2  7  1  0
  3  4  1  0
  4  5  1  0
  5  6  1  0
  6  7  1  0
  7  8  1  1
  8  9  1  0
  9 10  2  0
  9 27  1  0
 10 11  1  0
 11 12  2  0
 12 13  1  0
 13 14  1  0
 13 27  2  0
 14 15  2  0
 14 26  1  0
 15 16  1  0
 16 17  2  0
 16 25  1  0
 17 18  1  0
 18 19  1  0
 18 22  2  0
 19 20  1  0
 19 21  2  0
 22 23  1  0
 22 24  1  0
 24 25  2  0
 25 26  1  0
 27 28  1  0
M  CHG  1  21   1
M  END
