
     RDKit          3D

 28 30  0  0  0  0  0  0  0  0999 V2000
   -3.8490   -2.6940   -1.8430 C   0  0  0  0  0  0  0  0  0  0  0  0
   -3.5900   -2.8800   -0.5640 C   0  0  0  0  0  0  0  0  0  0  0  0
   -3.3010   -1.7320    0.2930 C   0  0  0  0  0  0  0  0  0  0  0  0
   -3.0460   -1.9440    1.5840 C   0  0  0  0  0  0  0  0  0  0  0  0
   -3.0600   -3.3430    2.1260 C   0  0  0  0  0  0  0  0  0  0  0  0
   -3.2850   -0.4280   -0.2000 N   0  0  0  0  0  0  0  0  0  0  0  0
   -2.3030    0.3670   -0.2540 C   0  0  0  0  0  0  0  0  0  0  0  0
   -2.5150    1.6890   -0.8090 N   0  0  0  0  0  0  0  0  0  0  0  0
   -1.6340    2.7320   -0.4390 C   0  0  0  0  0  0  0  0  0  0  0  0
   -1.7680    4.0300   -0.9230 C   0  0  0  0  0  0  0  0  0  0  0  0
   -0.9010    5.0350   -0.5500 C   0  0  0  0  0  0  0  0  0  0  0  0
    0.1260    4.7510    0.3230 C   0  0  0  0  0  0  0  0  0  0  0  0
    0.2860    3.4770    0.8200 C   0  0  0  0  0  0  0  0  0  0  0  0
   -0.6070    2.4750    0.4270 C   0  0  0  0  0  0  0  0  0  0  0  0
   -0.4370    1.1900    0.9350 O   0  0  0  0  0  0  0  0  0  0  0  0
   -0.9400    0.0520    0.2260 C   0  0  2  0  0  0  0  0  0  0  0  0
   -0.0540   -0.2120   -0.9710 C   0  0  2  0  0  0  0  0  0  0  0  0
   -0.6580   -1.3600   -1.6670 N   0  0  0  0  0  0  0  0  0  0  0  0
    1.3220   -0.6550   -0.5760 C   0  0  0  0  0  0  0  0  0  0  0  0
    1.6490   -1.8340   -0.8310 O   0  0  0  0  0  0  0  0  0  0  0  0
    2.2540    0.1660    0.0550 N   0  0  0  0  0  0  0  0  0  0  0  0
    3.5710   -0.1430    0.4710 C   0  0  0  0  0  0  0  0  0  0  0  0
    4.1830   -1.3580    0.3170 C   0  0  0  0  0  0  0  0  0  0  0  0
    5.4830   -1.6480    0.7320 C   0  0  0  0  0  0  0  0  0  0  0  0
    6.1880   -0.6350    1.3370 C   0  0  0  0  0  0  0  0  0  0  0  0
    5.6320    0.6100    1.5230 C   0  0  0  0  0  0  0  0  0  0  0  0
    4.3490    0.8400    1.0950 C   0  0  0  0  0  0  0  0  0  0  0  0
    3.7750    2.0560    1.2650 F   0  0  0  0  0  0  0  0  0  0  0  0
  1  2  2  0
  2  3  1  0
  3  4  2  3
  3  6  1  0
  4  5  1  0
  6  7  2  3
  7  8  1  0
  7 16  1  0
  8  9  1  0
  9 10  2  0
  9 14  1  0
 10 11  1  0
 11 12  2  0
 12 13  1  0
 13 14  2  0
 14 15  1  0
 16 15  1  6
 16 17  1  0
 17 18  1  6
 17 19  1  0
 19 20  2  0
 19 21  1  0
 21 22  1  0
 22 23  2  0
 22 27  1  0
 23 24  1  0
 24 25  2  0
 25 26  1  0
 26 27  2  0
 27 28  1  0
M  CHG  1  18   1
M  END
