
     RDKit          3D

 28 30  0  0  0  0  0  0  0  0999 V2000
   -4.6670    2.1170   -1.8730 C   0  0  0  0  0  0  0  0  0  0  0  0
   -3.6180    1.3940   -1.1160 C   0  0  0  0  0  0  0  0  0  0  0  0
   -2.2870    1.7320   -1.1860 C   0  0  0  0  0  0  0  0  0  0  0  0
   -1.2960    0.9960   -0.5320 C   0  0  0  0  0  0  0  0  0  0  0  0
   -1.6260   -0.1180    0.1980 C   0  0  0  0  0  0  0  0  0  0  0  0
   -3.0150   -0.4500    0.2700 C   0  0  0  0  0  0  0  0  0  0  0  0
   -3.4570   -1.6820    0.9950 C   0  0  0  0  0  0  0  0  0  0  0  0
   -3.9560    0.2950   -0.3640 C   0  0  0  0  0  0  0  0  0  0  0  0
   -5.4500    0.0930   -0.2990 C   0  0  0  0  0  0  0  0  0  0  0  0
   -5.9230    0.0210    1.0520 N   0  0  0  0  0  0  0  0  0  0  0  0
   -0.7400   -1.1540    0.6720 C   0  0  0  0  0  0  0  0  0  0  0  0
   -1.1140   -2.4220    0.3820 O   0  0  0  0  0  0  0  0  0  0  0  0
    0.5100   -1.3180    1.3960 C   0  0  0  0  0  0  0  0  0  0  0  0
    1.3800   -2.1570    0.4670 C   0  0  0  0  0  0  0  0  0  0  0  0
    2.6220   -2.2700    0.2320 C   0  0  0  0  0  0  0  0  0  0  0  0
    3.9270   -1.8200    0.5630 C   0  0  0  0  0  0  0  0  0  0  0  0
    4.5470   -2.6170    1.5510 F   0  0  0  0  0  0  0  0  0  0  0  0
    4.6950   -0.8140    0.1600 C   0  0  0  0  0  0  0  0  0  0  0  0
    6.0330   -0.6770    0.7510 N   0  0  0  0  0  0  0  0  0  0  0  0
    6.9460    0.3430    0.2860 C   0  0  0  0  0  0  0  0  0  0  0  0
    6.5960    1.1360   -0.6620 C   0  0  0  0  0  0  0  0  0  0  0  0
    5.2820    1.0600   -1.2770 C   0  0  0  0  0  0  0  0  0  0  0  0
    4.4250    0.1590   -0.8720 C   0  0  0  0  0  0  0  0  0  0  0  0
    2.9910    0.3620   -1.3730 C   0  0  0  0  0  0  0  0  0  0  0  0
    2.3180    0.7990   -0.1650 N   0  0  0  0  0  0  0  0  0  0  0  0
    1.1790    1.5040    0.1070 C   0  0  0  0  0  0  0  0  0  0  0  0
    1.3250    2.0970    1.3230 O   0  0  0  0  0  0  0  0  0  0  0  0
   -0.0440    1.7380   -0.5040 N   0  0  0  0  0  0  0  0  0  0  0  0
  1  2  1  0
  2  3  2  0
  2  8  1  0
  3  4  1  0
  4  5  2  0
  4 28  1  0
  5  6  1  0
  5 11  1  0
  6  7  1  0
  6  8  2  0
  8  9  1  0
  9 10  1  0
 11 12  2  0
 11 13  1  0
 13 14  1  0
 14 15  2  0
 15 16  1  0
 16 17  1  0
 16 18  2  0
 18 19  1  0
 18 23  1  0
 19 20  1  0
 20 21  2  0
 21 22  1  0
 22 23  2  0
 23 24  1  0
 24 25  1  0
 25 26  1  0
 26 27  2  0
 26 28  1  0
M  CHG  1  10   1
M  END
