
     RDKit          3D

 28 31  0  0  0  0  0  0  0  0999 V2000
    7.5400    0.2450   -1.1430 N   0  0  0  0  0  0  0  0  0  0  0  0
    6.1340    0.2910   -0.9510 C   0  0  0  0  0  0  0  0  0  0  0  0
    5.2640    0.7970   -1.8810 C   0  0  0  0  0  0  0  0  0  0  0  0
    3.8950    0.8350   -1.6790 C   0  0  0  0  0  0  0  0  0  0  0  0
    3.0570    1.3610   -2.6600 O   0  0  0  0  0  0  0  0  0  0  0  0
    3.4140    0.3380   -0.4860 C   0  0  0  0  0  0  0  0  0  0  0  0
    2.0000    0.3640   -0.2490 N   0  0  0  0  0  0  0  0  0  0  0  0
    1.1620   -0.6820   -0.6070 C   0  0  0  0  0  0  0  0  0  0  0  0
    1.6670   -1.6970   -1.1650 O   0  0  0  0  0  0  0  0  0  0  0  0
   -0.2650   -0.6560   -0.3680 C   0  0  0  0  0  0  0  0  0  0  0  0
   -0.8700    0.3580    0.2050 C   0  0  0  0  0  0  0  0  0  0  0  0
   -2.3060    0.3990    0.4510 C   0  0  0  0  0  0  0  0  0  0  0  0
   -2.8530    1.4720    1.0460 C   0  0  0  0  0  0  0  0  0  0  0  0
   -4.2720    1.5910    1.3300 C   0  0  0  0  0  0  0  0  0  0  0  0
   -5.0470    0.6000    0.9930 C   0  0  0  0  0  0  0  0  0  0  0  0
   -6.5170    0.7170    1.2810 C   0  0  0  0  0  0  0  0  0  0  0  0
   -7.2630   -0.2110    0.4510 N   0  0  0  0  0  0  0  0  0  0  0  0
   -6.6970   -0.2800   -0.8730 C   0  0  0  0  0  0  0  0  0  0  0  0
   -5.3320   -0.9460   -0.9000 C   0  0  0  0  0  0  0  0  0  0  0  0
   -4.5640   -0.6280    0.3740 C   0  0  1  0  0  0  0  0  0  0  0  0
   -3.1530   -0.6490    0.0580 N   0  0  0  0  0  0  0  0  0  0  0  0
    4.2330   -0.1800    0.4820 C   0  0  0  0  0  0  0  0  0  0  0  0
    3.7370   -0.6710    1.6650 C   0  0  0  0  0  0  0  0  0  0  0  0
    2.3950   -0.6630    1.9270 F   0  0  0  0  0  0  0  0  0  0  0  0
    4.5540   -1.1960    2.6490 C   0  0  0  0  0  0  0  0  0  0  0  0
    5.9140   -1.2030    2.3810 C   0  0  0  0  0  0  0  0  0  0  0  0
    6.4340   -0.7150    1.1980 C   0  0  0  0  0  0  0  0  0  0  0  0
    5.5880   -0.1950    0.2330 C   0  0  0  0  0  0  0  0  0  0  0  0
  1  2  1  0
  2  3  2  0
  2 28  1  0
  3  4  1  0
  4  5  1  0
  4  6  2  0
  6  7  1  0
  6 22  1  0
  7  8  1  0
  8  9  2  0
  8 10  1  0
 10 11  2  3
 11 12  1  0
 12 13  2  0
 12 21  1  0
 13 14  1  0
 14 15  2  0
 15 16  1  0
 15 20  1  0
 16 17  1  0
 17 18  1  0
 18 19  1  0
 20 19  1  6
 20 21  1  0
 22 23  2  0
 22 28  1  0
 23 24  1  0
 23 25  1  0
 25 26  2  0
 26 27  1  0
 27 28  2  0
M  END
