
     RDKit          3D

 28 30  0  0  0  0  0  0  0  0999 V2000
    1.7460   -4.3860   -0.0650 C   0  0  0  0  0  0  0  0  0  0  0  0
    2.7920   -3.3130   -0.0350 C   0  0  0  0  0  0  0  0  0  0  0  0
    2.4740   -2.0450   -0.2260 C   0  0  0  0  0  0  0  0  0  0  0  0
    1.1150   -1.7800   -0.4560 N   0  0  0  0  0  0  0  0  0  0  0  0
    0.3180   -1.0260    0.4950 C   0  0  0  0  0  0  0  0  0  0  0  0
    0.8880   -0.6250    1.5200 O   0  0  0  0  0  0  0  0  0  0  0  0
   -1.0470   -0.7650    0.2560 N   0  0  0  0  0  0  0  0  0  0  0  0
   -1.8930   -0.0180    1.1190 C   0  0  0  0  0  0  0  0  0  0  0  0
   -1.1770    0.6020    2.2980 C   0  0  0  0  0  0  0  0  0  0  0  0
   -3.1590    0.2300    0.9460 C   0  0  0  0  0  0  0  0  0  0  0  0
   -3.8720    1.0510    2.0060 C   0  0  0  0  0  0  0  0  0  0  0  0
   -4.2320    2.3930    1.4480 C   0  0  0  0  0  0  0  0  0  0  0  0
   -4.6680    2.3820    0.0230 C   0  0  0  0  0  0  0  0  0  0  0  0
   -4.3050    1.2520   -0.8430 C   0  0  0  0  0  0  0  0  0  0  0  0
   -4.0910   -0.0810   -0.1370 C   0  0  1  0  0  0  0  0  0  0  0  0
   -3.8420   -1.1170   -1.0520 N   0  0  0  0  0  0  0  0  0  0  0  0
    3.4890   -1.0360   -0.0910 C   0  0  0  0  0  0  0  0  0  0  0  0
    4.6570   -1.3490    0.6380 C   0  0  0  0  0  0  0  0  0  0  0  0
    5.6640   -0.4330    0.7670 C   0  0  0  0  0  0  0  0  0  0  0  0
    6.6940   -0.7740    1.4370 O   0  0  0  0  0  0  0  0  0  0  0  0
    5.6330    0.7870    0.2380 N   0  0  0  0  0  0  0  0  0  0  0  0
    4.5400    1.1220   -0.4630 C   0  0  0  0  0  0  0  0  0  0  0  0
    4.5140    2.3690   -1.0430 C   0  0  0  0  0  0  0  0  0  0  0  0
    3.4500    2.7780   -1.8060 C   0  0  0  0  0  0  0  0  0  0  0  0
    3.4300    4.0110   -2.3740 F   0  0  0  0  0  0  0  0  0  0  0  0
    2.4140    1.9140   -1.9790 C   0  0  0  0  0  0  0  0  0  0  0  0
    2.4390    0.6520   -1.3930 C   0  0  0  0  0  0  0  0  0  0  0  0
    3.4810    0.2240   -0.6290 C   0  0  0  0  0  0  0  0  0  0  0  0
  1  2  1  0
  2  3  2  3
  3  4  1  0
  3 17  1  0
  4  5  1  0
  5  6  2  0
  5  7  1  0
  7  8  1  0
  8  9  1  0
  8 10  2  3
 10 11  1  0
 10 15  1  0
 11 12  1  0
 12 13  1  0
 13 14  1  0
 14 15  1  0
 15 16  1  6
 17 18  2  0
 17 28  1  0
 18 19  1  0
 19 20  2  0
 19 21  1  0
 21 22  1  0
 22 23  2  0
 22 28  1  0
 23 24  1  0
 24 25  1  0
 24 26  2  0
 26 27  1  0
 27 28  2  0
M  CHG  1  16   1
M  END
