
     RDKit          3D

 12 12  0  0  0  0  0  0  0  0999 V2000
    3.1600   -0.6970   -0.0820 C   0  0  0  0  0  0  0  0  0  0  0  0
    2.1670    0.2980   -0.0330 O   0  0  0  0  0  0  0  0  0  0  0  0
    0.8280   -0.1270    0.0080 C   0  0  0  0  0  0  0  0  0  0  0  0
    0.5120   -1.4700    0.0020 C   0  0  0  0  0  0  0  0  0  0  0  0
   -0.7840   -1.9330    0.0420 C   0  0  0  0  0  0  0  0  0  0  0  0
   -1.7920   -0.9930    0.0900 C   0  0  0  0  0  0  0  0  0  0  0  0
   -3.1290   -1.4010    0.1320 O   0  0  0  0  0  0  0  0  0  0  0  0
   -1.5060    0.3660    0.0970 C   0  0  0  0  0  0  0  0  0  0  0  0
   -2.5220    1.3390    0.1460 O   0  0  0  0  0  0  0  0  0  0  0  0
   -0.2010    0.7900    0.0570 C   0  0  0  0  0  0  0  0  0  0  0  0
    0.1660    2.2290    0.0630 C   0  0  0  0  0  0  0  0  0  0  0  0
   -1.0030    2.9940    0.1140 O   0  0  0  0  0  0  0  0  0  0  0  0
  1  2  1  0
  2  3  1  0
  3  4  2  0
  3 10  1  0
  4  5  1  0
  5  6  2  0
  6  7  1  0
  6  8  1  0
  8  9  1  0
  8 10  2  0
 10 11  1  0
 11 12  1  0
M  END
