
     RDKit          3D

 11 11  0  0  0  0  0  0  0  0999 V2000
    3.4410    0.2660   -0.9130 O   0  0  0  0  0  0  0  0  0  0  0  0
    2.6960    0.0570    0.2390 C   0  0  0  0  0  0  0  0  0  0  0  0
    1.2160    0.3860   -0.0030 C   0  0  1  0  0  0  0  0  0  0  0  0
    0.7410   -0.5150   -1.0890 C   0  0  0  0  0  0  0  0  0  0  0  0
   -0.7400   -0.5750   -1.2480 C   0  0  0  0  0  0  0  0  0  0  0  0
   -1.4980   -0.4090    0.0420 C   0  0  2  0  0  0  0  0  0  0  0  0
   -2.6320   -1.2210    0.0730 O   0  0  0  0  0  0  0  0  0  0  0  0
   -1.9800    1.0180    0.1240 C   0  0  0  0  0  0  0  0  0  0  0  0
   -2.8110    1.2120   -0.9970 O   0  0  0  0  0  0  0  0  0  0  0  0
   -0.5800   -0.7960    1.1710 C   0  0  0  0  0  0  0  0  0  0  0  0
    0.4840    0.2640    1.2870 C   0  0  0  0  0  0  0  0  0  0  0  0
  1  2  1  0
  3  2  1  1
  3  4  1  0
  3 11  1  0
  4  5  1  0
  5  6  1  0
  6  7  1  6
  6  8  1  0
  6 10  1  0
  8  9  1  0
 10 11  1  0
M  END
