
     RDKit          3D

 12 12  0  0  0  0  0  0  0  0999 V2000
    4.1730    0.3550    0.3480 O   0  0  0  0  0  0  0  0  0  0  0  0
    3.2600   -0.5480   -0.2360 C   0  0  0  0  0  0  0  0  0  0  0  0
    1.8820   -0.0100    0.0370 C   0  0  0  0  0  0  0  0  0  0  0  0
    0.8640   -0.8140   -0.4900 O   0  0  0  0  0  0  0  0  0  0  0  0
   -0.4580   -0.4350   -0.3120 C   0  0  0  0  0  0  0  0  0  0  0  0
   -0.7760    0.7170    0.3750 C   0  0  0  0  0  0  0  0  0  0  0  0
   -2.0980    1.1090    0.5610 C   0  0  0  0  0  0  0  0  0  0  0  0
   -2.3220    2.2820    1.2640 O   0  0  0  0  0  0  0  0  0  0  0  0
   -3.0780    0.3250    0.0470 C   0  0  0  0  0  0  0  0  0  0  0  0
   -2.8260   -0.8360   -0.6480 C   0  0  0  0  0  0  0  0  0  0  0  0
   -1.5020   -1.2080   -0.8220 C   0  0  0  0  0  0  0  0  0  0  0  0
   -1.2320   -2.3840   -1.5250 O   0  0  0  0  0  0  0  0  0  0  0  0
  1  2  1  0
  2  3  1  0
  3  4  1  0
  4  5  1  0
  5  6  2  0
  5 11  1  0
  6  7  1  0
  7  8  1  0
  7  9  2  0
  9 10  1  0
 10 11  2  0
 11 12  1  0
M  END
