
     RDKit          3D

 12 12  0  0  0  0  0  0  0  0999 V2000
   -3.8030   -0.5110    0.7450 O   0  0  0  0  0  0  0  0  0  0  0  0
   -3.6450    0.5450   -0.1830 C   0  0  0  0  0  0  0  0  0  0  0  0
   -2.2980    0.2940   -0.8490 C   0  0  0  0  0  0  0  0  0  0  0  0
   -1.3290    0.3170    0.1550 O   0  0  0  0  0  0  0  0  0  0  0  0
    0.0240    0.1290   -0.0510 C   0  0  0  0  0  0  0  0  0  0  0  0
    0.4820   -0.1010   -1.3330 C   0  0  0  0  0  0  0  0  0  0  0  0
    1.8310   -0.2910   -1.5520 C   0  0  0  0  0  0  0  0  0  0  0  0
    2.7370   -0.2510   -0.4780 C   0  0  0  0  0  0  0  0  0  0  0  0
    4.0760   -0.4480   -0.7620 O   0  0  0  0  0  0  0  0  0  0  0  0
    2.2680   -0.0210    0.7930 C   0  0  0  0  0  0  0  0  0  0  0  0
    3.1390    0.0200    1.8520 O   0  0  0  0  0  0  0  0  0  0  0  0
    0.9000    0.1710    1.0150 C   0  0  0  0  0  0  0  0  0  0  0  0
  1  2  1  0
  2  3  1  0
  3  4  1  0
  4  5  1  0
  5  6  2  0
  5 12  1  0
  6  7  1  0
  7  8  2  0
  8  9  1  0
  8 10  1  0
 10 11  1  0
 10 12  2  0
M  END
