
     RDKit          3D

 28 31  0  0  0  0  0  0  0  0999 V2000
   -4.1630    0.0020   -2.8160 C   0  0  0  0  0  0  0  0  0  0  0  0
   -4.8260   -0.2670   -1.4850 C   0  0  1  0  0  0  0  0  0  0  0  0
   -4.8510   -1.7350   -1.1400 C   0  0  0  0  0  0  0  0  0  0  0  0
   -5.7620   -1.8940    0.0590 C   0  0  0  0  0  0  0  0  0  0  0  0
   -5.2340   -1.0740    1.2160 C   0  0  0  0  0  0  0  0  0  0  0  0
   -5.0450    0.3650    0.8650 C   0  0  0  0  0  0  0  0  0  0  0  0
   -4.2160    0.5760   -0.3840 C   0  0  1  0  0  0  0  0  0  0  0  0
   -2.8690    0.3870   -0.2040 O   0  0  0  0  0  0  0  0  0  0  0  0
   -1.8020    1.2050   -0.3170 C   0  0  0  0  0  0  0  0  0  0  0  0
   -1.9690    2.5170   -0.6790 C   0  0  0  0  0  0  0  0  0  0  0  0
   -0.8750    3.3840   -0.8030 C   0  0  0  0  0  0  0  0  0  0  0  0
    0.3720    2.8570   -0.5440 C   0  0  0  0  0  0  0  0  0  0  0  0
    0.5910    1.5480   -0.1780 C   0  0  0  0  0  0  0  0  0  0  0  0
    1.9300    1.0300    0.0870 C   0  0  0  0  0  0  0  0  0  0  0  0
    2.3130   -0.1870    0.4440 N   0  0  0  0  0  0  0  0  0  0  0  0
    3.6480   -0.2360    0.5850 C   0  0  0  0  0  0  0  0  0  0  0  0
    4.5740   -1.2150    0.9320 C   0  0  0  0  0  0  0  0  0  0  0  0
    5.9290   -0.9840    1.0020 C   0  0  0  0  0  0  0  0  0  0  0  0
    6.8770   -2.0180    1.3650 C   0  0  0  0  0  0  0  0  0  0  0  0
    8.2670   -1.6590    1.4060 N   0  0  0  0  0  0  0  0  0  0  0  0
    6.4890   -3.1980    1.6380 N   0  0  0  0  0  0  0  0  0  0  0  0
    6.3880    0.3060    0.7060 C   0  0  0  0  0  0  0  0  0  0  0  0
    7.7380    0.5420    0.7740 F   0  0  0  0  0  0  0  0  0  0  0  0
    5.4960    1.2810    0.3640 C   0  0  0  0  0  0  0  0  0  0  0  0
    4.1420    1.0170    0.3030 C   0  0  0  0  0  0  0  0  0  0  0  0
    3.0490    1.7690    0.0000 N   0  0  0  0  0  0  0  0  0  0  0  0
   -0.5330    0.7300   -0.0700 C   0  0  0  0  0  0  0  0  0  0  0  0
   -0.2800   -0.5870    0.3010 O   0  0  0  0  0  0  0  0  0  0  0  0
  2  1  1  6
  2  3  1  0
  2  7  1  0
  3  4  1  0
  4  5  1  0
  5  6  1  0
  6  7  1  0
  7  8  1  1
  8  9  1  0
  9 10  2  0
  9 27  1  0
 10 11  1  0
 11 12  2  0
 12 13  1  0
 13 14  1  0
 13 27  2  0
 14 15  2  0
 14 26  1  0
 15 16  1  0
 16 17  2  0
 16 25  1  0
 17 18  1  0
 18 19  1  0
 18 22  2  0
 19 20  1  0
 19 21  2  0
 22 23  1  0
 22 24  1  0
 24 25  2  0
 25 26  1  0
 27 28  1  0
M  CHG  1  21   1
M  END
