
     RDKit          3D

 22 22  0  0  0  0  0  0  0  0999 V2000
   -5.0570    2.4890   -0.3370 C   0  0  0  0  0  0  0  0  0  0  0  0
   -3.8700    1.9550   -0.1290 C   0  0  0  0  0  0  0  0  0  0  0  0
   -2.6870    2.7660   -0.4920 C   0  0  0  0  0  0  0  0  0  0  0  0
   -1.4830    2.2680   -0.2930 C   0  0  0  0  0  0  0  0  0  0  0  0
   -0.2720    3.0460   -0.6380 C   0  0  0  0  0  0  0  0  0  0  0  0
   -1.2570    0.9540    0.2690 N   0  0  0  0  0  0  0  0  0  0  0  0
    0.0670    0.5360    0.4500 C   0  0  0  0  0  0  0  0  0  0  0  0
    0.8450    0.0500   -0.6670 C   0  0  0  0  0  0  0  0  0  0  0  0
    0.3720   -0.0400   -1.8250 O   0  0  0  0  0  0  0  0  0  0  0  0
    2.1870   -0.3420   -0.4610 N   0  0  0  0  0  0  0  0  0  0  0  0
    3.0260   -0.8380   -1.5180 C   0  0  0  0  0  0  0  0  0  0  0  0
    4.4010   -1.1570   -0.9410 C   0  0  2  0  0  0  0  0  0  0  0  0
    4.9800    0.1080   -0.3640 C   0  0  0  0  0  0  0  0  0  0  0  0
    5.2720   -1.7810   -1.9640 C   0  0  0  0  0  0  0  0  0  0  0  0
    4.8910   -2.0020   -3.1400 O   0  0  0  0  0  0  0  0  0  0  0  0
    6.5640   -2.1370   -1.6080 O   0  0  0  0  0  0  0  0  0  0  0  0
   -2.3750    0.1700    0.6140 C   0  0  0  0  0  0  0  0  0  0  0  0
   -2.3200   -1.1630    1.1320 C   0  0  0  0  0  0  0  0  0  0  0  0
   -1.3220   -1.9270    1.3830 C   0  0  0  0  0  0  0  0  0  0  0  0
   -1.5930   -3.3430    1.9550 C   0  0  0  0  0  0  0  0  0  0  0  0
   -3.6360    0.6520    0.4250 C   0  0  0  0  0  0  0  0  0  0  0  0
   -4.8240   -0.1760    0.7890 C   0  0  0  0  0  0  0  0  0  0  0  0
  1  2  2  0
  2  3  1  0
  2 21  1  0
  3  4  2  0
  4  5  1  0
  4  6  1  0
  6  7  1  0
  6 17  1  0
  7  8  1  0
  8  9  2  0
  8 10  1  0
 10 11  1  0
 11 12  1  0
 12 13  1  6
 12 14  1  0
 14 15  2  0
 14 16  1  0
 17 18  1  0
 17 21  2  0
 18 19  2  3
 19 20  1  0
 21 22  1  0
M  END
