
     RDKit          3D

 32 35  0  0  0  0  0  0  0  0999 V2000
    6.4100    2.9670    1.2910 C   0  0  0  0  0  0  0  0  0  0  0  0
    5.8410    2.2230    0.1170 C   0  0  1  0  0  0  0  0  0  0  0  0
    6.0340    0.7530    0.2960 C   0  0  0  0  0  0  0  0  0  0  0  0
    5.0640    0.1110    1.2440 C   0  0  0  0  0  0  0  0  0  0  0  0
    3.7360    0.4930    0.8510 N   0  0  0  0  0  0  0  0  0  0  0  0
    2.7230   -0.5230    0.6790 C   0  0  0  0  0  0  0  0  0  0  0  0
    3.0280   -1.8090    0.8930 N   0  0  0  0  0  0  0  0  0  0  0  0
    2.0790   -2.7660    0.7200 C   0  0  0  0  0  0  0  0  0  0  0  0
    0.8350   -2.3670    0.3330 C   0  0  0  0  0  0  0  0  0  0  0  0
    0.4490   -1.0980    0.1100 C   0  0  0  0  0  0  0  0  0  0  0  0
   -0.6970   -0.5390    0.1040 C   0  0  0  0  0  0  0  0  0  0  0  0
   -2.1090   -0.5980    0.2800 C   0  0  0  0  0  0  0  0  0  0  0  0
   -2.7750    0.7680   -0.0750 C   0  0  0  0  0  0  0  0  0  0  0  0
   -2.6870    1.0450   -1.4530 N   0  0  0  0  0  0  0  0  0  0  0  0
   -3.2870    2.3050   -1.8210 C   0  0  2  0  0  0  0  0  0  0  0  0
   -4.1940    2.8870   -0.7760 C   0  0  0  0  0  0  0  0  0  0  0  0
   -4.1310    2.0810   -3.0820 C   0  0  0  0  0  0  0  0  0  0  0  0
   -2.9030   -1.4590    0.7950 C   0  0  0  0  0  0  0  0  0  0  0  0
   -2.3490   -2.6200    1.3720 F   0  0  0  0  0  0  0  0  0  0  0  0
   -4.3850   -1.5170    0.6780 C   0  0  0  0  0  0  0  0  0  0  0  0
   -5.0120   -2.4890    1.3990 C   0  0  0  0  0  0  0  0  0  0  0  0
   -6.7280   -2.3160    1.0530 S   0  0  0  0  0  0  0  0  0  0  0  0
   -7.2050   -3.6120    0.3850 O   0  0  0  0  0  0  0  0  0  0  0  0
   -6.5670   -0.9930   -0.0700 C   0  0  0  0  0  0  0  0  0  0  0  0
   -5.2470   -0.7320   -0.1110 C   0  0  0  0  0  0  0  0  0  0  0  0
    1.5190   -0.1400    0.3070 N   0  0  0  0  0  0  0  0  0  0  0  0
   -0.0570   -3.3260    0.0230 C   0  0  0  0  0  0  0  0  0  0  0  0
    0.2240   -4.7350    0.0960 C   0  0  0  0  0  0  0  0  0  0  0  0
    1.4400   -5.1390    0.4890 C   0  0  0  0  0  0  0  0  0  0  0  0
    2.3910   -4.1420    0.8080 N   0  0  0  0  0  0  0  0  0  0  0  0
    3.4080    1.8610    0.6280 C   0  0  0  0  0  0  0  0  0  0  0  0
    4.4350    2.6280   -0.1590 C   0  0  0  0  0  0  0  0  0  0  0  0
  2  1  1  1
  2  3  1  0
  2 32  1  0
  3  4  1  0
  4  5  1  0
  5  6  1  0
  5 31  1  0
  6  7  1  0
  6 26  2  0
  7  8  2  0
  8  9  1  0
  8 30  1  0
  9 10  1  0
  9 27  2  0
 10 11  2  3
 10 26  1  0
 11 12  1  0
 12 13  1  0
 12 18  2  3
 13 14  1  0
 14 15  1  0
 15 16  1  1
 15 17  1  0
 18 19  1  0
 18 20  1  0
 20 21  2  0
 20 25  1  0
 22 21  1  6
 22 23  2  0
 22 24  1  0
 24 25  2  0
 27 28  1  0
 28 29  2  0
 29 30  1  0
 31 32  1  0
M  CHG  1  14   1
M  END
