
     RDKit          3D

 33 36  0  0  0  0  0  0  0  0999 V2000
   -7.0750    2.0260    0.4060 C   0  0  0  0  0  0  0  0  0  0  0  0
   -5.6750    1.7950   -0.1130 C   0  0  0  0  0  0  0  0  0  0  0  0
   -5.2260    0.3600    0.0900 C   0  0  2  0  0  0  0  0  0  0  0  0
   -5.2180   -0.0410    1.5260 C   0  0  0  0  0  0  0  0  0  0  0  0
   -3.7850    0.2990   -0.4100 C   0  0  0  0  0  0  0  0  0  0  0  0
   -3.2760   -1.0260   -0.4670 N   0  0  0  0  0  0  0  0  0  0  0  0
   -2.3950   -1.2840   -1.5620 C   0  0  0  0  0  0  0  0  0  0  0  0
   -1.1890   -0.4170   -1.5530 C   0  0  0  0  0  0  0  0  0  0  0  0
   -1.2140    0.7620   -2.1990 N   0  0  0  0  0  0  0  0  0  0  0  0
   -0.1570    1.5950   -2.2300 C   0  0  0  0  0  0  0  0  0  0  0  0
    0.9530    1.2090   -1.5820 N   0  0  0  0  0  0  0  0  0  0  0  0
    1.0280    0.0410   -0.9220 C   0  0  0  0  0  0  0  0  0  0  0  0
    2.2440   -0.2780   -0.2680 N   0  0  0  0  0  0  0  0  0  0  0  0
    3.3620    0.4000   -0.2600 N   0  0  0  0  0  0  0  0  0  0  0  0
    4.2910   -0.2730    0.5010 C   0  0  0  0  0  0  0  0  0  0  0  0
    5.6470    0.2110    0.7180 C   0  0  0  0  0  0  0  0  0  0  0  0
    6.5180   -0.3660    1.3990 O   0  0  0  0  0  0  0  0  0  0  0  0
    6.0320    1.5270    0.0620 C   0  0  1  0  0  0  0  0  0  0  0  0
    5.8710    1.3560   -1.4150 C   0  0  0  0  0  0  0  0  0  0  0  0
    5.0650    2.5560    0.6070 C   0  0  0  0  0  0  0  0  0  0  0  0
    7.4470    1.8690    0.3980 C   0  0  0  0  0  0  0  0  0  0  0  0
    3.6910   -1.4340    0.9830 C   0  0  0  0  0  0  0  0  0  0  0  0
    4.1410   -2.4670    1.7820 C   0  0  0  0  0  0  0  0  0  0  0  0
    5.3600   -2.3780    2.1880 O   0  0  0  0  0  0  0  0  0  0  0  0
    3.4600   -3.5390    2.1780 N   0  0  0  0  0  0  0  0  0  0  0  0
    2.1930   -3.8590    1.8950 C   0  0  0  0  0  0  0  0  0  0  0  0
    1.5010   -5.2270    2.4680 S   0  0  0  0  0  0  0  0  0  0  0  0
    1.4070   -2.7280    0.9080 S   0  0  0  0  0  0  0  0  0  0  0  0
    2.3970   -1.3950    0.4700 C   0  0  0  0  0  0  0  0  0  0  0  0
   -0.0470   -0.7470   -0.9230 N   0  0  0  0  0  0  0  0  0  0  0  0
   -4.2480   -2.0590   -0.3510 C   0  0  0  0  0  0  0  0  0  0  0  0
   -5.5880   -1.7120   -0.9090 C   0  0  0  0  0  0  0  0  0  0  0  0
   -6.0310   -0.4420   -0.6740 O   0  0  0  0  0  0  0  0  0  0  0  0
  1  2  1  0
  2  3  1  0
  3  4  1  1
  3  5  1  0
  3 33  1  0
  5  6  1  0
  6  7  1  0
  6 31  1  0
  7  8  1  0
  8  9  2  0
  8 30  1  0
  9 10  1  0
 10 11  2  0
 11 12  1  0
 12 13  1  0
 12 30  2  0
 13 14  1  0
 13 29  1  0
 14 15  2  0
 15 16  1  0
 15 22  1  0
 16 17  2  0
 16 18  1  0
 18 19  1  6
 18 20  1  0
 18 21  1  0
 22 23  1  0
 22 29  2  0
 23 24  2  0
 23 25  1  0
 25 26  1  0
 26 27  2  0
 26 28  1  0
 28 29  1  0
 31 32  1  0
 32 33  1  0
M  END
