
     RDKit          3D

 33 36  0  0  0  0  0  0  0  0999 V2000
   -5.5580   -1.9950    1.4570 C   0  0  0  0  0  0  0  0  0  0  0  0
   -4.6660   -1.2110    0.8960 C   0  0  0  0  0  0  0  0  0  0  0  0
   -4.9890    0.0850    0.3360 C   0  0  0  0  0  0  0  0  0  0  0  0
   -6.2590    0.4250    0.4320 C   0  0  0  0  0  0  0  0  0  0  0  0
   -6.8850    1.6760   -0.0450 C   0  0  0  0  0  0  0  0  0  0  0  0
   -6.2260    2.9230    0.4090 C   0  0  0  0  0  0  0  0  0  0  0  0
   -4.7690    3.0540    0.2230 C   0  0  0  0  0  0  0  0  0  0  0  0
   -4.1500    2.2140   -0.8570 C   0  0  0  0  0  0  0  0  0  0  0  0
   -3.9640    0.8870   -0.2630 N   0  0  0  0  0  0  0  0  0  0  0  0
   -2.6560    0.3870   -0.2900 C   0  0  0  0  0  0  0  0  0  0  0  0
   -1.8320    0.8920   -1.1360 N   0  0  0  0  0  0  0  0  0  0  0  0
   -0.5060    0.4440   -1.2240 N   0  0  0  0  0  0  0  0  0  0  0  0
   -0.1400   -0.7250   -1.9160 C   0  0  0  0  0  0  0  0  0  0  0  0
   -1.0910   -1.3770   -2.4680 O   0  0  0  0  0  0  0  0  0  0  0  0
    1.2530   -1.2100   -2.0240 C   0  0  0  0  0  0  0  0  0  0  0  0
    2.1570   -0.3630   -1.3700 N   0  0  0  0  0  0  0  0  0  0  0  0
    2.3980    0.9270   -1.9080 C   0  0  0  0  0  0  0  0  0  0  0  0
    2.4930   -0.6300    0.2480 S   0  0  1  0  0  0  0  0  0  0  0  0
    2.8580    0.7020    0.8910 O   0  0  0  0  0  0  0  0  0  0  0  0
    1.3410   -1.1580    1.0610 O   0  0  0  0  0  0  0  0  0  0  0  0
    3.8560   -1.7070    0.3650 N   0  0  0  0  0  0  0  0  0  0  0  0
    5.0140   -1.2050    0.4270 C   0  0  0  0  0  0  0  0  0  0  0  0
    6.2220   -1.7200    0.5190 N   0  0  0  0  0  0  0  0  0  0  0  0
    7.2850   -0.9670    0.5690 C   0  0  0  0  0  0  0  0  0  0  0  0
    8.6340   -1.4010    0.6690 C   0  0  0  0  0  0  0  0  0  0  0  0
    9.6610   -0.5230    0.7130 C   0  0  0  0  0  0  0  0  0  0  0  0
    9.5090    0.8350    0.6670 C   0  0  0  0  0  0  0  0  0  0  0  0
    8.1910    1.3050    0.5690 C   0  0  0  0  0  0  0  0  0  0  0  0
    7.1620    0.3920    0.5250 C   0  0  0  0  0  0  0  0  0  0  0  0
    5.3690    0.5780    0.4040 S   0  0  0  0  0  0  0  0  0  0  0  0
   -2.2600   -0.7080    0.6580 C   0  0  0  0  0  0  0  0  0  0  0  0
   -3.3010   -1.6850    0.8430 N   0  0  0  0  0  0  0  0  0  0  0  0
   -3.0300   -3.1240    0.9780 C   0  0  0  0  0  0  0  0  0  0  0  0
  1  2  2  0
  2  3  1  0
  2 32  1  0
  3  4  2  0
  3  9  1  0
  4  5  1  0
  5  6  1  0
  6  7  1  0
  7  8  1  0
  8  9  1  0
  9 10  1  0
 10 11  2  3
 10 31  1  0
 11 12  1  0
 12 13  1  0
 13 14  2  0
 13 15  1  0
 15 16  1  0
 16 17  1  0
 18 16  1  6
 18 19  2  0
 18 20  2  0
 18 21  1  0
 21 22  2  3
 22 23  1  0
 22 30  1  0
 23 24  1  0
 24 25  2  0
 24 29  1  0
 25 26  1  0
 26 27  2  0
 27 28  1  0
 28 29  2  0
 29 30  1  0
 31 32  1  0
 32 33  1  0
M  END
