
     RDKit          3D

 33 36  0  0  0  0  0  0  0  0999 V2000
   -6.8810   -3.3630   -0.0000 C   0  0  0  0  0  0  0  0  0  0  0  0
   -6.1900   -3.0820    1.3130 C   0  0  0  0  0  0  0  0  0  0  0  0
   -4.8730   -2.6520    1.0310 O   0  0  0  0  0  0  0  0  0  0  0  0
   -4.7040   -1.5170    0.2710 C   0  0  0  0  0  0  0  0  0  0  0  0
   -5.7210   -0.9100   -0.1400 O   0  0  0  0  0  0  0  0  0  0  0  0
   -3.3890   -0.9940   -0.0730 C   0  0  0  0  0  0  0  0  0  0  0  0
   -2.2110   -1.5320    0.2940 N   0  0  0  0  0  0  0  0  0  0  0  0
   -1.1890   -0.7780   -0.2080 C   0  0  0  0  0  0  0  0  0  0  0  0
    0.5450   -1.1240    0.0260 S   0  0  0  0  0  0  0  0  0  0  0  0
    1.2270   -0.3620    1.4960 C   0  0  1  0  0  0  0  0  0  0  0  0
    2.6660   -0.7410    1.5630 C   0  0  0  0  0  0  0  0  0  0  0  0
    3.0660   -1.3540    2.5850 O   0  0  0  0  0  0  0  0  0  0  0  0
    3.4930   -0.3880    0.4740 N   0  0  0  0  0  0  0  0  0  0  0  0
    4.7320   -0.4190    0.4380 C   0  0  0  0  0  0  0  0  0  0  0  0
    5.7380   -0.7360    1.2420 N   0  0  0  0  0  0  0  0  0  0  0  0
    6.9760   -0.6430    0.8510 C   0  0  0  0  0  0  0  0  0  0  0  0
    8.2150   -0.8940    1.4440 N   0  0  0  0  0  0  0  0  0  0  0  0
    9.1750   -0.6240    0.5770 N   0  0  0  0  0  0  0  0  0  0  0  0
    8.6790   -0.1950   -0.5980 C   0  0  0  0  0  0  0  0  0  0  0  0
    9.2960    0.2220   -1.8530 C   0  0  0  0  0  0  0  0  0  0  0  0
    7.2990   -0.2200   -0.3880 C   0  0  0  0  0  0  0  0  0  0  0  0
    5.6820    0.0850   -1.0960 S   0  0  0  0  0  0  0  0  0  0  0  0
    1.1460    1.1330    1.5310 C   0  0  2  0  0  0  0  0  0  0  0  0
   -0.2610    1.6730    1.4670 C   0  0  0  0  0  0  0  0  0  0  0  0
    2.0520    1.8120    0.5250 C   0  0  0  0  0  0  0  0  0  0  0  0
   -1.8040    0.2110   -0.8750 N   0  0  0  0  0  0  0  0  0  0  0  0
   -3.1210    0.0990   -0.8060 N   0  0  0  0  0  0  0  0  0  0  0  0
   -4.1030    0.9690   -1.3930 C   0  0  0  0  0  0  0  0  0  0  0  0
   -4.7520    0.6940   -2.5550 C   0  0  0  0  0  0  0  0  0  0  0  0
   -5.6890    1.6130   -3.0360 C   0  0  0  0  0  0  0  0  0  0  0  0
   -5.9630    2.7850   -2.3570 C   0  0  0  0  0  0  0  0  0  0  0  0
   -5.3110    3.0630   -1.1890 C   0  0  0  0  0  0  0  0  0  0  0  0
   -4.3940    2.1520   -0.7280 C   0  0  0  0  0  0  0  0  0  0  0  0
  1  2  1  0
  2  3  1  0
  3  4  1  0
  4  5  2  0
  4  6  1  0
  6  7  2  0
  6 27  1  0
  7  8  1  0
  8  9  1  0
  8 26  2  0
 10  9  1  6
 10 11  1  0
 10 23  1  0
 11 12  2  0
 11 13  1  0
 13 14  2  3
 14 15  1  0
 14 22  1  0
 15 16  1  0
 16 17  2  0
 16 21  1  0
 17 18  1  0
 18 19  1  0
 19 20  1  0
 19 21  2  0
 21 22  1  0
 23 24  1  6
 23 25  1  0
 26 27  1  0
 27 28  1  0
 28 29  2  0
 28 33  1  0
 29 30  1  0
 30 31  2  0
 31 32  1  0
 32 33  2  0
M  END
