
     RDKit          3D

 33 36  0  0  0  0  0  0  0  0999 V2000
    6.7490   -4.3780   -2.1560 N   0  0  0  0  0  0  0  0  0  0  0  0
    6.6850   -3.5240   -1.0220 C   0  0  0  0  0  0  0  0  0  0  0  0
    7.4750   -3.7710   -0.0750 O   0  0  0  0  0  0  0  0  0  0  0  0
    5.7450   -2.4050   -0.9510 C   0  0  0  0  0  0  0  0  0  0  0  0
    5.5920   -1.5140    0.0890 C   0  0  0  0  0  0  0  0  0  0  0  0
    4.6380   -0.6230   -0.1930 N   0  0  0  0  0  0  0  0  0  0  0  0
    4.1420    0.4980    0.6190 C   0  0  1  0  0  0  0  0  0  0  0  0
    5.4010    1.3260    0.8830 C   0  0  0  0  0  0  0  0  0  0  0  0
    5.1950    2.4460    1.6310 O   0  0  0  0  0  0  0  0  0  0  0  0
    3.1470    1.2460   -0.1940 C   0  0  0  0  0  0  0  0  0  0  0  0
    2.4930    2.4120    0.4550 C   0  0  0  0  0  0  0  0  0  0  0  0
    1.7110    2.0750    1.6380 N   0  0  0  0  0  0  0  0  0  0  0  0
    2.1050    2.0440    2.9080 C   0  0  0  0  0  0  0  0  0  0  0  0
    1.0180    1.6760    3.6710 C   0  0  0  0  0  0  0  0  0  0  0  0
   -0.0390    1.4870    2.8210 C   0  0  0  0  0  0  0  0  0  0  0  0
   -1.3560    1.1230    2.9810 C   0  0  0  0  0  0  0  0  0  0  0  0
   -2.2280    1.0100    1.8820 C   0  0  0  0  0  0  0  0  0  0  0  0
   -1.8020    1.2590    0.6070 C   0  0  0  0  0  0  0  0  0  0  0  0
   -2.6140    1.1870   -0.5520 N   0  0  0  0  0  0  0  0  0  0  0  0
   -4.0150    1.0600   -0.5770 C   0  0  0  0  0  0  0  0  0  0  0  0
   -4.6940    1.0060    0.4690 O   0  0  0  0  0  0  0  0  0  0  0  0
   -4.7450    0.9860   -1.8130 N   0  0  0  0  0  0  0  0  0  0  0  0
   -6.1840    0.8560   -1.8400 C   0  0  0  0  0  0  0  0  0  0  0  0
   -6.6100   -0.5280   -1.5080 C   0  0  0  0  0  0  0  0  0  0  0  0
   -7.9470   -0.8580   -1.4800 C   0  0  0  0  0  0  0  0  0  0  0  0
   -8.3700   -2.1440   -1.1740 C   0  0  0  0  0  0  0  0  0  0  0  0
   -7.4370   -3.1390   -0.8850 C   0  0  0  0  0  0  0  0  0  0  0  0
   -6.0810   -2.8130   -0.9110 C   0  0  0  0  0  0  0  0  0  0  0  0
   -5.7070   -1.5170   -1.2220 C   0  0  0  0  0  0  0  0  0  0  0  0
   -0.4610    1.6270    0.4760 C   0  0  0  0  0  0  0  0  0  0  0  0
    0.4020    1.7390    1.5500 C   0  0  0  0  0  0  0  0  0  0  0  0
    4.1690   -0.9260   -1.4070 C   0  0  0  0  0  0  0  0  0  0  0  0
    4.8460   -2.0180   -1.8720 N   0  0  0  0  0  0  0  0  0  0  0  0
  1  2  1  0
  2  3  2  0
  2  4  1  0
  4  5  2  0
  4 33  1  0
  5  6  1  0
  6  7  1  0
  6 32  1  0
  7  8  1  6
  7 10  1  0
  8  9  1  0
 10 11  1  0
 11 12  1  0
 12 13  1  0
 12 31  1  0
 13 14  2  0
 14 15  1  0
 15 16  2  0
 15 31  1  0
 16 17  1  0
 17 18  2  0
 18 19  1  0
 18 30  1  0
 19 20  1  0
 20 21  2  0
 20 22  1  0
 22 23  1  0
 23 24  1  0
 24 25  2  0
 24 29  1  0
 25 26  1  0
 26 27  2  0
 27 28  1  0
 28 29  2  0
 30 31  2  0
 32 33  2  0
M  END
