
     RDKit          3D

 23 23  0  0  0  0  0  0  0  0999 V2000
   -2.2490   -2.1730    1.0630 C   0  0  0  0  0  0  0  0  0  0  0  0
   -2.9030   -1.3480    0.2960 C   0  0  0  0  0  0  0  0  0  0  0  0
   -4.1700   -1.9830   -0.2560 C   0  0  0  0  0  0  0  0  0  0  0  0
   -4.9020   -1.3180   -1.0070 O   0  0  0  0  0  0  0  0  0  0  0  0
   -4.5140   -3.2730    0.0640 O   0  0  0  0  0  0  0  0  0  0  0  0
   -2.6740    0.0080   -0.0900 C   0  0  0  0  0  0  0  0  0  0  0  0
   -3.5770    0.4440   -0.9230 O   0  0  0  0  0  0  0  0  0  0  0  0
   -1.6950    0.9580    0.2320 N   0  0  0  0  0  0  0  0  0  0  0  0
   -0.6490    0.5580    1.1980 C   0  0  0  0  0  0  0  0  0  0  0  0
    0.5230   -0.1170    0.5280 C   0  0  0  0  0  0  0  0  0  0  0  0
    1.4230   -0.4400    1.4840 O   0  0  0  0  0  0  0  0  0  0  0  0
    2.5600   -1.0920    1.1950 C   0  0  0  0  0  0  0  0  0  0  0  0
    3.4490   -0.3510    0.2590 C   0  0  1  0  0  0  0  0  0  0  0  0
    4.6800   -1.1600   -0.1180 C   0  0  0  0  0  0  0  0  0  0  0  0
    4.2910   -1.6990   -1.4750 C   0  0  0  0  0  0  0  0  0  0  0  0
    2.9380   -1.3170   -1.5620 O   0  0  0  0  0  0  0  0  0  0  0  0
    2.8810   -0.1340   -0.9760 O   0  0  0  0  0  0  0  0  0  0  0  0
   -1.6470    2.2890   -0.2300 C   0  0  0  0  0  0  0  0  0  0  0  0
   -0.5290    2.9960   -0.0270 C   0  0  0  0  0  0  0  0  0  0  0  0
   -0.4510    4.3250   -0.4730 O   0  0  0  0  0  0  0  0  0  0  0  0
   -2.7010    3.0070   -0.8680 C   0  0  0  0  0  0  0  0  0  0  0  0
   -3.8230    2.5790   -1.1410 O   0  0  0  0  0  0  0  0  0  0  0  0
   -2.4730    4.3820   -1.2530 O   0  0  0  0  0  0  0  0  0  0  0  0
  1  2  2  0
  2  3  1  0
  2  6  1  0
  3  4  2  0
  3  5  1  0
  6  7  2  0
  6  8  1  0
  8  9  1  0
  8 18  1  0
  9 10  1  0
 10 11  1  0
 11 12  1  0
 13 12  1  1
 13 14  1  0
 13 17  1  0
 14 15  1  0
 15 16  1  0
 16 17  1  0
 18 19  2  3
 18 21  1  0
 19 20  1  0
 21 22  2  0
 21 23  1  0
M  END
