
     RDKit          3D

 23 24  0  0  0  0  0  0  0  0999 V2000
    1.5140    0.1050    0.9840 O   0  0  0  0  0  0  0  0  0  0  0  0
    1.9910    0.1830   -0.1590 C   0  0  0  0  0  0  0  0  0  0  0  0
    1.1410    0.1180   -1.3740 C   0  0  0  0  0  0  0  0  0  0  0  0
   -0.1900   -0.0200   -0.9790 O   0  0  0  0  0  0  0  0  0  0  0  0
   -0.9110    0.8700   -0.2080 C   0  0  0  0  0  0  0  0  0  0  0  0
   -0.5110    2.0680    0.3370 C   0  0  0  0  0  0  0  0  0  0  0  0
   -1.5360    2.5520    0.9850 O   0  0  0  0  0  0  0  0  0  0  0  0
   -2.5780    1.7620    0.9070 C   0  0  0  0  0  0  0  0  0  0  0  0
   -2.2270    0.6650    0.1490 C   0  0  0  0  0  0  0  0  0  0  0  0
   -3.0060   -0.4320   -0.2010 O   0  0  0  0  0  0  0  0  0  0  0  0
   -4.3340   -0.5620    0.2040 C   0  0  2  0  0  0  0  0  0  0  0  0
   -4.5310   -1.8230    1.0180 C   0  0  0  0  0  0  0  0  0  0  0  0
   -5.8730   -2.3000    0.8990 O   0  0  0  0  0  0  0  0  0  0  0  0
   -6.8510   -1.4820    0.3830 C   0  0  0  0  0  0  0  0  0  0  0  0
   -8.0540   -1.7320    0.5880 O   0  0  0  0  0  0  0  0  0  0  0  0
   -6.4690   -0.3040   -0.4160 C   0  0  0  0  0  0  0  0  0  0  0  0
   -5.1730   -0.5560   -0.9220 O   0  0  0  0  0  0  0  0  0  0  0  0
    3.4130    0.3410   -0.2780 N   0  0  0  0  0  0  0  0  0  0  0  0
    4.2650    0.4080    0.8780 C   0  0  0  0  0  0  0  0  0  0  0  0
    5.7000    0.5330    0.4760 C   0  0  0  0  0  0  0  0  0  0  0  0
    6.1500   -0.6890   -0.2660 C   0  0  0  0  0  0  0  0  0  0  0  0
    5.4580   -0.9210   -1.4110 O   0  0  0  0  0  0  0  0  0  0  0  0
    5.8670   -1.9870   -2.0360 O   0  0  0  0  0  0  0  0  0  0  0  0
  1  2  2  0
  2  3  1  0
  2 18  1  0
  3  4  1  0
  4  5  1  0
  5  6  2  0
  5  9  1  0
  6  7  1  0
  7  8  1  0
  8  9  2  0
  9 10  1  0
 11 10  1  6
 11 12  1  0
 11 17  1  0
 12 13  1  0
 13 14  1  0
 14 15  2  0
 14 16  1  0
 16 17  1  0
 18 19  1  0
 19 20  1  0
 20 21  1  0
 21 22  1  0
 22 23  1  0
M  END
