
     RDKit          3D

 23 24  0  0  0  0  0  0  0  0999 V2000
   -2.5120    3.0430   -0.9280 O   0  0  0  0  0  0  0  0  0  0  0  0
   -3.3980    2.2750   -0.4260 C   0  0  0  0  0  0  0  0  0  0  0  0
   -3.0650    1.6000    0.8620 C   0  0  0  0  0  0  0  0  0  0  0  0
   -2.9510    0.1200    0.7150 C   0  0  2  0  0  0  0  0  0  0  0  0
   -4.2700   -0.5540    0.4340 C   0  0  0  0  0  0  0  0  0  0  0  0
   -4.8160   -0.2030   -0.9300 C   0  0  0  0  0  0  0  0  0  0  0  0
   -5.5810    1.1040   -0.9350 C   0  0  0  0  0  0  0  0  0  0  0  0
   -4.5950    2.1330   -1.1170 O   0  0  0  0  0  0  0  0  0  0  0  0
   -2.4950   -0.3870    1.9500 O   0  0  0  0  0  0  0  0  0  0  0  0
   -1.8280   -1.5560    1.6160 C   0  0  0  0  0  0  0  0  0  0  0  0
   -1.2380   -1.2400    0.2700 C   0  0  2  0  0  0  0  0  0  0  0  0
    0.2050   -0.8810    0.4760 C   0  0  0  0  0  0  0  0  0  0  0  0
    1.0120   -1.6920    0.8930 O   0  0  0  0  0  0  0  0  0  0  0  0
    0.6610    0.4970    0.1630 C   0  0  0  0  0  0  0  0  0  0  0  0
    2.0490    0.6210    0.4210 O   0  0  0  0  0  0  0  0  0  0  0  0
    3.0050   -0.1440   -0.2140 C   0  0  0  0  0  0  0  0  0  0  0  0
    2.6340   -0.9910   -1.0610 O   0  0  0  0  0  0  0  0  0  0  0  0
    4.3970   -0.0170    0.0460 N   0  0  0  0  0  0  0  0  0  0  0  0
    5.3220   -0.8560   -0.6630 C   0  0  0  0  0  0  0  0  0  0  0  0
    6.7470   -0.5750   -0.2510 C   0  0  0  0  0  0  0  0  0  0  0  0
    7.0990    0.7560   -0.5110 O   0  0  0  0  0  0  0  0  0  0  0  0
    8.3200    1.0170   -0.1640 O   0  0  0  0  0  0  0  0  0  0  0  0
   -1.9660   -0.1840   -0.1950 O   0  0  0  0  0  0  0  0  0  0  0  0
  1  2  2  0
  2  3  1  0
  2  8  1  0
  4  3  1  1
  4  5  1  0
  4  9  1  0
  4 23  1  0
  5  6  1  0
  6  7  1  0
  7  8  1  0
  9 10  1  0
 10 11  1  0
 11 12  1  1
 11 23  1  0
 12 13  2  0
 12 14  1  0
 14 15  1  0
 15 16  1  0
 16 17  2  0
 16 18  1  0
 18 19  1  0
 19 20  1  0
 20 21  1  0
 21 22  1  0
M  END
