
     RDKit          3D

 23 24  0  0  0  0  0  0  0  0999 V2000
    6.6070    0.7340    0.4720 C   0  0  0  0  0  0  0  0  0  0  0  0
    5.2500    1.1220   -0.1430 C   0  0  0  0  0  0  0  0  0  0  0  0
    4.2870    0.2530    0.4140 O   0  0  0  0  0  0  0  0  0  0  0  0
    2.9200    0.3140    0.1760 C   0  0  0  0  0  0  0  0  0  0  0  0
    2.5130    1.1760   -0.5970 O   0  0  0  0  0  0  0  0  0  0  0  0
    2.0020   -0.6390    0.8610 C   0  0  2  0  0  0  0  0  0  0  0  0
    0.5760   -0.2770    1.0220 C   0  0  0  0  0  0  0  0  0  0  0  0
    0.1310   -0.3890    2.2210 O   0  0  0  0  0  0  0  0  0  0  0  0
   -0.3040    0.1630    0.0170 N   0  0  0  0  0  0  0  0  0  0  0  0
   -0.2150    0.2730   -1.4190 C   0  0  0  0  0  0  0  0  0  0  0  0
   -1.6590    0.2180   -1.9610 C   0  0  1  0  0  0  0  0  0  0  0  0
   -1.6890   -0.8380   -2.8850 O   0  0  0  0  0  0  0  0  0  0  0  0
   -2.5140    0.0120   -0.8070 C   0  0  2  0  0  0  0  0  0  0  0  0
   -3.7920    0.5810   -0.7640 O   0  0  0  0  0  0  0  0  0  0  0  0
   -4.7520   -0.0360   -0.0340 C   0  0  0  0  0  0  0  0  0  0  0  0
   -4.3990   -1.1110    0.6110 O   0  0  0  0  0  0  0  0  0  0  0  0
   -6.1550    0.3200    0.1580 C   0  0  0  0  0  0  0  0  0  0  0  0
   -6.7730   -0.4850    1.1340 O   0  0  0  0  0  0  0  0  0  0  0  0
   -8.0330   -0.0510    1.2210 O   0  0  0  0  0  0  0  0  0  0  0  0
   -1.6510    0.6570    0.2970 C   0  0  0  0  0  0  0  0  0  0  0  0
   -2.0150    1.4060    1.1930 O   0  0  0  0  0  0  0  0  0  0  0  0
    2.4470   -1.7340    1.7710 C   0  0  0  0  0  0  0  0  0  0  0  0
    2.2420   -2.0830    0.3380 C   0  0  0  0  0  0  0  0  0  0  0  0
  1  2  1  0
  2  3  1  0
  3  4  1  0
  4  5  2  0
  6  4  1  6
  6  7  1  0
  6 22  1  0
  6 23  1  0
  7  8  2  0
  7  9  1  0
  9 10  1  0
  9 20  1  0
 10 11  1  0
 11 12  1  6
 11 13  1  0
 13 14  1  6
 13 20  1  0
 14 15  1  0
 15 16  2  0
 15 17  1  0
 17 18  1  0
 18 19  1  0
 20 21  2  0
 22 23  1  0
M  END
