
     RDKit          3D

 25 26  0  0  0  0  0  0  0  0999 V2000
    7.0610   -1.5410    1.3370 O   0  0  0  0  0  0  0  0  0  0  0  0
    5.9530   -1.0590    0.9700 C   0  0  0  0  0  0  0  0  0  0  0  0
    4.7810   -1.7810    0.9670 C   0  0  0  0  0  0  0  0  0  0  0  0
    3.5910   -1.1890    0.5500 C   0  0  0  0  0  0  0  0  0  0  0  0
    3.5480    0.0920    0.1410 N   0  0  0  0  0  0  0  0  0  0  0  0
    2.3810    0.7730   -0.2990 C   0  0  2  0  0  0  0  0  0  0  0  0
    1.1910    0.2540    0.1980 O   0  0  0  0  0  0  0  0  0  0  0  0
    0.2460    1.0300   -0.4470 C   0  0  2  0  0  0  0  0  0  0  0  0
   -1.0950    0.3550   -0.5450 C   0  0  0  0  0  0  0  0  0  0  0  0
   -1.5010    0.1140    0.7700 O   0  0  0  0  0  0  0  0  0  0  0  0
   -2.8810   -0.5820    0.8860 P   0  0  0  0  0  0  0  0  0  0  0  0
   -3.5210    0.8060    0.2190 O   0  0  0  0  0  0  0  0  0  0  0  0
   -2.4660   -1.7940   -0.1020 O   0  0  0  0  0  0  0  0  0  0  0  0
   -4.2920   -1.0910    1.2270 O   0  0  0  0  0  0  0  0  0  0  0  0
   -5.5570   -0.9170    0.3830 P   0  0  0  0  0  0  0  0  0  0  0  0
   -5.8500    0.6120    0.8780 O   0  0  0  0  0  0  0  0  0  0  0  0
   -6.2430   -2.2210    1.1570 O   0  0  0  0  0  0  0  0  0  0  0  0
   -4.6810   -1.2050   -0.9780 O   0  0  0  0  0  0  0  0  0  0  0  0
    0.7450    1.2370   -1.8670 C   0  0  1  0  0  0  0  0  0  0  0  0
    0.8980    2.6100   -2.0870 O   0  0  0  0  0  0  0  0  0  0  0  0
    2.1410    0.6530   -1.7910 C   0  0  1  0  0  0  0  0  0  0  0  0
    3.0560    1.3870   -2.5290 O   0  0  0  0  0  0  0  0  0  0  0  0
    4.7090    0.7790    0.1530 C   0  0  0  0  0  0  0  0  0  0  0  0
    4.7440    1.9990   -0.2210 O   0  0  0  0  0  0  0  0  0  0  0  0
    5.8770    0.2380    0.5500 N   0  0  0  0  0  0  0  0  0  0  0  0
  1  2  2  0
  2  3  1  0
  2 25  1  0
  3  4  2  0
  4  5  1  0
  6  5  1  1
  5 23  1  0
  6  7  1  0
  6 21  1  0
  7  8  1  0
  8  9  1  6
  8 19  1  0
  9 10  1  0
 10 11  1  0
 11 12  1  0
 11 13  1  0
 11 14  1  0
 14 15  1  0
 15 16  1  0
 15 17  1  0
 15 18  1  0
 19 20  1  1
 19 21  1  0
 21 22  1  6
 23 24  2  0
 23 25  1  0
M  END
