
     RDKit          3D

 23 23  0  0  0  0  0  0  0  0999 V2000
    6.0300    0.5850    2.7770 C   0  0  0  0  0  0  0  0  0  0  0  0
    5.8040   -0.5870    2.0040 O   0  0  0  0  0  0  0  0  0  0  0  0
    4.8700   -0.5830    0.9780 C   0  0  0  0  0  0  0  0  0  0  0  0
    4.2400    0.4710    0.7570 O   0  0  0  0  0  0  0  0  0  0  0  0
    4.6370   -1.7390    0.2050 N   0  0  0  0  0  0  0  0  0  0  0  0
    3.6640   -1.6980   -0.8470 C   0  0  0  0  0  0  0  0  0  0  0  0
    2.2980   -1.3630   -0.3240 C   0  0  0  0  0  0  0  0  0  0  0  0
    2.1450   -1.1620    0.9080 O   0  0  0  0  0  0  0  0  0  0  0  0
    1.2280   -1.2750   -1.1750 O   0  0  0  0  0  0  0  0  0  0  0  0
   -0.0900   -0.9630   -0.7480 C   0  0  2  0  0  0  0  0  0  0  0  0
   -0.8990   -2.0610   -1.0650 O   0  0  0  0  0  0  0  0  0  0  0  0
   -1.4920   -2.7790   -0.0380 C   0  0  0  0  0  0  0  0  0  0  0  0
   -1.2930   -2.4290    1.1660 O   0  0  0  0  0  0  0  0  0  0  0  0
   -2.3010   -3.8690   -0.2510 O   0  0  0  0  0  0  0  0  0  0  0  0
   -0.5860    0.2810   -1.3870 C   0  0  0  0  0  0  0  0  0  0  0  0
    0.1540    0.8570   -2.1600 O   0  0  0  0  0  0  0  0  0  0  0  0
   -1.9210    0.8190   -1.1130 C   0  0  2  0  0  0  0  0  0  0  0  0
   -2.7050    0.9180   -2.4070 C   0  0  0  0  0  0  0  0  0  0  0  0
   -1.8020    2.1990   -0.4580 C   0  0  0  0  0  0  0  0  0  0  0  0
   -3.1990    2.7410   -0.4260 C   0  0  0  0  0  0  0  0  0  0  0  0
   -4.2170    1.7980    0.0760 C   0  0  0  0  0  0  0  0  0  0  0  0
   -3.8770    0.3590    0.0400 C   0  0  0  0  0  0  0  0  0  0  0  0
   -2.5890    0.0280   -0.2220 O   0  0  0  0  0  0  0  0  0  0  0  0
  1  2  1  0
  2  3  1  0
  3  4  2  0
  3  5  1  0
  5  6  1  0
  6  7  1  0
  7  8  2  0
  7  9  1  0
 10  9  1  6
 10 11  1  0
 10 15  1  0
 11 12  1  0
 12 13  2  0
 12 14  1  0
 15 16  2  0
 15 17  1  0
 17 18  1  6
 17 19  1  0
 17 23  1  0
 19 20  1  0
 20 21  1  0
 21 22  1  0
 22 23  1  0
M  END
