
     RDKit          3D

 28 30  0  0  0  0  0  0  0  0999 V2000
   -5.7260   -1.8030   -0.6890 C   0  0  0  0  0  0  0  0  0  0  0  0
   -5.9930   -0.7270    0.3060 C   0  0  0  0  0  0  0  0  0  0  0  0
   -7.3890   -0.3970    0.5360 C   0  0  0  0  0  0  0  0  0  0  0  0
   -7.6560    0.5080    1.3690 O   0  0  0  0  0  0  0  0  0  0  0  0
   -5.0270   -0.1030    0.9470 C   0  0  0  0  0  0  0  0  0  0  0  0
   -3.6290   -0.4170    0.7320 N   0  0  0  0  0  0  0  0  0  0  0  0
   -2.7580    0.2540    0.0780 C   0  0  0  0  0  0  0  0  0  0  0  0
   -2.9800    1.5620   -0.6470 C   0  0  1  0  0  0  0  0  0  0  0  0
   -4.4430    1.8320   -0.8830 C   0  0  0  0  0  0  0  0  0  0  0  0
   -2.3660    2.7030    0.1400 C   0  0  0  0  0  0  0  0  0  0  0  0
   -1.4410   -0.2180    0.0170 C   0  0  0  0  0  0  0  0  0  0  0  0
   -0.2420    0.2620   -0.6090 C   0  0  0  0  0  0  0  0  0  0  0  0
   -0.3650    1.3610   -1.2660 O   0  0  0  0  0  0  0  0  0  0  0  0
    1.0350   -0.3060   -0.5980 N   0  0  0  0  0  0  0  0  0  0  0  0
    1.4990   -1.5050    0.0240 C   0  0  0  0  0  0  0  0  0  0  0  0
    2.5910   -1.2350    1.0370 C   0  0  0  0  0  0  0  0  0  0  0  0
    3.3260    0.0490    0.7240 C   0  0  1  0  0  0  0  0  0  0  0  0
    2.5750    1.0800    1.3140 O   0  0  0  0  0  0  0  0  0  0  0  0
    4.6560    0.0460    1.4470 C   0  0  0  0  0  0  0  0  0  0  0  0
    5.7130    0.8520    0.7730 C   0  0  0  0  0  0  0  0  0  0  0  0
    6.3250    0.0870   -0.3470 C   0  0  0  0  0  0  0  0  0  0  0  0
    5.5150   -1.0540   -0.8620 C   0  0  0  0  0  0  0  0  0  0  0  0
    4.2880   -0.5500   -1.5280 C   0  0  0  0  0  0  0  0  0  0  0  0
    3.4300    0.3610   -0.7160 C   0  0  1  0  0  0  0  0  0  0  0  0
    2.0750    0.4390   -1.3430 C   0  0  0  0  0  0  0  0  0  0  0  0
   -1.5810   -1.7290    0.9940 S   0  0  0  0  0  0  0  0  0  0  0  0
   -3.2240   -1.5860    1.3490 C   0  0  0  0  0  0  0  0  0  0  0  0
   -3.9650   -2.4040    2.0600 N   0  0  0  0  0  0  0  0  0  0  0  0
  1  2  1  0
  2  3  1  0
  2  5  2  3
  3  4  2  0
  5  6  1  0
  6  7  1  0
  6 27  1  0
  7  8  1  0
  7 11  2  0
  8  9  1  1
  8 10  1  0
 11 12  1  0
 11 26  1  0
 12 13  2  0
 12 14  1  0
 14 15  1  0
 14 25  1  0
 15 16  1  0
 16 17  1  0
 17 18  1  1
 17 19  1  0
 17 24  1  0
 19 20  1  0
 20 21  1  0
 21 22  1  0
 22 23  1  0
 24 23  1  6
 24 25  1  0
 26 27  1  0
 27 28  2  0
M  END
