
     RDKit          3D

 31 35  0  0  0  0  0  0  0  0999 V2000
    8.4040    0.2350   -1.2340 C   0  0  0  0  0  0  0  0  0  0  0  0
    7.7290    1.4170   -0.5560 C   0  0  0  0  0  0  0  0  0  0  0  0
    6.3960    1.6430   -1.0790 N   0  0  0  0  0  0  0  0  0  0  0  0
    6.0920    2.4270   -2.1080 N   0  0  0  0  0  0  0  0  0  0  0  0
    4.7700    2.3940   -2.3060 N   0  0  0  0  0  0  0  0  0  0  0  0
    4.2050    1.5780   -1.3950 C   0  0  0  0  0  0  0  0  0  0  0  0
    2.9170    1.1680   -1.1190 C   0  0  0  0  0  0  0  0  0  0  0  0
    2.6120    0.2980   -0.0930 C   0  0  0  0  0  0  0  0  0  0  0  0
    1.2490   -0.1270    0.1880 C   0  0  0  0  0  0  0  0  0  0  0  0
    0.3330    0.3330   -0.5540 O   0  0  0  0  0  0  0  0  0  0  0  0
    0.8600   -1.0070    1.2140 N   0  0  0  0  0  0  0  0  0  0  0  0
   -0.4990   -1.3910    1.4450 C   0  0  0  0  0  0  0  0  0  0  0  0
   -0.7740   -2.2600    2.4780 C   0  0  0  0  0  0  0  0  0  0  0  0
   -2.0670   -2.6770    2.7610 C   0  0  0  0  0  0  0  0  0  0  0  0
   -3.0610   -2.1700    1.9450 C   0  0  0  0  0  0  0  0  0  0  0  0
   -2.8050   -1.2980    0.9040 C   0  0  0  0  0  0  0  0  0  0  0  0
   -3.8900   -0.7970    0.0780 C   0  0  0  0  0  0  0  0  0  0  0  0
   -4.2570   -1.5000   -1.0570 C   0  0  0  0  0  0  0  0  0  0  0  0
   -3.5200   -2.7440   -1.3850 C   0  0  0  0  0  0  0  0  0  0  0  0
   -5.2820   -1.0490   -1.8590 C   0  0  0  0  0  0  0  0  0  0  0  0
   -5.9620    0.1050   -1.5510 C   0  0  0  0  0  0  0  0  0  0  0  0
   -5.6150    0.8310   -0.4160 C   0  0  0  0  0  0  0  0  0  0  0  0
   -4.5690    0.3500    0.3800 C   0  0  0  0  0  0  0  0  0  0  0  0
   -4.1990    1.0630    1.5310 O   0  0  0  0  0  0  0  0  0  0  0  0
   -4.4860    2.4550    1.5650 C   0  0  0  0  0  0  0  0  0  0  0  0
   -5.9050    2.7050    1.1050 C   0  0  0  0  0  0  0  0  0  0  0  0
   -6.2420    1.9880   -0.0410 O   0  0  0  0  0  0  0  0  0  0  0  0
   -1.5130   -0.9400    0.6950 N   0  0  0  0  0  0  0  0  0  0  0  0
    3.6650   -0.1600    0.6670 C   0  0  0  0  0  0  0  0  0  0  0  0
    4.9780    0.2460    0.4010 C   0  0  0  0  0  0  0  0  0  0  0  0
    5.2370    1.1110   -0.6280 C   0  0  0  0  0  0  0  0  0  0  0  0
  1  2  1  0
  2  3  1  0
  3  4  1  0
  3 31  1  0
  4  5  2  0
  5  6  1  0
  6  7  2  0
  6 31  1  0
  7  8  1  0
  8  9  1  0
  8 29  2  0
  9 10  2  0
  9 11  1  0
 11 12  1  0
 12 13  2  0
 12 28  1  0
 13 14  1  0
 14 15  2  0
 15 16  1  0
 16 17  1  0
 16 28  2  0
 17 18  2  0
 17 23  1  0
 18 19  1  0
 18 20  1  0
 20 21  2  0
 21 22  1  0
 22 23  2  0
 22 27  1  0
 23 24  1  0
 24 25  1  0
 25 26  1  0
 26 27  1  0
 29 30  1  0
 30 31  2  0
M  END
