
     RDKit          3D

 29 31  0  0  0  0  0  0  0  0999 V2000
   -4.9790    1.9730    2.3120 C   0  0  0  0  0  0  0  0  0  0  0  0
   -5.2920    1.7900    0.8870 C   0  0  0  0  0  0  0  0  0  0  0  0
   -6.0030    2.6560    0.0720 C   0  0  0  0  0  0  0  0  0  0  0  0
   -6.0340    2.0740   -1.1890 C   0  0  0  0  0  0  0  0  0  0  0  0
   -6.8400    2.7880   -2.6330 S   0  0  0  0  0  0  0  0  0  0  0  0
   -5.3900    0.9590   -1.1000 O   0  0  0  0  0  0  0  0  0  0  0  0
   -4.9210    0.7220    0.1020 C   0  0  0  0  0  0  0  0  0  0  0  0
   -4.1460   -0.4620    0.5180 C   0  0  0  0  0  0  0  0  0  0  0  0
   -3.7270   -0.7070    1.6340 O   0  0  0  0  0  0  0  0  0  0  0  0
   -3.8340   -1.4560   -0.4930 N   0  0  0  0  0  0  0  0  0  0  0  0
   -3.1070   -2.6580   -0.2480 C   0  0  0  0  0  0  0  0  0  0  0  0
   -1.7460   -2.6370    0.2250 C   0  0  0  0  0  0  0  0  0  0  0  0
   -0.6900   -2.0470   -0.4960 N   0  0  0  0  0  0  0  0  0  0  0  0
    0.0370   -2.5920   -1.4920 C   0  0  0  0  0  0  0  0  0  0  0  0
   -0.1980   -3.9480   -2.0200 C   0  0  0  0  0  0  0  0  0  0  0  0
    0.9990   -1.6980   -1.8890 C   0  0  0  0  0  0  0  0  0  0  0  0
    0.8390   -0.5530   -1.0830 C   0  0  0  0  0  0  0  0  0  0  0  0
    1.7310    0.6040   -1.0940 C   0  0  0  0  0  0  0  0  0  0  0  0
    1.7850    1.3300   -2.0950 O   0  0  0  0  0  0  0  0  0  0  0  0
    2.5210    0.8660    0.0400 N   0  0  0  0  0  0  0  0  0  0  0  0
    3.4130    1.9950    0.0790 C   0  0  1  0  0  0  0  0  0  0  0  0
    3.8690    2.2420    1.4550 C   0  0  0  0  0  0  0  0  0  0  0  0
    5.0220    1.8030    1.9590 C   0  0  0  0  0  0  0  0  0  0  0  0
    5.9940    1.0000    1.1760 C   0  0  0  0  0  0  0  0  0  0  0  0
    5.2400    0.3770    0.0170 C   0  0  2  0  0  0  0  0  0  0  0  0
    6.1350   -0.4950   -0.8290 C   0  0  0  0  0  0  0  0  0  0  0  0
    4.6350    1.5060   -0.7740 C   0  0  0  0  0  0  0  0  0  0  0  0
   -0.1990   -0.8280   -0.2640 C   0  0  0  0  0  0  0  0  0  0  0  0
   -0.7020    0.1960    0.7310 C   0  0  0  0  0  0  0  0  0  0  0  0
  1  2  1  0
  2  3  1  0
  2  7  2  0
  3  4  2  0
  4  5  1  0
  4  6  1  0
  6  7  1  0
  7  8  1  0
  8  9  2  0
  8 10  1  0
 10 11  1  0
 11 12  1  0
 12 13  1  0
 13 14  1  0
 13 28  1  0
 14 15  1  0
 14 16  2  0
 16 17  1  0
 17 18  1  0
 17 28  2  0
 18 19  2  0
 18 20  1  0
 21 20  1  1
 21 22  1  0
 21 27  1  0
 22 23  2  0
 23 24  1  0
 24 25  1  0
 25 26  1  6
 25 27  1  0
 28 29  1  0
M  END
