
     RDKit          3D

 16 17  0  0  0  0  0  0  0  0999 V2000
   -1.2770    1.5920    0.0960 O   0  0  0  0  0  0  0  0  0  0  0  0
   -1.7680    0.4820   -0.0890 C   0  0  0  0  0  0  0  0  0  0  0  0
   -0.7990   -0.5780   -0.4820 N   0  0  0  0  0  0  0  0  0  0  0  0
    0.4440   -0.1270   -0.8640 C   0  0  0  0  0  0  0  0  0  0  0  0
    1.5210    0.5480   -0.1520 C   0  0  0  0  0  0  0  0  0  0  0  0
    2.3520    0.8520   -1.3000 O   0  0  0  0  0  0  0  0  0  0  0  0
    3.9310    0.4860   -1.1610 P   0  0  0  0  0  0  0  0  0  0  0  0
    4.9610    1.2730   -0.1240 O   0  0  0  0  0  0  0  0  0  0  0  0
    5.4980    0.1190    0.5440 C   0  0  0  0  0  0  0  0  0  0  0  0
    4.3650   -0.6550    0.8390 O   0  0  0  0  0  0  0  0  0  0  0  0
    3.9970   -1.1560   -0.3420 O   0  0  0  0  0  0  0  0  0  0  0  0
   -3.1570    0.1090   -0.0380 C   0  0  1  0  0  0  0  0  0  0  0  0
   -3.6260   -0.9180    0.7790 N   0  0  0  0  0  0  0  0  0  0  0  0
   -5.0220   -0.4760    0.9770 C   0  0  0  0  0  0  0  0  0  0  0  0
   -4.7570    0.8770    1.2380 O   0  0  0  0  0  0  0  0  0  0  0  0
   -3.8810    1.2640    0.3790 O   0  0  0  0  0  0  0  0  0  0  0  0
  1  2  2  0
  2  3  1  0
 12  2  1  1
  3  4  1  0
  4  5  1  0
  5  6  1  0
  6  7  1  0
  7  8  1  0
  7 11  1  0
  8  9  1  0
  9 10  1  0
 10 11  1  0
 12 13  1  0
 12 16  1  0
 13 14  1  0
 14 15  1  0
 15 16  1  0
M  END
