
     RDKit          3D

 16 16  0  0  0  0  0  0  0  0999 V2000
    1.0990   -1.1470    0.8390 O   0  0  0  0  0  0  0  0  0  0  0  0
    1.4080   -0.2910    0.0620 C   0  0  0  0  0  0  0  0  0  0  0  0
    2.5810    0.3000   -0.4030 N   0  0  0  0  0  0  0  0  0  0  0  0
    3.6730   -0.7750    0.4600 C   0  0  0  0  0  0  0  0  0  0  0  0
    3.1810   -1.5890    1.0990 O   0  0  0  0  0  0  0  0  0  0  0  0
    4.9420   -0.4490    0.2190 O   0  0  0  0  0  0  0  0  0  0  0  0
    5.9930   -1.1340    0.7890 O   0  0  0  0  0  0  0  0  0  0  0  0
    0.2640    0.3710   -0.6330 N   0  0  0  0  0  0  0  0  0  0  0  0
   -1.0730    0.0750   -0.3780 C   0  0  1  0  0  0  0  0  0  0  0  0
   -1.6390    0.7000    1.2500 P   0  0  0  0  0  0  0  0  0  0  0  0
   -0.5380    1.6930    2.0730 O   0  0  0  0  0  0  0  0  0  0  0  0
   -3.2590    1.2080    1.2960 O   0  0  0  0  0  0  0  0  0  0  0  0
   -1.9540    0.7470   -1.4180 C   0  0  0  0  0  0  0  0  0  0  0  0
   -3.0510   -0.2600   -1.5750 C   0  0  0  0  0  0  0  0  0  0  0  0
   -2.7800   -1.3640   -0.7810 O   0  0  0  0  0  0  0  0  0  0  0  0
   -1.4480   -1.3680   -0.5110 C   0  0  0  0  0  0  0  0  0  0  0  0
  1  2  2  0
  2  3  1  0
  2  8  1  0
  3  4  1  0
  4  5  2  0
  4  6  1  0
  6  7  1  0
  9  8  1  6
  9 10  1  0
  9 13  1  0
  9 16  1  0
 10 11  1  0
 10 12  1  0
 13 14  1  0
 14 15  1  0
 15 16  1  0
M  END
