
     RDKit          3D

 14 14  0  0  0  0  0  0  0  0999 V2000
    3.0870    1.5890    0.1240 N   0  0  0  0  0  0  0  0  0  0  0  0
    3.2610    0.3880   -0.6160 C   0  0  0  0  0  0  0  0  0  0  0  0
    2.2390   -0.3600   -0.9530 C   0  0  0  0  0  0  0  0  0  0  0  0
    2.4820   -1.5200   -1.6760 O   0  0  0  0  0  0  0  0  0  0  0  0
    0.8260    0.0120   -0.5740 C   0  0  2  0  0  0  0  0  0  0  0  0
    0.8240    1.1960    0.1370 O   0  0  0  0  0  0  0  0  0  0  0  0
    0.3110   -1.1470    0.2590 C   0  0  2  0  0  0  0  0  0  0  0  0
    0.3410   -2.2870   -0.5090 O   0  0  0  0  0  0  0  0  0  0  0  0
   -1.0910   -0.9050    0.7480 C   0  0  2  0  0  0  0  0  0  0  0  0
   -2.0550   -0.8300   -0.4200 C   0  0  0  0  0  0  0  0  0  0  0  0
   -2.0760    0.4860   -0.9190 O   0  0  0  0  0  0  0  0  0  0  0  0
   -2.5330    1.3940    0.0110 C   0  0  0  0  0  0  0  0  0  0  0  0
   -2.4320    0.8190    1.4110 C   0  0  0  0  0  0  0  0  0  0  0  0
   -1.1910    0.2360    1.5340 O   0  0  0  0  0  0  0  0  0  0  0  0
  1  2  1  0
  2  3  2  3
  3  4  1  0
  3  5  1  0
  5  6  1  1
  5  7  1  0
  7  8  1  6
  7  9  1  0
  9 10  1  6
  9 14  1  0
 10 11  1  0
 11 12  1  0
 12 13  1  0
 13 14  1  0
M  END
