
     RDKit          3D

 15 15  0  0  0  0  0  0  0  0999 V2000
    3.1850    1.2820   -0.0630 N   0  0  0  0  0  0  0  0  0  0  0  0
    3.3550   -0.0270   -0.6200 C   0  0  2  0  0  0  0  0  0  0  0  0
    2.8430   -0.1000   -1.9310 O   0  0  0  0  0  0  0  0  0  0  0  0
    2.7500   -1.1140    0.2070 C   0  0  1  0  0  0  0  0  0  0  0  0
    3.3360   -1.1250    1.4700 O   0  0  0  0  0  0  0  0  0  0  0  0
    1.2450   -0.9500    0.3680 C   0  0  0  0  0  0  0  0  0  0  0  0
    0.8990    0.1950    1.0020 O   0  0  0  0  0  0  0  0  0  0  0  0
   -0.4490    0.3110    1.1970 C   0  0  0  0  0  0  0  0  0  0  0  0
   -1.3400    0.3320    0.0230 C   0  0  1  0  0  0  0  0  0  0  0  0
   -1.3820   -0.7550   -0.7910 O   0  0  0  0  0  0  0  0  0  0  0  0
   -2.6300   -1.1750   -1.1770 C   0  0  0  0  0  0  0  0  0  0  0  0
   -3.4810   -0.1710   -1.5790 O   0  0  0  0  0  0  0  0  0  0  0  0
   -3.5840    0.8760   -0.6850 C   0  0  0  0  0  0  0  0  0  0  0  0
   -2.7770    0.5330    0.5330 C   0  0  2  0  0  0  0  0  0  0  0  0
   -2.8210    1.5170    1.5090 O   0  0  0  0  0  0  0  0  0  0  0  0
  2  1  1  1
  2  3  1  0
  2  4  1  0
  4  5  1  1
  4  6  1  0
  6  7  1  0
  7  8  1  0
  9  8  1  1
  9 10  1  0
  9 14  1  0
 10 11  1  0
 11 12  1  0
 12 13  1  0
 13 14  1  0
 14 15  1  1
M  END
