
     RDKit          3D

 15 16  0  0  0  0  0  0  0  0999 V2000
    3.6770    1.2960    0.0210 C   0  0  0  0  0  0  0  0  0  0  0  0
    2.6320    0.6730   -0.7340 O   0  0  0  0  0  0  0  0  0  0  0  0
    1.5420    0.0830   -0.1230 C   0  0  0  0  0  0  0  0  0  0  0  0
    1.4950    0.1100    1.1250 O   0  0  0  0  0  0  0  0  0  0  0  0
    0.4790   -0.5500   -0.8810 C   0  0  1  0  0  0  0  0  0  0  0  0
    0.7430   -0.4700   -2.2660 O   0  0  0  0  0  0  0  0  0  0  0  0
    0.4440   -2.0370   -0.4780 C   0  0  0  0  0  0  0  0  0  0  0  0
   -0.8610   -2.2660    0.0250 O   0  0  0  0  0  0  0  0  0  0  0  0
   -1.2030   -1.0870    0.5630 C   0  0  2  0  0  0  0  0  0  0  0  0
   -2.6130   -0.7060    0.7180 C   0  0  0  0  0  0  0  0  0  0  0  0
   -2.5490    0.7640    0.6480 N   0  0  0  0  0  0  0  0  0  0  0  0
   -1.3190    1.0920   -0.0930 C   0  0  1  0  0  0  0  0  0  0  0  0
   -0.4490    1.8220    0.6660 O   0  0  0  0  0  0  0  0  0  0  0  0
   -0.8870   -0.1640   -0.6400 C   0  0  1  0  0  0  0  0  0  0  0  0
   -1.7090   -0.5960   -1.6780 O   0  0  0  0  0  0  0  0  0  0  0  0
  1  2  1  0
  2  3  1  0
  3  4  2  0
  3  5  1  0
  5  6  1  6
  5  7  1  0
  5 14  1  0
  7  8  1  0
  8  9  1  0
  9 10  1  6
  9 14  1  0
 10 11  1  0
 11 12  1  0
 12 13  1  1
 12 14  1  0
 14 15  1  6
M  END
