
     RDKit          3D

 15 15  0  0  0  0  0  0  0  0999 V2000
    2.2530   -0.6260   -1.8950 C   0  0  0  0  0  0  0  0  0  0  0  0
    1.8530   -0.3240   -0.4640 C   0  0  2  0  0  0  0  0  0  0  0  0
    0.7810    0.5520   -0.4000 O   0  0  0  0  0  0  0  0  0  0  0  0
   -0.2710   -0.0890    0.1960 C   0  0  0  0  0  0  0  0  0  0  0  0
   -1.5110    0.7550    0.3300 C   0  0  1  0  0  0  0  0  0  0  0  0
   -1.3140    1.8940    1.0830 O   0  0  0  0  0  0  0  0  0  0  0  0
   -2.1520    1.0450   -1.0120 C   0  0  0  0  0  0  0  0  0  0  0  0
   -2.5750   -0.2700   -1.3980 O   0  0  0  0  0  0  0  0  0  0  0  0
   -2.9170   -0.9870   -0.2590 C   0  0  0  0  0  0  0  0  0  0  0  0
   -3.4130   -2.1420   -0.2530 O   0  0  0  0  0  0  0  0  0  0  0  0
   -2.5890   -0.1450    0.9210 C   0  0  1  0  0  0  0  0  0  0  0  0
   -2.1000   -0.9070    2.0290 N   0  0  0  0  0  0  0  0  0  0  0  0
    3.0460    0.1640    0.3260 C   0  0  1  0  0  0  0  0  0  0  0  0
    3.5240    1.3770   -0.1090 O   0  0  0  0  0  0  0  0  0  0  0  0
    2.7800    0.1260    1.6940 O   0  0  0  0  0  0  0  0  0  0  0  0
  2  1  1  6
  2  3  1  0
  2 13  1  0
  3  4  1  0
  4  5  1  0
  5  6  1  1
  5  7  1  0
  5 11  1  0
  7  8  1  0
  8  9  1  0
  9 10  2  0
  9 11  1  0
 11 12  1  1
 13 14  1  6
 13 15  1  0
M  END
