
     RDKit          3D

 22 22  0  0  0  0  0  0  0  0999 V2000
   -2.4240    0.7700    1.0840 C   0  0  0  0  0  0  0  0  0  0  0  0
   -2.5860   -0.4530    0.2600 C   0  0  1  0  0  0  0  0  0  0  0  0
   -2.6940   -1.5920    1.1000 O   0  0  0  0  0  0  0  0  0  0  0  0
   -3.9190   -0.4510   -0.5080 C   0  0  0  0  0  0  0  0  0  0  0  0
   -5.0870   -0.3880    0.4280 C   0  0  0  0  0  0  0  0  0  0  0  0
   -5.1400   -1.4590    1.3120 O   0  0  0  0  0  0  0  0  0  0  0  0
   -1.5360   -0.7560   -0.7370 C   0  0  2  0  0  0  0  0  0  0  0  0
   -0.1780   -0.9470   -0.2510 C   0  0  0  0  0  0  0  0  0  0  0  0
    0.3430   -2.1070   -0.3900 O   0  0  0  0  0  0  0  0  0  0  0  0
    0.6380    0.0430    0.3730 N   0  0  0  0  0  0  0  0  0  0  0  0
    1.9860   -0.2700    0.8210 C   0  0  2  0  0  0  0  0  0  0  0  0
    2.0520   -0.0920    2.2010 O   0  0  0  0  0  0  0  0  0  0  0  0
    3.3560    0.1100    2.6390 C   0  0  0  0  0  0  0  0  0  0  0  0
    3.8460    1.3430    2.2780 O   0  0  0  0  0  0  0  0  0  0  0  0
    3.4160    1.7690    1.0230 C   0  0  0  0  0  0  0  0  0  0  0  0
    3.0320    0.5690    0.1500 C   0  0  1  0  0  0  0  0  0  0  0  0
    4.1610   -0.2010   -0.0570 O   0  0  0  0  0  0  0  0  0  0  0  0
    4.5570   -0.2140   -1.3930 C   0  0  0  0  0  0  0  0  0  0  0  0
    5.6890   -0.9940   -1.5550 O   0  0  0  0  0  0  0  0  0  0  0  0
   -1.4720    0.1880   -1.9160 C   0  0  1  0  0  0  0  0  0  0  0  0
   -1.2160    1.5480   -1.5980 N   0  0  0  0  0  0  0  0  0  0  0  0
   -0.4120   -0.2660   -2.7260 O   0  0  0  0  0  0  0  0  0  0  0  0
  2  1  1  1
  2  3  1  0
  2  4  1  0
  2  7  1  0
  4  5  1  0
  5  6  1  0
  7  8  1  1
  7 20  1  0
  8  9  2  0
  8 10  1  0
 11 10  1  6
 11 12  1  0
 11 16  1  0
 12 13  1  0
 13 14  1  0
 14 15  1  0
 15 16  1  0
 16 17  1  1
 17 18  1  0
 18 19  1  0
 20 21  1  1
 20 22  1  0
M  END
