
     RDKit          3D

 22 22  0  0  0  0  0  0  0  0999 V2000
   -2.5710    2.7640   -0.0020 C   0  0  0  0  0  0  0  0  0  0  0  0
   -2.4900    1.4710    0.7230 C   0  0  1  0  0  0  0  0  0  0  0  0
   -1.8040    1.5430    1.9540 O   0  0  0  0  0  0  0  0  0  0  0  0
   -3.8330    0.7620    0.9480 C   0  0  2  0  0  0  0  0  0  0  0  0
   -4.3090    0.9410    2.2270 O   0  0  0  0  0  0  0  0  0  0  0  0
   -3.0670   -0.5440    0.7240 C   0  0  1  0  0  0  0  0  0  0  0  0
   -3.7660   -1.5390   -0.0160 N   0  0  0  0  0  0  0  0  0  0  0  0
   -2.0430    0.2690   -0.0320 C   0  0  1  0  0  0  0  0  0  0  0  0
   -2.2070    0.3070   -1.5220 C   0  0  0  0  0  0  0  0  0  0  0  0
   -3.5330    0.4680   -1.9080 O   0  0  0  0  0  0  0  0  0  0  0  0
   -0.6360   -0.2060    0.3340 C   0  0  0  0  0  0  0  0  0  0  0  0
   -0.3090   -1.3290   -0.4210 O   0  0  0  0  0  0  0  0  0  0  0  0
    0.9560   -1.8120   -0.1290 C   0  0  0  0  0  0  0  0  0  0  0  0
    2.0350   -0.7980   -0.3940 C   0  0  0  0  0  0  0  0  0  0  0  0
    3.2800   -1.3800   -0.0690 O   0  0  0  0  0  0  0  0  0  0  0  0
    4.3280   -0.4890   -0.2930 C   0  0  1  0  0  0  0  0  0  0  0  0
    5.0930   -0.2380    0.9410 C   0  0  0  0  0  0  0  0  0  0  0  0
    6.1990    0.6440    0.9060 N   0  0  0  0  0  0  0  0  0  0  0  0
    4.7950   -0.7840    2.0280 O   0  0  0  0  0  0  0  0  0  0  0  0
    5.2530   -0.9680   -1.3360 C   0  0  0  0  0  0  0  0  0  0  0  0
    6.2430   -0.2830   -1.6520 O   0  0  0  0  0  0  0  0  0  0  0  0
    5.0250   -2.1710   -1.9620 O   0  0  0  0  0  0  0  0  0  0  0  0
  2  1  1  6
  2  3  1  0
  2  4  1  0
  2  8  1  0
  4  5  1  1
  4  6  1  0
  6  7  1  6
  6  8  1  0
  8  9  1  6
  8 11  1  0
  9 10  1  0
 11 12  1  0
 12 13  1  0
 13 14  1  0
 14 15  1  0
 16 15  1  1
 16 17  1  0
 16 20  1  0
 17 18  1  0
 17 19  2  0
 20 21  2  0
 20 22  1  0
M  CHG  1   7   1
M  END
