
     RDKit          3D

 22 22  0  0  0  0  0  0  0  0999 V2000
    4.0490   -0.4830   -1.7260 C   0  0  0  0  0  0  0  0  0  0  0  0
    4.6000   -0.1270   -0.3920 C   0  0  1  0  0  0  0  0  0  0  0  0
    5.9970   -0.4750   -0.3950 O   0  0  0  0  0  0  0  0  0  0  0  0
    4.6280    1.3970   -0.2520 C   0  0  0  0  0  0  0  0  0  0  0  0
    3.3250    1.8880   -0.2340 O   0  0  0  0  0  0  0  0  0  0  0  0
    3.9760   -0.7260    0.7980 C   0  0  0  0  0  0  0  0  0  0  0  0
    2.6130   -0.4950    1.0450 N   0  0  0  0  0  0  0  0  0  0  0  0
    1.5140   -0.9400    0.2750 C   0  0  0  0  0  0  0  0  0  0  0  0
    1.6370   -1.6420   -0.7310 O   0  0  0  0  0  0  0  0  0  0  0  0
    0.1630   -0.5830    0.6390 N   0  0  0  0  0  0  0  0  0  0  0  0
   -0.9750   -1.0300   -0.1390 C   0  0  2  0  0  0  0  0  0  0  0  0
   -1.5500    0.0580   -0.7320 O   0  0  0  0  0  0  0  0  0  0  0  0
   -2.7960    0.4230   -0.2960 C   0  0  1  0  0  0  0  0  0  0  0  0
   -2.7780    1.0690    1.0690 C   0  0  0  0  0  0  0  0  0  0  0  0
   -2.0030    2.2250    1.0250 O   0  0  0  0  0  0  0  0  0  0  0  0
   -3.3050    1.4810   -1.2760 C   0  0  0  0  0  0  0  0  0  0  0  0
   -4.6850    1.9300   -0.8570 C   0  0  0  0  0  0  0  0  0  0  0  0
   -5.5760    0.8550   -0.8400 O   0  0  0  0  0  0  0  0  0  0  0  0
   -3.6480   -0.6390   -0.4010 O   0  0  0  0  0  0  0  0  0  0  0  0
   -3.3400   -1.7020    0.4300 C   0  0  0  0  0  0  0  0  0  0  0  0
   -1.8880   -1.9240    0.6380 C   0  0  1  0  0  0  0  0  0  0  0  0
   -1.6240   -3.2760    0.3080 O   0  0  0  0  0  0  0  0  0  0  0  0
  2  1  1  6
  2  3  1  0
  2  4  1  0
  2  6  1  0
  4  5  1  0
  6  7  1  0
  7  8  1  0
  8  9  2  0
  8 10  1  0
 11 10  1  1
 11 12  1  0
 11 21  1  0
 12 13  1  0
 13 14  1  1
 13 16  1  0
 13 19  1  0
 14 15  1  0
 16 17  1  0
 17 18  1  0
 19 20  1  0
 20 21  1  0
 21 22  1  6
M  END
