
     RDKit          3D

 22 23  0  0  0  0  0  0  0  0999 V2000
    0.8900    2.4690   -1.4770 N   0  0  0  0  0  0  0  0  0  0  0  0
    0.5360    1.4250   -0.5330 C   0  0  1  0  0  0  0  0  0  0  0  0
    1.6790    1.2340    0.2740 O   0  0  0  0  0  0  0  0  0  0  0  0
    2.6850    0.8290   -0.6060 C   0  0  0  0  0  0  0  0  0  0  0  0
    3.9910    0.5790    0.1080 C   0  0  1  0  0  0  0  0  0  0  0  0
    4.4580    1.7000    0.7510 O   0  0  0  0  0  0  0  0  0  0  0  0
    3.7870   -0.5690    1.1030 C   0  0  0  0  0  0  0  0  0  0  0  0
    4.9530   -0.9140    1.7410 O   0  0  0  0  0  0  0  0  0  0  0  0
   -0.5590    1.8280    0.1670 O   0  0  0  0  0  0  0  0  0  0  0  0
   -1.6420    1.0890   -0.3200 C   0  0  2  0  0  0  0  0  0  0  0  0
   -2.6210    1.0540    0.8180 C   0  0  0  0  0  0  0  0  0  0  0  0
   -1.9010    0.4420    2.0100 C   0  0  2  0  0  0  0  0  0  0  0  0
   -0.7370    1.1400    2.2140 O   0  0  0  0  0  0  0  0  0  0  0  0
   -1.6070   -0.9780    1.6680 C   0  0  1  0  0  0  0  0  0  0  0  0
   -2.7500   -1.7650    1.5700 O   0  0  0  0  0  0  0  0  0  0  0  0
   -0.7480   -1.1370    0.4680 C   0  0  1  0  0  0  0  0  0  0  0  0
   -0.8730   -2.4780    0.0400 O   0  0  0  0  0  0  0  0  0  0  0  0
   -1.0180   -0.2010   -0.6700 C   0  0  1  0  0  0  0  0  0  0  0  0
   -1.5740   -0.9020   -1.8690 C   0  0  0  0  0  0  0  0  0  0  0  0
   -3.0010   -1.2730   -1.8450 C   0  0  0  0  0  0  0  0  0  0  0  0
   -3.2650   -1.9110   -3.0860 O   0  0  0  0  0  0  0  0  0  0  0  0
    0.2640    0.2280   -1.1190 O   0  0  0  0  0  0  0  0  0  0  0  0
  2  1  1  6
  2  3  1  0
  2  9  1  0
  2 22  1  0
  3  4  1  0
  4  5  1  0
  5  6  1  1
  5  7  1  0
  7  8  1  0
  9 10  1  0
 10 11  1  1
 10 18  1  0
 11 12  1  0
 12 13  1  6
 12 14  1  0
 14 15  1  6
 14 16  1  0
 16 17  1  6
 16 18  1  0
 18 19  1  6
 18 22  1  0
 19 20  1  0
 20 21  1  0
M  END
