
     RDKit          3D

 22 22  0  0  0  0  0  0  0  0999 V2000
    5.4350    1.3790   -0.3860 N   0  0  0  0  0  0  0  0  0  0  0  0
    4.9340    0.0330   -0.0980 C   0  0  1  0  0  0  0  0  0  0  0  0
    5.5720   -0.4310    1.1690 C   0  0  0  0  0  0  0  0  0  0  0  0
    5.2490    0.4350    2.2350 O   0  0  0  0  0  0  0  0  0  0  0  0
    3.5630    0.1180   -0.0420 O   0  0  0  0  0  0  0  0  0  0  0  0
    2.8980   -0.6070   -0.9960 C   0  0  1  0  0  0  0  0  0  0  0  0
    2.0490   -1.6470   -0.2800 C   0  0  0  0  0  0  0  0  0  0  0  0
    0.8220   -1.0460   -0.0480 O   0  0  0  0  0  0  0  0  0  0  0  0
    0.5430   -0.3630   -1.2070 C   0  0  1  0  0  0  0  0  0  0  0  0
   -0.4060    0.7700   -0.9920 C   0  0  0  0  0  0  0  0  0  0  0  0
   -1.6680    0.2980   -0.4630 N   0  0  0  0  0  0  0  0  0  0  0  0
   -2.7440    1.1820   -0.1690 C   0  0  0  0  0  0  0  0  0  0  0  0
   -2.5180    2.4160   -0.4040 O   0  0  0  0  0  0  0  0  0  0  0  0
   -4.0420    0.7060    0.3740 C   0  0  2  0  0  0  0  0  0  0  0  0
   -3.7950    0.0330    1.6690 C   0  0  0  0  0  0  0  0  0  0  0  0
   -4.9140   -0.4640    2.2960 O   0  0  0  0  0  0  0  0  0  0  0  0
   -4.8020   -0.1240   -0.6240 C   0  0  1  0  0  0  0  0  0  0  0  0
   -4.0100   -1.2250   -0.9450 O   0  0  0  0  0  0  0  0  0  0  0  0
   -6.1420   -0.4960   -0.1940 C   0  0  0  0  0  0  0  0  0  0  0  0
   -6.4830   -1.6980   -0.1400 O   0  0  0  0  0  0  0  0  0  0  0  0
   -7.0690    0.4620    0.1650 O   0  0  0  0  0  0  0  0  0  0  0  0
    1.8460    0.1940   -1.7260 C   0  0  0  0  0  0  0  0  0  0  0  0
  2  1  1  1
  2  3  1  0
  2  5  1  0
  3  4  1  0
  6  5  1  1
  6  7  1  0
  6 22  1  0
  7  8  1  0
  8  9  1  0
  9 10  1  1
  9 22  1  0
 10 11  1  0
 11 12  1  0
 12 13  2  0
 12 14  1  0
 14 15  1  1
 14 17  1  0
 15 16  1  0
 17 18  1  1
 17 19  1  0
 19 20  2  0
 19 21  1  0
M  CHG  1   1   1
M  END
