
     RDKit          3D

  7  6  0  0  0  0  0  0  0  0999 V2000
    2.7480   -0.3980   -0.1610 C   0  0  0  0  0  0  0  0  0  0  0  0
    1.5090   -0.2770    0.5900 N   0  0  0  0  0  0  0  0  0  0  0  0
    0.4850    0.0700   -0.3560 C   0  0  0  0  0  0  0  0  0  0  0  0
   -0.8770    0.2340    0.2720 C   0  0  2  0  0  0  0  0  0  0  0  0
   -1.4030   -1.0760    0.8420 C   0  0  0  0  0  0  0  0  0  0  0  0
   -1.8150    0.6600   -0.8440 C   0  0  0  0  0  0  0  0  0  0  0  0
   -0.8760    1.2400    1.2380 O   0  0  0  0  0  0  0  0  0  0  0  0
  1  2  1  0
  2  3  1  0
  3  4  1  0
  4  5  1  1
  4  6  1  0
  4  7  1  0
M  END
