
     RDKit          3D

  7  6  0  0  0  0  0  0  0  0999 V2000
   -1.7060   -1.2200   -0.6090 C   0  0  0  0  0  0  0  0  0  0  0  0
   -1.3400   -0.5180    0.6770 C   0  0  0  0  0  0  0  0  0  0  0  0
   -0.0940    0.1670    0.6400 N   0  0  0  0  0  0  0  0  0  0  0  0
    1.0500   -0.7020    0.5490 C   0  0  0  0  0  0  0  0  0  0  0  0
    2.3470    0.0450    0.5130 C   0  0  0  0  0  0  0  0  0  0  0  0
   -0.0830    1.2750   -0.2730 C   0  0  0  0  0  0  0  0  0  0  0  0
   -1.0830    2.1660    0.1550 O   0  0  0  0  0  0  0  0  0  0  0  0
  1  2  1  0
  2  3  1  0
  3  4  1  0
  3  6  1  0
  4  5  1  0
  6  7  1  0
M  END
