
     RDKit          3D

 31 33  0  0  0  0  0  0  0  0999 V2000
   -5.4480    0.1310    2.1890 O   0  0  0  0  0  0  0  0  0  0  0  0
   -4.9640   -0.6170    3.0520 C   0  0  0  0  0  0  0  0  0  0  0  0
   -3.8140   -1.4430    2.8180 C   0  0  0  0  0  0  0  0  0  0  0  0
   -3.1110   -1.5590    1.7320 C   0  0  0  0  0  0  0  0  0  0  0  0
   -3.3470   -0.8590    0.4980 C   0  0  0  0  0  0  0  0  0  0  0  0
   -2.6140   -0.9970   -0.5920 C   0  0  0  0  0  0  0  0  0  0  0  0
   -2.8390   -0.2820   -1.8540 C   0  0  0  0  0  0  0  0  0  0  0  0
   -3.1580    0.9640   -2.0760 C   0  0  0  0  0  0  0  0  0  0  0  0
   -3.3810    2.0450   -1.1560 C   0  0  0  0  0  0  0  0  0  0  0  0
   -3.7310    3.2590   -1.5030 N   0  0  0  0  0  0  0  0  0  0  0  0
   -3.8680    4.0580   -0.4250 O   0  0  0  0  0  0  0  0  0  0  0  0
   -3.6030    3.3180    0.7640 C   0  0  0  0  0  0  0  0  0  0  0  0
   -3.2820    2.0710    0.2250 O   0  0  0  0  0  0  0  0  0  0  0  0
   -2.4980   -1.2590   -2.8930 N   0  0  0  0  0  0  0  0  0  0  0  0
   -2.0940   -2.4530   -2.2220 C   0  0  0  0  0  0  0  0  0  0  0  0
   -2.2110   -3.6250   -2.6030 O   0  0  0  0  0  0  0  0  0  0  0  0
   -1.4920   -1.9080   -0.9350 C   0  0  1  0  0  0  0  0  0  0  0  0
   -0.2890   -1.1170   -1.3140 C   0  0  0  0  0  0  0  0  0  0  0  0
    0.7900   -1.9270   -0.7680 N   0  0  0  0  0  0  0  0  0  0  0  0
    2.1590   -1.7970   -1.1530 C   0  0  0  0  0  0  0  0  0  0  0  0
    2.9120   -0.8380   -0.3440 C   0  0  0  0  0  0  0  0  0  0  0  0
    2.3320   -0.2260    0.5850 O   0  0  0  0  0  0  0  0  0  0  0  0
    4.2820   -0.6020   -0.6060 N   0  0  0  0  0  0  0  0  0  0  0  0
    5.0910    0.3230    0.1400 C   0  0  0  0  0  0  0  0  0  0  0  0
    4.5660    1.7420    0.0700 C   0  0  0  0  0  0  0  0  0  0  0  0
    5.6940    2.8150    1.0650 P   0  0  0  0  0  0  0  0  0  0  0  0
    6.7250    3.7380    0.0010 O   0  0  0  0  0  0  0  0  0  0  0  0
    6.7160    1.8380    2.0970 O   0  0  0  0  0  0  0  0  0  0  0  0
    0.2100   -2.8190    0.1770 C   0  0  0  0  0  0  0  0  0  0  0  0
    0.8950   -3.4120    1.0500 O   0  0  0  0  0  0  0  0  0  0  0  0
   -1.1750   -2.8960   -0.0490 O   0  0  0  0  0  0  0  0  0  0  0  0
  1  2  2  0
  2  3  1  0
  3  4  2  3
  4  5  1  0
  5  6  2  3
  6  7  1  0
  6 17  1  0
  7  8  2  3
  7 14  1  0
  8  9  1  0
  9 10  2  0
  9 13  1  0
 10 11  1  0
 11 12  1  0
 12 13  1  0
 14 15  1  0
 15 16  2  0
 15 17  1  0
 17 18  1  6
 17 31  1  0
 18 19  1  0
 19 20  1  0
 19 29  1  0
 20 21  1  0
 21 22  2  0
 21 23  1  0
 23 24  1  0
 24 25  1  0
 25 26  1  0
 26 27  1  0
 26 28  1  0
 29 30  2  0
 29 31  1  0
M  END
