
     RDKit          3D

 31 33  0  0  0  0  0  0  0  0999 V2000
    3.8010    0.0960   -5.1270 C   0  0  0  0  0  0  0  0  0  0  0  0
    2.9570    0.0360   -3.9590 C   0  0  0  0  0  0  0  0  0  0  0  0
    2.9890    0.0830   -2.6850 C   0  0  0  0  0  0  0  0  0  0  0  0
    1.7020   -0.0540   -2.0320 C   0  0  0  0  0  0  0  0  0  0  0  0
    0.6940   -0.2740   -2.8720 O   0  0  0  0  0  0  0  0  0  0  0  0
    1.2950   -0.0020   -0.7030 N   0  0  0  0  0  0  0  0  0  0  0  0
   -0.0900   -0.2010   -0.3630 C   0  0  0  0  0  0  0  0  0  0  0  0
   -0.4940   -0.1570    0.8830 C   0  0  0  0  0  0  0  0  0  0  0  0
    0.1940    0.0710    2.0670 O   0  0  0  0  0  0  0  0  0  0  0  0
   -0.7030   -0.1580    3.1930 C   0  0  0  0  0  0  0  0  0  0  0  0
   -1.9850    0.3420    2.5970 C   0  0  2  0  0  0  0  0  0  0  0  0
   -3.2410    0.0900    3.2750 C   0  0  0  0  0  0  0  0  0  0  0  0
   -3.3350    0.4030    4.5100 O   0  0  0  0  0  0  0  0  0  0  0  0
   -4.3540   -0.4800    2.6300 N   0  0  0  0  0  0  0  0  0  0  0  0
   -5.6670   -0.5530    3.2910 C   0  0  1  0  0  0  0  0  0  0  0  0
   -6.6200    0.2020    2.4160 C   0  0  0  0  0  0  0  0  0  0  0  0
   -7.5060   -0.6030    1.9730 N   0  0  0  0  0  0  0  0  0  0  0  0
   -7.3550   -1.9070    2.4090 N   0  0  0  0  0  0  0  0  0  0  0  0
   -6.2030   -1.9220    3.2530 C   0  0  0  0  0  0  0  0  0  0  0  0
   -5.7930   -2.9490    3.8290 O   0  0  0  0  0  0  0  0  0  0  0  0
   -4.2550   -1.0120    1.3080 C   0  0  0  0  0  0  0  0  0  0  0  0
   -5.2620   -1.5070    0.7880 O   0  0  0  0  0  0  0  0  0  0  0  0
   -2.9280   -0.9170    0.6730 C   0  0  0  0  0  0  0  0  0  0  0  0
   -1.9160   -0.3680    1.2660 C   0  0  0  0  0  0  0  0  0  0  0  0
    4.2630    0.2430   -2.0190 C   0  0  0  0  0  0  0  0  0  0  0  0
    4.5380    0.3130   -0.7570 C   0  0  0  0  0  0  0  0  0  0  0  0
    5.9620    0.4770   -0.4490 O   0  0  0  0  0  0  0  0  0  0  0  0
    5.4300    0.3440   -2.8610 O   0  0  0  0  0  0  0  0  0  0  0  0
    6.5700    1.6360   -2.5430 P   0  0  0  0  0  0  0  0  0  0  0  0
    7.8240    1.6070   -3.7350 O   0  0  0  0  0  0  0  0  0  0  0  0
    5.7950    3.1850   -2.5530 O   0  0  0  0  0  0  0  0  0  0  0  0
  1  2  1  0
  2  3  2  3
  3  4  1  0
  3 25  1  0
  4  5  2  0
  4  6  1  0
  6  7  1  0
  7  8  2  3
  8  9  1  0
  8 24  1  0
  9 10  1  0
 11 10  1  1
 11 12  1  0
 11 24  1  0
 12 13  2  0
 12 14  1  0
 15 14  1  6
 14 21  1  0
 15 16  1  0
 15 19  1  0
 16 17  2  0
 17 18  1  0
 18 19  1  0
 19 20  2  0
 21 22  2  0
 21 23  1  0
 23 24  2  0
 25 26  2  3
 25 28  1  0
 26 27  1  0
 28 29  1  0
 29 30  1  0
 29 31  1  0
M  END
