
     RDKit          3D

 30 32  0  0  0  0  0  0  0  0999 V2000
    0.8210   -4.3350    0.5970 C   0  0  0  0  0  0  0  0  0  0  0  0
    0.5430   -3.0990    0.0020 O   0  0  0  0  0  0  0  0  0  0  0  0
   -0.3300   -2.1750    0.5530 C   0  0  0  0  0  0  0  0  0  0  0  0
   -0.9110   -2.4330    1.6320 O   0  0  0  0  0  0  0  0  0  0  0  0
   -0.5370   -0.9090   -0.1740 C   0  0  2  0  0  0  0  0  0  0  0  0
    0.7360   -0.1840   -0.3260 C   0  0  0  0  0  0  0  0  0  0  0  0
    1.6830   -0.0020    0.6100 N   0  0  0  0  0  0  0  0  0  0  0  0
    2.6760    0.7120    0.0610 C   0  0  0  0  0  0  0  0  0  0  0  0
    3.9360    1.1560    0.6990 C   0  0  0  0  0  0  0  0  0  0  0  0
    4.1670    0.8150    2.0090 C   0  0  0  0  0  0  0  0  0  0  0  0
    5.3380    1.2060    2.6470 C   0  0  0  0  0  0  0  0  0  0  0  0
    6.2660    1.9390    1.9570 C   0  0  0  0  0  0  0  0  0  0  0  0
    7.4540    2.3470    2.5680 O   0  0  0  0  0  0  0  0  0  0  0  0
    5.9670    2.2460    0.6400 C   0  0  0  0  0  0  0  0  0  0  0  0
    4.8390    1.8650    0.0360 N   0  0  0  0  0  0  0  0  0  0  0  0
    2.3160    0.9560   -1.2100 N   0  0  0  0  0  0  0  0  0  0  0  0
    1.1540    0.4070   -1.4070 O   0  0  0  0  0  0  0  0  0  0  0  0
   -1.5750   -0.0110    0.4520 C   0  0  0  0  0  0  0  0  0  0  0  0
   -2.3150    0.5800   -0.6160 N   0  0  0  0  0  0  0  0  0  0  0  0
   -3.7130    0.7210   -0.4220 C   0  0  0  0  0  0  0  0  0  0  0  0
   -3.9380    1.7790    0.6590 C   0  0  1  0  0  0  0  0  0  0  0  0
   -3.3280    1.3770    1.8240 O   0  0  0  0  0  0  0  0  0  0  0  0
   -3.3170    3.4070    0.0650 P   0  0  0  0  0  0  0  0  0  0  0  0
   -3.4680    4.5760    1.3400 O   0  0  0  0  0  0  0  0  0  0  0  0
   -4.2380    3.9690   -1.3000 O   0  0  0  0  0  0  0  0  0  0  0  0
   -1.8840    0.0240   -1.8540 C   0  0  0  0  0  0  0  0  0  0  0  0
   -1.1600   -1.2560   -1.5040 C   0  0  1  0  0  0  0  0  0  0  0  0
   -0.1480   -1.6180   -2.5440 C   0  0  0  0  0  0  0  0  0  0  0  0
   -2.1310   -2.3790   -1.2940 C   0  0  0  0  0  0  0  0  0  0  0  0
   -2.7550   -2.7600   -2.4900 O   0  0  0  0  0  0  0  0  0  0  0  0
  1  2  1  0
  2  3  1  0
  3  4  2  0
  5  3  1  1
  5  6  1  0
  5 18  1  0
  5 27  1  0
  6  7  2  0
  6 17  1  0
  7  8  1  0
  8  9  1  0
  8 16  2  0
  9 10  2  0
  9 15  1  0
 10 11  1  0
 11 12  2  0
 12 13  1  0
 12 14  1  0
 14 15  2  0
 16 17  1  0
 18 19  1  0
 19 20  1  0
 19 26  1  0
 20 21  1  0
 21 22  1  1
 21 23  1  0
 23 24  1  0
 23 25  1  0
 26 27  1  0
 27 28  1  6
 27 29  1  0
 29 30  1  0
M  END
