
     RDKit          3D

 31 33  0  0  0  0  0  0  0  0999 V2000
   -0.1500    0.1530   -1.8280 O   0  0  0  0  0  0  0  0  0  0  0  0
    1.0810    0.2470   -1.9030 C   0  0  0  0  0  0  0  0  0  0  0  0
    1.7020    0.2540   -3.1740 N   0  0  0  0  0  0  0  0  0  0  0  0
    0.9830    0.1570   -4.4110 C   0  0  0  0  0  0  0  0  0  0  0  0
    0.1830   -1.1150   -4.5310 C   0  0  0  0  0  0  0  0  0  0  0  0
   -0.4600   -1.0680   -5.7820 O   0  0  0  0  0  0  0  0  0  0  0  0
    1.8950    0.3500   -0.7140 C   0  0  0  0  0  0  0  0  0  0  0  0
    1.3070    0.3430    0.4660 C   0  0  0  0  0  0  0  0  0  0  0  0
   -0.0790    0.2390    0.6050 N   0  0  0  0  0  0  0  0  0  0  0  0
   -0.7500   -0.8630    0.6590 C   0  0  0  0  0  0  0  0  0  0  0  0
   -0.1800   -2.0700    0.5840 N   0  0  0  0  0  0  0  0  0  0  0  0
   -0.9680   -3.1530    0.6510 C   0  0  0  0  0  0  0  0  0  0  0  0
   -2.2990   -3.0620    0.7880 N   0  0  0  0  0  0  0  0  0  0  0  0
   -2.9070   -1.8370    0.8660 C   0  0  0  0  0  0  0  0  0  0  0  0
   -2.1380   -0.7020    0.8040 C   0  0  0  0  0  0  0  0  0  0  0  0
   -2.7210    0.6280    0.8220 C   0  0  0  0  0  0  0  0  0  0  0  0
   -2.2490    1.4870    0.0090 O   0  0  0  0  0  0  0  0  0  0  0  0
   -3.7880    1.0500    1.6890 C   0  0  0  0  0  0  0  0  0  0  0  0
   -4.3340    0.3010    2.6160 C   0  0  0  0  0  0  0  0  0  0  0  0
   -5.4530    0.7560    3.5120 C   0  0  0  0  0  0  0  0  0  0  0  0
   -5.8500    2.0680    3.2600 O   0  0  0  0  0  0  0  0  0  0  0  0
   -5.3110    2.8870    2.3050 C   0  0  0  0  0  0  0  0  0  0  0  0
   -4.3350    2.4140    1.5570 C   0  0  0  0  0  0  0  0  0  0  0  0
    2.1070    0.4430    1.5940 O   0  0  0  0  0  0  0  0  0  0  0  0
    3.4560   -0.0210    1.5240 C   0  0  0  0  0  0  0  0  0  0  0  0
    4.1490    0.4850    0.2940 C   0  0  1  0  0  0  0  0  0  0  0  0
    5.2790   -0.3300    0.0960 O   0  0  0  0  0  0  0  0  0  0  0  0
    6.7510    0.5620    0.2650 P   0  0  0  0  0  0  0  0  0  0  0  0
    6.4690    2.2710    0.3670 O   0  0  0  0  0  0  0  0  0  0  0  0
    7.4960    0.0470    1.7570 O   0  0  0  0  0  0  0  0  0  0  0  0
    3.3040    0.4570   -0.8130 O   0  0  0  0  0  0  0  0  0  0  0  0
  1  2  2  0
  2  3  1  0
  2  7  1  0
  3  4  1  0
  4  5  1  0
  5  6  1  0
  7  8  2  0
  7 31  1  0
  8  9  1  0
  8 24  1  0
  9 10  2  3
 10 11  1  0
 10 15  1  0
 11 12  2  0
 12 13  1  0
 13 14  1  0
 14 15  2  0
 15 16  1  0
 16 17  2  0
 16 18  1  0
 18 19  2  0
 18 23  1  0
 19 20  1  0
 20 21  1  0
 21 22  1  0
 22 23  2  0
 24 25  1  0
 25 26  1  0
 26 27  1  6
 26 31  1  0
 27 28  1  0
 28 29  1  0
 28 30  1  0
M  END
