
     RDKit          3D

 20 20  0  0  0  0  0  0  0  0999 V2000
    3.9690    1.7780    1.8960 C   0  0  0  0  0  0  0  0  0  0  0  0
    4.2350    1.4210    0.5960 O   0  0  0  0  0  0  0  0  0  0  0  0
    3.6630    0.2430    0.1870 C   0  0  0  0  0  0  0  0  0  0  0  0
    2.1500    0.2290    0.2640 C   0  0  1  0  0  0  0  0  0  0  0  0
    1.6820    1.2460   -0.5540 O   0  0  0  0  0  0  0  0  0  0  0  0
    1.6710   -1.0790   -0.2700 C   0  0  2  0  0  0  0  0  0  0  0  0
    2.1730   -1.2510   -1.6150 N   0  0  0  0  0  0  0  0  0  0  0  0
    0.1640   -1.2480   -0.1830 C   0  0  1  0  0  0  0  0  0  0  0  0
   -0.0750   -2.7340   -0.4990 C   0  0  0  0  0  0  0  0  0  0  0  0
   -0.2290   -1.0650    1.1200 O   0  0  0  0  0  0  0  0  0  0  0  0
   -1.5590   -1.1640    1.3760 C   0  0  2  0  0  0  0  0  0  0  0  0
   -2.0470   -2.5240    1.7710 C   0  0  0  0  0  0  0  0  0  0  0  0
   -2.4420   -0.6630    0.2550 C   0  0  1  0  0  0  0  0  0  0  0  0
   -3.5400    0.0520    0.7080 O   0  0  0  0  0  0  0  0  0  0  0  0
   -1.6000    0.2010   -0.6360 C   0  0  2  0  0  0  0  0  0  0  0  0
   -2.2570    0.6750   -1.7560 O   0  0  0  0  0  0  0  0  0  0  0  0
   -2.2810    2.0430   -1.8980 C   0  0  0  0  0  0  0  0  0  0  0  0
   -2.9960    2.6840   -0.7610 C   0  0  0  0  0  0  0  0  0  0  0  0
   -2.9620    4.0810   -1.0170 O   0  0  0  0  0  0  0  0  0  0  0  0
   -0.5070   -0.5330   -1.1340 O   0  0  0  0  0  0  0  0  0  0  0  0
  1  2  1  0
  2  3  1  0
  3  4  1  0
  4  5  1  6
  4  6  1  0
  6  7  1  6
  6  8  1  0
  8  9  1  6
  8 10  1  0
  8 20  1  0
 10 11  1  0
 11 12  1  6
 11 13  1  0
 13 14  1  1
 13 15  1  0
 15 16  1  6
 15 20  1  0
 16 17  1  0
 17 18  1  0
 18 19  1  0
M  CHG  1   7   1
M  END
