
     RDKit          3D

 21 21  0  0  0  0  0  0  0  0999 V2000
   -5.8350    0.7140    0.4280 N   0  0  0  0  0  0  0  0  0  0  0  0
   -4.5330    0.7490    1.0530 C   0  0  0  0  0  0  0  0  0  0  0  0
   -3.5450    0.0040    0.1750 C   0  0  2  0  0  0  0  0  0  0  0  0
   -3.5510    0.6500   -1.0540 O   0  0  0  0  0  0  0  0  0  0  0  0
   -3.9040   -1.4370    0.0860 C   0  0  0  0  0  0  0  0  0  0  0  0
   -5.1930   -1.5790   -0.4410 O   0  0  0  0  0  0  0  0  0  0  0  0
   -2.1410    0.1440    0.7230 C   0  0  0  0  0  0  0  0  0  0  0  0
   -1.1920   -0.5990   -0.1750 C   0  0  1  0  0  0  0  0  0  0  0  0
   -1.2930   -0.0380   -1.4450 O   0  0  0  0  0  0  0  0  0  0  0  0
    0.2000   -0.3730    0.4060 C   0  0  2  0  0  0  0  0  0  0  0  0
    0.4100    0.9850    0.4810 O   0  0  0  0  0  0  0  0  0  0  0  0
    1.7910    1.1390    0.4560 C   0  0  0  0  0  0  0  0  0  0  0  0
    2.2570   -0.0090   -0.3650 C   0  0  1  0  0  0  0  0  0  0  0  0
    2.5570    0.3580   -1.8000 C   0  0  0  0  0  0  0  0  0  0  0  0
    1.4970    0.9400   -2.4470 O   0  0  0  0  0  0  0  0  0  0  0  0
    3.4340   -0.7140    0.2410 C   0  0  1  0  0  0  0  0  0  0  0  0
    3.7470   -1.8230   -0.5430 O   0  0  0  0  0  0  0  0  0  0  0  0
    4.6350    0.1960    0.3840 C   0  0  0  0  0  0  0  0  0  0  0  0
    5.8100   -0.5400    0.9990 C   0  0  0  0  0  0  0  0  0  0  0  0
    6.9090    0.3060    1.1260 O   0  0  0  0  0  0  0  0  0  0  0  0
    1.1940   -0.9100   -0.3900 O   0  0  0  0  0  0  0  0  0  0  0  0
  1  2  1  0
  2  3  1  0
  3  4  1  6
  3  5  1  0
  3  7  1  0
  5  6  1  0
  7  8  1  0
  8  9  1  6
  8 10  1  0
 10 11  1  6
 10 21  1  0
 11 12  1  0
 12 13  1  0
 13 14  1  6
 13 16  1  0
 13 21  1  0
 14 15  1  0
 16 17  1  6
 16 18  1  0
 18 19  1  0
 19 20  1  0
M  CHG  1   1   1
M  END
