
     RDKit          3D

 20 20  0  0  0  0  0  0  0  0999 V2000
   -4.8390   -0.1460    0.9400 C   0  0  0  0  0  0  0  0  0  0  0  0
   -3.5290   -0.6420    0.9720 O   0  0  0  0  0  0  0  0  0  0  0  0
   -2.7960    0.1090    0.0560 C   0  0  0  0  0  0  0  0  0  0  0  0
   -1.3500   -0.3640    0.0240 C   0  0  2  0  0  0  0  0  0  0  0  0
   -1.4280   -1.8400   -0.3960 C   0  0  0  0  0  0  0  0  0  0  0  0
   -2.0280   -1.9580   -1.6490 O   0  0  0  0  0  0  0  0  0  0  0  0
   -0.7120   -0.3260    1.3770 C   0  0  1  0  0  0  0  0  0  0  0  0
   -0.6510   -1.6160    1.9550 O   0  0  0  0  0  0  0  0  0  0  0  0
    0.4700    0.3480    1.4480 O   0  0  0  0  0  0  0  0  0  0  0  0
    1.3990    0.0510    0.4860 C   0  0  2  0  0  0  0  0  0  0  0  0
    2.1270   -1.2450    0.8400 C   0  0  0  0  0  0  0  0  0  0  0  0
    3.1110   -1.6180   -0.1170 N   0  0  0  0  0  0  0  0  0  0  0  0
    2.4750    1.1270    0.5440 C   0  0  0  0  0  0  0  0  0  0  0  0
    3.4650    0.8690   -0.4330 O   0  0  0  0  0  0  0  0  0  0  0  0
    4.4410    1.8700   -0.3590 C   0  0  0  0  0  0  0  0  0  0  0  0
    0.8540    0.0320   -0.9060 C   0  0  0  0  0  0  0  0  0  0  0  0
   -0.6000    0.3740   -1.0240 C   0  0  1  0  0  0  0  0  0  0  0  0
   -1.0080   -0.1500   -2.2760 O   0  0  0  0  0  0  0  0  0  0  0  0
   -0.8940    1.8420   -1.0800 C   0  0  0  0  0  0  0  0  0  0  0  0
   -0.5790    2.5510    0.0370 O   0  0  0  0  0  0  0  0  0  0  0  0
  1  2  1  0
  2  3  1  0
  4  3  1  1
  4  5  1  0
  4  7  1  0
  4 17  1  0
  5  6  1  0
  7  8  1  6
  7  9  1  0
  9 10  1  0
 10 11  1  1
 10 13  1  0
 10 16  1  0
 11 12  1  0
 13 14  1  0
 14 15  1  0
 16 17  1  0
 17 18  1  6
 17 19  1  0
 19 20  1  0
M  CHG  1  12   1
M  END
