
     RDKit          3D

 17 18  0  0  0  0  0  0  0  0999 V2000
    4.8670    1.1750    0.8640 C   0  0  0  0  0  0  0  0  0  0  0  0
    4.1470    0.3970    0.0840 C   0  0  0  0  0  0  0  0  0  0  0  0
    2.6860    0.4950    0.0060 C   0  0  0  0  0  0  0  0  0  0  0  0
    2.0160   -0.6750    0.3670 O   0  0  0  0  0  0  0  0  0  0  0  0
    0.6380   -0.7100    0.3350 C   0  0  0  0  0  0  0  0  0  0  0  0
   -0.0490    0.4100   -0.0530 C   0  0  0  0  0  0  0  0  0  0  0  0
   -1.4220    0.3990   -0.0930 C   0  0  0  0  0  0  0  0  0  0  0  0
   -2.1050    1.4960   -0.4730 N   0  0  0  0  0  0  0  0  0  0  0  0
   -3.4270    1.4880   -0.5120 C   0  0  0  0  0  0  0  0  0  0  0  0
   -4.0120    2.5490   -0.8780 O   0  0  0  0  0  0  0  0  0  0  0  0
   -4.1600    0.4190   -0.1860 N   0  0  0  0  0  0  0  0  0  0  0  0
   -3.5050   -0.6810    0.1940 C   0  0  0  0  0  0  0  0  0  0  0  0
   -4.1600   -1.7090    0.5100 O   0  0  0  0  0  0  0  0  0  0  0  0
   -2.1420   -0.7180    0.2500 C   0  0  0  0  0  0  0  0  0  0  0  0
   -1.4410   -1.8320    0.6360 C   0  0  0  0  0  0  0  0  0  0  0  0
   -0.0530   -1.8460    0.6840 C   0  0  0  0  0  0  0  0  0  0  0  0
    0.6050   -3.0160    1.0880 O   0  0  0  0  0  0  0  0  0  0  0  0
  1  2  2  0
  2  3  1  0
  3  4  1  0
  4  5  1  0
  5  6  2  0
  5 16  1  0
  6  7  1  0
  7  8  1  0
  7 14  2  0
  8  9  1  0
  9 10  2  0
  9 11  1  0
 11 12  1  0
 12 13  2  0
 12 14  1  0
 14 15  1  0
 15 16  2  0
 16 17  1  0
M  END
