
     RDKit          3D

 19 20  0  0  0  0  0  0  0  0999 V2000
    4.5830    1.5900   -0.1210 C   0  0  0  0  0  0  0  0  0  0  0  0
    5.3450    0.7140   -0.8890 O   0  0  0  0  0  0  0  0  0  0  0  0
    4.6060   -0.4560   -1.1620 C   0  0  0  0  0  0  0  0  0  0  0  0
    4.2280   -1.1360    0.0930 C   0  0  0  0  0  0  0  0  0  0  0  0
    2.9590   -1.3290    0.3930 C   0  0  0  0  0  0  0  0  0  0  0  0
    1.8250   -0.9380   -0.3950 C   0  0  0  0  0  0  0  0  0  0  0  0
    0.7050   -0.7500    0.2540 C   0  0  0  0  0  0  0  0  0  0  0  0
   -0.5610   -0.3560   -0.3010 C   0  0  0  0  0  0  0  0  0  0  0  0
   -0.7030   -0.1480   -1.5490 O   0  0  0  0  0  0  0  0  0  0  0  0
   -1.6950   -0.1890    0.5270 N   0  0  0  0  0  0  0  0  0  0  0  0
   -2.9920    0.1880    0.1770 C   0  0  0  0  0  0  0  0  0  0  0  0
   -3.3270    0.6580   -1.0590 C   0  0  0  0  0  0  0  0  0  0  0  0
   -4.6400    1.0230   -1.4100 C   0  0  0  0  0  0  0  0  0  0  0  0
   -5.6310    0.9000   -0.4650 C   0  0  0  0  0  0  0  0  0  0  0  0
   -7.3420    1.3440   -0.8260 S   0  0  0  0  0  0  0  0  0  0  0  0
   -5.2960    0.4250    0.7890 C   0  0  0  0  0  0  0  0  0  0  0  0
   -4.0030    0.0750    1.1040 C   0  0  0  0  0  0  0  0  0  0  0  0
    1.0010   -1.0860    1.9760 S   0  0  0  0  0  0  0  0  0  0  0  0
    2.5710   -2.0200    1.6810 C   0  0  0  0  0  0  0  0  0  0  0  0
  1  2  1  0
  2  3  1  0
  3  4  1  0
  4  5  2  3
  5  6  1  0
  5 19  1  0
  6  7  2  0
  7  8  1  0
  7 18  1  0
  8  9  2  0
  8 10  1  0
 10 11  1  0
 11 12  2  0
 11 17  1  0
 12 13  1  0
 13 14  2  0
 14 15  1  0
 14 16  1  0
 16 17  2  0
 18 19  1  0
M  END
