
     RDKit          3D

 19 20  0  0  0  0  0  0  0  0999 V2000
   -4.8890    1.0880    1.0450 C   0  0  0  0  0  0  0  0  0  0  0  0
   -3.5440    0.3800    0.9930 C   0  0  0  0  0  0  0  0  0  0  0  0
   -3.3830   -0.3420   -0.3570 C   0  0  0  0  0  0  0  0  0  0  0  0
   -4.3430   -0.3510   -1.2870 C   0  0  0  0  0  0  0  0  0  0  0  0
   -4.0930   -1.0490   -2.4890 C   0  0  0  0  0  0  0  0  0  0  0  0
   -2.4960   -1.6660   -2.2410 S   0  0  0  0  0  0  0  0  0  0  0  0
   -2.2100   -0.9970   -0.5920 C   0  0  0  0  0  0  0  0  0  0  0  0
   -0.9800   -1.2190    0.1210 C   0  0  0  0  0  0  0  0  0  0  0  0
   -0.0870   -1.9360   -0.4840 O   0  0  0  0  0  0  0  0  0  0  0  0
   -0.5880   -0.7730    1.3910 N   0  0  0  0  0  0  0  0  0  0  0  0
    0.7080   -1.0910    1.9740 C   0  0  0  0  0  0  0  0  0  0  0  0
    1.8090   -0.5630    1.1280 C   0  0  0  0  0  0  0  0  0  0  0  0
    1.8310    0.2620    0.0370 C   0  0  0  0  0  0  0  0  0  0  0  0
    3.0150    0.5550   -0.5200 C   0  0  0  0  0  0  0  0  0  0  0  0
    3.1100    1.4710   -1.7410 C   0  0  0  0  0  0  0  0  0  0  0  0
    4.1590    0.0460   -0.0140 C   0  0  0  0  0  0  0  0  0  0  0  0
    5.5610    0.1520   -0.3560 C   0  0  0  0  0  0  0  0  0  0  0  0
    6.3580   -0.5900    0.5090 O   0  0  0  0  0  0  0  0  0  0  0  0
    3.5760   -0.9320    1.3600 S   0  0  0  0  0  0  0  0  0  0  0  0
  1  2  1  0
  2  3  1  0
  3  4  1  0
  3  7  2  0
  4  5  2  0
  5  6  1  0
  6  7  1  0
  7  8  1  0
  8  9  2  0
  8 10  1  0
 10 11  1  0
 11 12  1  0
 12 13  2  0
 12 19  1  0
 13 14  1  0
 14 15  1  0
 14 16  2  0
 16 17  1  0
 16 19  1  0
 17 18  1  0
M  END
