
     RDKit          3D

 19 20  0  0  0  0  0  0  0  0999 V2000
   -3.5720   -2.0060    1.7370 C   0  0  0  0  0  0  0  0  0  0  0  0
   -3.6090   -1.7640    0.2480 C   0  0  0  0  0  0  0  0  0  0  0  0
   -2.8260   -0.5040   -0.1160 C   0  0  0  0  0  0  0  0  0  0  0  0
   -3.4540    0.6460   -0.4260 C   0  0  0  0  0  0  0  0  0  0  0  0
   -2.7080    1.7210   -0.7370 C   0  0  0  0  0  0  0  0  0  0  0  0
   -3.0810    3.1080   -1.1180 C   0  0  0  0  0  0  0  0  0  0  0  0
   -1.0580    1.1420   -0.6020 S   0  0  0  0  0  0  0  0  0  0  0  0
   -1.4760   -0.5450   -0.1260 C   0  0  0  0  0  0  0  0  0  0  0  0
   -0.5030   -1.6090    0.1480 C   0  0  0  0  0  0  0  0  0  0  0  0
    0.8700   -1.0710   -0.0140 N   0  0  0  0  0  0  0  0  0  0  0  0
    1.3330   -0.0220    0.7870 C   0  0  0  0  0  0  0  0  0  0  0  0
    0.4990    0.4200    1.6450 O   0  0  0  0  0  0  0  0  0  0  0  0
    2.6740    0.6050    0.7260 C   0  0  0  0  0  0  0  0  0  0  0  0
    3.1050    1.9390    1.8170 S   0  0  0  0  0  0  0  0  0  0  0  0
    4.7580    2.1650    1.2040 C   0  0  0  0  0  0  0  0  0  0  0  0
    4.8570    1.2050    0.2130 C   0  0  0  0  0  0  0  0  0  0  0  0
    3.7720    0.4290   -0.0000 C   0  0  0  0  0  0  0  0  0  0  0  0
    3.8380   -0.6490   -1.0850 C   0  0  0  0  0  0  0  0  0  0  0  0
    5.0870   -0.6500   -1.7220 O   0  0  0  0  0  0  0  0  0  0  0  0
  1  2  1  0
  2  3  1  0
  3  4  1  0
  3  8  2  0
  4  5  2  0
  5  6  1  0
  5  7  1  0
  7  8  1  0
  8  9  1  0
  9 10  1  0
 10 11  1  0
 11 12  2  0
 11 13  1  0
 13 14  1  0
 13 17  2  0
 14 15  1  0
 15 16  2  0
 16 17  1  0
 17 18  1  0
 18 19  1  0
M  END
