
     RDKit          3D

 19 20  0  0  0  0  0  0  0  0999 V2000
   -5.9920    2.3690   -1.2500 O   0  0  0  0  0  0  0  0  0  0  0  0
   -5.5940    1.4040   -0.5160 C   0  0  0  0  0  0  0  0  0  0  0  0
   -6.5830    0.7990    0.2100 O   0  0  0  0  0  0  0  0  0  0  0  0
   -4.2090    1.0080   -0.4800 C   0  0  0  0  0  0  0  0  0  0  0  0
   -3.6880    0.0310    0.2440 C   0  0  0  0  0  0  0  0  0  0  0  0
   -4.4720   -0.8350    1.1630 C   0  0  0  0  0  0  0  0  0  0  0  0
   -3.1540   -0.9910    2.4700 S   0  0  0  0  0  0  0  0  0  0  0  0
   -1.8070   -0.8630    1.3070 C   0  0  0  0  0  0  0  0  0  0  0  0
   -2.2700   -0.3150    0.2190 C   0  0  0  0  0  0  0  0  0  0  0  0
   -1.4390   -0.0260   -1.0200 C   0  0  0  0  0  0  0  0  0  0  0  0
   -0.0030   -0.3750   -0.7620 C   0  0  0  0  0  0  0  0  0  0  0  0
    0.6160    0.3350    0.2690 N   0  0  0  0  0  0  0  0  0  0  0  0
    1.9510   -0.0160    0.5160 C   0  0  0  0  0  0  0  0  0  0  0  0
    2.8890    0.3810   -0.6100 C   0  0  0  0  0  0  0  0  0  0  0  0
    4.2540   -0.0520   -0.2100 C   0  0  0  0  0  0  0  0  0  0  0  0
    5.4000    0.1400   -0.9740 C   0  0  0  0  0  0  0  0  0  0  0  0
    6.5590   -0.2990   -0.4990 C   0  0  0  0  0  0  0  0  0  0  0  0
    6.6200   -0.9340    0.7330 C   0  0  0  0  0  0  0  0  0  0  0  0
    4.8440   -0.8600    1.1830 S   0  0  0  0  0  0  0  0  0  0  0  0
  1  2  2  0
  2  3  1  0
  2  4  1  0
  4  5  2  3
  5  6  1  0
  5  9  1  0
  6  7  1  0
  7  8  1  0
  8  9  2  0
  9 10  1  0
 10 11  1  0
 11 12  1  0
 12 13  1  0
 13 14  1  0
 14 15  1  0
 15 16  2  0
 15 19  1  0
 16 17  1  0
 17 18  2  0
 18 19  1  0
M  END
