
     RDKit          3D

 19 20  0  0  0  0  0  0  0  0999 V2000
    4.9130    1.0200   -1.0730 C   0  0  0  0  0  0  0  0  0  0  0  0
    3.8860    0.1840   -1.0950 C   0  0  0  0  0  0  0  0  0  0  0  0
    3.5980   -0.5920    0.1540 C   0  0  0  0  0  0  0  0  0  0  0  0
    2.2790   -0.4350    0.7120 N   0  0  0  0  0  0  0  0  0  0  0  0
    1.0570   -0.8070    0.0360 C   0  0  0  0  0  0  0  0  0  0  0  0
    1.1830   -1.2590   -1.1030 O   0  0  0  0  0  0  0  0  0  0  0  0
   -0.2640   -0.6440    0.7320 C   0  0  0  0  0  0  0  0  0  0  0  0
   -0.3040   -0.8240    2.0810 C   0  0  0  0  0  0  0  0  0  0  0  0
   -1.5010   -0.6580    2.7140 C   0  0  0  0  0  0  0  0  0  0  0  0
   -1.8690   -0.8780    4.1710 C   0  0  0  0  0  0  0  0  0  0  0  0
   -2.6060   -0.2340    1.4130 S   0  0  0  0  0  0  0  0  0  0  0  0
   -1.3680   -0.3340    0.1230 C   0  0  0  0  0  0  0  0  0  0  0  0
   -1.7860   -0.1340   -1.3410 C   0  0  0  0  0  0  0  0  0  0  0  0
   -1.7430   -1.1600   -2.2080 C   0  0  0  0  0  0  0  0  0  0  0  0
   -2.2410   -1.0260   -3.4440 C   0  0  0  0  0  0  0  0  0  0  0  0
   -2.8240    0.6800   -3.3920 S   0  0  0  0  0  0  0  0  0  0  0  0
   -2.3070    1.0290   -1.6850 C   0  0  0  0  0  0  0  0  0  0  0  0
   -2.2560    2.3870   -1.1830 C   0  0  0  0  0  0  0  0  0  0  0  0
   -3.4290    2.7750   -0.5540 O   0  0  0  0  0  0  0  0  0  0  0  0
  1  2  2  0
  2  3  1  0
  3  4  1  0
  4  5  1  0
  5  6  2  0
  5  7  1  0
  7  8  1  0
  7 12  2  0
  8  9  2  0
  9 10  1  0
  9 11  1  0
 11 12  1  0
 12 13  1  0
 13 14  1  0
 13 17  2  0
 14 15  2  0
 15 16  1  0
 16 17  1  0
 17 18  1  0
 18 19  1  0
M  END
