
     RDKit          3D

 19 20  0  0  0  0  0  0  0  0999 V2000
   -5.4880   -1.4930   -0.6190 C   0  0  0  0  0  0  0  0  0  0  0  0
   -4.5780   -0.6170    0.2410 C   0  0  1  0  0  0  0  0  0  0  0  0
   -5.2880    0.6480    0.6400 C   0  0  0  0  0  0  0  0  0  0  0  0
   -4.0040   -1.5850    1.6450 S   0  0  0  0  0  0  0  0  0  0  0  0
   -2.9130   -0.5990    2.7050 C   0  0  0  0  0  0  0  0  0  0  0  0
   -1.6740   -0.2780    1.9660 C   0  0  0  0  0  0  0  0  0  0  0  0
   -1.3280    0.7660    1.1680 C   0  0  0  0  0  0  0  0  0  0  0  0
   -0.1100    0.7990    0.6160 C   0  0  0  0  0  0  0  0  0  0  0  0
    0.7450   -0.2210    0.8750 C   0  0  0  0  0  0  0  0  0  0  0  0
    2.1140   -0.4140    0.3940 C   0  0  0  0  0  0  0  0  0  0  0  0
    2.7190   -1.4390    0.7590 O   0  0  0  0  0  0  0  0  0  0  0  0
    2.7530    0.5020   -0.4500 N   0  0  0  0  0  0  0  0  0  0  0  0
    4.0530    0.4430   -0.9850 C   0  0  0  0  0  0  0  0  0  0  0  0
    4.9180   -0.5210   -0.7780 C   0  0  0  0  0  0  0  0  0  0  0  0
    6.3010   -0.5740   -1.3530 C   0  0  0  0  0  0  0  0  0  0  0  0
    6.6270    0.5140   -2.1530 O   0  0  0  0  0  0  0  0  0  0  0  0
    5.7330    1.5350   -2.3820 C   0  0  0  0  0  0  0  0  0  0  0  0
    4.5260    1.5390   -1.8570 C   0  0  0  0  0  0  0  0  0  0  0  0
   -0.1700   -1.2660    1.9240 S   0  0  0  0  0  0  0  0  0  0  0  0
  2  1  1  1
  2  3  1  0
  2  4  1  0
  4  5  1  0
  5  6  1  0
  6  7  2  0
  6 19  1  0
  7  8  1  0
  8  9  2  0
  9 10  1  0
  9 19  1  0
 10 11  2  0
 10 12  1  0
 12 13  1  0
 13 14  2  0
 13 18  1  0
 14 15  1  0
 15 16  1  0
 16 17  1  0
 17 18  2  0
M  END
