
     RDKit          3D

 19 20  0  0  0  0  0  0  0  0999 V2000
   -4.1930   -0.8370    2.2500 C   0  0  0  0  0  0  0  0  0  0  0  0
   -3.6000   -0.3500    0.9290 C   0  0  0  0  0  0  0  0  0  0  0  0
   -2.3110    0.0210    0.8260 C   0  0  0  0  0  0  0  0  0  0  0  0
   -1.8730    0.4420   -0.3990 C   0  0  0  0  0  0  0  0  0  0  0  0
   -0.5770    0.9060   -0.8740 C   0  0  0  0  0  0  0  0  0  0  0  0
   -0.4770    1.2350   -2.0930 O   0  0  0  0  0  0  0  0  0  0  0  0
    0.5560    1.0070   -0.0570 N   0  0  0  0  0  0  0  0  0  0  0  0
    1.8660    1.4770   -0.5420 C   0  0  0  0  0  0  0  0  0  0  0  0
    2.3780    0.6240   -1.6100 C   0  0  0  0  0  0  0  0  0  0  0  0
    3.4860   -0.0480   -1.5790 C   0  0  0  0  0  0  0  0  0  0  0  0
    4.4760   -0.1550   -0.5650 C   0  0  0  0  0  0  0  0  0  0  0  0
    5.6700   -0.8870   -0.5720 C   0  0  0  0  0  0  0  0  0  0  0  0
    6.4400   -0.8430    0.4870 C   0  0  0  0  0  0  0  0  0  0  0  0
    6.1160   -0.1050    1.5950 C   0  0  0  0  0  0  0  0  0  0  0  0
    4.4990    0.6260    1.0680 S   0  0  0  0  0  0  0  0  0  0  0  0
   -3.3520    0.2980   -1.4160 S   0  0  0  0  0  0  0  0  0  0  0  0
   -4.3940   -0.2930   -0.1590 C   0  0  0  0  0  0  0  0  0  0  0  0
   -5.8500   -0.6470   -0.3030 C   0  0  0  0  0  0  0  0  0  0  0  0
   -6.2090   -0.4180   -1.6120 O   0  0  0  0  0  0  0  0  0  0  0  0
  1  2  1  0
  2  3  1  0
  2 17  2  0
  3  4  2  0
  4  5  1  0
  4 16  1  0
  5  6  2  0
  5  7  1  0
  7  8  1  0
  8  9  1  0
  9 10  2  3
 10 11  1  0
 11 12  2  0
 11 15  1  0
 12 13  1  0
 13 14  2  0
 14 15  1  0
 16 17  1  0
 17 18  1  0
 18 19  1  0
M  END
