
     RDKit          3D

 19 20  0  0  0  0  0  0  0  0999 V2000
    5.0490    0.5080    0.5710 C   0  0  0  0  0  0  0  0  0  0  0  0
    4.0390    0.5720   -0.5480 C   0  0  2  0  0  0  0  0  0  0  0  0
    2.7440    1.0080   -0.0400 N   0  0  0  0  0  0  0  0  0  0  0  0
    2.3450   -0.1400    0.7530 C   0  0  1  0  0  0  0  0  0  0  0  0
    0.8750   -0.0920    1.1090 C   0  0  0  0  0  0  0  0  0  0  0  0
    0.0320   -0.0780   -0.0460 N   0  0  0  0  0  0  0  0  0  0  0  0
   -1.3770   -0.0340    0.0680 C   0  0  0  0  0  0  0  0  0  0  0  0
   -1.8780   -0.0080    1.2140 O   0  0  0  0  0  0  0  0  0  0  0  0
   -2.2130   -0.0200   -1.1240 C   0  0  0  0  0  0  0  0  0  0  0  0
   -3.6880    0.0270   -0.8410 C   0  0  2  0  0  0  0  0  0  0  0  0
   -4.0890    1.1800   -0.1030 N   0  0  0  0  0  0  0  0  0  0  0  0
   -5.1640    0.8230    0.7740 C   0  0  0  0  0  0  0  0  0  0  0  0
   -5.9310    1.5910    1.4200 O   0  0  0  0  0  0  0  0  0  0  0  0
   -5.2170   -0.6180    0.7910 N   0  0  0  0  0  0  0  0  0  0  0  0
   -4.1930   -1.0900   -0.0600 C   0  0  0  0  0  0  0  0  0  0  0  0
   -3.8070   -2.2740   -0.1120 O   0  0  0  0  0  0  0  0  0  0  0  0
    2.6520   -1.2460   -0.1420 N   0  0  0  0  0  0  0  0  0  0  0  0
    3.7360   -0.8210   -0.9580 C   0  0  0  0  0  0  0  0  0  0  0  0
    4.3480   -1.4540   -1.8540 O   0  0  0  0  0  0  0  0  0  0  0  0
  2  1  1  1
  2  3  1  0
  2 18  1  0
  3  4  1  0
  4  5  1  6
  4 17  1  0
  5  6  1  0
  6  7  1  0
  7  8  2  0
  7  9  1  0
 10  9  1  1
 10 11  1  0
 10 15  1  0
 11 12  1  0
 12 13  2  0
 12 14  1  0
 14 15  1  0
 15 16  2  0
 17 18  1  0
 18 19  2  0
M  END
