
     RDKit          3D

 11 11  0  0  0  0  0  0  0  0999 V2000
   -3.3890   -0.6640    0.3700 C   0  0  0  0  0  0  0  0  0  0  0  0
   -2.2090   -0.0270    0.3600 C   0  0  0  0  0  0  0  0  0  0  0  0
   -2.1270    1.2830   -0.3250 C   0  0  0  0  0  0  0  0  0  0  0  0
   -1.0180   -0.6290    1.0170 C   0  0  0  0  0  0  0  0  0  0  0  0
    0.0620   -0.8560    0.0970 N   0  0  0  0  0  0  0  0  0  0  0  0
   -0.1260   -1.8610   -0.9320 C   0  0  0  0  0  0  0  0  0  0  0  0
    1.2710   -0.1110    0.2290 C   0  0  0  0  0  0  0  0  0  0  0  0
    2.4700   -0.6170    0.2140 N   0  0  0  0  0  0  0  0  0  0  0  0
    3.4710    0.3980    0.3700 C   0  0  0  0  0  0  0  0  0  0  0  0
    2.7040    1.6600    0.5310 C   0  0  0  0  0  0  0  0  0  0  0  0
    1.3630    1.2570    0.3920 O   0  0  0  0  0  0  0  0  0  0  0  0
  1  2  2  0
  2  3  1  0
  2  4  1  0
  4  5  1  0
  5  6  1  0
  5  7  1  0
  7  8  2  0
  7 11  1  0
  8  9  1  0
  9 10  1  0
 10 11  1  0
M  END
