
     RDKit          3D

 19 20  0  0  0  0  0  0  0  0999 V2000
    4.2970   -0.6330   -0.1440 C   0  0  0  0  0  0  0  0  0  0  0  0
    2.9060   -0.9460   -0.4620 C   0  0  0  0  0  0  0  0  0  0  0  0
    1.8340   -0.2290   -0.0900 C   0  0  0  0  0  0  0  0  0  0  0  0
    1.9030    0.9860    0.6980 C   0  0  0  0  0  0  0  0  0  0  0  0
    3.1770    1.4760    1.1200 N   0  0  0  0  0  0  0  0  0  0  0  0
    0.8260    1.6130    1.0110 N   0  0  0  0  0  0  0  0  0  0  0  0
   -0.4990    1.2110    0.6410 C   0  0  0  0  0  0  0  0  0  0  0  0
   -0.6160    0.1200   -0.0710 C   0  0  0  0  0  0  0  0  0  0  0  0
    0.5340   -0.6570   -0.4750 N   0  0  0  0  0  0  0  0  0  0  0  0
    0.3750   -1.8200   -1.2370 N   0  0  0  0  0  0  0  0  0  0  0  0
    0.6640   -2.9560   -0.8150 O   0  0  0  0  0  0  0  0  0  0  0  0
   -1.9580   -0.3760   -0.4790 C   0  0  2  0  0  0  0  0  0  0  0  0
   -2.4840   -1.3840    0.5570 C   0  0  0  0  0  0  0  0  0  0  0  0
   -1.8250   -1.0550   -1.6700 O   0  0  0  0  0  0  0  0  0  0  0  0
   -3.0170    0.6990   -0.5460 C   0  0  2  0  0  0  0  0  0  0  0  0
   -2.9290    1.4300   -1.7330 O   0  0  0  0  0  0  0  0  0  0  0  0
   -2.9230    1.6000    0.6430 C   0  0  0  0  0  0  0  0  0  0  0  0
   -3.9410    1.9610    1.2310 O   0  0  0  0  0  0  0  0  0  0  0  0
   -1.6170    1.9970    1.0320 N   0  0  0  0  0  0  0  0  0  0  0  0
  1  2  1  0
  2  3  2  3
  3  4  1  0
  3  9  1  0
  4  5  1  0
  4  6  2  0
  6  7  1  0
  7  8  2  0
  7 19  1  0
  8  9  1  0
  8 12  1  0
  9 10  1  0
 10 11  2  0
 12 13  1  1
 12 14  1  0
 12 15  1  0
 15 16  1  6
 15 17  1  0
 17 18  2  0
 17 19  1  0
M  END
