
     RDKit          3D

 19 21  0  0  0  0  0  0  0  0999 V2000
    5.3510    0.0920   -0.7270 N   0  0  0  0  0  0  0  0  0  0  0  0
    4.1190   -0.3590   -0.1800 C   0  0  0  0  0  0  0  0  0  0  0  0
    4.0900   -1.5330    0.5120 N   0  0  0  0  0  0  0  0  0  0  0  0
    2.9510   -1.9690    1.0290 C   0  0  0  0  0  0  0  0  0  0  0  0
    1.7840   -1.2940    0.9020 N   0  0  0  0  0  0  0  0  0  0  0  0
    1.7950   -0.1360    0.2230 C   0  0  0  0  0  0  0  0  0  0  0  0
    2.9630    0.3500   -0.3290 C   0  0  0  0  0  0  0  0  0  0  0  0
    2.7030    1.5130   -0.9500 N   0  0  0  0  0  0  0  0  0  0  0  0
    1.3890    1.7430   -0.7820 C   0  0  0  0  0  0  0  0  0  0  0  0
    0.8370    0.7550   -0.0780 N   0  0  0  0  0  0  0  0  0  0  0  0
   -0.5480    0.6610    0.2950 C   0  0  2  0  0  0  0  0  0  0  0  0
   -0.9570   -0.6910    0.3200 O   0  0  0  0  0  0  0  0  0  0  0  0
   -2.3310   -0.5160    0.5820 C   0  0  2  0  0  0  0  0  0  0  0  0
   -3.0430   -1.8400    0.4870 C   0  0  0  0  0  0  0  0  0  0  0  0
   -2.9170   -2.4060   -0.7700 O   0  0  0  0  0  0  0  0  0  0  0  0
   -2.7540    0.4400   -0.5100 C   0  0  1  0  0  0  0  0  0  0  0  0
   -3.8040    1.2340   -0.1130 O   0  0  0  0  0  0  0  0  0  0  0  0
   -1.4800    1.2160   -0.7710 C   0  0  1  0  0  0  0  0  0  0  0  0
   -1.6600    2.5720   -0.6090 O   0  0  0  0  0  0  0  0  0  0  0  0
  1  2  1  0
  2  3  2  0
  2  7  1  0
  3  4  1  0
  4  5  2  0
  5  6  1  0
  6  7  2  0
  6 10  1  0
  7  8  1  0
  8  9  2  0
  9 10  1  0
 11 10  1  6
 11 12  1  0
 11 18  1  0
 12 13  1  0
 13 14  1  6
 13 16  1  0
 14 15  1  0
 16 17  1  1
 16 18  1  0
 18 19  1  1
M  END
