
     RDKit          3D

 19 20  0  0  0  0  0  0  0  0999 V2000
    6.5650    0.5420    0.1720 N   0  0  0  0  0  0  0  0  0  0  0  0
    5.2920    0.6060    0.7220 C   0  0  0  0  0  0  0  0  0  0  0  0
    5.2530    1.3520    1.8130 O   0  0  0  0  0  0  0  0  0  0  0  0
    4.0840    0.0090    0.2750 C   0  0  0  0  0  0  0  0  0  0  0  0
    3.9120   -0.8530   -0.4770 O   0  0  0  0  0  0  0  0  0  0  0  0
    2.6860    0.7490    0.9980 N   0  0  0  0  0  0  0  0  0  0  0  0
    1.7610   -0.1800    0.4300 C   0  0  0  0  0  0  0  0  0  0  0  0
    1.8570   -1.2470   -0.0590 O   0  0  0  0  0  0  0  0  0  0  0  0
    0.4180    0.4270    0.5160 N   0  0  0  0  0  0  0  0  0  0  0  0
   -0.7690   -0.0600    0.0680 C   0  0  0  0  0  0  0  0  0  0  0  0
   -0.9200   -1.1720   -0.6420 C   0  0  0  0  0  0  0  0  0  0  0  0
   -2.1670   -1.6450   -1.0690 N   0  0  0  0  0  0  0  0  0  0  0  0
   -3.3070   -0.8660   -0.7130 C   0  0  0  0  0  0  0  0  0  0  0  0
   -4.4710   -1.2520   -1.0920 N   0  0  0  0  0  0  0  0  0  0  0  0
   -5.6500   -0.4870   -0.7530 C   0  0  0  0  0  0  0  0  0  0  0  0
   -5.5790    0.6090   -0.0630 C   0  0  0  0  0  0  0  0  0  0  0  0
   -4.3250    1.1220    0.3990 O   0  0  0  0  0  0  0  0  0  0  0  0
   -3.1910    0.3440    0.0460 C   0  0  0  0  0  0  0  0  0  0  0  0
   -1.9990    0.7290    0.4180 C   0  0  0  0  0  0  0  0  0  0  0  0
  1  2  1  0
  2  3  2  0
  2  4  1  0
  4  5  2  0
  4  6  1  0
  6  7  1  0
  7  8  2  0
  7  9  1  0
  9 10  1  0
 10 11  2  0
 10 19  1  0
 11 12  1  0
 12 13  1  0
 13 14  2  0
 13 18  1  0
 14 15  1  0
 15 16  2  0
 16 17  1  0
 17 18  1  0
 18 19  2  0
M  END
