
     RDKit          3D

 20 21  0  0  0  0  0  0  0  0999 V2000
    6.3110    1.8650   -0.6810 N   0  0  0  0  0  0  0  0  0  0  0  0
    5.1560    1.5630    0.0640 C   0  0  0  0  0  0  0  0  0  0  0  0
    4.8360    1.6290    1.1740 O   0  0  0  0  0  0  0  0  0  0  0  0
    3.9450    0.9390   -1.0050 N   0  0  0  0  0  0  0  0  0  0  0  0
    2.9240    0.6920    0.0320 C   0  0  0  0  0  0  0  0  0  0  0  0
    2.9350    0.8840    1.1740 O   0  0  0  0  0  0  0  0  0  0  0  0
    1.8810    0.1090   -0.8780 N   0  0  0  0  0  0  0  0  0  0  0  0
    0.5870    0.3170    0.2430 C   0  0  0  0  0  0  0  0  0  0  0  0
    0.8860    0.7000    1.2840 O   0  0  0  0  0  0  0  0  0  0  0  0
   -0.6810   -0.0320   -0.3960 C   0  0  2  0  0  0  0  0  0  0  0  0
   -1.7140    0.6040    0.2810 O   0  0  0  0  0  0  0  0  0  0  0  0
   -2.9070    0.0400    0.6000 C   0  0  0  0  0  0  0  0  0  0  0  0
   -3.8830    0.7680    1.1560 C   0  0  0  0  0  0  0  0  0  0  0  0
   -5.1880    0.1640    1.5030 C   0  0  0  0  0  0  0  0  0  0  0  0
   -5.2170   -1.2180    1.2260 O   0  0  0  0  0  0  0  0  0  0  0  0
   -4.2360   -1.9600    0.6350 C   0  0  0  0  0  0  0  0  0  0  0  0
   -3.0780   -1.3800    0.3080 C   0  0  0  0  0  0  0  0  0  0  0  0
   -1.9970   -2.0380   -0.3010 N   0  0  0  0  0  0  0  0  0  0  0  0
   -0.9050   -1.4740   -0.6230 C   0  0  0  0  0  0  0  0  0  0  0  0
    0.1470   -2.2770   -1.2180 N   0  0  0  0  0  0  0  0  0  0  0  0
  1  2  1  0
  2  3  2  0
  2  4  1  0
  4  5  1  0
  5  6  2  0
  5  7  1  0
  7  8  1  0
  8  9  2  0
 10  8  1  1
 10 11  1  0
 10 19  1  0
 11 12  1  0
 12 13  2  0
 12 17  1  0
 13 14  1  0
 14 15  1  0
 15 16  1  0
 16 17  2  0
 17 18  1  0
 18 19  2  0
 19 20  1  0
M  END
