
     RDKit          3D

 20 21  0  0  0  0  0  0  0  0999 V2000
   -5.9070    0.1060    1.0600 N   0  0  0  0  0  0  0  0  0  0  0  0
   -4.8540   -0.4030    0.2470 C   0  0  1  0  0  0  0  0  0  0  0  0
   -3.6080    0.4880    0.2680 C   0  0  0  0  0  0  0  0  0  0  0  0
   -2.5900   -0.4950   -0.3250 C   0  0  1  0  0  0  0  0  0  0  0  0
   -1.2350   -0.0250   -0.1330 N   0  0  0  0  0  0  0  0  0  0  0  0
   -0.3430    0.2420   -1.1920 C   0  0  0  0  0  0  0  0  0  0  0  0
   -0.7170    0.0720   -2.3680 O   0  0  0  0  0  0  0  0  0  0  0  0
    1.0680    0.7300   -0.9890 C   0  0  0  0  0  0  0  0  0  0  0  0
    1.3670    0.8790    0.3290 O   0  0  0  0  0  0  0  0  0  0  0  0
    2.6320    1.3520    0.5270 C   0  0  0  0  0  0  0  0  0  0  0  0
    3.6910    0.4550   -0.0080 C   0  0  1  0  0  0  0  0  0  0  0  0
    5.0280    0.9910    0.2490 N   0  0  0  0  0  0  0  0  0  0  0  0
    5.9080   -0.1220    0.2220 C   0  0  0  0  0  0  0  0  0  0  0  0
    7.1560   -0.1440    0.0140 O   0  0  0  0  0  0  0  0  0  0  0  0
    5.1200   -1.2990    0.4830 N   0  0  0  0  0  0  0  0  0  0  0  0
    3.7600   -0.8620    0.6640 C   0  0  0  0  0  0  0  0  0  0  0  0
    2.8660   -1.5070    1.2740 O   0  0  0  0  0  0  0  0  0  0  0  0
   -2.8980   -1.7190    0.4230 C   0  0  0  0  0  0  0  0  0  0  0  0
   -2.1360   -2.6720    0.7550 O   0  0  0  0  0  0  0  0  0  0  0  0
   -4.3030   -1.6500    0.7360 N   0  0  0  0  0  0  0  0  0  0  0  0
  2  1  1  1
  2  3  1  0
  2 20  1  0
  3  4  1  0
  4  5  1  1
  4 18  1  0
  5  6  1  0
  6  7  2  0
  6  8  1  0
  8  9  1  0
  9 10  1  0
 11 10  1  1
 11 12  1  0
 11 16  1  0
 12 13  1  0
 13 14  2  0
 13 15  1  0
 15 16  1  0
 16 17  2  0
 18 19  2  0
 18 20  1  0
M  END
