
     RDKit          3D

 20 21  0  0  0  0  0  0  0  0999 V2000
   -2.1070    1.7790    1.7560 N   0  0  0  0  0  0  0  0  0  0  0  0
   -2.5580    0.8100    0.8290 C   0  0  0  0  0  0  0  0  0  0  0  0
   -1.7290    0.2000    0.0010 C   0  0  0  0  0  0  0  0  0  0  0  0
   -0.3010    0.5160    0.0200 C   0  0  0  0  0  0  0  0  0  0  0  0
    0.6050   -0.4580   -0.0640 N   0  0  0  0  0  0  0  0  0  0  0  0
    1.9700   -0.2370   -0.0600 C   0  0  0  0  0  0  0  0  0  0  0  0
    2.7780   -1.1300   -0.1380 N   0  0  0  0  0  0  0  0  0  0  0  0
    3.7450   -2.0000   -0.2160 C   0  0  0  0  0  0  0  0  0  0  0  0
    3.5290   -3.2510    0.0750 O   0  0  0  0  0  0  0  0  0  0  0  0
    5.1650   -1.7520   -0.6210 C   0  0  0  0  0  0  0  0  0  0  0  0
    5.3260   -0.4090   -0.9040 O   0  0  0  0  0  0  0  0  0  0  0  0
    2.3980    1.0650    0.0370 N   0  0  0  0  0  0  0  0  0  0  0  0
    1.4780    2.0170    0.1190 C   0  0  0  0  0  0  0  0  0  0  0  0
    1.8750    3.2210    0.2090 O   0  0  0  0  0  0  0  0  0  0  0  0
    0.1610    1.7710    0.1120 N   0  0  0  0  0  0  0  0  0  0  0  0
   -2.2600   -0.7290   -0.8610 O   0  0  0  0  0  0  0  0  0  0  0  0
   -3.5930   -1.0930   -0.9840 C   0  0  0  0  0  0  0  0  0  0  0  0
   -4.4650   -0.3800   -0.0360 C   0  0  0  0  0  0  0  0  0  0  0  0
   -5.8660   -0.6640   -0.0430 O   0  0  0  0  0  0  0  0  0  0  0  0
   -3.9890    0.5010    0.8030 C   0  0  0  0  0  0  0  0  0  0  0  0
  1  2  1  0
  2  3  2  0
  2 20  1  0
  3  4  1  0
  3 16  1  0
  4  5  2  0
  4 15  1  0
  5  6  1  0
  6  7  2  3
  6 12  1  0
  7  8  1  0
  8  9  2  0
  8 10  1  0
 10 11  1  0
 12 13  1  0
 13 14  2  0
 13 15  1  0
 16 17  1  0
 17 18  1  0
 18 19  1  0
 18 20  2  0
M  END
