
     RDKit          3D

 19 20  0  0  0  0  0  0  0  0999 V2000
    2.5110   -1.7690    0.6480 C   0  0  0  0  0  0  0  0  0  0  0  0
    2.7870   -0.3120    0.4220 C   0  0  0  0  0  0  0  0  0  0  0  0
    3.9540    0.2430    0.7950 N   0  0  0  0  0  0  0  0  0  0  0  0
    4.1830    1.5400    0.5850 C   0  0  0  0  0  0  0  0  0  0  0  0
    5.2940    2.0510    0.9450 O   0  0  0  0  0  0  0  0  0  0  0  0
    3.2490    2.3090   -0.0010 N   0  0  0  0  0  0  0  0  0  0  0  0
    2.0780    1.7900   -0.3850 C   0  0  0  0  0  0  0  0  0  0  0  0
    1.2200    2.5540   -0.9370 O   0  0  0  0  0  0  0  0  0  0  0  0
    1.8230    0.4580   -0.1780 C   0  0  0  0  0  0  0  0  0  0  0  0
    0.5980   -0.1360   -0.5670 N   0  0  0  0  0  0  0  0  0  0  0  0
   -0.5380   -0.2090    0.2900 C   0  0  0  0  0  0  0  0  0  0  0  0
   -0.4640    0.2660    1.4300 O   0  0  0  0  0  0  0  0  0  0  0  0
   -1.7530   -0.8670   -0.2730 C   0  0  2  0  0  0  0  0  0  0  0  0
   -2.1530   -0.0970   -1.4640 C   0  0  0  0  0  0  0  0  0  0  0  0
   -1.7130   -0.2550   -2.6200 O   0  0  0  0  0  0  0  0  0  0  0  0
   -3.1250    0.8610   -1.0890 N   0  0  0  0  0  0  0  0  0  0  0  0
   -3.4020    0.7490    0.3320 C   0  0  0  0  0  0  0  0  0  0  0  0
   -2.9460   -0.6830    0.6400 C   0  0  1  0  0  0  0  0  0  0  0  0
   -3.9920   -1.5540    0.1790 N   0  0  0  0  0  0  0  0  0  0  0  0
  1  2  1  0
  2  3  1  0
  2  9  2  0
  3  4  1  0
  4  5  2  0
  4  6  1  0
  6  7  1  0
  7  8  2  0
  7  9  1  0
  9 10  1  0
 10 11  1  0
 11 12  2  0
 13 11  1  1
 13 14  1  0
 13 18  1  0
 14 15  2  0
 14 16  1  0
 16 17  1  0
 17 18  1  0
 18 19  1  6
M  END
