
     RDKit          3D

 28 28  0  0  0  0  0  0  0  0999 V2000
   -1.5360   -2.0130   -2.4300 C   0  0  0  0  0  0  0  0  0  0  0  0
   -1.3220   -0.8000   -3.0270 O   0  0  0  0  0  0  0  0  0  0  0  0
   -0.8190    0.4710   -2.0280 P   0  0  0  0  0  0  0  0  0  0  0  0
    0.7970    0.4640   -1.5210 O   0  0  0  0  0  0  0  0  0  0  0  0
    1.0650    1.0380   -0.3060 C   0  0  0  0  0  0  0  0  0  0  0  0
    2.5370    0.9550   -0.0210 C   0  0  1  0  0  0  0  0  0  0  0  0
    2.8660    1.5330    1.3580 C   0  0  0  0  0  0  0  0  0  0  0  0
    4.2580    1.4730    1.5940 O   0  0  0  0  0  0  0  0  0  0  0  0
    4.8880    1.9080    2.7220 C   0  0  0  0  0  0  0  0  0  0  0  0
    4.2090    2.4110    3.6520 O   0  0  0  0  0  0  0  0  0  0  0  0
    6.2570    1.8270    2.9020 O   0  0  0  0  0  0  0  0  0  0  0  0
    2.9940   -0.4180    0.0160 N   0  0  0  0  0  0  0  0  0  0  0  0
    4.1470   -0.8640   -0.6800 C   0  0  0  0  0  0  0  0  0  0  0  0
    4.8330   -0.0580   -1.3720 O   0  0  0  0  0  0  0  0  0  0  0  0
    4.5940   -2.2110   -0.6420 N   0  0  0  0  0  0  0  0  0  0  0  0
    6.0910   -2.7200   -1.5360 P   0  0  0  0  0  0  0  0  0  0  0  0
    7.1360   -3.4320   -0.3110 O   0  0  0  0  0  0  0  0  0  0  0  0
    6.9190   -1.2640   -2.0660 O   0  0  0  0  0  0  0  0  0  0  0  0
   -1.9660    1.1410   -0.9820 O   0  0  0  0  0  0  0  0  0  0  0  0
   -2.1120    0.4020    0.5530 P   0  0  0  0  0  0  0  0  0  0  0  0
   -1.7000    1.5230    1.8400 O   0  0  0  0  0  0  0  0  0  0  0  0
   -3.6530   -0.2930    0.8520 O   0  0  0  0  0  0  0  0  0  0  0  0
   -4.6970    0.4020    0.1970 C   0  0  2  0  0  0  0  0  0  0  0  0
   -5.6640    0.8520    1.2370 C   0  0  0  0  0  0  0  0  0  0  0  0
   -6.9690    0.9830    0.8090 O   0  0  0  0  0  0  0  0  0  0  0  0
   -7.3840   -0.0480   -0.0110 C   0  0  0  0  0  0  0  0  0  0  0  0
   -6.4330   -0.0530   -1.2050 C   0  0  0  0  0  0  0  0  0  0  0  0
   -5.2040   -0.4710   -0.7300 O   0  0  0  0  0  0  0  0  0  0  0  0
  1  2  1  0
  2  3  1  0
  3  4  1  0
  3 19  1  0
  4  5  1  0
  6  5  1  1
  6  7  1  0
  6 12  1  0
  7  8  1  0
  8  9  1  0
  9 10  2  0
  9 11  1  0
 12 13  1  0
 13 14  2  0
 13 15  1  0
 15 16  1  0
 16 17  1  0
 16 18  1  0
 19 20  1  0
 20 21  1  0
 20 22  1  0
 23 22  1  1
 23 24  1  0
 23 28  1  0
 24 25  1  0
 25 26  1  0
 26 27  1  0
 27 28  1  0
M  END
