
     RDKit          3D

 29 30  0  0  0  0  0  0  0  0999 V2000
   -1.6330   -3.7770    1.7030 O   0  0  0  0  0  0  0  0  0  0  0  0
   -0.8270   -3.9360    0.3630 P   0  0  0  0  0  0  0  0  0  0  0  0
   -1.4440   -3.0720   -1.0100 O   0  0  0  0  0  0  0  0  0  0  0  0
   -0.6560   -1.5190   -1.1560 P   0  0  0  0  0  0  0  0  0  0  0  0
   -1.3380   -0.7280   -2.5220 O   0  0  0  0  0  0  0  0  0  0  0  0
   -0.9010   -0.6890    0.3190 O   0  0  0  0  0  0  0  0  0  0  0  0
   -0.9190    0.6800    0.2080 C   0  0  2  0  0  0  0  0  0  0  0  0
    0.1930    1.2110    1.1240 C   0  0  1  0  0  0  0  0  0  0  0  0
    1.5010    1.1270    0.4660 C   0  0  0  0  0  0  0  0  0  0  0  0
    2.1480    2.1960    0.2670 O   0  0  0  0  0  0  0  0  0  0  0  0
    2.0800   -0.0820    0.0400 O   0  0  0  0  0  0  0  0  0  0  0  0
    3.3050   -0.1130   -0.5880 C   0  0  0  0  0  0  0  0  0  0  0  0
    3.8550    1.0310   -0.7570 O   0  0  0  0  0  0  0  0  0  0  0  0
    3.9620   -1.3520   -1.0450 C   0  0  0  0  0  0  0  0  0  0  0  0
    5.3230   -1.7600    0.1640 P   0  0  0  0  0  0  0  0  0  0  0  0
    6.6410   -2.4120   -0.7640 O   0  0  0  0  0  0  0  0  0  0  0  0
    5.8380   -0.2680    0.9350 O   0  0  0  0  0  0  0  0  0  0  0  0
    6.9500    0.0980    0.3580 O   0  0  0  0  0  0  0  0  0  0  0  0
   -0.0810    2.5950    1.4730 N   0  0  0  0  0  0  0  0  0  0  0  0
   -1.2370    3.2910    1.0700 C   0  0  0  0  0  0  0  0  0  0  0  0
   -1.2160    4.5480    1.0010 O   0  0  0  0  0  0  0  0  0  0  0  0
   -2.3660    2.5550    0.7630 O   0  0  0  0  0  0  0  0  0  0  0  0
   -2.2530    1.1480    0.7910 C   0  0  1  0  0  0  0  0  0  0  0  0
   -3.3980    0.5680    0.0220 C   0  0  2  0  0  0  0  0  0  0  0  0
   -4.6660    0.8770    0.7660 C   0  0  0  0  0  0  0  0  0  0  0  0
   -5.3270   -0.3820    0.9820 N   0  0  0  0  0  0  0  0  0  0  0  0
   -4.6080   -1.3820    0.2590 C   0  0  0  0  0  0  0  0  0  0  0  0
   -5.0040   -2.5380   -0.0710 O   0  0  0  0  0  0  0  0  0  0  0  0
   -3.3830   -0.8400   -0.0150 O   0  0  0  0  0  0  0  0  0  0  0  0
  1  2  2  0
  2  3  1  0
  3  4  1  0
  4  5  1  0
  4  6  1  0
  7  6  1  1
  7  8  1  0
  7 23  1  0
  8  9  1  6
  8 19  1  0
  9 10  2  0
  9 11  1  0
 11 12  1  0
 12 13  2  0
 12 14  1  0
 14 15  1  0
 15 16  1  0
 15 17  1  0
 17 18  1  0
 19 20  1  0
 20 21  2  0
 20 22  1  0
 23 22  1  6
 23 24  1  0
 24 25  1  1
 24 29  1  0
 25 26  1  0
 26 27  1  0
 27 28  2  0
 27 29  1  0
M  END
