
     RDKit          3D

 28 28  0  0  0  0  0  0  0  0999 V2000
    7.4220   -1.8340   -0.2230 O   0  0  0  0  0  0  0  0  0  0  0  0
    6.9950   -0.3610   -0.2640 P   0  0  0  0  0  0  0  0  0  0  0  0
    5.1750    0.0790   -0.2280 C   0  0  2  0  0  0  0  0  0  0  0  0
    5.0430    1.3630   -0.7420 O   0  0  0  0  0  0  0  0  0  0  0  0
    4.7340    0.0090    1.2230 C   0  0  0  0  0  0  0  0  0  0  0  0
    3.3770    0.3830    1.3740 O   0  0  0  0  0  0  0  0  0  0  0  0
    2.3180   -0.2660    0.7640 C   0  0  0  0  0  0  0  0  0  0  0  0
    2.5880   -1.2470    0.0330 O   0  0  0  0  0  0  0  0  0  0  0  0
    1.0060    0.2200    1.0060 N   0  0  0  0  0  0  0  0  0  0  0  0
    0.6160    1.3230    1.8170 C   0  0  0  0  0  0  0  0  0  0  0  0
    1.2940    1.8320    2.7580 O   0  0  0  0  0  0  0  0  0  0  0  0
   -0.7480    1.7510    1.3310 C   0  0  0  0  0  0  0  0  0  0  0  0
   -0.9050    0.9520    0.1290 N   0  0  0  0  0  0  0  0  0  0  0  0
   -2.2490    0.8670   -0.3320 C   0  0  0  0  0  0  0  0  0  0  0  0
   -2.7730    2.1880   -0.8540 C   0  0  0  0  0  0  0  0  0  0  0  0
   -2.7380    3.1730    0.1730 O   0  0  0  0  0  0  0  0  0  0  0  0
   -3.1600    4.4730   -0.0360 C   0  0  0  0  0  0  0  0  0  0  0  0
   -3.5870    4.8090   -1.1520 O   0  0  0  0  0  0  0  0  0  0  0  0
   -3.1270    5.4360    0.9670 O   0  0  0  0  0  0  0  0  0  0  0  0
   -0.2780   -0.2740    0.4930 C   0  0  2  0  0  0  0  0  0  0  0  0
   -0.9470   -0.8260    1.5780 O   0  0  0  0  0  0  0  0  0  0  0  0
   -0.1010   -1.5090   -0.8170 P   0  0  0  0  0  0  0  0  0  0  0  0
    0.9260   -1.0650   -2.1040 O   0  0  0  0  0  0  0  0  0  0  0  0
   -1.6340   -2.0940   -1.3010 O   0  0  0  0  0  0  0  0  0  0  0  0
   -2.3150   -3.0990   -0.0830 P   0  0  0  0  0  0  0  0  0  0  0  0
   -3.9130   -2.5620    0.3750 O   0  0  0  0  0  0  0  0  0  0  0  0
   -2.2910   -4.8880   -0.4950 C   0  0  0  0  0  0  0  0  0  0  0  0
   -1.6780   -5.1840   -1.6900 O   0  0  0  0  0  0  0  0  0  0  0  0
  1  2  2  0
  2  3  1  0
  3  4  1  1
  3  5  1  0
  5  6  1  0
  6  7  1  0
  7  8  2  0
  7  9  1  0
  9 10  1  0
  9 20  1  0
 10 11  2  0
 10 12  1  0
 12 13  1  0
 13 14  1  0
 13 20  1  0
 14 15  1  0
 15 16  1  0
 16 17  1  0
 17 18  2  0
 17 19  1  0
 20 21  1  1
 20 22  1  0
 22 23  1  0
 22 24  1  0
 24 25  1  0
 25 26  1  0
 25 27  1  0
 27 28  1  0
M  END
