
     RDKit          3D

 29 30  0  0  0  0  0  0  0  0999 V2000
    4.7590    3.2150    0.3670 C   0  0  0  0  0  0  0  0  0  0  0  0
    4.8350    1.7380    0.1160 C   0  0  0  0  0  0  0  0  0  0  0  0
    3.6980    1.0480   -0.1680 C   0  0  0  0  0  0  0  0  0  0  0  0
    3.7410   -0.2440   -0.5670 N   0  0  0  0  0  0  0  0  0  0  0  0
    2.5440   -0.8670   -1.0440 C   0  0  1  0  0  0  0  0  0  0  0  0
    2.2390   -2.1440   -0.4180 C   0  0  0  0  0  0  0  0  0  0  0  0
    0.8660   -1.9660    0.1570 C   0  0  2  0  0  0  0  0  0  0  0  0
    0.0850   -3.0320   -0.2530 O   0  0  0  0  0  0  0  0  0  0  0  0
    0.4320   -0.6280   -0.4890 C   0  0  1  0  0  0  0  0  0  0  0  0
   -0.4490    0.0620    0.5740 C   0  0  0  0  0  0  0  0  0  0  0  0
   -1.7320    0.0500   -0.0060 O   0  0  0  0  0  0  0  0  0  0  0  0
   -2.8610   -0.5530    1.0560 P   0  0  2  0  0  0  0  0  0  0  0  0
   -3.6050    0.3060    1.9270 O   0  0  0  0  0  0  0  0  0  0  0  0
   -2.1190   -1.8220    1.9630 O   0  0  0  0  0  0  0  0  0  0  0  0
   -3.9780   -1.3500   -0.0460 O   0  0  0  0  0  0  0  0  0  0  0  0
   -4.8250   -0.0270   -0.7130 P   0  0  1  0  0  0  0  0  0  0  0  0
   -4.1870    0.5390   -1.9280 O   0  0  0  0  0  0  0  0  0  0  0  0
   -6.3910   -0.5850   -1.0440 O   0  0  0  0  0  0  0  0  0  0  0  0
   -4.8740    1.2010    0.4570 O   0  0  0  0  0  0  0  0  0  0  0  0
   -6.4430    1.7660    0.6000 P   0  0  2  0  0  0  0  0  0  0  0  0
   -6.3570    3.1940    1.1060 O   0  0  0  0  0  0  0  0  0  0  0  0
   -7.3410    0.8490    1.7000 O   0  0  0  0  0  0  0  0  0  0  0  0
   -7.1860    1.8220   -0.9250 O   0  0  0  0  0  0  0  0  0  0  0  0
    1.4840    0.0300   -0.8870 O   0  0  0  0  0  0  0  0  0  0  0  0
    4.9150   -0.8690   -0.6740 C   0  0  0  0  0  0  0  0  0  0  0  0
    4.9870   -2.0590   -1.0290 O   0  0  0  0  0  0  0  0  0  0  0  0
    6.0730   -0.2160   -0.3910 N   0  0  0  0  0  0  0  0  0  0  0  0
    6.0240    1.0700   -0.0010 C   0  0  0  0  0  0  0  0  0  0  0  0
    7.1000    1.7000    0.2720 O   0  0  0  0  0  0  0  0  0  0  0  0
  1  2  1  0
  2  3  2  0
  2 28  1  0
  3  4  1  0
  5  4  1  1
  4 25  1  0
  5  6  1  0
  5 24  1  0
  6  7  1  0
  7  8  1  6
  7  9  1  0
  9 10  1  1
  9 24  1  0
 10 11  1  0
 11 12  1  0
 12 13  2  0
 12 14  1  1
 12 15  1  0
 15 16  1  0
 16 17  2  0
 16 18  1  6
 16 19  1  0
 19 20  1  0
 20 21  2  0
 20 22  1  1
 20 23  1  0
 25 26  2  0
 25 27  1  0
 27 28  1  0
 28 29  2  0
M  END
