
     RDKit          3D

 29 30  0  0  0  0  0  0  0  0999 V2000
    6.5820   -1.2570   -0.4530 O   0  0  0  0  0  0  0  0  0  0  0  0
    5.9790   -0.7410   -1.7860 P   0  0  0  0  0  0  0  0  0  0  0  0
    4.7080    0.4640   -1.7840 O   0  0  0  0  0  0  0  0  0  0  0  0
    4.3430    0.9470   -0.1570 P   0  0  0  0  0  0  0  0  0  0  0  0
    3.0540    0.0020    0.5130 O   0  0  0  0  0  0  0  0  0  0  0  0
    1.8230    0.5850    0.3380 C   0  0  0  0  0  0  0  0  0  0  0  0
    0.7740   -0.2910    0.9410 C   0  0  1  0  0  0  0  0  0  0  0  0
   -0.5720    0.3550    0.9410 C   0  0  0  0  0  0  0  0  0  0  0  0
   -0.5950    1.5380    1.4140 O   0  0  0  0  0  0  0  0  0  0  0  0
   -1.7540   -0.2290    0.4760 N   0  0  0  0  0  0  0  0  0  0  0  0
   -2.9580    0.5380    0.5460 C   0  0  0  0  0  0  0  0  0  0  0  0
   -2.9920    1.7080    1.0060 O   0  0  0  0  0  0  0  0  0  0  0  0
   -4.1630    0.0100    0.0990 O   0  0  0  0  0  0  0  0  0  0  0  0
   -5.3740    0.6940    0.1350 C   0  0  2  0  0  0  0  0  0  0  0  0
   -6.4220    0.0350    1.0030 C   0  0  0  0  0  0  0  0  0  0  0  0
   -7.6070    0.4920    0.4300 O   0  0  0  0  0  0  0  0  0  0  0  0
   -7.4080    0.5720   -0.8910 O   0  0  0  0  0  0  0  0  0  0  0  0
   -6.0660    0.7740   -1.1620 C   0  0  0  0  0  0  0  0  0  0  0  0
   -5.5820    0.9790   -2.2870 O   0  0  0  0  0  0  0  0  0  0  0  0
    0.7850   -1.5780    0.3070 N   0  0  0  0  0  0  0  0  0  0  0  0
    0.5600   -1.9410   -1.0760 C   0  0  0  0  0  0  0  0  0  0  0  0
    0.0260   -3.3500   -0.9620 C   0  0  0  0  0  0  0  0  0  0  0  0
    0.7950   -3.8810    0.1180 O   0  0  0  0  0  0  0  0  0  0  0  0
    1.0510   -2.8120    0.9650 C   0  0  0  0  0  0  0  0  0  0  0  0
    1.4650   -2.9760    2.1520 O   0  0  0  0  0  0  0  0  0  0  0  0
    3.9950    2.6440   -0.0740 O   0  0  0  0  0  0  0  0  0  0  0  0
    5.4160    3.5870   -0.2940 P   0  0  0  0  0  0  0  0  0  0  0  0
    5.6330    4.0270   -1.9580 O   0  0  0  0  0  0  0  0  0  0  0  0
    6.8280    2.8270    0.3130 O   0  0  0  0  0  0  0  0  0  0  0  0
  1  2  2  0
  2  3  1  0
  3  4  1  0
  4  5  1  0
  4 26  1  0
  5  6  1  0
  7  6  1  6
  7  8  1  0
  7 20  1  0
  8  9  2  0
  8 10  1  0
 10 11  1  0
 11 12  2  0
 11 13  1  0
 14 13  1  6
 14 15  1  0
 14 18  1  0
 15 16  1  0
 16 17  1  0
 17 18  1  0
 18 19  2  0
 20 21  1  0
 20 24  1  0
 21 22  1  0
 22 23  1  0
 23 24  1  0
 24 25  2  0
 26 27  1  0
 27 28  1  0
 27 29  1  0
M  END
