
     RDKit          3D

 20 19  0  0  0  0  0  0  0  0999 V2000
    5.2640   -1.8570   -1.9150 C   0  0  0  0  0  0  0  0  0  0  0  0
    4.5810   -1.1710   -0.9250 O   0  0  0  0  0  0  0  0  0  0  0  0
    3.3330   -0.7370   -1.3360 C   0  0  0  0  0  0  0  0  0  0  0  0
    2.6770   -0.0020   -0.1750 C   0  0  2  0  0  0  0  0  0  0  0  0
    1.3780    0.4430   -0.5700 O   0  0  0  0  0  0  0  0  0  0  0  0
    0.2520   -0.0070    0.1070 C   0  0  0  0  0  0  0  0  0  0  0  0
    0.4520   -0.8030    1.0580 O   0  0  0  0  0  0  0  0  0  0  0  0
   -1.1320    0.4050   -0.2370 C   0  0  0  0  0  0  0  0  0  0  0  0
   -2.0010   -0.2010    0.6020 O   0  0  0  0  0  0  0  0  0  0  0  0
   -3.3470    0.0640    0.4410 C   0  0  1  0  0  0  0  0  0  0  0  0
   -3.7090   -0.3730   -0.9630 C   0  0  0  0  0  0  0  0  0  0  0  0
   -4.0560   -0.8830    1.3990 C   0  0  0  0  0  0  0  0  0  0  0  0
   -5.4680   -0.7850    1.4150 N   0  0  0  0  0  0  0  0  0  0  0  0
   -3.7310    1.4580    0.6330 C   0  0  0  0  0  0  0  0  0  0  0  0
   -2.9720    2.3790    0.9210 O   0  0  0  0  0  0  0  0  0  0  0  0
   -5.4560    1.9030    0.4380 S   0  0  0  0  0  0  0  0  0  0  0  0
    3.4900    1.2100    0.0930 C   0  0  0  0  0  0  0  0  0  0  0  0
    2.9620    2.3380   -0.1470 O   0  0  0  0  0  0  0  0  0  0  0  0
    4.8070    1.1100    0.5990 N   0  0  0  0  0  0  0  0  0  0  0  0
    5.5210    2.3030    0.8260 N   0  0  0  0  0  0  0  0  0  0  0  0
  1  2  1  0
  2  3  1  0
  4  3  1  6
  4  5  1  0
  4 17  1  0
  5  6  1  0
  6  7  2  0
  6  8  1  0
  8  9  1  0
  9 10  1  0
 10 11  1  6
 10 12  1  0
 10 14  1  0
 12 13  1  0
 14 15  2  0
 14 16  1  0
 17 18  2  0
 17 19  1  0
 19 20  1  0
M  CHG  1  13   1
M  END
