
     RDKit          3D

 20 19  0  0  0  0  0  0  0  0999 V2000
   -4.4600    0.3960   -0.5020 C   0  0  0  0  0  0  0  0  0  0  0  0
   -3.1940    0.5990   -1.2830 C   0  0  1  0  0  0  0  0  0  0  0  0
   -3.2830    1.9240   -1.9200 N   0  0  0  0  0  0  0  0  0  0  0  0
   -1.9410    0.5830   -0.5020 C   0  0  0  0  0  0  0  0  0  0  0  0
   -1.5850   -0.6490    0.2410 C   0  0  1  0  0  0  0  0  0  0  0  0
   -0.3350   -0.4030    0.8880 O   0  0  0  0  0  0  0  0  0  0  0  0
    0.5720   -1.2630    0.3290 C   0  0  0  0  0  0  0  0  0  0  0  0
    1.9340   -1.1400    0.8890 C   0  0  0  0  0  0  0  0  0  0  0  0
    2.2590   -0.3440    1.7840 O   0  0  0  0  0  0  0  0  0  0  0  0
    2.9100   -1.9800    0.3720 O   0  0  0  0  0  0  0  0  0  0  0  0
    4.2370   -1.9680    0.8010 C   0  0  0  0  0  0  0  0  0  0  0  0
    4.9720   -0.7200    0.5600 C   0  0  0  0  0  0  0  0  0  0  0  0
    6.1350   -0.5770    1.0030 O   0  0  0  0  0  0  0  0  0  0  0  0
    4.3630    0.3240   -0.1770 N   0  0  0  0  0  0  0  0  0  0  0  0
    5.0860    1.5430   -0.3940 C   0  0  0  0  0  0  0  0  0  0  0  0
    6.2530    1.6410    0.0860 O   0  0  0  0  0  0  0  0  0  0  0  0
    4.5190    2.5750   -1.1070 O   0  0  0  0  0  0  0  0  0  0  0  0
   -2.5580   -1.1530    1.2210 C   0  0  0  0  0  0  0  0  0  0  0  0
   -2.9770   -0.3170    2.2810 N   0  0  0  0  0  0  0  0  0  0  0  0
   -3.1820   -2.6760    1.1740 S   0  0  0  0  0  0  0  0  0  0  0  0
  2  1  1  1
  2  3  1  0
  2  4  1  0
  5  4  1  1
  5  6  1  0
  5 18  1  0
  6  7  1  0
  7  8  1  0
  8  9  2  0
  8 10  1  0
 10 11  1  0
 11 12  1  0
 12 13  2  0
 12 14  1  0
 14 15  1  0
 15 16  2  0
 15 17  1  0
 18 19  1  0
 18 20  2  0
M  CHG  1   3   1
M  END
