
     RDKit          3D

 26 28  0  0  0  0  0  0  0  0999 V2000
   -4.7620    0.6270    1.8300 C   0  0  0  0  0  0  0  0  0  0  0  0
   -4.2870    0.4120    0.6330 C   0  0  0  0  0  0  0  0  0  0  0  0
   -3.2180    1.3420    0.1880 C   0  0  0  0  0  0  0  0  0  0  0  0
   -2.2300    1.0260   -0.7110 C   0  0  0  0  0  0  0  0  0  0  0  0
   -1.2800    2.0470   -1.0390 C   0  0  0  0  0  0  0  0  0  0  0  0
   -0.3400    1.9310   -1.9190 C   0  0  0  0  0  0  0  0  0  0  0  0
    0.7890    3.2760   -2.2320 Cl  0  0  0  0  0  0  0  0  0  0  0  0
   -2.0020   -0.2860   -1.2790 C   0  0  0  0  0  0  0  0  0  0  0  0
   -0.8310   -0.8270   -1.1060 C   0  0  0  0  0  0  0  0  0  0  0  0
    0.3440   -0.3830   -0.4240 C   0  0  0  0  0  0  0  0  0  0  0  0
    1.6150   -0.5760   -0.9300 C   0  0  0  0  0  0  0  0  0  0  0  0
    2.7480   -0.1680   -0.2560 C   0  0  0  0  0  0  0  0  0  0  0  0
    4.0170   -0.3600   -0.7610 C   0  0  0  0  0  0  0  0  0  0  0  0
    5.1310    0.0570   -0.0660 C   0  0  0  0  0  0  0  0  0  0  0  0
    6.4230   -0.1330   -0.5680 O   0  0  0  0  0  0  0  0  0  0  0  0
    7.5550    0.3010    0.1580 C   0  0  0  0  0  0  0  0  0  0  0  0
    4.9880    0.6800    1.1580 C   0  0  0  0  0  0  0  0  0  0  0  0
    3.7280    0.8750    1.6670 C   0  0  0  0  0  0  0  0  0  0  0  0
    2.6230    0.4530    0.9630 C   0  0  0  0  0  0  0  0  0  0  0  0
    1.3340    0.6400    1.4580 C   0  0  0  0  0  0  0  0  0  0  0  0
    1.1990    1.2090    2.5770 O   0  0  0  0  0  0  0  0  0  0  0  0
    0.2470    0.2260    0.7680 N   0  0  0  0  0  0  0  0  0  0  0  0
   -3.0720   -1.1340   -1.8940 C   0  0  0  0  0  0  0  0  0  0  0  0
   -3.8330   -1.6030   -0.7110 N   0  0  0  0  0  0  0  0  0  0  0  0
   -4.3270   -2.9120   -0.9940 C   0  0  0  0  0  0  0  0  0  0  0  0
   -4.8060   -0.6950   -0.2250 C   0  0  0  0  0  0  0  0  0  0  0  0
  1  2  2  0
  2  3  1  0
  2 26  1  0
  3  4  2  0
  4  5  1  0
  4  8  1  0
  5  6  2  3
  6  7  1  0
  8  9  2  3
  8 23  1  0
  9 10  1  0
 10 11  2  0
 10 22  1  0
 11 12  1  0
 12 13  2  0
 12 19  1  0
 13 14  1  0
 14 15  1  0
 14 17  2  0
 15 16  1  0
 17 18  1  0
 18 19  2  0
 19 20  1  0
 20 21  2  0
 20 22  1  0
 23 24  1  0
 24 25  1  0
 24 26  1  0
M  END
