
     RDKit          3D

 23 23  0  0  0  0  0  0  0  0999 V2000
    5.8110    2.3550    1.0280 C   0  0  0  0  0  0  0  0  0  0  0  0
    5.9130    1.6000   -0.2180 C   0  0  0  0  0  0  0  0  0  0  0  0
    4.9590    0.8640   -0.7730 C   0  0  0  0  0  0  0  0  0  0  0  0
    3.6570    0.7060   -0.2040 C   0  0  0  0  0  0  0  0  0  0  0  0
    3.4300    1.4010    1.0160 O   0  0  0  0  0  0  0  0  0  0  0  0
    2.6470    0.0050   -0.6630 C   0  0  0  0  0  0  0  0  0  0  0  0
    2.6460   -0.7720   -1.8720 C   0  0  0  0  0  0  0  0  0  0  0  0
    1.4800   -1.5110   -2.2920 N   0  0  0  0  0  0  0  0  0  0  0  0
    3.6490   -0.8390   -2.6050 O   0  0  0  0  0  0  0  0  0  0  0  0
    1.3900   -0.0170    0.1080 C   0  0  0  0  0  0  0  0  0  0  0  0
    1.3590    0.6420    1.1740 O   0  0  0  0  0  0  0  0  0  0  0  0
    0.2730   -0.7330   -0.3100 O   0  0  0  0  0  0  0  0  0  0  0  0
   -0.8640   -0.6700    0.5190 C   0  0  1  0  0  0  0  0  0  0  0  0
   -0.4930   -1.2130    1.8780 C   0  0  0  0  0  0  0  0  0  0  0  0
   -1.2200    0.7990    0.6650 C   0  0  0  0  0  0  0  0  0  0  0  0
   -2.6520    0.9510    0.1960 C   0  0  2  0  0  0  0  0  0  0  0  0
   -3.4250    1.8630    1.1150 C   0  0  0  0  0  0  0  0  0  0  0  0
   -3.1780   -0.4570    0.3900 C   0  0  1  0  0  0  0  0  0  0  0  0
   -4.4720   -0.6640   -0.3000 C   0  0  0  0  0  0  0  0  0  0  0  0
   -4.8930   -1.9820   -0.0740 O   0  0  0  0  0  0  0  0  0  0  0  0
   -2.0590   -1.3570   -0.0530 C   0  0  1  0  0  0  0  0  0  0  0  0
   -1.9860   -1.5460   -1.5430 C   0  0  0  0  0  0  0  0  0  0  0  0
   -3.1240   -2.1870   -2.0070 O   0  0  0  0  0  0  0  0  0  0  0  0
  1  2  1  0
  2  3  2  3
  3  4  1  0
  4  5  1  0
  4  6  2  3
  6  7  1  0
  6 10  1  0
  7  8  1  0
  7  9  2  0
 10 11  2  0
 10 12  1  0
 12 13  1  0
 13 14  1  1
 13 15  1  0
 13 21  1  0
 15 16  1  0
 16 17  1  1
 16 18  1  0
 18 19  1  6
 18 21  1  0
 19 20  1  0
 21 22  1  6
 22 23  1  0
M  END
