
     RDKit          3D

 26 29  0  0  0  0  0  0  0  0999 V2000
    6.0170    1.9690    2.0020 C   0  0  0  0  0  0  0  0  0  0  0  0
    5.4910    0.6770    1.5740 C   0  0  0  0  0  0  0  0  0  0  0  0
    4.4450    0.4700    0.7830 C   0  0  0  0  0  0  0  0  0  0  0  0
    3.7320    1.6310    0.2790 C   0  0  0  0  0  0  0  0  0  0  0  0
    2.5330    1.4180   -0.2530 C   0  0  0  0  0  0  0  0  0  0  0  0
    1.6670    2.3630   -0.7970 O   0  0  0  0  0  0  0  0  0  0  0  0
    0.5690    1.6800   -1.2130 C   0  0  0  0  0  0  0  0  0  0  0  0
   -0.4330    2.2060   -1.7580 O   0  0  0  0  0  0  0  0  0  0  0  0
    0.7300    0.2640   -0.9330 C   0  0  0  0  0  0  0  0  0  0  0  0
   -0.2720   -0.7560   -1.2910 C   0  0  0  0  0  0  0  0  0  0  0  0
    0.0460   -1.8950   -1.9960 C   0  0  0  0  0  0  0  0  0  0  0  0
   -0.9150   -2.8580   -2.2930 C   0  0  0  0  0  0  0  0  0  0  0  0
   -2.2170   -2.7020   -1.8920 C   0  0  0  0  0  0  0  0  0  0  0  0
   -3.4190   -3.9130   -2.2680 Cl  0  0  0  0  0  0  0  0  0  0  0  0
   -2.5250   -1.5310   -1.1730 C   0  0  0  0  0  0  0  0  0  0  0  0
   -3.8490   -1.3850   -0.7530 N   0  0  0  0  0  0  0  0  0  0  0  0
   -4.4310   -0.3340   -0.0380 C   0  0  0  0  0  0  0  0  0  0  0  0
   -3.7950    0.8470    0.2320 C   0  0  0  0  0  0  0  0  0  0  0  0
   -4.4030    1.8520    0.9470 C   0  0  0  0  0  0  0  0  0  0  0  0
   -5.6770    1.7230    1.4280 C   0  0  0  0  0  0  0  0  0  0  0  0
   -6.3480    0.5580    1.1820 C   0  0  0  0  0  0  0  0  0  0  0  0
   -5.7390   -0.4390    0.4690 C   0  0  0  0  0  0  0  0  0  0  0  0
   -1.5580   -0.6410   -0.9170 N   0  0  0  0  0  0  0  0  0  0  0  0
    1.9160    0.1120   -0.3530 C   0  0  0  0  0  0  0  0  0  0  0  0
    2.5770   -1.0920    0.1610 C   0  0  0  0  0  0  0  0  0  0  0  0
    4.0300   -0.9010    0.4240 C   0  0  0  0  0  0  0  0  0  0  0  0
  1  2  1  0
  2  3  2  3
  3  4  1  0
  3 26  1  0
  4  5  2  0
  5  6  1  0
  5 24  1  0
  6  7  1  0
  7  8  2  0
  7  9  1  0
  9 10  1  0
  9 24  2  0
 10 11  2  0
 10 23  1  0
 11 12  1  0
 12 13  2  0
 13 14  1  0
 13 15  1  0
 15 16  1  0
 15 23  2  0
 16 17  1  0
 17 18  2  0
 17 22  1  0
 18 19  1  0
 19 20  2  0
 20 21  1  0
 21 22  2  0
 24 25  1  0
 25 26  1  0
M  END
