
     RDKit          3D

 26 29  0  0  0  0  0  0  0  0999 V2000
   -3.0580   -2.7440   -0.2740 C   0  0  0  0  0  0  0  0  0  0  0  0
   -3.9080   -2.0140    0.6830 C   0  0  0  0  0  0  0  0  0  0  0  0
   -5.2970   -2.8370    1.3570 Cl  0  0  0  0  0  0  0  0  0  0  0  0
   -3.6530   -0.7840    1.0340 C   0  0  0  0  0  0  0  0  0  0  0  0
   -2.5310    0.0210    0.5490 C   0  0  0  0  0  0  0  0  0  0  0  0
   -1.2510   -0.4840    0.5490 C   0  0  0  0  0  0  0  0  0  0  0  0
   -0.1320    0.2560    0.1280 C   0  0  0  0  0  0  0  0  0  0  0  0
    1.1910   -0.3120    0.2130 C   0  0  0  0  0  0  0  0  0  0  0  0
    1.2600   -1.3920    0.9160 O   0  0  0  0  0  0  0  0  0  0  0  0
    2.3710    0.1600   -0.3630 N   0  0  0  0  0  0  0  0  0  0  0  0
    2.5470    1.2690   -1.2580 C   0  0  0  0  0  0  0  0  0  0  0  0
    3.7900    0.8430   -2.0520 C   0  0  0  0  0  0  0  0  0  0  0  0
    4.5270    0.0230   -1.0520 C   0  0  0  0  0  0  0  0  0  0  0  0
    3.7060   -0.3430   -0.1220 C   0  0  0  0  0  0  0  0  0  0  0  0
    4.4250   -1.1470    0.8790 C   0  0  0  0  0  0  0  0  0  0  0  0
    3.8840   -1.7550    2.1110 C   0  0  0  0  0  0  0  0  0  0  0  0
    5.6910   -1.2540    0.5220 C   0  0  0  0  0  0  0  0  0  0  0  0
    5.8780   -0.5280   -0.7330 C   0  0  0  0  0  0  0  0  0  0  0  0
   -0.4040    1.5350   -0.2870 C   0  0  0  0  0  0  0  0  0  0  0  0
   -1.6410    2.0230   -0.2890 N   0  0  0  0  0  0  0  0  0  0  0  0
   -2.7480    1.3040    0.1190 C   0  0  0  0  0  0  0  0  0  0  0  0
   -4.0470    1.9260   -0.0240 C   0  0  0  0  0  0  0  0  0  0  0  0
   -5.2710    1.3490    0.0070 C   0  0  0  0  0  0  0  0  0  0  0  0
   -6.2130    2.3720   -0.1860 C   0  0  0  0  0  0  0  0  0  0  0  0
   -5.4820    3.5130   -0.3240 C   0  0  0  0  0  0  0  0  0  0  0  0
   -4.2160    3.2200   -0.2250 O   0  0  0  0  0  0  0  0  0  0  0  0
  1  2  1  0
  2  3  1  0
  2  4  2  3
  4  5  1  0
  5  6  2  0
  5 21  1  0
  6  7  1  0
  7  8  1  0
  7 19  2  0
  8  9  2  0
  8 10  1  0
 10 11  1  0
 10 14  1  0
 11 12  1  0
 12 13  1  0
 13 14  2  0
 13 18  1  0
 14 15  1  0
 15 16  1  0
 15 17  2  0
 17 18  1  0
 19 20  1  0
 20 21  2  0
 21 22  1  0
 22 23  2  0
 22 26  1  0
 23 24  1  0
 24 25  2  0
 25 26  1  0
M  END
