
     RDKit          3D

 26 29  0  0  0  0  0  0  0  0999 V2000
    5.3130    0.1160   -1.3270 C   0  0  0  0  0  0  0  0  0  0  0  0
    4.1650    0.8690   -1.2830 O   0  0  0  0  0  0  0  0  0  0  0  0
    3.8580    1.3750   -0.0290 C   0  0  0  0  0  0  0  0  0  0  0  0
    3.6620    0.2830    0.9830 C   0  0  0  0  0  0  0  0  0  0  0  0
    2.5650   -0.6300    0.6110 N   0  0  0  0  0  0  0  0  0  0  0  0
    1.2670   -0.0980    0.4990 C   0  0  0  0  0  0  0  0  0  0  0  0
    1.0110    1.2080    0.8360 N   0  0  0  0  0  0  0  0  0  0  0  0
   -0.2190    1.7490    0.8050 C   0  0  0  0  0  0  0  0  0  0  0  0
   -0.4680    3.0330    1.2450 C   0  0  0  0  0  0  0  0  0  0  0  0
   -1.7410    3.5510    1.3100 C   0  0  0  0  0  0  0  0  0  0  0  0
   -1.9900    5.2050    1.8710 Cl  0  0  0  0  0  0  0  0  0  0  0  0
   -2.8070    2.7640    0.9290 C   0  0  0  0  0  0  0  0  0  0  0  0
   -2.6250    1.4660    0.4740 C   0  0  0  0  0  0  0  0  0  0  0  0
   -1.3490    1.0010    0.4130 C   0  0  0  0  0  0  0  0  0  0  0  0
   -1.0910   -0.2770    0.0660 C   0  0  0  0  0  0  0  0  0  0  0  0
    0.2040   -0.8620    0.1090 C   0  0  0  0  0  0  0  0  0  0  0  0
    0.4840   -2.1910   -0.0960 C   0  0  0  0  0  0  0  0  0  0  0  0
    1.6170   -2.4120   -0.5240 O   0  0  0  0  0  0  0  0  0  0  0  0
   -0.4330   -3.2360    0.1570 C   0  0  0  0  0  0  0  0  0  0  0  0
   -1.8210   -3.2090    0.1260 C   0  0  0  0  0  0  0  0  0  0  0  0
   -2.5450   -2.1800   -0.4530 C   0  0  0  0  0  0  0  0  0  0  0  0
   -3.6570   -2.6050   -1.1370 C   0  0  0  0  0  0  0  0  0  0  0  0
   -4.3690   -1.7160   -1.9090 C   0  0  0  0  0  0  0  0  0  0  0  0
   -3.9680   -0.3770   -2.0050 C   0  0  0  0  0  0  0  0  0  0  0  0
   -2.8410    0.1020   -1.3230 C   0  0  0  0  0  0  0  0  0  0  0  0
   -2.1900   -0.8340   -0.5740 C   0  0  0  0  0  0  0  0  0  0  0  0
  1  2  1  0
  2  3  1  0
  3  4  1  0
  4  5  1  0
  5  6  1  0
  6  7  2  0
  6 16  1  0
  7  8  1  0
  8  9  2  0
  8 14  1  0
  9 10  1  0
 10 11  1  0
 10 12  2  0
 12 13  1  0
 13 14  2  0
 14 15  1  0
 15 16  2  0
 15 26  1  0
 16 17  1  0
 17 18  2  0
 17 19  1  0
 19 20  2  0
 20 21  1  0
 21 22  2  0
 21 26  1  0
 22 23  1  0
 23 24  2  0
 24 25  1  0
 25 26  2  0
M  END
