
     RDKit          3D

 46 49  0  0  0  0  0  0  0  0999 V2000
   -4.1100   -5.8370    1.0830 C   0  0  0  0  0  0  0  0  0  0  0  0
   -3.7530   -4.6240    0.3420 N   0  0  0  0  0  0  0  0  0  0  0  0
   -3.3810   -3.4280    1.0150 C   0  0  0  0  0  0  0  0  0  0  0  0
   -3.3920   -3.5220    2.2780 O   0  0  0  0  0  0  0  0  0  0  0  0
   -3.0270   -2.2380    0.2430 C   0  0  1  0  0  0  0  0  0  0  0  0
   -2.2210   -2.7390   -0.9390 C   0  0  0  0  0  0  0  0  0  0  0  0
   -1.3350   -1.7700   -1.6170 C   0  0  2  0  0  0  0  0  0  0  0  0
   -0.3270   -2.4860   -2.5410 C   0  0  0  0  0  0  0  0  0  0  0  0
   -0.5390   -0.8440   -0.8000 C   0  0  0  0  0  0  0  0  0  0  0  0
    0.2530    0.0910   -1.6610 C   0  0  1  0  0  0  0  0  0  0  0  0
   -0.4910    0.8180   -2.7230 C   0  0  0  0  0  0  0  0  0  0  0  0
    1.0720    1.0710   -0.8490 C   0  0  1  0  0  0  0  0  0  0  0  0
    2.1800    0.4390   -0.2830 O   0  0  0  0  0  0  0  0  0  0  0  0
    2.4740    0.3320    1.0610 C   0  0  0  0  0  0  0  0  0  0  0  0
    1.6850    0.8460    1.9030 O   0  0  0  0  0  0  0  0  0  0  0  0
    3.7130   -0.3880    1.4820 C   0  0  2  0  0  0  0  0  0  0  0  0
    4.6440    0.6350    2.0960 C   0  0  0  0  0  0  0  0  0  0  0  0
    5.9950    0.0360    1.7650 C   0  0  0  0  0  0  0  0  0  0  0  0
    5.7170   -0.7090    0.5030 C   0  0  1  0  0  0  0  0  0  0  0  0
    6.4480   -2.0180    0.3790 C   0  0  0  0  0  0  0  0  0  0  0  0
    6.0190   -2.9370    1.3510 O   0  0  0  0  0  0  0  0  0  0  0  0
    6.7450   -4.1160    1.1590 C   0  0  0  0  0  0  0  0  0  0  0  0
    4.3630   -0.8450    0.3570 O   0  0  0  0  0  0  0  0  0  0  0  0
    1.5740    2.2200   -1.6750 C   0  0  0  0  0  0  0  0  0  0  0  0
    2.3060    3.1680   -0.7920 C   0  0  0  0  0  0  0  0  0  0  0  0
    3.6780    3.2070   -0.8940 C   0  0  0  0  0  0  0  0  0  0  0  0
    4.5170    3.9900   -0.1420 C   0  0  0  0  0  0  0  0  0  0  0  0
    5.9910    3.9840   -0.3010 C   0  0  0  0  0  0  0  0  0  0  0  0
    3.9000    4.7980    0.7900 C   0  0  0  0  0  0  0  0  0  0  0  0
    2.5330    4.7880    0.9220 C   0  0  0  0  0  0  0  0  0  0  0  0
    1.6870    3.9830    0.1450 C   0  0  0  0  0  0  0  0  0  0  0  0
    0.3470    4.0390    0.3430 O   0  0  0  0  0  0  0  0  0  0  0  0
   -0.7560    4.4130   -0.3930 C   0  0  0  0  0  0  0  0  0  0  0  0
   -1.9610    4.3590    0.5770 C   0  0  0  0  0  0  0  0  0  0  0  0
   -2.9730    3.6570   -0.0240 O   0  0  0  0  0  0  0  0  0  0  0  0
   -3.3830    2.3630   -0.3160 C   0  0  0  0  0  0  0  0  0  0  0  0
   -3.8160    2.4540   -1.6730 C   0  0  0  0  0  0  0  0  0  0  0  0
   -4.3040    1.4250   -2.3930 C   0  0  0  0  0  0  0  0  0  0  0  0
   -4.3470    0.2550   -1.6890 C   0  0  0  0  0  0  0  0  0  0  0  0
   -3.9450    0.0740   -0.3610 C   0  0  0  0  0  0  0  0  0  0  0  0
   -3.4390    1.1530    0.3840 C   0  0  0  0  0  0  0  0  0  0  0  0
   -3.0180    1.0870    1.8590 C   0  0  0  0  0  0  0  0  0  0  0  0
   -4.1980   -1.4030   -0.0510 C   0  0  2  0  0  0  0  0  0  0  0  0
   -5.4630   -1.6350    0.7130 C   0  0  1  0  0  0  0  0  0  0  0  0
   -6.1240   -2.9550    0.6050 C   0  0  0  0  0  0  0  0  0  0  0  0
   -5.5340   -1.0310    2.0880 C   0  0  0  0  0  0  0  0  0  0  0  0
  1  2  1  0
  2  3  1  0
  3  4  2  0
  5  3  1  6
  5  6  1  0
  5 43  1  0
  6  7  1  0
  7  8  1  1
  7  9  1  0
  9 10  1  0
 10 11  1  6
 10 12  1  0
 12 13  1  6
 12 24  1  0
 13 14  1  0
 14 15  2  0
 16 14  1  6
 16 17  1  0
 16 23  1  0
 17 18  1  0
 18 19  1  0
 19 20  1  1
 19 23  1  0
 20 21  1  0
 21 22  1  0
 24 25  1  0
 25 26  2  0
 25 31  1  0
 26 27  1  0
 27 28  1  0
 27 29  2  0
 29 30  1  0
 30 31  2  0
 31 32  1  0
 32 33  1  0
 33 34  1  0
 34 35  1  0
 35 36  1  0
 36 37  2  0
 36 41  1  0
 37 38  1  0
 38 39  2  0
 39 40  1  0
 40 41  2  0
 43 40  1  1
 41 42  1  0
 43 44  1  0
 44 45  1  1
 44 46  1  0
M  END
