
     RDKit          3D

 45 51  0  0  0  0  0  0  0  0999 V2000
    0.7380    1.3290    1.9900 C   0  0  0  0  0  0  0  0  0  0  0  0
    1.3030    1.3120    0.5330 C   0  0  1  0  0  0  0  0  0  0  0  0
    2.7770    1.3960    0.7570 C   0  0  0  0  0  0  0  0  0  0  0  0
    3.6940    1.9200   -0.2310 C   0  0  0  0  0  0  0  0  0  0  0  0
    5.0400    1.1980   -0.3830 C   0  0  0  0  0  0  0  0  0  0  0  0
    5.7840    0.9200    0.8270 C   0  0  0  0  0  0  0  0  0  0  0  0
    6.3470   -0.3740    1.1900 C   0  0  1  0  0  0  0  0  0  0  0  0
    5.2290   -1.2730    1.6010 C   0  0  0  0  0  0  0  0  0  0  0  0
    4.7970   -1.7620    0.5600 C   0  0  0  0  0  0  0  0  0  0  0  0
    3.7410   -2.2950   -0.2430 C   0  0  2  0  0  0  0  0  0  0  0  0
    2.3550   -2.0520    0.2240 C   0  0  0  0  0  0  0  0  0  0  0  0
    1.7990   -0.9260   -0.5690 C   0  0  0  0  0  0  0  0  0  0  0  0
    0.7990   -0.0110   -0.0280 C   0  0  1  0  0  0  0  0  0  0  0  0
   -0.2780   -0.6610    0.8290 C   0  0  0  0  0  0  0  0  0  0  0  0
   -1.1600   -1.5810    0.0580 C   0  0  0  0  0  0  0  0  0  0  0  0
   -0.5480   -2.1970   -0.8930 O   0  0  0  0  0  0  0  0  0  0  0  0
   -2.5410   -1.8340    0.2570 N   0  0  0  0  0  0  0  0  0  0  0  0
   -2.9330   -3.2510    0.3580 C   0  0  1  0  0  0  0  0  0  0  0  0
   -3.6160   -3.5400    1.6860 C   0  0  0  0  0  0  0  0  0  0  0  0
   -4.4450   -4.7600    1.4650 C   0  0  0  0  0  0  0  0  0  0  0  0
   -4.3360   -5.0580   -0.0120 C   0  0  0  0  0  0  0  0  0  0  0  0
   -3.9760   -3.6810   -0.6110 C   0  0  2  0  0  0  0  0  0  0  0  0
   -3.4220   -3.9960   -1.9870 C   0  0  0  0  0  0  0  0  0  0  0  0
   -4.4330   -4.3930   -2.8610 O   0  0  0  0  0  0  0  0  0  0  0  0
   -3.5840   -0.8700    0.3530 C   0  0  1  0  0  0  0  0  0  0  0  0
   -3.6770   -0.0320    1.5700 C   0  0  0  0  0  0  0  0  0  0  0  0
   -3.5720    1.4680    1.2550 C   0  0  0  0  0  0  0  0  0  0  0  0
   -4.6630    1.8880    0.3400 C   0  0  1  0  0  0  0  0  0  0  0  0
   -4.4070    3.1070   -0.4800 C   0  0  0  0  0  0  0  0  0  0  0  0
   -3.5630    4.1620    0.1780 C   0  0  0  0  0  0  0  0  0  0  0  0
   -3.0350    5.0420   -0.8940 C   0  0  0  0  0  0  0  0  0  0  0  0
   -3.9240    5.3940   -1.7520 O   0  0  0  0  0  0  0  0  0  0  0  0
   -1.7760    5.4940   -1.0570 O   0  0  0  0  0  0  0  0  0  0  0  0
   -0.5570    4.7870   -1.1110 C   0  0  1  0  0  0  0  0  0  0  0  0
    0.0240    4.8020    0.2430 C   0  0  0  0  0  0  0  0  0  0  0  0
    1.1380    3.8080    0.5030 C   0  0  0  0  0  0  0  0  0  0  0  0
    0.6580    2.4970   -0.0790 C   0  0  1  0  0  0  0  0  0  0  0  0
    0.6210    2.6780   -1.5330 C   0  0  0  0  0  0  0  0  0  0  0  0
   -0.6530    3.4930   -1.8340 C   0  0  0  0  0  0  0  0  0  0  0  0
   -4.9890    0.7850   -0.6820 C   0  0  0  0  0  0  0  0  0  0  0  0
   -3.6380    0.0720   -0.8630 C   0  0  0  0  0  0  0  0  0  0  0  0
    4.2340   -3.6990   -0.4180 C   0  0  0  0  0  0  0  0  0  0  0  0
    5.7850   -3.4800   -0.3630 C   0  0  0  0  0  0  0  0  0  0  0  0
    5.9150   -1.9630   -0.4170 C   0  0  2  0  0  0  0  0  0  0  0  0
    7.0070   -1.2540    0.1770 C   0  0  0  0  0  0  0  0  0  0  0  0
  2  1  1  1
  2  3  1  0
  2 13  1  0
  2 37  1  0
  3  4  1  0
  4  5  1  0
  5  6  1  0
  7  6  1  6
  7  8  1  0
  7 45  1  0
  8  9  2  0
  9 10  1  0
  9 44  1  0
 10 11  1  1
 10 42  1  0
 11 12  1  0
 13 12  1  1
 13 14  1  0
 14 15  1  0
 15 16  2  0
 15 17  1  0
 18 17  1  1
 17 25  1  0
 18 19  1  0
 18 22  1  0
 19 20  1  0
 20 21  1  0
 21 22  1  0
 22 23  1  6
 23 24  1  0
 25 26  1  0
 25 41  1  6
 26 27  1  0
 27 28  1  0
 28 29  1  6
 28 40  1  0
 29 30  1  0
 30 31  1  0
 31 32  2  0
 31 33  1  0
 33 34  1  0
 34 35  1  0
 34 39  1  1
 35 36  1  0
 36 37  1  0
 37 38  1  6
 38 39  1  0
 40 41  1  0
 42 43  1  0
 44 43  1  1
 44 45  1  0
M  END
