
     RDKit          3D

 47 52  0  0  0  0  0  0  0  0999 V2000
  -11.9810   -1.4770   -0.6310 C   0  0  0  0  0  0  0  0  0  0  0  0
  -10.7180   -0.8550   -0.6190 O   0  0  0  0  0  0  0  0  0  0  0  0
   -9.7410   -1.0080    0.3230 C   0  0  0  0  0  0  0  0  0  0  0  0
   -9.9830   -1.7930    1.3000 O   0  0  0  0  0  0  0  0  0  0  0  0
   -8.4280   -0.3280    0.2860 C   0  0  1  0  0  0  0  0  0  0  0  0
   -7.6110   -0.7530    1.4560 C   0  0  0  0  0  0  0  0  0  0  0  0
   -6.1690   -0.3310    1.4240 C   0  0  0  0  0  0  0  0  0  0  0  0
   -5.8440    0.2210    0.1090 C   0  0  1  0  0  0  0  0  0  0  0  0
   -4.4380    0.6920   -0.1690 C   0  0  2  0  0  0  0  0  0  0  0  0
   -3.4010   -0.3420   -0.1120 C   0  0  1  0  0  0  0  0  0  0  0  0
   -3.8840   -1.4150   -0.9240 O   0  0  0  0  0  0  0  0  0  0  0  0
   -2.1750    0.1540   -0.9190 C   0  0  0  0  0  0  0  0  0  0  0  0
   -1.3370    0.0610    0.3840 C   0  0  2  0  0  0  0  0  0  0  0  0
   -0.0720   -0.5990    0.1110 N   0  0  0  0  0  0  0  0  0  0  0  0
    0.9130    0.0660   -0.6670 C   0  0  0  0  0  0  0  0  0  0  0  0
    0.5850    1.2230   -1.0800 O   0  0  0  0  0  0  0  0  0  0  0  0
    2.1620   -0.5590   -0.9490 C   0  0  0  0  0  0  0  0  0  0  0  0
    2.3830   -1.1180   -2.1880 C   0  0  0  0  0  0  0  0  0  0  0  0
    3.5810   -1.7630   -2.4690 C   0  0  0  0  0  0  0  0  0  0  0  0
    4.5730   -1.8470   -1.4890 C   0  0  0  0  0  0  0  0  0  0  0  0
    4.3530   -1.2860   -0.2480 C   0  0  0  0  0  0  0  0  0  0  0  0
    5.4320   -1.3530    0.7290 C   0  0  0  0  0  0  0  0  0  0  0  0
    5.1670   -0.9620    1.9170 O   0  0  0  0  0  0  0  0  0  0  0  0
    6.7990   -1.8430    0.3930 C   0  0  0  0  0  0  0  0  0  0  0  0
    7.4860   -0.6780   -0.3050 C   0  0  2  0  0  0  0  0  0  0  0  0
    8.8760   -0.9350   -0.7180 C   0  0  0  0  0  0  0  0  0  0  0  0
    9.9850   -0.3330    0.0570 C   0  0  1  0  0  0  0  0  0  0  0  0
   11.0820    0.0120   -0.9480 C   0  0  0  0  0  0  0  0  0  0  0  0
   12.0720    0.9890   -0.4360 C   0  0  0  0  0  0  0  0  0  0  0  0
   11.6020    2.0740    0.1420 C   0  0  0  0  0  0  0  0  0  0  0  0
   10.1250    2.1850    0.2120 C   0  0  0  0  0  0  0  0  0  0  0  0
    9.6880    0.8640    0.8770 C   0  0  1  0  0  0  0  0  0  0  0  0
    8.3200    0.9560    1.4580 C   0  0  0  0  0  0  0  0  0  0  0  0
    7.3270    0.5640    0.4380 C   0  0  0  0  0  0  0  0  0  0  0  0
    6.3650    1.2880    0.2160 O   0  0  0  0  0  0  0  0  0  0  0  0
    3.1550   -0.6580   -0.0070 C   0  0  0  0  0  0  0  0  0  0  0  0
    2.9020   -0.0450    1.3170 C   0  0  0  0  0  0  0  0  0  0  0  0
   -2.4800   -0.7210    0.9100 C   0  0  1  0  0  0  0  0  0  0  0  0
   -2.6440   -0.4320    2.3650 C   0  0  0  0  0  0  0  0  0  0  0  0
   -2.1220   -2.2250    0.7820 C   0  0  0  0  0  0  0  0  0  0  0  0
   -4.1990    1.8390    0.8090 C   0  0  0  0  0  0  0  0  0  0  0  0
   -5.2100    2.9290    0.6930 C   0  0  0  0  0  0  0  0  0  0  0  0
   -5.3510    3.4930   -0.6950 C   0  0  0  0  0  0  0  0  0  0  0  0
   -4.2770    2.8120   -1.5200 C   0  0  0  0  0  0  0  0  0  0  0  0
   -4.4640    1.3150   -1.5380 C   0  0  0  0  0  0  0  0  0  0  0  0
   -6.2890   -0.8250   -0.9070 C   0  0  0  0  0  0  0  0  0  0  0  0
   -7.8090   -0.6570   -1.0500 C   0  0  0  0  0  0  0  0  0  0  0  0
  1  2  1  0
  2  3  1  0
  3  4  2  0
  5  3  1  1
  5  6  1  0
  5 47  1  0
  6  7  1  0
  8  7  1  1
  8  9  1  0
  8 46  1  0
  9 10  1  0
  9 41  1  1
  9 45  1  0
 10 11  1  6
 10 12  1  0
 10 38  1  0
 12 13  1  0
 13 14  1  6
 13 38  1  0
 14 15  1  0
 15 16  2  0
 15 17  1  0
 17 18  2  0
 17 36  1  0
 18 19  1  0
 19 20  2  0
 20 21  1  0
 21 22  1  0
 21 36  2  0
 22 23  2  0
 22 24  1  0
 25 24  1  1
 25 26  1  0
 25 34  1  0
 27 26  1  6
 27 28  1  0
 27 32  1  0
 28 29  1  0
 29 30  2  0
 30 31  1  0
 32 31  1  6
 32 33  1  0
 33 34  1  0
 34 35  2  0
 36 37  1  0
 38 39  1  1
 38 40  1  0
 41 42  1  0
 42 43  1  0
 43 44  1  0
 44 45  1  0
 46 47  1  0
M  END
