
     RDKit          3D

 43 46  0  0  0  0  0  0  0  0999 V2000
   -4.6050   -4.1630   -0.8170 C   0  0  0  0  0  0  0  0  0  0  0  0
   -4.4240   -2.9020   -0.0640 C   0  0  0  0  0  0  0  0  0  0  0  0
   -3.8270   -2.9230    1.0580 O   0  0  0  0  0  0  0  0  0  0  0  0
   -4.8810   -1.6330   -0.5140 N   0  0  0  0  0  0  0  0  0  0  0  0
   -4.6950   -0.4050    0.2390 C   0  0  1  0  0  0  0  0  0  0  0  0
   -3.8310    0.5930   -0.4840 C   0  0  2  0  0  0  0  0  0  0  0  0
   -2.5240    0.3130   -0.2040 O   0  0  0  0  0  0  0  0  0  0  0  0
   -1.6990   -0.0040   -1.2410 C   0  0  1  0  0  0  0  0  0  0  0  0
   -0.6310    1.0700   -1.3180 C   0  0  1  0  0  0  0  0  0  0  0  0
   -1.2130    2.3290   -1.2900 O   0  0  0  0  0  0  0  0  0  0  0  0
    0.3280    0.9100   -0.1400 C   0  0  1  0  0  0  0  0  0  0  0  0
   -0.3540    1.0660    1.1100 N   0  0  0  0  0  0  0  0  0  0  0  0
   -0.1970    2.2620    1.8490 C   0  0  0  0  0  0  0  0  0  0  0  0
   -0.9050    2.4320    3.1590 C   0  0  0  0  0  0  0  0  0  0  0  0
    0.5230    3.2320    1.4700 O   0  0  0  0  0  0  0  0  0  0  0  0
    0.9230   -0.4620   -0.2600 C   0  0  2  0  0  0  0  0  0  0  0  0
    2.2870   -0.3360   -0.5230 O   0  0  0  0  0  0  0  0  0  0  0  0
    3.0810   -1.0920    0.3430 C   0  0  2  0  0  0  0  0  0  0  0  0
    4.2330   -0.3340    0.8890 C   0  0  1  0  0  0  0  0  0  0  0  0
    3.9200    0.4420    2.1580 C   0  0  0  0  0  0  0  0  0  0  0  0
    2.9110    1.3470    1.8510 O   0  0  0  0  0  0  0  0  0  0  0  0
    5.2810   -1.3890    1.1560 C   0  0  2  0  0  0  0  0  0  0  0  0
    6.5900   -0.8580    1.0430 O   0  0  0  0  0  0  0  0  0  0  0  0
    6.8230   -0.6160   -0.3130 C   0  0  0  0  0  0  0  0  0  0  0  0
    7.7740    0.3130   -0.7880 N   0  0  0  0  0  0  0  0  0  0  0  0
    8.9810   -0.1570   -1.4140 C   0  0  0  0  0  0  0  0  0  0  0  0
    7.5300    1.7220   -0.6460 C   0  0  0  0  0  0  0  0  0  0  0  0
    6.0250   -1.3830   -1.0110 N   0  0  0  0  0  0  0  0  0  0  0  0
    5.2030   -2.1920   -0.1360 C   0  0  2  0  0  0  0  0  0  0  0  0
    3.7540   -2.1910   -0.4980 C   0  0  1  0  0  0  0  0  0  0  0  0
    3.1420   -3.4230   -0.2430 O   0  0  0  0  0  0  0  0  0  0  0  0
    0.3450   -1.1410   -1.3500 O   0  0  0  0  0  0  0  0  0  0  0  0
   -1.0190   -1.3310   -1.1450 C   0  0  2  0  0  0  0  0  0  0  0  0
   -1.4910   -2.2010   -2.2980 C   0  0  0  0  0  0  0  0  0  0  0  0
   -0.8200   -3.4360   -2.3070 O   0  0  0  0  0  0  0  0  0  0  0  0
   -4.0720    1.9020   -0.1310 O   0  0  0  0  0  0  0  0  0  0  0  0
   -5.3940    2.2780   -0.1760 C   0  0  2  0  0  0  0  0  0  0  0  0
   -5.4970    3.7630    0.0280 C   0  0  0  0  0  0  0  0  0  0  0  0
   -4.8000    4.4420   -0.9650 O   0  0  0  0  0  0  0  0  0  0  0  0
   -6.0370    1.5730    1.0270 C   0  0  1  0  0  0  0  0  0  0  0  0
   -7.3220    1.9890    1.2530 O   0  0  0  0  0  0  0  0  0  0  0  0
   -6.0100    0.1120    0.7130 C   0  0  1  0  0  0  0  0  0  0  0  0
   -7.0570   -0.1520   -0.1860 O   0  0  0  0  0  0  0  0  0  0  0  0
  1  2  1  0
  2  3  2  0
  2  4  1  0
  5  4  1  6
  5  6  1  0
  5 42  1  0
  6  7  1  1
  6 36  1  0
  8  7  1  1
  8  9  1  0
  8 33  1  0
  9 10  1  1
  9 11  1  0
 11 12  1  1
 11 16  1  0
 12 13  1  0
 13 14  1  0
 13 15  2  0
 16 17  1  6
 16 32  1  0
 18 17  1  6
 18 19  1  0
 18 30  1  0
 19 20  1  1
 19 22  1  0
 20 21  1  0
 22 23  1  6
 22 29  1  0
 23 24  1  0
 24 25  1  0
 24 28  2  0
 25 26  1  0
 25 27  1  0
 29 28  1  6
 29 30  1  0
 30 31  1  1
 32 33  1  0
 33 34  1  6
 34 35  1  0
 36 37  1  0
 37 38  1  1
 37 40  1  0
 38 39  1  0
 40 41  1  6
 40 42  1  0
 42 43  1  6
M  CHG  1  28   1
M  END
