
     RDKit          3D

 46 51  0  0  0  0  0  0  0  0999 V2000
    7.6780    1.9900   -0.3320 C   0  0  0  0  0  0  0  0  0  0  0  0
    7.5580    0.6470   -0.7260 O   0  0  0  0  0  0  0  0  0  0  0  0
    6.9000   -0.3380    0.0020 C   0  0  0  0  0  0  0  0  0  0  0  0
    7.7350   -1.0090    0.9070 C   0  0  0  0  0  0  0  0  0  0  0  0
    9.1410   -0.7130    1.0330 C   0  0  0  0  0  0  0  0  0  0  0  0
    9.9640   -1.3270    0.3180 O   0  0  0  0  0  0  0  0  0  0  0  0
    9.6030    0.2520    1.9440 N   0  0  0  0  0  0  0  0  0  0  0  0
   11.0250    0.5630    2.0870 C   0  0  0  0  0  0  0  0  0  0  0  0
    8.6580    0.9630    2.7710 C   0  0  0  0  0  0  0  0  0  0  0  0
    7.1760   -2.0090    1.6900 C   0  0  0  0  0  0  0  0  0  0  0  0
    5.8480   -2.3310    1.5830 C   0  0  0  0  0  0  0  0  0  0  0  0
    5.0660   -1.6460    0.6800 C   0  0  0  0  0  0  0  0  0  0  0  0
    5.5630   -0.6430   -0.1270 C   0  0  0  0  0  0  0  0  0  0  0  0
    4.7390    0.0820   -1.1120 C   0  0  2  0  0  0  0  0  0  0  0  0
    3.2790    0.1230   -0.7990 C   0  0  0  0  0  0  0  0  0  0  0  0
    2.5980   -0.8800   -1.6490 C   0  0  1  0  0  0  0  0  0  0  0  0
    1.3280   -0.4510   -2.2590 C   0  0  0  0  0  0  0  0  0  0  0  0
    0.1720   -0.0670   -1.4960 C   0  0  1  0  0  0  0  0  0  0  0  0
   -0.4130   -1.0700   -0.5470 C   0  0  0  0  0  0  0  0  0  0  0  0
   -1.4020   -0.2490    0.2660 C   0  0  0  0  0  0  0  0  0  0  0  0
   -1.4270    1.1250   -0.3780 C   0  0  1  0  0  0  0  0  0  0  0  0
   -1.7080    2.2200    0.5980 C   0  0  0  0  0  0  0  0  0  0  0  0
   -2.9690    1.9970    1.2200 O   0  0  0  0  0  0  0  0  0  0  0  0
   -4.1440    1.8960    0.5120 C   0  0  0  0  0  0  0  0  0  0  0  0
   -4.1440    2.0040   -0.7220 O   0  0  0  0  0  0  0  0  0  0  0  0
   -5.4020    1.6540    1.2430 C   0  0  2  0  0  0  0  0  0  0  0  0
   -5.2410    0.3800    2.0600 C   0  0  0  0  0  0  0  0  0  0  0  0
   -6.5260    0.1320    2.7780 C   0  0  1  0  0  0  0  0  0  0  0  0
   -6.8700    1.3640    3.5760 C   0  0  0  0  0  0  0  0  0  0  0  0
   -7.5730   -0.2610    1.7840 C   0  0  0  0  0  0  0  0  0  0  0  0
   -7.2830    0.2140    0.3810 C   0  0  1  0  0  0  0  0  0  0  0  0
   -6.6110    1.5500    0.3420 C   0  0  0  0  0  0  0  0  0  0  0  0
   -6.5220   -0.7360   -0.2720 O   0  0  0  0  0  0  0  0  0  0  0  0
   -6.9730   -1.0650   -1.5340 C   0  0  0  0  0  0  0  0  0  0  0  0
   -8.3200   -1.7660   -1.4930 C   0  0  0  0  0  0  0  0  0  0  0  0
   -9.1840   -1.0520   -0.4980 C   0  0  0  0  0  0  0  0  0  0  0  0
   -8.6280    0.3470   -0.3110 C   0  0  1  0  0  0  0  0  0  0  0  0
   -9.6080    1.1230    0.5180 C   0  0  0  0  0  0  0  0  0  0  0  0
    0.0860    1.2180   -0.7520 C   0  0  1  0  0  0  0  0  0  0  0  0
    0.7120    1.2850    0.4630 O   0  0  0  0  0  0  0  0  0  0  0  0
    3.5930   -1.1300   -2.7200 C   0  0  0  0  0  0  0  0  0  0  0  0
    3.4200   -1.8230   -3.9360 C   0  0  0  0  0  0  0  0  0  0  0  0
    4.4580   -1.9810   -4.8340 C   0  0  0  0  0  0  0  0  0  0  0  0
    5.6730   -1.4280   -4.4820 C   0  0  0  0  0  0  0  0  0  0  0  0
    5.8880   -0.7530   -3.3250 C   0  0  0  0  0  0  0  0  0  0  0  0
    4.8050   -0.6010   -2.4160 C   0  0  0  0  0  0  0  0  0  0  0  0
  1  2  1  0
  2  3  1  0
  3  4  2  0
  3 13  1  0
  4  5  1  0
  4 10  1  0
  5  6  2  0
  5  7  1  0
  7  8  1  0
  7  9  1  0
 10 11  2  0
 11 12  1  0
 12 13  2  0
 14 13  1  1
 14 15  1  0
 14 46  1  0
 15 16  1  0
 16 17  1  6
 16 41  1  0
 18 17  1  1
 18 19  1  0
 18 39  1  0
 19 20  1  0
 20 21  1  0
 21 22  1  1
 21 39  1  0
 22 23  1  0
 23 24  1  0
 24 25  2  0
 26 24  1  6
 26 27  1  0
 26 32  1  0
 27 28  1  0
 28 29  1  6
 28 30  1  0
 31 30  1  1
 31 32  1  0
 31 33  1  0
 31 37  1  0
 33 34  1  0
 34 35  1  0
 35 36  1  0
 36 37  1  0
 37 38  1  1
 39 40  1  1
 41 42  2  0
 41 46  1  0
 42 43  1  0
 43 44  2  0
 44 45  1  0
 45 46  2  0
M  END
