
     RDKit          3D

 43 46  0  0  0  0  0  0  0  0999 V2000
    9.8070    0.1580    1.5780 C   0  0  0  0  0  0  0  0  0  0  0  0
    8.4830    0.0090    0.8330 C   0  0  0  0  0  0  0  0  0  0  0  0
    8.6010   -0.9810   -0.2730 C   0  0  2  0  0  0  0  0  0  0  0  0
    9.5510   -0.5940   -1.2270 O   0  0  0  0  0  0  0  0  0  0  0  0
    7.3290   -1.3470   -0.9160 C   0  0  0  0  0  0  0  0  0  0  0  0
    6.5250   -0.3050   -1.5730 C   0  0  2  0  0  0  0  0  0  0  0  0
    7.1480    0.3950   -2.6100 O   0  0  0  0  0  0  0  0  0  0  0  0
    5.6320    0.5160   -0.7390 C   0  0  0  0  0  0  0  0  0  0  0  0
    5.8620    1.8500   -0.5270 C   0  0  0  0  0  0  0  0  0  0  0  0
    4.9980    2.5880    0.2680 C   0  0  0  0  0  0  0  0  0  0  0  0
    3.8960    1.9990    0.8560 C   0  0  0  0  0  0  0  0  0  0  0  0
    3.6370    0.6410    0.6580 C   0  0  0  0  0  0  0  0  0  0  0  0
    2.4490    0.0280    1.3050 C   0  0  2  0  0  0  0  0  0  0  0  0
    2.8460   -0.7340    2.5280 C   0  0  0  0  0  0  0  0  0  0  0  0
    1.8060   -0.8290    0.3270 N   0  0  0  0  0  0  0  0  0  0  0  0
    0.4550   -1.1270    0.6420 C   0  0  0  0  0  0  0  0  0  0  0  0
   -0.5660   -0.2470    0.0590 C   0  0  0  0  0  0  0  0  0  0  0  0
   -0.3710    0.7590   -0.8300 C   0  0  0  0  0  0  0  0  0  0  0  0
   -1.4480    1.5060   -1.2900 C   0  0  0  0  0  0  0  0  0  0  0  0
   -2.6840    1.2250   -0.8470 N   0  0  0  0  0  0  0  0  0  0  0  0
   -2.9510    0.2610    0.0190 C   0  0  0  0  0  0  0  0  0  0  0  0
   -4.2950   -0.0300    0.4990 N   0  0  0  0  0  0  0  0  0  0  0  0
   -4.6960   -1.3560    0.5550 C   0  0  0  0  0  0  0  0  0  0  0  0
   -3.8870   -2.2720    0.1880 O   0  0  0  0  0  0  0  0  0  0  0  0
   -6.0150   -1.8100    1.0170 C   0  0  2  0  0  0  0  0  0  0  0  0
   -6.0610   -3.1210    1.6990 C   0  0  0  0  0  0  0  0  0  0  0  0
   -6.0580   -4.2790    2.4110 C   0  0  0  0  0  0  0  0  0  0  0  0
   -6.5720   -5.4200    1.8210 C   0  0  0  0  0  0  0  0  0  0  0  0
   -7.0740   -5.3930    0.5520 C   0  0  0  0  0  0  0  0  0  0  0  0
   -7.5760   -6.5680    0.0110 O   0  0  0  0  0  0  0  0  0  0  0  0
   -7.0790   -4.2270   -0.1710 C   0  0  0  0  0  0  0  0  0  0  0  0
   -6.5710   -3.0680    0.3930 C   0  0  0  0  0  0  0  0  0  0  0  0
   -5.1270    1.0390    0.9330 C   0  0  1  0  0  0  0  0  0  0  0  0
   -4.4320    1.7970    2.0320 C   0  0  0  0  0  0  0  0  0  0  0  0
   -5.4660    2.0290   -0.1460 C   0  0  0  0  0  0  0  0  0  0  0  0
   -5.7880    3.1670    0.2270 O   0  0  0  0  0  0  0  0  0  0  0  0
   -5.4380    1.7330   -1.5230 N   0  0  0  0  0  0  0  0  0  0  0  0
   -5.6970    2.5400   -2.6420 C   0  0  0  0  0  0  0  0  0  0  0  0
   -4.8550    3.6950   -2.9890 C   0  0  2  0  0  0  0  0  0  0  0  0
   -4.9700    4.8410   -2.0240 C   0  0  0  0  0  0  0  0  0  0  0  0
   -5.3350    4.2790   -4.2200 O   0  0  0  0  0  0  0  0  0  0  0  0
   -1.8850   -0.4820    0.4770 C   0  0  0  0  0  0  0  0  0  0  0  0
    4.5090   -0.0520   -0.1300 C   0  0  0  0  0  0  0  0  0  0  0  0
  1  2  1  0
  2  3  1  0
  3  4  1  6
  3  5  1  0
  5  6  1  0
  6  7  1  1
  6  8  1  0
  8  9  2  0
  8 43  1  0
  9 10  1  0
 10 11  2  0
 11 12  1  0
 12 13  1  0
 12 43  2  0
 13 14  1  1
 13 15  1  0
 15 16  1  0
 16 17  1  0
 17 18  2  0
 17 42  1  0
 18 19  1  0
 19 20  2  0
 20 21  1  0
 21 22  1  0
 21 42  2  0
 22 23  1  0
 22 33  1  0
 23 24  2  0
 25 23  1  6
 25 26  1  0
 25 32  1  0
 26 27  2  0
 26 32  1  0
 27 28  1  0
 28 29  2  0
 29 30  1  0
 29 31  1  0
 31 32  2  0
 33 34  1  1
 33 35  1  0
 35 36  2  0
 35 37  1  0
 37 38  1  0
 38 39  1  0
 39 40  1  1
 39 41  1  0
M  CHG  1  15   1
M  END
