
     RDKit          3D

 20 22  0  0  0  0  0  0  0  0999 V2000
    3.5920   -1.6420    2.1490 C   0  0  0  0  0  0  0  0  0  0  0  0
    2.9900   -0.3690    1.6280 C   0  0  1  0  0  0  0  0  0  0  0  0
    4.0720    0.6030    1.1620 C   0  0  0  0  0  0  0  0  0  0  0  0
    2.0420   -0.6520    0.4840 C   0  0  0  0  0  0  0  0  0  0  0  0
    0.7670   -0.3440    0.6460 C   0  0  0  0  0  0  0  0  0  0  0  0
   -0.2480   -0.5770   -0.3680 C   0  0  2  0  0  0  0  0  0  0  0  0
    0.3060   -0.8590   -1.6680 C   0  0  0  0  0  0  0  0  0  0  0  0
   -0.3990   -0.7390   -2.8150 C   0  0  0  0  0  0  0  0  0  0  0  0
   -1.7970   -0.2940   -2.7960 C   0  0  0  0  0  0  0  0  0  0  0  0
   -2.5220   -0.1600   -3.7850 O   0  0  0  0  0  0  0  0  0  0  0  0
   -2.3720    0.0180   -1.4420 C   0  0  0  0  0  0  0  0  0  0  0  0
   -3.6530   -0.0150   -1.2440 C   0  0  0  0  0  0  0  0  0  0  0  0
   -4.4000    0.2600    0.0070 C   0  0  0  0  0  0  0  0  0  0  0  0
   -3.4820    0.9200    0.9870 C   0  0  0  0  0  0  0  0  0  0  0  0
   -2.0890    0.4180    0.9500 C   0  0  0  0  0  0  0  0  0  0  0  0
   -1.4240    0.3710   -0.3600 C   0  0  1  0  0  0  0  0  0  0  0  0
   -0.8160    1.7620   -0.6150 C   0  0  0  0  0  0  0  0  0  0  0  0
    0.0920    2.0590    0.3980 O   0  0  0  0  0  0  0  0  0  0  0  0
    1.7050   -1.2230   -1.7990 C   0  0  0  0  0  0  0  0  0  0  0  0
    2.5710   -1.1310   -0.7930 C   0  0  0  0  0  0  0  0  0  0  0  0
  2  1  1  6
  2  3  1  0
  2  4  1  0
  4  5  2  0
  4 20  1  0
  6  5  1  1
  6  7  1  0
  6 16  1  0
  7  8  2  0
  7 19  1  0
  8  9  1  0
  9 10  2  0
  9 11  1  0
 11 12  2  0
 11 16  1  0
 12 13  1  0
 13 14  1  0
 14 15  1  0
 15 16  1  0
 16 17  1  6
 17 18  1  0
 19 20  2  0
M  END
