
     RDKit          3D

 20 22  0  0  0  0  0  0  0  0999 V2000
    2.5650    2.2960    1.8230 C   0  0  0  0  0  0  0  0  0  0  0  0
    1.9180    1.2700    1.3140 C   0  0  0  0  0  0  0  0  0  0  0  0
    0.4300    0.9860    1.3430 C   0  0  0  0  0  0  0  0  0  0  0  0
    0.2550    0.3210    0.0200 C   0  0  2  0  0  0  0  0  0  0  0  0
   -1.1310   -0.2980   -0.1830 C   0  0  2  0  0  0  0  0  0  0  0  0
   -1.1410   -0.9890   -1.4760 C   0  0  0  0  0  0  0  0  0  0  0  0
   -1.8950   -0.4450   -2.5720 C   0  0  0  0  0  0  0  0  0  0  0  0
   -2.6700    0.5930   -2.4850 C   0  0  0  0  0  0  0  0  0  0  0  0
   -2.7560    1.2410   -1.1850 C   0  0  0  0  0  0  0  0  0  0  0  0
   -2.0690    0.8300   -0.1360 C   0  0  0  0  0  0  0  0  0  0  0  0
   -2.3590    1.5080    1.1620 C   0  0  0  0  0  0  0  0  0  0  0  0
   -2.5610    2.7170    1.2130 O   0  0  0  0  0  0  0  0  0  0  0  0
   -2.3640    0.5950    2.2390 O   0  0  0  0  0  0  0  0  0  0  0  0
   -2.6700   -0.7380    1.7670 C   0  0  0  0  0  0  0  0  0  0  0  0
   -1.4880   -1.2110    0.9640 C   0  0  0  0  0  0  0  0  0  0  0  0
    1.4340   -0.4510   -0.3230 C   0  0  2  0  0  0  0  0  0  0  0  0
    1.9820   -0.1090   -1.7180 C   0  0  0  0  0  0  0  0  0  0  0  0
    1.5300   -1.8980   -0.0970 C   0  0  0  0  0  0  0  0  0  0  0  0
    2.4800    0.1580    0.6010 C   0  0  0  0  0  0  0  0  0  0  0  0
    3.7100   -0.3370    0.6660 C   0  0  0  0  0  0  0  0  0  0  0  0
  1  2  2  0
  2  3  1  0
  2 19  1  0
  4  3  1  1
  4  5  1  0
  4 16  1  0
  5  6  1  6
  5 10  1  0
  5 15  1  0
  6  7  1  0
  7  8  2  0
  8  9  1  0
  9 10  2  0
 10 11  1  0
 11 12  2  0
 11 13  1  0
 13 14  1  0
 14 15  1  0
 16 17  1  6
 16 18  1  0
 16 19  1  0
 19 20  2  0
M  END
