
     RDKit          3D

 21 22  0  0  0  0  0  0  0  0999 V2000
   -4.8090    1.8770    2.0100 O   0  0  0  0  0  0  0  0  0  0  0  0
   -3.7100    2.3190    1.6160 C   0  0  0  0  0  0  0  0  0  0  0  0
   -3.4290    3.6570    1.7980 O   0  0  0  0  0  0  0  0  0  0  0  0
   -2.8330    1.4200    1.0140 O   0  0  0  0  0  0  0  0  0  0  0  0
   -3.1870    0.0760    0.8640 C   0  0  2  0  0  0  0  0  0  0  0  0
   -2.0990   -0.7940    1.4230 C   0  0  0  0  0  0  0  0  0  0  0  0
   -0.7890   -0.3050    0.8550 C   0  0  1  0  0  0  0  0  0  0  0  0
    0.2230   -1.3920    1.1100 C   0  0  0  0  0  0  0  0  0  0  0  0
    1.5410   -1.0950    0.8570 O   0  0  0  0  0  0  0  0  0  0  0  0
    2.1730   -0.7540   -0.3040 C   0  0  0  0  0  0  0  0  0  0  0  0
    1.4730   -0.6910   -1.3460 O   0  0  0  0  0  0  0  0  0  0  0  0
    3.6210   -0.4540   -0.4180 C   0  0  1  0  0  0  0  0  0  0  0  0
    3.9020    0.9340   -0.8860 C   0  0  0  0  0  0  0  0  0  0  0  0
    5.3090    1.1730   -0.3260 C   0  0  0  0  0  0  0  0  0  0  0  0
    5.5810   -0.1330    0.4250 C   0  0  0  0  0  0  0  0  0  0  0  0
    4.2920   -0.5510    0.7750 O   0  0  0  0  0  0  0  0  0  0  0  0
   -0.7840    0.0660   -0.4180 O   0  0  0  0  0  0  0  0  0  0  0  0
   -1.8330   -0.1160   -1.2270 C   0  0  0  0  0  0  0  0  0  0  0  0
   -3.1830   -0.2260   -0.6400 C   0  0  1  0  0  0  0  0  0  0  0  0
   -3.7620   -1.5590   -0.8540 N   0  0  0  0  0  0  0  0  0  0  0  0
   -4.6600   -1.8620    0.1130 O   0  0  0  0  0  0  0  0  0  0  0  0
  1  2  2  0
  2  3  1  0
  2  4  1  0
  5  4  1  6
  5  6  1  0
  5 19  1  0
  6  7  1  0
  7  8  1  6
  7 17  1  0
  8  9  1  0
  9 10  1  0
 10 11  2  0
 12 10  1  1
 12 13  1  0
 12 16  1  0
 13 14  1  0
 14 15  1  0
 15 16  1  0
 17 18  1  0
 18 19  1  0
 19 20  1  1
 20 21  1  0
M  CHG  2  20   1  21  -1
M  END
