
     RDKit          3D

 20 22  0  0  0  0  0  0  0  0999 V2000
    4.1840    0.7350   -1.0490 C   0  0  0  0  0  0  0  0  0  0  0  0
    2.8100    0.5730   -0.4510 C   0  0  0  0  0  0  0  0  0  0  0  0
    1.9410   -0.2110   -1.0390 C   0  0  0  0  0  0  0  0  0  0  0  0
    2.3960   -0.8460   -2.1940 C   0  0  0  0  0  0  0  0  0  0  0  0
    1.6480   -1.7830   -2.8520 C   0  0  0  0  0  0  0  0  0  0  0  0
    0.4110   -2.1050   -2.3590 C   0  0  0  0  0  0  0  0  0  0  0  0
   -0.0490   -1.4900   -1.2350 C   0  0  0  0  0  0  0  0  0  0  0  0
    0.7150   -0.5110   -0.5380 C   0  0  0  0  0  0  0  0  0  0  0  0
    0.0580    0.1770    0.3680 C   0  0  0  0  0  0  0  0  0  0  0  0
   -1.2610   -0.3390    0.8230 C   0  0  0  0  0  0  0  0  0  0  0  0
   -2.2910    0.4810    0.7330 C   0  0  0  0  0  0  0  0  0  0  0  0
   -3.6320    0.1380    1.1090 C   0  0  0  0  0  0  0  0  0  0  0  0
   -3.8470   -1.0700    1.5530 C   0  0  0  0  0  0  0  0  0  0  0  0
   -2.7820   -2.0430    1.6600 C   0  0  0  0  0  0  0  0  0  0  0  0
   -3.0800   -3.2660    1.9240 O   0  0  0  0  0  0  0  0  0  0  0  0
   -1.3760   -1.6450    1.4690 C   0  0  0  0  0  0  0  0  0  0  0  0
   -1.9990    1.8670    0.2050 C   0  0  0  0  0  0  0  0  0  0  0  0
   -0.8710    2.4020    1.0560 C   0  0  0  0  0  0  0  0  0  0  0  0
    0.4000    1.5190    0.8560 C   0  0  1  0  0  0  0  0  0  0  0  0
    1.0110    1.5310    2.0970 O   0  0  0  0  0  0  0  0  0  0  0  0
  1  2  1  0
  2  3  2  3
  3  4  1  0
  3  8  1  0
  4  5  2  0
  5  6  1  0
  6  7  2  0
  7  8  1  0
  8  9  2  3
  9 10  1  0
  9 19  1  0
 10 11  2  0
 10 16  1  0
 11 12  1  0
 11 17  1  0
 12 13  2  0
 13 14  1  0
 14 15  2  0
 14 16  1  0
 17 18  1  0
 18 19  1  0
 19 20  1  1
M  END
