
     RDKit          3D

 20 22  0  0  0  0  0  0  0  0999 V2000
   -2.8460    2.6990    1.7190 O   0  0  0  0  0  0  0  0  0  0  0  0
   -2.0890    2.1440    0.6430 C   0  0  0  0  0  0  0  0  0  0  0  0
   -1.5870    2.9910   -0.2140 C   0  0  0  0  0  0  0  0  0  0  0  0
   -0.7820    2.7770   -1.4010 C   0  0  0  0  0  0  0  0  0  0  0  0
    0.4070    2.2830   -1.5890 C   0  0  0  0  0  0  0  0  0  0  0  0
    1.4050    1.7400   -0.6930 C   0  0  0  0  0  0  0  0  0  0  0  0
    1.6510    0.4880   -0.3430 C   0  0  0  0  0  0  0  0  0  0  0  0
    2.7570    0.2300    0.6180 C   0  0  0  0  0  0  0  0  0  0  0  0
    3.5980    1.1440    1.2260 C   0  0  0  0  0  0  0  0  0  0  0  0
    4.4780    0.4530    2.0440 C   0  0  0  0  0  0  0  0  0  0  0  0
    4.1320   -0.8620    1.8990 C   0  0  0  0  0  0  0  0  0  0  0  0
    3.1460   -0.9450    1.0770 O   0  0  0  0  0  0  0  0  0  0  0  0
    0.9700   -0.7350   -0.8330 C   0  0  0  0  0  0  0  0  0  0  0  0
    0.7400   -1.7990    0.1800 C   0  0  0  0  0  0  0  0  0  0  0  0
   -0.4360   -2.6160   -0.2650 C   0  0  1  0  0  0  0  0  0  0  0  0
   -1.2160   -3.5150    0.5510 C   0  0  0  0  0  0  0  0  0  0  0  0
   -1.6380   -2.0980    0.5580 C   0  0  2  0  0  0  0  0  0  0  0  0
   -2.5960   -1.5110   -0.4110 C   0  0  0  0  0  0  0  0  0  0  0  0
   -2.6650   -0.0310   -0.4450 C   0  0  0  0  0  0  0  0  0  0  0  0
   -2.0040    0.6760    0.6890 C   0  0  0  0  0  0  0  0  0  0  0  0
  1  2  1  0
  2  3  2  0
  2 20  1  0
  3  4  1  0
  4  5  2  0
  5  6  1  0
  6  7  2  0
  7  8  1  0
  7 13  1  0
  8  9  2  0
  8 12  1  0
  9 10  1  0
 10 11  2  0
 11 12  1  0
 13 14  1  0
 15 14  1  1
 15 16  1  0
 15 17  1  0
 17 16  1  6
 17 18  1  0
 18 19  1  0
 19 20  1  0
M  END
