
     RDKit          3D

 20 22  0  0  0  0  0  0  0  0999 V2000
    2.7330   -2.3470    1.7010 C   0  0  0  0  0  0  0  0  0  0  0  0
    1.8820   -1.3740    0.9930 C   0  0  0  0  0  0  0  0  0  0  0  0
    1.1190   -0.4950    1.7000 C   0  0  0  0  0  0  0  0  0  0  0  0
    1.2430   -0.6040    3.0460 C   0  0  0  0  0  0  0  0  0  0  0  0
    0.7670    0.4240    3.8400 C   0  0  0  0  0  0  0  0  0  0  0  0
    0.2020    1.4850    3.2150 C   0  0  0  0  0  0  0  0  0  0  0  0
    0.0790    1.5740    1.8580 C   0  0  0  0  0  0  0  0  0  0  0  0
    0.5710    0.4890    0.9680 C   0  0  0  0  0  0  0  0  0  0  0  0
   -0.0800    0.5730   -0.1220 C   0  0  0  0  0  0  0  0  0  0  0  0
   -0.6260   -0.3170   -1.1160 C   0  0  0  0  0  0  0  0  0  0  0  0
   -1.4160    0.1860   -2.0750 C   0  0  0  0  0  0  0  0  0  0  0  0
   -2.0230   -0.7000   -3.1120 C   0  0  0  0  0  0  0  0  0  0  0  0
   -1.8510   -1.9920   -3.1390 C   0  0  0  0  0  0  0  0  0  0  0  0
   -1.0490   -2.5750   -2.1070 C   0  0  0  0  0  0  0  0  0  0  0  0
   -0.9020   -3.8100   -1.9860 O   0  0  0  0  0  0  0  0  0  0  0  0
   -0.3160   -1.7530   -1.0810 C   0  0  0  0  0  0  0  0  0  0  0  0
   -1.8240    1.6050   -2.1910 C   0  0  0  0  0  0  0  0  0  0  0  0
   -1.4130    2.4050   -0.9670 C   0  0  0  0  0  0  0  0  0  0  0  0
   -0.0060    2.0570   -0.6980 C   0  0  1  0  0  0  0  0  0  0  0  0
    0.7970    2.7850    0.0430 O   0  0  0  0  0  0  0  0  0  0  0  0
  1  2  1  0
  2  3  2  3
  3  4  1  0
  3  8  1  0
  4  5  2  0
  5  6  1  0
  6  7  2  0
  7  8  1  0
  8  9  2  3
  9 10  1  0
  9 19  1  0
 10 11  2  0
 10 16  1  0
 11 12  1  0
 11 17  1  0
 12 13  2  0
 13 14  1  0
 14 15  2  0
 14 16  1  0
 17 18  1  0
 18 19  1  0
 19 20  1  1
M  END
