
     RDKit          3D

 20 23  0  0  0  0  0  0  0  0999 V2000
   -1.9270    1.5880    0.0120 C   0  0  0  0  0  0  0  0  0  0  0  0
   -2.2150    0.2040    0.4850 C   0  0  2  0  0  0  0  0  0  0  0  0
   -1.6470   -0.1290    1.8270 C   0  0  0  0  0  0  0  0  0  0  0  0
   -0.1360   -0.2080    1.8310 C   0  0  0  0  0  0  0  0  0  0  0  0
    0.4930   -0.2980    0.5350 C   0  0  0  0  0  0  0  0  0  0  0  0
   -0.2350   -0.6110   -0.5890 C   0  0  0  0  0  0  0  0  0  0  0  0
    0.3660   -0.6950   -1.8370 C   0  0  0  0  0  0  0  0  0  0  0  0
    1.7230   -0.4630   -1.9790 C   0  0  0  0  0  0  0  0  0  0  0  0
    2.4640   -0.1490   -0.8650 C   0  0  0  0  0  0  0  0  0  0  0  0
    3.8150    0.0750   -1.0420 C   0  0  0  0  0  0  0  0  0  0  0  0
    4.5570    0.3860    0.0600 C   0  0  0  0  0  0  0  0  0  0  0  0
    5.9210    0.6160   -0.0890 O   0  0  0  0  0  0  0  0  0  0  0  0
    3.9960    0.4770    1.3080 C   0  0  0  0  0  0  0  0  0  0  0  0
    2.6430    0.2460    1.4430 C   0  0  0  0  0  0  0  0  0  0  0  0
    1.8360   -0.0710    0.3770 C   0  0  0  0  0  0  0  0  0  0  0  0
   -1.6650   -0.8650   -0.4750 C   0  0  2  0  0  0  0  0  0  0  0  0
   -2.4960   -0.6080   -1.6780 C   0  0  0  0  0  0  0  0  0  0  0  0
   -3.8840   -0.3890   -1.0870 C   0  0  0  0  0  0  0  0  0  0  0  0
   -3.6590   -0.0870    0.3570 C   0  0  0  0  0  0  0  0  0  0  0  0
   -4.4530   -0.0680    1.2760 O   0  0  0  0  0  0  0  0  0  0  0  0
  2  1  1  6
  2  3  1  0
  2 16  1  0
  2 19  1  0
  3  4  1  0
  4  5  1  0
  5  6  2  0
  5 15  1  0
  6  7  1  0
  6 16  1  0
  7  8  2  0
  8  9  1  0
  9 10  2  0
  9 15  1  0
 10 11  1  0
 11 12  1  0
 11 13  2  0
 13 14  1  0
 14 15  2  0
 16 17  1  6
 17 18  1  0
 18 19  1  0
 19 20  2  0
M  END
