
     RDKit          3D

 20 22  0  0  0  0  0  0  0  0999 V2000
    4.3770    0.1580    0.8240 C   0  0  0  0  0  0  0  0  0  0  0  0
    3.5360   -0.5150   -0.2310 C   0  0  1  0  0  0  0  0  0  0  0  0
    3.2860   -1.9560    0.0960 C   0  0  0  0  0  0  0  0  0  0  0  0
    2.2730    0.2330   -0.5060 C   0  0  0  0  0  0  0  0  0  0  0  0
    1.0880   -0.3280   -0.4610 C   0  0  0  0  0  0  0  0  0  0  0  0
   -0.1690    0.3820   -0.7360 C   0  0  2  0  0  0  0  0  0  0  0  0
   -0.0560    1.8300   -0.8490 C   0  0  0  0  0  0  0  0  0  0  0  0
   -1.1190    2.6160   -0.8510 C   0  0  0  0  0  0  0  0  0  0  0  0
   -2.4540    2.0100   -0.7230 C   0  0  0  0  0  0  0  0  0  0  0  0
   -3.4530    2.7360   -0.7330 O   0  0  0  0  0  0  0  0  0  0  0  0
   -2.5320    0.5550   -0.5890 C   0  0  0  0  0  0  0  0  0  0  0  0
   -3.5850   -0.0730   -1.0160 C   0  0  0  0  0  0  0  0  0  0  0  0
   -3.7090   -1.5710   -0.9000 C   0  0  0  0  0  0  0  0  0  0  0  0
   -2.9380   -1.9540    0.3410 C   0  0  0  0  0  0  0  0  0  0  0  0
   -1.4840   -1.5730    0.1050 C   0  0  0  0  0  0  0  0  0  0  0  0
   -1.3310   -0.0580    0.0630 C   0  0  1  0  0  0  0  0  0  0  0  0
   -1.2610    0.3780    1.5030 C   0  0  0  0  0  0  0  0  0  0  0  0
   -1.2060    1.7290    1.7100 O   0  0  0  0  0  0  0  0  0  0  0  0
    1.2930    2.4490   -0.9230 C   0  0  0  0  0  0  0  0  0  0  0  0
    2.3310    1.6700   -0.7540 C   0  0  0  0  0  0  0  0  0  0  0  0
  2  1  1  1
  2  3  1  0
  2  4  1  0
  4  5  2  0
  4 20  1  0
  6  5  1  1
  6  7  1  0
  6 16  1  0
  7  8  2  0
  7 19  1  0
  8  9  1  0
  9 10  2  0
  9 11  1  0
 11 12  2  0
 11 16  1  0
 12 13  1  0
 13 14  1  0
 14 15  1  0
 15 16  1  0
 16 17  1  1
 17 18  1  0
 19 20  2  0
M  END
