
     RDKit          3D

 20 22  0  0  0  0  0  0  0  0999 V2000
   -3.7140   -1.7040   -0.1110 C   0  0  0  0  0  0  0  0  0  0  0  0
   -2.3020   -1.9840   -0.0390 C   0  0  0  0  0  0  0  0  0  0  0  0
   -1.9860   -3.4160   -0.0570 O   0  0  0  0  0  0  0  0  0  0  0  0
   -1.2270   -1.2490    0.0420 C   0  0  0  0  0  0  0  0  0  0  0  0
    0.0960   -1.9700    0.1000 C   0  0  0  0  0  0  0  0  0  0  0  0
    0.1730   -3.1000    0.5920 O   0  0  0  0  0  0  0  0  0  0  0  0
    1.2510   -1.2300   -0.4650 C   0  0  2  0  0  0  0  0  0  0  0  0
    2.5580   -1.8880   -0.2700 C   0  0  0  0  0  0  0  0  0  0  0  0
    3.6440   -1.0120   -0.7970 C   0  0  0  0  0  0  0  0  0  0  0  0
    4.2960   -0.1430    0.2350 C   0  0  0  0  0  0  0  0  0  0  0  0
    3.4620    0.0840    1.4570 C   0  0  0  0  0  0  0  0  0  0  0  0
    2.1030    0.5910    1.1490 C   0  0  0  0  0  0  0  0  0  0  0  0
    1.2330    0.0290    0.3620 C   0  0  0  0  0  0  0  0  0  0  0  0
   -0.0360    0.8370    0.3050 C   0  0  0  0  0  0  0  0  0  0  0  0
   -1.1990    0.2050    0.1490 C   0  0  0  0  0  0  0  0  0  0  0  0
   -2.4770    0.9850    0.0130 C   0  0  2  0  0  0  0  0  0  0  0  0
   -2.7770    1.0900   -1.4840 C   0  0  0  0  0  0  0  0  0  0  0  0
   -2.3030    2.4280    0.4560 C   0  0  0  0  0  0  0  0  0  0  0  0
   -1.0370    3.0260   -0.1030 C   0  0  0  0  0  0  0  0  0  0  0  0
    0.0890    2.2630    0.4610 C   0  0  0  0  0  0  0  0  0  0  0  0
  1  2  1  0
  2  3  1  0
  2  4  2  3
  4  5  1  0
  4 15  1  0
  5  6  2  0
  5  7  1  0
  7  8  1  1
  7 13  1  0
  8  9  1  0
  9 10  1  0
 10 11  1  0
 11 12  1  0
 12 13  2  0
 13 14  1  0
 14 15  2  0
 14 20  1  0
 15 16  1  0
 16 17  1  6
 16 18  1  0
 18 19  1  0
 19 20  1  0
M  END
