
     RDKit          3D

 20 23  0  0  0  0  0  0  0  0999 V2000
    4.9780   -1.9200    0.3940 O   0  0  0  0  0  0  0  0  0  0  0  0
    4.4160   -1.1870   -0.6420 C   0  0  2  0  0  0  0  0  0  0  0  0
    5.2870    0.0140   -0.9240 C   0  0  0  0  0  0  0  0  0  0  0  0
    5.2410    1.0540    0.1340 C   0  0  0  0  0  0  0  0  0  0  0  0
    4.1070    0.9440    1.0900 C   0  0  0  0  0  0  0  0  0  0  0  0
    2.8890    0.3340    0.5220 C   0  0  0  0  0  0  0  0  0  0  0  0
    1.5990    0.6000    0.6680 O   0  0  0  0  0  0  0  0  0  0  0  0
    0.8700   -0.2210   -0.0470 C   0  0  0  0  0  0  0  0  0  0  0  0
   -0.5940   -0.2620   -0.1610 C   0  0  0  0  0  0  0  0  0  0  0  0
   -1.2110   -1.1980   -0.9630 C   0  0  0  0  0  0  0  0  0  0  0  0
   -2.5700   -1.3040   -1.1260 C   0  0  0  0  0  0  0  0  0  0  0  0
   -3.3890   -0.4010   -0.4300 C   0  0  0  0  0  0  0  0  0  0  0  0
   -2.8050    0.5430    0.3770 C   0  0  0  0  0  0  0  0  0  0  0  0
   -1.4080    0.6080    0.5080 C   0  0  0  0  0  0  0  0  0  0  0  0
   -3.6540    1.5070    1.1180 C   0  0  0  0  0  0  0  0  0  0  0  0
   -5.0280    0.9280    1.2790 C   0  0  0  0  0  0  0  0  0  0  0  0
   -5.6400    0.5970   -0.0840 C   0  0  0  0  0  0  0  0  0  0  0  0
   -4.8630   -0.5490   -0.6320 C   0  0  0  0  0  0  0  0  0  0  0  0
    1.7510   -1.0730   -0.6970 C   0  0  0  0  0  0  0  0  0  0  0  0
    3.0390   -0.7290   -0.3430 C   0  0  0  0  0  0  0  0  0  0  0  0
  2  1  1  1
  2  3  1  0
  2 20  1  0
  3  4  1  0
  4  5  1  0
  5  6  1  0
  6  7  1  0
  6 20  2  0
  7  8  1  0
  8  9  1  0
  8 19  2  0
  9 10  2  0
  9 14  1  0
 10 11  1  0
 11 12  2  0
 12 13  1  0
 12 18  1  0
 13 14  2  0
 13 15  1  0
 15 16  1  0
 16 17  1  0
 17 18  1  0
 19 20  1  0
M  END
