
     RDKit          3D

 40 43  0  0  0  0  0  0  0  0999 V2000
   -4.0430   -2.1060    2.4040 C   0  0  0  0  0  0  0  0  0  0  0  0
   -4.6920   -2.7540    1.2340 C   0  0  0  0  0  0  0  0  0  0  0  0
   -5.6740   -3.7190    1.5110 C   0  0  0  0  0  0  0  0  0  0  0  0
   -6.0090   -3.9790    2.8530 O   0  0  0  0  0  0  0  0  0  0  0  0
   -6.2780   -4.3800    0.4760 C   0  0  0  0  0  0  0  0  0  0  0  0
   -5.9300   -4.1060   -0.8270 C   0  0  0  0  0  0  0  0  0  0  0  0
   -4.9710   -3.1590   -1.0540 C   0  0  0  0  0  0  0  0  0  0  0  0
   -4.3140   -2.4450   -0.0300 C   0  0  0  0  0  0  0  0  0  0  0  0
   -3.3670   -1.4390   -0.3840 C   0  0  0  0  0  0  0  0  0  0  0  0
   -2.7670   -1.6280   -1.5180 O   0  0  0  0  0  0  0  0  0  0  0  0
   -2.9740   -0.2810    0.2760 N   0  0  0  0  0  0  0  0  0  0  0  0
   -1.9660    0.6350   -0.2520 C   0  0  1  0  0  0  0  0  0  0  0  0
   -2.4840    2.0440   -0.3080 C   0  0  0  0  0  0  0  0  0  0  0  0
   -3.9330    2.2840   -1.3230 S   0  0  0  0  0  0  0  0  0  0  0  0
   -3.7150    2.0540   -3.0410 C   0  0  0  0  0  0  0  0  0  0  0  0
   -3.3040    3.0930   -3.8450 C   0  0  0  0  0  0  0  0  0  0  0  0
   -3.1330    2.9480   -5.2080 C   0  0  0  0  0  0  0  0  0  0  0  0
   -3.3800    1.7190   -5.7940 C   0  0  0  0  0  0  0  0  0  0  0  0
   -3.7940    0.6580   -5.0030 C   0  0  0  0  0  0  0  0  0  0  0  0
   -3.9580    0.8380   -3.6310 C   0  0  0  0  0  0  0  0  0  0  0  0
   -0.7080    0.5570    0.5830 C   0  0  2  0  0  0  0  0  0  0  0  0
   -1.0390    0.9210    1.8870 O   0  0  0  0  0  0  0  0  0  0  0  0
    0.4040    1.4650    0.1170 C   0  0  0  0  0  0  0  0  0  0  0  0
    1.5590    1.3370    0.9510 N   0  0  2  0  0  0  0  0  0  0  0  0
    1.7700    2.5690    1.7380 C   0  0  0  0  0  0  0  0  0  0  0  0
    2.6860    2.3640    2.8950 C   0  0  1  0  0  0  0  0  0  0  0  0
    1.8900    1.8120    4.0420 C   0  0  0  0  0  0  0  0  0  0  0  0
    2.7610    1.3440    5.1840 C   0  0  0  0  0  0  0  0  0  0  0  0
    3.7470    0.3050    4.6920 C   0  0  0  0  0  0  0  0  0  0  0  0
    4.6440    1.0040    3.6900 C   0  0  0  0  0  0  0  0  0  0  0  0
    3.9160    1.6090    2.5380 C   0  0  1  0  0  0  0  0  0  0  0  0
    3.7020    0.5480    1.5010 C   0  0  0  0  0  0  0  0  0  0  0  0
    2.7980    1.0400    0.3500 C   0  0  1  0  0  0  0  0  0  0  0  0
    2.8410    0.0620   -0.7260 C   0  0  0  0  0  0  0  0  0  0  0  0
    1.7970   -0.5010   -1.1190 O   0  0  0  0  0  0  0  0  0  0  0  0
    4.0490   -0.3190   -1.3970 N   0  0  0  0  0  0  0  0  0  0  0  0
    4.0840   -1.2840   -2.4600 C   0  0  2  0  0  0  0  0  0  0  0  0
    3.5720   -2.6400   -2.0680 C   0  0  0  0  0  0  0  0  0  0  0  0
    5.5490   -1.4570   -2.8800 C   0  0  0  0  0  0  0  0  0  0  0  0
    3.3650   -0.7960   -3.7010 C   0  0  0  0  0  0  0  0  0  0  0  0
  1  2  1  0
  2  3  2  0
  2  8  1  0
  3  4  1  0
  3  5  1  0
  5  6  2  0
  6  7  1  0
  7  8  2  0
  8  9  1  0
  9 10  2  0
  9 11  1  0
 11 12  1  0
 12 13  1  1
 12 21  1  0
 13 14  1  0
 14 15  1  0
 15 16  2  0
 15 20  1  0
 16 17  1  0
 17 18  2  0
 18 19  1  0
 19 20  2  0
 21 22  1  1
 21 23  1  0
 24 23  1  6
 24 25  1  0
 24 33  1  0
 26 25  1  6
 26 27  1  0
 26 31  1  0
 27 28  1  0
 28 29  1  0
 29 30  1  0
 31 30  1  1
 31 32  1  0
 32 33  1  0
 33 34  1  6
 34 35  2  0
 34 36  1  0
 36 37  1  0
 37 38  1  1
 37 39  1  0
 37 40  1  0
M  CHG  1  24   1
M  END
