
     RDKit          3D

 40 44  0  0  0  0  0  0  0  0999 V2000
   -0.6790   -5.4050   -2.2420 C   0  0  0  0  0  0  0  0  0  0  0  0
   -0.3940   -4.2250   -1.5160 O   0  0  0  0  0  0  0  0  0  0  0  0
   -1.4710   -3.4550   -1.0600 C   0  0  0  0  0  0  0  0  0  0  0  0
   -2.7790   -3.8370   -1.3150 C   0  0  0  0  0  0  0  0  0  0  0  0
   -3.8100   -3.0700   -0.8610 C   0  0  0  0  0  0  0  0  0  0  0  0
   -3.6210   -1.8790   -0.1280 C   0  0  0  0  0  0  0  0  0  0  0  0
   -4.8050   -1.1510    0.2960 C   0  0  0  0  0  0  0  0  0  0  0  0
   -5.9460   -1.7480    0.2830 O   0  0  0  0  0  0  0  0  0  0  0  0
   -4.8640    0.1830    0.7380 N   0  0  0  0  0  0  0  0  0  0  0  0
   -6.1090    0.7870    1.1480 C   0  0  0  0  0  0  0  0  0  0  0  0
   -6.4380    0.7300    2.4800 C   0  0  0  0  0  0  0  0  0  0  0  0
   -5.3410   -0.0580    3.6010 Cl  0  0  0  0  0  0  0  0  0  0  0  0
   -7.6120    1.2830    2.9540 C   0  0  0  0  0  0  0  0  0  0  0  0
   -8.0320    1.2070    4.6650 Cl  0  0  0  0  0  0  0  0  0  0  0  0
   -8.4790    1.9090    2.0770 C   0  0  0  0  0  0  0  0  0  0  0  0
   -8.1690    1.9770    0.7350 C   0  0  0  0  0  0  0  0  0  0  0  0
   -8.8060    2.5170   -0.3750 C   0  0  0  0  0  0  0  0  0  0  0  0
   -7.9950    2.2690   -1.4640 C   0  0  0  0  0  0  0  0  0  0  0  0
   -6.8960    1.5990   -1.0420 N   0  0  0  0  0  0  0  0  0  0  0  0
   -6.9750    1.4100    0.2840 C   0  0  0  0  0  0  0  0  0  0  0  0
   -2.3180   -1.5450    0.0960 C   0  0  0  0  0  0  0  0  0  0  0  0
   -1.9730   -0.3410    0.8260 C   0  0  0  0  0  0  0  0  0  0  0  0
   -1.8720   -0.4060    2.0730 O   0  0  0  0  0  0  0  0  0  0  0  0
   -1.2390   -2.3120   -0.3570 C   0  0  0  0  0  0  0  0  0  0  0  0
    0.0490   -1.8880   -0.0750 O   0  0  0  0  0  0  0  0  0  0  0  0
    0.6960   -1.0330   -0.9850 C   0  0  0  0  0  0  0  0  0  0  0  0
    2.0720   -0.6740   -0.5000 C   0  0  0  0  0  0  0  0  0  0  0  0
    2.4100   -1.1740    0.5950 O   0  0  0  0  0  0  0  0  0  0  0  0
    2.8990    0.1730   -1.2560 N   0  0  0  0  0  0  0  0  0  0  0  0
    4.1970    0.5160   -0.8070 C   0  0  0  0  0  0  0  0  0  0  0  0
    4.9350    0.1990    0.2870 C   0  0  0  0  0  0  0  0  0  0  0  0
    6.1720    0.7190    0.4060 C   0  0  0  0  0  0  0  0  0  0  0  0
    7.0680    0.4890    1.4840 C   0  0  0  0  0  0  0  0  0  0  0  0
    8.2900    1.0790    1.4810 C   0  0  0  0  0  0  0  0  0  0  0  0
    8.7670    1.9100    0.4970 C   0  0  0  0  0  0  0  0  0  0  0  0
   10.0920    2.5390    0.5110 C   0  0  0  0  0  0  0  0  0  0  0  0
    7.8980    2.1420   -0.5640 C   0  0  0  0  0  0  0  0  0  0  0  0
    8.2960    3.0280   -1.6950 C   0  0  0  0  0  0  0  0  0  0  0  0
    6.6420    1.5340   -0.5550 C   0  0  0  0  0  0  0  0  0  0  0  0
    5.2850    1.6040   -1.7300 S   0  0  0  0  0  0  0  0  0  0  0  0
  1  2  1  0
  2  3  1  0
  3  4  2  0
  3 24  1  0
  4  5  1  0
  5  6  2  0
  6  7  1  0
  6 21  1  0
  7  8  2  0
  7  9  1  0
  9 10  1  0
 10 11  2  0
 10 20  1  0
 11 12  1  0
 11 13  1  0
 13 14  1  0
 13 15  2  0
 15 16  1  0
 16 17  1  0
 16 20  2  0
 17 18  2  0
 18 19  1  0
 19 20  1  0
 21 22  1  0
 21 24  2  0
 22 23  2  0
 24 25  1  0
 25 26  1  0
 26 27  1  0
 27 28  2  0
 27 29  1  0
 29 30  1  0
 30 31  2  0
 30 40  1  0
 31 32  1  0
 32 33  2  0
 32 39  1  0
 33 34  1  0
 34 35  2  0
 35 36  1  0
 35 37  1  0
 37 38  1  0
 37 39  2  0
 39 40  1  0
M  END
