
     RDKit          3D

 40 44  0  0  0  0  0  0  0  0999 V2000
    7.6790    3.1370    0.3550 C   0  0  0  0  0  0  0  0  0  0  0  0
    7.9590    2.6110   -0.8390 C   0  0  0  0  0  0  0  0  0  0  0  0
    9.3750    2.5020   -1.3300 C   0  0  0  0  0  0  0  0  0  0  0  0
    8.9920    2.7160   -3.1250 S   0  0  0  0  0  0  0  0  0  0  0  0
    7.3270    2.0720   -3.0250 C   0  0  0  0  0  0  0  0  0  0  0  0
    6.9950    2.1070   -1.7610 C   0  0  0  0  0  0  0  0  0  0  0  0
    5.6840    1.6450   -1.3370 N   0  0  0  0  0  0  0  0  0  0  0  0
    5.5980    0.5710   -0.4210 C   0  0  0  0  0  0  0  0  0  0  0  0
    6.6980    0.0670   -0.0150 O   0  0  0  0  0  0  0  0  0  0  0  0
    4.3420    0.0430    0.0550 C   0  0  0  0  0  0  0  0  0  0  0  0
    4.3360   -0.9540    1.0130 C   0  0  0  0  0  0  0  0  0  0  0  0
    3.1350   -1.4670    1.4700 C   0  0  0  0  0  0  0  0  0  0  0  0
    1.9020   -1.0090    0.9940 C   0  0  0  0  0  0  0  0  0  0  0  0
    0.7140   -1.5200    1.4510 O   0  0  0  0  0  0  0  0  0  0  0  0
   -0.1270   -2.1950    0.6020 C   0  0  0  0  0  0  0  0  0  0  0  0
    0.1790   -2.4570   -0.7160 C   0  0  0  0  0  0  0  0  0  0  0  0
   -0.7150   -3.1430   -1.5310 C   0  0  0  0  0  0  0  0  0  0  0  0
   -0.2880   -3.4540   -3.1910 Cl  0  0  0  0  0  0  0  0  0  0  0  0
   -1.9100   -3.5510   -0.9830 C   0  0  0  0  0  0  0  0  0  0  0  0
   -2.2460   -3.3060    0.3270 C   0  0  0  0  0  0  0  0  0  0  0  0
   -1.3560   -2.6270    1.1260 C   0  0  0  0  0  0  0  0  0  0  0  0
   -1.6170   -2.3340    2.4730 O   0  0  0  0  0  0  0  0  0  0  0  0
   -2.7800   -2.6730    3.1460 C   0  0  0  0  0  0  0  0  0  0  0  0
   -4.0220   -2.0390    2.6020 C   0  0  0  0  0  0  0  0  0  0  0  0
   -5.1120   -2.4160    3.0830 O   0  0  0  0  0  0  0  0  0  0  0  0
   -4.0140   -1.0700    1.6100 N   0  0  0  0  0  0  0  0  0  0  0  0
   -5.1100   -0.4010    1.0100 C   0  0  0  0  0  0  0  0  0  0  0  0
   -6.4220   -0.5980    1.3390 C   0  0  0  0  0  0  0  0  0  0  0  0
   -7.4780    0.0850    0.7190 C   0  0  0  0  0  0  0  0  0  0  0  0
   -7.2300    1.0030   -0.2660 C   0  0  0  0  0  0  0  0  0  0  0  0
   -8.0130    1.8010   -1.0320 N   0  0  0  0  0  0  0  0  0  0  0  0
   -7.2290    2.5190   -1.8590 C   0  0  0  0  0  0  0  0  0  0  0  0
   -5.9330    2.1690   -1.6110 C   0  0  0  0  0  0  0  0  0  0  0  0
   -4.7580    2.6980   -2.2760 C   0  0  0  0  0  0  0  0  0  0  0  0
   -3.5920    2.3360   -2.0050 O   0  0  0  0  0  0  0  0  0  0  0  0
   -5.9120    1.2060   -0.6020 C   0  0  0  0  0  0  0  0  0  0  0  0
   -4.8750    0.5420   -0.0010 C   0  0  0  0  0  0  0  0  0  0  0  0
    1.9580   -0.0150    0.0420 C   0  0  0  0  0  0  0  0  0  0  0  0
    0.4670    0.6410   -0.5830 Cl  0  0  0  0  0  0  0  0  0  0  0  0
    3.1440    0.4960   -0.4150 C   0  0  0  0  0  0  0  0  0  0  0  0
  1  2  2  0
  2  3  1  0
  2  6  1  0
  3  4  1  0
  4  5  1  0
  5  6  2  0
  6  7  1  0
  7  8  1  0
  8  9  2  0
  8 10  1  0
 10 11  2  0
 10 40  1  0
 11 12  1  0
 12 13  2  0
 13 14  1  0
 13 38  1  0
 14 15  1  0
 15 16  2  0
 15 21  1  0
 16 17  1  0
 17 18  1  0
 17 19  2  0
 19 20  1  0
 20 21  2  0
 21 22  1  0
 22 23  1  0
 23 24  1  0
 24 25  2  0
 24 26  1  0
 26 27  1  0
 27 28  2  0
 27 37  1  0
 28 29  1  0
 29 30  2  0
 30 31  1  0
 30 36  1  0
 31 32  1  0
 32 33  2  0
 33 34  1  0
 33 36  1  0
 34 35  2  0
 36 37  2  0
 38 39  1  0
 38 40  2  0
M  END
