
     RDKit          3D

 10 10  0  0  0  0  0  0  0  0999 V2000
    2.9510    0.4650    0.1530 N   0  0  0  0  0  0  0  0  0  0  0  0
    1.7880   -0.0970    0.8140 C   0  0  0  0  0  0  0  0  0  0  0  0
    0.6320   -0.0770   -0.1580 C   0  0  0  0  0  0  0  0  0  0  0  0
   -0.6140   -0.6570    0.4890 C   0  0  1  0  0  0  0  0  0  0  0  0
   -0.4280   -1.9540    0.8870 O   0  0  0  0  0  0  0  0  0  0  0  0
   -1.1000    0.2510    1.6090 C   0  0  0  0  0  0  0  0  0  0  0  0
   -1.5340    1.3570    0.9210 O   0  0  0  0  0  0  0  0  0  0  0  0
   -2.0890    0.9590   -0.2680 C   0  0  0  0  0  0  0  0  0  0  0  0
   -1.7900   -0.5080   -0.4580 C   0  0  1  0  0  0  0  0  0  0  0  0
   -1.4910   -0.8550   -1.7460 O   0  0  0  0  0  0  0  0  0  0  0  0
  1  2  1  0
  2  3  1  0
  3  4  1  0
  4  5  1  1
  4  6  1  0
  4  9  1  0
  6  7  1  0
  7  8  1  0
  8  9  1  0
  9 10  1  6
M  CHG  1   1   1
M  END
