
     RDKit          3D

 10 10  0  0  0  0  0  0  0  0999 V2000
   -1.6430    1.6250   -0.1290 N   0  0  0  0  0  0  0  0  0  0  0  0
   -1.0470    0.4460    0.4570 C   0  0  1  0  0  0  0  0  0  0  0  0
   -2.1180   -0.6230    0.4940 C   0  0  0  0  0  0  0  0  0  0  0  0
   -2.5590   -0.8900   -0.7960 O   0  0  0  0  0  0  0  0  0  0  0  0
    0.1520   -0.0420   -0.3160 C   0  0  1  0  0  0  0  0  0  0  0  0
    1.1560    1.0300   -0.5710 C   0  0  0  0  0  0  0  0  0  0  0  0
    2.4200    0.5750   -0.8290 O   0  0  0  0  0  0  0  0  0  0  0  0
    2.8480   -0.4370    0.0110 C   0  0  0  0  0  0  0  0  0  0  0  0
    1.8680   -1.5900   -0.1490 C   0  0  0  0  0  0  0  0  0  0  0  0
    0.6490   -1.1610    0.3140 O   0  0  0  0  0  0  0  0  0  0  0  0
  2  1  1  6
  2  3  1  0
  2  5  1  0
  3  4  1  0
  5  6  1  1
  5 10  1  0
  6  7  1  0
  7  8  1  0
  8  9  1  0
  9 10  1  0
M  CHG  1   1   1
M  END
