
     RDKit          3D

 22 22  0  0  0  0  0  0  0  0999 V2000
   -2.4750   -1.8300    1.8730 C   0  0  0  0  0  0  0  0  0  0  0  0
   -2.1580   -1.8690    0.5730 C   0  0  0  0  0  0  0  0  0  0  0  0
   -2.8960   -2.8790   -0.2340 C   0  0  0  0  0  0  0  0  0  0  0  0
   -1.2200   -0.9400    0.0270 C   0  0  0  0  0  0  0  0  0  0  0  0
   -0.7990   -0.9530   -1.2010 C   0  0  0  0  0  0  0  0  0  0  0  0
   -1.1270   -1.8430   -2.2920 C   0  0  0  0  0  0  0  0  0  0  0  0
   -0.6400    0.1180    0.9740 C   0  0  2  0  0  0  0  0  0  0  0  0
   -1.5440    1.2920    1.0040 C   0  0  0  0  0  0  0  0  0  0  0  0
   -2.8910    1.2520    1.6170 C   0  0  0  0  0  0  0  0  0  0  0  0
   -0.9350    2.2990    0.4300 C   0  0  0  0  0  0  0  0  0  0  0  0
   -1.4240    3.6640    0.2160 C   0  0  0  0  0  0  0  0  0  0  0  0
   -2.7200    4.2130    0.5740 C   0  0  0  0  0  0  0  0  0  0  0  0
   -0.6360    4.5200   -0.3630 O   0  0  0  0  0  0  0  0  0  0  0  0
    0.4160    1.8820   -0.0130 C   0  0  0  0  0  0  0  0  0  0  0  0
    1.3670    2.8300   -0.7150 C   0  0  0  0  0  0  0  0  0  0  0  0
    0.6030    0.6510    0.2900 C   0  0  0  0  0  0  0  0  0  0  0  0
    1.7800   -0.2250    0.0890 C   0  0  0  0  0  0  0  0  0  0  0  0
    1.6490   -1.4300    0.5130 O   0  0  0  0  0  0  0  0  0  0  0  0
    3.0410    0.1040   -0.5180 C   0  0  0  0  0  0  0  0  0  0  0  0
    3.9660   -1.1310   -0.4490 C   0  0  2  0  0  0  0  0  0  0  0  0
    3.3310   -2.2840   -1.1920 C   0  0  0  0  0  0  0  0  0  0  0  0
    4.2700   -1.4950    0.9730 C   0  0  0  0  0  0  0  0  0  0  0  0
  1  2  2  0
  2  3  1  0
  2  4  1  0
  4  5  2  3
  7  4  1  6
  5  6  1  0
  7  8  1  0
  7 16  1  0
  8  9  1  0
  8 10  2  0
 10 11  1  0
 10 14  1  0
 11 12  1  0
 11 13  2  0
 14 15  1  0
 14 16  2  0
 16 17  1  0
 17 18  2  0
 17 19  1  0
 19 20  1  0
 20 21  1  1
 20 22  1  0
M  END
