
     RDKit          3D

 10 10  0  0  0  0  0  0  0  0999 V2000
    0.5290    2.2790   -0.1770 O   0  0  0  0  0  0  0  0  0  0  0  0
   -0.7200    1.6660   -0.1670 C   0  0  0  0  0  0  0  0  0  0  0  0
   -0.5910    0.1400   -0.1230 C   0  0  2  0  0  0  0  0  0  0  0  0
   -2.0000   -0.4120   -0.0470 C   0  0  0  0  0  0  0  0  0  0  0  0
   -1.9260   -1.8020    0.0730 O   0  0  0  0  0  0  0  0  0  0  0  0
    0.1740   -0.2450    1.1230 C   0  0  0  0  0  0  0  0  0  0  0  0
    1.5430   -0.5980    0.6400 C   0  0  2  0  0  0  0  0  0  0  0  0
    2.4510    0.4240    0.9320 O   0  0  0  0  0  0  0  0  0  0  0  0
    1.4040   -0.8270   -0.8310 C   0  0  0  0  0  0  0  0  0  0  0  0
    0.1180   -0.3830   -1.2440 N   0  0  0  0  0  0  0  0  0  0  0  0
  1  2  1  0
  3  2  1  6
  3  4  1  0
  3  6  1  0
  3 10  1  0
  4  5  1  0
  6  7  1  0
  7  8  1  6
  7  9  1  0
  9 10  1  0
M  CHG  1  10   1
M  END
