
     RDKit          3D

 10 10  0  0  0  0  0  0  0  0999 V2000
   -2.8990    0.2400    0.1190 N   0  0  0  0  0  0  0  0  0  0  0  0
   -1.5330    0.5150   -0.3310 C   0  0  1  0  0  0  0  0  0  0  0  0
   -0.7500    1.2200    0.7480 C   0  0  0  0  0  0  0  0  0  0  0  0
    0.5600    1.3200    0.3210 O   0  0  0  0  0  0  0  0  0  0  0  0
    1.2260    0.1240    0.3130 C   0  0  2  0  0  0  0  0  0  0  0  0
    2.4720    0.2790   -0.5340 C   0  0  0  0  0  0  0  0  0  0  0  0
    3.2930    1.2650   -0.0100 O   0  0  0  0  0  0  0  0  0  0  0  0
    0.4130   -1.0560   -0.0860 C   0  0  2  0  0  0  0  0  0  0  0  0
    1.1650   -1.8920   -0.9150 O   0  0  0  0  0  0  0  0  0  0  0  0
   -0.8520   -0.7130   -0.8260 C   0  0  0  0  0  0  0  0  0  0  0  0
  2  1  1  1
  2  3  1  0
  2 10  1  0
  3  4  1  0
  4  5  1  0
  5  6  1  6
  5  8  1  0
  6  7  1  0
  8  9  1  6
  8 10  1  0
M  CHG  1   1   1
M  END
