
     RDKit          3D

 17 18  0  0  0  0  0  0  0  0999 V2000
   -2.7630    3.0390    0.2410 C   0  0  0  0  0  0  0  0  0  0  0  0
   -2.1960    1.6740    0.0400 C   0  0  0  0  0  0  0  0  0  0  0  0
   -2.9360    0.5540    0.2620 C   0  0  0  0  0  0  0  0  0  0  0  0
   -2.3740   -0.6770    0.0650 C   0  0  0  0  0  0  0  0  0  0  0  0
   -3.1840   -1.8970    0.3080 C   0  0  0  0  0  0  0  0  0  0  0  0
   -1.0490   -0.8100   -0.3620 C   0  0  0  0  0  0  0  0  0  0  0  0
   -0.5610   -2.0670   -0.5350 O   0  0  0  0  0  0  0  0  0  0  0  0
   -0.2870    0.3200   -0.5900 C   0  0  0  0  0  0  0  0  0  0  0  0
    1.0740    0.3100   -1.0270 C   0  0  0  0  0  0  0  0  0  0  0  0
    1.6710    1.4280   -1.2030 O   0  0  0  0  0  0  0  0  0  0  0  0
    1.8790   -0.8260   -1.3010 N   0  0  0  0  0  0  0  0  0  0  0  0
    2.9590   -0.9370   -0.5870 C   0  0  0  0  0  0  0  0  0  0  0  0
    3.4590   -0.1890    0.3540 N   0  0  0  0  0  0  0  0  0  0  0  0
    4.5830   -0.4970    0.9500 C   0  0  0  0  0  0  0  0  0  0  0  0
    5.2370   -1.6400    0.5590 C   0  0  0  0  0  0  0  0  0  0  0  0
    4.1370   -2.2630   -0.7300 S   0  0  0  0  0  0  0  0  0  0  0  0
   -0.9070    1.5520   -0.3740 C   0  0  0  0  0  0  0  0  0  0  0  0
  1  2  1  0
  2  3  2  0
  2 17  1  0
  3  4  1  0
  4  5  1  0
  4  6  2  0
  6  7  1  0
  6  8  1  0
  8  9  1  0
  8 17  2  0
  9 10  2  0
  9 11  1  0
 11 12  2  3
 12 13  1  0
 12 16  1  0
 13 14  1  0
 14 15  2  0
 15 16  1  0
M  END
