
     RDKit          3D

 16 17  0  0  0  0  0  0  0  0999 V2000
   -3.6460   -0.8480   -0.1890 C   0  0  0  0  0  0  0  0  0  0  0  0
   -3.1740    0.5830   -0.2040 C   0  0  1  0  0  0  0  0  0  0  0  0
   -3.9380    1.4550    0.7480 C   0  0  0  0  0  0  0  0  0  0  0  0
   -1.7170    0.5720    0.1260 C   0  0  0  0  0  0  0  0  0  0  0  0
   -1.3440    1.1960    1.1410 O   0  0  0  0  0  0  0  0  0  0  0  0
   -0.7660   -0.1080   -0.6560 N   0  0  0  0  0  0  0  0  0  0  0  0
    0.6050   -0.1870   -0.4460 C   0  0  0  0  0  0  0  0  0  0  0  0
    1.3940   -0.9060   -1.3310 C   0  0  0  0  0  0  0  0  0  0  0  0
    2.7370   -1.0480   -1.2210 C   0  0  0  0  0  0  0  0  0  0  0  0
    3.4550   -0.4570   -0.1680 C   0  0  0  0  0  0  0  0  0  0  0  0
    4.7350   -0.5160    0.0490 N   0  0  0  0  0  0  0  0  0  0  0  0
    5.3270    0.0750    1.0720 C   0  0  0  0  0  0  0  0  0  0  0  0
    6.4490    0.1750    1.4880 O   0  0  0  0  0  0  0  0  0  0  0  0
    3.8580    0.8720    1.9090 S   0  0  0  0  0  0  0  0  0  0  0  0
    2.6650    0.2540    0.7020 C   0  0  0  0  0  0  0  0  0  0  0  0
    1.2950    0.4010    0.5940 C   0  0  0  0  0  0  0  0  0  0  0  0
  2  1  1  1
  2  3  1  0
  2  4  1  0
  4  5  2  0
  4  6  1  0
  6  7  1  0
  7  8  2  0
  7 16  1  0
  8  9  1  0
  9 10  2  0
 10 11  1  0
 10 15  1  0
 11 12  1  0
 12 13  2  0
 12 14  1  0
 14 15  1  0
 15 16  2  0
M  END
