
     RDKit          3D

 17 18  0  0  0  0  0  0  0  0999 V2000
   -0.7350    3.7170   -0.0160 C   0  0  0  0  0  0  0  0  0  0  0  0
   -0.2620    3.1670    1.0550 C   0  0  0  0  0  0  0  0  0  0  0  0
    0.0210    1.7590    1.2700 C   0  0  0  0  0  0  0  0  0  0  0  0
    0.5580    1.4880    2.4720 C   0  0  0  0  0  0  0  0  0  0  0  0
    0.9100    0.1420    2.8990 C   0  0  0  0  0  0  0  0  0  0  0  0
    2.3440    0.0030    3.1670 N   0  0  0  0  0  0  0  0  0  0  0  0
   -0.1190    0.7450    0.2870 N   0  0  0  0  0  0  0  0  0  0  0  0
    0.7550   -0.2510    0.0850 N   0  0  0  0  0  0  0  0  0  0  0  0
    0.2830   -1.1260   -0.8140 C   0  0  0  0  0  0  0  0  0  0  0  0
    0.8030   -2.3060   -1.3540 C   0  0  0  0  0  0  0  0  0  0  0  0
    0.0180   -2.9600   -2.2800 C   0  0  0  0  0  0  0  0  0  0  0  0
   -1.2170   -2.5080   -2.6780 C   0  0  0  0  0  0  0  0  0  0  0  0
   -2.0170   -3.1510   -3.6040 O   0  0  0  0  0  0  0  0  0  0  0  0
   -1.6700   -1.3380   -2.1070 C   0  0  0  0  0  0  0  0  0  0  0  0
   -0.9400   -0.6400   -1.1820 C   0  0  0  0  0  0  0  0  0  0  0  0
   -1.1960    0.5490   -0.4810 C   0  0  0  0  0  0  0  0  0  0  0  0
   -2.2710    1.2170   -0.6210 O   0  0  0  0  0  0  0  0  0  0  0  0
  1  2  2  0
  2  3  1  0
  3  4  2  3
  3  7  1  0
  4  5  1  0
  5  6  1  0
  7  8  1  0
  7 16  1  0
  8  9  1  0
  9 10  2  0
  9 15  1  0
 10 11  1  0
 11 12  2  0
 12 13  1  0
 12 14  1  0
 14 15  2  0
 15 16  1  0
 16 17  2  0
M  END
