
     RDKit          3D

 17 18  0  0  0  0  0  0  0  0999 V2000
    4.3460   -0.4720    0.2320 C   0  0  0  0  0  0  0  0  0  0  0  0
    3.4260   -0.1650   -1.3080 S   0  0  0  0  0  0  0  0  0  0  0  0
    1.7560    0.3280   -0.7950 C   0  0  0  0  0  0  0  0  0  0  0  0
    1.5260    1.6120   -0.5870 N   0  0  0  0  0  0  0  0  0  0  0  0
    0.3000    1.9860   -0.2090 C   0  0  0  0  0  0  0  0  0  0  0  0
   -0.0380    3.4170    0.0460 C   0  0  0  0  0  0  0  0  0  0  0  0
   -0.7350    1.0690   -0.0300 C   0  0  0  0  0  0  0  0  0  0  0  0
   -0.4880   -0.2480   -0.2450 C   0  0  0  0  0  0  0  0  0  0  0  0
    0.7760   -0.6520   -0.6380 C   0  0  0  0  0  0  0  0  0  0  0  0
    1.1450   -2.0110   -0.9140 C   0  0  0  0  0  0  0  0  0  0  0  0
    0.3190   -3.1610   -0.9090 N   0  0  0  0  0  0  0  0  0  0  0  0
    2.3650   -2.2890   -1.2110 O   0  0  0  0  0  0  0  0  0  0  0  0
   -1.5390   -1.2660   -0.0450 C   0  0  0  0  0  0  0  0  0  0  0  0
   -2.7180   -0.8710    0.7550 C   0  0  0  0  0  0  0  0  0  0  0  0
   -3.0340    0.5530    0.9180 C   0  0  0  0  0  0  0  0  0  0  0  0
   -2.0560    1.4930    0.3560 C   0  0  0  0  0  0  0  0  0  0  0  0
   -2.4110    2.6850    0.2210 O   0  0  0  0  0  0  0  0  0  0  0  0
  1  2  1  0
  2  3  1  0
  3  4  2  0
  3  9  1  0
  4  5  1  0
  5  6  1  0
  5  7  2  0
  7  8  1  0
  7 16  1  0
  8  9  2  0
  8 13  1  0
  9 10  1  0
 10 11  1  0
 10 12  2  0
 13 14  1  0
 14 15  1  0
 15 16  1  0
 16 17  2  0
M  END
