
     RDKit          3D

 17 18  0  0  0  0  0  0  0  0999 V2000
   -5.1000    0.7250    0.4310 C   0  0  0  0  0  0  0  0  0  0  0  0
   -4.1420   -0.3480    0.6280 N   0  0  0  0  0  0  0  0  0  0  0  0
   -3.1620   -0.5570   -0.3940 C   0  0  0  0  0  0  0  0  0  0  0  0
   -3.1820    0.1870   -1.4020 O   0  0  0  0  0  0  0  0  0  0  0  0
   -2.1470   -1.6440   -0.2360 C   0  0  0  0  0  0  0  0  0  0  0  0
   -0.7730   -1.0760   -0.1930 C   0  0  0  0  0  0  0  0  0  0  0  0
    0.2810   -1.9680   -0.1020 C   0  0  0  0  0  0  0  0  0  0  0  0
    1.5740   -1.4670   -0.0500 C   0  0  0  0  0  0  0  0  0  0  0  0
    2.5410   -2.2870    0.0330 O   0  0  0  0  0  0  0  0  0  0  0  0
    1.7770   -0.1210   -0.0890 C   0  0  0  0  0  0  0  0  0  0  0  0
    3.1400    0.3900   -0.0220 C   0  0  0  0  0  0  0  0  0  0  0  0
    3.6040    1.6610   -0.0320 C   0  0  0  0  0  0  0  0  0  0  0  0
    4.9140    1.9090    0.0460 C   0  0  0  0  0  0  0  0  0  0  0  0
    5.7520    0.7730    0.1360 C   0  0  0  0  0  0  0  0  0  0  0  0
    4.6080   -0.5730    0.1040 S   0  0  0  0  0  0  0  0  0  0  0  0
    0.7220    0.7440   -0.1800 C   0  0  0  0  0  0  0  0  0  0  0  0
   -0.5270    0.2390   -0.2300 N   0  0  0  0  0  0  0  0  0  0  0  0
  1  2  1  0
  2  3  1  0
  3  4  2  0
  3  5  1  0
  5  6  1  0
  6  7  2  0
  6 17  1  0
  7  8  1  0
  8  9  2  0
  8 10  1  0
 10 11  1  0
 10 16  2  0
 11 12  2  0
 11 15  1  0
 12 13  1  0
 13 14  2  0
 14 15  1  0
 16 17  1  0
M  END
