
     RDKit          3D

 17 18  0  0  0  0  0  0  0  0999 V2000
   -3.2450   -0.1390   -1.1920 C   0  0  0  0  0  0  0  0  0  0  0  0
   -2.7550    0.1060    0.1380 N   0  0  0  0  0  0  0  0  0  0  0  0
   -3.6420    0.8350    1.0380 C   0  0  0  0  0  0  0  0  0  0  0  0
   -1.4760   -0.3450    0.5390 C   0  0  0  0  0  0  0  0  0  0  0  0
   -1.3670   -1.2890    1.5350 C   0  0  0  0  0  0  0  0  0  0  0  0
   -0.1310   -1.7610    1.9450 C   0  0  0  0  0  0  0  0  0  0  0  0
    0.9670   -1.2250    1.2930 C   0  0  0  0  0  0  0  0  0  0  0  0
    0.9040   -0.2890    0.3030 C   0  0  0  0  0  0  0  0  0  0  0  0
    2.0680    0.1700   -0.2670 C   0  0  0  0  0  0  0  0  0  0  0  0
    3.5990   -0.4220    0.2480 S   0  0  2  0  0  0  0  0  0  0  0  0
    4.8430    0.3710   -0.6820 N   0  0  0  0  0  0  0  0  0  0  0  0
    3.7720   -1.8920    0.0260 O   0  0  0  0  0  0  0  0  0  0  0  0
    3.8960   -0.1130    1.6940 O   0  0  0  0  0  0  0  0  0  0  0  0
    1.9350    1.1220   -1.2660 C   0  0  0  0  0  0  0  0  0  0  0  0
    0.7140    1.5890   -1.6710 C   0  0  0  0  0  0  0  0  0  0  0  0
   -0.4160    1.1060   -1.0770 C   0  0  0  0  0  0  0  0  0  0  0  0
   -0.3620    0.1620   -0.0830 C   0  0  0  0  0  0  0  0  0  0  0  0
  1  2  1  0
  2  3  1  0
  2  4  1  0
  4  5  2  0
  4 17  1  0
  5  6  1  0
  6  7  2  0
  7  8  1  0
  8  9  2  0
  8 17  1  0
  9 10  1  0
  9 14  1  0
 10 11  1  6
 10 12  2  0
 10 13  2  0
 14 15  2  0
 15 16  1  0
 16 17  2  0
M  END
