
     RDKit          3D

 25 26  0  0  0  0  0  0  0  0999 V2000
   -2.2350    2.7730   -3.2310 C   0  0  0  0  0  0  0  0  0  0  0  0
   -1.7580    1.8770   -2.1600 C   0  0  0  0  0  0  0  0  0  0  0  0
   -0.0630    1.6040   -1.7660 S   0  0  0  0  0  0  0  0  0  0  0  0
   -0.3330    0.4700   -0.4470 C   0  0  0  0  0  0  0  0  0  0  0  0
    0.5710   -0.1910    0.3720 C   0  0  0  0  0  0  0  0  0  0  0  0
    1.9820    0.0640    0.1370 C   0  0  0  0  0  0  0  0  0  0  0  0
    2.3680    0.8530   -0.7780 O   0  0  0  0  0  0  0  0  0  0  0  0
    3.0140   -0.5360    0.8930 N   0  0  0  0  0  0  0  0  0  0  0  0
    4.4010   -0.2480    0.6180 C   0  0  1  0  0  0  0  0  0  0  0  0
    5.1140    0.3700    1.7870 C   0  0  0  0  0  0  0  0  0  0  0  0
    6.4370    0.6050    1.4160 O   0  0  0  0  0  0  0  0  0  0  0  0
    5.1410   -1.4900    0.1980 C   0  0  2  0  0  0  0  0  0  0  0  0
    5.1100   -2.4670    1.1760 F   0  0  0  0  0  0  0  0  0  0  0  0
    6.4110   -1.2330   -0.2290 F   0  0  0  0  0  0  0  0  0  0  0  0
    0.1210   -1.0140    1.3230 N   0  0  0  0  0  0  0  0  0  0  0  0
   -1.1970   -1.1490    1.4240 C   0  0  0  0  0  0  0  0  0  0  0  0
   -1.5940   -1.9440    2.3430 O   0  0  0  0  0  0  0  0  0  0  0  0
   -2.1260   -0.5100    0.6290 C   0  0  0  0  0  0  0  0  0  0  0  0
   -3.5070   -0.8160    0.9240 C   0  0  0  0  0  0  0  0  0  0  0  0
   -4.1430   -0.1210    1.7380 O   0  0  0  0  0  0  0  0  0  0  0  0
   -4.1750   -1.9550    0.2700 C   0  0  0  0  0  0  0  0  0  0  0  0
   -5.9200   -2.0730    0.7760 S   0  0  0  0  0  0  0  0  0  0  0  0
   -1.6800    0.3650   -0.3820 C   0  0  0  0  0  0  0  0  0  0  0  0
   -2.4240    1.0770   -1.2490 C   0  0  0  0  0  0  0  0  0  0  0  0
   -3.9470    1.0930   -1.3150 C   0  0  0  0  0  0  0  0  0  0  0  0
  1  2  1  0
  2  3  1  0
  2 24  2  0
  3  4  1  0
  4  5  2  0
  4 23  1  0
  5  6  1  0
  5 15  1  0
  6  7  2  0
  6  8  1  0
  8  9  1  0
  9 10  1  1
  9 12  1  0
 10 11  1  0
 12 13  1  1
 12 14  1  0
 15 16  1  0
 16 17  2  0
 16 18  1  0
 18 19  1  0
 18 23  2  0
 19 20  2  0
 19 21  1  0
 21 22  1  0
 23 24  1  0
 24 25  1  0
M  END
