
     RDKit          3D

 17 17  0  0  0  0  0  0  0  0999 V2000
    4.8240   -1.7070    2.0770 C   0  0  0  0  0  0  0  0  0  0  0  0
    3.5190   -1.0370    1.8590 C   0  0  0  0  0  0  0  0  0  0  0  0
    2.4100   -1.4400    2.6890 C   0  0  0  0  0  0  0  0  0  0  0  0
    1.5080   -1.7680    3.3430 N   0  0  0  0  0  0  0  0  0  0  0  0
    3.3960   -0.1060    0.9310 C   0  0  0  0  0  0  0  0  0  0  0  0
    4.5440    0.2490    0.1370 C   0  0  0  0  0  0  0  0  0  0  0  0
    4.4510    1.1490   -0.7700 N   0  0  0  0  0  0  0  0  0  0  0  0
    2.1940    0.5410    0.6990 O   0  0  0  0  0  0  0  0  0  0  0  0
    1.2560   -0.1180   -0.1220 C   0  0  0  0  0  0  0  0  0  0  0  0
   -0.0140    0.6930   -0.2960 C   0  0  2  0  0  0  0  0  0  0  0  0
   -0.5570    0.8800    0.9610 O   0  0  0  0  0  0  0  0  0  0  0  0
   -0.9020   -0.1170   -1.2090 C   0  0  0  0  0  0  0  0  0  0  0  0
   -2.1770    0.4590   -1.4410 N   0  0  0  0  0  0  0  0  0  0  0  0
   -3.2100    0.0250   -0.5370 C   0  0  2  0  0  0  0  0  0  0  0  0
   -4.5750    0.0360   -1.1970 C   0  0  0  0  0  0  0  0  0  0  0  0
   -5.0960    0.8770   -0.0770 C   0  0  0  0  0  0  0  0  0  0  0  0
   -3.6620    1.1480    0.3460 C   0  0  0  0  0  0  0  0  0  0  0  0
  1  2  1  0
  2  3  1  0
  2  5  2  3
  3  4  3  0
  5  6  1  0
  5  8  1  0
  6  7  2  0
  8  9  1  0
  9 10  1  0
 10 11  1  1
 10 12  1  0
 12 13  1  0
 14 13  1  6
 14 15  1  0
 14 17  1  0
 15 16  1  0
 16 17  1  0
M  CHG  1  13   1
M  END
