
     RDKit          3D

 17 17  0  0  0  0  0  0  0  0999 V2000
    5.2850    1.2520   -0.9260 C   0  0  0  0  0  0  0  0  0  0  0  0
    4.9300    0.2280   -0.1620 C   0  0  0  0  0  0  0  0  0  0  0  0
    3.5190   -0.2120   -0.0670 C   0  0  0  0  0  0  0  0  0  0  0  0
    2.6040    0.6230   -0.9130 C   0  0  0  0  0  0  0  0  0  0  0  0
    1.1410    0.1660   -0.8020 C   0  0  1  0  0  0  0  0  0  0  0  0
    1.1450   -1.1580   -1.2310 O   0  0  0  0  0  0  0  0  0  0  0  0
    0.6710    0.3380    0.5820 C   0  0  0  0  0  0  0  0  0  0  0  0
    1.2530    1.1920    1.5310 C   0  0  0  0  0  0  0  0  0  0  0  0
    0.5430    1.0430    2.6490 N   0  0  0  0  0  0  0  0  0  0  0  0
   -0.4330    0.1510    2.4330 C   0  0  0  0  0  0  0  0  0  0  0  0
   -0.3640   -0.2960    1.1460 N   0  0  0  0  0  0  0  0  0  0  0  0
   -1.2810   -1.2550    0.5930 C   0  0  0  0  0  0  0  0  0  0  0  0
   -2.5310   -0.6320    0.0060 C   0  0  1  0  0  0  0  0  0  0  0  0
   -2.2260    0.3250   -1.1020 C   0  0  0  0  0  0  0  0  0  0  0  0
   -3.4420    1.0200   -1.5540 N   0  0  0  0  0  0  0  0  0  0  0  0
   -3.4480   -1.6120   -0.3710 O   0  0  0  0  0  0  0  0  0  0  0  0
   -4.6160   -1.5590    0.3650 C   0  0  0  0  0  0  0  0  0  0  0  0
  1  2  2  0
  2  3  1  0
  3  4  1  0
  4  5  1  0
  5  6  1  1
  5  7  1  0
  7  8  2  0
  7 11  1  0
  8  9  1  0
  9 10  2  0
 10 11  1  0
 11 12  1  0
 13 12  1  6
 13 14  1  0
 13 16  1  0
 14 15  1  0
 16 17  1  0
M  CHG  1  15   1
M  END
