
     RDKit          3D

 17 17  0  0  0  0  0  0  0  0999 V2000
    0.6560    1.8800   -1.1370 C   0  0  0  0  0  0  0  0  0  0  0  0
    0.5090    0.4930   -0.5680 C   0  0  2  0  0  0  0  0  0  0  0  0
   -0.5040    0.4370    0.4710 N   0  0  0  0  0  0  0  0  0  0  0  0
   -1.7410    0.8970   -0.1160 C   0  0  0  0  0  0  0  0  0  0  0  0
   -2.8600    1.0010    0.8750 C   0  0  0  0  0  0  0  0  0  0  0  0
   -3.1950   -0.3080    1.5390 C   0  0  0  0  0  0  0  0  0  0  0  0
   -3.6170   -1.3660    0.5770 C   0  0  0  0  0  0  0  0  0  0  0  0
   -4.8490   -0.9840   -0.2150 C   0  0  0  0  0  0  0  0  0  0  0  0
   -5.9350   -0.7460    0.6050 O   0  0  0  0  0  0  0  0  0  0  0  0
    1.8380    0.0670   -0.0540 C   0  0  0  0  0  0  0  0  0  0  0  0
    1.9440   -0.2710    1.1470 O   0  0  0  0  0  0  0  0  0  0  0  0
    2.9800    0.0320   -0.8740 N   0  0  0  0  0  0  0  0  0  0  0  0
    4.2760   -0.3580   -0.4690 C   0  0  0  0  0  0  0  0  0  0  0  0
    4.6920   -0.7570    0.7050 C   0  0  0  0  0  0  0  0  0  0  0  0
    6.1590   -1.0720    0.6800 C   0  0  0  0  0  0  0  0  0  0  0  0
    6.4890   -0.7840   -0.6950 N   0  0  0  0  0  0  0  0  0  0  0  0
    5.4550   -0.3890   -1.3400 C   0  0  0  0  0  0  0  0  0  0  0  0
  2  1  1  1
  2  3  1  0
  2 10  1  0
  3  4  1  0
  4  5  1  0
  5  6  1  0
  6  7  1  0
  7  8  1  0
  8  9  1  0
 10 11  2  0
 10 12  1  0
 12 13  1  0
 13 14  2  0
 13 17  1  0
 14 15  1  0
 15 16  1  0
 16 17  2  0
M  CHG  1   3   1
M  END
