
     RDKit          3D

 41 42  0  0  0  0  0  0  0  0999 V2000
    5.0620    3.4820    2.4930 C   0  0  0  0  0  0  0  0  0  0  0  0
    4.7940    2.9550    1.1160 C   0  0  0  0  0  0  0  0  0  0  0  0
    3.9350    1.7270    1.0830 C   0  0  0  0  0  0  0  0  0  0  0  0
    4.5610    0.5590    1.8060 C   0  0  0  0  0  0  0  0  0  0  0  0
    3.6610   -0.6590    1.7620 C   0  0  0  0  0  0  0  0  0  0  0  0
    3.4420   -1.0060    0.3820 N   0  0  0  0  0  0  0  0  0  0  0  0
    2.6340   -2.1220    0.0690 C   0  0  0  0  0  0  0  0  0  0  0  0
    2.1470   -2.7660    1.0300 O   0  0  0  0  0  0  0  0  0  0  0  0
    2.3390   -2.5650   -1.3260 C   0  0  2  0  0  0  0  0  0  0  0  0
    1.7130   -1.4470   -2.1000 C   0  0  0  0  0  0  0  0  0  0  0  0
    0.4380   -0.9380   -1.5680 C   0  0  0  0  0  0  0  0  0  0  0  0
   -0.7580   -1.4710   -1.9580 C   0  0  0  0  0  0  0  0  0  0  0  0
   -1.9360   -0.9810   -1.4230 C   0  0  0  0  0  0  0  0  0  0  0  0
   -1.9840    0.0530   -0.4860 C   0  0  0  0  0  0  0  0  0  0  0  0
   -3.2280    0.4850    0.0510 N   0  0  0  0  0  0  0  0  0  0  0  0
   -3.7980    1.6940   -0.4170 C   0  0  0  0  0  0  0  0  0  0  0  0
   -3.3000    2.3320   -1.3880 O   0  0  0  0  0  0  0  0  0  0  0  0
   -4.9990    2.2940    0.1920 C   0  0  0  0  0  0  0  0  0  0  0  0
   -5.5430    1.7210    1.1830 O   0  0  0  0  0  0  0  0  0  0  0  0
   -5.5280    3.4710   -0.3110 O   0  0  0  0  0  0  0  0  0  0  0  0
   -3.9670   -0.3140    1.0020 C   0  0  0  0  0  0  0  0  0  0  0  0
   -3.5540   -0.4750    2.2890 C   0  0  0  0  0  0  0  0  0  0  0  0
   -4.2840   -1.2520    3.1620 C   0  0  0  0  0  0  0  0  0  0  0  0
   -5.4420   -1.8810    2.7640 C   0  0  0  0  0  0  0  0  0  0  0  0
   -5.8510   -1.7130    1.4670 C   0  0  0  0  0  0  0  0  0  0  0  0
   -5.1200   -0.9260    0.5620 C   0  0  0  0  0  0  0  0  0  0  0  0
   -5.6280   -0.8040   -0.8090 C   0  0  0  0  0  0  0  0  0  0  0  0
   -5.1370   -0.1730   -1.7470 O   0  0  0  0  0  0  0  0  0  0  0  0
   -6.8260   -1.4820   -1.1230 O   0  0  0  0  0  0  0  0  0  0  0  0
   -0.7850    0.6010   -0.0850 C   0  0  0  0  0  0  0  0  0  0  0  0
   -0.6240    1.6700    0.8900 C   0  0  0  0  0  0  0  0  0  0  0  0
   -0.8380    3.0790    0.5050 C   0  0  0  0  0  0  0  0  0  0  0  0
   -0.0290    3.6070   -0.5950 C   0  0  0  0  0  0  0  0  0  0  0  0
   -0.2690    4.9890   -0.9380 N   0  0  0  0  0  0  0  0  0  0  0  0
    0.8350    3.0180   -1.2660 O   0  0  0  0  0  0  0  0  0  0  0  0
    0.4070    0.0750   -0.6530 C   0  0  0  0  0  0  0  0  0  0  0  0
    1.5930   -3.7920   -1.3470 N   0  0  0  0  0  0  0  0  0  0  0  0
    2.4590   -5.1130   -2.0150 S   0  0  1  0  0  0  0  0  0  0  0  0
    2.9240   -4.8570   -3.7110 C   0  0  0  0  0  0  0  0  0  0  0  0
    3.6190   -5.5240   -1.1720 O   0  0  0  0  0  0  0  0  0  0  0  0
    1.4970   -6.2940   -2.0220 O   0  0  0  0  0  0  0  0  0  0  0  0
  1  2  1  0
  2  3  1  0
  3  4  1  0
  4  5  1  0
  5  6  1  0
  6  7  1  0
  7  8  2  0
  7  9  1  0
  9 10  1  1
  9 37  1  0
 10 11  1  0
 11 12  2  0
 11 36  1  0
 12 13  1  0
 13 14  2  0
 14 15  1  0
 14 30  1  0
 15 16  1  0
 15 21  1  0
 16 17  2  0
 16 18  1  0
 18 19  2  0
 18 20  1  0
 21 22  2  0
 21 26  1  0
 22 23  1  0
 23 24  2  0
 24 25  1  0
 25 26  2  0
 26 27  1  0
 27 28  2  0
 27 29  1  0
 30 31  1  0
 30 36  2  0
 31 32  1  0
 32 33  1  0
 33 34  1  0
 33 35  2  0
 37 38  1  0
 38 39  1  6
 38 40  2  0
 38 41  2  0
M  END
