
     RDKit          3D

 41 43  0  0  0  0  0  0  0  0999 V2000
    7.7650    2.9250   -1.9920 C   0  0  0  0  0  0  0  0  0  0  0  0
    8.8630    1.9700   -1.5920 C   0  0  0  0  0  0  0  0  0  0  0  0
    8.3280    0.7880   -0.9070 C   0  0  0  0  0  0  0  0  0  0  0  0
    7.0380    0.6540   -0.7050 C   0  0  0  0  0  0  0  0  0  0  0  0
    6.4510   -0.4990   -0.0310 C   0  0  0  0  0  0  0  0  0  0  0  0
    7.1710   -1.5580    0.4610 C   0  0  0  0  0  0  0  0  0  0  0  0
    6.5290   -2.6210    1.0930 C   0  0  0  0  0  0  0  0  0  0  0  0
    5.1550   -2.5920    1.2170 C   0  0  0  0  0  0  0  0  0  0  0  0
    4.4640   -1.5150    0.7130 C   0  0  0  0  0  0  0  0  0  0  0  0
    2.9570   -1.4330    0.8240 C   0  0  0  0  0  0  0  0  0  0  0  0
    2.3480   -2.0770   -0.3980 C   0  0  0  0  0  0  0  0  0  0  0  0
    0.8820   -2.0080   -0.2530 N   0  0  0  0  0  0  0  0  0  0  0  0
    0.2550   -3.1140    0.4230 C   0  0  0  0  0  0  0  0  0  0  0  0
    0.7360   -3.4880    1.5220 O   0  0  0  0  0  0  0  0  0  0  0  0
   -0.9370   -3.8380   -0.1210 C   0  0  0  0  0  0  0  0  0  0  0  0
   -2.0580   -4.3510    1.1610 S   0  0  0  0  0  0  0  0  0  0  0  0
   -2.3750   -3.0220    2.3120 C   0  0  0  0  0  0  0  0  0  0  0  0
   -3.5200   -2.1200    1.9070 C   0  0  0  0  0  0  0  0  0  0  0  0
   -3.9340   -2.4680    0.5520 N   0  0  0  0  0  0  0  0  0  0  0  0
   -5.0010   -1.8670   -0.1610 C   0  0  0  0  0  0  0  0  0  0  0  0
   -5.8120   -2.7600   -0.6710 O   0  0  0  0  0  0  0  0  0  0  0  0
   -5.3050   -0.4610   -0.3920 C   0  0  0  0  0  0  0  0  0  0  0  0
   -6.4940    0.1110    0.0010 N   0  0  0  0  0  0  0  0  0  0  0  0
   -6.4860    1.3880   -0.3700 C   0  0  0  0  0  0  0  0  0  0  0  0
   -7.5750    2.3980   -0.1470 C   0  0  0  0  0  0  0  0  0  0  0  0
   -5.3100    1.6730   -1.0050 C   0  0  0  0  0  0  0  0  0  0  0  0
   -4.9750    2.9950   -1.5870 C   0  0  0  0  0  0  0  0  0  0  0  0
   -5.3130    3.2780   -3.0270 C   0  0  0  0  0  0  0  0  0  0  0  0
   -4.4190    3.9180   -0.9630 O   0  0  0  0  0  0  0  0  0  0  0  0
   -4.5330    0.4880   -1.0270 C   0  0  0  0  0  0  0  0  0  0  0  0
   -3.2240    0.3190   -1.6270 C   0  0  0  0  0  0  0  0  0  0  0  0
   -3.0800    0.9960   -2.7390 O   0  0  0  0  0  0  0  0  0  0  0  0
   -2.0720   -0.4000   -1.3040 N   0  0  0  0  0  0  0  0  0  0  0  0
   -1.0940   -0.3250   -0.2770 C   0  0  2  0  0  0  0  0  0  0  0  0
   -0.8080    1.0240    0.3120 C   0  0  2  0  0  0  0  0  0  0  0  0
    0.2160    0.9870    1.4200 C   0  0  0  0  0  0  0  0  0  0  0  0
   -1.9710    1.8920    0.6130 C   0  0  0  0  0  0  0  0  0  0  0  0
   -1.4720    3.2160    1.2390 C   0  0  0  0  0  0  0  0  0  0  0  0
    0.2320   -0.9100   -0.7810 C   0  0  0  0  0  0  0  0  0  0  0  0
    0.7250   -0.2920   -1.7650 O   0  0  0  0  0  0  0  0  0  0  0  0
    5.0900   -0.5000    0.1090 N   0  0  0  0  0  0  0  0  0  0  0  0
  1  2  1  0
  2  3  1  0
  3  4  2  3
  4  5  1  0
  5  6  2  0
  5 41  1  0
  6  7  1  0
  7  8  2  0
  8  9  1  0
  9 10  1  0
  9 41  2  0
 10 11  1  0
 11 12  1  0
 12 13  1  0
 12 39  1  0
 13 14  2  0
 13 15  1  0
 15 16  1  0
 16 17  1  0
 17 18  1  0
 18 19  1  0
 19 20  1  0
 20 21  2  0
 20 22  1  0
 22 23  1  0
 22 30  2  0
 23 24  1  0
 24 25  1  0
 24 26  2  0
 26 27  1  0
 26 30  1  0
 27 28  1  0
 27 29  2  0
 30 31  1  0
 31 32  2  0
 31 33  1  0
 34 33  1  6
 34 35  1  0
 34 39  1  0
 35 36  1  1
 35 37  1  0
 37 38  1  0
 39 40  2  0
M  END
