
     RDKit          3D

 41 43  0  0  0  0  0  0  0  0999 V2000
    7.3210    3.3160    2.0540 C   0  0  0  0  0  0  0  0  0  0  0  0
    7.8900    1.9130    2.1950 C   0  0  0  0  0  0  0  0  0  0  0  0
    6.9870    0.9430    1.4250 C   0  0  0  0  0  0  0  0  0  0  0  0
    6.9260    1.3130   -0.0160 C   0  0  1  0  0  0  0  0  0  0  0  0
    8.3320    1.2500   -0.5920 C   0  0  0  0  0  0  0  0  0  0  0  0
    5.9530    0.4420   -0.7710 C   0  0  0  0  0  0  0  0  0  0  0  0
    6.3500   -1.0030   -0.7010 C   0  0  0  0  0  0  0  0  0  0  0  0
    5.4030   -1.8520   -1.4650 C   0  0  0  0  0  0  0  0  0  0  0  0
    4.0100   -1.8540   -1.0080 C   0  0  0  0  0  0  0  0  0  0  0  0
    3.6450   -1.2280    0.0510 O   0  0  0  0  0  0  0  0  0  0  0  0
    2.9730   -2.5340   -1.6880 N   0  0  0  0  0  0  0  0  0  0  0  0
    1.5850   -2.4610   -1.1160 C   0  0  0  0  0  0  0  0  0  0  0  0
    1.0970   -3.6400   -0.8000 C   0  0  0  0  0  0  0  0  0  0  0  0
   -0.0760   -4.1400   -0.2530 N   0  0  0  0  0  0  0  0  0  0  0  0
   -0.7360   -3.8660    0.9780 C   0  0  0  0  0  0  0  0  0  0  0  0
   -0.7050   -4.7840    1.9510 O   0  0  0  0  0  0  0  0  0  0  0  0
   -1.4600   -2.7190    1.3680 N   0  0  0  0  0  0  0  0  0  0  0  0
   -0.9360   -1.8750    2.4570 C   0  0  0  0  0  0  0  0  0  0  0  0
   -2.7620   -2.2640    0.8290 C   0  0  2  0  0  0  0  0  0  0  0  0
   -3.3940   -3.2390   -0.0970 C   0  0  0  0  0  0  0  0  0  0  0  0
   -4.7510   -2.8540   -0.6190 C   0  0  0  0  0  0  0  0  0  0  0  0
   -2.6380   -0.8540    0.3660 C   0  0  0  0  0  0  0  0  0  0  0  0
   -3.1300   -0.5320   -0.9890 C   0  0  0  0  0  0  0  0  0  0  0  0
   -4.2680    0.2110   -1.0470 C   0  0  0  0  0  0  0  0  0  0  0  0
   -4.8320    0.5730    0.1570 O   0  0  0  0  0  0  0  0  0  0  0  0
   -5.8210    1.5640    0.2130 C   0  0  1  0  0  0  0  0  0  0  0  0
   -5.1760    2.9200    0.0200 C   0  0  0  0  0  0  0  0  0  0  0  0
   -6.2570    3.9850    0.1010 C   0  0  0  0  0  0  0  0  0  0  0  0
   -6.6320    4.5330    1.2410 C   0  0  0  0  0  0  0  0  0  0  0  0
   -7.6160    5.5090    1.2850 C   0  0  0  0  0  0  0  0  0  0  0  0
   -8.0560    5.6640   -0.4880 S   0  0  0  0  0  0  0  0  0  0  0  0
   -6.8900    4.4220   -1.0920 C   0  0  0  0  0  0  0  0  0  0  0  0
   -6.8060    1.3380   -0.9040 C   0  0  0  0  0  0  0  0  0  0  0  0
   -6.0930    1.4080   -2.1530 N   0  0  0  0  0  0  0  0  0  0  0  0
   -4.8990    0.6300   -2.2650 C   0  0  0  0  0  0  0  0  0  0  0  0
   -4.3980    0.3120   -3.3460 O   0  0  0  0  0  0  0  0  0  0  0  0
   -2.4230   -0.9680   -2.1780 C   0  0  0  0  0  0  0  0  0  0  0  0
   -1.1500   -0.9360   -2.4840 C   0  0  0  0  0  0  0  0  0  0  0  0
    0.0370   -0.4990   -1.8330 C   0  0  0  0  0  0  0  0  0  0  0  0
    0.3030    0.7960   -2.0090 O   0  0  0  0  0  0  0  0  0  0  0  0
    1.0050   -1.1750   -1.0280 N   0  0  0  0  0  0  0  0  0  0  0  0
  1  2  1  0
  2  3  1  0
  3  4  1  0
  4  5  1  6
  4  6  1  0
  6  7  1  0
  7  8  1  0
  8  9  1  0
  9 10  2  0
  9 11  1  0
 11 12  1  0
 12 13  2  0
 12 41  1  0
 13 14  1  0
 14 15  1  0
 15 16  2  0
 15 17  1  0
 17 18  1  0
 17 19  1  0
 19 20  1  6
 19 22  1  0
 20 21  1  0
 22 23  1  0
 23 24  2  3
 23 37  1  0
 24 25  1  0
 24 35  1  0
 25 26  1  0
 26 27  1  6
 26 33  1  0
 27 28  1  0
 28 29  1  0
 28 32  2  0
 29 30  2  0
 30 31  1  0
 31 32  1  0
 33 34  1  0
 34 35  1  0
 35 36  2  0
 37 38  2  0
 38 39  1  0
 39 40  2  0
 39 41  1  0
M  END
