
     RDKit          3D

 41 43  0  0  0  0  0  0  0  0999 V2000
   -0.4080    7.7200   -0.2600 C   0  0  0  0  0  0  0  0  0  0  0  0
   -0.7070    7.7360    1.2010 C   0  0  0  0  0  0  0  0  0  0  0  0
   -0.5170    6.5050    1.8210 O   0  0  0  0  0  0  0  0  0  0  0  0
    0.7890    6.0350    1.7320 C   0  0  1  0  0  0  0  0  0  0  0  0
    1.4100    5.8610    3.0980 C   0  0  0  0  0  0  0  0  0  0  0  0
    0.8450    4.7600    0.9570 C   0  0  0  0  0  0  0  0  0  0  0  0
   -0.0350    3.7340    1.2320 C   0  0  0  0  0  0  0  0  0  0  0  0
   -0.0080    2.5360    0.5130 C   0  0  0  0  0  0  0  0  0  0  0  0
    0.8850    2.3040   -0.5030 C   0  0  0  0  0  0  0  0  0  0  0  0
    0.9670    1.0820   -1.2900 C   0  0  0  0  0  0  0  0  0  0  0  0
    0.4470   -0.1060   -0.5770 N   0  0  0  0  0  0  0  0  0  0  0  0
   -0.9080   -0.4280   -0.6520 C   0  0  0  0  0  0  0  0  0  0  0  0
   -1.6760    0.4070   -1.2810 O   0  0  0  0  0  0  0  0  0  0  0  0
   -1.5650   -1.5690   -0.1230 C   0  0  0  0  0  0  0  0  0  0  0  0
   -0.8380   -2.5500    0.2980 O   0  0  0  0  0  0  0  0  0  0  0  0
   -2.9910   -1.7580    0.0040 N   0  0  0  0  0  0  0  0  0  0  0  0
   -3.4200   -3.0510    0.5490 C   0  0  0  0  0  0  0  0  0  0  0  0
   -4.4520   -3.6330   -0.3650 C   0  0  0  0  0  0  0  0  0  0  0  0
   -5.3100   -2.6300   -1.0630 C   0  0  1  0  0  0  0  0  0  0  0  0
   -4.6840   -2.3750   -2.3250 O   0  0  0  0  0  0  0  0  0  0  0  0
   -6.6410   -3.2550   -1.4280 C   0  0  0  0  0  0  0  0  0  0  0  0
   -7.1180   -4.4060   -0.0710 S   0  0  0  0  0  0  0  0  0  0  0  0
   -7.0810   -3.4230    1.4660 C   0  0  0  0  0  0  0  0  0  0  0  0
   -7.3140   -1.9630    1.1140 C   0  0  0  0  0  0  0  0  0  0  0  0
   -6.0320   -1.2070    0.9240 C   0  0  0  0  0  0  0  0  0  0  0  0
   -5.3990   -1.3080   -0.4030 C   0  0  1  0  0  0  0  0  0  0  0  0
   -3.9680   -0.7670   -0.3130 C   0  0  0  0  0  0  0  0  0  0  0  0
    1.4390   -0.7840    0.2200 C   0  0  2  0  0  0  0  0  0  0  0  0
    2.0250    0.1400    1.2340 C   0  0  0  0  0  0  0  0  0  0  0  0
    2.3950   -1.4810   -0.6130 C   0  0  0  0  0  0  0  0  0  0  0  0
    2.2780   -2.3160   -1.4350 O   0  0  0  0  0  0  0  0  0  0  0  0
    4.0360   -0.9910   -0.3520 N   0  0  0  0  0  0  0  0  0  0  0  0
    4.6160   -1.9770   -1.1160 C   0  0  0  0  0  0  0  0  0  0  0  0
    4.2700   -2.9490   -1.7330 O   0  0  0  0  0  0  0  0  0  0  0  0
    6.0980   -1.7110   -1.1500 N   0  0  0  0  0  0  0  0  0  0  0  0
    6.9820   -2.5470   -1.8380 C   0  0  0  0  0  0  0  0  0  0  0  0
    6.9500   -3.9520   -1.2600 C   0  0  2  0  0  0  0  0  0  0  0  0
    7.3560   -3.9060    0.1830 C   0  0  0  0  0  0  0  0  0  0  0  0
    7.9570   -4.8190   -1.9990 C   0  0  0  0  0  0  0  0  0  0  0  0
    1.7730    3.3510   -0.7720 C   0  0  0  0  0  0  0  0  0  0  0  0
    1.7400    4.5240   -0.0610 C   0  0  0  0  0  0  0  0  0  0  0  0
  1  2  1  0
  2  3  1  0
  3  4  1  0
  4  5  1  1
  4  6  1  0
  6  7  2  0
  6 41  1  0
  7  8  1  0
  8  9  2  0
  9 10  1  0
  9 40  1  0
 10 11  1  0
 11 12  1  0
 11 28  1  0
 12 13  2  0
 12 14  1  0
 14 15  2  0
 14 16  1  0
 16 17  1  0
 16 27  1  0
 17 18  1  0
 18 19  1  0
 19 20  1  6
 19 21  1  0
 19 26  1  0
 21 22  1  0
 22 23  1  0
 23 24  1  0
 24 25  1  0
 26 25  1  1
 26 27  1  0
 28 29  1  6
 28 30  1  0
 30 31  2  0
 30 32  1  0
 32 33  1  0
 33 34  2  0
 33 35  1  0
 35 36  1  0
 36 37  1  0
 37 38  1  1
 37 39  1  0
 40 41  2  0
M  END
