
     RDKit          3D

 26 29  0  0  0  0  0  0  0  0999 V2000
    6.9580   -0.3270   -1.3640 N   0  0  0  0  0  0  0  0  0  0  0  0
    5.6520    0.0100   -0.8950 C   0  0  0  0  0  0  0  0  0  0  0  0
    4.9010    0.9200   -1.6200 C   0  0  0  0  0  0  0  0  0  0  0  0
    3.6340    1.2320   -1.1440 C   0  0  0  0  0  0  0  0  0  0  0  0
    3.1280    0.6680    0.0030 C   0  0  0  0  0  0  0  0  0  0  0  0
    1.8530    1.0410    0.4000 O   0  0  0  0  0  0  0  0  0  0  0  0
    0.7110    0.3730   -0.0100 C   0  0  0  0  0  0  0  0  0  0  0  0
    0.8590   -0.6040   -0.7700 O   0  0  0  0  0  0  0  0  0  0  0  0
   -0.6270    0.7980    0.4330 C   0  0  0  0  0  0  0  0  0  0  0  0
   -0.7910    1.8730    1.2680 C   0  0  0  0  0  0  0  0  0  0  0  0
   -2.0420    2.2180    1.6420 C   0  0  0  0  0  0  0  0  0  0  0  0
   -3.1430    1.5010    1.1920 C   0  0  0  0  0  0  0  0  0  0  0  0
   -4.3660    1.9310    1.6340 O   0  0  0  0  0  0  0  0  0  0  0  0
   -3.0390    0.4230    0.3580 C   0  0  0  0  0  0  0  0  0  0  0  0
   -4.1860   -0.3400   -0.1810 C   0  0  0  0  0  0  0  0  0  0  0  0
   -5.4250    0.0460   -0.0320 C   0  0  0  0  0  0  0  0  0  0  0  0
   -6.5940   -0.7130   -0.5670 C   0  0  0  0  0  0  0  0  0  0  0  0
   -6.1970   -1.8660   -1.1910 O   0  0  0  0  0  0  0  0  0  0  0  0
   -4.9110   -2.3010   -1.3650 C   0  0  0  0  0  0  0  0  0  0  0  0
   -3.9100   -1.6010   -0.8960 C   0  0  0  0  0  0  0  0  0  0  0  0
   -1.7500    0.0830   -0.0160 C   0  0  0  0  0  0  0  0  0  0  0  0
    3.8790   -0.2260    0.7070 C   0  0  0  0  0  0  0  0  0  0  0  0
    5.1530   -0.5630    0.2620 C   0  0  0  0  0  0  0  0  0  0  0  0
    5.6800   -1.4750    1.1500 O   0  0  0  0  0  0  0  0  0  0  0  0
    4.5950   -1.9530    1.9350 C   0  0  0  0  0  0  0  0  0  0  0  0
    3.6130   -0.9240    1.8700 O   0  0  0  0  0  0  0  0  0  0  0  0
  1  2  1  0
  2  3  2  0
  2 23  1  0
  3  4  1  0
  4  5  2  0
  5  6  1  0
  5 22  1  0
  6  7  1  0
  7  8  2  0
  7  9  1  0
  9 10  2  0
  9 21  1  0
 10 11  1  0
 11 12  2  0
 12 13  1  0
 12 14  1  0
 14 15  1  0
 14 21  2  0
 15 16  2  0
 15 20  1  0
 16 17  1  0
 17 18  1  0
 18 19  1  0
 19 20  2  0
 22 23  2  0
 22 26  1  0
 23 24  1  0
 24 25  1  0
 25 26  1  0
M  END
