
     RDKit          3D

 25 27  0  0  0  0  0  0  0  0999 V2000
   -3.3580   -2.2910    0.8270 C   0  0  0  0  0  0  0  0  0  0  0  0
   -3.7340   -0.9890    0.2350 C   0  0  0  0  0  0  0  0  0  0  0  0
   -5.0270   -0.7310    0.3220 C   0  0  0  0  0  0  0  0  0  0  0  0
   -5.9050    0.3620   -0.0830 C   0  0  0  0  0  0  0  0  0  0  0  0
   -7.0350    0.5870    0.5470 C   0  0  0  0  0  0  0  0  0  0  0  0
   -7.6820    1.7440   -0.0930 C   0  0  0  0  0  0  0  0  0  0  0  0
   -6.7860    2.1390   -1.1530 N   0  0  0  0  0  0  0  0  0  0  0  0
   -5.7680    1.3640   -1.1630 C   0  0  0  0  0  0  0  0  0  0  0  0
   -4.7210    1.5870   -2.1680 C   0  0  0  0  0  0  0  0  0  0  0  0
   -3.4470    1.2670   -2.1670 C   0  0  0  0  0  0  0  0  0  0  0  0
   -2.4820    0.5900   -1.2680 C   0  0  0  0  0  0  0  0  0  0  0  0
   -2.5230   -0.3000   -0.3090 C   0  0  0  0  0  0  0  0  0  0  0  0
   -1.3490   -0.7250    0.3210 N   0  0  0  0  0  0  0  0  0  0  0  0
   -0.0210   -0.4150   -0.0030 C   0  0  0  0  0  0  0  0  0  0  0  0
    0.2490    0.3190   -0.9570 O   0  0  0  0  0  0  0  0  0  0  0  0
    1.1210   -0.9830    0.8270 C   0  0  0  0  0  0  0  0  0  0  0  0
    2.3850   -0.5020    0.2730 N   0  0  0  0  0  0  0  0  0  0  0  0
    3.5970   -0.9100    0.8940 C   0  0  0  0  0  0  0  0  0  0  0  0
    3.5470   -1.6760    1.9060 O   0  0  0  0  0  0  0  0  0  0  0  0
    4.9150   -0.4930    0.4310 C   0  0  0  0  0  0  0  0  0  0  0  0
    5.9940   -0.9160    1.0590 C   0  0  0  0  0  0  0  0  0  0  0  0
    7.3290   -0.4830    0.5740 C   0  0  0  0  0  0  0  0  0  0  0  0
    7.2130    0.9920    0.2350 C   0  0  0  0  0  0  0  0  0  0  0  0
    6.2520    1.1370   -0.9240 C   0  0  0  0  0  0  0  0  0  0  0  0
    4.9800    0.3920   -0.7290 C   0  0  0  0  0  0  0  0  0  0  0  0
  1  2  1  0
  2  3  2  0
  2 12  1  0
  3  4  1  0
  4  5  2  0
  4  8  1  0
  5  6  1  0
  6  7  1  0
  7  8  2  0
  8  9  1  0
  9 10  2  0
 10 11  1  0
 11 12  2  0
 12 13  1  0
 13 14  1  0
 14 15  2  0
 14 16  1  0
 16 17  1  0
 17 18  1  0
 18 19  2  0
 18 20  1  0
 20 21  2  0
 20 25  1  0
 21 22  1  0
 22 23  1  0
 23 24  1  0
 24 25  1  0
M  END
