
     RDKit          3D

 26 28  0  0  0  0  0  0  0  0999 V2000
   -3.4330   -1.2270   -3.5940 C   0  0  0  0  0  0  0  0  0  0  0  0
   -3.5420   -0.4900   -2.3950 O   0  0  0  0  0  0  0  0  0  0  0  0
   -2.4310   -0.3300   -1.5080 C   0  0  0  0  0  0  0  0  0  0  0  0
   -1.4160   -0.8970   -1.9170 O   0  0  0  0  0  0  0  0  0  0  0  0
   -2.6070    0.4360   -0.2970 C   0  0  0  0  0  0  0  0  0  0  0  0
   -3.9070    0.9260   -0.0570 C   0  0  0  0  0  0  0  0  0  0  0  0
   -4.1370    1.6210    1.1050 C   0  0  0  0  0  0  0  0  0  0  0  0
   -5.4990    2.1490    1.3850 C   0  0  0  0  0  0  0  0  0  0  0  0
   -5.6620    3.4350    0.8810 O   0  0  0  0  0  0  0  0  0  0  0  0
   -3.1340    1.8390    2.0130 C   0  0  0  0  0  0  0  0  0  0  0  0
   -1.8420    1.3530    1.7720 C   0  0  0  0  0  0  0  0  0  0  0  0
   -1.5740    0.6410    0.6000 C   0  0  0  0  0  0  0  0  0  0  0  0
   -0.2850    0.1860    0.2590 N   0  0  0  0  0  0  0  0  0  0  0  0
    0.7730    0.0990    1.2020 C   0  0  0  0  0  0  0  0  0  0  0  0
    0.6080    0.4170    2.4010 O   0  0  0  0  0  0  0  0  0  0  0  0
    2.1300   -0.3660    0.8500 C   0  0  0  0  0  0  0  0  0  0  0  0
    3.0860   -0.4130    1.8380 C   0  0  0  0  0  0  0  0  0  0  0  0
    2.9650   -0.0810    3.1460 O   0  0  0  0  0  0  0  0  0  0  0  0
    4.3820   -0.8640    1.4800 C   0  0  0  0  0  0  0  0  0  0  0  0
    5.4400   -0.9290    2.5190 C   0  0  0  0  0  0  0  0  0  0  0  0
    4.6730   -1.2380    0.2000 C   0  0  0  0  0  0  0  0  0  0  0  0
    3.7020   -1.1780   -0.7490 C   0  0  0  0  0  0  0  0  0  0  0  0
    2.4040   -0.7400   -0.4490 C   0  0  0  0  0  0  0  0  0  0  0  0
    1.6950   -0.8140   -1.6600 O   0  0  0  0  0  0  0  0  0  0  0  0
    2.6050   -0.6790   -2.7360 C   0  0  0  0  0  0  0  0  0  0  0  0
    3.7630   -1.5220   -2.1870 C   0  0  0  0  0  0  0  0  0  0  0  0
  1  2  1  0
  2  3  1  0
  3  4  2  0
  3  5  1  0
  5  6  2  0
  5 12  1  0
  6  7  1  0
  7  8  1  0
  7 10  2  0
  8  9  1  0
 10 11  1  0
 11 12  2  0
 12 13  1  0
 13 14  1  0
 14 15  2  0
 14 16  1  0
 16 17  2  0
 16 23  1  0
 17 18  1  0
 17 19  1  0
 19 20  1  0
 19 21  2  0
 21 22  1  0
 22 23  2  0
 22 26  1  0
 23 24  1  0
 24 25  1  0
 25 26  1  0
M  END
