
     RDKit          3D

 26 28  0  0  0  0  0  0  0  0999 V2000
   -3.0950    3.3610   -2.5430 C   0  0  0  0  0  0  0  0  0  0  0  0
   -1.9260    2.7490   -2.0180 O   0  0  0  0  0  0  0  0  0  0  0  0
   -1.9540    1.6650   -1.1530 C   0  0  0  0  0  0  0  0  0  0  0  0
   -3.0570    1.2310   -0.8410 O   0  0  0  0  0  0  0  0  0  0  0  0
   -0.6700    1.1320   -0.6890 C   0  0  0  0  0  0  0  0  0  0  0  0
   -0.6590    0.0940    0.0980 C   0  0  0  0  0  0  0  0  0  0  0  0
   -1.9260   -0.5770    0.5320 C   0  0  0  0  0  0  0  0  0  0  0  0
   -2.3320   -0.5310    1.7680 O   0  0  0  0  0  0  0  0  0  0  0  0
   -3.4540   -1.1870    1.9240 C   0  0  0  0  0  0  0  0  0  0  0  0
   -4.1850   -1.3260    3.2230 C   0  0  0  0  0  0  0  0  0  0  0  0
   -3.7950   -1.6900    0.7090 C   0  0  0  0  0  0  0  0  0  0  0  0
   -2.8290   -1.3090   -0.1850 C   0  0  0  0  0  0  0  0  0  0  0  0
   -2.7880   -1.6190   -1.5610 O   0  0  0  0  0  0  0  0  0  0  0  0
    0.6060   -0.4740    0.6010 C   0  0  1  0  0  0  0  0  0  0  0  0
    0.6380   -1.9430    0.4860 C   0  0  0  0  0  0  0  0  0  0  0  0
   -0.1560   -2.5050   -0.2660 O   0  0  0  0  0  0  0  0  0  0  0  0
    1.5270   -2.6800    1.1960 O   0  0  0  0  0  0  0  0  0  0  0  0
    1.6320   -4.1030    1.1520 C   0  0  0  0  0  0  0  0  0  0  0  0
    1.7930    0.2090    0.1770 C   0  0  0  0  0  0  0  0  0  0  0  0
    3.0680   -0.1980    0.5860 C   0  0  0  0  0  0  0  0  0  0  0  0
    4.2150    0.4310    0.1960 C   0  0  0  0  0  0  0  0  0  0  0  0
    4.1850    1.5270   -0.6390 C   0  0  0  0  0  0  0  0  0  0  0  0
    5.4390    2.1860   -1.0440 C   0  0  0  0  0  0  0  0  0  0  0  0
    2.9550    1.9460   -1.0530 C   0  0  0  0  0  0  0  0  0  0  0  0
    1.7610    1.2940   -0.6490 C   0  0  0  0  0  0  0  0  0  0  0  0
    0.5320    1.8040   -1.1190 N   0  0  0  0  0  0  0  0  0  0  0  0
  1  2  1  0
  2  3  1  0
  3  4  2  0
  3  5  1  0
  5  6  2  0
  5 26  1  0
  6  7  1  0
  6 14  1  0
  7  8  1  0
  7 12  2  0
  8  9  1  0
  9 10  1  0
  9 11  2  0
 11 12  1  0
 12 13  1  0
 14 15  1  6
 14 19  1  0
 15 16  2  0
 15 17  1  0
 17 18  1  0
 19 20  2  0
 19 25  1  0
 20 21  1  0
 21 22  2  0
 22 23  1  0
 22 24  1  0
 24 25  2  0
 25 26  1  0
M  END
