
     RDKit          3D

 25 25  0  0  0  0  0  0  0  0999 V2000
    2.2110   -2.0030    2.7000 O   0  0  0  0  0  0  0  0  0  0  0  0
    2.3140   -1.8720    1.4510 C   0  0  0  0  0  0  0  0  0  0  0  0
    2.8910   -0.5940    0.9580 C   0  0  0  0  0  0  0  0  0  0  0  0
    2.0770    0.6150    1.2560 C   0  0  2  0  0  0  0  0  0  0  0  0
    0.8930    0.3900    1.9300 O   0  0  0  0  0  0  0  0  0  0  0  0
    1.8640    1.5010    0.0420 C   0  0  1  0  0  0  0  0  0  0  0  0
    2.0580    0.8350   -1.1580 O   0  0  0  0  0  0  0  0  0  0  0  0
    0.5270    2.2150    0.0590 C   0  0  0  0  0  0  0  0  0  0  0  0
   -0.3720    1.5830   -0.9410 C   0  0  2  0  0  0  0  0  0  0  0  0
   -0.7840    2.5870   -1.8430 O   0  0  0  0  0  0  0  0  0  0  0  0
   -1.6100    0.9630   -0.4300 C   0  0  0  0  0  0  0  0  0  0  0  0
   -2.6040    1.7640    0.2680 C   0  0  0  0  0  0  0  0  0  0  0  0
   -2.6110    3.0460    0.4950 C   0  0  0  0  0  0  0  0  0  0  0  0
   -1.6580    3.9120    0.1070 F   0  0  0  0  0  0  0  0  0  0  0  0
   -3.6820    3.5750    1.1920 F   0  0  0  0  0  0  0  0  0  0  0  0
   -1.7810   -0.3480   -0.5900 C   0  0  0  0  0  0  0  0  0  0  0  0
   -3.0760   -0.9130   -0.0470 C   0  0  1  0  0  0  0  0  0  0  0  0
   -3.1230   -0.9230    1.3100 F   0  0  0  0  0  0  0  0  0  0  0  0
   -4.1830   -0.3400   -0.5890 F   0  0  0  0  0  0  0  0  0  0  0  0
   -3.1370   -2.2590   -0.4940 F   0  0  0  0  0  0  0  0  0  0  0  0
   -0.8560   -1.3040   -1.2130 C   0  0  0  0  0  0  0  0  0  0  0  0
   -0.1940   -2.2390   -0.2180 C   0  0  1  0  0  0  0  0  0  0  0  0
   -0.9130   -3.4560   -0.0870 O   0  0  0  0  0  0  0  0  0  0  0  0
    1.2050   -2.6480   -0.6230 C   0  0  0  0  0  0  0  0  0  0  0  0
    1.9090   -2.8700    0.5980 O   0  0  0  0  0  0  0  0  0  0  0  0
  1  2  2  0
  2  3  1  0
  2 25  1  0
  3  4  1  0
  4  5  1  6
  4  6  1  0
  6  7  1  6
  6  8  1  0
  8  9  1  0
  9 10  1  6
  9 11  1  0
 11 12  1  0
 11 16  2  0
 12 13  2  3
 13 14  1  0
 13 15  1  0
 16 17  1  0
 16 21  1  0
 17 18  1  1
 17 19  1  0
 17 20  1  0
 21 22  1  0
 22 23  1  6
 22 24  1  0
 24 25  1  0
M  END
