
     RDKit          3D

 24 25  0  0  0  0  0  0  0  0999 V2000
    1.8920   -0.6700   -1.9560 C   0  0  0  0  0  0  0  0  0  0  0  0
    0.9740    0.2130   -1.0800 C   0  0  1  0  0  0  0  0  0  0  0  0
   -0.4210   -0.2440   -1.3660 C   0  0  1  0  0  0  0  0  0  0  0  0
   -0.4110   -1.6100   -1.3850 O   0  0  0  0  0  0  0  0  0  0  0  0
   -1.5130    0.3310   -0.5420 C   0  0  0  0  0  0  0  0  0  0  0  0
   -1.7150    1.5020   -0.1260 O   0  0  0  0  0  0  0  0  0  0  0  0
   -2.8340    1.6490    0.6080 C   0  0  0  0  0  0  0  0  0  0  0  0
   -3.2710    2.7300    1.1290 C   0  0  0  0  0  0  0  0  0  0  0  0
   -4.2970    3.0800    1.8680 F   0  0  0  0  0  0  0  0  0  0  0  0
   -2.4320    3.8630    0.7970 F   0  0  0  0  0  0  0  0  0  0  0  0
   -3.4140    0.3710    0.6520 C   0  0  0  0  0  0  0  0  0  0  0  0
   -4.6130    0.0680    1.2420 C   0  0  0  0  0  0  0  0  0  0  0  0
   -5.3250    1.0230    1.8050 F   0  0  0  0  0  0  0  0  0  0  0  0
   -5.0380   -1.2070    1.2010 F   0  0  0  0  0  0  0  0  0  0  0  0
   -2.5720   -0.4320   -0.0730 C   0  0  0  0  0  0  0  0  0  0  0  0
   -2.7840   -1.8430   -0.4450 C   0  0  0  0  0  0  0  0  0  0  0  0
   -2.6540   -2.6360    0.7600 O   0  0  0  0  0  0  0  0  0  0  0  0
    1.3370   -0.2760    0.3680 C   0  0  0  0  0  0  0  0  0  0  0  0
    2.8060    0.1720    0.3560 C   0  0  2  0  0  0  0  0  0  0  0  0
    3.5630   -0.8900   -0.1290 O   0  0  0  0  0  0  0  0  0  0  0  0
    3.2730    0.4180    1.7800 C   0  0  0  0  0  0  0  0  0  0  0  0
    4.6500    0.6260    1.8050 O   0  0  0  0  0  0  0  0  0  0  0  0
    2.7220    1.3780   -0.4990 C   0  0  0  0  0  0  0  0  0  0  0  0
    1.3860    1.4740   -1.0030 O   0  0  0  0  0  0  0  0  0  0  0  0
  2  1  1  6
  2  3  1  0
  2 18  1  0
  2 24  1  0
  3  4  1  1
  3  5  1  0
  5  6  1  0
  5 15  2  0
  6  7  1  0
  7  8  2  3
  7 11  1  0
  8  9  1  0
  8 10  1  0
 11 12  2  3
 11 15  1  0
 12 13  1  0
 12 14  1  0
 15 16  1  0
 16 17  1  0
 18 19  1  0
 19 20  1  6
 19 21  1  0
 19 23  1  0
 21 22  1  0
 23 24  1  0
M  END
