
     RDKit          3D

 25 25  0  0  0  0  0  0  0  0999 V2000
    4.5060   -1.1870    1.7090 O   0  0  0  0  0  0  0  0  0  0  0  0
    3.7200   -0.9080    0.7660 C   0  0  0  0  0  0  0  0  0  0  0  0
    3.8860    0.2610    0.0850 O   0  0  0  0  0  0  0  0  0  0  0  0
    3.0130    1.2910   -0.1940 C   0  0  0  0  0  0  0  0  0  0  0  0
    2.2640    1.7590    1.0010 C   0  0  0  0  0  0  0  0  0  0  0  0
    1.0030    2.1460    1.0440 C   0  0  0  0  0  0  0  0  0  0  0  0
    0.6350    2.5280    2.3430 F   0  0  0  0  0  0  0  0  0  0  0  0
    0.0120    2.2340    0.0130 C   0  0  0  0  0  0  0  0  0  0  0  0
   -0.7730    1.3430   -0.5390 C   0  0  0  0  0  0  0  0  0  0  0  0
   -1.6540    1.7970   -1.5660 O   0  0  0  0  0  0  0  0  0  0  0  0
   -0.8920   -0.1080   -0.2470 C   0  0  0  0  0  0  0  0  0  0  0  0
   -2.1050   -0.5510    0.1420 C   0  0  0  0  0  0  0  0  0  0  0  0
   -3.3190    0.2280    0.3100 C   0  0  1  0  0  0  0  0  0  0  0  0
   -4.3880   -0.2870   -0.6240 C   0  0  0  0  0  0  0  0  0  0  0  0
   -3.9380   -0.1720   -1.9230 F   0  0  0  0  0  0  0  0  0  0  0  0
   -3.8600    0.1710    1.7320 C   0  0  2  0  0  0  0  0  0  0  0  0
   -2.9510    0.6550    2.6240 F   0  0  0  0  0  0  0  0  0  0  0  0
   -4.2660   -1.1140    2.0290 F   0  0  0  0  0  0  0  0  0  0  0  0
   -4.9810    0.9770    1.7620 F   0  0  0  0  0  0  0  0  0  0  0  0
    0.1880   -0.9420   -0.3720 O   0  0  0  0  0  0  0  0  0  0  0  0
    1.0320   -1.2920   -1.4160 C   0  0  0  0  0  0  0  0  0  0  0  0
    2.3420   -1.8590   -1.0200 C   0  0  1  0  0  0  0  0  0  0  0  0
    3.3480   -1.2540   -1.7770 O   0  0  0  0  0  0  0  0  0  0  0  0
    2.6480   -1.8750    0.4440 C   0  0  2  0  0  0  0  0  0  0  0  0
    1.4810   -1.6350    1.1530 O   0  0  0  0  0  0  0  0  0  0  0  0
  1  2  2  0
  2  3  1  0
  2 24  1  0
  3  4  1  0
  4  5  1  0
  5  6  2  0
  6  7  1  0
  6  8  1  0
  8  9  2  0
  9 10  1  0
  9 11  1  0
 11 12  2  3
 11 20  1  0
 12 13  1  0
 13 14  1  6
 13 16  1  0
 14 15  1  0
 16 17  1  1
 16 18  1  0
 16 19  1  0
 20 21  1  0
 21 22  1  0
 22 23  1  6
 22 24  1  0
 24 25  1  1
M  END
