
     RDKit          3D

 26 28  0  0  0  0  0  0  0  0999 V2000
   -4.6720    0.6990   -3.0580 C   0  0  0  0  0  0  0  0  0  0  0  0
   -3.7470    0.3180   -1.9680 C   0  0  0  0  0  0  0  0  0  0  0  0
   -4.0280   -0.7200   -1.1260 C   0  0  0  0  0  0  0  0  0  0  0  0
   -3.1420   -1.0600   -0.1250 C   0  0  0  0  0  0  0  0  0  0  0  0
   -1.9540   -0.3750    0.0710 C   0  0  0  0  0  0  0  0  0  0  0  0
   -1.1410   -0.6880    1.2320 C   0  0  0  0  0  0  0  0  0  0  0  0
   -1.6360   -1.3810    2.3530 C   0  0  0  0  0  0  0  0  0  0  0  0
   -0.6120   -1.5790    3.2210 C   0  0  0  0  0  0  0  0  0  0  0  0
   -0.7380   -2.2920    4.5560 C   0  0  2  0  0  0  0  0  0  0  0  0
   -1.6190   -3.3330    4.4900 F   0  0  0  0  0  0  0  0  0  0  0  0
   -1.2610   -1.3510    5.4390 F   0  0  0  0  0  0  0  0  0  0  0  0
    0.5240   -2.7420    4.9590 F   0  0  0  0  0  0  0  0  0  0  0  0
    0.4830   -1.0510    2.7050 N   0  0  0  0  0  0  0  0  0  0  0  0
    0.1400   -0.5140    1.4980 N   0  0  0  0  0  0  0  0  0  0  0  0
    1.1830    0.0570    0.7100 C   0  0  0  0  0  0  0  0  0  0  0  0
    1.9660    1.0900    1.1950 C   0  0  0  0  0  0  0  0  0  0  0  0
    3.0600    1.5750    0.4630 C   0  0  0  0  0  0  0  0  0  0  0  0
    3.3790    1.0320   -0.7500 C   0  0  0  0  0  0  0  0  0  0  0  0
    4.7770    1.6490   -1.6350 S   0  0  1  0  0  0  0  0  0  0  0  0
    6.1900    0.8510   -1.0490 N   0  0  0  0  0  0  0  0  0  0  0  0
    4.6000    1.3960   -3.1110 O   0  0  0  0  0  0  0  0  0  0  0  0
    4.8690    3.1440   -1.4370 O   0  0  0  0  0  0  0  0  0  0  0  0
    2.6130    0.0200   -1.2330 C   0  0  0  0  0  0  0  0  0  0  0  0
    1.5150   -0.4690   -0.5170 C   0  0  0  0  0  0  0  0  0  0  0  0
   -1.6900    0.6670   -0.7970 C   0  0  0  0  0  0  0  0  0  0  0  0
   -2.5670    1.0360   -1.8220 C   0  0  0  0  0  0  0  0  0  0  0  0
  1  2  1  0
  2  3  2  0
  2 26  1  0
  3  4  1  0
  4  5  2  0
  5  6  1  0
  5 25  1  0
  6  7  2  0
  6 14  1  0
  7  8  1  0
  8  9  1  0
  8 13  2  0
  9 10  1  6
  9 11  1  0
  9 12  1  0
 13 14  1  0
 14 15  1  0
 15 16  2  0
 15 24  1  0
 16 17  1  0
 17 18  2  0
 18 19  1  0
 18 23  1  0
 19 20  1  1
 19 21  2  0
 19 22  2  0
 23 24  2  0
 25 26  2  0
M  END
