
     RDKit          3D

 25 27  0  0  0  0  0  0  0  0999 V2000
    5.5790   -1.4170    0.1770 C   0  0  0  0  0  0  0  0  0  0  0  0
    4.8180   -0.6260    1.0810 O   0  0  0  0  0  0  0  0  0  0  0  0
    5.1220    0.6940    0.9040 C   0  0  2  0  0  0  0  0  0  0  0  0
    6.4660    1.0000    0.9970 F   0  0  0  0  0  0  0  0  0  0  0  0
    4.5650    1.3300    2.0770 F   0  0  0  0  0  0  0  0  0  0  0  0
    4.4720    1.4000   -0.2160 C   0  0  0  0  0  0  0  0  0  0  0  0
    3.0190    1.5340   -0.1290 N   0  0  0  0  0  0  0  0  0  0  0  0
    2.1110    0.4670   -0.2040 C   0  0  0  0  0  0  0  0  0  0  0  0
    2.5580   -0.7960   -0.4100 N   0  0  0  0  0  0  0  0  0  0  0  0
    1.7540   -1.8580   -0.5110 C   0  0  0  0  0  0  0  0  0  0  0  0
    0.3800   -1.7290   -0.4090 C   0  0  0  0  0  0  0  0  0  0  0  0
   -0.1100   -0.4620   -0.2000 C   0  0  0  0  0  0  0  0  0  0  0  0
    0.7430    0.6530   -0.0940 C   0  0  0  0  0  0  0  0  0  0  0  0
    0.1670    1.8640    0.1140 C   0  0  0  0  0  0  0  0  0  0  0  0
    0.8620    2.9060    0.2200 O   0  0  0  0  0  0  0  0  0  0  0  0
   -1.1690    2.0500    0.2240 N   0  0  0  0  0  0  0  0  0  0  0  0
   -1.9840    1.0200    0.1280 C   0  0  0  0  0  0  0  0  0  0  0  0
   -3.3560    1.2000    0.2390 C   0  0  0  0  0  0  0  0  0  0  0  0
   -4.2360    0.1510    0.1440 C   0  0  0  0  0  0  0  0  0  0  0  0
   -5.6710    0.3670    0.2650 C   0  0  0  0  0  0  0  0  0  0  0  0
   -6.0100    2.1330    0.5370 S   0  0  0  0  0  0  0  0  0  0  0  0
   -3.7260   -1.0990   -0.0650 C   0  0  0  0  0  0  0  0  0  0  0  0
   -4.6110   -2.2510   -0.1740 C   0  0  0  0  0  0  0  0  0  0  0  0
   -2.3430   -1.3060   -0.1810 C   0  0  0  0  0  0  0  0  0  0  0  0
   -1.4710   -0.2510   -0.0850 C   0  0  0  0  0  0  0  0  0  0  0  0
  1  2  1  0
  2  3  1  0
  3  4  1  6
  3  5  1  0
  3  6  1  0
  6  7  1  0
  7  8  1  0
  8  9  2  0
  8 13  1  0
  9 10  1  0
 10 11  2  0
 11 12  1  0
 12 13  2  0
 12 25  1  0
 13 14  1  0
 14 15  2  0
 14 16  1  0
 16 17  1  0
 17 18  2  0
 17 25  1  0
 18 19  1  0
 19 20  1  0
 19 22  2  0
 20 21  1  0
 22 23  1  0
 22 24  1  0
 24 25  2  0
M  END
