
     RDKit          3D

 26 28  0  0  0  0  0  0  0  0999 V2000
   -6.9220    0.0340    0.7300 C   0  0  0  0  0  0  0  0  0  0  0  0
   -5.4550   -0.1150    0.4960 C   0  0  0  0  0  0  0  0  0  0  0  0
   -4.6730   -0.9390    1.2780 C   0  0  0  0  0  0  0  0  0  0  0  0
   -3.3540   -1.0680    1.0660 N   0  0  0  0  0  0  0  0  0  0  0  0
   -2.7020   -0.3940    0.0640 C   0  0  0  0  0  0  0  0  0  0  0  0
   -1.2840   -0.6270   -0.1540 C   0  0  0  0  0  0  0  0  0  0  0  0
   -0.9050   -1.9590   -0.4100 C   0  0  0  0  0  0  0  0  0  0  0  0
    0.4230   -2.2400   -0.5730 C   0  0  0  0  0  0  0  0  0  0  0  0
    1.3800   -1.2810   -0.4970 N   0  0  0  0  0  0  0  0  0  0  0  0
    1.0350   -0.0060   -0.2540 C   0  0  0  0  0  0  0  0  0  0  0  0
    2.0420    1.0000   -0.1660 N   0  0  0  0  0  0  0  0  0  0  0  0
    3.3940    0.6750   -0.3060 N   0  0  0  0  0  0  0  0  0  0  0  0
    4.2780    0.7690    0.8030 C   0  0  0  0  0  0  0  0  0  0  0  0
    3.7820    1.1540    1.8970 O   0  0  0  0  0  0  0  0  0  0  0  0
    5.6870    0.4380    0.6900 C   0  0  0  0  0  0  0  0  0  0  0  0
    6.3590   -0.0010   -0.4190 C   0  0  0  0  0  0  0  0  0  0  0  0
    7.6940   -0.1920   -0.0640 C   0  0  0  0  0  0  0  0  0  0  0  0
    7.7270    0.1600    1.2820 C   0  0  0  0  0  0  0  0  0  0  0  0
    6.5500    0.5170    1.6780 O   0  0  0  0  0  0  0  0  0  0  0  0
   -0.2960    0.3200   -0.0820 C   0  0  0  0  0  0  0  0  0  0  0  0
   -3.4400    0.4300   -0.7320 C   0  0  0  0  0  0  0  0  0  0  0  0
   -2.8610    1.1870   -1.8440 C   0  0  2  0  0  0  0  0  0  0  0  0
   -2.2030    0.3760   -2.7550 F   0  0  0  0  0  0  0  0  0  0  0  0
   -2.1930    2.3220   -1.4980 F   0  0  0  0  0  0  0  0  0  0  0  0
   -3.9450    1.6840   -2.6380 F   0  0  0  0  0  0  0  0  0  0  0  0
   -4.8320    0.5720   -0.5130 C   0  0  0  0  0  0  0  0  0  0  0  0
  1  2  1  0
  2  3  2  0
  2 26  1  0
  3  4  1  0
  4  5  2  0
  5  6  1  0
  5 21  1  0
  6  7  2  0
  6 20  1  0
  7  8  1  0
  8  9  2  0
  9 10  1  0
 10 11  1  0
 10 20  2  0
 11 12  1  0
 12 13  1  0
 13 14  2  0
 13 15  1  0
 15 16  2  0
 15 19  1  0
 16 17  1  0
 17 18  2  0
 18 19  1  0
 21 22  1  0
 21 26  2  0
 22 23  1  6
 22 24  1  0
 22 25  1  0
M  END
