
     RDKit          3D

 26 28  0  0  0  0  0  0  0  0999 V2000
    7.5050   -1.2850    1.3250 C   0  0  0  0  0  0  0  0  0  0  0  0
    6.8440   -1.8850    0.1270 C   0  0  0  0  0  0  0  0  0  0  0  0
    5.3850   -1.7780    0.1810 N   0  0  0  0  0  0  0  0  0  0  0  0
    4.7140   -0.5500    0.2520 C   0  0  0  0  0  0  0  0  0  0  0  0
    5.3800    0.5130    0.2700 O   0  0  0  0  0  0  0  0  0  0  0  0
    3.2440   -0.4850    0.3050 C   0  0  0  0  0  0  0  0  0  0  0  0
    2.5960   -1.5520    0.2850 O   0  0  0  0  0  0  0  0  0  0  0  0
    2.5550    0.7430    0.3760 N   0  0  0  0  0  0  0  0  0  0  0  0
    1.1600    0.9300    0.4310 C   0  0  0  0  0  0  0  0  0  0  0  0
    0.7240    2.2630    0.5010 C   0  0  0  0  0  0  0  0  0  0  0  0
   -0.6090    2.5960    0.5600 C   0  0  0  0  0  0  0  0  0  0  0  0
   -1.5620    1.6030    0.5510 C   0  0  0  0  0  0  0  0  0  0  0  0
   -1.1690    0.2940    0.4830 C   0  0  0  0  0  0  0  0  0  0  0  0
    0.1910   -0.0110    0.4240 C   0  0  0  0  0  0  0  0  0  0  0  0
   -2.4030   -0.5310    0.4910 C   0  0  0  0  0  0  0  0  0  0  0  0
   -3.4500    0.3780    0.0760 N   0  0  0  0  0  0  0  0  0  0  0  0
   -4.6420    0.0800   -0.7040 C   0  0  0  0  0  0  0  0  0  0  0  0
   -4.5990   -0.1860   -1.9550 C   0  0  0  0  0  0  0  0  0  0  0  0
   -3.4290   -0.2240   -2.7100 F   0  0  0  0  0  0  0  0  0  0  0  0
   -5.8640   -0.4760   -2.6570 C   0  0  0  0  0  0  0  0  0  0  0  0
   -7.0920    0.1140   -1.4530 S   0  0  0  0  0  0  0  0  0  0  0  0
   -5.9400    0.0820   -0.0550 C   0  0  0  0  0  0  0  0  0  0  0  0
   -6.2660    0.0640    1.2150 C   0  0  0  0  0  0  0  0  0  0  0  0
   -5.3660    0.0400    2.2190 F   0  0  0  0  0  0  0  0  0  0  0  0
   -7.5780    0.0700    1.5440 F   0  0  0  0  0  0  0  0  0  0  0  0
   -3.0680    1.6730    0.6030 C   0  0  0  0  0  0  0  0  0  0  0  0
  1  2  1  0
  2  3  1  0
  3  4  1  0
  4  5  2  0
  4  6  1  0
  6  7  2  0
  6  8  1  0
  8  9  1  0
  9 10  2  0
  9 14  1  0
 10 11  1  0
 11 12  2  0
 12 13  1  0
 12 26  1  0
 13 14  2  0
 13 15  1  0
 15 16  1  0
 16 17  1  0
 16 26  1  0
 17 18  2  0
 17 22  1  0
 18 19  1  0
 18 20  1  0
 20 21  1  0
 21 22  1  0
 22 23  2  3
 23 24  1  0
 23 25  1  0
M  END
