
     RDKit          3D

 26 28  0  0  0  0  0  0  0  0999 V2000
   -5.8990    1.2370    0.7290 C   0  0  0  0  0  0  0  0  0  0  0  0
   -4.4780    0.9020    0.5400 C   0  0  0  0  0  0  0  0  0  0  0  0
   -3.4930    1.6770    1.1100 C   0  0  0  0  0  0  0  0  0  0  0  0
   -3.8050    2.7590    1.8550 F   0  0  0  0  0  0  0  0  0  0  0  0
   -2.1610    1.3550    0.9270 C   0  0  0  0  0  0  0  0  0  0  0  0
   -1.8120    0.2700    0.1820 C   0  0  0  0  0  0  0  0  0  0  0  0
   -0.4020   -0.0170    0.0270 C   0  0  0  0  0  0  0  0  0  0  0  0
    0.7010    0.4390    0.3840 N   0  0  0  0  0  0  0  0  0  0  0  0
    1.8660   -0.0670    0.0690 C   0  0  0  0  0  0  0  0  0  0  0  0
    1.8780   -1.1840   -0.7120 C   0  0  0  0  0  0  0  0  0  0  0  0
    0.1670   -1.4840   -0.9810 S   0  0  0  0  0  0  0  0  0  0  0  0
    3.0780   -1.9020   -1.1510 C   0  0  0  0  0  0  0  0  0  0  0  0
    2.9340   -2.9190   -1.8730 O   0  0  0  0  0  0  0  0  0  0  0  0
    4.3280   -1.3970   -0.7270 N   0  0  0  0  0  0  0  0  0  0  0  0
    5.5610   -2.0690   -1.1350 C   0  0  0  0  0  0  0  0  0  0  0  0
    4.3240   -0.2520    0.0800 C   0  0  0  0  0  0  0  0  0  0  0  0
    5.4880    0.1330    0.4760 O   0  0  0  0  0  0  0  0  0  0  0  0
    3.1930    0.5020    0.4920 C   0  0  2  0  0  0  0  0  0  0  0  0
    3.2120    0.6660    2.0180 C   0  0  0  0  0  0  0  0  0  0  0  0
    3.2900    1.9240   -0.0720 C   0  0  0  0  0  0  0  0  0  0  0  0
   -2.7870   -0.5160   -0.3960 C   0  0  0  0  0  0  0  0  0  0  0  0
   -2.3660   -1.6320   -1.1610 N   0  0  0  0  0  0  0  0  0  0  0  0
   -4.0990   -0.1770   -0.2000 C   0  0  0  0  0  0  0  0  0  0  0  0
   -5.1250   -1.0450   -0.8370 C   0  0  2  0  0  0  0  0  0  0  0  0
   -4.8750   -2.3370   -0.4280 F   0  0  0  0  0  0  0  0  0  0  0  0
   -4.9170   -1.0110   -2.2030 F   0  0  0  0  0  0  0  0  0  0  0  0
  1  2  1  0
  2  3  2  0
  2 23  1  0
  3  4  1  0
  3  5  1  0
  5  6  2  0
  6  7  1  0
  6 21  1  0
  7  8  2  0
  7 11  1  0
  8  9  1  0
  9 10  2  0
  9 18  1  0
 10 11  1  0
 10 12  1  0
 12 13  2  0
 12 14  1  0
 14 15  1  0
 14 16  1  0
 16 17  2  0
 16 18  1  0
 18 19  1  1
 18 20  1  0
 21 22  1  0
 21 23  2  0
 23 24  1  0
 24 25  1  1
 24 26  1  0
M  END
