
     RDKit          3D

 25 26  0  0  0  0  0  0  0  0999 V2000
   -3.9070   -1.2300    1.6460 C   0  0  0  0  0  0  0  0  0  0  0  0
   -3.4120   -0.2420    0.8090 O   0  0  0  0  0  0  0  0  0  0  0  0
   -2.2330   -0.4350   -0.0090 C   0  0  0  0  0  0  0  0  0  0  0  0
   -2.2400   -1.5520   -0.6080 C   0  0  0  0  0  0  0  0  0  0  0  0
   -1.3500   -2.2440   -1.5320 C   0  0  1  0  0  0  0  0  0  0  0  0
   -0.3650   -3.0060   -1.0000 F   0  0  0  0  0  0  0  0  0  0  0  0
   -2.1670   -3.1870   -2.2700 F   0  0  0  0  0  0  0  0  0  0  0  0
   -0.9570   -1.3680   -2.5090 F   0  0  0  0  0  0  0  0  0  0  0  0
   -1.3420    0.6800    0.0730 C   0  0  0  0  0  0  0  0  0  0  0  0
   -1.7430    1.7630    0.7760 C   0  0  0  0  0  0  0  0  0  0  0  0
   -3.0280    1.6780    1.3730 N   0  0  0  0  0  0  0  0  0  0  0  0
   -1.1170    3.0710    1.0240 C   0  0  0  0  0  0  0  0  0  0  0  0
    0.3230    3.0300    0.6130 C   0  0  0  0  0  0  0  0  0  0  0  0
    0.5240    2.9740   -0.8810 C   0  0  0  0  0  0  0  0  0  0  0  0
    0.7450    1.5550   -1.3490 C   0  0  0  0  0  0  0  0  0  0  0  0
    0.0230    0.5830   -0.5070 C   0  0  0  0  0  0  0  0  0  0  0  0
    0.6440   -0.4490   -0.1820 N   0  0  0  0  0  0  0  0  0  0  0  0
    1.8660   -0.9860   -0.4260 N   0  0  0  0  0  0  0  0  0  0  0  0
    2.5630   -1.3620    0.7070 C   0  0  0  0  0  0  0  0  0  0  0  0
    1.9060   -1.1390    2.0420 C   0  0  0  0  0  0  0  0  0  0  0  0
    3.8100   -1.9170    0.6140 C   0  0  0  0  0  0  0  0  0  0  0  0
    4.4320   -2.1300   -0.6020 C   0  0  0  0  0  0  0  0  0  0  0  0
    3.7440   -1.7600   -1.7220 C   0  0  0  0  0  0  0  0  0  0  0  0
    2.4750   -1.1960   -1.6020 C   0  0  0  0  0  0  0  0  0  0  0  0
    1.8650   -0.8630   -2.6710 O   0  0  0  0  0  0  0  0  0  0  0  0
  1  2  1  0
  2  3  1  0
  3  4  2  3
  3  9  1  0
  4  5  1  0
  5  6  1  1
  5  7  1  0
  5  8  1  0
  9 10  2  0
  9 16  1  0
 10 11  1  0
 10 12  1  0
 12 13  1  0
 13 14  1  0
 14 15  1  0
 15 16  1  0
 16 17  2  3
 17 18  1  0
 18 19  1  0
 18 24  1  0
 19 20  1  0
 19 21  2  0
 21 22  1  0
 22 23  2  0
 23 24  1  0
 24 25  2  0
M  END
