
     RDKit          3D

 37 39  0  0  0  0  0  0  0  0999 V2000
    4.5280   -5.2670    0.3390 C   0  0  0  0  0  0  0  0  0  0  0  0
    3.7380   -3.9580    0.4810 C   0  0  0  0  0  0  0  0  0  0  0  0
    3.0540   -3.6380   -0.7730 C   0  0  0  0  0  0  0  0  0  0  0  0
    2.2280   -2.3630   -0.7730 C   0  0  2  0  0  0  0  0  0  0  0  0
    1.6800   -2.3600   -2.2280 C   0  0  0  0  0  0  0  0  0  0  0  0
    3.0320   -1.1320   -0.6850 C   0  0  0  0  0  0  0  0  0  0  0  0
    2.1350    0.0500   -0.5470 C   0  0  2  0  0  0  0  0  0  0  0  0
    3.0280    1.2160   -0.2270 C   0  0  0  0  0  0  0  0  0  0  0  0
    2.9580    1.8640    0.8230 O   0  0  0  0  0  0  0  0  0  0  0  0
    3.9710    1.5590   -1.1760 O   0  0  0  0  0  0  0  0  0  0  0  0
    4.8890    2.5970   -1.0660 C   0  0  0  0  0  0  0  0  0  0  0  0
    5.7990    2.3520    0.1230 C   0  0  0  0  0  0  0  0  0  0  0  0
    6.7680    3.4940    0.2230 C   0  0  0  0  0  0  0  0  0  0  0  0
    6.2810    4.6540    0.3020 O   0  0  0  0  0  0  0  0  0  0  0  0
    8.1430    3.3220    0.2280 O   0  0  0  0  0  0  0  0  0  0  0  0
    9.0300    4.4370    0.3200 C   0  0  0  0  0  0  0  0  0  0  0  0
    1.2330   -0.2090    0.6600 C   0  0  0  0  0  0  0  0  0  0  0  0
    0.5360   -1.4900    0.6690 C   0  0  1  0  0  0  0  0  0  0  0  0
    0.6140   -2.0140    2.1250 C   0  0  0  0  0  0  0  0  0  0  0  0
   -0.8860   -1.6070    0.2710 C   0  0  2  0  0  0  0  0  0  0  0  0
   -1.3220   -3.0640    0.5150 C   0  0  0  0  0  0  0  0  0  0  0  0
   -0.9530   -1.4950   -1.1570 O   0  0  0  0  0  0  0  0  0  0  0  0
   -1.9460   -0.7100    0.7060 C   0  0  1  0  0  0  0  0  0  0  0  0
   -2.2370   -0.5530    2.1580 C   0  0  0  0  0  0  0  0  0  0  0  0
   -3.2490    0.5230    2.4710 C   0  0  0  0  0  0  0  0  0  0  0  0
   -3.2200    1.5820    1.5900 O   0  0  0  0  0  0  0  0  0  0  0  0
   -3.3800    1.2990    0.2790 C   0  0  2  0  0  0  0  0  0  0  0  0
   -3.3050    2.6400   -0.4690 C   0  0  0  0  0  0  0  0  0  0  0  0
   -4.6100    3.3500   -0.0760 C   0  0  0  0  0  0  0  0  0  0  0  0
   -5.6250    2.6690   -0.6960 O   0  0  0  0  0  0  0  0  0  0  0  0
   -5.8320    1.3840   -0.2810 C   0  0  2  0  0  0  0  0  0  0  0  0
   -6.7000    0.7260   -1.3660 C   0  0  0  0  0  0  0  0  0  0  0  0
   -6.6320    1.2910    1.0030 C   0  0  0  0  0  0  0  0  0  0  0  0
   -8.0000    1.9130    0.8610 C   0  0  0  0  0  0  0  0  0  0  0  0
   -4.5880    0.5610   -0.1290 C   0  0  0  0  0  0  0  0  0  0  0  0
   -2.1480    0.4970   -0.1690 C   0  0  0  0  0  0  0  0  0  0  0  0
    1.1530   -2.5340   -0.0190 O   0  0  0  0  0  0  0  0  0  0  0  0
  1  2  1  0
  2  3  1  0
  3  4  1  0
  4  5  1  6
  4  6  1  0
  4 37  1  0
  6  7  1  0
  7  8  1  1
  7 17  1  0
  8  9  2  0
  8 10  1  0
 10 11  1  0
 11 12  1  0
 12 13  1  0
 13 14  2  0
 13 15  1  0
 15 16  1  0
 17 18  1  0
 18 19  1  1
 18 20  1  0
 18 37  1  0
 20 21  1  6
 20 22  1  0
 20 23  1  0
 23 24  1  1
 23 36  1  0
 24 25  1  0
 25 26  1  0
 26 27  1  0
 27 28  1  6
 27 35  1  0
 27 36  1  0
 28 29  1  0
 29 30  1  0
 30 31  1  0
 31 32  1  6
 31 33  1  0
 31 35  1  0
 33 34  1  0
M  END
