
     RDKit          3D

 34 39  0  0  0  0  0  0  0  0999 V2000
   -1.2900   -0.4360   -3.1860 C   0  0  0  0  0  0  0  0  0  0  0  0
   -0.0360   -0.1840   -2.5160 N   0  0  0  0  0  0  0  0  0  0  0  0
    1.1090   -0.1760   -3.2070 C   0  0  0  0  0  0  0  0  0  0  0  0
    1.1350   -0.3760   -4.4530 O   0  0  0  0  0  0  0  0  0  0  0  0
    2.2850    0.0510   -2.5640 C   0  0  0  0  0  0  0  0  0  0  0  0
    3.5050    0.0770   -3.2270 C   0  0  0  0  0  0  0  0  0  0  0  0
    4.6040    0.3160   -2.5060 N   0  0  0  0  0  0  0  0  0  0  0  0
    4.6110    0.5320   -1.1820 C   0  0  0  0  0  0  0  0  0  0  0  0
    5.8560    0.7890   -0.4890 N   0  0  0  0  0  0  0  0  0  0  0  0
    6.6200    1.8960   -0.5720 C   0  0  0  0  0  0  0  0  0  0  0  0
    7.7360    1.7680    0.2380 C   0  0  0  0  0  0  0  0  0  0  0  0
    7.6460    0.5410    0.8350 C   0  0  0  0  0  0  0  0  0  0  0  0
    8.4670   -0.1200    1.7410 C   0  0  0  0  0  0  0  0  0  0  0  0
    8.1200   -1.3830    2.1930 C   0  0  0  0  0  0  0  0  0  0  0  0
    6.9520   -1.9680    1.7270 C   0  0  0  0  0  0  0  0  0  0  0  0
    6.4720   -3.5670    2.2780 Cl  0  0  0  0  0  0  0  0  0  0  0  0
    6.1390   -1.3130    0.8290 C   0  0  0  0  0  0  0  0  0  0  0  0
    6.4710   -0.0410    0.3650 C   0  0  0  0  0  0  0  0  0  0  0  0
    3.4400    0.5090   -0.5270 N   0  0  0  0  0  0  0  0  0  0  0  0
    2.2830    0.2710   -1.2050 C   0  0  0  0  0  0  0  0  0  0  0  0
    1.0910    0.2610   -0.5020 C   0  0  0  0  0  0  0  0  0  0  0  0
    1.0490    0.4820    0.8650 C   0  0  0  0  0  0  0  0  0  0  0  0
   -0.1700    0.4670    1.5210 C   0  0  0  0  0  0  0  0  0  0  0  0
   -1.3660    0.2390    0.8720 C   0  0  0  0  0  0  0  0  0  0  0  0
   -2.6790    0.2470    1.6010 C   0  0  0  0  0  0  0  0  0  0  0  0
   -3.7370    0.3120    0.6130 N   0  0  0  0  0  0  0  0  0  0  0  0
   -5.0600    0.4460    1.2230 C   0  0  1  0  0  0  0  0  0  0  0  0
   -5.8830    1.2310    0.2140 C   0  0  0  0  0  0  0  0  0  0  0  0
   -7.3420    1.2760    0.5320 C   0  0  0  0  0  0  0  0  0  0  0  0
   -7.9000   -0.1050    0.8370 C   0  0  0  0  0  0  0  0  0  0  0  0
   -6.8420   -1.1840    0.6980 C   0  0  0  0  0  0  0  0  0  0  0  0
   -5.6880   -0.8510    1.6020 C   0  0  0  0  0  0  0  0  0  0  0  0
   -1.2930    0.0200   -0.4910 C   0  0  0  0  0  0  0  0  0  0  0  0
   -0.0810    0.0270   -1.1850 C   0  0  0  0  0  0  0  0  0  0  0  0
  1  2  1  0
  2  3  1  0
  2 34  1  0
  3  4  2  0
  3  5  1  0
  5  6  2  0
  5 20  1  0
  6  7  1  0
  7  8  2  0
  8  9  1  0
  8 19  1  0
  9 10  1  0
  9 18  1  0
 10 11  2  0
 11 12  1  0
 12 13  2  0
 12 18  1  0
 13 14  1  0
 14 15  2  0
 15 16  1  0
 15 17  1  0
 17 18  2  0
 19 20  2  0
 20 21  1  0
 21 22  2  0
 21 34  1  0
 22 23  1  0
 23 24  2  0
 24 25  1  0
 24 33  1  0
 25 26  1  0
 27 26  1  6
 27 28  1  0
 27 32  1  0
 28 29  1  0
 29 30  1  0
 30 31  1  0
 31 32  1  0
 33 34  2  0
M  END
