
     RDKit          3D

 34 39  0  0  0  0  0  0  0  0999 V2000
    0.2760   -1.6790    2.4750 O   0  0  0  0  0  0  0  0  0  0  0  0
    1.2620   -1.9450    1.7050 C   0  0  0  0  0  0  0  0  0  0  0  0
    0.9400   -2.3820    0.4110 N   0  0  0  0  0  0  0  0  0  0  0  0
   -0.4040   -2.5200   -0.1060 C   0  0  0  0  0  0  0  0  0  0  0  0
   -1.1400   -1.2300   -0.1210 C   0  0  0  0  0  0  0  0  0  0  0  0
   -0.8500   -0.0900    0.5140 N   0  0  0  0  0  0  0  0  0  0  0  0
   -1.7640    0.8400    0.2210 N   0  0  0  0  0  0  0  0  0  0  0  0
   -2.6360    0.2830   -0.6030 C   0  0  0  0  0  0  0  0  0  0  0  0
   -2.2610   -0.9920   -0.8190 N   0  0  0  0  0  0  0  0  0  0  0  0
   -2.8720   -1.9890   -1.6250 C   0  0  0  0  0  0  0  0  0  0  0  0
   -4.0560   -1.8990   -2.2030 C   0  0  0  0  0  0  0  0  0  0  0  0
   -5.0870   -0.8470   -2.2330 C   0  0  0  0  0  0  0  0  0  0  0  0
   -4.9790    0.0750   -1.1190 N   0  0  0  0  0  0  0  0  0  0  0  0
   -6.2440    0.8290   -1.1200 C   0  0  0  0  0  0  0  0  0  0  0  0
   -6.6620    0.8830    0.3390 C   0  0  0  0  0  0  0  0  0  0  0  0
   -5.4080    1.3620    1.0860 C   0  0  0  0  0  0  0  0  0  0  0  0
   -4.9200    2.5740    0.3810 C   0  0  0  0  0  0  0  0  0  0  0  0
   -4.0240    2.3340   -0.7740 C   0  0  0  0  0  0  0  0  0  0  0  0
   -3.8420    0.9350   -1.2150 C   0  0  1  0  0  0  0  0  0  0  0  0
    2.5760   -1.7640    2.2800 C   0  0  0  0  0  0  0  0  0  0  0  0
    2.7550   -2.3070    3.5470 C   0  0  0  0  0  0  0  0  0  0  0  0
    4.0350   -2.2530    4.0870 C   0  0  0  0  0  0  0  0  0  0  0  0
    4.3300   -2.9150    5.6680 Cl  0  0  0  0  0  0  0  0  0  0  0  0
    5.0710   -1.6870    3.3940 C   0  0  0  0  0  0  0  0  0  0  0  0
    4.8630   -1.1540    2.1400 C   0  0  0  0  0  0  0  0  0  0  0  0
    5.9020   -0.5640    1.4650 C   0  0  0  0  0  0  0  0  0  0  0  0
    5.6820   -0.0000    0.2120 C   0  0  0  0  0  0  0  0  0  0  0  0
    4.4350   -0.0220   -0.3670 C   0  0  0  0  0  0  0  0  0  0  0  0
    3.4100   -0.6260    0.3420 C   0  0  0  0  0  0  0  0  0  0  0  0
    3.5870   -1.1910    1.5680 C   0  0  0  0  0  0  0  0  0  0  0  0
    4.2550    0.5930   -1.6940 C   0  0  0  0  0  0  0  0  0  0  0  0
    4.9000    1.9670   -1.6240 C   0  0  0  0  0  0  0  0  0  0  0  0
    6.2850    1.9620   -1.0760 C   0  0  0  0  0  0  0  0  0  0  0  0
    6.7640    0.6420   -0.5480 C   0  0  0  0  0  0  0  0  0  0  0  0
  1  2  2  0
  2  3  1  0
  2 20  1  0
  3  4  1  0
  4  5  1  0
  5  6  2  0
  5  9  1  0
  6  7  1  0
  7  8  2  0
  8  9  1  0
  8 19  1  0
  9 10  1  0
 10 11  2  0
 11 12  1  0
 12 13  1  0
 13 14  1  0
 13 19  1  0
 14 15  1  0
 15 16  1  0
 16 17  1  0
 17 18  1  0
 19 18  1  1
 20 21  2  0
 20 30  1  0
 21 22  1  0
 22 23  1  0
 22 24  2  0
 24 25  1  0
 25 26  2  0
 25 30  1  0
 26 27  1  0
 27 28  2  0
 27 34  1  0
 28 29  1  0
 28 31  1  0
 29 30  2  0
 31 32  1  0
 32 33  1  0
 33 34  1  0
M  END
