
     RDKit          3D

 34 39  0  0  0  0  0  0  0  0999 V2000
   -4.7760   -1.6840   -2.5240 C   0  0  0  0  0  0  0  0  0  0  0  0
   -4.0720   -0.8350   -1.5380 C   0  0  0  0  0  0  0  0  0  0  0  0
   -3.1100   -1.4150   -0.7020 C   0  0  0  0  0  0  0  0  0  0  0  0
   -2.4480   -0.6550    0.2140 C   0  0  0  0  0  0  0  0  0  0  0  0
   -1.4270   -1.1160    1.1420 C   0  0  0  0  0  0  0  0  0  0  0  0
   -0.9170   -0.2340    1.9530 O   0  0  0  0  0  0  0  0  0  0  0  0
   -0.9100   -2.3830    1.2880 N   0  0  0  0  0  0  0  0  0  0  0  0
   -1.2380   -3.5650    0.5590 C   0  0  0  0  0  0  0  0  0  0  0  0
    0.1310   -2.6050    2.3480 C   0  0  2  0  0  0  0  0  0  0  0  0
   -0.4570   -2.2010    3.6590 C   0  0  0  0  0  0  0  0  0  0  0  0
    0.3980   -1.1400    4.2530 C   0  0  0  0  0  0  0  0  0  0  0  0
    1.3890   -0.8330    3.2090 N   0  0  0  0  0  0  0  0  0  0  0  0
    2.4030   -0.0170    2.9350 N   0  0  0  0  0  0  0  0  0  0  0  0
    2.9320   -0.2630    1.7340 C   0  0  0  0  0  0  0  0  0  0  0  0
    4.0440    0.3870    1.0480 C   0  0  0  0  0  0  0  0  0  0  0  0
    4.7380    1.4310    1.6260 C   0  0  0  0  0  0  0  0  0  0  0  0
    5.7910    2.0560    0.9910 C   0  0  0  0  0  0  0  0  0  0  0  0
    6.2020    1.6590   -0.2680 C   0  0  0  0  0  0  0  0  0  0  0  0
    7.2590    2.2820   -0.9120 C   0  0  0  0  0  0  0  0  0  0  0  0
    7.6350    1.8560   -2.1630 C   0  0  0  0  0  0  0  0  0  0  0  0
    6.9720    0.8170   -2.7810 C   0  0  0  0  0  0  0  0  0  0  0  0
    7.4660    0.2820   -4.3860 Cl  0  0  0  0  0  0  0  0  0  0  0  0
    5.9270    0.2200   -2.1140 C   0  0  0  0  0  0  0  0  0  0  0  0
    5.5100    0.6160   -0.8490 C   0  0  0  0  0  0  0  0  0  0  0  0
    4.4570   -0.0060   -0.2080 C   0  0  0  0  0  0  0  0  0  0  0  0
    2.2080   -1.2780    1.2450 N   0  0  0  0  0  0  0  0  0  0  0  0
    1.2480   -1.6380    2.1570 C   0  0  0  0  0  0  0  0  0  0  0  0
   -2.7950    0.7170    0.2540 C   0  0  0  0  0  0  0  0  0  0  0  0
   -3.7360    1.2770   -0.5650 C   0  0  0  0  0  0  0  0  0  0  0  0
   -4.3890    0.4860   -1.4810 C   0  0  0  0  0  0  0  0  0  0  0  0
   -5.3580    1.0890   -2.3160 N   0  0  0  0  0  0  0  0  0  0  0  0
   -5.9890    2.3340   -1.9960 C   0  0  0  0  0  0  0  0  0  0  0  0
   -5.4350    3.0650   -0.8290 C   0  0  0  0  0  0  0  0  0  0  0  0
   -4.0330    2.7270   -0.4470 C   0  0  0  0  0  0  0  0  0  0  0  0
  1  2  1  0
  2  3  2  0
  2 30  1  0
  3  4  1  0
  4  5  1  0
  4 28  2  0
  5  6  2  0
  5  7  1  0
  7  8  1  0
  9  7  1  6
  9 10  1  0
  9 27  1  0
 10 11  1  0
 11 12  1  0
 12 13  1  0
 12 27  1  0
 13 14  2  0
 14 15  1  0
 14 26  1  0
 15 16  2  0
 15 25  1  0
 16 17  1  0
 17 18  2  0
 18 19  1  0
 18 24  1  0
 19 20  2  0
 20 21  1  0
 21 22  1  0
 21 23  2  0
 23 24  1  0
 24 25  2  0
 26 27  2  0
 28 29  1  0
 29 30  2  0
 29 34  1  0
 30 31  1  0
 31 32  1  0
 32 33  1  0
 33 34  1  0
M  END
