
     RDKit          3D

  9  9  0  0  0  0  0  0  0  0999 V2000
   -3.2010   -0.4330   -0.4150 N   0  0  0  0  0  0  0  0  0  0  0  0
   -2.2210    0.6230   -0.1120 C   0  0  0  0  0  0  0  0  0  0  0  0
   -1.1570    0.0490    0.7100 C   0  0  0  0  0  0  0  0  0  0  0  0
    0.1100   -0.0090    0.4210 C   0  0  0  0  0  0  0  0  0  0  0  0
    0.6870    0.5090   -0.8180 C   0  0  0  0  0  0  0  0  0  0  0  0
    1.9790    0.4430   -1.1000 C   0  0  0  0  0  0  0  0  0  0  0  0
    2.8800   -0.1750   -0.1350 C   0  0  0  0  0  0  0  0  0  0  0  0
    2.4350   -0.6700    1.0150 C   0  0  0  0  0  0  0  0  0  0  0  0
    1.0470   -0.6020    1.3230 N   0  0  0  0  0  0  0  0  0  0  0  0
  1  2  1  0
  2  3  1  0
  3  4  2  3
  4  5  1  0
  4  9  1  0
  5  6  2  0
  6  7  1  0
  7  8  2  0
  8  9  1  0
M  END
