
     RDKit          3D

  9  9  0  0  0  0  0  0  0  0999 V2000
    2.9170   -0.2850   -0.3210 C   0  0  0  0  0  0  0  0  0  0  0  0
    1.9750   -0.2260    0.7710 N   0  0  0  0  0  0  0  0  0  0  0  0
    0.6400   -0.6910    0.7120 C   0  0  0  0  0  0  0  0  0  0  0  0
   -0.3250    0.0610    0.1770 C   0  0  0  0  0  0  0  0  0  0  0  0
   -0.2100    1.3890   -0.4000 C   0  0  0  0  0  0  0  0  0  0  0  0
   -1.4010    1.7290   -0.7940 C   0  0  0  0  0  0  0  0  0  0  0  0
   -2.3830    0.6930   -0.5240 C   0  0  0  0  0  0  0  0  0  0  0  0
   -1.7350   -0.3030    0.0570 C   0  0  0  0  0  0  0  0  0  0  0  0
   -2.3080   -1.5260    0.4950 N   0  0  0  0  0  0  0  0  0  0  0  0
  1  2  1  0
  2  3  1  0
  3  4  2  3
  4  5  1  0
  4  8  1  0
  5  6  2  0
  6  7  1  0
  7  8  2  0
  8  9  1  0
M  END
