
     RDKit          3D

 23 26  0  0  0  0  0  0  0  0999 V2000
    1.7340    3.3260    1.7660 C   0  0  0  0  0  0  0  0  0  0  0  0
    1.4580    2.1250    1.1070 O   0  0  0  0  0  0  0  0  0  0  0  0
    1.5420    1.9410   -0.2630 C   0  0  0  0  0  0  0  0  0  0  0  0
    1.8910    2.9280   -0.9600 O   0  0  0  0  0  0  0  0  0  0  0  0
    1.2330    0.6470   -0.8510 C   0  0  1  0  0  0  0  0  0  0  0  0
    2.1830   -0.3710   -0.2820 C   0  0  2  0  0  0  0  0  0  0  0  0
    3.5710   -0.0480   -0.8020 C   0  0  0  0  0  0  0  0  0  0  0  0
    1.8540   -1.7440   -0.6600 C   0  0  0  0  0  0  0  0  0  0  0  0
    2.4930   -2.8700   -0.4600 C   0  0  0  0  0  0  0  0  0  0  0  0
    1.7360   -4.0080   -1.0440 C   0  0  0  0  0  0  0  0  0  0  0  0
    0.5460   -3.3430   -1.6180 C   0  0  0  0  0  0  0  0  0  0  0  0
    0.6350   -2.0420   -1.3850 C   0  0  0  0  0  0  0  0  0  0  0  0
   -0.3250   -0.9500   -1.7750 C   0  0  0  0  0  0  0  0  0  0  0  0
   -0.2210    0.2350   -0.8020 C   0  0  2  0  0  0  0  0  0  0  0  0
   -0.9830    1.3590   -1.5100 C   0  0  0  0  0  0  0  0  0  0  0  0
   -1.4740    2.4390   -0.6310 C   0  0  0  0  0  0  0  0  0  0  0  0
   -1.9460    2.0550    0.7190 C   0  0  0  0  0  0  0  0  0  0  0  0
   -2.0920    0.5960    0.8450 C   0  0  2  0  0  0  0  0  0  0  0  0
   -3.2640    0.0000    0.1390 C   0  0  0  0  0  0  0  0  0  0  0  0
   -2.2100    0.1330    2.3080 C   0  0  0  0  0  0  0  0  0  0  0  0
   -2.0140   -1.3690    2.0640 C   0  0  0  0  0  0  0  0  0  0  0  0
   -1.0260   -1.4610    0.9110 C   0  0  0  0  0  0  0  0  0  0  0  0
   -0.7620   -0.0610    0.5360 C   0  0  1  0  0  0  0  0  0  0  0  0
  1  2  1  0
  2  3  1  0
  3  4  2  0
  5  3  1  1
  5  6  1  0
  5 14  1  0
  6  7  1  6
  6  8  1  0
  8  9  2  0
  8 12  1  0
  9 10  1  0
 10 11  1  0
 11 12  2  0
 12 13  1  0
 14 13  1  6
 14 15  1  0
 14 23  1  0
 15 16  1  0
 16 17  1  0
 17 18  1  0
 18 19  1  6
 18 20  1  0
 18 23  1  0
 20 21  1  0
 21 22  1  0
 23 22  1  6
M  END
