
     RDKit          3D

  9 10  0  0  0  0  0  0  0  0999 V2000
   -2.8710    0.1810   -0.8250 N   0  0  0  0  0  0  0  0  0  0  0  0
   -1.8390   -0.3150    0.0420 C   0  0  2  0  0  0  0  0  0  0  0  0
   -1.3980    0.6800    1.0960 C   0  0  0  0  0  0  0  0  0  0  0  0
    0.0620    0.2290    1.2930 C   0  0  0  0  0  0  0  0  0  0  0  0
    0.4340   -0.0610   -0.0240 N   0  0  0  0  0  0  0  0  0  0  0  0
    1.7230    0.0730   -0.4960 C   0  0  2  0  0  0  0  0  0  0  0  0
    2.7740   -0.8670    0.1260 C   0  0  0  0  0  0  0  0  0  0  0  0
    2.8310    0.6100    0.3180 C   0  0  0  0  0  0  0  0  0  0  0  0
   -0.6020   -0.5380   -0.8030 C   0  0  0  0  0  0  0  0  0  0  0  0
  2  1  1  6
  2  3  1  0
  2  9  1  0
  3  4  1  0
  4  5  1  0
  6  5  1  1
  5  9  1  0
  6  7  1  0
  6  8  1  0
  7  8  1  0
M  CHG  1   1   1
M  END
