
     RDKit          3D

  9  9  0  0  0  0  0  0  0  0999 V2000
   -2.0900    1.4580   -0.2810 N   0  0  0  0  0  0  0  0  0  0  0  0
   -1.4860    0.4000    0.4420 C   0  0  0  0  0  0  0  0  0  0  0  0
   -2.1380   -0.1550    1.3760 N   0  0  0  0  0  0  0  0  0  0  0  0
   -0.1480   -0.0230    0.1020 C   0  0  0  0  0  0  0  0  0  0  0  0
    0.5390   -1.0350    0.7320 C   0  0  0  0  0  0  0  0  0  0  0  0
    1.8330   -1.3810    0.3390 C   0  0  0  0  0  0  0  0  0  0  0  0
    2.4760   -0.7280   -0.6890 C   0  0  0  0  0  0  0  0  0  0  0  0
    1.7640    0.2810   -1.3000 C   0  0  0  0  0  0  0  0  0  0  0  0
    0.4990    0.6380   -0.9360 C   0  0  0  0  0  0  0  0  0  0  0  0
  1  2  1  0
  2  3  2  0
  2  4  1  0
  4  5  2  0
  4  9  1  0
  5  6  1  0
  6  7  2  0
  7  8  1  0
  8  9  2  0
M  CHG  1   3   1
M  END
