
     RDKit          3D

 31 33  0  0  0  0  0  0  0  0999 V2000
   -3.6130   -1.6190    0.3200 O   0  0  0  0  0  0  0  0  0  0  0  0
   -2.4020   -1.1920    0.2350 C   0  0  0  0  0  0  0  0  0  0  0  0
   -1.4120   -2.1460    0.4600 N   0  0  0  0  0  0  0  0  0  0  0  0
   -1.7850   -3.5310    0.7730 C   0  0  0  0  0  0  0  0  0  0  0  0
   -2.5760   -3.6430    2.0300 C   0  0  0  0  0  0  0  0  0  0  0  0
   -2.9280   -4.9610    2.3260 O   0  0  0  0  0  0  0  0  0  0  0  0
   -2.2130    0.2240   -0.0820 C   0  0  0  0  0  0  0  0  0  0  0  0
   -1.0830    0.8460   -0.2120 C   0  0  0  0  0  0  0  0  0  0  0  0
    0.2000    0.2640   -0.0710 N   0  0  0  0  0  0  0  0  0  0  0  0
    0.8610    0.0520   -1.1810 C   0  0  0  0  0  0  0  0  0  0  0  0
    0.2930    0.3850   -2.3790 N   0  0  0  0  0  0  0  0  0  0  0  0
    0.9860    0.1910   -3.5120 C   0  0  0  0  0  0  0  0  0  0  0  0
    2.2240   -0.3240   -3.4620 N   0  0  0  0  0  0  0  0  0  0  0  0
    2.8090   -0.6600   -2.3010 C   0  0  0  0  0  0  0  0  0  0  0  0
    2.1220   -0.4730   -1.0930 C   0  0  0  0  0  0  0  0  0  0  0  0
    2.7150   -0.8410    0.1750 C   0  0  0  0  0  0  0  0  0  0  0  0
    2.0800   -1.5490    1.0300 O   0  0  0  0  0  0  0  0  0  0  0  0
    4.0600   -0.4050    0.5070 C   0  0  0  0  0  0  0  0  0  0  0  0
    4.7630    0.3650   -0.2670 C   0  0  0  0  0  0  0  0  0  0  0  0
    6.1600    0.8140    0.0720 C   0  0  0  0  0  0  0  0  0  0  0  0
    6.6060    0.3230    1.3030 O   0  0  0  0  0  0  0  0  0  0  0  0
    5.8800   -0.4940    2.1400 C   0  0  0  0  0  0  0  0  0  0  0  0
    4.6660   -0.8510    1.7760 C   0  0  0  0  0  0  0  0  0  0  0  0
   -1.0750    2.2260   -0.5220 O   0  0  0  0  0  0  0  0  0  0  0  0
   -2.1970    2.8590   -1.0910 C   0  0  0  0  0  0  0  0  0  0  0  0
   -3.3860    2.4140   -0.2620 C   0  0  1  0  0  0  0  0  0  0  0  0
   -4.5880    2.7960   -0.8290 O   0  0  0  0  0  0  0  0  0  0  0  0
   -5.5940    3.7140    0.1860 P   0  0  0  0  0  0  0  0  0  0  0  0
   -4.9970    5.2810    0.5470 O   0  0  0  0  0  0  0  0  0  0  0  0
   -6.2050    2.8690    1.5390 O   0  0  0  0  0  0  0  0  0  0  0  0
   -3.3660    1.0060   -0.2670 O   0  0  0  0  0  0  0  0  0  0  0  0
  1  2  2  0
  2  3  1  0
  2  7  1  0
  3  4  1  0
  4  5  1  0
  5  6  1  0
  7  8  2  0
  7 31  1  0
  8  9  1  0
  8 24  1  0
  9 10  2  3
 10 11  1  0
 10 15  1  0
 11 12  2  0
 12 13  1  0
 13 14  1  0
 14 15  2  0
 15 16  1  0
 16 17  2  0
 16 18  1  0
 18 19  2  0
 18 23  1  0
 19 20  1  0
 20 21  1  0
 21 22  1  0
 22 23  2  0
 24 25  1  0
 25 26  1  0
 26 27  1  6
 26 31  1  0
 27 28  1  0
 28 29  1  0
 28 30  1  0
M  END
