
     RDKit          3D

 30 32  0  0  0  0  0  0  0  0999 V2000
    1.0500   -4.1620    0.1920 C   0  0  0  0  0  0  0  0  0  0  0  0
    0.7170   -2.7960    0.1100 O   0  0  0  0  0  0  0  0  0  0  0  0
   -0.2310   -2.1840    0.9250 C   0  0  0  0  0  0  0  0  0  0  0  0
   -0.8110   -2.8980    1.7730 O   0  0  0  0  0  0  0  0  0  0  0  0
   -0.5040   -0.7290    0.7500 C   0  0  2  0  0  0  0  0  0  0  0  0
    0.7140    0.0800    0.9770 C   0  0  0  0  0  0  0  0  0  0  0  0
    1.9220   -0.2680    0.4470 N   0  0  0  0  0  0  0  0  0  0  0  0
    2.8410    0.6370    0.8120 C   0  0  0  0  0  0  0  0  0  0  0  0
    4.2780    0.7070    0.4990 C   0  0  0  0  0  0  0  0  0  0  0  0
    4.8910   -0.2430   -0.2790 C   0  0  0  0  0  0  0  0  0  0  0  0
    6.2250   -0.1700   -0.5640 C   0  0  0  0  0  0  0  0  0  0  0  0
    6.9890    0.8710   -0.0700 C   0  0  0  0  0  0  0  0  0  0  0  0
    8.3580    0.9780   -0.3420 O   0  0  0  0  0  0  0  0  0  0  0  0
    6.3400    1.8020    0.7040 C   0  0  0  0  0  0  0  0  0  0  0  0
    5.0290    1.7150    0.9740 N   0  0  0  0  0  0  0  0  0  0  0  0
    2.1850    1.5330    1.5650 N   0  0  0  0  0  0  0  0  0  0  0  0
    0.9180    1.1680    1.6410 O   0  0  0  0  0  0  0  0  0  0  0  0
   -1.6240   -0.3660    1.6730 C   0  0  0  0  0  0  0  0  0  0  0  0
   -2.8550   -0.4060    0.9030 N   0  0  0  0  0  0  0  0  0  0  0  0
   -3.5020    0.8680    1.0510 C   0  0  0  0  0  0  0  0  0  0  0  0
   -4.7970    0.9920    0.3130 C   0  0  1  0  0  0  0  0  0  0  0  0
   -5.7120    0.0380    0.7520 O   0  0  0  0  0  0  0  0  0  0  0  0
   -5.5180    2.6670    0.6700 P   0  0  0  0  0  0  0  0  0  0  0  0
   -7.0610    2.8700   -0.1180 O   0  0  0  0  0  0  0  0  0  0  0  0
   -4.4820    3.9330    0.0880 O   0  0  0  0  0  0  0  0  0  0  0  0
   -2.5280   -0.7580   -0.4360 C   0  0  0  0  0  0  0  0  0  0  0  0
   -1.0560   -0.4000   -0.5970 C   0  0  1  0  0  0  0  0  0  0  0  0
   -0.8560    1.0420   -0.9310 C   0  0  0  0  0  0  0  0  0  0  0  0
   -0.4720   -1.2380   -1.7090 C   0  0  0  0  0  0  0  0  0  0  0  0
   -1.0810   -0.8190   -2.9010 O   0  0  0  0  0  0  0  0  0  0  0  0
  1  2  1  0
  2  3  1  0
  3  4  2  0
  5  3  1  6
  5  6  1  0
  5 18  1  0
  5 27  1  0
  6  7  2  0
  6 17  1  0
  7  8  1  0
  8  9  1  0
  8 16  2  0
  9 10  2  0
  9 15  1  0
 10 11  1  0
 11 12  2  0
 12 13  1  0
 12 14  1  0
 14 15  2  0
 16 17  1  0
 18 19  1  0
 19 20  1  0
 19 26  1  0
 20 21  1  0
 21 22  1  1
 21 23  1  0
 23 24  1  0
 23 25  1  0
 26 27  1  0
 27 28  1  6
 27 29  1  0
 29 30  1  0
M  END
