
     RDKit          3D

 31 32  0  0  0  0  0  0  0  0999 V2000
    3.5760   -2.8330   -0.2640 C   0  0  0  0  0  0  0  0  0  0  0  0
    4.9760   -2.7170    0.1080 C   0  0  0  0  0  0  0  0  0  0  0  0
    5.6130   -1.5730    0.2600 C   0  0  0  0  0  0  0  0  0  0  0  0
    7.0150   -1.7380    0.6350 C   0  0  0  0  0  0  0  0  0  0  0  0
    7.9900   -0.9760    0.8880 C   0  0  0  0  0  0  0  0  0  0  0  0
    8.0880    0.3820    0.9030 O   0  0  0  0  0  0  0  0  0  0  0  0
    9.4640    1.2000    0.2210 P   0  0  0  0  0  0  0  0  0  0  0  0
    9.2850    1.4720   -1.4670 O   0  0  0  0  0  0  0  0  0  0  0  0
   10.9300    0.3220    0.5180 O   0  0  0  0  0  0  0  0  0  0  0  0
    5.1360   -0.2910    0.0960 C   0  0  0  0  0  0  0  0  0  0  0  0
    5.9580    0.7470    0.2870 O   0  0  0  0  0  0  0  0  0  0  0  0
    3.9890    0.2800   -0.2380 N   0  0  0  0  0  0  0  0  0  0  0  0
    2.7940    0.6330   -0.5140 C   0  0  0  0  0  0  0  0  0  0  0  0
    3.0550    2.0050   -0.8890 O   0  0  0  0  0  0  0  0  0  0  0  0
    1.4860    0.6690   -0.7080 N   0  0  0  0  0  0  0  0  0  0  0  0
    0.5250   -0.2410   -0.3440 C   0  0  0  0  0  0  0  0  0  0  0  0
    0.8900   -1.3070    0.1100 O   0  0  0  0  0  0  0  0  0  0  0  0
   -0.8480    0.1430   -0.5180 C   0  0  0  0  0  0  0  0  0  0  0  0
   -1.2270    1.2230   -1.0540 O   0  0  0  0  0  0  0  0  0  0  0  0
   -1.7960   -0.7090   -0.0730 O   0  0  0  0  0  0  0  0  0  0  0  0
   -3.1540   -0.4150   -0.1870 C   0  0  0  0  0  0  0  0  0  0  0  0
   -3.5800    0.8380    0.5390 C   0  0  0  0  0  0  0  0  0  0  0  0
   -5.0250    0.9610    0.2950 N   0  0  0  0  0  0  0  0  0  0  0  0
   -5.5380    1.6930   -0.8470 C   0  0  0  0  0  0  0  0  0  0  0  0
   -7.0490    1.4890   -0.8440 C   0  0  1  0  0  0  0  0  0  0  0  0
   -7.4360    0.0540   -1.0150 C   0  0  0  0  0  0  0  0  0  0  0  0
   -8.0330   -0.3330    0.3400 C   0  0  0  0  0  0  0  0  0  0  0  0
   -7.3230    0.6660    1.2460 C   0  0  2  0  0  0  0  0  0  0  0  0
   -7.4930    1.8930    0.4960 N   0  0  0  0  0  0  0  0  0  0  0  0
   -5.8770    0.3250    1.2390 C   0  0  0  0  0  0  0  0  0  0  0  0
   -5.4700   -0.5170    2.0760 O   0  0  0  0  0  0  0  0  0  0  0  0
  1  2  1  0
  2  3  2  3
  3  4  1  0
  3 10  1  0
  4  5  2  3
  5  6  1  0
  6  7  1  0
  7  8  1  0
  7  9  1  0
 10 11  2  0
 10 12  1  0
 12 13  1  0
 13 14  2  0
 13 15  1  0
 15 16  1  0
 16 17  2  0
 16 18  1  0
 18 19  2  0
 18 20  1  0
 20 21  1  0
 21 22  1  0
 22 23  1  0
 23 24  1  0
 23 30  1  0
 25 24  1  1
 25 26  1  0
 25 29  1  0
 26 27  1  0
 28 27  1  6
 28 29  1  0
 28 30  1  0
 30 31  2  0
M  END
