
     RDKit          3D

 30 32  0  0  0  0  0  0  0  0999 V2000
   -6.6050   -0.6120   -1.5740 O   0  0  0  0  0  0  0  0  0  0  0  0
   -5.3750   -0.4810   -1.6370 C   0  0  0  0  0  0  0  0  0  0  0  0
   -4.4670   -1.5730   -1.5440 N   0  0  0  0  0  0  0  0  0  0  0  0
   -3.0900   -1.2300   -1.5190 C   0  0  0  0  0  0  0  0  0  0  0  0
   -2.2710   -2.0080   -2.0480 O   0  0  0  0  0  0  0  0  0  0  0  0
   -2.5590    0.0370   -0.8790 C   0  0  2  0  0  0  0  0  0  0  0  0
   -2.0540   -0.3330    0.4360 C   0  0  0  0  0  0  0  0  0  0  0  0
   -3.0310   -0.3450    1.3630 O   0  0  0  0  0  0  0  0  0  0  0  0
   -0.8420   -0.6730    0.9690 N   0  0  0  0  0  0  0  0  0  0  0  0
   -0.8260   -1.0870    2.4040 C   0  0  0  0  0  0  0  0  0  0  0  0
   -0.3280   -2.4960    2.3850 C   0  0  0  0  0  0  0  0  0  0  0  0
    0.7760   -2.7490    1.6210 O   0  0  0  0  0  0  0  0  0  0  0  0
    0.7540   -2.2620    0.3290 C   0  0  0  0  0  0  0  0  0  0  0  0
    0.4750   -0.7150    0.3970 C   0  0  1  0  0  0  0  0  0  0  0  0
    0.7040   -0.1790   -0.9390 C   0  0  0  0  0  0  0  0  0  0  0  0
    0.4850    1.1850   -1.0060 O   0  0  0  0  0  0  0  0  0  0  0  0
    1.4980   -0.2290    1.4020 C   0  0  0  0  0  0  0  0  0  0  0  0
    2.8530   -0.1260    1.1060 N   0  0  0  0  0  0  0  0  0  0  0  0
    3.4090    0.8910    0.3330 C   0  0  0  0  0  0  0  0  0  0  0  0
    4.9380    0.8790    0.2790 C   0  0  0  0  0  0  0  0  0  0  0  0
    5.4210   -0.3940   -0.3080 C   0  0  0  0  0  0  0  0  0  0  0  0
    7.2950   -0.2990   -0.3720 P   0  0  0  0  0  0  0  0  0  0  0  0
    7.8100    0.7790    0.8860 O   0  0  0  0  0  0  0  0  0  0  0  0
    7.7010    0.3800   -1.9240 O   0  0  0  0  0  0  0  0  0  0  0  0
   -3.7300    0.9360   -0.7780 N   0  0  0  0  0  0  0  0  0  0  0  0
   -4.1030    1.9230    0.1570 C   0  0  0  0  0  0  0  0  0  0  0  0
   -3.6240    2.1380    1.3280 O   0  0  0  0  0  0  0  0  0  0  0  0
   -5.2050    2.7380   -0.4410 C   0  0  0  0  0  0  0  0  0  0  0  0
   -5.6940    1.9590   -1.6190 C   0  0  0  0  0  0  0  0  0  0  0  0
   -4.7160    0.8510   -1.8180 C   0  0  2  0  0  0  0  0  0  0  0  0
  1  2  2  0
  2  3  1  0
  2 30  1  0
  3  4  1  0
  4  5  2  0
  4  6  1  0
  6  7  1  1
  6 25  1  0
  7  8  2  0
  7  9  1  0
  9 10  1  0
  9 14  1  0
 10 11  1  0
 11 12  1  0
 12 13  1  0
 13 14  1  0
 14 15  1  6
 14 17  1  0
 15 16  1  0
 17 18  1  0
 18 19  1  0
 19 20  1  0
 20 21  1  0
 21 22  1  0
 22 23  1  0
 22 24  1  0
 25 26  1  0
 25 30  1  0
 26 27  2  0
 26 28  1  0
 28 29  1  0
 30 29  1  1
M  END
