
     RDKit          3D

 31 33  0  0  0  0  0  0  0  0999 V2000
   -5.5280   -0.0700    3.3090 O   0  0  0  0  0  0  0  0  0  0  0  0
   -4.7610    0.0840    4.2620 C   0  0  0  0  0  0  0  0  0  0  0  0
   -3.3360   -0.0110    4.1450 C   0  0  0  0  0  0  0  0  0  0  0  0
   -2.7090   -0.2660    3.0370 C   0  0  0  0  0  0  0  0  0  0  0  0
   -3.2300   -0.5040    1.7290 C   0  0  0  0  0  0  0  0  0  0  0  0
   -2.4440   -0.7570    0.6740 C   0  0  0  0  0  0  0  0  0  0  0  0
   -2.9800   -1.0020   -0.6770 C   0  0  0  0  0  0  0  0  0  0  0  0
   -4.2370   -0.8570   -1.0540 C   0  0  0  0  0  0  0  0  0  0  0  0
   -4.7000   -1.1160   -2.4040 C   0  0  0  0  0  0  0  0  0  0  0  0
   -4.0320   -1.5110   -3.4360 N   0  0  0  0  0  0  0  0  0  0  0  0
   -4.8150   -1.6450   -4.5440 O   0  0  0  0  0  0  0  0  0  0  0  0
   -5.9940   -0.8970   -4.2590 C   0  0  0  0  0  0  0  0  0  0  0  0
   -6.0170   -0.9770   -2.8540 O   0  0  0  0  0  0  0  0  0  0  0  0
   -1.8770   -1.4120   -1.4660 N   0  0  0  0  0  0  0  0  0  0  0  0
   -0.6910   -1.4380   -0.6920 C   0  0  0  0  0  0  0  0  0  0  0  0
    0.4040   -1.8940   -1.0820 O   0  0  0  0  0  0  0  0  0  0  0  0
   -0.9680   -0.8470    0.6190 C   0  0  1  0  0  0  0  0  0  0  0  0
   -0.2930    0.4700    0.7990 C   0  0  0  0  0  0  0  0  0  0  0  0
    0.9300    0.1780    1.5010 N   0  0  0  0  0  0  0  0  0  0  0  0
    1.9830    1.1500    1.7050 C   0  0  0  0  0  0  0  0  0  0  0  0
    2.9590    1.0970    0.5620 C   0  0  0  0  0  0  0  0  0  0  0  0
    2.8160    0.3020   -0.3920 O   0  0  0  0  0  0  0  0  0  0  0  0
    4.0770    1.9640    0.5500 N   0  0  0  0  0  0  0  0  0  0  0  0
    5.0490    1.9700   -0.5060 C   0  0  0  0  0  0  0  0  0  0  0  0
    5.7420    0.6350   -0.6660 C   0  0  0  0  0  0  0  0  0  0  0  0
    6.9590    0.8140   -2.0610 P   0  0  0  0  0  0  0  0  0  0  0  0
    6.1700    0.2630   -3.5100 O   0  0  0  0  0  0  0  0  0  0  0  0
    8.3450   -0.2120   -1.8150 O   0  0  0  0  0  0  0  0  0  0  0  0
    0.8820   -1.1740    1.9200 C   0  0  0  0  0  0  0  0  0  0  0  0
    1.8260   -1.8420    2.4150 O   0  0  0  0  0  0  0  0  0  0  0  0
   -0.4260   -1.6320    1.6770 O   0  0  0  0  0  0  0  0  0  0  0  0
  1  2  2  0
  2  3  1  0
  3  4  2  3
  4  5  1  0
  5  6  2  3
  6  7  1  0
  6 17  1  0
  7  8  2  3
  7 14  1  0
  8  9  1  0
  9 10  2  0
  9 13  1  0
 10 11  1  0
 11 12  1  0
 12 13  1  0
 14 15  1  0
 15 16  2  0
 15 17  1  0
 17 18  1  6
 17 31  1  0
 18 19  1  0
 19 20  1  0
 19 29  1  0
 20 21  1  0
 21 22  2  0
 21 23  1  0
 23 24  1  0
 24 25  1  0
 25 26  1  0
 26 27  1  0
 26 28  1  0
 29 30  2  0
 29 31  1  0
M  END
