
     RDKit          3D

 43 45  0  0  0  0  0  0  0  0999 V2000
   -5.4510   -0.3070    0.4050 C   0  0  0  0  0  0  0  0  0  0  0  0
   -4.8570    1.0460    0.7190 C   0  0  1  0  0  0  0  0  0  0  0  0
   -4.6110    1.1610    2.2110 C   0  0  0  0  0  0  0  0  0  0  0  0
   -3.6790    1.3080   -0.0020 O   0  0  0  0  0  0  0  0  0  0  0  0
   -2.5400    0.4890    0.1150 C   0  0  0  0  0  0  0  0  0  0  0  0
   -2.6650   -0.4730    0.8980 O   0  0  0  0  0  0  0  0  0  0  0  0
   -1.3690    0.8500   -0.6770 C   0  0  2  0  0  0  0  0  0  0  0  0
   -1.6400    0.7370   -2.1710 C   0  0  0  0  0  0  0  0  0  0  0  0
   -2.2330   -0.6600   -2.3110 C   0  0  0  0  0  0  0  0  0  0  0  0
   -1.2090   -1.6070   -1.9190 N   0  0  0  0  0  0  0  0  0  0  0  0
   -0.3430   -1.3980   -0.7930 C   0  0  0  0  0  0  0  0  0  0  0  0
   -0.1280   -0.0130   -0.3450 C   0  0  2  0  0  0  0  0  0  0  0  0
    0.0380    0.1240    1.1340 C   0  0  0  0  0  0  0  0  0  0  0  0
   -0.6780    0.9460    1.7450 O   0  0  0  0  0  0  0  0  0  0  0  0
    0.9720   -0.6380    1.8640 N   0  0  0  0  0  0  0  0  0  0  0  0
    1.1200   -0.4920    3.2860 C   0  0  0  0  0  0  0  0  0  0  0  0
    2.1770   -1.4260    3.7760 C   0  0  0  0  0  0  0  0  0  0  0  0
    3.3880   -1.1680    3.1840 O   0  0  0  0  0  0  0  0  0  0  0  0
    1.0130    0.7410   -0.8720 C   0  0  0  0  0  0  0  0  0  0  0  0
    0.8890    2.1730   -0.6120 N   0  0  0  0  0  0  0  0  0  0  0  0
    1.7050    2.8680    0.0320 C   0  0  0  0  0  0  0  0  0  0  0  0
    1.4700    4.2180    0.2080 O   0  0  0  0  0  0  0  0  0  0  0  0
    2.9280    2.2840    0.6170 C   0  0  0  0  0  0  0  0  0  0  0  0
    2.9560    2.4900    2.0740 N   0  0  0  0  0  0  0  0  0  0  0  0
    4.0850    1.9740    2.7620 C   0  0  0  0  0  0  0  0  0  0  0  0
    5.0040    1.3730    2.1270 O   0  0  0  0  0  0  0  0  0  0  0  0
    4.2400    2.0980    4.1360 O   0  0  0  0  0  0  0  0  0  0  0  0
    1.9900    0.3500   -1.4650 N   0  0  0  0  0  0  0  0  0  0  0  0
    2.7000   -0.6880   -2.0000 C   0  0  0  0  0  0  0  0  0  0  0  0
    4.0150   -0.9990   -1.6800 C   0  0  0  0  0  0  0  0  0  0  0  0
    4.7080   -2.0440   -2.2410 C   0  0  0  0  0  0  0  0  0  0  0  0
    4.0420   -2.8130   -3.1700 C   0  0  0  0  0  0  0  0  0  0  0  0
    2.7380   -2.5310   -3.5090 C   0  0  0  0  0  0  0  0  0  0  0  0
    2.1400   -1.4980   -2.9170 N   0  0  0  0  0  0  0  0  0  0  0  0
    1.9880   -3.3530   -4.4860 C   0  0  0  0  0  0  0  0  0  0  0  0
    2.6430   -3.9230   -5.3690 O   0  0  0  0  0  0  0  0  0  0  0  0
    0.6390   -3.4050   -4.3200 O   0  0  0  0  0  0  0  0  0  0  0  0
    0.0070   -3.4320   -3.1150 O   0  0  0  0  0  0  0  0  0  0  0  0
   -1.1550   -2.8060   -2.7380 C   0  0  0  0  0  0  0  0  0  0  0  0
   -2.3370   -3.2310   -3.0790 O   0  0  0  0  0  0  0  0  0  0  0  0
   -5.8600    2.0820    0.3680 C   0  0  0  0  0  0  0  0  0  0  0  0
   -7.0210    2.0830    0.8800 O   0  0  0  0  0  0  0  0  0  0  0  0
   -5.5630    3.0860   -0.5320 O   0  0  0  0  0  0  0  0  0  0  0  0
  2  1  1  1
  2  3  1  0
  2  4  1  0
  2 41  1  0
  4  5  1  0
  5  6  2  0
  7  5  1  1
  7  8  1  0
  7 12  1  0
  8  9  1  0
  9 10  1  0
 10 11  1  0
 10 39  1  0
 11 12  1  0
 12 13  1  1
 12 19  1  0
 13 14  2  0
 13 15  1  0
 15 16  1  0
 16 17  1  0
 17 18  1  0
 19 20  1  0
 19 28  2  0
 20 21  2  3
 21 22  1  0
 21 23  1  0
 23 24  1  0
 24 25  1  0
 25 26  2  0
 25 27  1  0
 28 29  1  0
 29 30  2  0
 29 34  1  0
 30 31  1  0
 31 32  2  0
 32 33  1  0
 33 34  2  0
 33 35  1  0
 35 36  2  0
 35 37  1  0
 37 38  1  0
 38 39  1  0
 39 40  2  0
 41 42  2  0
 41 43  1  0
M  END
