
     RDKit          3D

 43 47  0  0  0  0  0  0  0  0999 V2000
   -7.5940   -0.8520    0.7850 O   0  0  0  0  0  0  0  0  0  0  0  0
   -7.4680   -0.6730   -0.5350 C   0  0  0  0  0  0  0  0  0  0  0  0
   -6.1140   -0.7460   -1.0210 C   0  0  0  0  0  0  0  0  0  0  0  0
   -5.1430   -0.9760    0.0790 C   0  0  1  0  0  0  0  0  0  0  0  0
   -3.8650   -1.0980   -0.1590 O   0  0  0  0  0  0  0  0  0  0  0  0
   -2.5920   -1.0070   -0.4330 C   0  0  0  0  0  0  0  0  0  0  0  0
   -1.7870   -2.0400    0.0160 C   0  0  0  0  0  0  0  0  0  0  0  0
   -0.4260   -2.0590   -0.2030 C   0  0  0  0  0  0  0  0  0  0  0  0
    0.1810   -1.0380   -0.8860 C   0  0  0  0  0  0  0  0  0  0  0  0
    1.5720   -0.9700   -1.0210 N   0  0  0  0  0  0  0  0  0  0  0  0
    2.3520   -1.4020    0.2180 C   0  0  0  0  0  0  0  0  0  0  0  0
    1.7010   -1.7170    1.1550 O   0  0  0  0  0  0  0  0  0  0  0  0
    3.6910   -1.3130   -0.0930 N   0  0  0  0  0  0  0  0  0  0  0  0
    4.2670   -2.1520    1.3430 C   0  0  0  0  0  0  0  0  0  0  0  0
    3.4210   -2.4900    2.0530 O   0  0  0  0  0  0  0  0  0  0  0  0
    5.6640   -2.2650    1.3450 C   0  0  0  0  0  0  0  0  0  0  0  0
    6.3760   -3.3600    1.9230 C   0  0  0  0  0  0  0  0  0  0  0  0
    7.6650   -3.1930    1.7020 N   0  0  0  0  0  0  0  0  0  0  0  0
    7.8730   -2.0790    1.0280 N   0  0  0  0  0  0  0  0  0  0  0  0
    8.8000   -1.3040    0.4850 C   0  0  0  0  0  0  0  0  0  0  0  0
    8.1650   -0.2390   -0.0810 C   0  0  0  0  0  0  0  0  0  0  0  0
    8.7900    0.8990   -0.8060 C   0  0  2  0  0  0  0  0  0  0  0  0
    8.9890    2.1090    0.0500 C   0  0  0  0  0  0  0  0  0  0  0  0
    8.7480    3.1940   -0.8210 O   0  0  0  0  0  0  0  0  0  0  0  0
    7.7980    2.7070   -1.6900 C   0  0  0  0  0  0  0  0  0  0  0  0
    8.0360    1.3650   -1.8590 O   0  0  0  0  0  0  0  0  0  0  0  0
    6.8910   -0.3750    0.1170 O   0  0  0  0  0  0  0  0  0  0  0  0
    6.6580   -1.5000    0.8010 C   0  0  0  0  0  0  0  0  0  0  0  0
   -0.6200   -0.0220   -1.3290 C   0  0  0  0  0  0  0  0  0  0  0  0
   -1.9640    0.0290   -1.1290 C   0  0  0  0  0  0  0  0  0  0  0  0
   -2.6600    1.1980   -1.6840 C   0  0  0  0  0  0  0  0  0  0  0  0
   -2.6760    2.3180   -0.8170 O   0  0  0  0  0  0  0  0  0  0  0  0
   -3.8490    2.2750   -0.1010 C   0  0  0  0  0  0  0  0  0  0  0  0
   -4.5590    3.5540    0.1680 C   0  0  0  0  0  0  0  0  0  0  0  0
   -5.9220    3.2310    0.2280 O   0  0  0  0  0  0  0  0  0  0  0  0
   -6.5070    2.1420    0.8330 C   0  0  0  0  0  0  0  0  0  0  0  0
   -7.8060    2.2750    0.6570 O   0  0  0  0  0  0  0  0  0  0  0  0
   -6.0150    1.0400    1.5240 N   0  0  0  0  0  0  0  0  0  0  0  0
   -5.3580   -0.1610    1.3060 C   0  0  0  0  0  0  0  0  0  0  0  0
   -4.7880   -0.7660    2.3300 O   0  0  0  0  0  0  0  0  0  0  0  0
   -8.6860   -0.4550   -1.1550 N   0  0  0  0  0  0  0  0  0  0  0  0
   -9.8510   -0.4340   -0.4990 O   0  0  0  0  0  0  0  0  0  0  0  0
   -9.6460   -0.3950    0.8180 O   0  0  0  0  0  0  0  0  0  0  0  0
  1  2  2  0
  2  3  1  0
  2 41  1  0
  4  3  1  6
  4  5  1  0
  4 39  1  0
  5  6  1  0
  6  7  2  0
  6 30  1  0
  7  8  1  0
  8  9  2  0
  9 10  1  0
  9 29  1  0
 10 11  1  0
 11 12  2  0
 11 13  1  0
 13 14  1  0
 14 15  2  0
 14 16  1  0
 16 17  1  0
 16 28  2  0
 17 18  2  0
 18 19  1  0
 19 20  1  0
 19 28  1  0
 20 21  2  0
 22 21  1  1
 21 27  1  0
 22 23  1  0
 22 26  1  0
 23 24  1  0
 24 25  1  0
 25 26  1  0
 27 28  1  0
 29 30  2  0
 30 31  1  0
 31 32  1  0
 32 33  1  0
 33 34  1  0
 34 35  1  0
 35 36  1  0
 36 37  2  0
 36 38  1  0
 38 39  1  0
 39 40  2  0
 41 42  1  0
 42 43  1  0
M  END
