
     RDKit          3D

 43 45  0  0  0  0  0  0  0  0999 V2000
    7.1270    2.6640    0.6760 C   0  0  0  0  0  0  0  0  0  0  0  0
    6.0660    3.6870    1.0860 C   0  0  0  0  0  0  0  0  0  0  0  0
    4.8180    3.0310    1.3890 N   0  0  0  0  0  0  0  0  0  0  0  0
    4.3990    2.5310    2.6810 C   0  0  0  0  0  0  0  0  0  0  0  0
    3.0750    1.8740    2.4580 C   0  0  0  0  0  0  0  0  0  0  0  0
    2.8900    1.7810    1.0020 N   0  0  0  0  0  0  0  0  0  0  0  0
    2.0260    0.9020    0.3940 O   0  0  0  0  0  0  0  0  0  0  0  0
    2.3070   -0.3980    0.1200 C   0  0  0  0  0  0  0  0  0  0  0  0
    3.5170   -0.7330    0.5060 O   0  0  0  0  0  0  0  0  0  0  0  0
    1.5930   -1.4220   -0.4720 N   0  0  0  0  0  0  0  0  0  0  0  0
    2.2670   -2.7260   -0.6260 C   0  0  0  0  0  0  0  0  0  0  0  0
    2.3120   -3.0770   -2.0860 C   0  0  0  0  0  0  0  0  0  0  0  0
    1.2760   -2.4260   -2.8700 N   0  0  0  0  0  0  0  0  0  0  0  0
    0.4950   -1.3190   -2.4530 C   0  0  0  0  0  0  0  0  0  0  0  0
    0.0470   -0.4870   -3.2650 O   0  0  0  0  0  0  0  0  0  0  0  0
    0.2560   -1.2340   -0.9460 C   0  0  1  0  0  0  0  0  0  0  0  0
   -0.5660   -2.4490   -0.6560 C   0  0  0  0  0  0  0  0  0  0  0  0
   -0.0750   -3.5420   -0.9840 O   0  0  0  0  0  0  0  0  0  0  0  0
   -1.8300   -2.4600   -0.0470 N   0  0  0  0  0  0  0  0  0  0  0  0
   -2.6540   -3.5680    0.2390 C   0  0  0  0  0  0  0  0  0  0  0  0
   -3.7340   -3.4620    1.1270 C   0  0  0  0  0  0  0  0  0  0  0  0
   -4.5530   -4.5270    1.3980 C   0  0  0  0  0  0  0  0  0  0  0  0
   -4.3620   -5.7480    0.8180 C   0  0  0  0  0  0  0  0  0  0  0  0
   -3.3140   -5.8970   -0.0600 C   0  0  0  0  0  0  0  0  0  0  0  0
   -2.4780   -4.7990   -0.3330 C   0  0  0  0  0  0  0  0  0  0  0  0
   -0.3540    0.0200   -0.5450 C   0  0  2  0  0  0  0  0  0  0  0  0
   -0.5080    0.2490    0.8990 C   0  0  0  0  0  0  0  0  0  0  0  0
   -0.2250   -0.5710    1.7970 O   0  0  0  0  0  0  0  0  0  0  0  0
   -1.0130    1.4810    1.3510 O   0  0  0  0  0  0  0  0  0  0  0  0
   -1.1760    1.7400    2.7320 C   0  0  0  0  0  0  0  0  0  0  0  0
   -1.6690    0.3250   -1.2280 C   0  0  0  0  0  0  0  0  0  0  0  0
   -2.2010   -0.4010   -2.0950 O   0  0  0  0  0  0  0  0  0  0  0  0
   -2.3720    1.4820   -0.9060 O   0  0  0  0  0  0  0  0  0  0  0  0
   -3.5840    1.8050   -1.5060 C   0  0  0  0  0  0  0  0  0  0  0  0
   -4.0230    0.9920   -2.3620 O   0  0  0  0  0  0  0  0  0  0  0  0
   -4.3270    3.0130   -1.1800 C   0  0  0  0  0  0  0  0  0  0  0  0
   -3.8470    3.7980   -0.3250 O   0  0  0  0  0  0  0  0  0  0  0  0
   -5.5580    3.2410   -1.8500 N   0  0  0  0  0  0  0  0  0  0  0  0
   -6.3120    4.4100   -1.5670 C   0  0  0  0  0  0  0  0  0  0  0  0
   -5.9040    5.2440   -0.7300 O   0  0  0  0  0  0  0  0  0  0  0  0
   -7.5230    4.6210   -2.2370 O   0  0  0  0  0  0  0  0  0  0  0  0
    3.7660    2.7540    0.4540 C   0  0  0  0  0  0  0  0  0  0  0  0
    3.5970    3.2630   -0.6850 O   0  0  0  0  0  0  0  0  0  0  0  0
  1  2  1  0
  2  3  1  0
  3  4  1  0
  3 42  1  0
  4  5  1  0
  5  6  1  0
  6  7  1  0
  6 42  1  0
  7  8  1  0
  8  9  2  0
  8 10  1  0
 10 11  1  0
 10 16  1  0
 11 12  1  0
 12 13  1  0
 13 14  1  0
 14 15  2  0
 14 16  1  0
 16 17  1  1
 16 26  1  0
 17 18  2  0
 17 19  1  0
 19 20  1  0
 20 21  2  0
 20 25  1  0
 21 22  1  0
 22 23  2  0
 23 24  1  0
 24 25  2  0
 26 27  1  1
 26 31  1  0
 27 28  2  0
 27 29  1  0
 29 30  1  0
 31 32  2  0
 31 33  1  0
 33 34  1  0
 34 35  2  0
 34 36  1  0
 36 37  2  0
 36 38  1  0
 38 39  1  0
 39 40  2  0
 39 41  1  0
 42 43  2  0
M  END
