
     RDKit          3D

 22 24  0  0  0  0  0  0  0  0999 V2000
   -2.4140    1.8700    1.1690 C   0  0  0  0  0  0  0  0  0  0  0  0
   -2.2030    0.5140    0.6320 C   0  0  0  0  0  0  0  0  0  0  0  0
   -0.9540    0.2250    0.2760 C   0  0  0  0  0  0  0  0  0  0  0  0
    0.1650    1.1520    0.3870 C   0  0  0  0  0  0  0  0  0  0  0  0
    1.3890    0.7780    0.0110 C   0  0  0  0  0  0  0  0  0  0  0  0
    1.7910   -0.5400   -0.5410 C   0  0  0  0  0  0  0  0  0  0  0  0
    3.2480   -0.3990   -0.7780 C   0  0  0  0  0  0  0  0  0  0  0  0
    4.1890   -1.2900   -1.2830 C   0  0  0  0  0  0  0  0  0  0  0  0
    5.5090   -0.9500   -1.4230 C   0  0  0  0  0  0  0  0  0  0  0  0
    5.9460    0.3130   -1.0570 C   0  0  0  0  0  0  0  0  0  0  0  0
    7.3020    0.7060   -1.1840 N   0  0  0  0  0  0  0  0  0  0  0  0
    4.9980    1.1820   -0.5580 C   0  0  0  0  0  0  0  0  0  0  0  0
    3.6640    0.8550   -0.4110 C   0  0  0  0  0  0  0  0  0  0  0  0
    2.5480    1.5860    0.0710 N   0  0  0  0  0  0  0  0  0  0  0  0
   -3.2060   -0.5210    0.5230 C   0  0  0  0  0  0  0  0  0  0  0  0
   -2.8530   -1.8310    0.3270 N   0  0  0  0  0  0  0  0  0  0  0  0
   -3.7480   -2.8230    0.1780 C   0  0  0  0  0  0  0  0  0  0  0  0
   -3.3650   -4.0160   -0.0010 O   0  0  0  0  0  0  0  0  0  0  0  0
   -5.0930   -2.6060    0.2110 C   0  0  0  0  0  0  0  0  0  0  0  0
   -5.5050   -1.3110    0.4040 C   0  0  0  0  0  0  0  0  0  0  0  0
   -4.5480   -0.2780    0.5580 C   0  0  0  0  0  0  0  0  0  0  0  0
   -5.1160    1.0750    0.7080 C   0  0  0  0  0  0  0  0  0  0  0  0
  1  2  1  0
  2  3  2  3
  2 15  1  0
  3  4  1  0
  4  5  2  3
  5  6  1  0
  5 14  1  0
  6  7  1  0
  7  8  2  0
  7 13  1  0
  8  9  1  0
  9 10  2  0
 10 11  1  0
 10 12  1  0
 12 13  2  0
 13 14  1  0
 15 16  1  0
 15 21  2  0
 16 17  1  0
 17 18  2  0
 17 19  1  0
 19 20  2  0
 20 21  1  0
 21 22  1  0
M  END
