
     RDKit          3D

 22 24  0  0  0  0  0  0  0  0999 V2000
    5.3910   -0.3240    1.3560 C   0  0  0  0  0  0  0  0  0  0  0  0
    5.1490   -1.5240    0.5130 C   0  0  0  0  0  0  0  0  0  0  0  0
    4.3990   -1.3710   -0.7460 C   0  0  0  0  0  0  0  0  0  0  0  0
    3.0650   -0.9230   -0.7430 N   0  0  0  0  0  0  0  0  0  0  0  0
    2.6330    0.3460   -0.3420 C   0  0  0  0  0  0  0  0  0  0  0  0
    3.3980    1.2260    0.0460 O   0  0  0  0  0  0  0  0  0  0  0  0
    1.1860    0.6690   -0.3770 C   0  0  0  0  0  0  0  0  0  0  0  0
    0.2630   -0.3020   -0.0460 C   0  0  0  0  0  0  0  0  0  0  0  0
   -1.0800    0.0040   -0.0800 C   0  0  0  0  0  0  0  0  0  0  0  0
   -1.4410    1.2970   -0.4530 C   0  0  0  0  0  0  0  0  0  0  0  0
   -0.5180    2.2610   -0.7810 C   0  0  0  0  0  0  0  0  0  0  0  0
    0.8180    1.9480   -0.7440 C   0  0  0  0  0  0  0  0  0  0  0  0
    1.8780    2.9310   -1.0850 C   0  0  0  0  0  0  0  0  0  0  0  0
   -2.8110    1.6610   -0.5030 N   0  0  0  0  0  0  0  0  0  0  0  0
   -3.8170    0.6990   -0.1720 C   0  0  0  0  0  0  0  0  0  0  0  0
   -5.0940    0.9780   -0.2010 C   0  0  0  0  0  0  0  0  0  0  0  0
   -6.1340    0.0150    0.1330 C   0  0  0  0  0  0  0  0  0  0  0  0
   -5.6360   -1.3060    0.5070 C   0  0  0  0  0  0  0  0  0  0  0  0
   -4.3760   -1.6150    0.5460 C   0  0  0  0  0  0  0  0  0  0  0  0
   -3.3500   -0.6400    0.2100 C   0  0  0  0  0  0  0  0  0  0  0  0
   -2.0780   -0.9850    0.2590 C   0  0  0  0  0  0  0  0  0  0  0  0
   -1.6890   -2.2960    0.6360 N   0  0  0  0  0  0  0  0  0  0  0  0
  1  2  1  0
  2  3  1  0
  3  4  1  0
  4  5  1  0
  5  6  2  0
  5  7  1  0
  7  8  2  0
  7 12  1  0
  8  9  1  0
  9 10  2  0
  9 21  1  0
 10 11  1  0
 10 14  1  0
 11 12  2  0
 12 13  1  0
 14 15  1  0
 15 16  2  0
 15 20  1  0
 16 17  1  0
 17 18  1  0
 18 19  2  0
 19 20  1  0
 20 21  2  0
 21 22  1  0
M  END
