
     RDKit          3D

 22 24  0  0  0  0  0  0  0  0999 V2000
   -6.2640   -1.4040   -1.4250 N   0  0  0  0  0  0  0  0  0  0  0  0
   -5.7100   -0.3370   -0.6640 C   0  0  0  0  0  0  0  0  0  0  0  0
   -6.5280    0.5090   -0.1730 N   0  0  0  0  0  0  0  0  0  0  0  0
   -4.2540   -0.2550   -0.4780 C   0  0  0  0  0  0  0  0  0  0  0  0
   -3.4540   -1.2230   -1.0520 C   0  0  0  0  0  0  0  0  0  0  0  0
   -2.0670   -1.2150   -0.9220 C   0  0  0  0  0  0  0  0  0  0  0  0
   -1.4470   -0.2190   -0.2010 C   0  0  0  0  0  0  0  0  0  0  0  0
   -0.0590   -0.2180   -0.0760 C   0  0  0  0  0  0  0  0  0  0  0  0
    0.5440    0.7820    0.6450 C   0  0  0  0  0  0  0  0  0  0  0  0
    2.0210    0.8360    0.8080 C   0  0  0  0  0  0  0  0  0  0  0  0
    2.4820    1.6660    1.6470 O   0  0  0  0  0  0  0  0  0  0  0  0
    2.8870    0.0190    0.0790 N   0  0  0  0  0  0  0  0  0  0  0  0
    4.2960   -0.0000    0.1780 C   0  0  0  0  0  0  0  0  0  0  0  0
    4.9930   -0.6260   -0.8740 C   0  0  0  0  0  0  0  0  0  0  0  0
    6.3530   -0.6800   -0.8040 C   0  0  0  0  0  0  0  0  0  0  0  0
    7.0630   -0.1570    0.2360 C   0  0  0  0  0  0  0  0  0  0  0  0
    6.3660    0.4460    1.2460 C   0  0  0  0  0  0  0  0  0  0  0  0
    4.9650    0.5350    1.2360 C   0  0  0  0  0  0  0  0  0  0  0  0
   -0.2230    1.7770    1.2400 C   0  0  0  0  0  0  0  0  0  0  0  0
   -1.5920    1.7380    1.0910 C   0  0  0  0  0  0  0  0  0  0  0  0
   -2.2320    0.7520    0.3760 C   0  0  0  0  0  0  0  0  0  0  0  0
   -3.6260    0.7310    0.2360 C   0  0  0  0  0  0  0  0  0  0  0  0
  1  2  1  0
  2  3  2  0
  2  4  1  0
  4  5  2  0
  4 22  1  0
  5  6  1  0
  6  7  2  0
  7  8  1  0
  7 21  1  0
  8  9  2  0
  9 10  1  0
  9 19  1  0
 10 11  2  0
 10 12  1  0
 12 13  1  0
 13 14  2  0
 13 18  1  0
 14 15  1  0
 15 16  2  0
 16 17  1  0
 17 18  2  0
 19 20  2  0
 20 21  1  0
 21 22  2  0
M  CHG  1   3   1
M  END
