
     RDKit          3D

 22 23  0  0  0  0  0  0  0  0999 V2000
    5.0290    2.3530   -0.2630 C   0  0  0  0  0  0  0  0  0  0  0  0
    4.7720    1.2230   -1.2340 C   0  0  0  0  0  0  0  0  0  0  0  0
    4.1980    0.0940   -0.4470 C   0  0  0  0  0  0  0  0  0  0  0  0
    5.0520   -0.8340    0.1030 C   0  0  0  0  0  0  0  0  0  0  0  0
    4.5080   -1.8640    0.8230 C   0  0  0  0  0  0  0  0  0  0  0  0
    5.4300   -2.8720    1.4210 C   0  0  0  0  0  0  0  0  0  0  0  0
    3.1480   -1.9350    0.9680 C   0  0  0  0  0  0  0  0  0  0  0  0
    2.2620   -1.0120    0.4220 C   0  0  0  0  0  0  0  0  0  0  0  0
    0.8950   -1.2310    0.6660 N   0  0  0  0  0  0  0  0  0  0  0  0
   -0.1820   -0.3990    0.1950 C   0  0  0  0  0  0  0  0  0  0  0  0
    0.0820    0.6050   -0.4860 O   0  0  0  0  0  0  0  0  0  0  0  0
   -1.5300   -0.7030    0.4930 N   0  0  0  0  0  0  0  0  0  0  0  0
   -2.6460    0.0430    0.0820 C   0  0  0  0  0  0  0  0  0  0  0  0
   -2.6560    1.1820   -0.6730 C   0  0  0  0  0  0  0  0  0  0  0  0
   -3.8030    1.8630   -1.0410 C   0  0  0  0  0  0  0  0  0  0  0  0
   -3.7710    3.0450   -1.8280 N   0  0  0  0  0  0  0  0  0  0  0  0
   -5.0060    1.3790   -0.6300 C   0  0  0  0  0  0  0  0  0  0  0  0
   -5.0690    0.2340    0.1340 C   0  0  0  0  0  0  0  0  0  0  0  0
   -6.4060   -0.2720    0.5690 C   0  0  0  0  0  0  0  0  0  0  0  0
   -3.9080   -0.4190    0.4820 C   0  0  0  0  0  0  0  0  0  0  0  0
   -3.9980   -1.6680    1.3200 C   0  0  0  0  0  0  0  0  0  0  0  0
    2.8240    0.0050   -0.2890 C   0  0  0  0  0  0  0  0  0  0  0  0
  1  2  1  0
  2  3  1  0
  3  4  2  0
  3 22  1  0
  4  5  1  0
  5  6  1  0
  5  7  2  0
  7  8  1  0
  8  9  1  0
  8 22  2  0
  9 10  1  0
 10 11  2  0
 10 12  1  0
 12 13  1  0
 13 14  2  0
 13 20  1  0
 14 15  1  0
 15 16  1  0
 15 17  2  0
 17 18  1  0
 18 19  1  0
 18 20  2  0
 20 21  1  0
M  CHG  1  16   1
M  END
