
     RDKit          3D

 22 24  0  0  0  0  0  0  0  0999 V2000
   -6.6490   -0.6660   -1.0350 C   0  0  0  0  0  0  0  0  0  0  0  0
   -5.4160    0.0620   -0.5320 C   0  0  0  0  0  0  0  0  0  0  0  0
   -4.6940   -0.8650    0.4230 C   0  0  0  0  0  0  0  0  0  0  0  0
   -3.4870   -0.1600    0.9180 C   0  0  0  0  0  0  0  0  0  0  0  0
   -3.5620    0.6100    2.0570 C   0  0  0  0  0  0  0  0  0  0  0  0
   -2.4630    1.2620    2.5230 C   0  0  0  0  0  0  0  0  0  0  0  0
   -1.2530    1.1420    1.8310 C   0  0  0  0  0  0  0  0  0  0  0  0
   -1.1260    0.3870    0.6920 C   0  0  0  0  0  0  0  0  0  0  0  0
    0.1210    0.2460   -0.0460 C   0  0  0  0  0  0  0  0  0  0  0  0
    0.1680   -0.4770   -1.1050 O   0  0  0  0  0  0  0  0  0  0  0  0
    1.3280    0.8820    0.3500 N   0  0  0  0  0  0  0  0  0  0  0  0
    2.5310    0.7150   -0.4050 C   0  0  0  0  0  0  0  0  0  0  0  0
    2.8860    1.5490   -1.4430 C   0  0  0  0  0  0  0  0  0  0  0  0
    2.0530    2.6370   -1.8160 N   0  0  0  0  0  0  0  0  0  0  0  0
    4.0570    1.3710   -2.1630 C   0  0  0  0  0  0  0  0  0  0  0  0
    4.9010    0.3220   -1.8340 C   0  0  0  0  0  0  0  0  0  0  0  0
    4.5660   -0.5290   -0.7970 C   0  0  0  0  0  0  0  0  0  0  0  0
    3.3800   -0.3220   -0.0910 C   0  0  0  0  0  0  0  0  0  0  0  0
    3.3490   -1.4060    0.9330 C   0  0  0  0  0  0  0  0  0  0  0  0
    4.8230   -1.8110    1.0530 C   0  0  0  0  0  0  0  0  0  0  0  0
    5.2700   -1.6520   -0.2940 N   0  0  0  0  0  0  0  0  0  0  0  0
   -2.2830   -0.2590    0.2590 C   0  0  0  0  0  0  0  0  0  0  0  0
  1  2  1  0
  2  3  1  0
  3  4  1  0
  4  5  2  0
  4 22  1  0
  5  6  1  0
  6  7  2  0
  7  8  1  0
  8  9  1  0
  8 22  2  0
  9 10  2  0
  9 11  1  0
 11 12  1  0
 12 13  2  0
 12 18  1  0
 13 14  1  0
 13 15  1  0
 15 16  2  0
 16 17  1  0
 17 18  2  0
 17 21  1  0
 18 19  1  0
 19 20  1  0
 20 21  1  0
M  CHG  1  21   1
M  END
