
     RDKit          3D

 25 27  0  0  0  0  0  0  0  0999 V2000
    5.3860    2.8840   -0.6910 C   0  0  0  0  0  0  0  0  0  0  0  0
    4.3340    2.2410    0.1860 C   0  0  0  0  0  0  0  0  0  0  0  0
    3.6800    1.2670   -0.5660 O   0  0  0  0  0  0  0  0  0  0  0  0
    2.6530    0.4650   -0.0990 C   0  0  0  0  0  0  0  0  0  0  0  0
    2.2210    0.6140    1.2030 C   0  0  0  0  0  0  0  0  0  0  0  0
    1.2030   -0.1600    1.7180 C   0  0  0  0  0  0  0  0  0  0  0  0
    0.7870    0.0230    3.0620 N   0  0  0  0  0  0  0  0  0  0  0  0
    0.6130   -1.1040    0.8870 C   0  0  0  0  0  0  0  0  0  0  0  0
    1.0130   -1.2840   -0.4150 C   0  0  0  0  0  0  0  0  0  0  0  0
    0.3890   -2.2780   -1.2650 C   0  0  0  0  0  0  0  0  0  0  0  0
    1.1240   -3.1930   -1.9890 N   0  0  0  0  0  0  0  0  0  0  0  0
    0.3520   -3.9920   -2.6610 N   0  0  0  0  0  0  0  0  0  0  0  0
   -0.9110   -3.6230   -2.3980 C   0  0  0  0  0  0  0  0  0  0  0  0
   -0.9180   -2.5410   -1.5200 C   0  0  0  0  0  0  0  0  0  0  0  0
   -2.1140   -1.8470   -1.0730 C   0  0  0  0  0  0  0  0  0  0  0  0
   -3.1980   -2.5280   -1.0620 O   0  0  0  0  0  0  0  0  0  0  0  0
   -2.2170   -0.5130   -0.6580 N   0  0  0  0  0  0  0  0  0  0  0  0
   -3.3290    0.2130   -0.2110 C   0  0  0  0  0  0  0  0  0  0  0  0
   -4.6030   -0.3060   -0.1380 C   0  0  0  0  0  0  0  0  0  0  0  0
   -5.7120    0.4270    0.3040 C   0  0  0  0  0  0  0  0  0  0  0  0
   -5.5440    1.7040    0.6810 N   0  0  0  0  0  0  0  0  0  0  0  0
   -4.3200    2.2490    0.6260 C   0  0  0  0  0  0  0  0  0  0  0  0
   -3.1940    1.5270    0.1850 C   0  0  0  0  0  0  0  0  0  0  0  0
   -1.9720    2.1370    0.1510 O   0  0  0  0  0  0  0  0  0  0  0  0
    2.0350   -0.4840   -0.8770 C   0  0  0  0  0  0  0  0  0  0  0  0
  1  2  1  0
  2  3  1  0
  3  4  1  0
  4  5  2  0
  4 25  1  0
  5  6  1  0
  6  7  1  0
  6  8  2  0
  8  9  1  0
  9 10  1  0
  9 25  2  0
 10 11  2  0
 10 14  1  0
 11 12  1  0
 12 13  1  0
 13 14  2  0
 14 15  1  0
 15 16  2  0
 15 17  1  0
 17 18  1  0
 18 19  2  0
 18 23  1  0
 19 20  1  0
 20 21  2  0
 21 22  1  0
 22 23  2  0
 23 24  1  0
M  END
