
     RDKit          3D

 25 27  0  0  0  0  0  0  0  0999 V2000
    5.3730   -2.2600    2.1940 N   0  0  0  0  0  0  0  0  0  0  0  0
    4.4450   -2.8660    1.3790 O   0  0  0  0  0  0  0  0  0  0  0  0
    3.8240   -2.1620    0.3390 C   0  0  0  0  0  0  0  0  0  0  0  0
    2.7120   -1.3920    0.5910 C   0  0  0  0  0  0  0  0  0  0  0  0
    2.0520   -0.6680   -0.4090 C   0  0  0  0  0  0  0  0  0  0  0  0
    0.9030    0.0860   -0.0550 N   0  0  0  0  0  0  0  0  0  0  0  0
    0.2540    1.0290   -0.8610 C   0  0  0  0  0  0  0  0  0  0  0  0
    0.7570    1.2680   -2.0270 O   0  0  0  0  0  0  0  0  0  0  0  0
   -0.9550    1.7670   -0.5130 C   0  0  0  0  0  0  0  0  0  0  0  0
   -1.2800    2.8920   -1.3120 C   0  0  0  0  0  0  0  0  0  0  0  0
   -2.2710    3.7710   -1.0420 C   0  0  0  0  0  0  0  0  0  0  0  0
   -2.5370    4.8790   -1.8950 N   0  0  0  0  0  0  0  0  0  0  0  0
   -3.0340    3.5800    0.0890 C   0  0  0  0  0  0  0  0  0  0  0  0
   -2.7650    2.5110    0.8930 C   0  0  0  0  0  0  0  0  0  0  0  0
   -1.7290    1.6000    0.5940 C   0  0  0  0  0  0  0  0  0  0  0  0
   -1.5740    0.5560    1.4820 O   0  0  0  0  0  0  0  0  0  0  0  0
   -1.9090   -0.7440    1.0110 C   0  0  0  0  0  0  0  0  0  0  0  0
   -1.7570   -1.8270    1.8430 C   0  0  0  0  0  0  0  0  0  0  0  0
   -2.0870   -3.0880    1.3730 C   0  0  0  0  0  0  0  0  0  0  0  0
   -2.5550   -3.2280    0.0910 C   0  0  0  0  0  0  0  0  0  0  0  0
   -2.7040   -2.1720   -0.7230 N   0  0  0  0  0  0  0  0  0  0  0  0
   -2.3760   -0.9330   -0.2500 C   0  0  0  0  0  0  0  0  0  0  0  0
    2.5710   -0.7650   -1.6580 C   0  0  0  0  0  0  0  0  0  0  0  0
    3.7070   -1.5570   -1.8930 C   0  0  0  0  0  0  0  0  0  0  0  0
    4.3110   -2.2350   -0.9090 N   0  0  0  0  0  0  0  0  0  0  0  0
  1  2  1  0
  2  3  1  0
  3  4  2  0
  3 25  1  0
  4  5  1  0
  5  6  1  0
  5 23  2  0
  6  7  1  0
  7  8  2  0
  7  9  1  0
  9 10  2  0
  9 15  1  0
 10 11  1  0
 11 12  1  0
 11 13  2  0
 13 14  1  0
 14 15  2  0
 15 16  1  0
 16 17  1  0
 17 18  2  0
 17 22  1  0
 18 19  1  0
 19 20  2  0
 20 21  1  0
 21 22  2  0
 23 24  1  0
 24 25  2  0
M  END
