
     RDKit          3D

 25 27  0  0  0  0  0  0  0  0999 V2000
    8.0030    1.4360    1.5540 O   0  0  0  0  0  0  0  0  0  0  0  0
    8.4040    0.8870    0.5160 C   0  0  0  0  0  0  0  0  0  0  0  0
    7.4960    0.3170   -0.4040 N   0  0  0  0  0  0  0  0  0  0  0  0
    6.0930    0.2900   -0.2840 C   0  0  0  0  0  0  0  0  0  0  0  0
    5.3580   -0.3230   -1.3020 C   0  0  0  0  0  0  0  0  0  0  0  0
    4.0020   -0.4090   -1.2940 C   0  0  0  0  0  0  0  0  0  0  0  0
    3.2680    0.1310   -0.2300 C   0  0  0  0  0  0  0  0  0  0  0  0
    1.8100    0.0150   -0.2650 C   0  0  0  0  0  0  0  0  0  0  0  0
    1.0400    0.4900    0.6840 C   0  0  0  0  0  0  0  0  0  0  0  0
   -0.4160    0.3760    0.6550 C   0  0  0  0  0  0  0  0  0  0  0  0
   -1.0310    0.8880    1.6520 O   0  0  0  0  0  0  0  0  0  0  0  0
   -1.1440   -0.2410   -0.3710 N   0  0  0  0  0  0  0  0  0  0  0  0
   -2.5490   -0.3790   -0.4560 C   0  0  0  0  0  0  0  0  0  0  0  0
   -3.0790   -1.1380   -1.5110 C   0  0  0  0  0  0  0  0  0  0  0  0
   -4.4270   -1.3310   -1.6900 C   0  0  0  0  0  0  0  0  0  0  0  0
   -5.3380   -0.7750   -0.8220 C   0  0  0  0  0  0  0  0  0  0  0  0
   -4.8420   -0.0290    0.2170 C   0  0  0  0  0  0  0  0  0  0  0  0
   -3.4570    0.1610    0.3890 C   0  0  0  0  0  0  0  0  0  0  0  0
   -5.7630    0.5560    1.1270 N   0  0  0  0  0  0  0  0  0  0  0  0
   -7.1500    0.3830    0.9810 N   0  0  0  0  0  0  0  0  0  0  0  0
   -7.6700   -0.3900   -0.0960 C   0  0  0  0  0  0  0  0  0  0  0  0
   -8.9160   -0.5470   -0.2300 O   0  0  0  0  0  0  0  0  0  0  0  0
   -6.7370   -0.9690   -0.9980 N   0  0  0  0  0  0  0  0  0  0  0  0
    3.9580    0.7350    0.7750 C   0  0  0  0  0  0  0  0  0  0  0  0
    5.3500    0.8050    0.7340 C   0  0  0  0  0  0  0  0  0  0  0  0
  1  2  2  0
  2  3  1  0
  3  4  1  0
  4  5  2  0
  4 25  1  0
  5  6  1  0
  6  7  2  0
  7  8  1  0
  7 24  1  0
  8  9  2  3
  9 10  1  0
 10 11  2  0
 10 12  1  0
 12 13  1  0
 13 14  2  0
 13 18  1  0
 14 15  1  0
 15 16  2  0
 16 17  1  0
 16 23  1  0
 17 18  2  0
 17 19  1  0
 19 20  1  0
 20 21  1  0
 21 22  2  0
 21 23  1  0
 24 25  2  0
M  END
