
     RDKit          3D

 24 26  0  0  0  0  0  0  0  0999 V2000
   -4.3240   -1.3740   -2.1040 C   0  0  0  0  0  0  0  0  0  0  0  0
   -3.7320   -0.4230   -1.2350 O   0  0  0  0  0  0  0  0  0  0  0  0
   -2.3600   -0.5240   -1.0110 C   0  0  0  0  0  0  0  0  0  0  0  0
   -1.5830   -1.4980   -1.5960 C   0  0  0  0  0  0  0  0  0  0  0  0
   -0.2060   -1.5950   -1.3670 C   0  0  0  0  0  0  0  0  0  0  0  0
    0.3760   -0.6950   -0.5410 C   0  0  0  0  0  0  0  0  0  0  0  0
    1.7360   -0.6520   -0.2240 N   0  0  0  0  0  0  0  0  0  0  0  0
    2.7720   -1.4280   -0.8050 C   0  0  0  0  0  0  0  0  0  0  0  0
    2.5120   -2.2570   -1.7040 O   0  0  0  0  0  0  0  0  0  0  0  0
    4.1620   -1.2980   -0.3880 C   0  0  0  0  0  0  0  0  0  0  0  0
    5.2890   -1.9490   -0.8220 C   0  0  0  0  0  0  0  0  0  0  0  0
    6.3550   -1.4960   -0.1420 N   0  0  0  0  0  0  0  0  0  0  0  0
    5.9580   -0.5390    0.7540 C   0  0  0  0  0  0  0  0  0  0  0  0
    4.6320   -0.4120    0.6130 C   0  0  0  0  0  0  0  0  0  0  0  0
    4.5530    0.6200    1.6490 C   0  0  0  0  0  0  0  0  0  0  0  0
    6.0150    0.4740    1.7990 C   0  0  0  0  0  0  0  0  0  0  0  0
   -0.4290    0.2810    0.0400 C   0  0  0  0  0  0  0  0  0  0  0  0
   -1.7750    0.3960   -0.1680 C   0  0  0  0  0  0  0  0  0  0  0  0
   -2.5870    1.4320    0.4560 C   0  0  0  0  0  0  0  0  0  0  0  0
   -3.8460    1.4790    0.2130 N   0  0  0  0  0  0  0  0  0  0  0  0
   -4.6830    2.4350    0.7690 N   0  0  0  0  0  0  0  0  0  0  0  0
   -5.9340    2.0710    1.3240 C   0  0  0  0  0  0  0  0  0  0  0  0
   -6.7590    3.0880    1.8840 N   0  0  0  0  0  0  0  0  0  0  0  0
   -6.2940    0.8480    1.3110 O   0  0  0  0  0  0  0  0  0  0  0  0
  1  2  1  0
  2  3  1  0
  3  4  2  0
  3 18  1  0
  4  5  1  0
  5  6  2  0
  6  7  1  0
  6 17  1  0
  7  8  1  0
  8  9  2  0
  8 10  1  0
 10 11  2  0
 10 14  1  0
 11 12  1  0
 12 13  1  0
 13 14  2  0
 13 16  1  0
 14 15  1  0
 15 16  1  0
 17 18  2  0
 18 19  1  0
 19 20  2  3
 20 21  1  0
 21 22  1  0
 22 23  1  0
 22 24  2  0
M  END
