
     RDKit          3D

 24 26  0  0  0  0  0  0  0  0999 V2000
    2.2070    1.0920   -1.1720 O   0  0  0  0  0  0  0  0  0  0  0  0
    1.3080    0.8800   -0.3350 C   0  0  0  0  0  0  0  0  0  0  0  0
    1.6490    1.2150    1.0210 N   0  0  0  0  0  0  0  0  0  0  0  0
    2.9280    1.7530    1.3830 C   0  0  0  0  0  0  0  0  0  0  0  0
    4.0090    0.7250    1.4040 C   0  0  0  0  0  0  0  0  0  0  0  0
    4.8670    0.4000    0.3620 C   0  0  0  0  0  0  0  0  0  0  0  0
    5.6830   -0.6050    0.8650 C   0  0  0  0  0  0  0  0  0  0  0  0
    5.3550   -0.8860    2.1350 N   0  0  0  0  0  0  0  0  0  0  0  0
    4.3340   -0.0800    2.4760 C   0  0  0  0  0  0  0  0  0  0  0  0
    0.0290    0.3530   -0.6310 N   0  0  0  0  0  0  0  0  0  0  0  0
   -0.3780   -0.0080   -1.9230 C   0  0  0  0  0  0  0  0  0  0  0  0
    0.4540   -0.0570   -3.0070 C   0  0  0  0  0  0  0  0  0  0  0  0
   -0.0400   -0.4690   -4.1950 N   0  0  0  0  0  0  0  0  0  0  0  0
   -1.2910   -0.8260   -4.3560 N   0  0  0  0  0  0  0  0  0  0  0  0
   -2.1290   -0.7880   -3.3170 C   0  0  0  0  0  0  0  0  0  0  0  0
   -1.7200   -0.3820   -2.0670 C   0  0  0  0  0  0  0  0  0  0  0  0
   -2.6760   -0.3100   -0.9570 C   0  0  0  0  0  0  0  0  0  0  0  0
   -2.8450    0.8660   -0.2690 C   0  0  0  0  0  0  0  0  0  0  0  0
   -3.7390    0.9590    0.7860 C   0  0  0  0  0  0  0  0  0  0  0  0
   -4.5000   -0.1440    1.1850 C   0  0  0  0  0  0  0  0  0  0  0  0
   -5.3770    0.0090    2.2460 O   0  0  0  0  0  0  0  0  0  0  0  0
   -4.3300   -1.3240    0.4940 C   0  0  0  0  0  0  0  0  0  0  0  0
   -5.0760   -2.4310    0.8740 O   0  0  0  0  0  0  0  0  0  0  0  0
   -3.4240   -1.3940   -0.5640 C   0  0  0  0  0  0  0  0  0  0  0  0
  1  2  2  0
  2  3  1  0
  2 10  1  0
  3  4  1  0
  4  5  1  0
  5  6  1  0
  5  9  2  0
  6  7  2  0
  7  8  1  0
  8  9  1  0
 10 11  1  0
 11 12  2  0
 11 16  1  0
 12 13  1  0
 13 14  2  0
 14 15  1  0
 15 16  2  0
 16 17  1  0
 17 18  2  0
 17 24  1  0
 18 19  1  0
 19 20  2  0
 20 21  1  0
 20 22  1  0
 22 23  1  0
 22 24  2  0
M  END
