
     RDKit          3D

 25 27  0  0  0  0  0  0  0  0999 V2000
   -4.0730   -3.1260    0.1850 C   0  0  0  0  0  0  0  0  0  0  0  0
   -4.5750   -1.7450    0.0700 C   0  0  0  0  0  0  0  0  0  0  0  0
   -5.7110   -1.2870   -0.2490 O   0  0  0  0  0  0  0  0  0  0  0  0
   -5.7840    0.0280   -0.2450 C   0  0  0  0  0  0  0  0  0  0  0  0
   -6.8140    0.8970   -0.5010 C   0  0  0  0  0  0  0  0  0  0  0  0
   -6.6150    2.2130   -0.3820 N   0  0  0  0  0  0  0  0  0  0  0  0
   -5.3920    2.7290   -0.0100 C   0  0  0  0  0  0  0  0  0  0  0  0
   -4.3550    1.8730    0.2450 C   0  0  0  0  0  0  0  0  0  0  0  0
   -4.5150    0.5140    0.1300 C   0  0  0  0  0  0  0  0  0  0  0  0
   -3.7320   -0.5900    0.3320 C   0  0  0  0  0  0  0  0  0  0  0  0
   -2.4680   -0.7750    0.9590 C   0  0  0  0  0  0  0  0  0  0  0  0
   -1.2190   -0.2400    0.5210 N   0  0  0  0  0  0  0  0  0  0  0  0
   -0.5920   -0.9360   -0.6130 C   0  0  0  0  0  0  0  0  0  0  0  0
   -1.2330   -1.8620   -1.1180 O   0  0  0  0  0  0  0  0  0  0  0  0
    0.7610   -0.5130   -1.0730 C   0  0  0  0  0  0  0  0  0  0  0  0
    1.3920    0.3560   -0.3720 C   0  0  0  0  0  0  0  0  0  0  0  0
    2.5430    1.0610   -0.3340 N   0  0  0  0  0  0  0  0  0  0  0  0
    3.9050    0.8190   -0.1950 C   0  0  0  0  0  0  0  0  0  0  0  0
    4.8290    1.8930    0.0080 C   0  0  0  0  0  0  0  0  0  0  0  0
    6.0470    1.4040    0.0910 N   0  0  0  0  0  0  0  0  0  0  0  0
    6.0510    0.0790   -0.0320 C   0  0  0  0  0  0  0  0  0  0  0  0
    7.2550   -0.7740    0.0010 C   0  0  0  0  0  0  0  0  0  0  0  0
    8.5140   -0.1150    0.1640 N   0  0  0  0  0  0  0  0  0  0  0  0
    7.2240   -2.0240   -0.1060 O   0  0  0  0  0  0  0  0  0  0  0  0
    4.7360   -0.2720   -0.2110 C   0  0  0  0  0  0  0  0  0  0  0  0
  1  2  1  0
  2  3  1  0
  2 10  2  0
  3  4  1  0
  4  5  2  0
  4  9  1  0
  5  6  1  0
  6  7  2  0
  7  8  1  0
  8  9  2  0
  9 10  1  0
 10 11  1  0
 11 12  1  0
 12 13  1  0
 13 14  2  0
 13 15  1  0
 15 16  2  3
 16 17  1  0
 17 18  1  0
 18 19  2  0
 18 25  1  0
 19 20  1  0
 20 21  1  0
 21 22  1  0
 21 25  2  0
 22 23  1  0
 22 24  2  0
M  END
