
     RDKit          3D

 26 27  0  0  0  0  0  0  0  0999 V2000
   -7.5780   -0.0230    0.7000 C   0  0  0  0  0  0  0  0  0  0  0  0
   -6.4160   -0.8670    1.1600 C   0  0  2  0  0  0  0  0  0  0  0  0
   -6.0180   -0.4410    2.4840 N   0  0  0  0  0  0  0  0  0  0  0  0
   -5.2510   -0.5720    0.2410 C   0  0  0  0  0  0  0  0  0  0  0  0
   -4.7220   -1.5200   -0.5050 C   0  0  0  0  0  0  0  0  0  0  0  0
   -3.6060   -1.2040   -1.3750 C   0  0  0  0  0  0  0  0  0  0  0  0
   -3.0950    0.0090   -1.4480 C   0  0  0  0  0  0  0  0  0  0  0  0
   -1.9500    0.3450   -2.3360 C   0  0  0  0  0  0  0  0  0  0  0  0
   -0.7710    0.8650   -1.5010 C   0  0  0  0  0  0  0  0  0  0  0  0
   -0.4160   -0.1950   -0.5860 N   0  0  0  0  0  0  0  0  0  0  0  0
    0.9490   -0.1400   -0.1150 C   0  0  2  0  0  0  0  0  0  0  0  0
    1.3900    1.2140    0.3230 C   0  0  0  0  0  0  0  0  0  0  0  0
    2.4180    1.8540   -0.5390 C   0  0  0  0  0  0  0  0  0  0  0  0
    3.8350    1.6070   -0.1210 C   0  0  0  0  0  0  0  0  0  0  0  0
    4.0340    0.1350    0.1750 C   0  0  0  0  0  0  0  0  0  0  0  0
    4.9100   -0.1560    0.9260 N   0  0  0  0  0  0  0  0  0  0  0  0
    5.7690   -0.7520    1.6910 N   0  0  0  0  0  0  0  0  0  0  0  0
    7.4820   -0.7230    1.3660 S   0  0  1  0  0  0  0  0  0  0  0  0
    8.1370    0.6970    2.1310 N   0  0  0  0  0  0  0  0  0  0  0  0
    8.1330   -1.9210    1.9900 O   0  0  0  0  0  0  0  0  0  0  0  0
    7.6890   -0.6510   -0.1110 O   0  0  0  0  0  0  0  0  0  0  0  0
    3.2130   -0.9560   -0.4060 C   0  0  0  0  0  0  0  0  0  0  0  0
    3.7310   -2.1090   -0.2830 N   0  0  0  0  0  0  0  0  0  0  0  0
    1.9080   -0.8000   -1.0800 C   0  0  0  0  0  0  0  0  0  0  0  0
   -3.6700    1.1050   -0.6290 C   0  0  0  0  0  0  0  0  0  0  0  0
   -4.7340    0.6990    0.1810 O   0  0  0  0  0  0  0  0  0  0  0  0
  2  1  1  6
  2  3  1  0
  2  4  1  0
  4  5  2  0
  4 26  1  0
  5  6  1  0
  6  7  2  0
  7  8  1  0
  7 25  1  0
  8  9  1  0
  9 10  1  0
 11 10  1  6
 11 12  1  0
 11 24  1  0
 12 13  1  0
 13 14  1  0
 14 15  1  0
 15 16  2  3
 15 22  1  0
 16 17  1  0
 17 18  1  0
 18 19  1  1
 18 20  2  0
 18 21  2  0
 22 23  2  0
 22 24  1  0
 25 26  1  0
M  CHG  2  10   1  23   1
M  END
