
     RDKit          3D

 16 16  0  0  0  0  0  0  0  0999 V2000
    3.0420    3.0050   -0.6920 O   0  0  0  0  0  0  0  0  0  0  0  0
    2.3270    2.1380   -0.1140 C   0  0  0  0  0  0  0  0  0  0  0  0
    2.8020    0.8040   -0.2560 N   0  0  0  0  0  0  0  0  0  0  0  0
    2.6510   -0.2390    0.7240 C   0  0  0  0  0  0  0  0  0  0  0  0
    2.4030   -1.5790    0.1120 C   0  0  0  0  0  0  0  0  0  0  0  0
    1.3190   -2.1920    0.0630 N   0  0  0  0  0  0  0  0  0  0  0  0
    0.0460   -1.7750    0.5720 C   0  0  0  0  0  0  0  0  0  0  0  0
   -0.5590   -0.9120   -0.5360 C   0  0  1  0  0  0  0  0  0  0  0  0
   -0.8120   -1.7430   -1.6250 O   0  0  0  0  0  0  0  0  0  0  0  0
   -1.7400   -0.1270   -0.1030 C   0  0  2  0  0  0  0  0  0  0  0  0
   -2.9860   -0.9890   -0.3590 C   0  0  0  0  0  0  0  0  0  0  0  0
   -4.1150   -0.4120    0.2080 O   0  0  0  0  0  0  0  0  0  0  0  0
   -1.8730    1.1200   -0.6330 O   0  0  0  0  0  0  0  0  0  0  0  0
   -0.7560    1.9000   -0.7060 C   0  0  0  0  0  0  0  0  0  0  0  0
   -0.0680    2.1120    0.6320 C   0  0  0  0  0  0  0  0  0  0  0  0
    1.2290    2.5570    0.5510 O   0  0  0  0  0  0  0  0  0  0  0  0
  1  2  2  0
  2  3  1  0
  2 16  1  0
  3  4  1  0
  4  5  1  0
  5  6  2  0
  6  7  1  0
  7  8  1  0
  8  9  1  6
  8 10  1  0
 10 11  1  6
 10 13  1  0
 11 12  1  0
 13 14  1  0
 14 15  1  0
 15 16  1  0
M  END
