
     RDKit          3D

 26 28  0  0  0  0  0  0  0  0999 V2000
   -5.7250    1.4800   -0.4040 C   0  0  0  0  0  0  0  0  0  0  0  0
   -4.6030    1.2080    0.3820 O   0  0  0  0  0  0  0  0  0  0  0  0
   -3.3590    0.8600   -0.1760 C   0  0  0  0  0  0  0  0  0  0  0  0
   -3.2870    0.7970   -1.5150 N   0  0  0  0  0  0  0  0  0  0  0  0
   -2.1120    0.4670   -2.0520 C   0  0  0  0  0  0  0  0  0  0  0  0
   -1.8720    0.3450   -3.8320 S   0  0  0  0  0  0  0  0  0  0  0  0
   -1.0730    0.2170   -1.2800 N   0  0  0  0  0  0  0  0  0  0  0  0
   -1.0510    0.2550    0.0750 C   0  0  0  0  0  0  0  0  0  0  0  0
   -2.2710    0.5970    0.6220 C   0  0  0  0  0  0  0  0  0  0  0  0
   -2.4650    0.7030    2.0940 C   0  0  0  0  0  0  0  0  0  0  0  0
   -1.1410    1.2840    2.5950 C   0  0  0  0  0  0  0  0  0  0  0  0
   -0.0930    0.2360    2.3250 C   0  0  0  0  0  0  0  0  0  0  0  0
    0.1610   -0.0490    0.8740 C   0  0  2  0  0  0  0  0  0  0  0  0
    1.5260   -0.0050    0.3320 C   0  0  2  0  0  0  0  0  0  0  0  0
    1.8910    0.4040   -0.9880 N   0  0  0  0  0  0  0  0  0  0  0  0
    2.2730    1.8180   -1.0190 C   0  0  0  0  0  0  0  0  0  0  0  0
    3.7810    1.9700   -1.0440 C   0  0  0  0  0  0  0  0  0  0  0  0
    4.1080    3.3630   -1.0740 N   0  0  0  0  0  0  0  0  0  0  0  0
    0.9110   -1.3230    0.5990 C   0  0  2  0  0  0  0  0  0  0  0  0
    0.3790   -2.2510   -0.4390 C   0  0  0  0  0  0  0  0  0  0  0  0
    1.1940   -3.4550   -0.6970 C   0  0  0  0  0  0  0  0  0  0  0  0
    0.7280   -4.5020   -1.5590 N   0  0  0  0  0  0  0  0  0  0  0  0
    2.3280   -3.6560   -0.1990 O   0  0  0  0  0  0  0  0  0  0  0  0
    1.3760   -2.0370    1.8450 C   0  0  0  0  0  0  0  0  0  0  0  0
    1.2200   -3.4130    2.0760 N   0  0  0  0  0  0  0  0  0  0  0  0
    1.9540   -1.3910    2.7850 O   0  0  0  0  0  0  0  0  0  0  0  0
  1  2  1  0
  2  3  1  0
  3  4  2  0
  3  9  1  0
  4  5  1  0
  5  6  1  0
  5  7  2  0
  7  8  1  0
  8  9  2  0
  8 13  1  0
  9 10  1  0
 10 11  1  0
 11 12  1  0
 13 12  1  1
 13 14  1  0
 13 19  1  0
 14 15  1  6
 14 19  1  0
 15 16  1  0
 16 17  1  0
 17 18  1  0
 19 20  1  6
 19 24  1  0
 20 21  1  0
 21 22  1  0
 21 23  2  0
 24 25  1  0
 24 26  2  0
M  CHG  2  15   1  18   1
M  END
