
     RDKit          3D

 39 41  0  0  0  0  0  0  0  0999 V2000
    8.0790   -0.9310    0.2000 C   0  0  0  0  0  0  0  0  0  0  0  0
    6.6970   -0.9960   -0.0950 O   0  0  0  0  0  0  0  0  0  0  0  0
    5.8550   -0.0160    0.4040 C   0  0  0  0  0  0  0  0  0  0  0  0
    6.3370    1.0030    1.1710 C   0  0  0  0  0  0  0  0  0  0  0  0
    5.4560    1.9530    1.6430 C   0  0  0  0  0  0  0  0  0  0  0  0
    4.1210    1.8670    1.3430 C   0  0  0  0  0  0  0  0  0  0  0  0
    3.5920    0.8260    0.5540 C   0  0  0  0  0  0  0  0  0  0  0  0
    2.2810    0.8320    0.3220 O   0  0  0  0  0  0  0  0  0  0  0  0
    1.3560    0.0550   -0.3110 C   0  0  2  0  0  0  0  0  0  0  0  0
    0.8100    0.6290   -1.4610 O   0  0  0  0  0  0  0  0  0  0  0  0
    1.2690    1.9260   -1.6930 C   0  0  0  0  0  0  0  0  0  0  0  0
    0.3610    2.5680   -2.6760 C   0  0  0  0  0  0  0  0  0  0  0  0
    0.6940    2.4760   -3.8950 O   0  0  0  0  0  0  0  0  0  0  0  0
   -0.7640    3.2190   -2.2960 O   0  0  0  0  0  0  0  0  0  0  0  0
   -0.8990    4.3320   -1.4390 C   0  0  0  0  0  0  0  0  0  0  0  0
   -2.0270    3.9740   -0.4500 C   0  0  0  0  0  0  0  0  0  0  0  0
   -1.6040    2.6320    0.0980 C   0  0  0  0  0  0  0  0  0  0  0  0
   -2.6120    1.9180    0.9310 C   0  0  2  0  0  0  0  0  0  0  0  0
   -3.7930    2.7180    0.7140 O   0  0  0  0  0  0  0  0  0  0  0  0
   -2.4220    2.0720    2.4180 C   0  0  0  0  0  0  0  0  0  0  0  0
   -2.2380    3.4190    2.7070 O   0  0  0  0  0  0  0  0  0  0  0  0
   -3.0130    0.5940    0.4520 C   0  0  0  0  0  0  0  0  0  0  0  0
   -2.2790   -0.6610    0.6060 C   0  0  2  0  0  0  0  0  0  0  0  0
   -0.9190   -0.8280    0.0880 C   0  0  2  0  0  0  0  0  0  0  0  0
   -0.5420   -2.3110   -0.0530 C   0  0  1  0  0  0  0  0  0  0  0  0
   -0.7040   -3.0300    1.0880 O   0  0  0  0  0  0  0  0  0  0  0  0
   -1.4450   -2.8300   -1.1180 C   0  0  0  0  0  0  0  0  0  0  0  0
   -2.7910   -2.9650   -0.3800 C   0  0  2  0  0  0  0  0  0  0  0  0
   -2.6140   -3.9040    0.6720 O   0  0  0  0  0  0  0  0  0  0  0  0
   -3.6420   -3.7350   -1.3450 C   0  0  0  0  0  0  0  0  0  0  0  0
   -4.8640   -4.1640   -0.8000 O   0  0  0  0  0  0  0  0  0  0  0  0
   -3.3040   -1.6990    0.1290 C   0  0  1  0  0  0  0  0  0  0  0  0
   -4.2910   -1.9880    1.2490 C   0  0  0  0  0  0  0  0  0  0  0  0
   -4.1850   -1.1030   -0.9820 C   0  0  0  0  0  0  0  0  0  0  0  0
    0.2400   -0.2300    0.7320 C   0  0  1  0  0  0  0  0  0  0  0  0
    0.9550   -1.0580    1.7220 N   0  0  0  0  0  0  0  0  0  0  0  0
    4.4970   -0.0930    0.1050 C   0  0  0  0  0  0  0  0  0  0  0  0
    4.1060   -1.1490   -0.6730 O   0  0  0  0  0  0  0  0  0  0  0  0
    4.1890   -1.0370   -2.1070 C   0  0  0  0  0  0  0  0  0  0  0  0
  1  2  1  0
  2  3  1  0
  3  4  2  0
  3 37  1  0
  4  5  1  0
  5  6  2  0
  6  7  1  0
  7  8  1  0
  7 37  2  0
  9  8  1  1
  9 10  1  0
  9 35  1  0
 10 11  1  0
 11 12  1  0
 12 13  2  0
 12 14  1  0
 14 15  1  0
 15 16  1  0
 16 17  1  0
 17 18  1  0
 18 19  1  6
 18 20  1  0
 18 22  1  0
 20 21  1  0
 23 22  1  6
 23 24  1  0
 23 32  1  0
 24 25  1  1
 24 35  1  0
 25 26  1  1
 25 27  1  0
 27 28  1  0
 28 29  1  1
 28 30  1  0
 28 32  1  0
 30 31  1  0
 32 33  1  1
 32 34  1  0
 35 36  1  1
 37 38  1  0
 38 39  1  0
M  CHG  1  36   1
M  END
