
     RDKit          3D

 30 32  0  0  0  0  0  0  0  0999 V2000
   -8.0530   -3.2190    0.8520 C   0  0  0  0  0  0  0  0  0  0  0  0
   -7.0000   -2.4200    0.8990 C   0  0  0  0  0  0  0  0  0  0  0  0
   -7.1870   -1.0060    0.5310 C   0  0  0  0  0  0  0  0  0  0  0  0
   -8.5220   -0.5190    0.1380 C   0  0  0  0  0  0  0  0  0  0  0  0
   -6.1210   -0.1920    0.5710 C   0  0  0  0  0  0  0  0  0  0  0  0
   -6.2060    1.1940    0.2330 C   0  0  0  0  0  0  0  0  0  0  0  0
   -5.0970    1.9430    0.4610 C   0  0  0  0  0  0  0  0  0  0  0  0
   -5.1120    3.3430    0.1300 C   0  0  0  0  0  0  0  0  0  0  0  0
   -4.0820    4.1110    0.3760 C   0  0  0  0  0  0  0  0  0  0  0  0
   -2.8290    3.7010    0.9980 C   0  0  2  0  0  0  0  0  0  0  0  0
   -2.5140    4.7800    2.0640 C   0  0  0  0  0  0  0  0  0  0  0  0
   -1.7410    3.6350    0.0480 N   0  0  0  0  0  0  0  0  0  0  0  0
   -0.7640    2.5570    0.2230 C   0  0  0  0  0  0  0  0  0  0  0  0
   -0.9930    1.8050    1.1890 O   0  0  0  0  0  0  0  0  0  0  0  0
    0.3170    2.4080   -0.6260 N   0  0  0  0  0  0  0  0  0  0  0  0
    1.3210    1.3870   -0.4760 C   0  0  0  0  0  0  0  0  0  0  0  0
    1.3400    0.4880    0.5590 C   0  0  0  0  0  0  0  0  0  0  0  0
    2.3690   -0.4630    0.6520 C   0  0  0  0  0  0  0  0  0  0  0  0
    3.3660   -0.5030   -0.2920 C   0  0  0  0  0  0  0  0  0  0  0  0
    4.4940   -1.2950   -0.4770 C   0  0  0  0  0  0  0  0  0  0  0  0
    5.1680   -0.9000   -1.6060 C   0  0  0  0  0  0  0  0  0  0  0  0
    4.4420    0.1380   -2.1070 N   0  0  0  0  0  0  0  0  0  0  0  0
    3.3580    0.3870   -1.3320 C   0  0  0  0  0  0  0  0  0  0  0  0
    2.3370    1.3120   -1.4010 C   0  0  0  0  0  0  0  0  0  0  0  0
    6.4240   -1.5610   -2.0530 C   0  0  0  0  0  0  0  0  0  0  0  0
    6.5100   -2.9140   -1.3930 C   0  0  0  0  0  0  0  0  0  0  0  0
    6.4240   -2.6680    0.1200 C   0  0  2  0  0  0  0  0  0  0  0  0
    6.9480   -3.7910    0.8300 N   0  0  0  0  0  0  0  0  0  0  0  0
    8.3490   -3.9480    0.4940 C   0  0  0  0  0  0  0  0  0  0  0  0
    4.9520   -2.4240    0.3900 C   0  0  0  0  0  0  0  0  0  0  0  0
  1  2  2  0
  2  3  1  0
  3  4  1  0
  3  5  2  3
  5  6  1  0
  6  7  2  3
  7  8  1  0
  8  9  2  3
  9 10  1  0
 10 11  1  1
 10 12  1  0
 12 13  1  0
 13 14  2  0
 13 15  1  0
 15 16  1  0
 16 17  2  0
 16 24  1  0
 17 18  1  0
 18 19  2  0
 19 20  1  0
 19 23  1  0
 20 21  2  0
 20 30  1  0
 21 22  1  0
 21 25  1  0
 22 23  1  0
 23 24  2  0
 25 26  1  0
 26 27  1  0
 27 28  1  1
 27 30  1  0
 28 29  1  0
M  END
