
     RDKit          3D

 30 32  0  0  0  0  0  0  0  0999 V2000
    0.2630    5.1470    0.5560 C   0  0  0  0  0  0  0  0  0  0  0  0
   -0.9230    5.1320   -0.3590 C   0  0  0  0  0  0  0  0  0  0  0  0
   -0.5110    4.4810   -1.6650 C   0  0  0  0  0  0  0  0  0  0  0  0
   -0.0420    3.0670   -1.4090 C   0  0  0  0  0  0  0  0  0  0  0  0
    1.2430    2.8090   -1.1450 N   0  0  0  0  0  0  0  0  0  0  0  0
    1.7000    1.5580   -0.9100 C   0  0  0  0  0  0  0  0  0  0  0  0
    0.8210    0.4880   -0.9380 C   0  0  0  0  0  0  0  0  0  0  0  0
    1.2610   -0.8650   -0.6930 C   0  0  0  0  0  0  0  0  0  0  0  0
    2.6460   -1.0620   -0.3330 N   0  0  0  0  0  0  0  0  0  0  0  0
    2.8120   -2.5350   -0.3010 C   0  0  0  0  0  0  0  0  0  0  0  0
    3.5970   -3.0070    0.8730 C   0  0  0  0  0  0  0  0  0  0  0  0
    4.6660   -2.2340    1.2410 O   0  0  0  0  0  0  0  0  0  0  0  0
    4.4240   -0.8630    1.1980 C   0  0  1  0  0  0  0  0  0  0  0  0
    4.9790   -0.1190    2.3660 C   0  0  0  0  0  0  0  0  0  0  0  0
    5.0800   -0.3800   -0.0920 C   0  0  0  0  0  0  0  0  0  0  0  0
    6.5820   -0.6850   -0.0600 C   0  0  0  0  0  0  0  0  0  0  0  0
    2.9300   -0.6730    1.0350 C   0  0  0  0  0  0  0  0  0  0  0  0
   -0.4950    0.7520   -1.2100 C   0  0  0  0  0  0  0  0  0  0  0  0
   -1.5760   -0.2480   -1.2240 C   0  0  0  0  0  0  0  0  0  0  0  0
   -1.5100   -1.3190   -2.0650 C   0  0  0  0  0  0  0  0  0  0  0  0
   -2.5430   -2.2470   -1.9980 C   0  0  0  0  0  0  0  0  0  0  0  0
   -3.5940   -2.0780   -1.1090 C   0  0  0  0  0  0  0  0  0  0  0  0
   -4.6370   -3.0350   -1.0530 N   0  0  0  0  0  0  0  0  0  0  0  0
   -3.6630   -0.9990   -0.2620 C   0  0  0  0  0  0  0  0  0  0  0  0
   -4.8080   -0.8750    0.6610 C   0  0  2  0  0  0  0  0  0  0  0  0
   -4.7090    0.3760    1.5150 C   0  0  0  0  0  0  0  0  0  0  0  0
   -4.9840   -2.0500    1.5540 C   0  0  0  0  0  0  0  0  0  0  0  0
   -6.1000   -0.7190   -0.1510 C   0  0  0  0  0  0  0  0  0  0  0  0
   -2.6470   -0.0810   -0.3220 C   0  0  0  0  0  0  0  0  0  0  0  0
   -0.8940    2.0440   -1.4390 N   0  0  0  0  0  0  0  0  0  0  0  0
  1  2  1  0
  2  3  1  0
  3  4  1  0
  4  5  2  0
  4 30  1  0
  5  6  1  0
  6  7  2  0
  7  8  1  0
  7 18  1  0
  8  9  1  0
  9 10  1  0
  9 17  1  0
 10 11  1  0
 11 12  1  0
 12 13  1  0
 13 14  1  1
 13 15  1  0
 13 17  1  0
 15 16  1  0
 18 19  1  0
 18 30  2  0
 19 20  2  0
 19 29  1  0
 20 21  1  0
 21 22  2  0
 22 23  1  0
 22 24  1  0
 24 25  1  0
 24 29  2  0
 25 26  1  1
 25 27  1  0
 25 28  1  0
M  END
