
     RDKit          3D

 29 31  0  0  0  0  0  0  0  0999 V2000
    8.9010   -0.3740   -0.6240 C   0  0  0  0  0  0  0  0  0  0  0  0
    7.6220   -0.0690   -0.3040 C   0  0  0  0  0  0  0  0  0  0  0  0
    6.8240    0.5020   -1.3990 C   0  0  0  0  0  0  0  0  0  0  0  0
    7.1520   -0.3140    1.0270 C   0  0  0  0  0  0  0  0  0  0  0  0
    5.9970   -0.1120    1.5650 C   0  0  0  0  0  0  0  0  0  0  0  0
    4.8330    0.4330    0.9510 C   0  0  0  0  0  0  0  0  0  0  0  0
    3.7050    0.5690    1.6850 C   0  0  0  0  0  0  0  0  0  0  0  0
    3.0530    0.3950    2.9700 C   0  0  0  0  0  0  0  0  0  0  0  0
    2.3070    0.9770    1.7880 C   0  0  2  0  0  0  0  0  0  0  0  0
    1.2960    0.0520    1.1730 C   0  0  0  0  0  0  0  0  0  0  0  0
    0.0260    0.3600    0.7220 C   0  0  0  0  0  0  0  0  0  0  0  0
   -0.5730   -0.7870    0.2260 C   0  0  0  0  0  0  0  0  0  0  0  0
   -1.8840   -0.8450   -0.3210 N   0  0  0  0  0  0  0  0  0  0  0  0
   -2.2710   -1.7030   -1.1870 C   0  0  0  0  0  0  0  0  0  0  0  0
   -1.3230   -2.7340   -1.6880 C   0  0  0  0  0  0  0  0  0  0  0  0
   -3.5930   -1.6160   -1.6170 O   0  0  0  0  0  0  0  0  0  0  0  0
   -4.4270   -0.5940   -1.0800 C   0  0  0  0  0  0  0  0  0  0  0  0
   -3.9660    0.2000   -0.2390 O   0  0  0  0  0  0  0  0  0  0  0  0
   -5.7710   -0.4900   -1.5050 N   0  0  0  0  0  0  0  0  0  0  0  0
   -6.6880    0.4690   -1.0540 C   0  0  0  0  0  0  0  0  0  0  0  0
   -6.4480    1.5110   -0.2140 C   0  0  0  0  0  0  0  0  0  0  0  0
   -7.4420    2.4110    0.1800 C   0  0  0  0  0  0  0  0  0  0  0  0
   -8.7080    2.2400   -0.2970 C   0  0  0  0  0  0  0  0  0  0  0  0
   -9.9780    3.3640    0.1860 Cl  0  0  0  0  0  0  0  0  0  0  0  0
   -8.9840    1.2000   -1.1460 C   0  0  0  0  0  0  0  0  0  0  0  0
  -10.6150    0.9780   -1.7620 Cl  0  0  0  0  0  0  0  0  0  0  0  0
   -7.9980    0.3300   -1.5200 C   0  0  0  0  0  0  0  0  0  0  0  0
    0.3360   -1.7640    0.3830 N   0  0  0  0  0  0  0  0  0  0  0  0
    1.4410   -1.2640    0.9430 N   0  0  0  0  0  0  0  0  0  0  0  0
  1  2  2  0
  2  3  1  0
  2  4  1  0
  4  5  2  3
  5  6  1  0
  6  7  2  3
  7  8  1  0
  7  9  1  0
  8  9  1  0
  9 10  1  6
 10 11  2  0
 10 29  1  0
 11 12  1  0
 12 13  1  0
 12 28  2  0
 13 14  2  3
 14 15  1  0
 14 16  1  0
 16 17  1  0
 17 18  2  0
 17 19  1  0
 19 20  1  0
 20 21  2  0
 20 27  1  0
 21 22  1  0
 22 23  2  0
 23 24  1  0
 23 25  1  0
 25 26  1  0
 25 27  2  0
 28 29  1  0
M  END
