
     RDKit          3D

 30 32  0  0  0  0  0  0  0  0999 V2000
    0.8300    3.1550    1.2810 C   0  0  0  0  0  0  0  0  0  0  0  0
   -0.3980    3.2820    0.8440 C   0  0  0  0  0  0  0  0  0  0  0  0
   -0.8510    4.6480    1.2560 N   0  0  0  0  0  0  0  0  0  0  0  0
   -1.2330    2.4090    0.1330 C   0  0  0  0  0  0  0  0  0  0  0  0
   -2.4750    2.9070   -0.1640 C   0  0  0  0  0  0  0  0  0  0  0  0
   -3.0370    4.1800    0.1430 C   0  0  0  0  0  0  0  0  0  0  0  0
   -1.0490    1.1090   -0.4020 C   0  0  0  0  0  0  0  0  0  0  0  0
   -2.2410    0.8700   -1.1330 O   0  0  0  0  0  0  0  0  0  0  0  0
   -0.2680   -0.0410   -0.5560 N   0  0  0  0  0  0  0  0  0  0  0  0
   -0.9570   -1.0990   -1.3070 C   0  0  0  0  0  0  0  0  0  0  0  0
   -0.5820   -1.7830   -2.3250 C   0  0  0  0  0  0  0  0  0  0  0  0
    0.6800   -1.7280   -3.1030 C   0  0  0  0  0  0  0  0  0  0  0  0
   -1.6130   -2.7720   -2.6940 C   0  0  0  0  0  0  0  0  0  0  0  0
   -2.6310   -2.6760   -1.8640 C   0  0  0  0  0  0  0  0  0  0  0  0
   -2.3060   -1.6220   -0.9200 C   0  0  0  0  0  0  0  0  0  0  0  0
   -2.9910   -1.2930    0.1280 C   0  0  0  0  0  0  0  0  0  0  0  0
   -4.2820   -1.7100    0.6030 C   0  0  0  0  0  0  0  0  0  0  0  0
   -5.1200   -2.6530   -0.1600 C   0  0  0  0  0  0  0  0  0  0  0  0
    1.0270   -0.3760    0.0110 C   0  0  2  0  0  0  0  0  0  0  0  0
    2.0410    0.5430   -0.4670 C   0  0  0  0  0  0  0  0  0  0  0  0
    1.5810    1.4280   -1.3540 N   0  0  0  0  0  0  0  0  0  0  0  0
    3.4090    0.6370   -0.1720 N   0  0  0  0  0  0  0  0  0  0  0  0
    4.6760   -0.0680   -0.2550 C   0  0  0  0  0  0  0  0  0  0  0  0
    5.4440    1.2420   -0.2430 C   0  0  0  0  0  0  0  0  0  0  0  0
    4.1890    1.7380    0.4280 C   0  0  0  0  0  0  0  0  0  0  0  0
    1.4010   -1.8170   -0.1660 C   0  0  0  0  0  0  0  0  0  0  0  0
    2.1580   -2.4140    1.0470 C   0  0  0  0  0  0  0  0  0  0  0  0
    1.2960   -2.5320    2.2580 C   0  0  0  0  0  0  0  0  0  0  0  0
    0.2140   -1.4850    2.1480 C   0  0  0  0  0  0  0  0  0  0  0  0
    0.8580   -0.2460    1.5380 C   0  0  0  0  0  0  0  0  0  0  0  0
  1  2  2  0
  2  3  1  0
  2  4  1  0
  4  5  2  3
  4  7  1  0
  5  6  1  0
  7  8  2  0
  7  9  1  0
  9 10  1  0
 19  9  1  6
 10 11  2  0
 10 15  1  0
 11 12  1  0
 11 13  1  0
 13 14  2  0
 14 15  1  0
 15 16  2  3
 16 17  1  0
 17 18  1  0
 19 20  1  0
 19 26  1  0
 19 30  1  0
 20 21  2  0
 20 22  1  0
 22 23  1  0
 22 25  1  0
 23 24  1  0
 24 25  1  0
 26 27  1  0
 27 28  1  0
 28 29  1  0
 29 30  1  0
M  END
