
     RDKit          3D

 19 20  0  0  0  0  0  0  0  0999 V2000
    2.2450   -0.5060   -1.5610 N   0  0  0  0  0  0  0  0  0  0  0  0
    1.4290   -0.1740   -0.6370 C   0  0  0  0  0  0  0  0  0  0  0  0
    1.7260    0.9970    0.2030 C   0  0  0  0  0  0  0  0  0  0  0  0
    3.0110    1.6780   -0.1570 C   0  0  0  0  0  0  0  0  0  0  0  0
    4.4720    0.5570    0.0060 P   0  0  0  0  0  0  0  0  0  0  0  0
    5.8260    1.4920    0.5810 O   0  0  0  0  0  0  0  0  0  0  0  0
    4.9230   -0.1180   -1.5290 O   0  0  0  0  0  0  0  0  0  0  0  0
    0.2550   -0.9210   -0.4220 N   0  0  0  0  0  0  0  0  0  0  0  0
    0.2760   -2.3320   -0.0880 C   0  0  0  0  0  0  0  0  0  0  0  0
   -0.8510   -2.6140    0.8340 C   0  0  0  0  0  0  0  0  0  0  0  0
   -0.7280   -3.4900    1.7580 O   0  0  0  0  0  0  0  0  0  0  0  0
   -2.0810   -1.9170    0.7060 N   0  0  0  0  0  0  0  0  0  0  0  0
   -2.1190   -0.6850   -0.0140 C   0  0  0  0  0  0  0  0  0  0  0  0
   -0.9930   -0.2200   -0.5480 C   0  0  0  0  0  0  0  0  0  0  0  0
   -1.7470    0.8970   -1.0340 N   0  0  0  0  0  0  0  0  0  0  0  0
   -2.8460    0.4720   -0.5290 C   0  0  0  0  0  0  0  0  0  0  0  0
   -4.1890    0.9210   -0.4840 N   0  0  0  0  0  0  0  0  0  0  0  0
   -4.8470    1.0550    0.6100 C   0  0  0  0  0  0  0  0  0  0  0  0
   -6.1840    1.5110    0.5460 N   0  0  0  0  0  0  0  0  0  0  0  0
  1  2  2  0
  2  3  1  0
  2  8  1  0
  3  4  1  0
  4  5  1  0
  5  6  1  0
  5  7  1  0
  8  9  1  0
  8 14  1  0
  9 10  1  0
 10 11  2  0
 10 12  1  0
 12 13  1  0
 13 14  2  0
 13 16  1  0
 14 15  1  0
 15 16  2  0
 16 17  1  0
 17 18  2  3
 18 19  1  0
M  END
