
     RDKit          3D

 20 21  0  0  0  0  0  0  0  0999 V2000
    2.3440    2.2630    0.7710 O   0  0  0  0  0  0  0  0  0  0  0  0
    3.1770    1.3450    0.4550 C   0  0  0  0  0  0  0  0  0  0  0  0
    4.5720    1.5480    0.6000 N   0  0  0  0  0  0  0  0  0  0  0  0
    5.4720    0.8320   -0.2670 C   0  0  0  0  0  0  0  0  0  0  0  0
    5.0300   -0.5960   -0.4970 C   0  0  0  0  0  0  0  0  0  0  0  0
    3.5800   -0.6860   -0.8770 C   0  0  0  0  0  0  0  0  0  0  0  0
    2.7220    0.1000   -0.0470 N   0  0  0  0  0  0  0  0  0  0  0  0
    1.4110   -0.3690    0.2710 C   0  0  0  0  0  0  0  0  0  0  0  0
    0.3510    0.3370   -0.0750 C   0  0  0  0  0  0  0  0  0  0  0  0
   -0.9470   -0.1310    0.2420 N   0  0  0  0  0  0  0  0  0  0  0  0
   -2.0770    0.6890    0.2440 N   0  0  0  0  0  0  0  0  0  0  0  0
   -3.2080   -0.1200   -0.1520 C   0  0  1  0  0  0  0  0  0  0  0  0
   -3.4230   -1.4980    1.0310 P   0  0  0  0  0  0  0  0  0  0  0  0
   -3.7100   -3.0140    0.2860 O   0  0  0  0  0  0  0  0  0  0  0  0
   -4.4680   -1.1510    2.3370 O   0  0  0  0  0  0  0  0  0  0  0  0
   -3.8430   -0.5120    3.3120 O   0  0  0  0  0  0  0  0  0  0  0  0
   -4.4500    0.7100   -0.3480 C   0  0  0  0  0  0  0  0  0  0  0  0
   -4.1910    1.2680   -1.7010 C   0  0  0  0  0  0  0  0  0  0  0  0
   -3.3420    0.5090   -2.3200 N   0  0  0  0  0  0  0  0  0  0  0  0
   -2.9660   -0.5620   -1.5100 N   0  0  0  0  0  0  0  0  0  0  0  0
  1  2  2  0
  2  3  1  0
  2  7  1  0
  3  4  1  0
  4  5  1  0
  5  6  1  0
  6  7  1  0
  7  8  1  0
  8  9  2  3
  9 10  1  0
 10 11  1  0
 12 11  1  1
 12 13  1  0
 12 17  1  0
 12 20  1  0
 13 14  1  0
 13 15  1  0
 15 16  1  0
 17 18  1  0
 18 19  2  0
 19 20  1  0
M  END
