
     RDKit          3D

 23 25  0  0  0  0  0  0  0  0999 V2000
    6.2390    1.1910   -1.5080 O   0  0  0  0  0  0  0  0  0  0  0  0
    5.5330    0.6450   -0.6690 C   0  0  0  0  0  0  0  0  0  0  0  0
    5.9430   -0.0470    0.4040 N   0  0  0  0  0  0  0  0  0  0  0  0
    5.1660   -0.6000    1.2830 C   0  0  0  0  0  0  0  0  0  0  0  0
    3.7970   -0.4980    1.1800 N   0  0  0  0  0  0  0  0  0  0  0  0
    3.2570    0.1880    0.1190 C   0  0  0  0  0  0  0  0  0  0  0  0
    4.1780    0.7210   -0.7750 C   0  0  0  0  0  0  0  0  0  0  0  0
    3.4020    1.2600   -1.7300 N   0  0  0  0  0  0  0  0  0  0  0  0
    2.1080    1.1070   -1.4000 C   0  0  0  0  0  0  0  0  0  0  0  0
    2.0120    0.4240   -0.1890 N   0  0  0  0  0  0  0  0  0  0  0  0
    0.8770    0.1960    0.5980 C   0  0  2  0  0  0  0  0  0  0  0  0
    0.2120   -1.0250    0.3910 O   0  0  0  0  0  0  0  0  0  0  0  0
   -1.0850   -0.7520    0.2180 C   0  0  2  0  0  0  0  0  0  0  0  0
   -2.1200   -1.7350   -0.0900 C   0  0  0  0  0  0  0  0  0  0  0  0
   -3.2120   -0.9350   -0.3510 O   0  0  0  0  0  0  0  0  0  0  0  0
   -4.5610   -0.9330    0.4380 P   0  0  0  0  0  0  0  0  0  0  0  0
   -5.3490   -0.0300   -0.5270 O   0  0  0  0  0  0  0  0  0  0  0  0
   -5.7550   -1.9860    0.5930 O   0  0  0  0  0  0  0  0  0  0  0  0
   -4.6890    0.4660    1.5600 O   0  0  0  0  0  0  0  0  0  0  0  0
   -1.0520    0.4870   -0.6940 C   0  0  1  0  0  0  0  0  0  0  0  0
   -2.2510    1.1190   -0.8620 O   0  0  0  0  0  0  0  0  0  0  0  0
   -0.1090    1.3200    0.2190 C   0  0  1  0  0  0  0  0  0  0  0  0
   -0.7850    1.6740    1.3490 O   0  0  0  0  0  0  0  0  0  0  0  0
  1  2  2  0
  2  3  1  0
  2  7  1  0
  3  4  1  0
  4  5  2  0
  5  6  1  0
  6  7  2  0
  6 10  1  0
  7  8  1  0
  8  9  2  0
  9 10  1  0
 11 10  1  6
 11 12  1  0
 11 22  1  0
 12 13  1  0
 13 14  1  6
 13 20  1  0
 14 15  1  0
 15 16  1  0
 16 17  1  0
 16 18  1  0
 16 19  1  0
 20 21  1  1
 20 22  1  0
 22 23  1  1
M  END
