
     RDKit          3D

 20 21  0  0  0  0  0  0  0  0999 V2000
   -3.8690   -1.6720    0.3960 C   0  0  0  0  0  0  0  0  0  0  0  0
   -2.3540   -1.6850    0.3570 C   0  0  0  0  0  0  0  0  0  0  0  0
   -1.8870   -0.4960   -0.4540 C   0  0  0  0  0  0  0  0  0  0  0  0
   -0.4710   -0.3840   -0.5910 N   0  0  0  0  0  0  0  0  0  0  0  0
    0.2040   -1.2750   -1.4610 C   0  0  0  0  0  0  0  0  0  0  0  0
   -0.4830   -2.0940   -2.1730 N   0  0  0  0  0  0  0  0  0  0  0  0
    1.6180   -1.2200   -1.5730 N   0  0  0  0  0  0  0  0  0  0  0  0
    2.3500   -0.2500   -0.7930 C   0  0  0  0  0  0  0  0  0  0  0  0
    3.6510   -0.2350   -0.9290 C   0  0  0  0  0  0  0  0  0  0  0  0
    4.5930    0.6170   -0.2780 C   0  0  0  0  0  0  0  0  0  0  0  0
    4.4160    1.5250    0.5490 O   0  0  0  0  0  0  0  0  0  0  0  0
    5.9660    0.4190   -0.6120 O   0  0  0  0  0  0  0  0  0  0  0  0
    1.6380    0.6230    0.0640 N   0  0  0  0  0  0  0  0  0  0  0  0
    2.0440    1.5900    0.8840 N   0  0  0  0  0  0  0  0  0  0  0  0
    1.0620    2.1550    1.5060 N   0  0  0  0  0  0  0  0  0  0  0  0
   -0.0760    1.5310    1.0770 C   0  0  0  0  0  0  0  0  0  0  0  0
   -1.7350    1.9630    1.6760 P   0  0  0  0  0  0  0  0  0  0  0  0
   -2.3820    3.2810    0.7480 O   0  0  0  0  0  0  0  0  0  0  0  0
   -1.5880    2.5070    3.3170 O   0  0  0  0  0  0  0  0  0  0  0  0
    0.2760    0.5670    0.1700 C   0  0  0  0  0  0  0  0  0  0  0  0
  1  2  1  0
  2  3  1  0
  3  4  1  0
  4  5  1  0
  4 20  1  0
  5  6  2  0
  5  7  1  0
  7  8  1  0
  8  9  2  3
  8 13  1  0
  9 10  1  0
 10 11  2  0
 10 12  1  0
 13 14  1  0
 13 20  1  0
 14 15  2  0
 15 16  1  0
 16 17  1  0
 16 20  2  0
 17 18  1  0
 17 19  1  0
M  END
