
     RDKit          3D

 15 15  0  0  0  0  0  0  0  0999 V2000
    5.5990    0.3000   -0.7040 C   0  0  0  0  0  0  0  0  0  0  0  0
    4.2730    0.0400   -0.9660 O   0  0  0  0  0  0  0  0  0  0  0  0
    3.4090    0.4760    0.0220 C   0  0  0  0  0  0  0  0  0  0  0  0
    1.9980    0.1080   -0.4300 C   0  0  0  0  0  0  0  0  0  0  0  0
    1.0690    0.5080    0.5020 O   0  0  0  0  0  0  0  0  0  0  0  0
   -0.1990    0.1810    0.1030 C   0  0  1  0  0  0  0  0  0  0  0  0
   -0.9280   -0.7080    1.0810 C   0  0  0  0  0  0  0  0  0  0  0  0
   -2.3070   -0.9760    0.5160 C   0  0  2  0  0  0  0  0  0  0  0  0
   -3.0700   -1.7310    1.6110 C   0  0  0  0  0  0  0  0  0  0  0  0
   -2.2070   -1.9340   -0.6570 C   0  0  0  0  0  0  0  0  0  0  0  0
   -3.5120   -2.2970   -1.0000 O   0  0  0  0  0  0  0  0  0  0  0  0
   -3.0200    0.1570    0.2370 O   0  0  0  0  0  0  0  0  0  0  0  0
   -2.3690    1.0770   -0.5570 C   0  0  0  0  0  0  0  0  0  0  0  0
   -1.0090    1.4550   -0.0150 C   0  0  2  0  0  0  0  0  0  0  0  0
   -0.4140    2.4310   -0.8730 N   0  0  0  0  0  0  0  0  0  0  0  0
  1  2  1  0
  2  3  1  0
  3  4  1  0
  4  5  1  0
  6  5  1  1
  6  7  1  0
  6 14  1  0
  7  8  1  0
  8  9  1  1
  8 10  1  0
  8 12  1  0
 10 11  1  0
 12 13  1  0
 13 14  1  0
 14 15  1  6
M  CHG  1  15   1
M  END
