
     RDKit          3D

 15 15  0  0  0  0  0  0  0  0999 V2000
    2.5880    0.7070   -1.0880 C   0  0  0  0  0  0  0  0  0  0  0  0
    2.0540    0.0410   -0.1040 C   0  0  0  0  0  0  0  0  0  0  0  0
    2.9640   -0.3680    1.0380 C   0  0  0  0  0  0  0  0  0  0  0  0
    0.6770   -0.3210   -0.0050 C   0  0  1  0  0  0  0  0  0  0  0  0
    0.0150   -0.1020    1.3440 C   0  0  0  0  0  0  0  0  0  0  0  0
   -1.3520   -0.4960    1.1280 N   0  0  0  0  0  0  0  0  0  0  0  0
   -1.6010   -0.5850   -0.2890 C   0  0  2  0  0  0  0  0  0  0  0  0
   -1.6780   -1.9920   -0.7440 C   0  0  0  0  0  0  0  0  0  0  0  0
   -1.8780   -2.2800   -1.9510 O   0  0  0  0  0  0  0  0  0  0  0  0
   -1.5350   -3.0510    0.1380 O   0  0  0  0  0  0  0  0  0  0  0  0
   -0.3510    0.0420   -0.9570 C   0  0  1  0  0  0  0  0  0  0  0  0
   -0.6570    1.4380   -1.3120 C   0  0  0  0  0  0  0  0  0  0  0  0
   -1.0700    2.3360   -0.2360 C   0  0  0  0  0  0  0  0  0  0  0  0
   -0.2340    3.1030    0.2980 O   0  0  0  0  0  0  0  0  0  0  0  0
   -2.3730    2.3660    0.2180 O   0  0  0  0  0  0  0  0  0  0  0  0
  1  2  2  0
  2  3  1  0
  4  2  1  1
  4  5  1  0
  4 11  1  0
  5  6  1  0
  6  7  1  0
  7  8  1  6
  7 11  1  0
  8  9  2  0
  8 10  1  0
 11 12  1  1
 12 13  1  0
 13 14  2  0
 13 15  1  0
M  CHG  1   6   1
M  END
