
     RDKit          3D

 15 15  0  0  0  0  0  0  0  0999 V2000
    3.1900    1.4640    1.8470 C   0  0  0  0  0  0  0  0  0  0  0  0
    2.2020    0.6360    1.2650 O   0  0  0  0  0  0  0  0  0  0  0  0
    2.4430   -0.6240    0.8470 C   0  0  0  0  0  0  0  0  0  0  0  0
    3.6750   -1.0130    1.0290 O   0  0  0  0  0  0  0  0  0  0  0  0
    1.5930   -1.6350    0.2350 C   0  0  0  0  0  0  0  0  0  0  0  0
    0.3530   -1.5110   -0.1020 O   0  0  0  0  0  0  0  0  0  0  0  0
   -0.3170   -0.7950   -0.9720 C   0  0  1  0  0  0  0  0  0  0  0  0
    0.1500   -0.9380   -2.4210 C   0  0  0  0  0  0  0  0  0  0  0  0
    0.0630   -2.2140   -2.8910 O   0  0  0  0  0  0  0  0  0  0  0  0
   -1.8080   -1.2220   -1.0440 C   0  0  0  0  0  0  0  0  0  0  0  0
   -2.7450   -0.1720   -0.5670 C   0  0  0  0  0  0  0  0  0  0  0  0
   -2.3920    0.5170    0.7000 C   0  0  0  0  0  0  0  0  0  0  0  0
   -0.9140    0.7930    0.7740 C   0  0  2  0  0  0  0  0  0  0  0  0
   -0.6790    2.0850    1.3390 N   0  0  0  0  0  0  0  0  0  0  0  0
   -0.3820    0.6650   -0.6480 C   0  0  0  0  0  0  0  0  0  0  0  0
  1  2  1  0
  2  3  1  0
  3  4  2  0
  3  5  1  0
  5  6  1  0
  6  7  1  0
  7  8  1  6
  7 10  1  0
  7 15  1  0
  8  9  1  0
 10 11  1  0
 11 12  1  0
 12 13  1  0
 13 14  1  6
 13 15  1  0
M  CHG  1  14   1
M  END
