
     RDKit          3D

 15 15  0  0  0  0  0  0  0  0999 V2000
    2.4510   -0.7140   -1.9680 C   0  0  0  0  0  0  0  0  0  0  0  0
    2.2290   -0.6800   -0.5940 O   0  0  0  0  0  0  0  0  0  0  0  0
    1.8370    0.5330   -0.1110 C   0  0  2  0  0  0  0  0  0  0  0  0
    2.9830    1.1440    0.7540 C   0  0  0  0  0  0  0  0  0  0  0  0
    4.1120    1.3040   -0.0500 O   0  0  0  0  0  0  0  0  0  0  0  0
    0.6570    0.4450    0.7670 C   0  0  2  0  0  0  0  0  0  0  0  0
    0.9130   -0.4000    1.9150 N   0  0  0  0  0  0  0  0  0  0  0  0
   -0.6820    0.2470    0.1390 C   0  0  1  0  0  0  0  0  0  0  0  0
   -0.8310    1.2870   -0.9540 C   0  0  0  0  0  0  0  0  0  0  0  0
   -0.9280   -1.0960   -0.4600 C   0  0  0  0  0  0  0  0  0  0  0  0
   -2.2950   -1.0980   -1.1350 C   0  0  0  0  0  0  0  0  0  0  0  0
   -3.2510   -1.6830   -0.3070 O   0  0  0  0  0  0  0  0  0  0  0  0
   -3.6750   -0.6300    0.5340 C   0  0  0  0  0  0  0  0  0  0  0  0
   -2.4950   -0.3990    1.4780 C   0  0  0  0  0  0  0  0  0  0  0  0
   -1.6470    0.5790    1.0950 O   0  0  0  0  0  0  0  0  0  0  0  0
  1  2  1  0
  2  3  1  0
  3  4  1  1
  3  6  1  0
  4  5  1  0
  6  7  1  1
  6  8  1  0
  8  9  1  6
  8 10  1  0
  8 15  1  0
 10 11  1  0
 11 12  1  0
 12 13  1  0
 13 14  1  0
 14 15  1  0
M  CHG  1   7   1
M  END
