
     RDKit          3D

 26 28  0  0  0  0  0  0  0  0999 V2000
    4.3340   -3.2300    0.2510 C   0  0  0  0  0  0  0  0  0  0  0  0
    4.4500   -2.2000   -0.8610 C   0  0  0  0  0  0  0  0  0  0  0  0
    3.2580   -1.3150   -0.8240 C   0  0  0  0  0  0  0  0  0  0  0  0
    2.2480   -1.4660   -1.7500 C   0  0  0  0  0  0  0  0  0  0  0  0
    1.1590   -0.6300   -1.6880 C   0  0  0  0  0  0  0  0  0  0  0  0
    1.0290    0.3750   -0.7190 C   0  0  0  0  0  0  0  0  0  0  0  0
   -0.1700    1.2040   -0.6710 C   0  0  0  0  0  0  0  0  0  0  0  0
   -0.0770    2.6240   -0.9870 C   0  0  0  0  0  0  0  0  0  0  0  0
    0.7460    3.4680   -0.0480 C   0  0  2  0  0  0  0  0  0  0  0  0
    0.2660    3.4570    1.3570 C   0  0  0  0  0  0  0  0  0  0  0  0
    0.6310    4.9210   -0.5690 C   0  0  0  0  0  0  0  0  0  0  0  0
   -1.3170    0.6180   -0.3880 C   0  0  0  0  0  0  0  0  0  0  0  0
   -1.4950   -0.8380   -0.1090 C   0  0  0  0  0  0  0  0  0  0  0  0
   -2.9220   -0.9970    0.2030 C   0  0  0  0  0  0  0  0  0  0  0  0
   -3.5960    0.1890    0.1030 C   0  0  0  0  0  0  0  0  0  0  0  0
   -4.9780    0.2640    0.3500 C   0  0  0  0  0  0  0  0  0  0  0  0
   -5.6570   -0.8790    0.6970 C   0  0  0  0  0  0  0  0  0  0  0  0
   -4.9850   -2.0860    0.8020 C   0  0  0  0  0  0  0  0  0  0  0  0
   -5.6980   -3.2430    1.1590 O   0  0  0  0  0  0  0  0  0  0  0  0
   -3.6300   -2.1470    0.5580 C   0  0  0  0  0  0  0  0  0  0  0  0
   -2.9230   -3.4490    0.6740 C   0  0  0  0  0  0  0  0  0  0  0  0
   -2.6370    1.2130   -0.2620 C   0  0  0  0  0  0  0  0  0  0  0  0
   -2.9770    2.4380   -0.4300 O   0  0  0  0  0  0  0  0  0  0  0  0
    2.0700    0.4790    0.1820 C   0  0  0  0  0  0  0  0  0  0  0  0
    3.1770   -0.3430    0.1480 C   0  0  0  0  0  0  0  0  0  0  0  0
    4.2830   -0.1830    1.1550 C   0  0  0  0  0  0  0  0  0  0  0  0
  1  2  1  0
  2  3  1  0
  3  4  2  0
  3 25  1  0
  4  5  1  0
  5  6  2  0
  6  7  1  0
  6 24  1  0
  7  8  1  0
  7 12  2  3
  8  9  1  0
  9 10  1  1
  9 11  1  0
 12 13  1  0
 12 22  1  0
 13 14  1  0
 14 15  2  0
 14 20  1  0
 15 16  1  0
 15 22  1  0
 16 17  2  0
 17 18  1  0
 18 19  1  0
 18 20  2  0
 20 21  1  0
 22 23  2  0
 24 25  2  0
 25 26  1  0
M  END
