
     RDKit          3D

 13 13  0  0  0  0  0  0  0  0999 V2000
    3.6570    0.6530    0.4120 N   0  0  0  0  0  0  0  0  0  0  0  0
    2.8750   -0.3630    0.0060 O   0  0  0  0  0  0  0  0  0  0  0  0
    1.5590   -0.2010    0.4820 C   0  0  2  0  0  0  0  0  0  0  0  0
    1.3520   -1.3310    1.3090 O   0  0  0  0  0  0  0  0  0  0  0  0
    0.6380   -0.2850   -0.6700 C   0  0  2  0  0  0  0  0  0  0  0  0
    0.9490    0.7280   -1.6080 O   0  0  0  0  0  0  0  0  0  0  0  0
   -0.8000   -0.1270   -0.3480 C   0  0  0  0  0  0  0  0  0  0  0  0
   -1.1250    0.1190    0.8660 N   0  0  0  0  0  0  0  0  0  0  0  0
   -2.5000    0.2840    1.2570 C   0  0  0  0  0  0  0  0  0  0  0  0
   -3.4230    0.1680    0.2090 O   0  0  0  0  0  0  0  0  0  0  0  0
   -3.1150   -0.0970   -1.1130 C   0  0  0  0  0  0  0  0  0  0  0  0
   -4.0240   -0.1900   -1.9880 O   0  0  0  0  0  0  0  0  0  0  0  0
   -1.7340   -0.2530   -1.4110 N   0  0  0  0  0  0  0  0  0  0  0  0
  1  2  1  0
  2  3  1  0
  3  4  1  1
  3  5  1  0
  5  6  1  6
  5  7  1  0
  7  8  2  0
  7 13  1  0
  8  9  1  0
  9 10  1  0
 10 11  1  0
 11 12  2  0
 11 13  1  0
M  CHG  1   8   1
M  END
