
     RDKit          3D

 12 12  0  0  0  0  0  0  0  0999 V2000
    4.0970   -1.4970    0.1160 N   0  0  0  0  0  0  0  0  0  0  0  0
    2.7170   -1.1280    0.0760 C   0  0  0  0  0  0  0  0  0  0  0  0
    1.8170   -1.9940   -0.1090 O   0  0  0  0  0  0  0  0  0  0  0  0
    2.3170    0.1830    0.2370 O   0  0  0  0  0  0  0  0  0  0  0  0
    0.9530    0.5300    0.1940 C   0  0  0  0  0  0  0  0  0  0  0  0
    0.0570   -0.3700    0.0050 N   0  0  0  0  0  0  0  0  0  0  0  0
   -1.3320    0.0320   -0.0310 C   0  0  2  0  0  0  0  0  0  0  0  0
   -2.0850   -0.7680   -0.8470 O   0  0  0  0  0  0  0  0  0  0  0  0
   -3.1780   -1.2840   -0.2470 N   0  0  0  0  0  0  0  0  0  0  0  0
   -1.3460    1.4470   -0.6230 C   0  0  0  0  0  0  0  0  0  0  0  0
   -0.6960    2.2540    0.2890 O   0  0  0  0  0  0  0  0  0  0  0  0
    0.6420    1.9580    0.3780 C   0  0  0  0  0  0  0  0  0  0  0  0
  1  2  1  0
  2  3  2  0
  2  4  1  0
  4  5  1  0
  5  6  2  0
  5 12  1  0
  6  7  1  0
  7  8  1  6
  7 10  1  0
  8  9  1  0
 10 11  1  0
 11 12  1  0
M  CHG  1   9   1
M  END
