
     RDKit          3D

 13 13  0  0  0  0  0  0  0  0999 V2000
   -1.0630   -1.0980    0.9580 N   0  0  0  0  0  0  0  0  0  0  0  0
   -1.2440    0.1330    0.2500 C   0  0  1  0  0  0  0  0  0  0  0  0
   -0.2580    0.2610   -0.9170 C   0  0  0  0  0  0  0  0  0  0  0  0
    1.1090    0.2230   -0.4370 N   0  0  0  0  0  0  0  0  0  0  0  0
    1.7910    1.2580   -0.0840 O   0  0  0  0  0  0  0  0  0  0  0  0
    2.9990    0.9320    0.3090 C   0  0  0  0  0  0  0  0  0  0  0  0
    3.9390    1.6650    0.7210 O   0  0  0  0  0  0  0  0  0  0  0  0
    3.0870   -0.3930    0.1990 N   0  0  0  0  0  0  0  0  0  0  0  0
    1.9130   -0.8380   -0.2650 C   0  0  0  0  0  0  0  0  0  0  0  0
    1.5810   -2.0360   -0.5110 O   0  0  0  0  0  0  0  0  0  0  0  0
   -2.6240    0.3760   -0.1850 C   0  0  0  0  0  0  0  0  0  0  0  0
   -3.5830   -0.4060    0.0280 O   0  0  0  0  0  0  0  0  0  0  0  0
   -2.8950    1.5450   -0.8790 O   0  0  0  0  0  0  0  0  0  0  0  0
  2  1  1  6
  2  3  1  0
  2 11  1  0
  3  4  1  0
  4  5  1  0
  4  9  1  0
  5  6  1  0
  6  7  2  0
  6  8  1  0
  8  9  1  0
  9 10  2  0
 11 12  2  0
 11 13  1  0
M  CHG  1   1   1
M  END
