
     RDKit          3D

 13 13  0  0  0  0  0  0  0  0999 V2000
    0.2090   -2.0080    0.6330 N   0  0  0  0  0  0  0  0  0  0  0  0
    0.2180   -0.6120    0.3190 C   0  0  1  0  0  0  0  0  0  0  0  0
    1.2670   -0.2550   -0.6280 N   0  0  0  0  0  0  0  0  0  0  0  0
    2.2260    0.7130   -0.2760 C   0  0  0  0  0  0  0  0  0  0  0  0
    2.1600    1.2520    0.8510 O   0  0  0  0  0  0  0  0  0  0  0  0
    3.2620    1.1010   -1.1440 O   0  0  0  0  0  0  0  0  0  0  0  0
   -1.1070   -0.1700   -0.3150 C   0  0  2  0  0  0  0  0  0  0  0  0
   -1.0470    1.3000   -0.6250 C   0  0  0  0  0  0  0  0  0  0  0  0
   -0.2160    1.8550   -1.3720 O   0  0  0  0  0  0  0  0  0  0  0  0
   -2.0950    1.9000    0.0860 N   0  0  0  0  0  0  0  0  0  0  0  0
   -2.7810    0.9540    0.7950 O   0  0  0  0  0  0  0  0  0  0  0  0
   -2.2370   -0.3010    0.5980 C   0  0  0  0  0  0  0  0  0  0  0  0
   -2.6620   -1.3490    1.1240 O   0  0  0  0  0  0  0  0  0  0  0  0
  2  1  1  6
  2  3  1  0
  2  7  1  0
  3  4  1  0
  4  5  2  0
  4  6  1  0
  7  8  1  1
  7 12  1  0
  8  9  2  0
  8 10  1  0
 10 11  1  0
 11 12  1  0
 12 13  2  0
M  CHG  1   1   1
M  END
