
     RDKit          3D

 13 13  0  0  0  0  0  0  0  0999 V2000
    3.0510   -1.2230   -0.8300 N   0  0  0  0  0  0  0  0  0  0  0  0
    1.9420   -0.3410   -0.6450 C   0  0  0  0  0  0  0  0  0  0  0  0
    1.9590    0.8540   -1.0320 O   0  0  0  0  0  0  0  0  0  0  0  0
    0.7710   -0.7340   -0.0280 O   0  0  0  0  0  0  0  0  0  0  0  0
   -0.2960    0.1050    0.1540 C   0  0  1  0  0  0  0  0  0  0  0  0
   -1.3730   -0.6600    0.8500 C   0  0  0  0  0  0  0  0  0  0  0  0
   -1.1820   -2.0230    1.2050 N   0  0  0  0  0  0  0  0  0  0  0  0
   -2.4750   -0.1270    1.1440 O   0  0  0  0  0  0  0  0  0  0  0  0
   -0.0420    1.3320    0.9830 C   0  0  0  0  0  0  0  0  0  0  0  0
   -1.2710    2.0470    0.7540 O   0  0  0  0  0  0  0  0  0  0  0  0
   -1.5260    1.8330   -0.5950 C   0  0  0  0  0  0  0  0  0  0  0  0
   -2.2360    2.6210   -1.3080 O   0  0  0  0  0  0  0  0  0  0  0  0
   -0.8930    0.6400   -1.0450 N   0  0  0  0  0  0  0  0  0  0  0  0
  1  2  1  0
  2  3  2  0
  2  4  1  0
  5  4  1  6
  5  6  1  0
  5  9  1  0
  5 13  1  0
  6  7  1  0
  6  8  2  0
  9 10  1  0
 10 11  1  0
 11 12  2  0
 11 13  1  0
M  CHG  1  13   1
M  END
