
     RDKit          3D

 23 24  0  0  0  0  0  0  0  0999 V2000
   -3.0110    3.8150   -1.5650 C   0  0  0  0  0  0  0  0  0  0  0  0
   -2.1690    3.0770   -0.9490 C   0  0  0  0  0  0  0  0  0  0  0  0
   -2.3180    1.7010   -0.5030 C   0  0  0  0  0  0  0  0  0  0  0  0
   -1.1790    0.9010   -0.4260 C   0  0  0  0  0  0  0  0  0  0  0  0
   -1.1450   -0.4050   -0.0090 C   0  0  0  0  0  0  0  0  0  0  0  0
    0.0420   -1.1580    0.0910 N   0  0  0  0  0  0  0  0  0  0  0  0
    1.3070   -0.7960   -0.4020 C   0  0  0  0  0  0  0  0  0  0  0  0
    1.4680    0.2790   -1.0040 O   0  0  0  0  0  0  0  0  0  0  0  0
    2.4640   -1.6440   -0.2350 N   0  0  0  0  0  0  0  0  0  0  0  0
    3.7060   -1.2490   -0.7430 N   0  0  0  0  0  0  0  0  0  0  0  0
    4.6410   -0.5500    0.0690 C   0  0  0  0  0  0  0  0  0  0  0  0
    4.3420   -0.2860    1.2600 O   0  0  0  0  0  0  0  0  0  0  0  0
    5.9630   -0.1260   -0.4590 C   0  0  0  0  0  0  0  0  0  0  0  0
    6.7420    0.5800    0.6350 C   0  0  0  0  0  0  0  0  0  0  0  0
    7.9880    0.9960    0.1900 O   0  0  0  0  0  0  0  0  0  0  0  0
   -2.3900   -0.9610    0.3680 C   0  0  0  0  0  0  0  0  0  0  0  0
   -3.5260   -0.2100    0.3080 C   0  0  0  0  0  0  0  0  0  0  0  0
   -3.4840    1.1030   -0.1230 C   0  0  0  0  0  0  0  0  0  0  0  0
   -4.6990    1.8470   -0.1320 N   0  0  0  0  0  0  0  0  0  0  0  0
   -5.0980   -0.8660    0.7750 S   0  0  0  0  0  0  0  0  0  0  0  0
   -4.9260   -2.5800    1.2470 C   0  0  0  0  0  0  0  0  0  0  0  0
   -3.5280   -2.9880    1.1620 C   0  0  0  0  0  0  0  0  0  0  0  0
   -2.4730   -2.3350    0.8020 C   0  0  0  0  0  0  0  0  0  0  0  0
  1  2  2  0
  2  3  1  0
  3  4  2  0
  3 18  1  0
  4  5  1  0
  5  6  1  0
  5 16  2  0
  6  7  1  0
  7  8  2  0
  7  9  1  0
  9 10  1  0
 10 11  1  0
 11 12  2  0
 11 13  1  0
 13 14  1  0
 14 15  1  0
 16 17  1  0
 16 23  1  0
 17 18  2  0
 17 20  1  0
 18 19  1  0
 20 21  1  0
 21 22  1  0
 22 23  2  0
M  CHG  1  19   1
M  END
