
     RDKit          3D

 23 24  0  0  0  0  0  0  0  0999 V2000
    7.4220    2.0630    1.1920 N   0  0  0  0  0  0  0  0  0  0  0  0
    7.6790    0.6660    0.9040 C   0  0  0  0  0  0  0  0  0  0  0  0
    6.4200   -0.0900    0.5680 C   0  0  0  0  0  0  0  0  0  0  0  0
    5.5690   -0.7800    1.3700 C   0  0  0  0  0  0  0  0  0  0  0  0
    4.5140   -1.3830    0.7940 C   0  0  0  0  0  0  0  0  0  0  0  0
    4.3130   -1.3050   -0.5140 C   0  0  0  0  0  0  0  0  0  0  0  0
    3.3170   -1.8440   -1.4770 C   0  0  0  0  0  0  0  0  0  0  0  0
    2.0390   -1.2400   -1.4210 N   0  0  0  0  0  0  0  0  0  0  0  0
    1.0920   -1.3560   -0.3780 C   0  0  0  0  0  0  0  0  0  0  0  0
    1.3720   -2.0610    0.6140 O   0  0  0  0  0  0  0  0  0  0  0  0
   -0.1860   -0.6690   -0.4640 C   0  0  0  0  0  0  0  0  0  0  0  0
   -0.4890    0.0600   -1.4350 O   0  0  0  0  0  0  0  0  0  0  0  0
   -1.0880   -0.8640    0.6130 N   0  0  0  0  0  0  0  0  0  0  0  0
   -2.3440   -0.2910    0.6760 N   0  0  0  0  0  0  0  0  0  0  0  0
   -3.2850   -0.4670   -0.3660 C   0  0  0  0  0  0  0  0  0  0  0  0
   -2.9360   -1.1510   -1.3590 O   0  0  0  0  0  0  0  0  0  0  0  0
   -4.6010    0.1280   -0.2720 C   0  0  0  0  0  0  0  0  0  0  0  0
   -5.4520   -0.0740   -1.2840 C   0  0  0  0  0  0  0  0  0  0  0  0
   -6.8180    0.4850   -1.2890 C   0  0  0  0  0  0  0  0  0  0  0  0
   -7.0360    1.5330   -0.2440 C   0  0  0  0  0  0  0  0  0  0  0  0
   -6.4310    1.0580    1.0610 C   0  0  0  0  0  0  0  0  0  0  0  0
   -4.9400    0.9200    0.9320 C   0  0  0  0  0  0  0  0  0  0  0  0
    5.7050   -0.2980   -1.0480 S   0  0  0  0  0  0  0  0  0  0  0  0
  1  2  1  0
  2  3  1  0
  3  4  2  0
  3 23  1  0
  4  5  1  0
  5  6  2  0
  6  7  1  0
  6 23  1  0
  7  8  1  0
  8  9  1  0
  9 10  2  0
  9 11  1  0
 11 12  2  0
 11 13  1  0
 13 14  1  0
 14 15  1  0
 15 16  2  0
 15 17  1  0
 17 18  2  0
 17 22  1  0
 18 19  1  0
 19 20  1  0
 20 21  1  0
 21 22  1  0
M  CHG  1   1   1
M  END
