
     RDKit          3D

 23 24  0  0  0  0  0  0  0  0999 V2000
    7.5980   -0.6450    0.1400 C   0  0  0  0  0  0  0  0  0  0  0  0
    6.1530   -0.7600    0.3860 C   0  0  0  0  0  0  0  0  0  0  0  0
    4.9490   -0.8710    0.5890 C   0  0  0  0  0  0  0  0  0  0  0  0
    3.5360   -1.0160    0.8060 C   0  0  0  0  0  0  0  0  0  0  0  0
    2.8640   -2.1250    0.3780 C   0  0  0  0  0  0  0  0  0  0  0  0
    1.5260   -2.2570    0.5970 C   0  0  0  0  0  0  0  0  0  0  0  0
    0.7710   -1.2740    1.2660 C   0  0  0  0  0  0  0  0  0  0  0  0
   -0.6150   -1.5010    1.5220 C   0  0  0  0  0  0  0  0  0  0  0  0
   -0.8890   -2.5870    2.4860 C   0  0  0  0  0  0  0  0  0  0  0  0
   -2.0910   -2.8340    2.7570 O   0  0  0  0  0  0  0  0  0  0  0  0
   -1.6420   -0.8940    1.0240 C   0  0  0  0  0  0  0  0  0  0  0  0
   -2.9550   -1.3310    1.4710 O   0  0  0  0  0  0  0  0  0  0  0  0
   -3.7450   -0.2860    2.0170 C   0  0  0  0  0  0  0  0  0  0  0  0
   -1.7680    0.1810    0.0670 C   0  0  0  0  0  0  0  0  0  0  0  0
   -1.1800    1.4080    0.1800 C   0  0  0  0  0  0  0  0  0  0  0  0
   -1.3320    2.4090   -0.7670 C   0  0  0  0  0  0  0  0  0  0  0  0
   -2.0960    2.2030   -1.8780 C   0  0  0  0  0  0  0  0  0  0  0  0
   -2.2620    3.2910   -2.8980 C   0  0  0  0  0  0  0  0  0  0  0  0
   -2.7100    0.9650   -2.0250 C   0  0  0  0  0  0  0  0  0  0  0  0
   -3.5540    0.7290   -3.2360 C   0  0  0  0  0  0  0  0  0  0  0  0
   -2.5490   -0.0120   -1.0810 C   0  0  0  0  0  0  0  0  0  0  0  0
    1.4490   -0.1720    1.6910 C   0  0  0  0  0  0  0  0  0  0  0  0
    2.8260   -0.0260    1.4710 C   0  0  0  0  0  0  0  0  0  0  0  0
  1  2  1  0
  2  3  3  0
  3  4  1  0
  4  5  2  0
  4 23  1  0
  5  6  1  0
  6  7  2  0
  7  8  1  0
  7 22  1  0
  8  9  1  0
  8 11  2  3
  9 10  2  0
 11 12  1  0
 11 14  1  0
 12 13  1  0
 14 15  2  0
 14 21  1  0
 15 16  1  0
 16 17  2  0
 17 18  1  0
 17 19  1  0
 19 20  1  0
 19 21  2  0
 22 23  2  0
M  END
