
     RDKit          3D

 17 18  0  0  0  0  0  0  0  0999 V2000
   -2.7160    1.7640    0.6110 N   0  0  0  0  0  0  0  0  0  0  0  0
   -1.4250    1.2030    0.6040 C   0  0  0  0  0  0  0  0  0  0  0  0
   -0.4860    1.9200    1.0380 O   0  0  0  0  0  0  0  0  0  0  0  0
   -1.0950   -0.1490    0.1320 C   0  0  1  0  0  0  0  0  0  0  0  0
    0.3120   -0.4060    0.2630 N   0  0  0  0  0  0  0  0  0  0  0  0
    1.3230    0.3730   -0.3650 C   0  0  0  0  0  0  0  0  0  0  0  0
    1.0170    1.3500   -1.0810 O   0  0  0  0  0  0  0  0  0  0  0  0
    2.7300    0.0540   -0.1900 C   0  0  0  0  0  0  0  0  0  0  0  0
    3.7690    0.6740   -0.7010 C   0  0  0  0  0  0  0  0  0  0  0  0
    4.9550    0.0720   -0.3040 O   0  0  0  0  0  0  0  0  0  0  0  0
    4.6360   -0.9140    0.6670 C   0  0  0  0  0  0  0  0  0  0  0  0
    3.2210   -0.9970    0.5730 O   0  0  0  0  0  0  0  0  0  0  0  0
   -1.8110   -1.0990    1.0990 C   0  0  0  0  0  0  0  0  0  0  0  0
   -3.5100   -0.9330    0.4670 S   0  0  0  0  0  0  0  0  0  0  0  0
   -3.0710   -0.4980   -1.2600 C   0  0  0  0  0  0  0  0  0  0  0  0
   -1.5670   -0.4870   -1.2280 C   0  0  1  0  0  0  0  0  0  0  0  0
   -1.1450    0.3950   -2.1790 O   0  0  0  0  0  0  0  0  0  0  0  0
  1  2  1  0
  2  3  2  0
  2  4  1  0
  4  5  1  6
  4 13  1  0
  4 16  1  0
  5  6  1  0
  6  7  2  0
  6  8  1  0
  8  9  2  0
  8 12  1  0
  9 10  1  0
 10 11  1  0
 11 12  1  0
 13 14  1  0
 14 15  1  0
 15 16  1  0
 16 17  1  6
M  END
