
     RDKit          3D

 23 24  0  0  0  0  0  0  0  0999 V2000
   -5.4990    0.4380    1.2260 C   0  0  0  0  0  0  0  0  0  0  0  0
   -4.9010    1.0950    0.0320 C   0  0  0  0  0  0  0  0  0  0  0  0
   -5.2570    2.5350   -0.1700 C   0  0  0  0  0  0  0  0  0  0  0  0
   -4.1080    0.4980   -0.8170 C   0  0  0  0  0  0  0  0  0  0  0  0
   -3.6570   -0.9060   -0.7670 C   0  0  0  0  0  0  0  0  0  0  0  0
   -2.1940   -1.0770   -0.5970 C   0  0  0  0  0  0  0  0  0  0  0  0
   -1.4280   -0.0250   -0.4260 C   0  0  0  0  0  0  0  0  0  0  0  0
   -1.8980    1.2830   -0.3910 O   0  0  0  0  0  0  0  0  0  0  0  0
    0.0240   -0.2700   -0.2640 C   0  0  0  0  0  0  0  0  0  0  0  0
    0.7930    0.7850   -0.1180 C   0  0  0  0  0  0  0  0  0  0  0  0
    2.2350    0.7600    0.0590 C   0  0  0  0  0  0  0  0  0  0  0  0
    2.8770   -0.0390    0.9740 C   0  0  0  0  0  0  0  0  0  0  0  0
    4.2740   -0.0200    1.0610 C   0  0  0  0  0  0  0  0  0  0  0  0
    4.9020   -0.9060    2.0670 C   0  0  0  0  0  0  0  0  0  0  0  0
    5.0100    0.7920    0.2390 C   0  0  0  0  0  0  0  0  0  0  0  0
    4.3970    1.5990   -0.6810 C   0  0  0  0  0  0  0  0  0  0  0  0
    5.2080    2.4860   -1.5770 C   0  0  0  0  0  0  0  0  0  0  0  0
    3.0250    1.5680   -0.7540 C   0  0  0  0  0  0  0  0  0  0  0  0
    0.5590   -1.6240   -0.2950 C   0  0  0  0  0  0  0  0  0  0  0  0
   -0.2130   -2.6910   -0.4660 C   0  0  0  0  0  0  0  0  0  0  0  0
    0.3720   -4.0570   -0.4920 C   0  0  0  0  0  0  0  0  0  0  0  0
   -1.6360   -2.4510   -0.6260 C   0  0  0  0  0  0  0  0  0  0  0  0
   -2.3990   -3.4440   -0.7910 O   0  0  0  0  0  0  0  0  0  0  0  0
  1  2  1  0
  2  3  1  0
  2  4  2  3
  4  5  1  0
  5  6  1  0
  6  7  2  0
  6 22  1  0
  7  8  1  0
  7  9  1  0
  9 10  2  3
  9 19  1  0
 10 11  1  0
 11 12  2  0
 11 18  1  0
 12 13  1  0
 13 14  1  0
 13 15  2  0
 15 16  1  0
 16 17  1  0
 16 18  2  0
 19 20  2  0
 20 21  1  0
 20 22  1  0
 22 23  2  0
M  END
