
     RDKit          3D

 17 18  0  0  0  0  0  0  0  0999 V2000
   -2.9890   -0.9930    2.0330 C   0  0  0  0  0  0  0  0  0  0  0  0
   -2.4810   -0.9730    0.6080 C   0  0  2  0  0  0  0  0  0  0  0  0
   -1.0110   -1.3340    0.5510 C   0  0  0  0  0  0  0  0  0  0  0  0
   -0.6410   -0.6660   -0.7730 C   0  0  2  0  0  0  0  0  0  0  0  0
   -0.9640   -1.5270   -1.7950 O   0  0  0  0  0  0  0  0  0  0  0  0
    0.8150   -0.3310   -0.8000 C   0  0  0  0  0  0  0  0  0  0  0  0
    1.5080   -0.8380   -1.6850 O   0  0  0  0  0  0  0  0  0  0  0  0
    1.4050    0.5340    0.1430 N   0  0  0  0  0  0  0  0  0  0  0  0
    2.8330    0.8610    0.1140 C   0  0  0  0  0  0  0  0  0  0  0  0
    3.6700    0.3940   -0.7630 C   0  0  0  0  0  0  0  0  0  0  0  0
    5.2660    1.1480   -0.2870 S   0  0  0  0  0  0  0  0  0  0  0  0
    4.3890    2.0310    1.1470 C   0  0  0  0  0  0  0  0  0  0  0  0
    5.1400    2.7850    1.8930 O   0  0  0  0  0  0  0  0  0  0  0  0
    3.3490    1.6490    0.9790 O   0  0  0  0  0  0  0  0  0  0  0  0
   -1.5160    0.5420   -0.7290 C   0  0  1  0  0  0  0  0  0  0  0  0
   -1.8630    1.0540   -2.0280 N   0  0  0  0  0  0  0  0  0  0  0  0
   -2.6430    0.2380   -0.0090 O   0  0  0  0  0  0  0  0  0  0  0  0
  2  1  1  1
  2  3  1  0
  2 17  1  0
  3  4  1  0
  4  5  1  6
  4  6  1  0
  4 15  1  0
  6  7  2  0
  6  8  1  0
  8  9  1  0
  9 10  2  0
  9 14  1  0
 10 11  1  0
 11 12  1  0
 12 13  2  0
 12 14  1  0
 15 16  1  6
 15 17  1  0
M  END
