
     RDKit          3D

 23 24  0  0  0  0  0  0  0  0999 V2000
   -1.9290   -2.8260    0.2880 C   0  0  0  0  0  0  0  0  0  0  0  0
   -3.1450   -2.7330   -0.0690 C   0  0  0  0  0  0  0  0  0  0  0  0
   -3.8800   -4.0860   -0.0890 C   0  0  0  0  0  0  0  0  0  0  0  0
   -3.8930   -1.5810   -0.5130 C   0  0  0  0  0  0  0  0  0  0  0  0
   -5.2070   -1.6850   -0.8560 C   0  0  0  0  0  0  0  0  0  0  0  0
   -5.7440   -0.3860   -1.2840 C   0  0  0  0  0  0  0  0  0  0  0  0
   -4.5690    0.4870   -1.1800 C   0  0  0  0  0  0  0  0  0  0  0  0
   -3.4900   -0.2220   -0.7200 C   0  0  0  0  0  0  0  0  0  0  0  0
   -2.1850    0.4220   -0.6430 C   0  0  0  0  0  0  0  0  0  0  0  0
   -1.3280    0.4180    0.4160 C   0  0  0  0  0  0  0  0  0  0  0  0
   -0.0270    0.9300    0.3400 C   0  0  0  0  0  0  0  0  0  0  0  0
    0.4720    1.4680   -0.8080 C   0  0  0  0  0  0  0  0  0  0  0  0
    1.7390    1.9700   -0.9400 O   0  0  0  0  0  0  0  0  0  0  0  0
    2.7200    2.0290    0.0930 C   0  0  0  0  0  0  0  0  0  0  0  0
    3.1640    0.6520    0.4400 C   0  0  0  0  0  0  0  0  0  0  0  0
    4.1590    0.5600    1.5710 C   0  0  1  0  0  0  0  0  0  0  0  0
    3.5930    1.1170    2.8400 C   0  0  0  0  0  0  0  0  0  0  0  0
    4.4220   -0.9380    1.7750 C   0  0  0  0  0  0  0  0  0  0  0  0
    5.4790    1.1980    1.2940 C   0  0  0  0  0  0  0  0  0  0  0  0
   -0.3940    1.4920   -1.9240 C   0  0  0  0  0  0  0  0  0  0  0  0
    0.1580    2.0820   -3.1890 C   0  0  0  0  0  0  0  0  0  0  0  0
   -0.8500    2.0200   -4.1810 O   0  0  0  0  0  0  0  0  0  0  0  0
   -1.6500    0.9910   -1.8190 C   0  0  0  0  0  0  0  0  0  0  0  0
  1  2  2  0
  2  3  1  0
  2  4  1  0
  4  5  2  0
  4  8  1  0
  5  6  1  0
  6  7  1  0
  7  8  2  0
  8  9  1  0
  9 10  2  0
  9 23  1  0
 10 11  1  0
 11 12  2  0
 12 13  1  0
 12 20  1  0
 13 14  1  0
 14 15  1  0
 15 16  1  0
 16 17  1  1
 16 18  1  0
 16 19  1  0
 20 21  1  0
 20 23  2  0
 21 22  1  0
M  END
