
     RDKit          3D

 19 21  0  0  0  0  0  0  0  0999 V2000
    4.6580    1.6570    1.0410 N   0  0  0  0  0  0  0  0  0  0  0  0
    4.5050    0.5690    0.1470 C   0  0  0  0  0  0  0  0  0  0  0  0
    5.5340    0.0360   -0.3820 N   0  0  0  0  0  0  0  0  0  0  0  0
    3.1620    0.0720   -0.1580 C   0  0  0  0  0  0  0  0  0  0  0  0
    2.9210   -0.9790   -1.0150 C   0  0  0  0  0  0  0  0  0  0  0  0
    1.6420   -1.4420   -1.2970 C   0  0  0  0  0  0  0  0  0  0  0  0
    0.5950   -0.8010   -0.6760 C   0  0  0  0  0  0  0  0  0  0  0  0
   -0.7200   -1.0100   -0.7430 N   0  0  0  0  0  0  0  0  0  0  0  0
   -1.4030   -0.1360    0.0420 C   0  0  0  0  0  0  0  0  0  0  0  0
   -2.8510   -0.1200    0.1740 C   0  0  0  0  0  0  0  0  0  0  0  0
   -3.6170   -1.0250   -0.5180 C   0  0  0  0  0  0  0  0  0  0  0  0
   -5.0110   -1.0710   -0.4430 C   0  0  0  0  0  0  0  0  0  0  0  0
   -5.6170   -0.1510    0.3740 C   0  0  0  0  0  0  0  0  0  0  0  0
   -4.8770    0.7660    1.0790 C   0  0  0  0  0  0  0  0  0  0  0  0
   -3.4780    0.7960    0.9890 C   0  0  0  0  0  0  0  0  0  0  0  0
   -2.8380    1.7520    1.7340 O   0  0  0  0  0  0  0  0  0  0  0  0
   -0.4590    0.6170    0.5930 N   0  0  0  0  0  0  0  0  0  0  0  0
    0.7760    0.2540    0.1890 C   0  0  0  0  0  0  0  0  0  0  0  0
    2.0520    0.6690    0.4300 C   0  0  0  0  0  0  0  0  0  0  0  0
  1  2  1  0
  2  3  2  0
  2  4  1  0
  4  5  2  0
  4 19  1  0
  5  6  1  0
  6  7  2  0
  7  8  1  0
  7 18  1  0
  8  9  1  0
  9 10  1  0
  9 17  2  0
 10 11  2  0
 10 15  1  0
 11 12  1  0
 12 13  2  0
 13 14  1  0
 14 15  2  0
 15 16  1  0
 17 18  1  0
 18 19  2  0
M  CHG  1   3   1
M  END
