
     RDKit          3D

 29 29  0  0  0  0  0  0  0  0999 V2000
   -5.7440   -1.3470   -0.5580 C   0  0  0  0  0  0  0  0  0  0  0  0
   -6.3580   -0.3090    0.3620 C   0  0  0  0  0  0  0  0  0  0  0  0
   -5.4110    0.8750    0.5030 C   0  0  0  0  0  0  0  0  0  0  0  0
   -4.0990    0.5170    1.0500 C   0  0  0  0  0  0  0  0  0  0  0  0
   -2.9880    0.7460    0.2960 C   0  0  0  0  0  0  0  0  0  0  0  0
   -1.7130    0.3990    0.8190 C   0  0  0  0  0  0  0  0  0  0  0  0
   -0.4890    0.4420    0.4850 C   0  0  0  0  0  0  0  0  0  0  0  0
    0.3610    0.8410   -0.5500 C   0  0  0  0  0  0  0  0  0  0  0  0
    1.7240    0.5690   -0.2590 C   0  0  0  0  0  0  0  0  0  0  0  0
    2.1990   -0.0280    0.9370 C   0  0  0  0  0  0  0  0  0  0  0  0
    2.8290   -1.2150    1.0950 O   0  0  0  0  0  0  0  0  0  0  0  0
    3.0510   -1.1670    2.7090 P   0  0  0  0  0  0  0  0  0  0  0  0
    4.4090   -1.5350    3.7910 O   0  0  0  0  0  0  0  0  0  0  0  0
    4.7260   -2.8990    3.6050 C   0  0  1  0  0  0  0  0  0  0  0  0
    5.8290   -2.8850    2.7020 O   0  0  0  0  0  0  0  0  0  0  0  0
    5.0500   -3.5580    4.7580 O   0  0  0  0  0  0  0  0  0  0  0  0
    4.4000   -4.6680    4.9390 O   0  0  0  0  0  0  0  0  0  0  0  0
    5.3520   -5.6830    5.0850 C   0  0  0  0  0  0  0  0  0  0  0  0
    2.2440    0.2940    2.2940 C   0  0  0  0  0  0  0  0  0  0  0  0
    1.8260    1.4000    3.1620 C   0  0  0  0  0  0  0  0  0  0  0  0
    2.8120    2.5320    2.9240 C   0  0  0  0  0  0  0  0  0  0  0  0
    0.1830    1.4550   -1.8170 C   0  0  0  0  0  0  0  0  0  0  0  0
   -0.5360    1.9500   -2.6970 C   0  0  0  0  0  0  0  0  0  0  0  0
   -1.9850    2.1510   -2.7630 C   0  0  0  0  0  0  0  0  0  0  0  0
    0.2030    2.4660   -3.9980 C   0  0  0  0  0  0  0  0  0  0  0  0
   -0.3370    1.6800   -5.1070 C   0  0  0  0  0  0  0  0  0  0  0  0
   -1.2890    0.8580   -4.8920 O   0  0  0  0  0  0  0  0  0  0  0  0
    0.1700    1.8130   -6.3740 O   0  0  0  0  0  0  0  0  0  0  0  0
   -0.3380    1.0520   -7.4660 C   0  0  0  0  0  0  0  0  0  0  0  0
  1  2  1  0
  2  3  1  0
  3  4  1  0
  4  5  2  3
  5  6  1  0
  6  7  2  3
  7  8  1  0
  8  9  2  3
  8 22  1  0
  9 10  1  0
 10 11  1  0
 10 19  2  0
 11 12  1  0
 12 13  1  0
 12 19  1  0
 13 14  1  0
 14 15  1  6
 14 16  1  0
 16 17  1  0
 17 18  1  0
 19 20  1  0
 20 21  1  0
 22 23  2  3
 23 24  1  0
 23 25  1  0
 25 26  1  0
 26 27  2  0
 26 28  1  0
 28 29  1  0
M  END
