
     RDKit          3D

 29 29  0  0  0  0  0  0  0  0999 V2000
    1.2100   -2.3340    0.6420 C   0  0  0  0  0  0  0  0  0  0  0  0
    1.6660   -1.1260    0.3620 C   0  0  0  0  0  0  0  0  0  0  0  0
    3.0190   -0.7480    0.5070 C   0  0  0  0  0  0  0  0  0  0  0  0
    4.0770   -1.6140    0.9720 C   0  0  0  0  0  0  0  0  0  0  0  0
    4.3320   -1.6730    2.2000 O   0  0  0  0  0  0  0  0  0  0  0  0
    4.8340   -2.4140   -0.0230 C   0  0  0  0  0  0  0  0  0  0  0  0
    5.8910   -3.2510    0.6630 C   0  0  0  0  0  0  0  0  0  0  0  0
    3.1350    0.5680    0.1300 C   0  0  0  0  0  0  0  0  0  0  0  0
    4.3630    1.3550    0.1270 C   0  0  0  0  0  0  0  0  0  0  0  0
    4.4620    2.6230   -0.9500 P   0  0  0  0  0  0  0  0  0  0  0  0
    5.9810    3.6920   -1.0400 C   0  0  2  0  0  0  0  0  0  0  0  0
    6.6960    3.5740    0.2860 C   0  0  0  0  0  0  0  0  0  0  0  0
    5.6400    5.1170   -1.3630 C   0  0  0  0  0  0  0  0  0  0  0  0
    1.9610    0.9680   -0.2160 O   0  0  0  0  0  0  0  0  0  0  0  0
    1.0410    0.0020   -0.0990 C   0  0  0  0  0  0  0  0  0  0  0  0
   -0.2090    0.1870   -0.3950 C   0  0  0  0  0  0  0  0  0  0  0  0
   -1.2630   -0.8200   -0.2920 C   0  0  0  0  0  0  0  0  0  0  0  0
   -2.4320   -0.2360   -0.8340 O   0  0  0  0  0  0  0  0  0  0  0  0
   -3.5090   -1.1930   -0.7570 C   0  0  1  0  0  0  0  0  0  0  0  0
   -4.4580   -0.5430    0.1810 C   0  0  0  0  0  0  0  0  0  0  0  0
   -5.7190   -1.2120    0.5490 C   0  0  1  0  0  0  0  0  0  0  0  0
   -6.7070   -1.5010   -0.5160 C   0  0  0  0  0  0  0  0  0  0  0  0
   -5.2630   -2.5310    0.9890 O   0  0  0  0  0  0  0  0  0  0  0  0
   -6.2430   -0.6960    1.6920 O   0  0  0  0  0  0  0  0  0  0  0  0
   -6.8100    0.5100    1.7630 C   0  0  0  0  0  0  0  0  0  0  0  0
   -6.0110    1.7370    1.4780 C   0  0  0  0  0  0  0  0  0  0  0  0
   -3.9100   -1.3880   -2.1390 C   0  0  0  0  0  0  0  0  0  0  0  0
   -4.7390   -2.2600   -2.4660 O   0  0  0  0  0  0  0  0  0  0  0  0
   -3.4000   -0.6200   -3.1870 O   0  0  0  0  0  0  0  0  0  0  0  0
  1  2  2  0
  2  3  1  0
  2 15  1  0
  3  4  1  0
  3  8  2  0
  4  5  2  0
  4  6  1  0
  6  7  1  0
  8  9  1  0
  8 14  1  0
  9 10  2  3
 10 11  1  0
 11 12  1  1
 11 13  1  0
 14 15  1  0
 15 16  2  3
 16 17  1  0
 17 18  1  0
 18 19  1  0
 19 20  1  1
 19 27  1  0
 20 21  1  0
 21 22  1  6
 21 23  1  0
 21 24  1  0
 24 25  1  0
 25 26  1  0
 27 28  2  0
 27 29  1  0
M  END
