
     RDKit          3D

 30 30  0  0  0  0  0  0  0  0999 V2000
   -0.3370    2.8040   -2.7690 C   0  0  0  0  0  0  0  0  0  0  0  0
   -0.0170    1.3640   -2.3400 C   0  0  0  0  0  0  0  0  0  0  0  0
    1.1830    1.3480   -1.6360 O   0  0  0  0  0  0  0  0  0  0  0  0
    1.1120    2.1010   -0.4710 C   0  0  0  0  0  0  0  0  0  0  0  0
    0.1320    1.5930    0.5420 C   0  0  2  0  0  0  0  0  0  0  0  0
    0.1170    2.4600    1.7480 C   0  0  0  0  0  0  0  0  0  0  0  0
   -0.2870    3.8230    1.4340 N   0  0  0  0  0  0  0  0  0  0  0  0
    0.5290    4.5880    1.0390 O   0  0  0  0  0  0  0  0  0  0  0  0
    0.0180    0.1590    0.6490 C   0  0  0  0  0  0  0  0  0  0  0  0
    1.1940   -0.5180    0.4640 C   0  0  0  0  0  0  0  0  0  0  0  0
    2.3300    0.2070    0.2380 O   0  0  0  0  0  0  0  0  0  0  0  0
    3.6000   -0.1620    0.0300 C   0  0  0  0  0  0  0  0  0  0  0  0
    3.9210   -1.3630    0.0190 O   0  0  0  0  0  0  0  0  0  0  0  0
    4.6270    0.7800   -0.1870 O   0  0  0  0  0  0  0  0  0  0  0  0
    5.9240    0.2650   -0.3940 C   0  0  0  0  0  0  0  0  0  0  0  0
    5.9330   -0.6320   -1.6140 C   0  0  0  0  0  0  0  0  0  0  0  0
    1.2790   -1.9590    0.4710 C   0  0  0  0  0  0  0  0  0  0  0  0
    0.2180   -2.7100    0.6190 C   0  0  0  0  0  0  0  0  0  0  0  0
    0.3270   -4.1720    0.6520 C   0  0  0  0  0  0  0  0  0  0  0  0
   -1.0980   -2.0760    0.4780 C   0  0  2  0  0  0  0  0  0  0  0  0
   -1.4260   -2.1990   -0.9960 C   0  0  0  0  0  0  0  0  0  0  0  0
   -1.1240   -0.6900    1.0360 C   0  0  1  0  0  0  0  0  0  0  0  0
   -0.7370   -0.9870    2.5450 C   0  0  0  0  0  0  0  0  0  0  0  0
   -2.4710   -0.1260    1.1110 C   0  0  1  0  0  0  0  0  0  0  0  0
   -3.4350   -1.3110    1.4660 C   0  0  0  0  0  0  0  0  0  0  0  0
   -2.7050    0.8020    2.3130 C   0  0  0  0  0  0  0  0  0  0  0  0
   -3.1040    0.4940   -0.0270 C   0  0  0  0  0  0  0  0  0  0  0  0
   -3.5320    1.6960    0.1130 O   0  0  0  0  0  0  0  0  0  0  0  0
   -3.3420   -0.0010   -1.2900 O   0  0  0  0  0  0  0  0  0  0  0  0
   -3.9780    0.7080   -2.3250 C   0  0  0  0  0  0  0  0  0  0  0  0
  1  2  1  0
  2  3  1  0
  3  4  1  0
  5  4  1  1
  5  6  1  0
  5  9  1  0
  6  7  1  0
  7  8  2  0
  9 10  2  0
  9 22  1  0
 10 11  1  0
 10 17  1  0
 11 12  1  0
 12 13  2  0
 12 14  1  0
 14 15  1  0
 15 16  1  0
 17 18  2  0
 18 19  1  0
 18 20  1  0
 20 21  1  6
 20 22  1  0
 22 23  1  1
 22 24  1  0
 24 25  1  1
 24 26  1  0
 24 27  1  0
 27 28  2  0
 27 29  1  0
 29 30  1  0
M  END
