
     RDKit          3D

 11 12  0  0  0  0  0  0  0  0999 V2000
   -2.7560   -0.5770   -0.5860 N   0  0  0  0  0  0  0  0  0  0  0  0
   -1.4150   -0.1820   -0.3740 C   0  0  0  0  0  0  0  0  0  0  0  0
   -1.0560    1.1480   -0.3000 C   0  0  0  0  0  0  0  0  0  0  0  0
    0.2470    1.5570   -0.0950 C   0  0  0  0  0  0  0  0  0  0  0  0
    0.6580    3.2690   -0.0070 Cl  0  0  0  0  0  0  0  0  0  0  0  0
    1.2040    0.5680    0.0380 C   0  0  0  0  0  0  0  0  0  0  0  0
    2.5250    0.6980    0.2420 N   0  0  0  0  0  0  0  0  0  0  0  0
    3.0140   -0.5550    0.2990 C   0  0  0  0  0  0  0  0  0  0  0  0
    2.0320   -1.4200    0.1360 O   0  0  0  0  0  0  0  0  0  0  0  0
    0.9000   -0.7770   -0.0280 C   0  0  0  0  0  0  0  0  0  0  0  0
   -0.4230   -1.1430   -0.2360 C   0  0  0  0  0  0  0  0  0  0  0  0
  1  2  1  0
  2  3  2  0
  2 11  1  0
  3  4  1  0
  4  5  1  0
  4  6  2  0
  6  7  1  0
  6 10  1  0
  7  8  2  0
  8  9  1  0
  9 10  1  0
 10 11  2  0
M  END
