
     RDKit          3D

 11 12  0  0  0  0  0  0  0  0999 V2000
   -1.7270   -2.5340    0.1140 O   0  0  0  0  0  0  0  0  0  0  0  0
   -1.5000   -1.2970    0.0680 C   0  0  0  0  0  0  0  0  0  0  0  0
   -2.4120   -0.3210    0.0500 N   0  0  0  0  0  0  0  0  0  0  0  0
   -1.7910    0.8450   -0.0000 N   0  0  0  0  0  0  0  0  0  0  0  0
   -0.4490    0.6580   -0.0150 C   0  0  0  0  0  0  0  0  0  0  0  0
    0.6380    1.5290   -0.0620 C   0  0  0  0  0  0  0  0  0  0  0  0
    1.9260    1.0370   -0.0660 C   0  0  0  0  0  0  0  0  0  0  0  0
    2.1020   -0.3310   -0.0220 C   0  0  0  0  0  0  0  0  0  0  0  0
    3.7100   -1.0450   -0.0240 Cl  0  0  0  0  0  0  0  0  0  0  0  0
    1.0320   -1.2040    0.0250 C   0  0  0  0  0  0  0  0  0  0  0  0
   -0.2460   -0.7070    0.0280 C   0  0  0  0  0  0  0  0  0  0  0  0
  1  2  2  0
  2  3  1  0
  2 11  1  0
  3  4  1  0
  4  5  1  0
  5  6  2  0
  5 11  1  0
  6  7  1  0
  7  8  2  0
  8  9  1  0
  8 10  1  0
 10 11  2  0
M  END
