
     RDKit          3D

 11 12  0  0  0  0  0  0  0  0999 V2000
    1.5570    1.9330   -0.5420 O   0  0  0  0  0  0  0  0  0  0  0  0
    1.1540    0.6620   -0.1770 C   0  0  0  0  0  0  0  0  0  0  0  0
    2.1310   -0.3000    0.1160 C   0  0  0  0  0  0  0  0  0  0  0  0
    1.7550   -1.5690    0.4800 C   0  0  0  0  0  0  0  0  0  0  0  0
    0.4520   -1.8860    0.5550 N   0  0  0  0  0  0  0  0  0  0  0  0
   -0.5130   -0.9740    0.2770 C   0  0  0  0  0  0  0  0  0  0  0  0
   -1.8960   -1.0200    0.2720 C   0  0  0  0  0  0  0  0  0  0  0  0
   -2.3550    0.1920   -0.0870 N   0  0  0  0  0  0  0  0  0  0  0  0
   -1.3570    1.0350   -0.3190 C   0  0  0  0  0  0  0  0  0  0  0  0
   -1.5180    2.7040   -0.8070 Cl  0  0  0  0  0  0  0  0  0  0  0  0
   -0.1930    0.3310   -0.0990 C   0  0  0  0  0  0  0  0  0  0  0  0
  1  2  1  0
  2  3  2  0
  2 11  1  0
  3  4  1  0
  4  5  2  0
  5  6  1  0
  6  7  2  0
  6 11  1  0
  7  8  1  0
  8  9  1  0
  9 10  1  0
  9 11  2  0
M  END
