
     RDKit          3D

 11 12  0  0  0  0  0  0  0  0999 V2000
   -2.1450   -1.4010   -0.0910 N   0  0  0  0  0  0  0  0  0  0  0  0
   -1.0870   -0.4600   -0.0220 C   0  0  0  0  0  0  0  0  0  0  0  0
   -1.3570    0.8810    0.1160 C   0  0  0  0  0  0  0  0  0  0  0  0
   -0.3190    1.8170    0.1850 C   0  0  0  0  0  0  0  0  0  0  0  0
   -0.7230    3.5170    0.3600 Cl  0  0  0  0  0  0  0  0  0  0  0  0
    0.9940    1.4080    0.1160 C   0  0  0  0  0  0  0  0  0  0  0  0
    1.2590    0.0680   -0.0210 C   0  0  0  0  0  0  0  0  0  0  0  0
    2.4540   -0.6220   -0.1150 C   0  0  0  0  0  0  0  0  0  0  0  0
    2.1040   -1.9160   -0.2340 N   0  0  0  0  0  0  0  0  0  0  0  0
    0.8030   -2.0320   -0.2170 O   0  0  0  0  0  0  0  0  0  0  0  0
    0.2410   -0.8720   -0.0910 C   0  0  0  0  0  0  0  0  0  0  0  0
  1  2  1  0
  2  3  2  0
  2 11  1  0
  3  4  1  0
  4  5  1  0
  4  6  2  0
  6  7  1  0
  7  8  1  0
  7 11  2  0
  8  9  2  0
  9 10  1  0
 10 11  1  0
M  END
