
     RDKit          3D

 15 15  0  0  0  0  0  0  0  0999 V2000
    3.3750    0.1740    2.3230 O   0  0  0  0  0  0  0  0  0  0  0  0
    3.3560    0.5210    1.1310 N   0  0  0  0  0  0  0  0  0  0  0  0
    4.4470    1.1900    0.6410 O   0  0  0  0  0  0  0  0  0  0  0  0
    2.2700    0.2630    0.2500 C   0  0  0  0  0  0  0  0  0  0  0  0
    2.2940    0.6680   -1.0690 C   0  0  0  0  0  0  0  0  0  0  0  0
    1.2500    0.4270   -1.9390 C   0  0  0  0  0  0  0  0  0  0  0  0
    0.1220   -0.2420   -1.5100 C   0  0  0  0  0  0  0  0  0  0  0  0
   -0.9410   -0.4890   -2.3910 O   0  0  0  0  0  0  0  0  0  0  0  0
    0.1020   -0.6450   -0.1930 C   0  0  0  0  0  0  0  0  0  0  0  0
   -1.0540   -1.3240    0.2260 O   0  0  0  0  0  0  0  0  0  0  0  0
   -2.3140   -0.5210    0.8330 S   0  0  1  0  0  0  0  0  0  0  0  0
   -3.6500   -1.2860    0.8790 O   0  0  0  0  0  0  0  0  0  0  0  0
   -1.9170    0.1390    2.3050 O   0  0  0  0  0  0  0  0  0  0  0  0
   -2.5760    0.8590   -0.2090 O   0  0  0  0  0  0  0  0  0  0  0  0
    1.1390   -0.4100    0.6880 C   0  0  0  0  0  0  0  0  0  0  0  0
  1  2  2  0
  2  3  1  0
  2  4  1  0
  4  5  2  0
  4 15  1  0
  5  6  1  0
  6  7  2  0
  7  8  1  0
  7  9  1  0
  9 10  1  0
  9 15  2  0
 10 11  1  0
 11 12  1  1
 11 13  1  0
 11 14  1  0
M  CHG  2   2   1   3  -1
M  END
