
     RDKit          3D

 24 27  0  0  0  0  0  0  0  0999 V2000
   -0.6810   -3.3680    0.1420 C   0  0  0  0  0  0  0  0  0  0  0  0
   -0.6030   -1.9270    0.0280 N   0  0  0  0  0  0  0  0  0  0  0  0
    0.6240   -1.2420   -0.1450 C   0  0  0  0  0  0  0  0  0  0  0  0
    1.4550   -1.1660    0.9770 C   0  0  0  0  0  0  0  0  0  0  0  0
    2.6590   -0.5030    0.8690 C   0  0  0  0  0  0  0  0  0  0  0  0
    3.0650    0.0850   -0.3070 C   0  0  0  0  0  0  0  0  0  0  0  0
    4.3350    0.7650   -0.3460 C   0  0  0  0  0  0  0  0  0  0  0  0
    5.4490    0.4240    0.3810 C   0  0  0  0  0  0  0  0  0  0  0  0
    6.4250    1.3400    0.0600 C   0  0  0  0  0  0  0  0  0  0  0  0
    5.9430    2.2150   -0.8300 N   0  0  0  0  0  0  0  0  0  0  0  0
    4.6500    1.8720   -1.0910 C   0  0  0  0  0  0  0  0  0  0  0  0
    2.2510    0.0090   -1.4050 C   0  0  0  0  0  0  0  0  0  0  0  0
    1.0410   -0.6560   -1.3010 C   0  0  0  0  0  0  0  0  0  0  0  0
   -1.8520   -1.1510    0.0890 C   0  0  0  0  0  0  0  0  0  0  0  0
   -2.9850   -1.2580    0.2380 N   0  0  0  0  0  0  0  0  0  0  0  0
   -3.9540   -0.3590    0.2350 C   0  0  0  0  0  0  0  0  0  0  0  0
   -3.5460    0.8730    0.0240 C   0  0  0  0  0  0  0  0  0  0  0  0
   -1.7230    0.7200   -0.1720 S   0  0  0  0  0  0  0  0  0  0  0  0
   -4.1850    2.0300   -0.0480 C   0  0  0  0  0  0  0  0  0  0  0  0
   -5.9500    2.0190    0.1720 S   0  0  2  0  0  0  0  0  0  0  0  0
   -6.5980    2.4180   -1.1120 O   0  0  0  0  0  0  0  0  0  0  0  0
   -6.3370    2.8650    1.3200 O   0  0  0  0  0  0  0  0  0  0  0  0
   -6.2620    0.3340    0.4180 N   0  0  0  0  0  0  0  0  0  0  0  0
   -5.2590   -0.6290    0.4260 C   0  0  0  0  0  0  0  0  0  0  0  0
  1  2  1  0
  2  3  1  0
  2 14  1  0
  3  4  2  0
  3 13  1  0
  4  5  1  0
  5  6  2  0
  6  7  1  0
  6 12  1  0
  7  8  1  0
  7 11  2  0
  8  9  2  0
  9 10  1  0
 10 11  1  0
 12 13  2  0
 14 15  2  0
 14 18  1  0
 15 16  1  0
 16 17  1  0
 16 24  2  0
 17 18  1  0
 17 19  2  0
 19 20  1  0
 20 21  2  0
 20 22  2  0
 20 23  1  1
 23 24  1  0
M  END
