
     RDKit          3D

 24 27  0  0  0  0  0  0  0  0999 V2000
    0.3030   -2.0310   -0.4150 O   0  0  0  0  0  0  0  0  0  0  0  0
   -0.4020   -1.0530   -0.0980 C   0  0  0  0  0  0  0  0  0  0  0  0
    0.1570    0.2400   -0.0390 N   0  0  0  0  0  0  0  0  0  0  0  0
    1.5150    0.5700   -0.3100 C   0  0  0  0  0  0  0  0  0  0  0  0
    1.8090    1.9270   -0.5040 C   0  0  0  0  0  0  0  0  0  0  0  0
    3.0970    2.2990   -0.7510 C   0  0  0  0  0  0  0  0  0  0  0  0
    3.3510    3.6440   -0.9370 O   0  0  0  0  0  0  0  0  0  0  0  0
    4.1560    1.3640   -0.8210 C   0  0  0  0  0  0  0  0  0  0  0  0
    5.4590    1.7340   -1.0700 C   0  0  0  0  0  0  0  0  0  0  0  0
    6.2030    3.3210   -1.3610 S   0  0  0  0  0  0  0  0  0  0  0  0
    6.3600    0.1780   -1.0470 S   0  0  0  0  0  0  0  0  0  0  0  0
    4.9300   -0.8290   -0.7080 C   0  0  0  0  0  0  0  0  0  0  0  0
    3.8810    0.0740   -0.6370 C   0  0  0  0  0  0  0  0  0  0  0  0
    2.5430   -0.3140   -0.3800 C   0  0  0  0  0  0  0  0  0  0  0  0
   -1.8340   -1.2740    0.2140 C   0  0  0  0  0  0  0  0  0  0  0  0
   -2.3560   -2.5290    0.1520 C   0  0  0  0  0  0  0  0  0  0  0  0
   -3.6870   -2.7660    0.4380 C   0  0  0  0  0  0  0  0  0  0  0  0
   -4.4680   -1.6930    0.7880 C   0  0  0  0  0  0  0  0  0  0  0  0
   -5.8130   -1.9030    1.0810 C   0  0  0  0  0  0  0  0  0  0  0  0
   -6.5640   -0.8350    1.4230 N   0  0  0  0  0  0  0  0  0  0  0  0
   -6.0290    0.3900    1.4780 C   0  0  0  0  0  0  0  0  0  0  0  0
   -4.7200    0.5900    1.1910 N   0  0  0  0  0  0  0  0  0  0  0  0
   -3.9150   -0.4290    0.8440 C   0  0  0  0  0  0  0  0  0  0  0  0
   -2.6250   -0.2490    0.5590 N   0  0  0  0  0  0  0  0  0  0  0  0
  1  2  2  0
  2  3  1  0
  2 15  1  0
  3  4  1  0
  4  5  1  0
  4 14  2  0
  5  6  2  0
  6  7  1  0
  6  8  1  0
  8  9  2  0
  8 13  1  0
  9 10  1  0
  9 11  1  0
 11 12  1  0
 12 13  2  0
 13 14  1  0
 15 16  2  0
 15 24  1  0
 16 17  1  0
 17 18  2  0
 18 19  1  0
 18 23  1  0
 19 20  2  0
 20 21  1  0
 21 22  2  0
 22 23  1  0
 23 24  2  0
M  END
