
     RDKit          3D

 18 19  0  0  0  0  0  0  0  0999 V2000
   -3.4310   -1.4580    0.9950 N   0  0  0  0  0  0  0  0  0  0  0  0
   -2.8980   -0.1140    1.0660 C   0  0  1  0  0  0  0  0  0  0  0  0
   -1.4760   -0.2010    1.4320 C   0  0  0  0  0  0  0  0  0  0  0  0
   -0.7110    0.3080    0.4760 C   0  0  0  0  0  0  0  0  0  0  0  0
    0.7080    0.3430    0.5890 N   0  0  0  0  0  0  0  0  0  0  0  0
    1.5520   -0.3820   -0.2800 C   0  0  0  0  0  0  0  0  0  0  0  0
    1.0410   -1.0960   -1.1890 O   0  0  0  0  0  0  0  0  0  0  0  0
    3.0400   -0.3290   -0.1530 C   0  0  0  0  0  0  0  0  0  0  0  0
    3.5940    0.4510    0.8400 C   0  0  0  0  0  0  0  0  0  0  0  0
    5.3980    0.1420    0.5290 S   0  0  0  0  0  0  0  0  0  0  0  0
    4.9880   -1.0080   -0.9190 C   0  0  0  0  0  0  0  0  0  0  0  0
    5.9560   -1.5320   -1.5320 O   0  0  0  0  0  0  0  0  0  0  0  0
    3.8710   -0.9500   -0.8920 O   0  0  0  0  0  0  0  0  0  0  0  0
   -1.5720    0.7790   -0.5970 C   0  0  0  0  0  0  0  0  0  0  0  0
   -1.1790    1.4200   -1.8310 C   0  0  0  0  0  0  0  0  0  0  0  0
   -2.0460    1.7710   -2.6550 O   0  0  0  0  0  0  0  0  0  0  0  0
    0.1460    1.6510   -2.1110 O   0  0  0  0  0  0  0  0  0  0  0  0
   -2.8530    0.5380   -0.2620 C   0  0  0  0  0  0  0  0  0  0  0  0
  2  1  1  6
  2  3  1  0
  2 18  1  0
  3  4  2  0
  4  5  1  0
  4 14  1  0
  5  6  1  0
  6  7  2  0
  6  8  1  0
  8  9  2  0
  8 13  1  0
  9 10  1  0
 10 11  1  0
 11 12  2  0
 11 13  1  0
 14 15  1  0
 14 18  2  0
 15 16  2  0
 15 17  1  0
M  CHG  1   1   1
M  END
