
     RDKit          3D

 18 19  0  0  0  0  0  0  0  0999 V2000
   -1.9510   -1.8290    2.0650 N   0  0  0  0  0  0  0  0  0  0  0  0
   -1.8250   -0.9520    0.9500 C   0  0  0  0  0  0  0  0  0  0  0  0
   -2.9170   -0.2140    0.5490 C   0  0  0  0  0  0  0  0  0  0  0  0
   -2.8330    0.6510   -0.5320 C   0  0  0  0  0  0  0  0  0  0  0  0
   -1.6510    0.7700   -1.2060 C   0  0  0  0  0  0  0  0  0  0  0  0
   -0.5510    0.0130   -0.7870 C   0  0  0  0  0  0  0  0  0  0  0  0
   -0.6070   -0.8500    0.2810 C   0  0  0  0  0  0  0  0  0  0  0  0
    0.4260   -1.6230    0.7490 O   0  0  0  0  0  0  0  0  0  0  0  0
    1.7270   -1.7030    0.2750 C   0  0  0  0  0  0  0  0  0  0  0  0
    2.4290   -0.4050    0.3700 C   0  0  0  0  0  0  0  0  0  0  0  0
    1.8810    0.6000    0.8640 O   0  0  0  0  0  0  0  0  0  0  0  0
    3.7660   -0.2740   -0.1090 N   0  0  0  0  0  0  0  0  0  0  0  0
    4.4350    0.9740   -0.0150 C   0  0  0  0  0  0  0  0  0  0  0  0
    3.8240    2.0890    0.5350 O   0  0  0  0  0  0  0  0  0  0  0  0
    5.9580    1.1020   -0.5650 S   0  0  0  0  0  0  0  0  0  0  0  0
   -1.8380    1.6890   -2.2320 O   0  0  0  0  0  0  0  0  0  0  0  0
   -3.1100    2.3080   -2.0940 C   0  0  0  0  0  0  0  0  0  0  0  0
   -3.7720    1.4930   -1.1270 O   0  0  0  0  0  0  0  0  0  0  0  0
  1  2  1  0
  2  3  2  0
  2  7  1  0
  3  4  1  0
  4  5  2  0
  4 18  1  0
  5  6  1  0
  5 16  1  0
  6  7  2  0
  7  8  1  0
  8  9  1  0
  9 10  1  0
 10 11  2  0
 10 12  1  0
 12 13  1  0
 13 14  1  0
 13 15  2  0
 16 17  1  0
 17 18  1  0
M  CHG  1   1   1
M  END
