
     RDKit          3D

 18 18  0  0  0  0  0  0  0  0999 V2000
    0.3720    2.4520   -0.9570 C   0  0  0  0  0  0  0  0  0  0  0  0
    0.0570    1.5160    0.0510 O   0  0  0  0  0  0  0  0  0  0  0  0
    0.4560    0.1630    0.0180 C   0  0  0  0  0  0  0  0  0  0  0  0
   -0.5480   -0.6950    0.0420 C   0  0  0  0  0  0  0  0  0  0  0  0
   -1.9180   -0.1910    0.1030 C   0  0  0  0  0  0  0  0  0  0  0  0
   -2.9310   -1.0560    0.1250 C   0  0  0  0  0  0  0  0  0  0  0  0
   -4.2710   -0.5800    0.1830 N   0  0  0  0  0  0  0  0  0  0  0  0
   -2.1640    1.1900    0.1430 N   0  0  0  0  0  0  0  0  0  0  0  0
   -2.1740    1.9340    1.2920 O   0  0  0  0  0  0  0  0  0  0  0  0
   -0.3970   -2.4920   -0.0100 S   0  0  0  0  0  0  0  0  0  0  0  0
    1.3110   -2.9350   -0.2670 C   0  0  0  0  0  0  0  0  0  0  0  0
    1.9650   -2.1650   -1.3560 C   0  0  0  0  0  0  0  0  0  0  0  0
    2.4450   -0.8970   -0.9770 O   0  0  0  0  0  0  0  0  0  0  0  0
    1.9030    0.0170   -0.0380 C   0  0  0  0  0  0  0  0  0  0  0  0
    2.7060    0.6810    0.7350 C   0  0  0  0  0  0  0  0  0  0  0  0
    4.0920    0.4220    0.5360 O   0  0  0  0  0  0  0  0  0  0  0  0
    2.3530    1.6110    1.7410 C   0  0  0  0  0  0  0  0  0  0  0  0
    1.2280    1.9670    2.1030 O   0  0  0  0  0  0  0  0  0  0  0  0
  1  2  1  0
  2  3  1  0
  3  4  2  0
  3 14  1  0
  4  5  1  0
  4 10  1  0
  5  6  2  3
  5  8  1  0
  6  7  1  0
  8  9  1  0
 10 11  1  0
 11 12  1  0
 12 13  1  0
 13 14  1  0
 14 15  2  3
 15 16  1  0
 15 17  1  0
 17 18  2  0
M  CHG  1   7   1
M  END
