
     RDKit          3D

 18 18  0  0  0  0  0  0  0  0999 V2000
    6.9680   -0.4090    0.2700 C   0  0  0  0  0  0  0  0  0  0  0  0
    5.5950   -0.7930    0.4370 O   0  0  0  0  0  0  0  0  0  0  0  0
    4.5620    0.0360    0.0290 C   0  0  0  0  0  0  0  0  0  0  0  0
    4.8650    1.1250   -0.4870 O   0  0  0  0  0  0  0  0  0  0  0  0
    3.1590   -0.3150    0.1790 C   0  0  0  0  0  0  0  0  0  0  0  0
    2.2310    0.5200   -0.2300 C   0  0  0  0  0  0  0  0  0  0  0  0
    0.8350    0.1490   -0.0700 C   0  0  0  0  0  0  0  0  0  0  0  0
    0.4900   -0.9450    0.4480 O   0  0  0  0  0  0  0  0  0  0  0  0
   -0.1670    1.0220   -0.4980 N   0  0  0  0  0  0  0  0  0  0  0  0
   -1.5600    0.7860   -0.4030 C   0  0  0  0  0  0  0  0  0  0  0  0
   -2.2360    1.6580    0.3090 C   0  0  0  0  0  0  0  0  0  0  0  0
   -3.6930    1.7640    0.6470 C   0  0  0  0  0  0  0  0  0  0  0  0
   -4.1750    0.5720    1.1710 O   0  0  0  0  0  0  0  0  0  0  0  0
   -4.5750   -0.5640    0.0150 S   0  0  0  0  0  0  0  0  0  0  0  0
   -5.1060   -1.8620    0.7120 N   0  0  0  0  0  0  0  0  0  0  0  0
   -3.2300   -1.0130   -1.0250 C   0  0  0  0  0  0  0  0  0  0  0  0
   -3.3970   -2.1340   -1.8510 O   0  0  0  0  0  0  0  0  0  0  0  0
   -2.0620   -0.3840   -1.1010 C   0  0  0  0  0  0  0  0  0  0  0  0
  1  2  1  0
  2  3  1  0
  3  4  2  0
  3  5  1  0
  5  6  2  3
  6  7  1  0
  7  8  2  0
  7  9  1  0
  9 10  1  0
 10 11  2  0
 10 18  1  0
 11 12  1  0
 12 13  1  0
 14 13  1  1
 14 15  2  0
 14 16  1  0
 16 17  1  0
 16 18  2  0
M  CHG  1  15   1
M  END
