
     RDKit          3D

  7  7  0  0  0  0  0  0  0  0999 V2000
    1.8970    1.7010   -0.0900 O   0  0  0  0  0  0  0  0  0  0  0  0
    1.0220    0.8140   -0.2390 C   0  0  0  0  0  0  0  0  0  0  0  0
    1.3610   -0.6270    0.0160 C   0  0  0  0  0  0  0  0  0  0  0  0
    0.2830   -1.3510    0.4640 O   0  0  0  0  0  0  0  0  0  0  0  0
   -0.7900   -0.6350    0.7870 N   0  0  0  0  0  0  0  0  0  0  0  0
   -1.2840    0.1040   -0.3800 C   0  0  0  0  0  0  0  0  0  0  0  0
   -0.2900    1.1010   -0.6410 N   0  0  0  0  0  0  0  0  0  0  0  0
  1  2  2  0
  2  3  1  0
  2  7  1  0
  3  4  1  0
  4  5  1  0
  5  6  1  0
  6  7  1  0
M  CHG  1   5   1
M  END
