
     RDKit          3D

  7  7  0  0  0  0  0  0  0  0999 V2000
    1.9540   -0.4190   -0.1580 N   0  0  0  0  0  0  0  0  0  0  0  0
    0.7450    0.3170    0.0840 C   0  0  1  0  0  0  0  0  0  0  0  0
    0.9790    1.6810    0.2260 O   0  0  0  0  0  0  0  0  0  0  0  0
   -0.1460    0.1180   -1.0220 N   0  0  0  0  0  0  0  0  0  0  0  0
   -1.4410   -0.0340   -0.3640 C   0  0  0  0  0  0  0  0  0  0  0  0
   -1.0470   -0.7370    0.9110 C   0  0  0  0  0  0  0  0  0  0  0  0
    0.1540   -0.1460    1.2250 O   0  0  0  0  0  0  0  0  0  0  0  0
  2  1  1  6
  2  3  1  0
  2  4  1  0
  2  7  1  0
  4  5  1  0
  5  6  1  0
  6  7  1  0
M  CHG  1   4   1
M  END
