
     RDKit          3D

 23 23  0  0  0  0  0  0  0  0999 V2000
    1.8020    1.7300   -1.9210 C   0  0  0  0  0  0  0  0  0  0  0  0
    0.7540    1.0970   -1.0880 C   0  0  0  0  0  0  0  0  0  0  0  0
   -0.5560    1.2240   -1.4810 C   0  0  0  0  0  0  0  0  0  0  0  0
   -1.5140    0.6540   -0.7340 N   0  0  0  0  0  0  0  0  0  0  0  0
   -1.2210   -0.0220    0.3660 C   0  0  0  0  0  0  0  0  0  0  0  0
   -2.1590   -0.5660    1.0740 N   0  0  0  0  0  0  0  0  0  0  0  0
   -3.5440   -0.4030    0.6150 C   0  0  0  0  0  0  0  0  0  0  0  0
   -3.9550   -1.1020   -0.3970 C   0  0  0  0  0  0  0  0  0  0  0  0
   -5.2560   -1.1480   -1.0650 C   0  0  0  0  0  0  0  0  0  0  0  0
   -5.8360   -2.4070   -1.0040 F   0  0  0  0  0  0  0  0  0  0  0  0
   -4.3710    0.5620    1.3640 C   0  0  2  0  0  0  0  0  0  0  0  0
   -3.9240    1.8510    1.1100 F   0  0  0  0  0  0  0  0  0  0  0  0
   -4.1460    0.3610    2.7530 F   0  0  0  0  0  0  0  0  0  0  0  0
   -5.7050    0.4670    1.2080 F   0  0  0  0  0  0  0  0  0  0  0  0
    0.1140   -0.1550    0.7710 C   0  0  0  0  0  0  0  0  0  0  0  0
    1.1410    0.4040    0.0520 C   0  0  0  0  0  0  0  0  0  0  0  0
    2.4920    0.3060    0.4060 N   0  0  0  0  0  0  0  0  0  0  0  0
    3.1280   -0.3120    1.4640 C   0  0  0  0  0  0  0  0  0  0  0  0
    2.4070   -1.1430    2.6490 S   0  0  0  0  0  0  0  0  0  0  0  0
    4.8980   -0.2180    1.5830 S   0  0  2  0  0  0  0  0  0  0  0  0
    5.5590   -1.6080    0.7070 C   0  0  0  0  0  0  0  0  0  0  0  0
    5.3130   -0.1750    3.0060 O   0  0  0  0  0  0  0  0  0  0  0  0
    5.3390    1.0230    0.8420 O   0  0  0  0  0  0  0  0  0  0  0  0
  1  2  1  0
  2  3  2  0
  2 16  1  0
  3  4  1  0
  4  5  1  0
  5  6  2  3
  5 15  1  0
  6  7  1  0
  7  8  2  3
  7 11  1  0
  8  9  1  0
  9 10  1  0
 11 12  1  6
 11 13  1  0
 11 14  1  0
 15 16  2  0
 16 17  1  0
 17 18  1  0
 18 19  2  0
 18 20  1  0
 20 21  1  6
 20 22  2  0
 20 23  2  0
M  END
