
     RDKit          3D

 27 30  0  0  0  0  0  0  0  0999 V2000
    5.8500    0.6230    1.3410 C   0  0  0  0  0  0  0  0  0  0  0  0
    5.7900   -0.0020    0.0290 N   0  0  0  0  0  0  0  0  0  0  0  0
    6.8930   -0.3520   -0.7160 C   0  0  0  0  0  0  0  0  0  0  0  0
    6.3990   -0.9120   -1.8700 C   0  0  0  0  0  0  0  0  0  0  0  0
    5.0760   -0.8800   -1.7820 N   0  0  0  0  0  0  0  0  0  0  0  0
    4.6690   -0.3130   -0.6000 C   0  0  0  0  0  0  0  0  0  0  0  0
    3.2560   -0.1720   -0.2850 C   0  0  0  0  0  0  0  0  0  0  0  0
    2.7790    0.4460    0.8410 C   0  0  0  0  0  0  0  0  0  0  0  0
    1.4050    0.5240    1.0380 C   0  0  0  0  0  0  0  0  0  0  0  0
    0.5120   -0.0060    0.1240 C   0  0  0  0  0  0  0  0  0  0  0  0
   -0.9000    0.1350    0.3960 N   0  0  0  0  0  0  0  0  0  0  0  0
   -1.4290    1.4360    0.2100 C   0  0  0  0  0  0  0  0  0  0  0  0
   -2.2890    1.6890   -0.9880 C   0  0  0  0  0  0  0  0  0  0  0  0
   -2.7110    3.1450   -0.9000 C   0  0  0  0  0  0  0  0  0  0  0  0
   -2.4000    4.0100    0.0500 C   0  0  0  0  0  0  0  0  0  0  0  0
   -3.0380    5.3120   -0.2880 C   0  0  0  0  0  0  0  0  0  0  0  0
   -3.7350    5.0170   -1.5530 C   0  0  0  0  0  0  0  0  0  0  0  0
   -3.5310    3.7890   -1.8700 N   0  0  0  0  0  0  0  0  0  0  0  0
   -1.6180   -1.0040    0.8370 C   0  0  2  0  0  0  0  0  0  0  0  0
   -0.9080   -2.3030    0.4130 C   0  0  0  0  0  0  0  0  0  0  0  0
   -1.5380   -3.3900    1.2790 C   0  0  0  0  0  0  0  0  0  0  0  0
   -2.5380   -4.1750    0.4780 C   0  0  0  0  0  0  0  0  0  0  0  0
   -3.6990   -3.3760   -0.0250 C   0  0  0  0  0  0  0  0  0  0  0  0
   -3.2980   -2.0580   -0.5370 N   0  0  0  0  0  0  0  0  0  0  0  0
   -3.0570   -1.1440    0.5700 C   0  0  0  0  0  0  0  0  0  0  0  0
    0.9830   -0.6020   -0.9600 N   0  0  0  0  0  0  0  0  0  0  0  0
    2.2940   -0.6900   -1.1740 C   0  0  0  0  0  0  0  0  0  0  0  0
  1  2  1  0
  2  3  1  0
  2  6  1  0
  3  4  2  0
  4  5  1  0
  5  6  2  0
  6  7  1  0
  7  8  2  0
  7 27  1  0
  8  9  1  0
  9 10  2  0
 10 11  1  0
 10 26  1  0
 11 12  1  0
 19 11  1  6
 12 13  1  0
 13 14  1  0
 14 15  2  0
 14 18  1  0
 15 16  1  0
 16 17  1  0
 17 18  2  0
 19 20  1  0
 19 25  1  0
 20 21  1  0
 21 22  1  0
 22 23  1  0
 23 24  1  0
 24 25  1  0
 26 27  2  0
M  CHG  1  26   1
M  END
