
     RDKit          3D

 22 23  0  0  0  0  0  0  0  0999 V2000
    1.5990    1.7190   -0.1950 O   0  0  0  0  0  0  0  0  0  0  0  0
    1.7250    0.5300    0.1930 C   0  0  0  0  0  0  0  0  0  0  0  0
    0.5540   -0.1810    0.5580 N   0  0  0  0  0  0  0  0  0  0  0  0
   -0.7350    0.4100    0.4950 C   0  0  0  0  0  0  0  0  0  0  0  0
   -1.4450    0.3060   -0.6750 C   0  0  0  0  0  0  0  0  0  0  0  0
   -0.7110   -0.5710   -2.0430 S   0  0  0  0  0  0  0  0  0  0  0  0
   -1.2100   -2.3250   -1.8900 C   0  0  1  0  0  0  0  0  0  0  0  0
   -0.6250   -2.8340   -0.7600 F   0  0  0  0  0  0  0  0  0  0  0  0
   -2.5900   -2.4080   -1.6980 F   0  0  0  0  0  0  0  0  0  0  0  0
   -0.8840   -2.9920   -3.0340 F   0  0  0  0  0  0  0  0  0  0  0  0
   -2.6780    0.8500   -0.7960 N   0  0  0  0  0  0  0  0  0  0  0  0
   -3.2100    1.5030    0.2540 C   0  0  0  0  0  0  0  0  0  0  0  0
   -4.5650    2.1240    0.1870 C   0  0  0  0  0  0  0  0  0  0  0  0
   -4.4510    3.4230   -0.2560 F   0  0  0  0  0  0  0  0  0  0  0  0
   -2.5120    1.6120    1.4190 N   0  0  0  0  0  0  0  0  0  0  0  0
   -1.2940    1.0880    1.5720 C   0  0  0  0  0  0  0  0  0  0  0  0
   -0.6030    1.1530    2.6160 O   0  0  0  0  0  0  0  0  0  0  0  0
    3.0440   -0.0810    0.2600 C   0  0  0  0  0  0  0  0  0  0  0  0
    3.4640   -1.2910    0.6260 C   0  0  0  0  0  0  0  0  0  0  0  0
    4.7830   -1.5820    0.5850 C   0  0  0  0  0  0  0  0  0  0  0  0
    5.6350   -0.6340    0.1740 C   0  0  0  0  0  0  0  0  0  0  0  0
    4.5750    0.7690   -0.1890 S   0  0  0  0  0  0  0  0  0  0  0  0
  1  2  2  0
  2  3  1  0
  2 18  1  0
  3  4  1  0
  4  5  2  0
  4 16  1  0
  5  6  1  0
  5 11  1  0
  6  7  1  0
  7  8  1  1
  7  9  1  0
  7 10  1  0
 11 12  2  0
 12 13  1  0
 12 15  1  0
 13 14  1  0
 15 16  1  0
 16 17  2  0
 18 19  2  0
 18 22  1  0
 19 20  1  0
 20 21  2  0
 21 22  1  0
M  END
