
     RDKit          3D

 16 17  0  0  0  0  0  0  0  0999 V2000
    4.1280    0.2260    0.6650 O   0  0  0  0  0  0  0  0  0  0  0  0
    3.2460   -0.6100    0.3910 C   0  0  0  0  0  0  0  0  0  0  0  0
    3.5770   -1.9310    0.2130 O   0  0  0  0  0  0  0  0  0  0  0  0
    1.8700   -0.1700    0.2630 C   0  0  0  0  0  0  0  0  0  0  0  0
    1.5110    1.1290    0.4340 C   0  0  0  0  0  0  0  0  0  0  0  0
    0.1870    1.5820    0.3160 C   0  0  0  0  0  0  0  0  0  0  0  0
   -0.1120    2.8600    0.4920 O   0  0  0  0  0  0  0  0  0  0  0  0
   -0.7570    0.5940    0.0070 C   0  0  0  0  0  0  0  0  0  0  0  0
   -2.0880    0.8800   -0.1410 C   0  0  0  0  0  0  0  0  0  0  0  0
   -2.6620    2.5110    0.0550 Cl  0  0  0  0  0  0  0  0  0  0  0  0
   -3.0040   -0.1340   -0.4500 C   0  0  0  0  0  0  0  0  0  0  0  0
   -2.6010   -1.4400   -0.6160 C   0  0  0  0  0  0  0  0  0  0  0  0
   -3.7410   -2.7080   -1.0020 Cl  0  0  0  0  0  0  0  0  0  0  0  0
   -1.2720   -1.7130   -0.4660 C   0  0  0  0  0  0  0  0  0  0  0  0
   -0.3510   -0.7320   -0.1610 C   0  0  0  0  0  0  0  0  0  0  0  0
    0.9420   -1.0630   -0.0270 N   0  0  0  0  0  0  0  0  0  0  0  0
  1  2  2  0
  2  3  1  0
  2  4  1  0
  4  5  2  0
  4 16  1  0
  5  6  1  0
  6  7  1  0
  6  8  2  0
  8  9  1  0
  8 15  1  0
  9 10  1  0
  9 11  2  0
 11 12  1  0
 12 13  1  0
 12 14  2  0
 14 15  1  0
 15 16  2  0
M  END
