
     RDKit          3D

 27 30  0  0  0  0  0  0  0  0999 V2000
    6.3090   -2.2090   -0.3060 C   0  0  0  0  0  0  0  0  0  0  0  0
    5.0200   -2.5020   -1.0470 C   0  0  0  0  0  0  0  0  0  0  0  0
    4.2250   -1.2350   -1.2430 C   0  0  0  0  0  0  0  0  0  0  0  0
    4.1020   -0.5360   -2.3770 N   0  0  0  0  0  0  0  0  0  0  0  0
    3.3380    0.5190   -2.2100 N   0  0  0  0  0  0  0  0  0  0  0  0
    2.9820    1.5150   -3.2390 C   0  0  0  0  0  0  0  0  0  0  0  0
    2.9450    0.5160   -0.9280 C   0  0  0  0  0  0  0  0  0  0  0  0
    3.4850   -0.5750   -0.2870 C   0  0  0  0  0  0  0  0  0  0  0  0
    3.2860   -0.9280    1.1270 C   0  0  0  0  0  0  0  0  0  0  0  0
    2.3230   -2.0570    1.3440 C   0  0  0  0  0  0  0  0  0  0  0  0
    0.9970   -1.8090    0.8460 N   0  0  0  0  0  0  0  0  0  0  0  0
    0.1740   -0.7500    1.3140 C   0  0  0  0  0  0  0  0  0  0  0  0
    0.6190    0.0980    2.2870 N   0  0  0  0  0  0  0  0  0  0  0  0
   -0.1540    1.1010    2.7370 C   0  0  0  0  0  0  0  0  0  0  0  0
    0.3310    2.0370    3.8080 C   0  0  0  0  0  0  0  0  0  0  0  0
   -1.4090    1.2510    2.1880 C   0  0  0  0  0  0  0  0  0  0  0  0
   -2.2910    2.3450    2.6550 C   0  0  0  0  0  0  0  0  0  0  0  0
   -1.8720    0.4250    1.2240 N   0  0  0  0  0  0  0  0  0  0  0  0
   -3.0240    0.3420    0.5310 C   0  0  0  0  0  0  0  0  0  0  0  0
   -2.9450   -0.7380   -0.3610 C   0  0  0  0  0  0  0  0  0  0  0  0
   -1.7380   -1.2680   -0.1670 N   0  0  0  0  0  0  0  0  0  0  0  0
   -1.0830   -0.5790    0.7820 C   0  0  0  0  0  0  0  0  0  0  0  0
   -4.1490   -0.9520   -1.2000 C   0  0  0  0  0  0  0  0  0  0  0  0
   -4.4070    0.3900   -1.8760 C   0  0  1  0  0  0  0  0  0  0  0  0
   -5.4350    0.2650   -2.9720 C   0  0  0  0  0  0  0  0  0  0  0  0
   -4.6740    1.5040   -0.9250 C   0  0  0  0  0  0  0  0  0  0  0  0
   -4.2810    1.0890    0.5010 C   0  0  0  0  0  0  0  0  0  0  0  0
  1  2  1  0
  2  3  1  0
  3  4  2  0
  3  8  1  0
  4  5  1  0
  5  6  1  0
  5  7  1  0
  7  8  2  0
  8  9  1  0
  9 10  1  0
 10 11  1  0
 11 12  1  0
 12 13  2  0
 12 22  1  0
 13 14  1  0
 14 15  1  0
 14 16  2  0
 16 17  1  0
 16 18  1  0
 18 19  1  0
 18 22  1  0
 19 20  2  0
 19 27  1  0
 20 21  1  0
 20 23  1  0
 21 22  2  0
 23 24  1  0
 24 25  1  6
 24 26  1  0
 26 27  1  0
M  CHG  1  21   1
M  END
