
     RDKit          3D

 23 24  0  0  0  0  0  0  0  0999 V2000
   -2.6810    1.6680   -2.4640 C   0  0  0  0  0  0  0  0  0  0  0  0
   -3.2860   -0.0010   -2.2270 S   0  0  0  0  0  0  0  0  0  0  0  0
   -3.4970   -0.4210   -0.4890 C   0  0  0  0  0  0  0  0  0  0  0  0
   -2.1750   -0.4410    0.2600 C   0  0  0  0  0  0  0  0  0  0  0  0
   -1.0130   -0.1740   -0.2540 N   0  0  0  0  0  0  0  0  0  0  0  0
    0.0480   -0.1530    0.2370 C   0  0  0  0  0  0  0  0  0  0  0  0
    1.4450    0.0780    0.0380 N   0  0  0  0  0  0  0  0  0  0  0  0
    2.1800    0.9130    0.9280 C   0  0  0  0  0  0  0  0  0  0  0  0
    3.4600    1.1630    0.7970 C   0  0  0  0  0  0  0  0  0  0  0  0
    4.3010    0.6300   -0.2640 C   0  0  2  0  0  0  0  0  0  0  0  0
    5.4040   -0.0300    0.2770 F   0  0  0  0  0  0  0  0  0  0  0  0
    4.7440    1.7240   -1.0190 F   0  0  0  0  0  0  0  0  0  0  0  0
    3.5590   -0.2360   -1.1940 C   0  0  0  0  0  0  0  0  0  0  0  0
    4.1860   -0.8190   -2.2380 C   0  0  0  0  0  0  0  0  0  0  0  0
    3.5600   -1.6170   -3.1150 F   0  0  0  0  0  0  0  0  0  0  0  0
    5.4960   -0.5720   -2.3820 F   0  0  0  0  0  0  0  0  0  0  0  0
    2.1540   -0.4970   -1.0300 C   0  0  0  0  0  0  0  0  0  0  0  0
    1.5760   -1.2540   -1.8700 O   0  0  0  0  0  0  0  0  0  0  0  0
   -0.4510   -0.6290    2.0060 S   0  0  0  0  0  0  0  0  0  0  0  0
   -2.1920   -0.7560    1.6030 C   0  0  0  0  0  0  0  0  0  0  0  0
   -3.2580   -1.0960    2.4790 C   0  0  0  0  0  0  0  0  0  0  0  0
   -3.0310   -1.3840    3.8450 N   0  0  0  0  0  0  0  0  0  0  0  0
   -4.4240   -1.1420    2.0300 O   0  0  0  0  0  0  0  0  0  0  0  0
  1  2  1  0
  2  3  1  0
  3  4  1  0
  4  5  1  0
  4 20  2  0
  5  6  2  0
  6  7  1  0
  6 19  1  0
  7  8  1  0
  7 17  1  0
  8  9  2  0
  9 10  1  0
 10 11  1  1
 10 12  1  0
 10 13  1  0
 13 14  2  3
 13 17  1  0
 14 15  1  0
 14 16  1  0
 17 18  2  0
 19 20  1  0
 20 21  1  0
 21 22  1  0
 21 23  2  0
M  END
