
     RDKit          3D

 22 23  0  0  0  0  0  0  0  0999 V2000
   -0.2060   -2.8660   -0.8890 N   0  0  0  0  0  0  0  0  0  0  0  0
   -0.1650   -1.5740   -0.6330 C   0  0  0  0  0  0  0  0  0  0  0  0
    0.6770   -1.0140   -1.5310 N   0  0  0  0  0  0  0  0  0  0  0  0
    1.3680    0.1750   -1.4350 C   0  0  0  0  0  0  0  0  0  0  0  0
    1.1690    0.7280   -0.3450 O   0  0  0  0  0  0  0  0  0  0  0  0
    2.1990    0.6320   -2.5190 C   0  0  0  0  0  0  0  0  0  0  0  0
    2.8230    1.7420   -2.3390 C   0  0  0  0  0  0  0  0  0  0  0  0
    3.6380    2.1890   -3.4000 N   0  0  0  0  0  0  0  0  0  0  0  0
    5.3760    1.7090   -3.4140 P   0  0  0  0  0  0  0  0  0  0  0  0
    5.5180    0.1620   -4.2090 O   0  0  0  0  0  0  0  0  0  0  0  0
    5.8810    1.5720   -1.7590 O   0  0  0  0  0  0  0  0  0  0  0  0
   -1.1160   -1.1840    0.2990 N   0  0  0  0  0  0  0  0  0  0  0  0
   -1.1520   -1.5340    1.6490 C   0  0  0  0  0  0  0  0  0  0  0  0
   -0.2570   -2.1100    2.2960 O   0  0  0  0  0  0  0  0  0  0  0  0
   -2.4450   -1.0880    2.1450 C   0  0  1  0  0  0  0  0  0  0  0  0
   -2.3360   -0.0730    3.2450 C   0  0  2  0  0  0  0  0  0  0  0  0
   -2.1230   -0.6550    4.4910 O   0  0  0  0  0  0  0  0  0  0  0  0
   -3.6550    0.6440    3.1730 C   0  0  0  0  0  0  0  0  0  0  0  0
   -4.0980    0.4540    1.7400 C   0  0  0  0  0  0  0  0  0  0  0  0
   -3.0040   -0.2120    1.0920 N   0  0  0  0  0  0  0  0  0  0  0  0
   -2.2670   -0.3630   -0.0540 C   0  0  0  0  0  0  0  0  0  0  0  0
   -2.4810    0.0910   -1.2270 O   0  0  0  0  0  0  0  0  0  0  0  0
  1  2  2  0
  2  3  1  0
  2 12  1  0
  3  4  1  0
  4  5  2  0
  4  6  1  0
  6  7  2  3
  7  8  1  0
  8  9  1  0
  9 10  1  0
  9 11  1  0
 12 13  1  0
 12 21  1  0
 13 14  2  0
 15 13  1  6
 15 16  1  0
 15 20  1  0
 16 17  1  1
 16 18  1  0
 18 19  1  0
 19 20  1  0
 20 21  1  0
 21 22  2  0
M  END
