
     RDKit          3D

 23 23  0  0  0  0  0  0  0  0999 V2000
   -2.7550   -2.1950    2.3090 N   0  0  0  0  0  0  0  0  0  0  0  0
   -2.5610   -1.3670    3.4430 C   0  0  0  0  0  0  0  0  0  0  0  0
   -2.8440   -1.8550    4.5740 O   0  0  0  0  0  0  0  0  0  0  0  0
   -2.0510    0.0180    3.3700 C   0  0  0  0  0  0  0  0  0  0  0  0
   -1.7710    0.4290    2.0750 O   0  0  0  0  0  0  0  0  0  0  0  0
   -0.8590   -0.1430    1.2010 C   0  0  0  0  0  0  0  0  0  0  0  0
   -0.2150   -1.1400    1.6160 O   0  0  0  0  0  0  0  0  0  0  0  0
   -0.7060    0.4450   -0.1330 C   0  0  2  0  0  0  0  0  0  0  0  0
    0.2330   -0.2120   -0.9360 O   0  0  0  0  0  0  0  0  0  0  0  0
    1.5750   -0.3780   -0.6570 C   0  0  0  0  0  0  0  0  0  0  0  0
    1.9960    0.1120    0.4320 O   0  0  0  0  0  0  0  0  0  0  0  0
    2.4540   -1.0680   -1.5500 N   0  0  0  0  0  0  0  0  0  0  0  0
    3.8560   -1.2210   -1.2220 C   0  0  0  0  0  0  0  0  0  0  0  0
    4.5230   -1.9120   -2.2070 O   0  0  0  0  0  0  0  0  0  0  0  0
    5.7850   -2.0810   -1.9700 O   0  0  0  0  0  0  0  0  0  0  0  0
    6.0930   -2.0820   -0.7060 O   0  0  0  0  0  0  0  0  0  0  0  0
   -0.3700    1.9290    0.0550 C   0  0  0  0  0  0  0  0  0  0  0  0
   -1.0200    2.7960   -0.9930 C   0  0  2  0  0  0  0  0  0  0  0  0
   -2.3130    3.0880   -0.5710 O   0  0  0  0  0  0  0  0  0  0  0  0
   -1.0660    2.0560   -2.3310 C   0  0  0  0  0  0  0  0  0  0  0  0
   -2.0440    0.9940   -2.1460 N   0  0  0  0  0  0  0  0  0  0  0  0
   -2.0210    0.3550   -0.8610 C   0  0  0  0  0  0  0  0  0  0  0  0
   -3.0230   -0.2240   -0.4040 O   0  0  0  0  0  0  0  0  0  0  0  0
  1  2  1  0
  2  3  2  0
  2  4  1  0
  4  5  1  0
  5  6  1  0
  6  7  2  0
  6  8  1  0
  8  9  1  6
  8 17  1  0
  8 22  1  0
  9 10  1  0
 10 11  2  0
 10 12  1  0
 12 13  1  0
 13 14  1  0
 14 15  1  0
 15 16  1  0
 17 18  1  0
 18 19  1  1
 18 20  1  0
 20 21  1  0
 21 22  1  0
 22 23  2  0
M  END
