
     RDKit          3D

 24 25  0  0  0  0  0  0  0  0999 V2000
    0.2680    0.1140    2.9970 O   0  0  0  0  0  0  0  0  0  0  0  0
    0.0370    0.4850    1.7850 C   0  0  0  0  0  0  0  0  0  0  0  0
   -1.0920   -0.0930    1.1830 N   0  0  0  0  0  0  0  0  0  0  0  0
   -1.6730    0.2660   -0.0940 C   0  0  2  0  0  0  0  0  0  0  0  0
   -3.1010    0.7860    0.1730 C   0  0  0  0  0  0  0  0  0  0  0  0
   -2.9460    1.8860    1.0080 O   0  0  0  0  0  0  0  0  0  0  0  0
   -4.0960    2.4330    1.3180 O   0  0  0  0  0  0  0  0  0  0  0  0
   -4.7840    2.8280    0.2830 O   0  0  0  0  0  0  0  0  0  0  0  0
   -5.9010    2.1600    0.1180 O   0  0  0  0  0  0  0  0  0  0  0  0
   -1.8620   -0.9560   -0.9770 C   0  0  0  0  0  0  0  0  0  0  0  0
   -0.7540   -1.9470   -0.9080 C   0  0  0  0  0  0  0  0  0  0  0  0
   -0.1110   -1.9800    0.3010 O   0  0  0  0  0  0  0  0  0  0  0  0
    1.0680   -2.6710    0.3370 C   0  0  0  0  0  0  0  0  0  0  0  0
    2.0880   -2.2590   -0.6260 C   0  0  0  0  0  0  0  0  0  0  0  0
    2.1300   -2.8890   -1.7390 O   0  0  0  0  0  0  0  0  0  0  0  0
    3.0050   -1.2680   -0.4580 O   0  0  0  0  0  0  0  0  0  0  0  0
    3.3100   -0.5280    0.6750 C   0  0  0  0  0  0  0  0  0  0  0  0
    3.2210    0.9860    0.4250 C   0  0  1  0  0  0  0  0  0  0  0  0
    3.9320    1.2610   -0.7420 O   0  0  0  0  0  0  0  0  0  0  0  0
    3.4920    0.5640   -1.7400 O   0  0  0  0  0  0  0  0  0  0  0  0
    2.1350    0.8210   -2.0410 C   0  0  0  0  0  0  0  0  0  0  0  0
    1.4170    0.4400   -0.8780 O   0  0  0  0  0  0  0  0  0  0  0  0
    1.7590    1.3420    0.0800 C   0  0  1  0  0  0  0  0  0  0  0  0
    0.9600    1.4150    1.2630 N   0  0  0  0  0  0  0  0  0  0  0  0
  1  2  2  0
  2  3  1  0
  2 24  1  0
  3  4  1  0
  4  5  1  1
  4 10  1  0
  5  6  1  0
  6  7  1  0
  7  8  1  0
  8  9  1  0
 10 11  1  0
 11 12  1  0
 12 13  1  0
 13 14  1  0
 14 15  2  0
 14 16  1  0
 16 17  1  0
 18 17  1  6
 18 19  1  0
 18 23  1  0
 19 20  1  0
 20 21  1  0
 21 22  1  0
 22 23  1  0
 23 24  1  1
M  END
