
     RDKit          3D

 23 23  0  0  0  0  0  0  0  0999 V2000
   -1.5080    1.5330    1.2940 N   0  0  0  0  0  0  0  0  0  0  0  0
   -1.0190    0.5330    0.3320 C   0  0  2  0  0  0  0  0  0  0  0  0
   -2.1740   -0.2380   -0.2580 C   0  0  2  0  0  0  0  0  0  0  0  0
   -3.1850    0.5770   -0.9860 C   0  0  0  0  0  0  0  0  0  0  0  0
   -4.1610   -0.3470   -1.4410 O   0  0  0  0  0  0  0  0  0  0  0  0
   -5.1090    0.2550   -2.1000 O   0  0  0  0  0  0  0  0  0  0  0  0
   -2.8430   -1.0480    0.7800 C   0  0  0  0  0  0  0  0  0  0  0  0
   -2.4490   -1.0120    1.9630 O   0  0  0  0  0  0  0  0  0  0  0  0
   -3.9170   -1.8620    0.4690 O   0  0  0  0  0  0  0  0  0  0  0  0
   -0.2220   -0.4400    1.1020 C   0  0  0  0  0  0  0  0  0  0  0  0
   -0.0010   -0.2040    2.3070 O   0  0  0  0  0  0  0  0  0  0  0  0
    0.2550   -1.5660    0.5000 O   0  0  0  0  0  0  0  0  0  0  0  0
    1.1930   -1.7150   -0.5160 C   0  0  0  0  0  0  0  0  0  0  0  0
    2.5480   -1.9360    0.1150 C   0  0  0  0  0  0  0  0  0  0  0  0
    3.6580   -1.5530   -0.7000 N   0  0  0  0  0  0  0  0  0  0  0  0
    4.5220   -0.4580   -0.3740 C   0  0  0  0  0  0  0  0  0  0  0  0
    5.7890   -0.5760   -0.5510 O   0  0  0  0  0  0  0  0  0  0  0  0
    3.9380    0.6960    0.1250 O   0  0  0  0  0  0  0  0  0  0  0  0
    3.0230    1.5130   -0.5780 C   0  0  0  0  0  0  0  0  0  0  0  0
    1.9110    2.0490    0.3080 C   0  0  0  0  0  0  0  0  0  0  0  0
    0.7220    2.2100   -0.3930 O   0  0  0  0  0  0  0  0  0  0  0  0
   -0.2530    1.2810   -0.6710 C   0  0  0  0  0  0  0  0  0  0  0  0
   -0.4980    1.0650   -1.9100 O   0  0  0  0  0  0  0  0  0  0  0  0
  2  1  1  1
  2  3  1  0
  2 10  1  0
  2 22  1  0
  3  4  1  1
  3  7  1  0
  4  5  1  0
  5  6  1  0
  7  8  2  0
  7  9  1  0
 10 11  2  0
 10 12  1  0
 12 13  1  0
 13 14  1  0
 14 15  1  0
 15 16  1  0
 16 17  2  0
 16 18  1  0
 18 19  1  0
 19 20  1  0
 20 21  1  0
 21 22  1  0
 22 23  2  0
M  END
