
     RDKit          3D

 24 27  0  0  0  0  0  0  0  0999 V2000
   -4.2420   -0.6550    0.2970 O   0  0  0  0  0  0  0  0  0  0  0  0
   -3.5720   -1.3380   -0.4920 C   0  0  0  0  0  0  0  0  0  0  0  0
   -4.0540   -1.8570   -1.6800 O   0  0  0  0  0  0  0  0  0  0  0  0
   -3.1960   -2.7400   -2.1960 O   0  0  0  0  0  0  0  0  0  0  0  0
   -2.2580   -3.0660   -1.2420 C   0  0  0  0  0  0  0  0  0  0  0  0
   -2.1700   -1.7790   -0.4230 C   0  0  2  0  0  0  0  0  0  0  0  0
   -1.7930   -2.0340    0.8790 O   0  0  0  0  0  0  0  0  0  0  0  0
   -1.5760   -0.7390    1.3360 C   0  0  0  0  0  0  0  0  0  0  0  0
   -0.9300   -0.0570    0.1360 C   0  0  1  0  0  0  0  0  0  0  0  0
   -1.4630    1.2420   -0.0930 N   0  0  0  0  0  0  0  0  0  0  0  0
   -0.7080    2.4190   -0.0250 C   0  0  0  0  0  0  0  0  0  0  0  0
    0.5740    2.3190    0.2580 C   0  0  0  0  0  0  0  0  0  0  0  0
    1.1110    3.7150    0.2610 C   0  0  0  0  0  0  0  0  0  0  0  0
    0.2200    4.3960   -0.5290 O   0  0  0  0  0  0  0  0  0  0  0  0
   -1.0440    3.8850   -0.2220 C   0  0  0  0  0  0  0  0  0  0  0  0
    1.1540    1.0470    0.4880 N   0  0  0  0  0  0  0  0  0  0  0  0
    0.5070   -0.0320    0.4400 C   0  0  0  0  0  0  0  0  0  0  0  0
    1.2100   -1.2330    0.6900 O   0  0  0  0  0  0  0  0  0  0  0  0
    2.5960   -1.2150    0.4240 C   0  0  0  0  0  0  0  0  0  0  0  0
    3.2110   -2.4140    0.6890 O   0  0  0  0  0  0  0  0  0  0  0  0
    4.4940   -2.2720    0.4030 O   0  0  0  0  0  0  0  0  0  0  0  0
    4.6740   -1.2620   -0.4230 O   0  0  0  0  0  0  0  0  0  0  0  0
    5.8710   -1.3610   -0.9800 O   0  0  0  0  0  0  0  0  0  0  0  0
   -1.2370   -0.9230   -0.9050 O   0  0  0  0  0  0  0  0  0  0  0  0
  1  2  2  0
  2  3  1  0
  2  6  1  0
  3  4  1  0
  4  5  1  0
  6  5  1  6
  6  7  1  0
  6 24  1  0
  7  8  1  0
  9  8  1  1
  9 10  1  0
  9 17  1  0
  9 24  1  0
 10 11  1  0
 11 12  2  0
 11 15  1  0
 12 13  1  0
 12 16  1  0
 13 14  1  0
 14 15  1  0
 16 17  2  0
 17 18  1  0
 18 19  1  0
 19 20  1  0
 20 21  1  0
 21 22  1  0
 22 23  1  0
M  END
