
     RDKit          3D

 23 24  0  0  0  0  0  0  0  0999 V2000
    0.1250   -2.6730    0.9190 O   0  0  0  0  0  0  0  0  0  0  0  0
    0.1640   -1.5000    0.3440 C   0  0  0  0  0  0  0  0  0  0  0  0
    1.3650   -0.9600   -0.2430 C   0  0  0  0  0  0  0  0  0  0  0  0
    2.5700   -1.8200   -0.0090 N   0  0  0  0  0  0  0  0  0  0  0  0
    3.6370   -0.9060   -0.3220 C   0  0  0  0  0  0  0  0  0  0  0  0
    4.8800   -1.0720    0.5350 C   0  0  0  0  0  0  0  0  0  0  0  0
    5.6710   -0.0140   -0.0130 O   0  0  0  0  0  0  0  0  0  0  0  0
    5.7730    0.8630    1.0250 O   0  0  0  0  0  0  0  0  0  0  0  0
    5.5550    2.0850    0.3750 O   0  0  0  0  0  0  0  0  0  0  0  0
    6.7640    2.3340   -0.2080 O   0  0  0  0  0  0  0  0  0  0  0  0
   -1.0200   -0.7670    0.3780 N   0  0  0  0  0  0  0  0  0  0  0  0
   -1.0490    0.5210   -0.3260 C   0  0  0  0  0  0  0  0  0  0  0  0
   -1.7290    1.4980    0.5650 C   0  0  0  0  0  0  0  0  0  0  0  0
   -3.2090    1.5660    0.3590 C   0  0  0  0  0  0  0  0  0  0  0  0
   -3.9380    0.2420    0.3190 C   0  0  2  0  0  0  0  0  0  0  0  0
   -3.8730   -0.3960   -0.8880 O   0  0  0  0  0  0  0  0  0  0  0  0
   -4.9840   -0.0140   -1.6300 C   0  0  0  0  0  0  0  0  0  0  0  0
   -5.9030    0.5250   -0.7310 O   0  0  0  0  0  0  0  0  0  0  0  0
   -5.3410    0.5400    0.5230 C   0  0  0  0  0  0  0  0  0  0  0  0
   -5.9750    0.7780    1.5500 O   0  0  0  0  0  0  0  0  0  0  0  0
   -3.4120   -0.7000    1.2850 O   0  0  0  0  0  0  0  0  0  0  0  0
   -2.1260   -1.2430    1.1670 C   0  0  0  0  0  0  0  0  0  0  0  0
   -1.8620   -2.2990    1.8320 O   0  0  0  0  0  0  0  0  0  0  0  0
  1  2  2  0
  2  3  1  0
  2 11  1  0
  3  4  1  0
  4  5  1  0
  5  6  1  0
  6  7  1  0
  7  8  1  0
  8  9  1  0
  9 10  1  0
 11 12  1  0
 11 22  1  0
 12 13  1  0
 13 14  1  0
 15 14  1  6
 15 16  1  0
 15 19  1  0
 15 21  1  0
 16 17  1  0
 17 18  1  0
 18 19  1  0
 19 20  2  0
 21 22  1  0
 22 23  2  0
M  END
