
     RDKit          3D

 21 21  0  0  0  0  0  0  0  0999 V2000
   -3.7420   -4.5260   -0.2570 C   0  0  0  0  0  0  0  0  0  0  0  0
   -2.9360   -3.4040   -0.6070 O   0  0  0  0  0  0  0  0  0  0  0  0
   -2.2200   -2.7010    0.3860 C   0  0  0  0  0  0  0  0  0  0  0  0
   -2.3530   -3.1430    1.5480 O   0  0  0  0  0  0  0  0  0  0  0  0
   -1.3910   -1.5430    0.0660 C   0  0  0  0  0  0  0  0  0  0  0  0
   -1.2850   -1.1180   -1.1590 C   0  0  0  0  0  0  0  0  0  0  0  0
   -0.4610    0.0390   -1.4600 C   0  0  0  0  0  0  0  0  0  0  0  0
   -0.3180    0.4930   -2.6220 O   0  0  0  0  0  0  0  0  0  0  0  0
    0.2290    0.7040   -0.3860 N   0  0  0  0  0  0  0  0  0  0  0  0
    0.6320    2.1000   -0.5280 C   0  0  0  0  0  0  0  0  0  0  0  0
   -0.5060    2.9890    0.0020 C   0  0  0  0  0  0  0  0  0  0  0  0
   -0.1790    4.4380   -0.1090 C   0  0  0  0  0  0  0  0  0  0  0  0
   -1.2940    5.2180    0.4190 N   0  0  0  0  0  0  0  0  0  0  0  0
    0.4740   -0.0640    0.8010 C   0  0  2  0  0  0  0  0  0  0  0  0
    1.7390   -0.8350    0.7310 C   0  0  0  0  0  0  0  0  0  0  0  0
    2.0010   -1.6900    1.6410 O   0  0  0  0  0  0  0  0  0  0  0  0
    2.7100   -0.6900   -0.2940 N   0  0  0  0  0  0  0  0  0  0  0  0
    4.2300   -1.6590   -0.3170 P   0  0  0  0  0  0  0  0  0  0  0  0
    5.2460   -1.1680   -1.6350 O   0  0  0  0  0  0  0  0  0  0  0  0
    5.0700   -1.4400    1.1800 O   0  0  0  0  0  0  0  0  0  0  0  0
   -0.6770   -0.9120    1.2180 C   0  0  0  0  0  0  0  0  0  0  0  0
  1  2  1  0
  2  3  1  0
  3  4  2  0
  3  5  1  0
  5  6  2  0
  5 21  1  0
  6  7  1  0
  7  8  2  0
  7  9  1  0
  9 10  1  0
  9 14  1  0
 10 11  1  0
 11 12  1  0
 12 13  1  0
 14 15  1  6
 14 21  1  0
 15 16  2  0
 15 17  1  0
 17 18  1  0
 18 19  1  0
 18 20  1  0
M  END
