
     RDKit          3D

 23 24  0  0  0  0  0  0  0  0999 V2000
    1.8020   -0.1590    1.1850 O   0  0  0  0  0  0  0  0  0  0  0  0
    1.7250   -1.0250    0.2760 C   0  0  0  0  0  0  0  0  0  0  0  0
    2.8820   -1.6840   -0.0340 O   0  0  0  0  0  0  0  0  0  0  0  0
    4.1240   -1.5010    0.5430 C   0  0  0  0  0  0  0  0  0  0  0  0
    4.7100   -0.1410    0.4310 C   0  0  0  0  0  0  0  0  0  0  0  0
    4.9070    0.2940   -0.9360 N   0  0  0  0  0  0  0  0  0  0  0  0
    5.4300    1.5080   -1.0360 O   0  0  0  0  0  0  0  0  0  0  0  0
    5.2520    2.0020   -2.2340 O   0  0  0  0  0  0  0  0  0  0  0  0
    0.4120   -1.2380   -0.3550 C   0  0  2  0  0  0  0  0  0  0  0  0
   -0.5910   -1.5860    0.7440 C   0  0  0  0  0  0  0  0  0  0  0  0
   -0.9710   -0.3870    1.3670 O   0  0  0  0  0  0  0  0  0  0  0  0
   -1.9020   -0.6330    2.3500 C   0  0  0  0  0  0  0  0  0  0  0  0
   -3.2090    0.1090    2.0840 C   0  0  0  0  0  0  0  0  0  0  0  0
   -2.9100    1.3880    1.6430 O   0  0  0  0  0  0  0  0  0  0  0  0
   -3.9100    1.8930    0.7980 C   0  0  0  0  0  0  0  0  0  0  0  0
   -3.4090    1.9020   -0.6330 C   0  0  0  0  0  0  0  0  0  0  0  0
   -3.9820    0.9220   -1.4100 O   0  0  0  0  0  0  0  0  0  0  0  0
   -3.2190   -0.1020   -1.6380 O   0  0  0  0  0  0  0  0  0  0  0  0
   -2.1370    0.1670   -2.4550 C   0  0  0  0  0  0  0  0  0  0  0  0
   -0.9520   -0.6240   -2.0060 C   0  0  0  0  0  0  0  0  0  0  0  0
   -0.4730   -1.7890   -2.3240 N   0  0  0  0  0  0  0  0  0  0  0  0
    0.4150   -2.2140   -1.3520 O   0  0  0  0  0  0  0  0  0  0  0  0
   -0.0810   -0.1050   -1.0280 O   0  0  0  0  0  0  0  0  0  0  0  0
  1  2  2  0
  2  3  1  0
  9  2  1  1
  3  4  1  0
  4  5  1  0
  5  6  1  0
  6  7  1  0
  7  8  1  0
  9 10  1  0
  9 22  1  0
  9 23  1  0
 10 11  1  0
 11 12  1  0
 12 13  1  0
 13 14  1  0
 14 15  1  0
 15 16  1  0
 16 17  1  0
 17 18  1  0
 18 19  1  0
 19 20  1  0
 20 21  2  0
 20 23  1  0
 21 22  1  0
M  END
