
     RDKit          3D

 31 31  0  0  0  0  0  0  0  0999 V2000
    0.0280   -2.7440   -0.6630 C   0  0  0  0  0  0  0  0  0  0  0  0
    0.0530   -1.3350   -0.0650 C   0  0  1  0  0  0  0  0  0  0  0  0
    1.3420   -1.2400    0.6620 C   0  0  0  0  0  0  0  0  0  0  0  0
    1.3190   -1.0260    1.8950 O   0  0  0  0  0  0  0  0  0  0  0  0
    2.5660   -1.3910   -0.0420 N   0  0  0  0  0  0  0  0  0  0  0  0
    3.8070   -1.2980    0.6580 N   0  0  0  0  0  0  0  0  0  0  0  0
    4.6770   -0.2700    0.2470 C   0  0  0  0  0  0  0  0  0  0  0  0
    4.2870    0.4980   -0.7200 O   0  0  0  0  0  0  0  0  0  0  0  0
    5.9710   -0.0210    0.8350 C   0  0  0  0  0  0  0  0  0  0  0  0
    6.4120   -0.7690    1.8180 C   0  0  0  0  0  0  0  0  0  0  0  0
    5.7750   -1.7780    2.3600 F   0  0  0  0  0  0  0  0  0  0  0  0
    6.8770    1.0430    0.4120 C   0  0  0  0  0  0  0  0  0  0  0  0
    8.1110    1.1490    1.0970 O   0  0  0  0  0  0  0  0  0  0  0  0
    6.6480    1.8940   -0.5320 C   0  0  0  0  0  0  0  0  0  0  0  0
    7.6650    2.9100   -0.8390 N   0  0  0  0  0  0  0  0  0  0  0  0
    0.0210   -0.2980   -1.1390 C   0  0  0  0  0  0  0  0  0  0  0  0
   -1.1430    0.6270   -1.1180 C   0  0  0  0  0  0  0  0  0  0  0  0
   -2.4530   -0.0110   -0.7300 C   0  0  1  0  0  0  0  0  0  0  0  0
   -3.2190    0.9410    0.0500 N   0  0  0  0  0  0  0  0  0  0  0  0
   -4.5170    0.7110    0.5610 C   0  0  0  0  0  0  0  0  0  0  0  0
   -5.0730   -0.3790    0.3330 O   0  0  0  0  0  0  0  0  0  0  0  0
   -5.1800    1.7090    1.3250 N   0  0  0  0  0  0  0  0  0  0  0  0
   -6.5020    1.4640    1.8420 C   0  0  0  0  0  0  0  0  0  0  0  0
   -7.4350    1.2000    0.7170 C   0  0  0  0  0  0  0  0  0  0  0  0
   -8.8100    0.9260    0.9130 N   0  0  0  0  0  0  0  0  0  0  0  0
   -7.0160    1.2150   -0.4710 O   0  0  0  0  0  0  0  0  0  0  0  0
   -3.2520   -0.4250   -1.9080 C   0  0  0  0  0  0  0  0  0  0  0  0
   -2.6780   -1.3630   -2.8080 N   0  0  0  0  0  0  0  0  0  0  0  0
   -4.4050   -0.0180   -2.1850 O   0  0  0  0  0  0  0  0  0  0  0  0
   -2.2550   -1.2310    0.1400 C   0  0  0  0  0  0  0  0  0  0  0  0
   -1.0080   -1.1430    0.8710 N   0  0  0  0  0  0  0  0  0  0  0  0
  2  1  1  6
  2  3  1  0
  2 16  1  0
  2 31  1  0
  3  4  2  0
  3  5  1  0
  5  6  1  0
  6  7  1  0
  7  8  2  0
  7  9  1  0
  9 10  2  3
  9 12  1  0
 10 11  1  0
 12 13  1  0
 12 14  2  3
 14 15  1  0
 16 17  1  0
 17 18  1  0
 18 19  1  1
 18 27  1  0
 18 30  1  0
 19 20  1  0
 20 21  2  0
 20 22  1  0
 22 23  1  0
 23 24  1  0
 24 25  1  0
 24 26  2  0
 27 28  1  0
 27 29  2  0
 30 31  1  0
M  CHG  2  15   1  31   1
M  END
