
     RDKit          3D

 31 32  0  0  0  0  0  0  0  0999 V2000
    0.6580    0.1420    1.5100 N   0  0  0  0  0  0  0  0  0  0  0  0
    1.2440    0.7480    0.3440 C   0  0  2  0  0  0  0  0  0  0  0  0
    0.8920    2.2150    0.2140 C   0  0  0  0  0  0  0  0  0  0  0  0
    1.8440    2.9530   -0.4710 C   0  0  0  0  0  0  0  0  0  0  0  0
    1.7900    4.3140   -0.6800 C   0  0  0  0  0  0  0  0  0  0  0  0
    3.0510    5.1600   -1.5650 Cl  0  0  0  0  0  0  0  0  0  0  0  0
    0.7040    4.9640   -0.1620 C   0  0  0  0  0  0  0  0  0  0  0  0
   -0.2530    4.2470    0.5210 C   0  0  0  0  0  0  0  0  0  0  0  0
   -0.1960    2.8540    0.7310 C   0  0  0  0  0  0  0  0  0  0  0  0
   -1.2390    2.2690    1.4360 O   0  0  0  0  0  0  0  0  0  0  0  0
   -2.2820    1.4410    1.0120 C   0  0  0  0  0  0  0  0  0  0  0  0
   -2.5800    0.4000    2.0550 C   0  0  0  0  0  0  0  0  0  0  0  0
   -2.7320   -0.8090    1.3500 O   0  0  0  0  0  0  0  0  0  0  0  0
   -3.8780   -0.6910    0.6080 C   0  0  0  0  0  0  0  0  0  0  0  0
   -4.0010   -1.6420   -0.5160 C   0  0  1  0  0  0  0  0  0  0  0  0
   -4.7840   -0.9900   -1.5120 O   0  0  0  0  0  0  0  0  0  0  0  0
   -2.7500   -2.0630   -1.2120 C   0  0  0  0  0  0  0  0  0  0  0  0
   -1.5980   -2.3500   -0.3360 C   0  0  0  0  0  0  0  0  0  0  0  0
   -1.9140   -3.3380    0.7250 C   0  0  0  0  0  0  0  0  0  0  0  0
   -1.0470   -3.6890    1.5560 O   0  0  0  0  0  0  0  0  0  0  0  0
   -3.1560   -3.9230    0.8620 O   0  0  0  0  0  0  0  0  0  0  0  0
   -0.3790   -1.8540   -0.3850 C   0  0  0  0  0  0  0  0  0  0  0  0
    0.4910   -2.3640    0.6300 O   0  0  0  0  0  0  0  0  0  0  0  0
    0.1660   -0.8870   -1.3170 C   0  0  1  0  0  0  0  0  0  0  0  0
   -0.8420   -0.1580   -1.9230 O   0  0  0  0  0  0  0  0  0  0  0  0
    1.3120   -0.0130   -0.9020 C   0  0  2  0  0  0  0  0  0  0  0  0
    2.6390   -0.5720   -1.3330 C   0  0  0  0  0  0  0  0  0  0  0  0
    3.3840   -1.5100   -0.5160 C   0  0  0  0  0  0  0  0  0  0  0  0
    3.8910   -1.1080    0.7040 O   0  0  0  0  0  0  0  0  0  0  0  0
    4.9330   -0.1860    0.6000 C   0  0  0  0  0  0  0  0  0  0  0  0
    6.0120   -0.7270   -0.1140 O   0  0  0  0  0  0  0  0  0  0  0  0
  2  1  1  1
  2  3  1  0
  2 26  1  0
  3  4  2  0
  3  9  1  0
  4  5  1  0
  5  6  1  0
  5  7  2  0
  7  8  1  0
  8  9  2  0
  9 10  1  0
 10 11  1  0
 11 12  1  0
 12 13  1  0
 13 14  1  0
 14 15  1  0
 15 16  1  6
 15 17  1  0
 17 18  1  0
 18 19  1  0
 18 22  2  0
 19 20  2  0
 19 21  1  0
 22 23  1  0
 22 24  1  0
 24 25  1  1
 24 26  1  0
 26 27  1  1
 27 28  1  0
 28 29  1  0
 29 30  1  0
 30 31  1  0
M  END
