
     RDKit          3D

 31 32  0  0  0  0  0  0  0  0999 V2000
    2.2400    3.2620   -2.2760 C   0  0  0  0  0  0  0  0  0  0  0  0
    2.3060    2.2580   -1.2080 N   0  0  0  0  0  0  0  0  0  0  0  0
    3.0030    1.0820   -1.4940 C   0  0  0  0  0  0  0  0  0  0  0  0
    3.5530    0.9520   -2.6570 O   0  0  0  0  0  0  0  0  0  0  0  0
    3.1440   -0.0010   -0.5400 C   0  0  0  0  0  0  0  0  0  0  0  0
    3.9290   -1.0870   -0.9790 C   0  0  0  0  0  0  0  0  0  0  0  0
    4.4800   -1.0800   -2.2260 O   0  0  0  0  0  0  0  0  0  0  0  0
    4.1420   -2.1630   -0.1430 C   0  0  0  0  0  0  0  0  0  0  0  0
    4.9070   -3.2230   -0.5710 O   0  0  0  0  0  0  0  0  0  0  0  0
    3.6100   -2.2190    1.1240 C   0  0  0  0  0  0  0  0  0  0  0  0
    3.8070   -3.3240    2.0260 C   0  0  0  0  0  0  0  0  0  0  0  0
    4.5020   -4.3880    1.8100 C   0  0  0  0  0  0  0  0  0  0  0  0
    4.5950   -5.3940    2.8180 O   0  0  0  0  0  0  0  0  0  0  0  0
    2.8300   -1.1290    1.5420 C   0  0  0  0  0  0  0  0  0  0  0  0
    2.2730   -1.1810    2.9160 C   0  0  0  0  0  0  0  0  0  0  0  0
    2.6110   -0.0480    0.7080 C   0  0  0  0  0  0  0  0  0  0  0  0
    1.7950    0.9610    1.2580 O   0  0  0  0  0  0  0  0  0  0  0  0
    0.3730    0.7340    1.0910 C   0  0  0  0  0  0  0  0  0  0  0  0
   -0.4030    1.8080    1.7570 C   0  0  1  0  0  0  0  0  0  0  0  0
   -0.1640    3.0750    1.2760 O   0  0  0  0  0  0  0  0  0  0  0  0
   -1.8940    1.4900    1.6840 C   0  0  0  0  0  0  0  0  0  0  0  0
   -2.2660    1.5800    0.3410 O   0  0  0  0  0  0  0  0  0  0  0  0
   -3.6090    1.3040    0.2030 C   0  0  0  0  0  0  0  0  0  0  0  0
   -4.0920    1.3830   -1.2040 C   0  0  2  0  0  0  0  0  0  0  0  0
   -5.5840    1.0660   -1.2690 C   0  0  2  0  0  0  0  0  0  0  0  0
   -6.3190    1.9670   -0.5250 O   0  0  0  0  0  0  0  0  0  0  0  0
   -5.8070   -0.3640   -0.9110 C   0  0  0  0  0  0  0  0  0  0  0  0
   -4.6870   -1.1500   -0.8800 O   0  0  0  0  0  0  0  0  0  0  0  0
   -3.8010   -0.9790   -1.9130 C   0  0  0  0  0  0  0  0  0  0  0  0
   -3.4200    0.4600   -2.1660 C   0  0  2  0  0  0  0  0  0  0  0  0
   -1.6840    0.7030   -2.3120 Cl  0  0  0  0  0  0  0  0  0  0  0  0
  1  2  1  0
  2  3  1  0
  3  4  2  0
  3  5  1  0
  5  6  2  0
  5 16  1  0
  6  7  1  0
  6  8  1  0
  8  9  1  0
  8 10  2  0
 10 11  1  0
 10 14  1  0
 11 12  2  3
 12 13  1  0
 14 15  1  0
 14 16  2  0
 16 17  1  0
 17 18  1  0
 18 19  1  0
 19 20  1  6
 19 21  1  0
 21 22  1  0
 22 23  1  0
 24 23  1  1
 24 25  1  0
 24 30  1  0
 25 26  1  1
 25 27  1  0
 27 28  1  0
 28 29  1  0
 29 30  1  0
 30 31  1  1
M  END
