
     RDKit          3D

 30 32  0  0  0  0  0  0  0  0999 V2000
   -2.9970    0.5990   -2.1680 C   0  0  0  0  0  0  0  0  0  0  0  0
   -3.4000   -0.0410   -0.8370 C   0  0  2  0  0  0  0  0  0  0  0  0
   -2.1410   -0.3820   -0.1300 C   0  0  0  0  0  0  0  0  0  0  0  0
   -1.7990   -1.5440    0.1880 O   0  0  0  0  0  0  0  0  0  0  0  0
   -1.2890    0.6580    0.2010 O   0  0  0  0  0  0  0  0  0  0  0  0
   -0.1030    0.4130    0.8580 C   0  0  0  0  0  0  0  0  0  0  0  0
   -0.0260    0.4050    2.2270 C   0  0  0  0  0  0  0  0  0  0  0  0
    1.1680    0.1580    2.8950 C   0  0  0  0  0  0  0  0  0  0  0  0
    2.2920   -0.0820    2.1360 C   0  0  0  0  0  0  0  0  0  0  0  0
    3.5180   -0.3360    2.7040 C   0  0  0  0  0  0  0  0  0  0  0  0
    3.5650   -0.3390    3.9690 O   0  0  0  0  0  0  0  0  0  0  0  0
    4.6190   -0.5710    1.9730 N   0  0  0  0  0  0  0  0  0  0  0  0
    4.5660   -0.5680    0.6230 C   0  0  0  0  0  0  0  0  0  0  0  0
    5.7740   -0.8260   -0.1310 C   0  0  0  0  0  0  0  0  0  0  0  0
    5.7280   -0.8240   -1.3770 O   0  0  0  0  0  0  0  0  0  0  0  0
    6.9680   -1.0730    0.5090 O   0  0  0  0  0  0  0  0  0  0  0  0
    8.1940   -1.3320   -0.1060 C   0  0  0  0  0  0  0  0  0  0  0  0
    8.6050   -0.1730   -0.9570 C   0  0  0  0  0  0  0  0  0  0  0  0
    8.7400    1.0050   -0.1930 O   0  0  0  0  0  0  0  0  0  0  0  0
    3.3650   -0.3200   -0.0250 C   0  0  0  0  0  0  0  0  0  0  0  0
    2.2560   -0.0830    0.7430 C   0  0  0  0  0  0  0  0  0  0  0  0
    1.0300    0.1710    0.1160 C   0  0  0  0  0  0  0  0  0  0  0  0
   -4.1450   -1.1620   -1.1010 O   0  0  0  0  0  0  0  0  0  0  0  0
   -5.1950   -1.2140   -0.2020 C   0  0  0  0  0  0  0  0  0  0  0  0
   -5.5980    0.2520   -0.0920 C   0  0  1  0  0  0  0  0  0  0  0  0
   -6.3630    0.6470   -1.3100 C   0  0  0  0  0  0  0  0  0  0  0  0
   -6.4020    0.5100    1.1590 C   0  0  0  0  0  0  0  0  0  0  0  0
   -7.5580   -0.2610    1.1450 O   0  0  0  0  0  0  0  0  0  0  0  0
   -4.2340    0.8980   -0.0120 C   0  0  2  0  0  0  0  0  0  0  0  0
   -4.2270    2.1960   -0.4610 O   0  0  0  0  0  0  0  0  0  0  0  0
  2  1  1  6
  2  3  1  0
  2 23  1  0
  2 29  1  0
  3  4  2  0
  3  5  1  0
  5  6  1  0
  6  7  2  0
  6 22  1  0
  7  8  1  0
  8  9  2  0
  9 10  1  0
  9 21  1  0
 10 11  2  0
 10 12  1  0
 12 13  1  0
 13 14  1  0
 13 20  2  0
 14 15  2  0
 14 16  1  0
 16 17  1  0
 17 18  1  0
 18 19  1  0
 20 21  1  0
 21 22  2  0
 23 24  1  0
 24 25  1  0
 25 26  1  6
 25 27  1  0
 25 29  1  0
 27 28  1  0
 29 30  1  6
M  END
