
     RDKit          3D

 30 32  0  0  0  0  0  0  0  0999 V2000
   -4.1190   -0.9420   -3.5880 C   0  0  0  0  0  0  0  0  0  0  0  0
   -4.0210   -1.1830   -2.0750 C   0  0  1  0  0  0  0  0  0  0  0  0
   -2.7880   -1.9510   -1.7890 C   0  0  0  0  0  0  0  0  0  0  0  0
   -1.6720   -1.1280   -1.3830 N   0  0  0  0  0  0  0  0  0  0  0  0
   -0.4970   -1.6870   -0.8980 C   0  0  0  0  0  0  0  0  0  0  0  0
   -0.3820   -2.9260   -0.7910 O   0  0  0  0  0  0  0  0  0  0  0  0
    0.6380   -0.8320   -0.5000 C   0  0  0  0  0  0  0  0  0  0  0  0
    1.7380   -1.5760   -0.0430 O   0  0  0  0  0  0  0  0  0  0  0  0
    2.9120   -0.9540    0.3700 C   0  0  0  0  0  0  0  0  0  0  0  0
    3.0280    0.4220    0.3390 C   0  0  0  0  0  0  0  0  0  0  0  0
    4.1720    1.0350    0.7400 C   0  0  0  0  0  0  0  0  0  0  0  0
    4.2550    2.4180    0.6970 O   0  0  0  0  0  0  0  0  0  0  0  0
    5.2750    0.3330    1.1980 C   0  0  0  0  0  0  0  0  0  0  0  0
    6.5010    1.0800    1.6030 C   0  0  2  0  0  0  0  0  0  0  0  0
    7.0980    1.6130    0.4360 O   0  0  0  0  0  0  0  0  0  0  0  0
    7.5100    0.1910    2.2620 C   0  0  0  0  0  0  0  0  0  0  0  0
    8.6270    0.9680    2.5770 O   0  0  0  0  0  0  0  0  0  0  0  0
    5.1690   -1.0270    1.2320 C   0  0  0  0  0  0  0  0  0  0  0  0
    3.9980   -1.6620    0.8220 C   0  0  0  0  0  0  0  0  0  0  0  0
    3.9280   -3.0570    0.8710 O   0  0  0  0  0  0  0  0  0  0  0  0
   -1.8190    0.2870   -1.5000 C   0  0  0  0  0  0  0  0  0  0  0  0
   -3.1710    0.6630   -0.9160 C   0  0  2  0  0  0  0  0  0  0  0  0
   -3.3180    2.1530   -1.1730 C   0  0  0  0  0  0  0  0  0  0  0  0
   -3.1240    0.4600    0.5850 C   0  0  2  0  0  0  0  0  0  0  0  0
   -2.0360    1.2170    1.0390 O   0  0  0  0  0  0  0  0  0  0  0  0
   -2.7710   -0.8620    0.8980 O   0  0  0  0  0  0  0  0  0  0  0  0
   -4.3870    0.7590    1.3060 C   0  0  2  0  0  0  0  0  0  0  0  0
   -5.6510    0.0260    1.0180 C   0  0  0  0  0  0  0  0  0  0  0  0
   -5.5230    1.5100    0.7910 C   0  0  0  0  0  0  0  0  0  0  0  0
   -4.2040   -0.0120   -1.4480 O   0  0  0  0  0  0  0  0  0  0  0  0
  2  1  1  6
  2  3  1  0
  2 30  1  0
  3  4  1  0
  4  5  1  0
  4 21  1  0
  5  6  2  0
  5  7  1  0
  7  8  1  0
  8  9  1  0
  9 10  2  0
  9 19  1  0
 10 11  1  0
 11 12  1  0
 11 13  2  0
 13 14  1  0
 13 18  1  0
 14 15  1  6
 14 16  1  0
 16 17  1  0
 18 19  2  0
 19 20  1  0
 21 22  1  0
 22 23  1  1
 22 24  1  0
 22 30  1  0
 24 25  1  1
 24 26  1  0
 24 27  1  0
 27 28  1  6
 27 29  1  0
 28 29  1  0
M  END
