
     RDKit          3D

 31 31  0  0  0  0  0  0  0  0999 V2000
   -0.8720    1.3270    0.0640 C   0  0  0  0  0  0  0  0  0  0  0  0
   -1.2410   -0.1200    0.3010 C   0  0  2  0  0  0  0  0  0  0  0  0
   -2.5910   -0.3860   -0.2290 C   0  0  0  0  0  0  0  0  0  0  0  0
   -2.7970   -1.2150   -1.1710 O   0  0  0  0  0  0  0  0  0  0  0  0
   -3.7490    0.2660    0.2770 N   0  0  0  0  0  0  0  0  0  0  0  0
   -5.0770   -0.0400   -0.2920 C   0  0  1  0  0  0  0  0  0  0  0  0
   -5.9690   -0.5640    0.7530 C   0  0  0  0  0  0  0  0  0  0  0  0
   -7.3000   -0.9470    0.4390 N   0  0  0  0  0  0  0  0  0  0  0  0
   -5.6030   -0.6880    1.9090 O   0  0  0  0  0  0  0  0  0  0  0  0
   -5.5530    1.2450   -0.9290 C   0  0  2  0  0  0  0  0  0  0  0  0
   -5.6790    2.3390   -0.0240 N   0  0  0  0  0  0  0  0  0  0  0  0
   -6.7240    1.0910   -1.7510 N   0  0  0  0  0  0  0  0  0  0  0  0
   -1.2120   -0.4810    1.7590 C   0  0  0  0  0  0  0  0  0  0  0  0
   -1.1130   -1.9860    1.7190 C   0  0  0  0  0  0  0  0  0  0  0  0
   -0.6500   -2.3750    0.3550 C   0  0  0  0  0  0  0  0  0  0  0  0
   -0.2190   -1.0680   -0.2650 C   0  0  2  0  0  0  0  0  0  0  0  0
    1.1090   -0.7750    0.2500 N   0  0  0  0  0  0  0  0  0  0  0  0
    2.1800   -0.5890   -0.6660 C   0  0  0  0  0  0  0  0  0  0  0  0
    2.0070   -0.6700   -1.9140 O   0  0  0  0  0  0  0  0  0  0  0  0
    3.5350   -0.2900   -0.1610 C   0  0  0  0  0  0  0  0  0  0  0  0
    3.7410   -0.2010    1.0730 O   0  0  0  0  0  0  0  0  0  0  0  0
    4.6140   -0.1020   -1.0630 N   0  0  0  0  0  0  0  0  0  0  0  0
    5.9210    0.1850   -0.5700 N   0  0  0  0  0  0  0  0  0  0  0  0
    7.0180    0.1720   -1.4370 C   0  0  0  0  0  0  0  0  0  0  0  0
    6.8100   -0.1040   -2.6730 O   0  0  0  0  0  0  0  0  0  0  0  0
    8.3800    0.4470   -1.0490 C   0  0  0  0  0  0  0  0  0  0  0  0
    9.3570    0.4040   -1.9790 C   0  0  0  0  0  0  0  0  0  0  0  0
    9.0370    0.1070   -3.2350 F   0  0  0  0  0  0  0  0  0  0  0  0
    8.7450    0.7700    0.3090 C   0  0  0  0  0  0  0  0  0  0  0  0
   10.1290    1.0330    0.6140 N   0  0  0  0  0  0  0  0  0  0  0  0
    7.9410    0.8360    1.2280 O   0  0  0  0  0  0  0  0  0  0  0  0
  2  1  1  1
  2  3  1  0
  2 13  1  0
  2 16  1  0
  3  4  2  0
  3  5  1  0
  6  5  1  1
  6  7  1  0
  6 10  1  0
  7  8  1  0
  7  9  2  0
 10 11  1  1
 10 12  1  0
 13 14  1  0
 14 15  1  0
 15 16  1  0
 16 17  1  1
 17 18  1  0
 18 19  2  0
 18 20  1  0
 20 21  2  0
 20 22  1  0
 22 23  1  0
 23 24  1  0
 24 25  2  0
 24 26  1  0
 26 27  2  3
 26 29  1  0
 27 28  1  0
 29 30  1  0
 29 31  2  0
M  CHG  2   8   1  12   1
M  END
