
     RDKit          3D

 17 16  0  0  0  0  0  0  0  0999 V2000
   -3.5770    0.1910   -2.7030 O   0  0  0  0  0  0  0  0  0  0  0  0
   -3.2900   -0.3430   -1.5790 C   0  0  0  0  0  0  0  0  0  0  0  0
   -3.1360   -1.7300   -1.4880 O   0  0  0  0  0  0  0  0  0  0  0  0
   -3.1320    0.5220   -0.4110 C   0  0  2  0  0  0  0  0  0  0  0  0
   -3.4390    1.8420   -0.7760 O   0  0  0  0  0  0  0  0  0  0  0  0
   -1.6810    0.5270    0.0640 C   0  0  1  0  0  0  0  0  0  0  0  0
   -1.6650    1.4210    1.1430 O   0  0  0  0  0  0  0  0  0  0  0  0
   -1.2610   -0.8500    0.4820 C   0  0  2  0  0  0  0  0  0  0  0  0
   -2.1320   -1.3560    1.4380 O   0  0  0  0  0  0  0  0  0  0  0  0
    0.1280   -0.8200    1.1360 C   0  0  2  0  0  0  0  0  0  0  0  0
    0.0460   -0.0070    2.2350 O   0  0  0  0  0  0  0  0  0  0  0  0
    1.1780   -0.4280    0.1390 C   0  0  0  0  0  0  0  0  0  0  0  0
    2.4080   -0.4510    0.7320 O   0  0  0  0  0  0  0  0  0  0  0  0
    3.5670   -0.0200   -0.3600 P   0  0  0  0  0  0  0  0  0  0  0  0
    5.1020   -0.7490   -0.1500 O   0  0  0  0  0  0  0  0  0  0  0  0
    4.0440    1.1270    0.5270 O   0  0  0  0  0  0  0  0  0  0  0  0
    3.2540    0.8160   -1.6940 O   0  0  0  0  0  0  0  0  0  0  0  0
  1  2  2  0
  2  3  1  0
  2  4  1  0
  4  5  1  6
  4  6  1  0
  6  7  1  1
  6  8  1  0
  8  9  1  1
  8 10  1  0
 10 11  1  1
 10 12  1  0
 12 13  1  0
 13 14  1  0
 14 15  1  0
 14 16  1  0
 14 17  1  0
M  END
