
     RDKit          3D

 25 27  0  0  0  0  0  0  0  0999 V2000
    2.0240    3.9320    0.2470 N   0  0  0  0  0  0  0  0  0  0  0  0
    1.5320    3.0540   -0.4950 N   0  0  0  0  0  0  0  0  0  0  0  0
    1.7460    1.7000   -0.1520 C   0  0  2  0  0  0  0  0  0  0  0  0
    1.9540    0.9660   -1.3440 O   0  0  0  0  0  0  0  0  0  0  0  0
    0.7650    1.1330    0.6210 O   0  0  0  0  0  0  0  0  0  0  0  0
    0.4620   -0.1390    0.3420 N   0  0  0  0  0  0  0  0  0  0  0  0
    1.5640   -1.0330    0.2380 C   0  0  1  0  0  0  0  0  0  0  0  0
    1.6580   -1.7680   -0.9150 O   0  0  0  0  0  0  0  0  0  0  0  0
    0.4990   -2.2440   -1.4520 C   0  0  0  0  0  0  0  0  0  0  0  0
   -0.4630   -1.0800   -1.6290 C   0  0  0  0  0  0  0  0  0  0  0  0
   -0.6070   -0.3540   -0.4280 N   0  0  0  0  0  0  0  0  0  0  0  0
   -1.9110   -0.3030    0.1210 C   0  0  2  0  0  0  0  0  0  0  0  0
   -2.4780   -1.6040    0.1770 O   0  0  0  0  0  0  0  0  0  0  0  0
   -2.7850    0.4350   -0.8430 C   0  0  0  0  0  0  0  0  0  0  0  0
   -2.5010    0.5050   -2.0220 O   0  0  0  0  0  0  0  0  0  0  0  0
   -4.0130    1.0830   -0.3230 C   0  0  0  0  0  0  0  0  0  0  0  0
   -3.6730    1.9020    0.7730 O   0  0  0  0  0  0  0  0  0  0  0  0
   -3.2560    1.0410    1.8140 C   0  0  0  0  0  0  0  0  0  0  0  0
   -2.0110    0.3290    1.4400 C   0  0  0  0  0  0  0  0  0  0  0  0
   -1.0960    0.2770    2.2230 O   0  0  0  0  0  0  0  0  0  0  0  0
    3.2180   -0.2120    0.4820 P   0  0  0  0  0  0  0  0  0  0  0  0
    4.0870   -0.8260    1.8130 O   0  0  0  0  0  0  0  0  0  0  0  0
    4.7210   -1.9270    1.5890 O   0  0  0  0  0  0  0  0  0  0  0  0
    5.0120   -2.1430    0.3340 O   0  0  0  0  0  0  0  0  0  0  0  0
    2.9520    1.4980    0.5670 O   0  0  0  0  0  0  0  0  0  0  0  0
  1  2  2  0
  2  3  1  0
  3  4  1  6
  3  5  1  0
  3 25  1  0
  5  6  1  0
  6  7  1  0
  6 11  1  0
  7  8  1  6
  7 21  1  0
  8  9  1  0
  9 10  1  0
 10 11  1  0
 11 12  1  0
 12 13  1  1
 12 14  1  0
 12 19  1  0
 14 15  2  0
 14 16  1  0
 16 17  1  0
 17 18  1  0
 18 19  1  0
 19 20  2  0
 21 22  1  0
 21 25  1  0
 22 23  1  0
 23 24  1  0
M  END
