
     RDKit          3D

 25 28  0  0  0  0  0  0  0  0999 V2000
   -2.5000   -0.5250    2.2310 C   0  0  0  0  0  0  0  0  0  0  0  0
   -1.9610   -1.3800    1.2330 N   0  0  0  0  0  0  0  0  0  0  0  0
   -2.7760   -2.4450    0.9720 O   0  0  0  0  0  0  0  0  0  0  0  0
   -3.7870   -2.1490    0.2200 O   0  0  0  0  0  0  0  0  0  0  0  0
   -3.4810   -1.8870   -1.1080 C   0  0  0  0  0  0  0  0  0  0  0  0
   -2.3480   -0.8850   -1.0780 C   0  0  0  0  0  0  0  0  0  0  0  0
   -2.2040   -0.1690   -2.0960 O   0  0  0  0  0  0  0  0  0  0  0  0
   -1.5140   -0.7980    0.0680 N   0  0  0  0  0  0  0  0  0  0  0  0
   -0.2370   -0.1600   -0.0160 C   0  0  2  0  0  0  0  0  0  0  0  0
    0.0740    0.8020    0.8590 O   0  0  0  0  0  0  0  0  0  0  0  0
   -0.5920    1.8470    0.8990 O   0  0  0  0  0  0  0  0  0  0  0  0
   -1.5980    2.1740    0.0730 C   0  0  0  0  0  0  0  0  0  0  0  0
   -2.0770    3.5160    0.4660 N   0  0  0  0  0  0  0  0  0  0  0  0
   -0.0050    0.2620   -1.3720 O   0  0  0  0  0  0  0  0  0  0  0  0
    1.1020    0.9030   -1.3670 O   0  0  0  0  0  0  0  0  0  0  0  0
    2.2290    0.1620   -1.6530 C   0  0  1  0  0  0  0  0  0  0  0  0
    3.3110    0.7980   -0.8910 N   0  0  0  0  0  0  0  0  0  0  0  0
    3.8460    0.2240    0.1200 C   0  0  0  0  0  0  0  0  0  0  0  0
    4.7990    0.9030    0.8270 O   0  0  0  0  0  0  0  0  0  0  0  0
    5.7040    1.7150    0.2210 O   0  0  0  0  0  0  0  0  0  0  0  0
    3.4230   -1.1270    0.4780 C   0  0  2  0  0  0  0  0  0  0  0  0
    3.2660   -1.8270   -0.7060 O   0  0  0  0  0  0  0  0  0  0  0  0
    2.1390   -1.2820   -1.3710 C   0  0  1  0  0  0  0  0  0  0  0  0
    1.0010   -1.5990    0.1080 P   0  0  0  0  0  0  0  0  0  0  0  0
    2.2730   -1.1990    1.2530 O   0  0  0  0  0  0  0  0  0  0  0  0
  1  2  1  0
  2  3  1  0
  2  8  1  0
  3  4  1  0
  4  5  1  0
  5  6  1  0
  6  7  2  0
  6  8  1  0
  8  9  1  0
  9 10  1  1
  9 14  1  0
  9 24  1  0
 10 11  1  0
 11 12  1  0
 12 13  1  0
 14 15  1  0
 16 15  1  1
 16 17  1  0
 16 23  1  0
 17 18  2  0
 18 19  1  0
 18 21  1  0
 19 20  1  0
 21 22  1  0
 21 25  1  6
 23 22  1  1
 23 24  1  0
 24 25  1  0
M  END
