
     RDKit          3D

 24 24  0  0  0  0  0  0  0  0999 V2000
    6.2620   -0.0710    1.8700 C   0  0  0  0  0  0  0  0  0  0  0  0
    5.0760    0.1700    1.1790 O   0  0  0  0  0  0  0  0  0  0  0  0
    5.0850   -0.6110    0.0420 C   0  0  0  0  0  0  0  0  0  0  0  0
    3.8340   -0.4280   -0.7910 C   0  0  1  0  0  0  0  0  0  0  0  0
    3.8750   -1.2260   -1.9260 O   0  0  0  0  0  0  0  0  0  0  0  0
    2.6880   -0.7530   -0.0910 O   0  0  0  0  0  0  0  0  0  0  0  0
    1.8450    0.2740    0.0230 N   0  0  0  0  0  0  0  0  0  0  0  0
    0.6150    0.0210   -0.6490 N   0  0  0  0  0  0  0  0  0  0  0  0
    0.8670    0.1610   -1.9830 O   0  0  0  0  0  0  0  0  0  0  0  0
   -0.2910    1.0240   -0.1440 C   0  0  0  0  0  0  0  0  0  0  0  0
   -1.5620    0.9940   -0.6180 O   0  0  0  0  0  0  0  0  0  0  0  0
   -2.2680   -0.1500   -0.3880 C   0  0  2  0  0  0  0  0  0  0  0  0
   -2.7070   -0.7390   -1.6740 C   0  0  0  0  0  0  0  0  0  0  0  0
   -3.3580   -1.7960   -1.7150 O   0  0  0  0  0  0  0  0  0  0  0  0
   -2.3420    0.0220   -3.3110 P   0  0  0  0  0  0  0  0  0  0  0  0
   -3.5340    0.1530    0.4330 C   0  0  1  0  0  0  0  0  0  0  0  0
   -3.1910    0.6940    1.6230 O   0  0  0  0  0  0  0  0  0  0  0  0
   -4.0530    1.4500    2.2760 N   0  0  0  0  0  0  0  0  0  0  0  0
   -5.7130    0.7600    1.9840 P   0  0  0  0  0  0  0  0  0  0  0  0
   -5.7300   -0.8930    2.4370 O   0  0  0  0  0  0  0  0  0  0  0  0
   -4.8760   -1.1110    3.4220 O   0  0  0  0  0  0  0  0  0  0  0  0
   -5.8230    0.9390    0.2030 O   0  0  0  0  0  0  0  0  0  0  0  0
   -4.5300    0.8590   -0.3700 C   0  0  0  0  0  0  0  0  0  0  0  0
   -4.2590    1.3620   -1.4910 O   0  0  0  0  0  0  0  0  0  0  0  0
  1  2  1  0
  2  3  1  0
  3  4  1  0
  4  5  1  6
  4  6  1  0
  6  7  1  0
  7  8  1  0
  8  9  1  0
  8 10  1  0
 10 11  1  0
 12 11  1  6
 12 13  1  0
 12 16  1  0
 13 14  2  0
 13 15  1  0
 16 17  1  1
 16 23  1  0
 17 18  1  0
 18 19  1  0
 19 20  1  0
 19 22  1  0
 20 21  1  0
 22 23  1  0
 23 24  2  0
M  END
