
     RDKit          3D

 25 24  0  0  0  0  0  0  0  0999 V2000
    0.8200   -2.5910    0.0190 C   0  0  0  0  0  0  0  0  0  0  0  0
    0.6020   -1.2780   -0.6820 C   0  0  1  0  0  0  0  0  0  0  0  0
   -0.8380   -0.9870   -0.9290 C   0  0  0  0  0  0  0  0  0  0  0  0
   -1.6880   -0.9130    0.3160 C   0  0  0  0  0  0  0  0  0  0  0  0
   -3.0760   -0.6190   -0.1000 C   0  0  0  0  0  0  0  0  0  0  0  0
   -3.3310   -0.4850   -1.3180 O   0  0  0  0  0  0  0  0  0  0  0  0
   -4.1260   -0.4820    0.7920 O   0  0  0  0  0  0  0  0  0  0  0  0
   -5.4520   -0.2030    0.4030 C   0  0  1  0  0  0  0  0  0  0  0  0
   -6.2410   -1.2750    0.8170 O   0  0  0  0  0  0  0  0  0  0  0  0
   -6.8750   -1.8200   -0.1990 O   0  0  0  0  0  0  0  0  0  0  0  0
   -6.1000    1.3480    1.1810 P   0  0  0  0  0  0  0  0  0  0  0  0
   -7.0110    2.2800    0.0430 O   0  0  0  0  0  0  0  0  0  0  0  0
   -4.8480    2.2680    1.9350 O   0  0  0  0  0  0  0  0  0  0  0  0
    1.3390   -0.2140   -0.0430 N   0  0  0  0  0  0  0  0  0  0  0  0
    2.7830   -0.3420    0.0430 C   0  0  0  0  0  0  0  0  0  0  0  0
    3.2860    0.7620    0.6790 O   0  0  0  0  0  0  0  0  0  0  0  0
    4.6490    0.7700    0.8280 C   0  0  2  0  0  0  0  0  0  0  0  0
    5.1640   -0.3740    1.5340 N   0  0  0  0  0  0  0  0  0  0  0  0
    5.0230    1.9350    1.4820 O   0  0  0  0  0  0  0  0  0  0  0  0
    5.2460    0.8050   -0.4930 N   0  0  0  0  0  0  0  0  0  0  0  0
    4.8810    1.8920   -1.1890 O   0  0  0  0  0  0  0  0  0  0  0  0
    6.5610    0.5880   -0.4890 O   0  0  0  0  0  0  0  0  0  0  0  0
    0.7060    0.9160    0.4820 N   0  0  0  0  0  0  0  0  0  0  0  0
    1.0520    2.1040    0.1610 C   0  0  0  0  0  0  0  0  0  0  0  0
    1.1870    3.2470   -0.2790 O   0  0  0  0  0  0  0  0  0  0  0  0
  2  1  1  1
  2  3  1  0
  2 14  1  0
  3  4  1  0
  4  5  1  0
  5  6  2  0
  5  7  1  0
  8  7  1  1
  8  9  1  0
  8 11  1  0
  9 10  1  0
 11 12  1  0
 11 13  1  0
 14 15  1  0
 14 23  1  0
 15 16  1  0
 16 17  1  0
 17 18  1  1
 17 19  1  0
 17 20  1  0
 20 21  1  0
 20 22  1  0
 23 24  2  0
 24 25  2  0
M  END
