
     RDKit          3D

 25 26  0  0  0  0  0  0  0  0999 V2000
   -1.7830   -4.4020    0.4950 C   0  0  0  0  0  0  0  0  0  0  0  0
   -1.3010   -3.2140   -0.1210 O   0  0  0  0  0  0  0  0  0  0  0  0
   -0.9920   -2.0970    0.6520 C   0  0  0  0  0  0  0  0  0  0  0  0
   -1.1680   -2.2230    1.8900 O   0  0  0  0  0  0  0  0  0  0  0  0
   -0.4960   -0.8410    0.1360 C   0  0  2  0  0  0  0  0  0  0  0  0
   -1.4120   -0.1210   -0.8080 C   0  0  0  0  0  0  0  0  0  0  0  0
   -1.5420    1.2300   -0.1270 C   0  0  2  0  0  0  0  0  0  0  0  0
   -2.5630    1.1310    0.8570 N   0  0  0  0  0  0  0  0  0  0  0  0
   -2.8340    2.2190    1.5600 O   0  0  0  0  0  0  0  0  0  0  0  0
   -3.9360    0.0950    0.4550 P   0  0  0  0  0  0  0  0  0  0  0  0
   -1.6980    2.6300   -1.2780 P   0  0  0  0  0  0  0  0  0  0  0  0
   -3.3200    2.9430   -1.7350 O   0  0  0  0  0  0  0  0  0  0  0  0
   -1.0230    4.0520   -0.5340 O   0  0  0  0  0  0  0  0  0  0  0  0
   -0.2580    1.2880    0.5900 N   0  0  0  0  0  0  0  0  0  0  0  0
    0.8650    1.4640   -0.2810 C   0  0  0  0  0  0  0  0  0  0  0  0
    1.6230    0.2370   -0.4620 N   0  0  0  0  0  0  0  0  0  0  0  0
    2.9680    0.1740   -0.5490 O   0  0  0  0  0  0  0  0  0  0  0  0
    3.5750   -0.0570    0.6620 C   0  0  0  0  0  0  0  0  0  0  0  0
    5.0390   -0.1150    0.4830 C   0  0  0  0  0  0  0  0  0  0  0  0
    5.8040   -0.3140    1.4540 O   0  0  0  0  0  0  0  0  0  0  0  0
    5.5830    0.0510   -0.7700 O   0  0  0  0  0  0  0  0  0  0  0  0
    6.8850    0.0180   -1.0430 O   0  0  0  0  0  0  0  0  0  0  0  0
    0.8320   -0.9580   -0.5470 C   0  0  0  0  0  0  0  0  0  0  0  0
    1.2470   -1.9610   -1.1360 O   0  0  0  0  0  0  0  0  0  0  0  0
   -0.2890    0.0560    1.1820 O   0  0  0  0  0  0  0  0  0  0  0  0
  1  2  1  0
  2  3  1  0
  3  4  2  0
  5  3  1  1
  5  6  1  0
  5 23  1  0
  5 25  1  0
  6  7  1  0
  7  8  1  1
  7 11  1  0
  7 14  1  0
  8  9  1  0
  8 10  1  0
 11 12  1  0
 11 13  1  0
 14 15  1  0
 14 25  1  0
 15 16  1  0
 16 17  1  0
 16 23  1  0
 17 18  1  0
 18 19  1  0
 19 20  2  0
 19 21  1  0
 21 22  1  0
 23 24  2  0
M  END
