
     RDKit          3D

 19 18  0  0  0  0  0  0  0  0999 V2000
   -4.0440    3.8330    1.4450 O   0  0  0  0  0  0  0  0  0  0  0  0
   -2.9210    4.2770    1.1130 C   0  0  0  0  0  0  0  0  0  0  0  0
   -1.9760    3.3920    0.6080 O   0  0  0  0  0  0  0  0  0  0  0  0
   -2.2660    2.0150    0.4680 C   0  0  0  0  0  0  0  0  0  0  0  0
   -3.4090    1.6930    0.8290 O   0  0  0  0  0  0  0  0  0  0  0  0
   -1.2310    1.1770   -0.0620 C   0  0  0  0  0  0  0  0  0  0  0  0
   -1.2350   -0.1200   -0.2930 C   0  0  0  0  0  0  0  0  0  0  0  0
   -2.3920   -0.9260   -0.0130 C   0  0  0  0  0  0  0  0  0  0  0  0
   -2.6400   -2.1900   -0.1480 C   0  0  0  0  0  0  0  0  0  0  0  0
   -1.8540   -3.2880   -0.6330 C   0  0  0  0  0  0  0  0  0  0  0  0
   -0.6910   -3.2420   -1.0520 O   0  0  0  0  0  0  0  0  0  0  0  0
   -2.4370   -4.6030   -0.6540 O   0  0  0  0  0  0  0  0  0  0  0  0
    0.3400   -0.7620   -0.9850 P   0  0  0  0  0  0  0  0  0  0  0  0
    1.6740   -0.1930    0.1780 C   0  0  0  0  0  0  0  0  0  0  0  0
    3.0480   -0.3290   -0.4410 C   0  0  0  0  0  0  0  0  0  0  0  0
    4.0360    0.1720    0.6190 C   0  0  0  0  0  0  0  0  0  0  0  0
    3.9290   -0.6020    1.7740 O   0  0  0  0  0  0  0  0  0  0  0  0
    0.6240    0.2970   -2.9020 P   0  0  0  0  0  0  0  0  0  0  0  0
    2.0220    0.7690   -3.3630 O   0  0  0  0  0  0  0  0  0  0  0  0
  1  2  2  0
  2  3  1  0
  3  4  1  0
  4  5  2  0
  4  6  1  0
  6  7  2  3
  7  8  1  0
  7 13  1  0
  8  9  2  3
  9 10  1  0
 10 11  2  0
 10 12  1  0
 13 14  1  0
 13 18  1  0
 14 15  1  0
 15 16  1  0
 16 17  1  0
 18 19  2  0
M  END
