
     RDKit          3D

 14 14  0  0  0  0  0  0  0  0999 V2000
   -3.0450   -0.1210    1.7390 C   0  0  0  0  0  0  0  0  0  0  0  0
   -2.4560   -0.4690    0.4480 C   0  0  0  0  0  0  0  0  0  0  0  0
   -2.7420   -0.9420   -0.8250 N   0  0  0  0  0  0  0  0  0  0  0  0
   -1.3760   -0.6440   -0.5500 C   0  0  2  0  0  0  0  0  0  0  0  0
   -0.3250   -2.0650   -0.4520 Cl  0  0  0  0  0  0  0  0  0  0  0  0
   -0.8640    0.5790   -1.3010 C   0  0  1  0  0  0  0  0  0  0  0  0
   -1.6580    1.6500   -0.8940 O   0  0  0  0  0  0  0  0  0  0  0  0
    0.5190    0.8320   -1.0720 N   0  0  0  0  0  0  0  0  0  0  0  0
    1.5290   -0.1190   -1.4040 C   0  0  0  0  0  0  0  0  0  0  0  0
    1.4620   -0.8610   -2.5890 O   0  0  0  0  0  0  0  0  0  0  0  0
    2.5600   -0.3390   -0.6150 C   0  0  0  0  0  0  0  0  0  0  0  0
    2.7920    0.5450    0.9640 P   0  0  0  0  0  0  0  0  0  0  0  0
    2.6370   -0.6000    2.3680 C   0  0  0  0  0  0  0  0  0  0  0  0
    2.2540   -1.7420    2.2500 O   0  0  0  0  0  0  0  0  0  0  0  0
  1  2  1  0
  2  3  2  0
  2  4  1  0
  3  4  1  0
  4  5  1  1
  4  6  1  0
  6  7  1  1
  6  8  1  0
  8  9  1  0
  9 10  1  0
  9 11  2  3
 11 12  1  0
 12 13  1  0
 13 14  2  0
M  END
