
     RDKit          3D

 13 13  0  0  0  0  0  0  0  0999 V2000
   -1.5790    1.5180   -1.0810 O   0  0  0  0  0  0  0  0  0  0  0  0
   -1.4460    0.6760    0.0010 C   0  0  1  0  0  0  0  0  0  0  0  0
   -2.8310    0.1240    0.3750 C   0  0  2  0  0  0  0  0  0  0  0  0
   -3.5420    0.9870    1.1600 O   0  0  0  0  0  0  0  0  0  0  0  0
   -2.4160   -1.1490    1.0920 C   0  0  0  0  0  0  0  0  0  0  0  0
   -1.1250   -1.4290    0.7260 O   0  0  0  0  0  0  0  0  0  0  0  0
   -0.7740   -0.6170   -0.3220 C   0  0  2  0  0  0  0  0  0  0  0  0
    0.6640   -0.5380   -0.6120 C   0  0  0  0  0  0  0  0  0  0  0  0
    1.4520   -0.0740    0.3860 O   0  0  0  0  0  0  0  0  0  0  0  0
    3.0570    0.0370    0.1330 P   0  0  0  0  0  0  0  0  0  0  0  0
    3.6200    0.4410   -1.4350 O   0  0  0  0  0  0  0  0  0  0  0  0
    4.1360   -0.3410    1.2690 O   0  0  0  0  0  0  0  0  0  0  0  0
    3.1160    1.5360    0.4530 O   0  0  0  0  0  0  0  0  0  0  0  0
  2  1  1  6
  2  3  1  0
  2  7  1  0
  3  4  1  1
  3  5  1  0
  5  6  1  0
  6  7  1  0
  7  8  1  1
  8  9  1  0
  9 10  1  0
 10 11  1  0
 10 12  1  0
 10 13  1  0
M  END
