
     RDKit          3D

 13 13  0  0  0  0  0  0  0  0999 V2000
   -3.9700    1.0460    0.8900 C   0  0  0  0  0  0  0  0  0  0  0  0
   -2.5920    0.8090    0.9410 O   0  0  0  0  0  0  0  0  0  0  0  0
   -2.3180   -0.1600   -0.0170 C   0  0  0  0  0  0  0  0  0  0  0  0
   -0.8990   -0.5420   -0.1120 C   0  0  1  0  0  0  0  0  0  0  0  0
   -0.7130   -1.6710   -1.0830 C   0  0  0  0  0  0  0  0  0  0  0  0
   -0.0290    0.4980   -0.4370 O   0  0  0  0  0  0  0  0  0  0  0  0
    1.2210    0.1410   -0.2630 N   0  0  0  0  0  0  0  0  0  0  0  0
    2.2280    0.1900   -1.2810 C   0  0  0  0  0  0  0  0  0  0  0  0
    1.8770    0.7110   -2.7800 S   0  0  0  0  0  0  0  0  0  0  0  0
    3.5460   -0.2110   -1.0130 O   0  0  0  0  0  0  0  0  0  0  0  0
    4.4330    0.8130   -0.6050 C   0  0  0  0  0  0  0  0  0  0  0  0
    1.5040   -0.3220    1.1150 C   0  0  0  0  0  0  0  0  0  0  0  0
   -0.0730   -0.9560    1.5370 P   0  0  0  0  0  0  0  0  0  0  0  0
  1  2  1  0
  2  3  1  0
  3  4  1  0
  4  5  1  6
  4  6  1  0
  4 13  1  0
  6  7  1  0
  7  8  1  0
  7 12  1  0
  8  9  2  0
  8 10  1  0
 10 11  1  0
 12 13  2  0
M  END
