
     RDKit          3D

 14 14  0  0  0  0  0  0  0  0999 V2000
    3.9860    1.5670   -0.1220 C   0  0  0  0  0  0  0  0  0  0  0  0
    3.7440    0.3930    0.2650 N   0  0  0  0  0  0  0  0  0  0  0  0
    2.5460   -0.0820    0.8270 C   0  0  0  0  0  0  0  0  0  0  0  0
    1.5230   -0.4750   -0.1380 C   0  0  0  0  0  0  0  0  0  0  0  0
    1.7210   -0.3870   -1.3590 O   0  0  0  0  0  0  0  0  0  0  0  0
    0.2450   -0.9810    0.3370 C   0  0  0  0  0  0  0  0  0  0  0  0
   -0.2700   -1.1980    1.9540 P   0  0  0  0  0  0  0  0  0  0  0  0
   -2.0190   -1.8810    1.4770 O   0  0  0  0  0  0  0  0  0  0  0  0
   -2.0760   -1.1470    0.3190 C   0  0  1  0  0  0  0  0  0  0  0  0
   -3.4850   -1.6260   -0.6090 Cl  0  0  0  0  0  0  0  0  0  0  0  0
   -2.1880    0.3140    0.6960 C   0  0  0  0  0  0  0  0  0  0  0  0
   -2.2580    1.2230   -0.4880 C   0  0  0  0  0  0  0  0  0  0  0  0
   -0.8930   -1.4170   -0.4650 N   0  0  0  0  0  0  0  0  0  0  0  0
   -0.7590   -1.9600   -1.6970 O   0  0  0  0  0  0  0  0  0  0  0  0
  1  2  2  0
  2  3  1  0
  3  4  1  0
  4  5  2  0
  4  6  1  0
  6  7  2  0
  6 13  1  0
  7  8  1  0
  8  9  1  0
  9 10  1  6
  9 11  1  0
  9 13  1  0
 11 12  1  0
 13 14  1  0
M  END
