
     RDKit          3D

 20 22  0  0  0  0  0  0  0  0999 V2000
   -1.4660    3.5380   -0.9400 N   0  0  0  0  0  0  0  0  0  0  0  0
   -0.4590    2.6900   -0.3300 C   0  0  0  0  0  0  0  0  0  0  0  0
   -0.9510    1.2830   -0.4000 C   0  0  2  0  0  0  0  0  0  0  0  0
   -2.2340    1.0740    0.3080 C   0  0  0  0  0  0  0  0  0  0  0  0
   -2.9420    2.0130    0.7350 O   0  0  0  0  0  0  0  0  0  0  0  0
   -2.6820   -0.3010    0.5100 C   0  0  0  0  0  0  0  0  0  0  0  0
   -1.8130   -1.3000    0.2950 C   0  0  0  0  0  0  0  0  0  0  0  0
   -2.2190   -2.6520    0.4830 N   0  0  0  0  0  0  0  0  0  0  0  0
   -3.5190   -2.9500    0.8920 N   0  0  0  0  0  0  0  0  0  0  0  0
   -4.4350   -1.8920    1.1190 C   0  0  0  0  0  0  0  0  0  0  0  0
   -5.6070   -2.1130    1.4850 O   0  0  0  0  0  0  0  0  0  0  0  0
   -4.0340   -0.5500    0.9330 N   0  0  0  0  0  0  0  0  0  0  0  0
   -0.4700   -0.9860   -0.1330 N   0  0  0  0  0  0  0  0  0  0  0  0
    0.0220    0.3050    0.2740 C   0  0  1  0  0  0  0  0  0  0  0  0
    1.4290    0.6150   -0.0270 C   0  0  0  0  0  0  0  0  0  0  0  0
    2.3650   -0.3170    0.6610 C   0  0  2  0  0  0  0  0  0  0  0  0
    3.8200    0.0080    0.3690 C   0  0  0  0  0  0  0  0  0  0  0  0
    4.1510   -0.6200   -0.9630 C   0  0  0  0  0  0  0  0  0  0  0  0
    3.8600   -2.1010   -0.8450 C   0  0  0  0  0  0  0  0  0  0  0  0
    2.2840   -2.0340    0.0990 S   0  0  0  0  0  0  0  0  0  0  0  0
  1  2  1  0
  3  2  1  1
  3  4  1  0
  3 14  1  0
  4  5  2  0
  4  6  1  0
  6  7  2  0
  6 12  1  0
  7  8  1  0
  7 13  1  0
  8  9  1  0
  9 10  1  0
 10 11  2  0
 10 12  1  0
 13 14  1  0
 14 15  1  6
 16 15  1  6
 16 17  1  0
 16 20  1  0
 17 18  1  0
 18 19  1  0
 19 20  1  0
M  CHG  1   1   1
M  END
