
     RDKit          3D

  9  9  0  0  0  0  0  0  0  0999 V2000
    2.6000   -1.0790    0.0780 O   0  0  0  0  0  0  0  0  0  0  0  0
    1.8250    0.0020    0.4550 C   0  0  0  0  0  0  0  0  0  0  0  0
    0.5380    0.0930   -0.3720 C   0  0  1  0  0  0  0  0  0  0  0  0
    0.9810    0.2330   -1.7100 O   0  0  0  0  0  0  0  0  0  0  0  0
   -0.2110   -1.1750   -0.2770 C   0  0  0  0  0  0  0  0  0  0  0  0
   -1.5640   -1.0890    0.3390 C   0  0  0  0  0  0  0  0  0  0  0  0
   -1.6440   -0.0940    1.2980 O   0  0  0  0  0  0  0  0  0  0  0  0
   -1.5280    1.1250    0.6180 C   0  0  0  0  0  0  0  0  0  0  0  0
   -0.1720    1.3250    0.0290 C   0  0  0  0  0  0  0  0  0  0  0  0
  1  2  1  0
  2  3  1  0
  3  4  1  6
  3  5  1  0
  3  9  1  0
  5  6  1  0
  6  7  1  0
  7  8  1  0
  8  9  1  0
M  END
