
     RDKit          3D

 10 10  0  0  0  0  0  0  0  0999 V2000
    2.8860    1.0020   -0.8970 C   0  0  0  0  0  0  0  0  0  0  0  0
    2.5960   -0.3260   -1.1850 O   0  0  0  0  0  0  0  0  0  0  0  0
    2.3260   -1.0770   -0.0590 C   0  0  0  0  0  0  0  0  0  0  0  0
    1.1370   -0.5460    0.7050 C   0  0  0  0  0  0  0  0  0  0  0  0
   -0.0190   -0.5460   -0.0680 O   0  0  0  0  0  0  0  0  0  0  0  0
   -1.0550   -0.0560    0.6760 C   0  0  1  0  0  0  0  0  0  0  0  0
   -1.7880    1.0880    0.0300 C   0  0  0  0  0  0  0  0  0  0  0  0
   -2.8660    0.4060   -0.7410 C   0  0  0  0  0  0  0  0  0  0  0  0
   -3.0010   -0.8780   -0.3010 O   0  0  0  0  0  0  0  0  0  0  0  0
   -2.1360   -1.1190    0.7230 C   0  0  0  0  0  0  0  0  0  0  0  0
  1  2  1  0
  2  3  1  0
  3  4  1  0
  4  5  1  0
  6  5  1  6
  6  7  1  0
  6 10  1  0
  7  8  1  0
  8  9  1  0
  9 10  1  0
M  END
