
     RDKit          3D

 10 11  0  0  0  0  0  0  0  0999 V2000
    3.0470   -0.6800   -0.8050 O   0  0  0  0  0  0  0  0  0  0  0  0
    1.7940   -0.3240   -0.3450 C   0  0  0  0  0  0  0  0  0  0  0  0
    1.6990    0.5480    0.7120 C   0  0  0  0  0  0  0  0  0  0  0  0
    0.4500    0.9400    1.2140 C   0  0  0  0  0  0  0  0  0  0  0  0
   -0.7070    0.4340    0.6280 C   0  0  0  0  0  0  0  0  0  0  0  0
   -0.5910   -0.4410   -0.4320 C   0  0  0  0  0  0  0  0  0  0  0  0
    0.6520   -0.8170   -0.9160 C   0  0  0  0  0  0  0  0  0  0  0  0
   -1.9000   -0.7800   -0.8120 O   0  0  0  0  0  0  0  0  0  0  0  0
   -2.7870    0.1660   -0.2590 C   0  0  0  0  0  0  0  0  0  0  0  0
   -2.0670    0.6130    0.8760 O   0  0  0  0  0  0  0  0  0  0  0  0
  1  2  1  0
  2  3  2  0
  2  7  1  0
  3  4  1  0
  4  5  2  0
  5  6  1  0
  5 10  1  0
  6  7  2  0
  6  8  1  0
  8  9  1  0
  9 10  1  0
M  END
