
     RDKit          3D

 27 30  0  0  0  0  0  0  0  0999 V2000
    7.5430    0.9870   -0.4220 C   0  0  0  0  0  0  0  0  0  0  0  0
    6.7190    0.4990    1.1030 S   0  0  0  0  0  0  0  0  0  0  0  0
    7.2990   -0.7620    1.6840 O   0  0  0  0  0  0  0  0  0  0  0  0
    4.9660    0.4140    0.8800 C   0  0  0  0  0  0  0  0  0  0  0  0
    4.1370    1.4920    1.0880 C   0  0  0  0  0  0  0  0  0  0  0  0
    2.7530    1.4010    0.9050 C   0  0  0  0  0  0  0  0  0  0  0  0
    2.1920    0.2190    0.5100 C   0  0  0  0  0  0  0  0  0  0  0  0
    0.7420    0.0930    0.3090 C   0  0  0  0  0  0  0  0  0  0  0  0
   -0.1990    1.0390    0.4640 N   0  0  0  0  0  0  0  0  0  0  0  0
   -1.4140    0.5520    0.1890 C   0  0  0  0  0  0  0  0  0  0  0  0
   -2.7170    1.2060    0.2210 C   0  0  0  0  0  0  0  0  0  0  0  0
   -3.5060    1.3680   -0.8960 C   0  0  0  0  0  0  0  0  0  0  0  0
   -4.7280    1.9830   -0.8590 C   0  0  0  0  0  0  0  0  0  0  0  0
   -5.2110    2.4680    0.3240 C   0  0  0  0  0  0  0  0  0  0  0  0
   -6.4300    3.0910    0.4060 F   0  0  0  0  0  0  0  0  0  0  0  0
   -4.4510    2.3270    1.4690 C   0  0  0  0  0  0  0  0  0  0  0  0
   -3.2100    1.6980    1.4090 C   0  0  0  0  0  0  0  0  0  0  0  0
   -1.2550   -0.7700   -0.1590 C   0  0  0  0  0  0  0  0  0  0  0  0
   -2.2920   -1.7340   -0.5460 C   0  0  0  0  0  0  0  0  0  0  0  0
   -2.2850   -2.3450   -1.7830 C   0  0  0  0  0  0  0  0  0  0  0  0
   -3.2330   -3.2570   -2.1970 C   0  0  0  0  0  0  0  0  0  0  0  0
   -4.2160   -3.5580   -1.3300 N   0  0  0  0  0  0  0  0  0  0  0  0
   -4.2550   -2.9780   -0.1070 C   0  0  0  0  0  0  0  0  0  0  0  0
   -3.3070   -2.0650    0.3090 C   0  0  0  0  0  0  0  0  0  0  0  0
    0.0680   -1.0070   -0.0730 N   0  0  0  0  0  0  0  0  0  0  0  0
    3.0330   -0.8540    0.3050 C   0  0  0  0  0  0  0  0  0  0  0  0
    4.3950   -0.7860    0.4790 C   0  0  0  0  0  0  0  0  0  0  0  0
  2  1  1  6
  2  3  2  0
  2  4  1  0
  4  5  2  0
  4 27  1  0
  5  6  1  0
  6  7  2  0
  7  8  1  0
  7 26  1  0
  8  9  2  0
  8 25  1  0
  9 10  1  0
 10 11  1  0
 10 18  2  0
 11 12  2  0
 11 17  1  0
 12 13  1  0
 13 14  2  0
 14 15  1  0
 14 16  1  0
 16 17  2  0
 18 19  1  0
 18 25  1  0
 19 20  2  0
 19 24  1  0
 20 21  1  0
 21 22  2  0
 22 23  1  0
 23 24  2  0
 26 27  2  0
M  END
