
     RDKit          3D

  9  9  0  0  0  0  0  0  0  0999 V2000
    2.6820    1.1920   -0.0730 O   0  0  0  0  0  0  0  0  0  0  0  0
    2.7300   -0.1470   -0.3500 C   0  0  0  0  0  0  0  0  0  0  0  0
    1.5280   -0.9060    0.1690 C   0  0  0  0  0  0  0  0  0  0  0  0
    0.2400   -0.3900   -0.4370 C   0  0  1  0  0  0  0  0  0  0  0  0
   -0.8990   -1.2000    0.1340 C   0  0  0  0  0  0  0  0  0  0  0  0
   -1.8460   -0.3510    0.9420 C   0  0  0  0  0  0  0  0  0  0  0  0
   -2.2880    0.8430    0.1270 C   0  0  0  0  0  0  0  0  0  0  0  0
   -1.1080    1.4170   -0.6320 C   0  0  0  0  0  0  0  0  0  0  0  0
    0.1100    0.9770   -0.1130 O   0  0  0  0  0  0  0  0  0  0  0  0
  1  2  1  0
  2  3  1  0
  4  3  1  1
  4  5  1  0
  4  9  1  0
  5  6  1  0
  6  7  1  0
  7  8  1  0
  8  9  1  0
M  END
