
     RDKit          3D

 10  9  0  0  0  0  0  0  0  0999 V2000
   -2.8730    0.4120   -1.3960 C   0  0  0  0  0  0  0  0  0  0  0  0
   -2.1620    0.0580   -0.3450 C   0  0  0  0  0  0  0  0  0  0  0  0
   -2.2040    0.9650    0.8470 C   0  0  0  0  0  0  0  0  0  0  0  0
   -1.3770   -1.1730   -0.3720 C   0  0  0  0  0  0  0  0  0  0  0  0
    0.0730   -0.9590   -0.1730 C   0  0  0  0  0  0  0  0  0  0  0  0
    0.8220   -1.9650   -0.1830 O   0  0  0  0  0  0  0  0  0  0  0  0
    0.6480    0.2820    0.0210 O   0  0  0  0  0  0  0  0  0  0  0  0
    2.0310    0.4530    0.2050 C   0  0  0  0  0  0  0  0  0  0  0  0
    2.8560   -0.0120   -0.9470 C   0  0  0  0  0  0  0  0  0  0  0  0
    4.2160    0.2140   -0.6390 O   0  0  0  0  0  0  0  0  0  0  0  0
  1  2  2  0
  2  3  1  0
  2  4  1  0
  4  5  1  0
  5  6  2  0
  5  7  1  0
  7  8  1  0
  8  9  1  0
  9 10  1  0
M  END
