
     RDKit          3D

 31 33  0  0  0  0  0  0  0  0999 V2000
    1.9540   -1.8040    1.2730 O   0  0  0  0  0  0  0  0  0  0  0  0
    1.9700   -0.7070    0.6620 C   0  0  0  0  0  0  0  0  0  0  0  0
    0.7580    0.0440    0.6090 N   0  0  0  0  0  0  0  0  0  0  0  0
   -0.4650   -0.4220    1.2340 C   0  0  0  0  0  0  0  0  0  0  0  0
   -1.5800    0.5380    1.0370 C   0  0  2  0  0  0  0  0  0  0  0  0
   -1.1860    1.7630    1.6190 O   0  0  0  0  0  0  0  0  0  0  0  0
   -2.8780    0.1570    1.6530 C   0  0  0  0  0  0  0  0  0  0  0  0
   -3.1600   -1.2870    1.7760 C   0  0  0  0  0  0  0  0  0  0  0  0
   -4.0300   -1.8510    0.6450 C   0  0  1  0  0  0  0  0  0  0  0  0
   -4.3080   -3.3030    1.0580 C   0  0  0  0  0  0  0  0  0  0  0  0
   -4.9790   -3.3480    2.2870 O   0  0  0  0  0  0  0  0  0  0  0  0
   -5.3380   -1.1350    0.6180 C   0  0  0  0  0  0  0  0  0  0  0  0
   -5.6310   -0.4980   -0.7240 C   0  0  0  0  0  0  0  0  0  0  0  0
   -5.8650    0.8670   -0.6270 O   0  0  0  0  0  0  0  0  0  0  0  0
   -5.3200    1.4680   -1.7610 C   0  0  0  0  0  0  0  0  0  0  0  0
   -4.4310    2.6400   -1.4350 C   0  0  1  0  0  0  0  0  0  0  0  0
   -4.5190    2.9910   -0.0820 O   0  0  0  0  0  0  0  0  0  0  0  0
   -2.9870    2.3480   -1.7850 C   0  0  0  0  0  0  0  0  0  0  0  0
   -2.1410    2.2360   -0.6280 N   0  0  0  0  0  0  0  0  0  0  0  0
   -1.7750    0.8240   -0.4370 C   0  0  0  0  0  0  0  0  0  0  0  0
    3.1610   -0.1540   -0.0020 C   0  0  2  0  0  0  0  0  0  0  0  0
    2.8600   -0.0990   -1.5050 C   0  0  0  0  0  0  0  0  0  0  0  0
    4.0350    0.6300   -2.1300 C   0  0  0  0  0  0  0  0  0  0  0  0
    5.2960   -0.1030   -1.8030 C   0  0  0  0  0  0  0  0  0  0  0  0
    5.4130   -0.5010   -0.3580 C   0  0  2  0  0  0  0  0  0  0  0  0
    5.9470    0.6190    0.5070 C   0  0  0  0  0  0  0  0  0  0  0  0
    7.2770    1.1170    0.0210 C   0  0  0  0  0  0  0  0  0  0  0  0
    8.0110    0.1750   -0.6610 O   0  0  0  0  0  0  0  0  0  0  0  0
    7.8450   -1.1120   -0.1730 C   0  0  0  0  0  0  0  0  0  0  0  0
    6.4480   -1.6280   -0.2730 C   0  0  0  0  0  0  0  0  0  0  0  0
    4.2400   -0.9950    0.1460 O   0  0  0  0  0  0  0  0  0  0  0  0
  1  2  2  0
  2  3  1  0
 21  2  1  1
  3  4  1  0
  4  5  1  0
  5  6  1  1
  5  7  1  0
  5 20  1  0
  7  8  1  0
  8  9  1  0
  9 10  1  1
  9 12  1  0
 10 11  1  0
 12 13  1  0
 13 14  1  0
 14 15  1  0
 15 16  1  0
 16 17  1  1
 16 18  1  0
 18 19  1  0
 19 20  1  0
 21 22  1  0
 21 31  1  0
 22 23  1  0
 23 24  1  0
 25 24  1  6
 25 26  1  0
 25 30  1  0
 25 31  1  0
 26 27  1  0
 27 28  1  0
 28 29  1  0
 29 30  1  0
M  CHG  1  19   1
M  END
