
     RDKit          3D

 32 33  0  0  0  0  0  0  0  0999 V2000
    4.8650   -0.2830    1.4700 C   0  0  0  0  0  0  0  0  0  0  0  0
    3.7520   -0.4090    0.7270 C   0  0  0  0  0  0  0  0  0  0  0  0
    2.4790   -1.0160    1.1560 C   0  0  0  0  0  0  0  0  0  0  0  0
    2.2140   -1.9960    1.9780 C   0  0  0  0  0  0  0  0  0  0  0  0
    1.0030   -2.6240    2.4240 C   0  0  0  0  0  0  0  0  0  0  0  0
    0.2930   -3.5740    1.8980 N   0  0  0  0  0  0  0  0  0  0  0  0
    0.4700   -4.3070    0.7120 C   0  0  0  0  0  0  0  0  0  0  0  0
    0.0540   -4.0930   -0.5150 C   0  0  0  0  0  0  0  0  0  0  0  0
    0.4420   -5.0710   -1.4710 O   0  0  0  0  0  0  0  0  0  0  0  0
   -0.7540   -3.0030   -1.0450 C   0  0  0  0  0  0  0  0  0  0  0  0
   -1.9950   -2.7110   -0.2470 C   0  0  1  0  0  0  0  0  0  0  0  0
   -1.8040   -2.0360    0.9230 O   0  0  0  0  0  0  0  0  0  0  0  0
   -3.0230   -1.9360   -1.0490 C   0  0  0  0  0  0  0  0  0  0  0  0
   -2.5500   -0.6330   -1.1470 O   0  0  0  0  0  0  0  0  0  0  0  0
   -3.1290    0.2340   -0.2500 C   0  0  0  0  0  0  0  0  0  0  0  0
   -2.4570    1.5910   -0.4520 C   0  0  1  0  0  0  0  0  0  0  0  0
   -3.5150    2.6250   -0.2330 C   0  0  0  0  0  0  0  0  0  0  0  0
   -4.0260    2.4720    1.0530 O   0  0  0  0  0  0  0  0  0  0  0  0
   -5.0190    3.3990    1.3460 C   0  0  0  0  0  0  0  0  0  0  0  0
   -1.3890    1.6710    0.4340 O   0  0  0  0  0  0  0  0  0  0  0  0
   -0.4420    2.5830    0.0600 C   0  0  1  0  0  0  0  0  0  0  0  0
   -0.8960    3.9540    0.5790 C   0  0  0  0  0  0  0  0  0  0  0  0
    0.9320    2.3350    0.5420 C   0  0  0  0  0  0  0  0  0  0  0  0
    1.6720    3.3890    0.5020 O   0  0  0  0  0  0  0  0  0  0  0  0
    1.5070    1.1650    1.0140 N   0  0  0  0  0  0  0  0  0  0  0  0
    1.4650   -0.1630    0.4260 C   0  0  1  0  0  0  0  0  0  0  0  0
    2.1270   -0.2040   -0.9480 C   0  0  1  0  0  0  0  0  0  0  0  0
    1.5200    0.6940   -1.9590 C   0  0  0  0  0  0  0  0  0  0  0  0
    2.2610    0.5120   -3.1540 O   0  0  0  0  0  0  0  0  0  0  0  0
    3.5870    0.0250   -0.6800 C   0  0  1  0  0  0  0  0  0  0  0  0
    4.0590    1.4270   -0.8080 C   0  0  0  0  0  0  0  0  0  0  0  0
    4.3110   -0.8340   -1.5170 O   0  0  0  0  0  0  0  0  0  0  0  0
  1  2  2  0
  2  3  1  0
  2 30  1  0
  3  4  2  0
  3 26  1  0
  4  5  1  0
  5  6  2  0
  6  7  1  0
  7  8  2  0
  8  9  1  0
  8 10  1  0
 10 11  1  0
 11 12  1  1
 11 13  1  0
 13 14  1  0
 14 15  1  0
 15 16  1  0
 16 17  1  1
 16 20  1  0
 17 18  1  0
 18 19  1  0
 20 21  1  0
 21 22  1  1
 21 23  1  0
 23 24  2  0
 23 25  1  0
 26 25  1  1
 26 27  1  0
 27 28  1  6
 27 30  1  0
 28 29  1  0
 30 31  1  1
 30 32  1  0
M  CHG  1   6   1
M  END
