
     RDKit          3D

 32 34  0  0  0  0  0  0  0  0999 V2000
    2.4880   -0.5870    1.1580 N   0  0  0  0  0  0  0  0  0  0  0  0
    2.1710   -0.2030   -0.2230 C   0  0  2  0  0  0  0  0  0  0  0  0
    1.3240    1.0260   -0.2060 C   0  0  1  0  0  0  0  0  0  0  0  0
    1.8410    2.0950   -1.1100 C   0  0  0  0  0  0  0  0  0  0  0  0
    3.2360    2.4990   -0.6940 C   0  0  0  0  0  0  0  0  0  0  0  0
    3.2690    3.0330    0.7230 C   0  0  0  0  0  0  0  0  0  0  0  0
    4.6470    3.4150    1.0820 C   0  0  0  0  0  0  0  0  0  0  0  0
    5.5660    3.2730    0.2560 O   0  0  0  0  0  0  0  0  0  0  0  0
    4.9150    3.9300    2.3340 O   0  0  0  0  0  0  0  0  0  0  0  0
    6.1750    4.3100    2.7410 N   0  0  0  0  0  0  0  0  0  0  0  0
    0.1680    0.2000   -0.7560 C   0  0  2  0  0  0  0  0  0  0  0  0
   -0.9070    0.1570    0.1160 O   0  0  0  0  0  0  0  0  0  0  0  0
   -2.1630    0.6370   -0.3210 C   0  0  0  0  0  0  0  0  0  0  0  0
   -2.1980    1.0730   -1.4980 O   0  0  0  0  0  0  0  0  0  0  0  0
   -3.3010    0.6120    0.5450 C   0  0  0  0  0  0  0  0  0  0  0  0
   -4.4860    1.0110    0.2870 C   0  0  0  0  0  0  0  0  0  0  0  0
   -4.9640    1.5940   -0.9710 C   0  0  0  0  0  0  0  0  0  0  0  0
   -5.8720    0.6470   -1.5090 O   0  0  0  0  0  0  0  0  0  0  0  0
   -6.9570    0.5630   -0.6390 C   0  0  0  0  0  0  0  0  0  0  0  0
   -6.6100   -0.0220    0.7040 C   0  0  0  0  0  0  0  0  0  0  0  0
   -5.5600    0.8840    1.3560 C   0  0  1  0  0  0  0  0  0  0  0  0
   -5.0480    0.3480    2.5120 O   0  0  0  0  0  0  0  0  0  0  0  0
    1.0550   -1.0040   -0.8500 C   0  0  1  0  0  0  0  0  0  0  0  0
    1.3530   -1.3630   -2.2910 C   0  0  0  0  0  0  0  0  0  0  0  0
    2.5230   -2.2920   -2.3620 C   0  0  0  0  0  0  0  0  0  0  0  0
    2.1340   -3.5680   -1.6290 C   0  0  0  0  0  0  0  0  0  0  0  0
    1.8600   -3.1970   -0.1870 C   0  0  0  0  0  0  0  0  0  0  0  0
    0.7130   -2.2110   -0.0600 C   0  0  1  0  0  0  0  0  0  0  0  0
    0.6140   -1.8820    1.2840 O   0  0  0  0  0  0  0  0  0  0  0  0
   -0.5750   -2.8760   -0.4790 C   0  0  0  0  0  0  0  0  0  0  0  0
   -0.8810   -4.0850    0.3370 C   0  0  0  0  0  0  0  0  0  0  0  0
   -1.0100   -3.7850    1.6790 O   0  0  0  0  0  0  0  0  0  0  0  0
  2  1  1  1
  2  3  1  0
  2 23  1  0
  3  4  1  6
  3 11  1  0
  4  5  1  0
  5  6  1  0
  6  7  1  0
  7  8  2  0
  7  9  1  0
  9 10  1  0
 11 12  1  1
 11 23  1  0
 12 13  1  0
 13 14  2  0
 13 15  1  0
 15 16  2  3
 16 17  1  0
 16 21  1  0
 17 18  1  0
 18 19  1  0
 19 20  1  0
 20 21  1  0
 21 22  1  1
 23 24  1  6
 23 28  1  0
 24 25  1  0
 25 26  1  0
 26 27  1  0
 27 28  1  0
 28 29  1  1
 28 30  1  0
 30 31  1  0
 31 32  1  0
M  CHG  1  10   1
M  END
