
     RDKit          3D

 32 33  0  0  0  0  0  0  0  0999 V2000
   -3.5010   -2.5090   -1.6060 C   0  0  0  0  0  0  0  0  0  0  0  0
   -2.2600   -2.4460   -1.1240 O   0  0  0  0  0  0  0  0  0  0  0  0
   -1.5900   -1.6480   -0.1790 C   0  0  0  0  0  0  0  0  0  0  0  0
   -0.5100   -2.1710    0.4290 C   0  0  0  0  0  0  0  0  0  0  0  0
   -0.2410   -3.6190   -0.0530 C   0  0  0  0  0  0  0  0  0  0  0  0
   -1.1670   -4.0250   -0.9930 O   0  0  0  0  0  0  0  0  0  0  0  0
    0.4120   -1.6750    1.4250 C   0  0  0  0  0  0  0  0  0  0  0  0
    0.0370   -2.0640    2.8790 C   0  0  0  0  0  0  0  0  0  0  0  0
    1.5910   -1.0610    1.4280 C   0  0  0  0  0  0  0  0  0  0  0  0
    2.1770   -0.7170    2.7200 O   0  0  0  0  0  0  0  0  0  0  0  0
    2.5140   -0.6380    0.3580 C   0  0  0  0  0  0  0  0  0  0  0  0
    3.6930   -1.2820    0.2550 C   0  0  0  0  0  0  0  0  0  0  0  0
    4.7750   -1.0780   -0.6980 C   0  0  2  0  0  0  0  0  0  0  0  0
    5.5630   -2.3350   -0.9580 C   0  0  0  0  0  0  0  0  0  0  0  0
    5.7260   -0.0650   -0.2460 N   0  0  0  0  0  0  0  0  0  0  0  0
    2.3380    0.3570   -0.5810 O   0  0  0  0  0  0  0  0  0  0  0  0
    2.2210    1.7400   -0.4740 C   0  0  0  0  0  0  0  0  0  0  0  0
    1.4050    2.2670   -1.6130 C   0  0  2  0  0  0  0  0  0  0  0  0
    1.7510    3.5520   -2.0220 O   0  0  0  0  0  0  0  0  0  0  0  0
    1.5880    4.3300   -0.8530 C   0  0  0  0  0  0  0  0  0  0  0  0
    0.1030    4.4670   -0.6850 C   0  0  0  0  0  0  0  0  0  0  0  0
   -0.6060    3.3730   -0.9980 O   0  0  0  0  0  0  0  0  0  0  0  0
   -0.0750    2.1860   -1.3180 C   0  0  2  0  0  0  0  0  0  0  0  0
   -0.3470    1.1800   -0.2200 C   0  0  0  0  0  0  0  0  0  0  0  0
   -1.7210    0.9050   -0.1820 O   0  0  0  0  0  0  0  0  0  0  0  0
   -2.2740   -0.3560   -0.0480 C   0  0  0  0  0  0  0  0  0  0  0  0
   -3.5830   -0.3440    0.2380 C   0  0  0  0  0  0  0  0  0  0  0  0
   -4.4580    0.8070    0.4060 C   0  0  0  0  0  0  0  0  0  0  0  0
   -3.8130    2.1520    0.1190 C   0  0  0  0  0  0  0  0  0  0  0  0
   -5.7020    0.8550    0.6740 C   0  0  0  0  0  0  0  0  0  0  0  0
   -6.5390   -0.2430    0.8900 N   0  0  0  0  0  0  0  0  0  0  0  0
   -6.2990    2.1220    0.7540 O   0  0  0  0  0  0  0  0  0  0  0  0
  1  2  1  0
  2  3  1  0
  3  4  2  0
  3 26  1  0
  4  5  1  0
  4  7  1  0
  5  6  1  0
  7  8  1  0
  7  9  2  0
  9 10  1  0
  9 11  1  0
 11 12  2  3
 11 16  1  0
 12 13  1  0
 13 14  1  1
 13 15  1  0
 16 17  1  0
 18 17  1  1
 18 19  1  0
 18 23  1  0
 19 20  1  0
 20 21  1  0
 21 22  1  0
 22 23  1  0
 23 24  1  1
 24 25  1  0
 25 26  1  0
 26 27  2  3
 27 28  1  0
 28 29  1  0
 28 30  2  3
 30 31  1  0
 30 32  1  0
M  CHG  1  15   1
M  END
