
     RDKit          3D

 10  9  0  0  0  0  0  0  0  0999 V2000
   -1.9230    0.1160   -1.6530 C   0  0  0  0  0  0  0  0  0  0  0  0
   -1.0540   -0.4040   -0.4860 C   0  0  0  0  0  0  0  0  0  0  0  0
   -1.6220   -1.5930    0.0730 C   0  0  0  0  0  0  0  0  0  0  0  0
   -1.1740   -2.3840    1.1160 N   0  0  0  0  0  0  0  0  0  0  0  0
   -0.0040    0.2790   -0.2210 C   0  0  0  0  0  0  0  0  0  0  0  0
    0.8940   -0.1530    0.8960 C   0  0  0  0  0  0  0  0  0  0  0  0
    2.0100    0.5310    1.2060 C   0  0  0  0  0  0  0  0  0  0  0  0
    2.8130    0.0680    2.2730 N   0  0  0  0  0  0  0  0  0  0  0  0
    0.5090    1.4840   -0.8670 C   0  0  0  0  0  0  0  0  0  0  0  0
   -0.0640    2.1430   -1.9560 N   0  0  0  0  0  0  0  0  0  0  0  0
  1  2  1  0
  2  3  1  0
  2  5  2  3
  3  4  1  0
  5  6  1  0
  5  9  1  0
  6  7  2  3
  7  8  1  0
  9 10  1  0
M  CHG  3   4   1   8   1  10   1
M  END
