
     RDKit          3D

 10  9  0  0  0  0  0  0  0  0999 V2000
   -3.2260   -1.0160    1.0100 C   0  0  0  0  0  0  0  0  0  0  0  0
   -1.7930   -0.9070    0.4460 C   0  0  0  0  0  0  0  0  0  0  0  0
   -1.3400   -2.0880   -0.1270 N   0  0  0  0  0  0  0  0  0  0  0  0
   -1.2040    0.2130    0.5630 C   0  0  0  0  0  0  0  0  0  0  0  0
    0.0300    0.8100    0.2410 C   0  0  0  0  0  0  0  0  0  0  0  0
    1.1990    0.3560   -0.3960 C   0  0  0  0  0  0  0  0  0  0  0  0
    1.5760   -0.7600   -0.9150 C   0  0  0  0  0  0  0  0  0  0  0  0
    2.9270   -0.8720   -1.5180 N   0  0  0  0  0  0  0  0  0  0  0  0
    0.1230    2.1410    0.6330 C   0  0  0  0  0  0  0  0  0  0  0  0
    1.2430    2.9290    0.4210 N   0  0  0  0  0  0  0  0  0  0  0  0
  1  2  1  0
  2  3  1  0
  2  4  2  3
  4  5  1  0
  5  6  1  0
  5  9  2  3
  6  7  2  3
  7  8  1  0
  9 10  1  0
M  CHG  3   3   1   8   1  10   1
M  END
