
     RDKit          3D

 10  9  0  0  0  0  0  0  0  0999 V2000
    1.0240   -1.1280    1.5430 C   0  0  0  0  0  0  0  0  0  0  0  0
    0.9720   -0.5780    0.1570 C   0  0  0  0  0  0  0  0  0  0  0  0
    1.9220   -0.9950   -0.7090 C   0  0  0  0  0  0  0  0  0  0  0  0
    2.9300   -1.9140   -0.3350 N   0  0  0  0  0  0  0  0  0  0  0  0
   -0.0200    0.3730   -0.3290 C   0  0  0  0  0  0  0  0  0  0  0  0
   -1.0070    0.9160    0.2710 C   0  0  0  0  0  0  0  0  0  0  0  0
   -1.5040    0.7980    1.6230 C   0  0  0  0  0  0  0  0  0  0  0  0
   -2.9060    0.3010    1.6210 N   0  0  0  0  0  0  0  0  0  0  0  0
    0.1920    0.7510   -1.7940 C   0  0  0  0  0  0  0  0  0  0  0  0
   -0.7800    1.6830   -2.2740 N   0  0  0  0  0  0  0  0  0  0  0  0
  1  2  1  0
  2  3  2  3
  2  5  1  0
  3  4  1  0
  5  6  2  3
  5  9  1  0
  6  7  1  0
  7  8  1  0
  9 10  1  0
M  CHG  3   4   1   8   1  10   1
M  END
