
     RDKit          3D

 37 41  0  0  0  0  0  0  0  0999 V2000
    7.1540   -4.4880   -0.0530 C   0  0  0  0  0  0  0  0  0  0  0  0
    6.6930   -3.1750    0.1360 O   0  0  0  0  0  0  0  0  0  0  0  0
    5.3200   -2.9230    0.0960 C   0  0  0  0  0  0  0  0  0  0  0  0
    4.4360   -3.9490   -0.1240 C   0  0  0  0  0  0  0  0  0  0  0  0
    3.0870   -3.6770   -0.1590 C   0  0  0  0  0  0  0  0  0  0  0  0
    2.6040   -2.4130    0.0200 C   0  0  0  0  0  0  0  0  0  0  0  0
    3.4820   -1.3500    0.2460 C   0  0  0  0  0  0  0  0  0  0  0  0
    4.8230   -1.6370    0.2780 C   0  0  0  0  0  0  0  0  0  0  0  0
    3.2070    0.0740    0.4540 C   0  0  0  0  0  0  0  0  0  0  0  0
    2.0310    0.6850    0.5970 C   0  0  0  0  0  0  0  0  0  0  0  0
    2.2340    2.1160    0.7780 C   0  0  0  0  0  0  0  0  0  0  0  0
    0.9560    2.7970    0.8140 C   0  0  0  0  0  0  0  0  0  0  0  0
   -0.2580    2.2300    0.7180 C   0  0  0  0  0  0  0  0  0  0  0  0
   -1.6320    3.3060    0.7960 S   0  0  0  0  0  0  0  0  0  0  0  0
   -1.3260    4.9770    0.3140 C   0  0  0  0  0  0  0  0  0  0  0  0
   -2.0170    6.0340    0.6750 N   0  0  0  0  0  0  0  0  0  0  0  0
   -1.4670    7.2400    0.0840 C   0  0  0  0  0  0  0  0  0  0  0  0
    0.0020    6.8250   -0.1530 C   0  0  0  0  0  0  0  0  0  0  0  0
   -0.2740    5.4240   -0.5270 N   0  0  0  0  0  0  0  0  0  0  0  0
    0.3780    4.6960   -1.5810 C   0  0  0  0  0  0  0  0  0  0  0  0
   -0.4310    0.7810    0.5810 C   0  0  0  0  0  0  0  0  0  0  0  0
   -1.6160    0.0930    0.3260 N   0  0  0  0  0  0  0  0  0  0  0  0
   -2.9490    0.5150    0.3240 C   0  0  0  0  0  0  0  0  0  0  0  0
   -3.2470    1.6630    0.5830 O   0  0  0  0  0  0  0  0  0  0  0  0
   -4.0430   -0.4880   -0.0090 C   0  0  1  0  0  0  0  0  0  0  0  0
   -3.8440   -1.0600   -1.3820 C   0  0  0  0  0  0  0  0  0  0  0  0
   -4.5620   -2.4070   -1.2730 C   0  0  0  0  0  0  0  0  0  0  0  0
   -4.0140   -2.9080    0.0490 C   0  0  2  0  0  0  0  0  0  0  0  0
   -2.7310   -3.3940   -0.0920 O   0  0  0  0  0  0  0  0  0  0  0  0
   -4.8110   -3.9040    0.6060 O   0  0  0  0  0  0  0  0  0  0  0  0
   -4.8980   -5.2090   -0.4510 S   0  0  0  0  0  0  0  0  0  0  0  0
   -4.2160   -6.4550    0.1270 O   0  0  0  0  0  0  0  0  0  0  0  0
   -4.0460   -1.6520    0.9220 C   0  0  0  0  0  0  0  0  0  0  0  0
    0.7010    0.0950    0.5450 C   0  0  0  0  0  0  0  0  0  0  0  0
    0.4550   -1.3750    0.6000 C   0  0  0  0  0  0  0  0  0  0  0  0
   -0.5160   -1.6840    1.3240 O   0  0  0  0  0  0  0  0  0  0  0  0
    1.1910   -2.3690   -0.0540 O   0  0  0  0  0  0  0  0  0  0  0  0
  1  2  1  0
  2  3  1  0
  3  4  2  0
  3  8  1  0
  4  5  1  0
  5  6  2  0
  6  7  1  0
  6 37  1  0
  7  8  2  0
  7  9  1  0
  9 10  2  0
 10 11  1  0
 10 34  1  0
 11 12  1  0
 12 13  2  0
 13 14  1  0
 13 21  1  0
 14 15  1  0
 15 16  2  0
 15 19  1  0
 16 17  1  0
 17 18  1  0
 18 19  1  0
 19 20  1  0
 21 22  1  0
 21 34  2  0
 22 23  1  0
 23 24  2  0
 25 23  1  1
 25 26  1  0
 25 33  1  0
 26 27  1  0
 27 28  1  0
 28 29  1  6
 28 30  1  0
 28 33  1  0
 30 31  1  0
 31 32  2  0
 34 35  1  0
 35 36  2  0
 35 37  1  0
M  END
