
     RDKit          3D

 37 41  0  0  0  0  0  0  0  0999 V2000
    7.1230   -1.2690    0.5980 C   0  0  0  0  0  0  0  0  0  0  0  0
    5.6620   -1.5690    0.3930 C   0  0  0  0  0  0  0  0  0  0  0  0
    4.6470   -0.6490    0.2370 C   0  0  0  0  0  0  0  0  0  0  0  0
    3.4880   -1.3090    0.0780 N   0  0  0  0  0  0  0  0  0  0  0  0
    2.1860   -0.7610   -0.1360 C   0  0  0  0  0  0  0  0  0  0  0  0
    1.1030   -1.5870   -0.0630 C   0  0  0  0  0  0  0  0  0  0  0  0
   -0.1600   -1.0370   -0.3030 C   0  0  0  0  0  0  0  0  0  0  0  0
   -0.3800    0.2780   -0.6010 C   0  0  0  0  0  0  0  0  0  0  0  0
   -1.6830    0.8750   -0.7600 C   0  0  0  0  0  0  0  0  0  0  0  0
   -2.7980    0.5910   -0.2150 C   0  0  0  0  0  0  0  0  0  0  0  0
   -3.1690   -0.3780    0.7430 C   0  0  0  0  0  0  0  0  0  0  0  0
   -2.4420   -1.1880    1.3760 O   0  0  0  0  0  0  0  0  0  0  0  0
   -4.5920   -0.5290    1.1200 C   0  0  0  0  0  0  0  0  0  0  0  0
   -4.8880   -0.4670    2.4660 C   0  0  0  0  0  0  0  0  0  0  0  0
   -6.1970   -0.5260    2.8860 C   0  0  0  0  0  0  0  0  0  0  0  0
   -7.1940   -0.6480    1.9420 C   0  0  0  0  0  0  0  0  0  0  0  0
   -6.9000   -0.7110    0.5900 C   0  0  0  0  0  0  0  0  0  0  0  0
   -7.9470   -0.8600   -0.3110 C   0  0  0  0  0  0  0  0  0  0  0  0
   -7.6210   -0.9480   -1.6460 C   0  0  0  0  0  0  0  0  0  0  0  0
   -6.3200   -0.9000   -2.0860 C   0  0  0  0  0  0  0  0  0  0  0  0
   -5.2980   -0.7480   -1.1620 C   0  0  0  0  0  0  0  0  0  0  0  0
   -5.5700   -0.6470    0.1870 C   0  0  0  0  0  0  0  0  0  0  0  0
    0.7740    1.0780   -0.6600 C   0  0  0  0  0  0  0  0  0  0  0  0
    0.6550    2.4540   -0.9620 N   0  0  0  0  0  0  0  0  0  0  0  0
    1.8220    3.2980   -1.0150 C   0  0  0  0  0  0  0  0  0  0  0  0
    3.0950    2.9390   -0.8020 N   0  0  0  0  0  0  0  0  0  0  0  0
    3.9240    4.0010   -0.9270 C   0  0  0  0  0  0  0  0  0  0  0  0
    5.3890    3.9220   -0.7470 C   0  0  1  0  0  0  0  0  0  0  0  0
    5.9710    3.4760   -1.9160 F   0  0  0  0  0  0  0  0  0  0  0  0
    5.9110    5.1550   -0.4100 F   0  0  0  0  0  0  0  0  0  0  0  0
    5.6190    3.0030    0.2690 F   0  0  0  0  0  0  0  0  0  0  0  0
    3.1180    5.0240   -1.2260 N   0  0  0  0  0  0  0  0  0  0  0  0
    1.8520    4.6080   -1.2820 N   0  0  0  0  0  0  0  0  0  0  0  0
    2.0010    0.5290   -0.4270 N   0  0  0  0  0  0  0  0  0  0  0  0
    3.7760   -2.6080    0.1350 N   0  0  0  0  0  0  0  0  0  0  0  0
    5.0740   -2.8150    0.3230 C   0  0  0  0  0  0  0  0  0  0  0  0
    5.7900   -4.1220    0.4340 C   0  0  0  0  0  0  0  0  0  0  0  0
  1  2  1  0
  2  3  2  0
  2 36  1  0
  3  4  1  0
  4  5  1  0
  4 35  1  0
  5  6  2  0
  5 34  1  0
  6  7  1  0
  7  8  2  0
  8  9  1  0
  8 23  1  0
  9 10  2  3
 10 11  1  0
 11 12  2  0
 11 13  1  0
 13 14  2  0
 13 22  1  0
 14 15  1  0
 15 16  2  0
 16 17  1  0
 17 18  2  0
 17 22  1  0
 18 19  1  0
 19 20  2  0
 20 21  1  0
 21 22  2  0
 23 24  1  0
 23 34  2  0
 24 25  1  0
 25 26  2  0
 25 33  1  0
 26 27  1  0
 27 28  1  0
 27 32  2  0
 28 29  1  6
 28 30  1  0
 28 31  1  0
 32 33  1  0
 35 36  2  0
 36 37  1  0
M  END
