
     RDKit          3D

 37 40  0  0  0  0  0  0  0  0999 V2000
    7.4180   -1.0280    3.0660 C   0  0  0  0  0  0  0  0  0  0  0  0
    7.7670   -0.8300    1.8080 C   0  0  0  0  0  0  0  0  0  0  0  0
    6.7780   -0.6460    0.7580 C   0  0  0  0  0  0  0  0  0  0  0  0
    7.0900   -0.4490   -0.5010 C   0  0  0  0  0  0  0  0  0  0  0  0
    8.5290   -0.4180   -0.8420 C   0  0  0  0  0  0  0  0  0  0  0  0
    9.4030   -0.5750    0.0610 N   0  0  0  0  0  0  0  0  0  0  0  0
    9.1990   -0.7950    1.4590 C   0  0  0  0  0  0  0  0  0  0  0  0
    8.5770   -0.1960   -2.3170 C   0  0  0  0  0  0  0  0  0  0  0  0
    7.1960   -0.6090   -2.8150 C   0  0  0  0  0  0  0  0  0  0  0  0
    6.3210   -0.2440   -1.6820 N   0  0  0  0  0  0  0  0  0  0  0  0
    5.0000    0.2120   -1.8480 C   0  0  0  0  0  0  0  0  0  0  0  0
    4.5740    0.2760   -3.0670 O   0  0  0  0  0  0  0  0  0  0  0  0
    4.1080    0.6100   -0.7550 C   0  0  1  0  0  0  0  0  0  0  0  0
    4.7400    1.7890   -0.0420 C   0  0  0  0  0  0  0  0  0  0  0  0
    2.8710    1.0990   -1.3030 O   0  0  0  0  0  0  0  0  0  0  0  0
    1.6560    0.5620   -0.9420 C   0  0  0  0  0  0  0  0  0  0  0  0
    1.6770   -0.3940   -0.1000 O   0  0  0  0  0  0  0  0  0  0  0  0
    0.3400    1.0340   -1.4730 C   0  0  1  0  0  0  0  0  0  0  0  0
    0.2850    0.9940   -2.9650 C   0  0  0  0  0  0  0  0  0  0  0  0
   -0.6680    0.3100   -0.8240 O   0  0  0  0  0  0  0  0  0  0  0  0
   -1.4740    0.9180    0.1020 C   0  0  0  0  0  0  0  0  0  0  0  0
   -1.3130    2.1260    0.3730 O   0  0  0  0  0  0  0  0  0  0  0  0
   -2.5360    0.1520    0.7890 C   0  0  0  0  0  0  0  0  0  0  0  0
   -2.7820    0.7560    2.0890 N   0  0  0  0  0  0  0  0  0  0  0  0
   -3.9970   -0.1080    2.9000 S   0  0  2  0  0  0  0  0  0  0  0  0
   -4.2840    0.4690    4.2690 O   0  0  0  0  0  0  0  0  0  0  0  0
   -3.5240   -1.5270    3.0510 O   0  0  0  0  0  0  0  0  0  0  0  0
   -5.4630   -0.0010    1.9680 C   0  0  0  0  0  0  0  0  0  0  0  0
   -6.6880    1.3020    2.1560 S   0  0  0  0  0  0  0  0  0  0  0  0
   -7.7780    0.7750    0.9990 C   0  0  0  0  0  0  0  0  0  0  0  0
   -7.2030   -0.4120    0.4590 C   0  0  0  0  0  0  0  0  0  0  0  0
   -6.0300   -0.7640    0.9830 C   0  0  0  0  0  0  0  0  0  0  0  0
   -5.3060   -2.0200    0.5010 C   0  0  0  0  0  0  0  0  0  0  0  0
   -8.0770   -1.0030   -0.5990 C   0  0  0  0  0  0  0  0  0  0  0  0
   -9.4450   -1.2300    0.0290 C   0  0  0  0  0  0  0  0  0  0  0  0
  -10.0160   -0.0190    0.6880 C   0  0  0  0  0  0  0  0  0  0  0  0
   -9.1110    1.1800    0.4090 C   0  0  0  0  0  0  0  0  0  0  0  0
  1  2  2  0
  2  3  1  0
  2  7  1  0
  3  4  2  0
  4  5  1  0
  4 10  1  0
  5  6  2  0
  5  8  1  0
  6  7  1  0
  8  9  1  0
  9 10  1  0
 10 11  1  0
 11 12  2  0
 11 13  1  0
 13 14  1  6
 13 15  1  0
 15 16  1  0
 16 17  2  0
 16 18  1  0
 18 19  1  6
 18 20  1  0
 20 21  1  0
 21 22  2  0
 21 23  1  0
 23 24  1  0
 25 24  1  6
 25 26  2  0
 25 27  2  0
 25 28  1  0
 28 29  1  0
 28 32  2  0
 29 30  1  0
 30 31  2  0
 30 37  1  0
 31 32  1  0
 31 34  1  0
 32 33  1  0
 34 35  1  0
 35 36  1  0
 36 37  1  0
M  END
