
     RDKit          3D

 37 40  0  0  0  0  0  0  0  0999 V2000
   -8.7400    0.9210   -2.4840 C   0  0  0  0  0  0  0  0  0  0  0  0
   -8.0320   -0.4270   -2.3460 C   0  0  0  0  0  0  0  0  0  0  0  0
   -7.2710   -0.4110   -1.1580 O   0  0  0  0  0  0  0  0  0  0  0  0
   -7.8370   -0.2060    0.0680 C   0  0  0  0  0  0  0  0  0  0  0  0
   -9.0840   -0.0190    0.1760 O   0  0  0  0  0  0  0  0  0  0  0  0
   -7.0330   -0.1890    1.2970 C   0  0  0  0  0  0  0  0  0  0  0  0
   -5.6600   -0.5460    1.0220 O   0  0  0  0  0  0  0  0  0  0  0  0
   -5.3620   -1.7820    0.4990 C   0  0  0  0  0  0  0  0  0  0  0  0
   -6.3960   -2.5350    0.2920 O   0  0  0  0  0  0  0  0  0  0  0  0
   -4.0590   -2.2850    0.1790 C   0  0  0  0  0  0  0  0  0  0  0  0
   -3.0270   -1.1950   -0.1840 C   0  0  2  0  0  0  0  0  0  0  0  0
   -1.5600   -2.1990   -0.5110 S   0  0  0  0  0  0  0  0  0  0  0  0
   -0.0520   -1.3250   -0.3620 C   0  0  0  0  0  0  0  0  0  0  0  0
    1.1260   -1.8610   -0.4610 N   0  0  0  0  0  0  0  0  0  0  0  0
    2.2470   -1.1050   -0.3290 C   0  0  0  0  0  0  0  0  0  0  0  0
    3.4240   -1.6160   -0.4270 O   0  0  0  0  0  0  0  0  0  0  0  0
    2.0470    0.3070   -0.0750 C   0  0  0  0  0  0  0  0  0  0  0  0
    2.8410    1.3250    0.1200 C   0  0  0  0  0  0  0  0  0  0  0  0
    4.2930    1.3140    0.1430 C   0  0  0  0  0  0  0  0  0  0  0  0
    4.9290    2.4590    0.3410 C   0  0  0  0  0  0  0  0  0  0  0  0
    6.3830    2.5000    0.3760 C   0  0  0  0  0  0  0  0  0  0  0  0
    7.1330    1.4260    0.2170 C   0  0  0  0  0  0  0  0  0  0  0  0
    8.6030    1.4580    0.2490 C   0  0  0  0  0  0  0  0  0  0  0  0
    9.2500    0.3090   -0.2240 N   0  0  0  0  0  0  0  0  0  0  0  0
   10.3260    0.4760   -1.1370 C   0  0  0  0  0  0  0  0  0  0  0  0
    8.6320   -0.9460   -0.1270 C   0  0  0  0  0  0  0  0  0  0  0  0
    7.1580   -0.9390   -0.1620 C   0  0  0  0  0  0  0  0  0  0  0  0
    6.4560    0.1560   -0.0020 C   0  0  0  0  0  0  0  0  0  0  0  0
    5.0740    0.1990   -0.0220 O   0  0  0  0  0  0  0  0  0  0  0  0
    0.2580    0.3980   -0.0340 S   0  0  0  0  0  0  0  0  0  0  0  0
   -2.8570   -0.1890    0.8590 C   0  0  0  0  0  0  0  0  0  0  0  0
   -2.5740    1.1680    0.5970 C   0  0  0  0  0  0  0  0  0  0  0  0
   -2.5550    1.8580   -0.7000 C   0  0  0  0  0  0  0  0  0  0  0  0
   -2.3950    1.7210    1.7980 N   0  0  0  0  0  0  0  0  0  0  0  0
   -2.5450    0.8330    2.7300 O   0  0  0  0  0  0  0  0  0  0  0  0
   -2.8290   -0.3490    2.2170 C   0  0  0  0  0  0  0  0  0  0  0  0
   -3.0480   -1.5380    3.0460 C   0  0  0  0  0  0  0  0  0  0  0  0
  1  2  1  0
  2  3  1  0
  3  4  1  0
  4  5  2  0
  4  6  1  0
  6  7  1  0
  7  8  1  0
  8  9  2  0
  8 10  1  0
 11 10  1  1
 11 12  1  0
 11 31  1  0
 12 13  1  0
 13 14  2  0
 13 30  1  0
 14 15  1  0
 15 16  2  0
 15 17  1  0
 17 18  2  3
 17 30  1  0
 18 19  1  0
 19 20  2  0
 19 29  1  0
 20 21  1  0
 21 22  2  0
 22 23  1  0
 22 28  1  0
 23 24  1  0
 24 25  1  0
 24 26  1  0
 26 27  1  0
 27 28  2  0
 28 29  1  0
 31 32  1  0
 31 36  2  0
 32 33  1  0
 32 34  2  0
 34 35  1  0
 35 36  1  0
 36 37  1  0
M  END
