
     RDKit          3D

 37 40  0  0  0  0  0  0  0  0999 V2000
   -7.3630   -2.5620   -1.3690 N   0  0  0  0  0  0  0  0  0  0  0  0
   -6.4790   -2.8360   -0.2910 C   0  0  0  0  0  0  0  0  0  0  0  0
   -6.8900   -3.5250    0.6860 N   0  0  0  0  0  0  0  0  0  0  0  0
   -5.1210   -2.3170   -0.3360 C   0  0  0  0  0  0  0  0  0  0  0  0
   -4.1930   -2.5190    0.6640 C   0  0  0  0  0  0  0  0  0  0  0  0
   -2.9200   -1.9840    0.5260 C   0  0  0  0  0  0  0  0  0  0  0  0
   -2.4960   -1.2530   -0.5510 C   0  0  0  0  0  0  0  0  0  0  0  0
   -1.1530   -0.7260   -0.6680 C   0  0  0  0  0  0  0  0  0  0  0  0
   -0.8900    0.6340   -0.0830 C   0  0  1  0  0  0  0  0  0  0  0  0
    0.5400    0.8720   -0.3790 N   0  0  0  0  0  0  0  0  0  0  0  0
    1.4770    1.2690    0.5920 C   0  0  0  0  0  0  0  0  0  0  0  0
    1.0780    1.4330    1.7750 O   0  0  0  0  0  0  0  0  0  0  0  0
    2.9080    1.4970    0.2570 C   0  0  0  0  0  0  0  0  0  0  0  0
    3.6540    1.9170    1.4420 N   0  0  0  0  0  0  0  0  0  0  0  0
    5.2980    2.1820    1.0840 S   0  0  1  0  0  0  0  0  0  0  0  0
    5.4700    3.3090    0.0840 O   0  0  0  0  0  0  0  0  0  0  0  0
    6.0230    2.6480    2.3370 O   0  0  0  0  0  0  0  0  0  0  0  0
    6.1440    0.7820    0.5150 C   0  0  0  0  0  0  0  0  0  0  0  0
    6.1110    0.4750   -0.8220 C   0  0  0  0  0  0  0  0  0  0  0  0
    6.7980   -0.6520   -1.2840 C   0  0  0  0  0  0  0  0  0  0  0  0
    7.5130   -1.4740   -0.4380 C   0  0  0  0  0  0  0  0  0  0  0  0
    8.2020   -2.5870   -0.8410 C   0  0  0  0  0  0  0  0  0  0  0  0
    8.9190   -3.4080    0.0100 C   0  0  0  0  0  0  0  0  0  0  0  0
    8.9350   -3.0730    1.3560 C   0  0  0  0  0  0  0  0  0  0  0  0
    8.2510   -1.9590    1.7900 C   0  0  0  0  0  0  0  0  0  0  0  0
    7.5490   -1.1670    0.9140 C   0  0  0  0  0  0  0  0  0  0  0  0
    6.8530   -0.0370    1.3420 C   0  0  0  0  0  0  0  0  0  0  0  0
   -1.6230    1.7060   -0.7880 C   0  0  0  0  0  0  0  0  0  0  0  0
   -1.0800    2.2880   -1.7500 O   0  0  0  0  0  0  0  0  0  0  0  0
   -2.9270    2.1040   -0.4070 N   0  0  0  0  0  0  0  0  0  0  0  0
   -3.6550    1.5280    0.7130 C   0  0  0  0  0  0  0  0  0  0  0  0
   -4.4620    2.6730    1.3170 C   0  0  0  0  0  0  0  0  0  0  0  0
   -5.6130    2.9550    0.3480 C   0  0  0  0  0  0  0  0  0  0  0  0
   -5.1140    2.8940   -1.0850 C   0  0  0  0  0  0  0  0  0  0  0  0
   -3.6270    3.1660   -1.1420 C   0  0  0  0  0  0  0  0  0  0  0  0
   -3.4470   -1.0590   -1.5520 C   0  0  0  0  0  0  0  0  0  0  0  0
   -4.7150   -1.5690   -1.4550 C   0  0  0  0  0  0  0  0  0  0  0  0
  1  2  1  0
  2  3  2  0
  2  4  1  0
  4  5  2  0
  4 37  1  0
  5  6  1  0
  6  7  2  0
  7  8  1  0
  7 36  1  0
  9  8  1  6
  9 10  1  0
  9 28  1  0
 10 11  1  0
 11 12  2  0
 11 13  1  0
 13 14  1  0
 15 14  1  1
 15 16  2  0
 15 17  2  0
 15 18  1  0
 18 19  2  0
 18 27  1  0
 19 20  1  0
 20 21  2  0
 21 22  1  0
 21 26  1  0
 22 23  2  0
 23 24  1  0
 24 25  2  0
 25 26  1  0
 26 27  2  0
 28 29  2  0
 28 30  1  0
 30 31  1  0
 30 35  1  0
 31 32  1  0
 32 33  1  0
 33 34  1  0
 34 35  1  0
 36 37  2  0
M  CHG  1   3   1
M  END
