
     RDKit          3D

 30 33  0  0  0  0  0  0  0  0999 V2000
   -6.9450    0.5970   -1.7090 N   0  0  0  0  0  0  0  0  0  0  0  0
   -6.5960   -0.0920   -0.4640 C   0  0  0  0  0  0  0  0  0  0  0  0
   -5.2000   -0.1490   -0.1520 C   0  0  0  0  0  0  0  0  0  0  0  0
   -4.2570    0.5500    0.3980 C   0  0  0  0  0  0  0  0  0  0  0  0
   -2.9640   -0.0560    0.4340 C   0  0  0  0  0  0  0  0  0  0  0  0
   -1.8600    0.5280    0.9750 C   0  0  0  0  0  0  0  0  0  0  0  0
   -0.5570   -0.1400    0.9850 C   0  0  0  0  0  0  0  0  0  0  0  0
    0.6220    0.2670    1.4620 N   0  0  0  0  0  0  0  0  0  0  0  0
    1.5570   -0.6800    1.2510 C   0  0  0  0  0  0  0  0  0  0  0  0
    0.9340   -1.6930    0.6290 N   0  0  0  0  0  0  0  0  0  0  0  0
   -0.3410   -1.3590    0.4720 N   0  0  0  0  0  0  0  0  0  0  0  0
    1.6660   -2.8500    0.2720 C   0  0  0  0  0  0  0  0  0  0  0  0
    1.2070   -3.6160   -0.6030 O   0  0  0  0  0  0  0  0  0  0  0  0
    2.9490   -3.0660    0.9820 C   0  0  0  0  0  0  0  0  0  0  0  0
    3.7520   -1.7660    0.8270 C   0  0  1  0  0  0  0  0  0  0  0  0
    3.9050   -1.4220   -0.5570 N   0  0  0  0  0  0  0  0  0  0  0  0
    4.7360   -0.4150   -1.0840 C   0  0  0  0  0  0  0  0  0  0  0  0
    5.5990    0.2840   -0.2700 C   0  0  0  0  0  0  0  0  0  0  0  0
    6.4380    1.2710   -0.7940 C   0  0  0  0  0  0  0  0  0  0  0  0
    6.4160    1.5600   -2.1320 C   0  0  0  0  0  0  0  0  0  0  0  0
    7.4500    2.7900   -2.8380 Cl  0  0  0  0  0  0  0  0  0  0  0  0
    5.5560    0.8670   -2.9650 C   0  0  0  0  0  0  0  0  0  0  0  0
    4.7350   -0.1030   -2.4270 C   0  0  0  0  0  0  0  0  0  0  0  0
    3.6620   -0.9520   -3.5360 Cl  0  0  0  0  0  0  0  0  0  0  0  0
    2.9940   -0.6990    1.5930 C   0  0  0  0  0  0  0  0  0  0  0  0
   -2.0360    1.7760    1.5110 C   0  0  0  0  0  0  0  0  0  0  0  0
   -3.2430    2.3970    1.5030 C   0  0  0  0  0  0  0  0  0  0  0  0
   -4.4000    1.8000    0.9420 C   0  0  0  0  0  0  0  0  0  0  0  0
   -5.5030    2.5210    0.9840 C   0  0  0  0  0  0  0  0  0  0  0  0
   -6.7260    2.3060    0.5580 F   0  0  0  0  0  0  0  0  0  0  0  0
  1  2  1  0
  2  3  1  0
  3  4  2  3
  4  5  1  0
  4 28  1  0
  5  6  2  0
  6  7  1  0
  6 26  1  0
  7  8  1  0
  7 11  2  0
  8  9  2  0
  9 10  1  0
  9 25  1  0
 10 11  1  0
 10 12  1  0
 12 13  2  0
 12 14  1  0
 14 15  1  0
 15 16  1  6
 15 25  1  0
 16 17  1  0
 17 18  2  0
 17 23  1  0
 18 19  1  0
 19 20  2  0
 20 21  1  0
 20 22  1  0
 22 23  2  0
 23 24  1  0
 26 27  2  0
 27 28  1  0
 28 29  2  3
 29 30  1  0
M  CHG  1   1   1
M  END
