
     RDKit          3D

 30 32  0  0  0  0  0  0  0  0999 V2000
    2.6000    3.8760    0.8590 C   0  0  0  0  0  0  0  0  0  0  0  0
    2.8060    2.5680    1.6450 C   0  0  0  0  0  0  0  0  0  0  0  0
    1.5520    1.7930    1.5320 C   0  0  0  0  0  0  0  0  0  0  0  0
    1.0640    1.0580    0.4800 C   0  0  0  0  0  0  0  0  0  0  0  0
    1.6810    0.7530   -0.7770 C   0  0  0  0  0  0  0  0  0  0  0  0
    2.7840    0.0800   -0.9560 C   0  0  0  0  0  0  0  0  0  0  0  0
    3.5490   -0.4740    0.2160 C   0  0  0  0  0  0  0  0  0  0  0  0
    3.3000   -0.1520   -2.2710 N   0  0  0  0  0  0  0  0  0  0  0  0
    4.3590   -1.0430   -2.4860 C   0  0  0  0  0  0  0  0  0  0  0  0
    4.1490   -2.3590   -2.5400 C   0  0  0  0  0  0  0  0  0  0  0  0
    2.5370   -2.9640   -2.3400 Cl  0  0  0  0  0  0  0  0  0  0  0  0
    5.7160   -0.6190   -2.6610 N   0  0  0  0  0  0  0  0  0  0  0  0
    6.6220   -1.0830   -1.8780 C   0  0  0  0  0  0  0  0  0  0  0  0
    7.9200   -0.7260   -1.9870 F   0  0  0  0  0  0  0  0  0  0  0  0
   -0.1640    0.5610    0.8120 N   0  0  0  0  0  0  0  0  0  0  0  0
   -0.4500    0.9600    2.0290 N   0  0  0  0  0  0  0  0  0  0  0  0
    0.5480    1.7060    2.5160 C   0  0  0  0  0  0  0  0  0  0  0  0
    0.6070    2.2430    3.6380 O   0  0  0  0  0  0  0  0  0  0  0  0
   -1.7490    0.5100    2.5530 C   0  0  0  0  0  0  0  0  0  0  0  0
   -2.7870    0.9070    1.5410 C   0  0  0  0  0  0  0  0  0  0  0  0
   -2.4290    0.5150    0.1260 C   0  0  2  0  0  0  0  0  0  0  0  0
   -3.5230   -0.2300   -0.5020 C   0  0  0  0  0  0  0  0  0  0  0  0
   -3.9290   -1.4690   -0.0430 C   0  0  0  0  0  0  0  0  0  0  0  0
   -4.9600   -2.1430   -0.6540 C   0  0  0  0  0  0  0  0  0  0  0  0
   -5.3580   -3.4220   -0.1580 N   0  0  0  0  0  0  0  0  0  0  0  0
   -5.6350   -1.6230   -1.7460 C   0  0  0  0  0  0  0  0  0  0  0  0
   -5.2290   -0.3870   -2.2050 C   0  0  0  0  0  0  0  0  0  0  0  0
   -6.0770    0.2860   -3.5920 Cl  0  0  0  0  0  0  0  0  0  0  0  0
   -4.1920    0.2860   -1.5860 C   0  0  0  0  0  0  0  0  0  0  0  0
   -1.1090   -0.2670    0.0730 C   0  0  0  0  0  0  0  0  0  0  0  0
  1  2  1  0
  2  3  1  0
  3  4  2  0
  3 17  1  0
  4  5  1  0
  4 15  1  0
  5  6  2  3
  6  7  1  0
  6  8  1  0
  8  9  1  0
  9 10  2  3
  9 12  1  0
 10 11  1  0
 12 13  2  3
 13 14  1  0
 15 16  1  0
 15 30  1  0
 16 17  1  0
 16 19  1  0
 17 18  2  0
 19 20  1  0
 20 21  1  0
 21 22  1  1
 21 30  1  0
 22 23  2  0
 22 29  1  0
 23 24  1  0
 24 25  1  0
 24 26  2  0
 26 27  1  0
 27 28  1  0
 27 29  2  0
M  CHG  1  25   1
M  END
