
     RDKit          3D

 29 31  0  0  0  0  0  0  0  0999 V2000
   -3.1090    5.7730   -0.9630 C   0  0  0  0  0  0  0  0  0  0  0  0
   -2.2080    4.7890   -0.8620 C   0  0  0  0  0  0  0  0  0  0  0  0
   -2.5340    3.5380   -0.1330 C   0  0  0  0  0  0  0  0  0  0  0  0
   -1.6150    3.3590    0.9650 N   0  0  0  0  0  0  0  0  0  0  0  0
   -0.2590    3.0820    0.6970 C   0  0  0  0  0  0  0  0  0  0  0  0
    0.1900    1.8860    0.3730 C   0  0  0  0  0  0  0  0  0  0  0  0
    1.6200    1.6490    0.1020 C   0  0  0  0  0  0  0  0  0  0  0  0
    1.8580    0.3320   -0.3970 N   0  0  0  0  0  0  0  0  0  0  0  0
    3.0360   -0.3730   -0.0760 C   0  0  0  0  0  0  0  0  0  0  0  0
    3.1360   -0.9240    1.1180 C   0  0  0  0  0  0  0  0  0  0  0  0
    4.3420   -1.6890    1.5500 C   0  0  0  0  0  0  0  0  0  0  0  0
    5.2910   -1.8350    0.4790 N   0  0  0  0  0  0  0  0  0  0  0  0
    6.6690   -1.9920    0.7520 C   0  0  0  0  0  0  0  0  0  0  0  0
    7.4960   -2.1190   -0.1910 O   0  0  0  0  0  0  0  0  0  0  0  0
    7.1580   -2.0110    2.0460 O   0  0  0  0  0  0  0  0  0  0  0  0
    8.5490   -2.1710    2.2630 C   0  0  0  0  0  0  0  0  0  0  0  0
    4.8240   -1.8200   -0.8830 C   0  0  0  0  0  0  0  0  0  0  0  0
    4.1150   -0.4760   -1.0720 C   0  0  0  0  0  0  0  0  0  0  0  0
    0.8800   -0.3010   -1.2480 C   0  0  0  0  0  0  0  0  0  0  0  0
   -0.4020   -0.3370   -0.5270 C   0  0  0  0  0  0  0  0  0  0  0  0
   -1.4270   -1.2520   -0.4460 C   0  0  0  0  0  0  0  0  0  0  0  0
   -2.3710   -0.7170    0.4000 C   0  0  0  0  0  0  0  0  0  0  0  0
   -3.6440   -1.4000    0.7550 C   0  0  0  0  0  0  0  0  0  0  0  0
   -4.6970   -1.0670   -0.1760 N   0  0  1  0  0  0  0  0  0  0  0  0
   -4.8650   -2.1660   -1.1060 C   0  0  0  0  0  0  0  0  0  0  0  0
   -5.9200   -0.6530    0.4430 C   0  0  0  0  0  0  0  0  0  0  0  0
   -6.7410   -1.8110    0.9490 C   0  0  0  0  0  0  0  0  0  0  0  0
   -1.9310    0.4790    0.8130 N   0  0  0  0  0  0  0  0  0  0  0  0
   -0.7330    0.7530    0.2740 C   0  0  0  0  0  0  0  0  0  0  0  0
  1  2  2  0
  2  3  1  0
  3  4  1  0
  4  5  1  0
  5  6  2  3
  6  7  1  0
  6 29  1  0
  7  8  1  0
  8  9  1  0
  8 19  1  0
  9 10  2  0
  9 18  1  0
 10 11  1  0
 11 12  1  0
 12 13  1  0
 12 17  1  0
 13 14  2  0
 13 15  1  0
 15 16  1  0
 17 18  1  0
 19 20  1  0
 20 21  1  0
 20 29  2  0
 21 22  2  0
 22 23  1  0
 22 28  1  0
 23 24  1  0
 24 25  1  1
 24 26  1  0
 26 27  1  0
 28 29  1  0
M  CHG  1  24   1
M  END
