
     RDKit          3D

 29 31  0  0  0  0  0  0  0  0999 V2000
    6.6190   -2.6200   -1.1140 C   0  0  0  0  0  0  0  0  0  0  0  0
    6.0130   -1.6120   -0.4970 C   0  0  0  0  0  0  0  0  0  0  0  0
    6.6420   -0.6400    0.4170 C   0  0  0  0  0  0  0  0  0  0  0  0
    5.5760    0.2090    0.8020 N   0  0  0  0  0  0  0  0  0  0  0  0
    4.4310   -0.1300    0.2370 C   0  0  0  0  0  0  0  0  0  0  0  0
    3.2060    0.6040    0.4900 C   0  0  0  0  0  0  0  0  0  0  0  0
    3.2770    1.7910    1.4290 C   0  0  0  0  0  0  0  0  0  0  0  0
    2.0520    0.2930   -0.0510 C   0  0  0  0  0  0  0  0  0  0  0  0
    0.8830    1.1350    0.3000 C   0  0  0  0  0  0  0  0  0  0  0  0
   -0.2900    0.8400   -0.2270 C   0  0  0  0  0  0  0  0  0  0  0  0
   -0.3840   -0.2330   -1.0740 O   0  0  0  0  0  0  0  0  0  0  0  0
   -0.6340   -1.5520   -0.7720 C   0  0  0  0  0  0  0  0  0  0  0  0
   -1.9480   -1.7490   -0.1370 C   0  0  0  0  0  0  0  0  0  0  0  0
   -2.7030   -0.7770    0.0410 O   0  0  0  0  0  0  0  0  0  0  0  0
   -2.3470   -3.0360    0.2680 N   0  0  0  0  0  0  0  0  0  0  0  0
   -1.5730   -4.2410    0.1220 C   0  0  0  0  0  0  0  0  0  0  0  0
   -2.6580   -5.2450   -0.2120 C   0  0  0  0  0  0  0  0  0  0  0  0
   -3.6890   -4.9040    0.8430 C   0  0  0  0  0  0  0  0  0  0  0  0
   -3.5910   -3.3950    0.9000 C   0  0  0  0  0  0  0  0  0  0  0  0
   -1.4340    1.6610    0.1060 N   0  0  0  0  0  0  0  0  0  0  0  0
   -1.8410    1.9520    1.4530 C   0  0  0  0  0  0  0  0  0  0  0  0
   -2.0690    3.4150    1.6510 C   0  0  0  0  0  0  0  0  0  0  0  0
   -2.7040    4.1050    0.4910 C   0  0  1  0  0  0  0  0  0  0  0  0
   -1.7650    5.0180   -0.1050 N   0  0  0  0  0  0  0  0  0  0  0  0
   -3.2910    3.1280   -0.4980 C   0  0  1  0  0  0  0  0  0  0  0  0
   -3.8520    3.8710   -1.6860 C   0  0  0  0  0  0  0  0  0  0  0  0
   -2.1880    2.2240   -0.9900 C   0  0  0  0  0  0  0  0  0  0  0  0
    4.6180   -1.2500   -0.5840 N   0  0  0  0  0  0  0  0  0  0  0  0
    3.6850   -1.9990   -1.4160 C   0  0  0  0  0  0  0  0  0  0  0  0
  1  2  2  0
  2  3  1  0
  2 28  1  0
  3  4  1  0
  4  5  2  0
  5  6  1  0
  5 28  1  0
  6  7  1  0
  6  8  2  3
  8  9  1  0
  9 10  2  3
 10 11  1  0
 10 20  1  0
 11 12  1  0
 12 13  1  0
 13 14  2  0
 13 15  1  0
 15 16  1  0
 15 19  1  0
 16 17  1  0
 17 18  1  0
 18 19  1  0
 20 21  1  0
 20 27  1  0
 21 22  1  0
 22 23  1  0
 23 24  1  6
 23 25  1  0
 25 26  1  6
 25 27  1  0
 28 29  1  0
M  CHG  1  24   1
M  END
