
     RDKit          3D

 30 32  0  0  0  0  0  0  0  0999 V2000
    5.8530    0.7340    2.7380 C   0  0  0  0  0  0  0  0  0  0  0  0
    4.9040    0.7960    1.6110 C   0  0  0  0  0  0  0  0  0  0  0  0
    4.4960   -0.3920    1.0400 C   0  0  0  0  0  0  0  0  0  0  0  0
    3.6100   -0.3720   -0.0160 C   0  0  0  0  0  0  0  0  0  0  0  0
    3.1250    0.8240   -0.5100 C   0  0  0  0  0  0  0  0  0  0  0  0
    2.0170    0.7720   -1.8350 S   0  0  2  0  0  0  0  0  0  0  0  0
    2.3300   -0.4130   -2.7040 O   0  0  0  0  0  0  0  0  0  0  0  0
    2.2110    2.0230   -2.6510 O   0  0  0  0  0  0  0  0  0  0  0  0
    0.3870    0.6990   -1.3670 N   0  0  0  0  0  0  0  0  0  0  0  0
    0.0500   -0.4820   -0.5960 C   0  0  1  0  0  0  0  0  0  0  0  0
   -0.3770    0.0360    0.7640 C   0  0  0  0  0  0  0  0  0  0  0  0
   -1.5620    0.9490    0.6340 C   0  0  0  0  0  0  0  0  0  0  0  0
   -2.8330    0.4280    0.7000 C   0  0  0  0  0  0  0  0  0  0  0  0
   -3.9230    1.2570    0.5800 C   0  0  0  0  0  0  0  0  0  0  0  0
   -3.7300    2.6210    0.3930 C   0  0  0  0  0  0  0  0  0  0  0  0
   -2.4840    3.1880    0.3200 C   0  0  0  0  0  0  0  0  0  0  0  0
   -2.2330    4.6110    0.1240 C   0  0  0  0  0  0  0  0  0  0  0  0
   -0.8980    5.1250    0.0590 N   0  0  0  0  0  0  0  0  0  0  0  0
   -3.2030    5.4310    0.0060 N   0  0  0  0  0  0  0  0  0  0  0  0
   -1.4140    2.2970    0.4480 C   0  0  0  0  0  0  0  0  0  0  0  0
   -1.0080   -1.2830   -1.2650 C   0  0  0  0  0  0  0  0  0  0  0  0
   -1.5270   -0.8370   -2.3530 O   0  0  0  0  0  0  0  0  0  0  0  0
   -1.5040   -2.5210   -0.8010 N   0  0  0  0  0  0  0  0  0  0  0  0
   -0.9430   -3.0900    0.4100 C   0  0  0  0  0  0  0  0  0  0  0  0
   -0.8760   -4.6060    0.3290 C   0  0  0  0  0  0  0  0  0  0  0  0
   -1.0420   -5.0240   -1.1270 C   0  0  0  0  0  0  0  0  0  0  0  0
   -2.4950   -4.6730   -1.4760 C   0  0  0  0  0  0  0  0  0  0  0  0
   -2.5540   -3.1730   -1.5510 C   0  0  0  0  0  0  0  0  0  0  0  0
    3.5150    2.0290    0.0400 C   0  0  0  0  0  0  0  0  0  0  0  0
    4.4050    1.9740    1.0980 C   0  0  0  0  0  0  0  0  0  0  0  0
  1  2  1  0
  2  3  2  0
  2 30  1  0
  3  4  1  0
  4  5  2  0
  5  6  1  0
  5 29  1  0
  6  7  2  0
  6  8  2  0
  6  9  1  1
  9 10  1  0
 10 11  1  1
 10 21  1  0
 11 12  1  0
 12 13  2  0
 12 20  1  0
 13 14  1  0
 14 15  2  0
 15 16  1  0
 16 17  1  0
 16 20  2  0
 17 18  1  0
 17 19  2  0
 21 22  2  0
 21 23  1  0
 23 24  1  0
 23 28  1  0
 24 25  1  0
 25 26  1  0
 26 27  1  0
 27 28  1  0
 29 30  2  0
M  CHG  1  19   1
M  END
