
     RDKit          3D

 34 36  0  0  0  0  0  0  0  0999 V2000
   -0.7300   -3.4730    2.0950 C   0  0  0  0  0  0  0  0  0  0  0  0
   -1.5560   -2.6470    3.0200 C   0  0  0  0  0  0  0  0  0  0  0  0
   -2.4000   -1.7170    2.4430 O   0  0  0  0  0  0  0  0  0  0  0  0
   -2.1300   -0.6480    1.6550 C   0  0  0  0  0  0  0  0  0  0  0  0
   -0.8610   -0.2640    1.2570 C   0  0  0  0  0  0  0  0  0  0  0  0
   -0.6210    0.8290    0.4540 C   0  0  0  0  0  0  0  0  0  0  0  0
    0.5870    1.2440    0.0340 O   0  0  0  0  0  0  0  0  0  0  0  0
    1.8820    0.8380    0.1660 C   0  0  0  0  0  0  0  0  0  0  0  0
    2.1590   -0.5160   -0.4160 C   0  0  0  0  0  0  0  0  0  0  0  0
    3.5220   -0.9110   -0.2670 O   0  0  0  0  0  0  0  0  0  0  0  0
    4.5910   -0.2410   -0.8150 C   0  0  0  0  0  0  0  0  0  0  0  0
    4.4130    0.7770   -1.4970 O   0  0  0  0  0  0  0  0  0  0  0  0
    5.9610   -0.7130   -0.6070 C   0  0  0  0  0  0  0  0  0  0  0  0
    6.2230   -1.8390    0.1430 C   0  0  0  0  0  0  0  0  0  0  0  0
    7.5340   -2.2580    0.3220 C   0  0  0  0  0  0  0  0  0  0  0  0
    8.6100   -1.5990   -0.2170 C   0  0  0  0  0  0  0  0  0  0  0  0
    9.9350   -2.0100   -0.0450 O   0  0  0  0  0  0  0  0  0  0  0  0
    8.3230   -0.4750   -0.9630 C   0  0  0  0  0  0  0  0  0  0  0  0
    7.0330   -0.0420   -1.1540 C   0  0  0  0  0  0  0  0  0  0  0  0
   -1.7550    1.5560    0.0460 C   0  0  0  0  0  0  0  0  0  0  0  0
   -1.5110    2.6590   -0.7630 O   0  0  0  0  0  0  0  0  0  0  0  0
   -1.4650    2.6040   -2.1720 C   0  0  0  0  0  0  0  0  0  0  0  0
   -3.0370    1.2160    0.4140 C   0  0  0  0  0  0  0  0  0  0  0  0
   -4.1350    2.0390    0.0080 C   0  0  0  0  0  0  0  0  0  0  0  0
   -4.1070    3.3840    0.4090 C   0  0  0  0  0  0  0  0  0  0  0  0
   -5.1680    4.2140    0.1270 C   0  0  0  0  0  0  0  0  0  0  0  0
   -6.2730    3.7420   -0.5520 C   0  0  0  0  0  0  0  0  0  0  0  0
   -6.3080    2.4280   -0.9490 C   0  0  0  0  0  0  0  0  0  0  0  0
   -5.2160    1.5670   -0.6620 C   0  0  0  0  0  0  0  0  0  0  0  0
   -5.2640    0.2210   -1.1820 C   0  0  0  0  0  0  0  0  0  0  0  0
   -6.3150   -0.1730   -1.7500 O   0  0  0  0  0  0  0  0  0  0  0  0
   -4.2270   -0.6460   -1.0920 O   0  0  0  0  0  0  0  0  0  0  0  0
   -4.1460   -1.9580   -1.5540 C   0  0  0  0  0  0  0  0  0  0  0  0
   -3.2050    0.1080    1.2210 C   0  0  0  0  0  0  0  0  0  0  0  0
  1  2  1  0
  2  3  1  0
  3  4  1  0
  4  5  2  0
  4 34  1  0
  5  6  1  0
  6  7  1  0
  6 20  2  0
  7  8  1  0
  8  9  1  0
  9 10  1  0
 10 11  1  0
 11 12  2  0
 11 13  1  0
 13 14  2  0
 13 19  1  0
 14 15  1  0
 15 16  2  0
 16 17  1  0
 16 18  1  0
 18 19  2  0
 20 21  1  0
 20 23  1  0
 21 22  1  0
 23 24  1  0
 23 34  2  0
 24 25  2  0
 24 29  1  0
 25 26  1  0
 26 27  2  0
 27 28  1  0
 28 29  2  0
 29 30  1  0
 30 31  2  0
 30 32  1  0
 32 33  1  0
M  END
