
     RDKit          3D

 34 36  0  0  0  0  0  0  0  0999 V2000
   -6.3580    4.2030    3.1510 C   0  0  0  0  0  0  0  0  0  0  0  0
   -5.1190    3.5510    3.0870 O   0  0  0  0  0  0  0  0  0  0  0  0
   -4.9000    2.4160    2.3560 C   0  0  0  0  0  0  0  0  0  0  0  0
   -3.8620    1.6490    2.5770 C   0  0  0  0  0  0  0  0  0  0  0  0
   -3.6250    0.4380    1.8000 C   0  0  0  0  0  0  0  0  0  0  0  0
   -2.5660   -0.3150    2.0480 C   0  0  0  0  0  0  0  0  0  0  0  0
   -2.3020   -1.4690    1.3380 O   0  0  0  0  0  0  0  0  0  0  0  0
   -2.5390   -1.4650   -0.0530 C   0  0  2  0  0  0  0  0  0  0  0  0
   -2.1990   -2.8030   -0.6770 C   0  0  0  0  0  0  0  0  0  0  0  0
   -3.0260   -3.9070   -0.0800 C   0  0  0  0  0  0  0  0  0  0  0  0
   -4.4960   -3.7090   -0.2680 C   0  0  0  0  0  0  0  0  0  0  0  0
   -4.8710   -3.6350   -1.5960 O   0  0  0  0  0  0  0  0  0  0  0  0
   -4.5420   -4.7970   -2.2770 C   0  0  0  0  0  0  0  0  0  0  0  0
   -1.7860   -0.3350   -0.6700 C   0  0  0  0  0  0  0  0  0  0  0  0
   -0.3910   -0.4240   -0.4660 O   0  0  0  0  0  0  0  0  0  0  0  0
    0.4090    0.5960   -1.0100 C   0  0  0  0  0  0  0  0  0  0  0  0
   -0.1650    1.6410   -1.7160 C   0  0  0  0  0  0  0  0  0  0  0  0
    0.6000    2.6510   -2.2570 C   0  0  0  0  0  0  0  0  0  0  0  0
    1.9660    2.5640   -2.0580 C   0  0  0  0  0  0  0  0  0  0  0  0
    2.5780    1.5440   -1.3630 C   0  0  0  0  0  0  0  0  0  0  0  0
    1.7710    0.5550   -0.8390 C   0  0  0  0  0  0  0  0  0  0  0  0
    4.0210    1.8240   -1.3890 C   0  0  2  0  0  0  0  0  0  0  0  0
    4.7540    1.2110   -0.3840 O   0  0  0  0  0  0  0  0  0  0  0  0
    5.7580    0.2810   -0.5600 C   0  0  0  0  0  0  0  0  0  0  0  0
    6.0120   -0.0230   -1.7420 O   0  0  0  0  0  0  0  0  0  0  0  0
    6.4970   -0.3330    0.5290 C   0  0  0  0  0  0  0  0  0  0  0  0
    6.2660   -0.0430    1.8560 C   0  0  0  0  0  0  0  0  0  0  0  0
    7.0290   -0.6850    2.8390 C   0  0  0  0  0  0  0  0  0  0  0  0
    7.9520   -1.5500    2.5200 O   0  0  0  0  0  0  0  0  0  0  0  0
    8.2160   -1.8660    1.2630 C   0  0  0  0  0  0  0  0  0  0  0  0
    9.1190   -2.7080    1.0390 O   0  0  0  0  0  0  0  0  0  0  0  0
    7.4820   -1.2530    0.2470 C   0  0  0  0  0  0  0  0  0  0  0  0
    4.0980    3.2970   -1.4720 C   0  0  0  0  0  0  0  0  0  0  0  0
    3.0110    3.5430   -2.5400 C   0  0  0  0  0  0  0  0  0  0  0  0
  1  2  1  0
  2  3  1  0
  3  4  2  3
  4  5  1  0
  5  6  2  3
  6  7  1  0
  7  8  1  0
  8  9  1  6
  8 14  1  0
  9 10  1  0
 10 11  1  0
 11 12  1  0
 12 13  1  0
 14 15  1  0
 15 16  1  0
 16 17  2  0
 16 21  1  0
 17 18  1  0
 18 19  2  0
 19 20  1  0
 19 34  1  0
 20 21  2  0
 20 22  1  0
 22 23  1  1
 22 33  1  0
 23 24  1  0
 24 25  2  0
 24 26  1  0
 26 27  1  0
 26 32  2  0
 27 28  2  0
 28 29  1  0
 29 30  1  0
 30 31  2  0
 30 32  1  0
 33 34  1  0
M  END
