
     RDKit          3D

 34 36  0  0  0  0  0  0  0  0999 V2000
   -8.0010    4.6400   -0.0500 C   0  0  0  0  0  0  0  0  0  0  0  0
   -7.2800    3.3110   -0.2320 C   0  0  0  0  0  0  0  0  0  0  0  0
   -5.9320    3.5530   -0.2280 O   0  0  0  0  0  0  0  0  0  0  0  0
   -5.2630    2.4550   -0.3900 O   0  0  0  0  0  0  0  0  0  0  0  0
   -5.9040    1.3090    0.0470 C   0  0  0  0  0  0  0  0  0  0  0  0
   -4.9400    0.1630   -0.2410 C   0  0  0  0  0  0  0  0  0  0  0  0
   -3.6820    0.4500    0.5200 C   0  0  0  0  0  0  0  0  0  0  0  0
   -2.6990   -0.5630    0.3010 O   0  0  0  0  0  0  0  0  0  0  0  0
   -1.4660   -0.4070    0.9500 C   0  0  0  0  0  0  0  0  0  0  0  0
   -1.2190    0.6860    1.7760 C   0  0  0  0  0  0  0  0  0  0  0  0
    0.0010    0.8110    2.3970 C   0  0  0  0  0  0  0  0  0  0  0  0
    0.9750   -0.1380    2.2060 C   0  0  0  0  0  0  0  0  0  0  0  0
    2.2730    0.0100    2.8270 C   0  0  0  0  0  0  0  0  0  0  0  0
    2.3600    0.0190    4.0650 O   0  0  0  0  0  0  0  0  0  0  0  0
    3.4340    0.1470    1.9350 C   0  0  0  0  0  0  0  0  0  0  0  0
    3.2450    0.4960    0.6060 C   0  0  0  0  0  0  0  0  0  0  0  0
    4.2810    0.6470   -0.2890 C   0  0  0  0  0  0  0  0  0  0  0  0
    5.5770    0.4470    0.1360 C   0  0  0  0  0  0  0  0  0  0  0  0
    6.6510    0.5800   -0.6990 O   0  0  0  0  0  0  0  0  0  0  0  0
    6.5540    0.9280   -2.0660 C   0  0  0  0  0  0  0  0  0  0  0  0
    5.9400    2.1750   -2.1390 O   0  0  0  0  0  0  0  0  0  0  0  0
    6.6530    3.1600   -1.4730 C   0  0  0  0  0  0  0  0  0  0  0  0
    5.7880    0.1000    1.4530 C   0  0  0  0  0  0  0  0  0  0  0  0
    4.7290   -0.0520    2.3560 C   0  0  0  0  0  0  0  0  0  0  0  0
    0.7250   -1.2120    1.3930 C   0  0  0  0  0  0  0  0  0  0  0  0
    1.6510   -2.1990    1.1640 C   0  0  0  0  0  0  0  0  0  0  0  0
    1.3660   -3.2670    0.3430 C   0  0  0  0  0  0  0  0  0  0  0  0
    0.1520   -3.4120   -0.2900 C   0  0  0  0  0  0  0  0  0  0  0  0
   -0.1200   -4.5710   -1.1640 C   0  0  0  0  0  0  0  0  0  0  0  0
   -1.2250   -4.6920   -1.7350 O   0  0  0  0  0  0  0  0  0  0  0  0
    0.8540   -5.5370   -1.3570 O   0  0  0  0  0  0  0  0  0  0  0  0
    0.6450   -6.6780   -2.1940 C   0  0  0  0  0  0  0  0  0  0  0  0
   -0.7900   -2.4380   -0.0740 C   0  0  0  0  0  0  0  0  0  0  0  0
   -0.5070   -1.3600    0.7510 C   0  0  0  0  0  0  0  0  0  0  0  0
  1  2  1  0
  2  3  1  0
  3  4  1  0
  4  5  1  0
  5  6  1  0
  6  7  1  0
  7  8  1  0
  8  9  1  0
  9 10  2  0
  9 34  1  0
 10 11  1  0
 11 12  2  0
 12 13  1  0
 12 25  1  0
 13 14  2  0
 13 15  1  0
 15 16  2  0
 15 24  1  0
 16 17  1  0
 17 18  2  0
 18 19  1  0
 18 23  1  0
 19 20  1  0
 20 21  1  0
 21 22  1  0
 23 24  2  0
 25 26  2  0
 25 34  1  0
 26 27  1  0
 27 28  2  0
 28 29  1  0
 28 33  1  0
 29 30  2  0
 29 31  1  0
 31 32  1  0
 33 34  2  0
M  END
