
     RDKit          3D

 34 34  0  0  0  0  0  0  0  0999 V2000
   -1.0810   -4.9880   -0.6830 C   0  0  0  0  0  0  0  0  0  0  0  0
   -0.6170   -3.5800   -1.0480 C   0  0  0  0  0  0  0  0  0  0  0  0
    0.0320   -2.9690   -0.0060 O   0  0  0  0  0  0  0  0  0  0  0  0
   -0.7370   -2.8260    1.1530 C   0  0  0  0  0  0  0  0  0  0  0  0
   -1.9590   -2.0000    0.9260 C   0  0  0  0  0  0  0  0  0  0  0  0
   -1.7440   -0.6410    0.4370 C   0  0  0  0  0  0  0  0  0  0  0  0
   -1.0190    0.3820    1.1890 C   0  0  1  0  0  0  0  0  0  0  0  0
    0.3800    0.2160    1.5750 C   0  0  0  0  0  0  0  0  0  0  0  0
    1.2800    0.0150    0.5060 O   0  0  0  0  0  0  0  0  0  0  0  0
    2.6620   -0.1600    0.7430 C   0  0  0  0  0  0  0  0  0  0  0  0
    3.0000   -0.1230    1.9280 O   0  0  0  0  0  0  0  0  0  0  0  0
    3.5350   -0.3600   -0.3550 C   0  0  0  0  0  0  0  0  0  0  0  0
    4.8080   -0.5400   -0.3920 C   0  0  0  0  0  0  0  0  0  0  0  0
    5.7170   -0.5880    0.7070 C   0  0  0  0  0  0  0  0  0  0  0  0
    5.3280   -0.4490    1.9100 O   0  0  0  0  0  0  0  0  0  0  0  0
    7.1500   -0.8040    0.4710 C   0  0  0  0  0  0  0  0  0  0  0  0
    7.6380   -0.9570   -0.7180 C   0  0  0  0  0  0  0  0  0  0  0  0
    9.0830   -1.1690   -0.8710 C   0  0  0  0  0  0  0  0  0  0  0  0
    9.7990   -1.1970    0.1350 O   0  0  0  0  0  0  0  0  0  0  0  0
    9.6350   -1.3340   -2.1230 O   0  0  0  0  0  0  0  0  0  0  0  0
   11.0370   -1.5390   -2.2560 C   0  0  0  0  0  0  0  0  0  0  0  0
   -1.2810    1.7160    0.4470 C   0  0  2  0  0  0  0  0  0  0  0  0
   -0.7780    1.6470   -0.9550 C   0  0  0  0  0  0  0  0  0  0  0  0
   -0.7050    2.7950    1.2900 C   0  0  0  0  0  0  0  0  0  0  0  0
   -2.7250    1.7590    0.4380 O   0  0  0  0  0  0  0  0  0  0  0  0
   -3.4210    2.8030   -0.1390 C   0  0  0  0  0  0  0  0  0  0  0  0
   -2.7510    3.7060   -0.6510 O   0  0  0  0  0  0  0  0  0  0  0  0
   -4.8950    2.8030   -0.1230 C   0  0  0  0  0  0  0  0  0  0  0  0
   -5.5650    1.7610    0.4670 C   0  0  0  0  0  0  0  0  0  0  0  0
   -6.9410    1.6840    0.5260 C   0  0  0  0  0  0  0  0  0  0  0  0
   -7.6670    2.7120   -0.0420 C   0  0  0  0  0  0  0  0  0  0  0  0
   -9.1510    2.6600    0.0040 C   0  0  0  0  0  0  0  0  0  0  0  0
   -7.0100    3.7650   -0.6380 C   0  0  0  0  0  0  0  0  0  0  0  0
   -5.6310    3.8090   -0.6770 C   0  0  0  0  0  0  0  0  0  0  0  0
  1  2  1  0
  2  3  1  0
  3  4  1  0
  4  5  1  0
  5  6  1  0
  7  6  1  6
  7  8  1  0
  7 22  1  0
  8  9  1  0
  9 10  1  0
 10 11  2  0
 10 12  1  0
 12 13  2  3
 13 14  1  0
 14 15  2  0
 14 16  1  0
 16 17  2  3
 17 18  1  0
 18 19  2  0
 18 20  1  0
 20 21  1  0
 22 23  1  6
 22 24  1  0
 22 25  1  0
 25 26  1  0
 26 27  2  0
 26 28  1  0
 28 29  2  0
 28 34  1  0
 29 30  1  0
 30 31  2  0
 31 32  1  0
 31 33  1  0
 33 34  2  0
M  END
