
     RDKit          3D

 41 43  0  0  0  0  0  0  0  0999 V2000
    3.7630   -2.4580    2.8030 N   0  0  0  0  0  0  0  0  0  0  0  0
    2.8540   -1.8890    2.0710 C   0  0  0  0  0  0  0  0  0  0  0  0
    1.5420   -1.7230    2.5950 N   0  0  0  0  0  0  0  0  0  0  0  0
    0.5430   -1.1120    1.7560 C   0  0  0  0  0  0  0  0  0  0  0  0
   -0.6930   -1.0700    2.1710 C   0  0  0  0  0  0  0  0  0  0  0  0
   -1.8120   -0.5080    1.4260 C   0  0  0  0  0  0  0  0  0  0  0  0
   -1.5560   -0.0270    0.2340 C   0  0  0  0  0  0  0  0  0  0  0  0
   -2.5390    0.5530   -0.5730 O   0  0  0  0  0  0  0  0  0  0  0  0
   -3.7350   -0.1170   -0.7740 C   0  0  0  0  0  0  0  0  0  0  0  0
   -4.9770    0.5420   -0.4470 C   0  0  0  0  0  0  0  0  0  0  0  0
   -5.0050    1.7600    0.0360 C   0  0  0  0  0  0  0  0  0  0  0  0
   -6.2400    2.4380    0.3710 C   0  0  0  0  0  0  0  0  0  0  0  0
   -7.3220    1.8190    0.1840 O   0  0  0  0  0  0  0  0  0  0  0  0
   -6.2180    3.7320    0.8810 O   0  0  0  0  0  0  0  0  0  0  0  0
   -6.2000   -0.1220   -0.6450 O   0  0  0  0  0  0  0  0  0  0  0  0
   -6.7530    0.0080   -1.8730 O   0  0  0  0  0  0  0  0  0  0  0  0
   -7.8880   -0.6530   -1.8550 O   0  0  0  0  0  0  0  0  0  0  0  0
   -3.7560   -1.3640   -1.2670 C   0  0  0  0  0  0  0  0  0  0  0  0
   -2.5100   -1.9730   -1.5750 N   0  0  0  0  0  0  0  0  0  0  0  0
   -2.0090   -2.0160   -2.8790 N   0  0  0  0  0  0  0  0  0  0  0  0
   -4.9420   -2.0410   -1.4720 O   0  0  0  0  0  0  0  0  0  0  0  0
   -5.1050   -3.4080   -1.1040 C   0  0  0  0  0  0  0  0  0  0  0  0
   -6.3860   -3.8240   -1.4240 O   0  0  0  0  0  0  0  0  0  0  0  0
   -0.1900   -0.0970   -0.3220 C   0  0  0  0  0  0  0  0  0  0  0  0
   -0.1050    0.1410   -1.5820 O   0  0  0  0  0  0  0  0  0  0  0  0
    0.9430   -0.4150    0.5080 C   0  0  1  0  0  0  0  0  0  0  0  0
    1.6200    0.9210    0.8820 C   0  0  0  0  0  0  0  0  0  0  0  0
    1.8750    1.6590   -0.2990 N   0  0  0  0  0  0  0  0  0  0  0  0
    2.2110    3.0380   -0.4050 C   0  0  0  0  0  0  0  0  0  0  0  0
    1.5000    3.7840   -1.1780 O   0  0  0  0  0  0  0  0  0  0  0  0
    3.2800    3.6730    0.2770 N   0  0  0  0  0  0  0  0  0  0  0  0
    4.6200    3.1990    0.3220 C   0  0  0  0  0  0  0  0  0  0  0  0
    5.2540    3.4430    1.3870 O   0  0  0  0  0  0  0  0  0  0  0  0
    5.2690    2.4550   -0.8060 C   0  0  1  0  0  0  0  0  0  0  0  0
    6.2090    3.2150   -1.4710 O   0  0  0  0  0  0  0  0  0  0  0  0
    5.9710    1.2560   -0.1970 C   0  0  0  0  0  0  0  0  0  0  0  0
    5.3660    0.9860    0.9910 O   0  0  0  0  0  0  0  0  0  0  0  0
    5.1940   -0.3180    1.3470 C   0  0  0  0  0  0  0  0  0  0  0  0
    4.5020   -1.1990    0.3620 C   0  0  0  0  0  0  0  0  0  0  0  0
    3.1250   -1.4430    0.7500 N   0  0  0  0  0  0  0  0  0  0  0  0
    2.0220   -1.2150   -0.1930 C   0  0  0  0  0  0  0  0  0  0  0  0
  1  2  2  0
  2  3  1  0
  2 40  1  0
  3  4  1  0
  4  5  2  0
  4 26  1  0
  5  6  1  0
  6  7  2  0
  7  8  1  0
  7 24  1  0
  8  9  1  0
  9 10  1  0
  9 18  2  3
 10 11  2  3
 10 15  1  0
 11 12  1  0
 12 13  2  0
 12 14  1  0
 15 16  1  0
 16 17  1  0
 18 19  1  0
 18 21  1  0
 19 20  1  0
 21 22  1  0
 22 23  1  0
 24 25  2  0
 24 26  1  0
 26 27  1  1
 26 41  1  0
 27 28  1  0
 28 29  1  0
 29 30  2  0
 29 31  1  0
 31 32  1  0
 32 33  2  0
 32 34  1  0
 34 35  1  1
 34 36  1  0
 36 37  1  0
 37 38  1  0
 38 39  1  0
 39 40  1  0
 40 41  1  0
M  END
