
     RDKit          3D

 42 43  0  0  0  0  0  0  0  0999 V2000
   -0.4200   -1.8000   -4.7040 C   0  0  0  0  0  0  0  0  0  0  0  0
    0.2420   -1.5720   -3.3630 C   0  0  0  0  0  0  0  0  0  0  0  0
   -0.4020   -2.1660   -2.3160 O   0  0  0  0  0  0  0  0  0  0  0  0
   -1.7230   -1.7420   -2.1250 C   0  0  0  0  0  0  0  0  0  0  0  0
   -1.7460   -0.2930   -1.8570 C   0  0  1  0  0  0  0  0  0  0  0  0
   -3.0930    0.3330   -1.6220 C   0  0  0  0  0  0  0  0  0  0  0  0
   -3.8240   -0.2060   -0.4140 C   0  0  0  0  0  0  0  0  0  0  0  0
   -5.0500   -0.6300   -0.5980 C   0  0  0  0  0  0  0  0  0  0  0  0
   -5.9660   -1.2220    0.3440 C   0  0  0  0  0  0  0  0  0  0  0  0
   -5.5650   -1.4140    1.6380 O   0  0  0  0  0  0  0  0  0  0  0  0
   -3.2900   -0.1870    0.9800 C   0  0  0  0  0  0  0  0  0  0  0  0
   -2.1790   -0.8900    1.4450 C   0  0  0  0  0  0  0  0  0  0  0  0
   -1.7260   -0.6710    2.7120 C   0  0  0  0  0  0  0  0  0  0  0  0
   -2.4210    0.2650    3.5220 C   0  0  0  0  0  0  0  0  0  0  0  0
   -3.5050    0.9650    3.1250 C   0  0  0  0  0  0  0  0  0  0  0  0
   -3.9660    0.7370    1.7960 C   0  0  0  0  0  0  0  0  0  0  0  0
   -5.0860    1.5490    1.5130 N   0  0  0  0  0  0  0  0  0  0  0  0
   -5.3020    2.5760    0.5540 C   0  0  0  0  0  0  0  0  0  0  0  0
   -4.1590    3.1740   -0.1480 C   0  0  0  0  0  0  0  0  0  0  0  0
   -6.2070    1.4620    2.4890 C   0  0  0  0  0  0  0  0  0  0  0  0
   -7.5150    1.1350    1.8980 C   0  0  0  0  0  0  0  0  0  0  0  0
   -0.5740   -1.1550    3.4190 N   0  0  0  0  0  0  0  0  0  0  0  0
    0.7540   -1.4380    2.9560 C   0  0  0  0  0  0  0  0  0  0  0  0
    1.7980   -1.0000    3.5700 O   0  0  0  0  0  0  0  0  0  0  0  0
    1.0480   -2.2410    1.7630 C   0  0  0  0  0  0  0  0  0  0  0  0
    1.9940   -1.6090    0.7750 C   0  0  0  0  0  0  0  0  0  0  0  0
    3.3960   -1.8960    1.0040 C   0  0  0  0  0  0  0  0  0  0  0  0
    3.5590   -2.6580    2.0960 O   0  0  0  0  0  0  0  0  0  0  0  0
    4.5740   -1.5820    0.3860 N   0  0  0  0  0  0  0  0  0  0  0  0
    5.8160   -2.0980    1.0790 C   0  0  0  0  0  0  0  0  0  0  0  0
    4.8430   -0.8810   -0.8030 C   0  0  0  0  0  0  0  0  0  0  0  0
    5.0500    0.9550   -0.6060 P   0  0  0  0  0  0  0  0  0  0  0  0
    5.7450    1.7020   -1.9720 O   0  0  0  0  0  0  0  0  0  0  0  0
    6.8050    0.9870   -2.5170 C   0  0  0  0  0  0  0  0  0  0  0  0
    7.3890    1.6920   -3.7250 C   0  0  0  0  0  0  0  0  0  0  0  0
    5.8360    1.3600    0.8790 O   0  0  0  0  0  0  0  0  0  0  0  0
    6.5780    2.5330    0.7680 C   0  0  0  0  0  0  0  0  0  0  0  0
    7.2200    2.8050    2.1010 C   0  0  0  0  0  0  0  0  0  0  0  0
    1.5460   -0.8450   -0.2400 C   0  0  0  0  0  0  0  0  0  0  0  0
    0.3020   -0.5190   -0.5480 O   0  0  0  0  0  0  0  0  0  0  0  0
   -0.7190    0.2000   -0.8760 C   0  0  0  0  0  0  0  0  0  0  0  0
   -1.0320    1.3820   -0.4600 O   0  0  0  0  0  0  0  0  0  0  0  0
  1  2  1  0
  2  3  1  0
  3  4  1  0
  5  4  1  1
  5  6  1  0
  5 41  1  0
  6  7  1  0
  7  8  2  3
  7 11  1  0
  8  9  1  0
  9 10  1  0
 11 12  2  0
 11 16  1  0
 12 13  1  0
 13 14  2  0
 13 22  1  0
 14 15  1  0
 15 16  2  0
 16 17  1  0
 17 18  1  0
 17 20  1  0
 18 19  1  0
 20 21  1  0
 22 23  1  0
 23 24  2  0
 23 25  1  0
 25 26  1  0
 26 27  1  0
 26 39  2  0
 27 28  2  0
 27 29  1  0
 29 30  1  0
 29 31  1  0
 31 32  1  0
 32 33  1  0
 32 36  1  0
 33 34  1  0
 34 35  1  0
 36 37  1  0
 37 38  1  0
 39 40  1  0
 40 41  1  0
 41 42  2  0
M  END
