
     RDKit          3D

 18 19  0  0  0  0  0  0  0  0999 V2000
    5.3680   -0.7520    0.5740 C   0  0  0  0  0  0  0  0  0  0  0  0
    3.9360   -1.2300    0.3720 C   0  0  0  0  0  0  0  0  0  0  0  0
    3.0550   -0.1420    0.5890 O   0  0  0  0  0  0  0  0  0  0  0  0
    3.1030    1.0200   -0.1640 C   0  0  0  0  0  0  0  0  0  0  0  0
    3.9640    1.1320   -1.0890 O   0  0  0  0  0  0  0  0  0  0  0  0
    2.1760    2.0590    0.1270 N   0  0  0  0  0  0  0  0  0  0  0  0
    0.9380    1.8000    0.4270 C   0  0  0  0  0  0  0  0  0  0  0  0
    0.0140    2.8510    0.7180 N   0  0  0  0  0  0  0  0  0  0  0  0
   -1.2220    2.2120    0.9960 C   0  0  0  0  0  0  0  0  0  0  0  0
   -2.2750    2.8150    1.2930 O   0  0  0  0  0  0  0  0  0  0  0  0
   -1.0890    0.7370    0.8860 C   0  0  1  0  0  0  0  0  0  0  0  0
   -1.9920    0.2720   -0.2230 C   0  0  1  0  0  0  0  0  0  0  0  0
   -1.9310   -1.2300   -0.4200 C   0  0  0  0  0  0  0  0  0  0  0  0
   -3.1070   -1.3910   -1.3670 C   0  0  1  0  0  0  0  0  0  0  0  0
   -3.5200   -2.6980   -1.4900 O   0  0  0  0  0  0  0  0  0  0  0  0
   -4.1370   -0.5200   -0.6590 C   0  0  0  0  0  0  0  0  0  0  0  0
   -3.3790    0.5050    0.0350 N   0  0  0  0  0  0  0  0  0  0  0  0
    0.2950    0.5550    0.5220 N   0  0  0  0  0  0  0  0  0  0  0  0
  1  2  1  0
  2  3  1  0
  3  4  1  0
  4  5  2  0
  4  6  1  0
  6  7  2  3
  7  8  1  0
  7 18  1  0
  8  9  1  0
  9 10  2  0
  9 11  1  0
 11 12  1  0
 11 18  1  6
 12 13  1  1
 12 17  1  0
 13 14  1  0
 14 15  1  1
 14 16  1  0
 16 17  1  0
M  END
