
     RDKit          3D

 19 20  0  0  0  0  0  0  0  0999 V2000
   -5.9840    1.6010   -0.8090 O   0  0  0  0  0  0  0  0  0  0  0  0
   -4.8230    1.1130   -0.6390 C   0  0  0  0  0  0  0  0  0  0  0  0
   -3.8290    1.4070   -1.6070 N   0  0  0  0  0  0  0  0  0  0  0  0
   -2.4700    0.9890   -1.5900 N   0  0  0  0  0  0  0  0  0  0  0  0
   -1.7770    0.1990   -0.6460 C   0  0  0  0  0  0  0  0  0  0  0  0
   -2.1700   -0.3710    0.4720 C   0  0  0  0  0  0  0  0  0  0  0  0
   -1.2120   -1.1620    1.2880 C   0  0  0  0  0  0  0  0  0  0  0  0
    0.1450   -0.5490    1.3110 C   0  0  0  0  0  0  0  0  0  0  0  0
    0.4290    0.4300    0.2050 C   0  0  1  0  0  0  0  0  0  0  0  0
    1.8850    0.5280   -0.0940 C   0  0  0  0  0  0  0  0  0  0  0  0
    2.4890    1.6210    0.0230 O   0  0  0  0  0  0  0  0  0  0  0  0
    2.6300   -0.6020   -0.5170 N   0  0  0  0  0  0  0  0  0  0  0  0
    4.0220   -0.6560   -0.8280 C   0  0  0  0  0  0  0  0  0  0  0  0
    4.9750   -0.3400    0.2660 C   0  0  0  0  0  0  0  0  0  0  0  0
    4.8010    0.9370    0.7560 O   0  0  0  0  0  0  0  0  0  0  0  0
   -0.3600    0.0090   -1.0240 C   0  0  0  0  0  0  0  0  0  0  0  0
   -3.5220   -0.3340    1.0740 C   0  0  0  0  0  0  0  0  0  0  0  0
   -3.6190   -0.9410    2.1600 O   0  0  0  0  0  0  0  0  0  0  0  0
   -4.6710    0.3090    0.5390 N   0  0  0  0  0  0  0  0  0  0  0  0
  1  2  2  0
  2  3  1  0
  2 19  1  0
  3  4  1  0
  4  5  1  0
  5  6  2  0
  5 16  1  0
  6  7  1  0
  6 17  1  0
  7  8  1  0
  8  9  1  0
  9 10  1  6
  9 16  1  0
 10 11  2  0
 10 12  1  0
 12 13  1  0
 13 14  1  0
 14 15  1  0
 17 18  2  0
 17 19  1  0
M  END
