
     RDKit          3D

 19 21  0  0  0  0  0  0  0  0999 V2000
   -5.1440   -0.5280   -0.6290 N   0  0  0  0  0  0  0  0  0  0  0  0
   -3.8180   -0.8780   -0.2680 C   0  0  0  0  0  0  0  0  0  0  0  0
   -3.5440   -2.1060    0.2120 N   0  0  0  0  0  0  0  0  0  0  0  0
   -2.2650   -2.4010    0.5460 C   0  0  0  0  0  0  0  0  0  0  0  0
   -1.2670   -1.5010    0.4100 N   0  0  0  0  0  0  0  0  0  0  0  0
   -1.5030   -0.2760   -0.0610 C   0  0  0  0  0  0  0  0  0  0  0  0
   -2.8060    0.0320   -0.4040 C   0  0  0  0  0  0  0  0  0  0  0  0
   -2.7910    1.3280   -0.8550 C   0  0  0  0  0  0  0  0  0  0  0  0
   -1.4880    1.7550   -0.7710 C   0  0  0  0  0  0  0  0  0  0  0  0
   -0.7080    0.7600   -0.2810 N   0  0  0  0  0  0  0  0  0  0  0  0
    0.6920    0.8760   -0.0700 C   0  0  2  0  0  0  0  0  0  0  0  0
    1.4700    0.1950   -0.9870 O   0  0  0  0  0  0  0  0  0  0  0  0
    2.7540    0.3910   -0.4810 C   0  0  2  0  0  0  0  0  0  0  0  0
    3.7470   -0.6100   -1.0270 C   0  0  0  0  0  0  0  0  0  0  0  0
    3.3680   -1.8900   -0.7030 O   0  0  0  0  0  0  0  0  0  0  0  0
    2.6660    0.2880    1.0110 C   0  0  1  0  0  0  0  0  0  0  0  0
    3.0650    1.5290    1.5350 O   0  0  0  0  0  0  0  0  0  0  0  0
    1.1500    0.2040    1.2320 C   0  0  1  0  0  0  0  0  0  0  0  0
    0.7620    0.9320    2.3390 O   0  0  0  0  0  0  0  0  0  0  0  0
  1  2  1  0
  2  3  2  0
  2  7  1  0
  3  4  1  0
  4  5  2  0
  5  6  1  0
  6  7  2  0
  6 10  1  0
  7  8  1  0
  8  9  2  0
  9 10  1  0
 11 10  1  6
 11 12  1  0
 11 18  1  0
 12 13  1  0
 13 14  1  6
 13 16  1  0
 14 15  1  0
 16 17  1  1
 16 18  1  0
 18 19  1  1
M  END
