
     RDKit          3D

 19 20  0  0  0  0  0  0  0  0999 V2000
   -4.4370    0.2330   -3.2410 O   0  0  0  0  0  0  0  0  0  0  0  0
   -4.2740    0.2420   -2.0130 C   0  0  0  0  0  0  0  0  0  0  0  0
   -4.5890    1.4030   -1.1180 C   0  0  0  0  0  0  0  0  0  0  0  0
   -3.4100    1.6610   -0.4040 O   0  0  0  0  0  0  0  0  0  0  0  0
   -3.1090    0.6720    0.4930 C   0  0  2  0  0  0  0  0  0  0  0  0
   -1.6540    0.6680    0.8040 C   0  0  0  0  0  0  0  0  0  0  0  0
   -0.8870    1.5120    0.2650 O   0  0  0  0  0  0  0  0  0  0  0  0
   -1.0570   -0.2540    1.6970 N   0  0  0  0  0  0  0  0  0  0  0  0
    0.3010   -0.2920    2.0170 N   0  0  0  0  0  0  0  0  0  0  0  0
    1.3640   -0.2670    1.0920 C   0  0  0  0  0  0  0  0  0  0  0  0
    1.0690   -0.2060   -0.1340 O   0  0  0  0  0  0  0  0  0  0  0  0
    2.7160   -0.3080    1.5450 N   0  0  0  0  0  0  0  0  0  0  0  0
    3.7590   -0.2820    0.5830 C   0  0  0  0  0  0  0  0  0  0  0  0
    4.6920   -1.1860    0.3770 C   0  0  0  0  0  0  0  0  0  0  0  0
    5.5330   -0.6970   -0.7310 C   0  0  0  0  0  0  0  0  0  0  0  0
    4.9580    0.6020   -1.1320 C   0  0  0  0  0  0  0  0  0  0  0  0
    3.9270    0.8320   -0.3610 C   0  0  0  0  0  0  0  0  0  0  0  0
   -3.6380   -0.6920    0.1450 C   0  0  0  0  0  0  0  0  0  0  0  0
   -3.7500   -0.8990   -1.2920 N   0  0  0  0  0  0  0  0  0  0  0  0
  1  2  2  0
  2  3  1  0
  2 19  1  0
  3  4  1  0
  4  5  1  0
  5  6  1  6
  5 18  1  0
  6  7  2  0
  6  8  1  0
  8  9  1  0
  9 10  1  0
 10 11  2  0
 10 12  1  0
 12 13  1  0
 13 14  2  0
 13 17  1  0
 14 15  1  0
 15 16  1  0
 16 17  2  0
 18 19  1  0
M  END
