
     RDKit          3D

 19 20  0  0  0  0  0  0  0  0999 V2000
    5.1480   -2.5620   -0.7070 N   0  0  0  0  0  0  0  0  0  0  0  0
    3.7790   -2.3490   -0.4140 C   0  0  0  0  0  0  0  0  0  0  0  0
    3.0250   -3.3350   -0.2810 O   0  0  0  0  0  0  0  0  0  0  0  0
    3.2480   -1.0180   -0.2690 N   0  0  0  0  0  0  0  0  0  0  0  0
    1.8600   -0.7920    0.0280 C   0  0  0  0  0  0  0  0  0  0  0  0
    1.2140   -1.8630    0.1360 O   0  0  0  0  0  0  0  0  0  0  0  0
    1.2630    0.5080    0.1860 C   0  0  0  0  0  0  0  0  0  0  0  0
    2.0770    1.5490    0.0400 C   0  0  0  0  0  0  0  0  0  0  0  0
    1.6980    2.9070    0.1530 N   0  0  0  0  0  0  0  0  0  0  0  0
    0.3480    3.1650    0.4440 C   0  0  0  0  0  0  0  0  0  0  0  0
   -0.0490    4.3640    0.5570 O   0  0  0  0  0  0  0  0  0  0  0  0
   -0.5730    2.0610    0.6110 N   0  0  0  0  0  0  0  0  0  0  0  0
   -0.1770    0.7030    0.4940 C   0  0  0  0  0  0  0  0  0  0  0  0
   -0.9760   -0.3010    0.6430 C   0  0  0  0  0  0  0  0  0  0  0  0
   -2.3630   -0.5310    0.9310 C   0  0  2  0  0  0  0  0  0  0  0  0
   -3.0510   -1.2030   -0.3000 C   0  0  0  0  0  0  0  0  0  0  0  0
   -3.8540   -0.0640   -0.8420 C   0  0  0  0  0  0  0  0  0  0  0  0
   -3.4990    1.0920   -0.1540 O   0  0  0  0  0  0  0  0  0  0  0  0
   -3.2660    0.6080    1.1310 C   0  0  0  0  0  0  0  0  0  0  0  0
  1  2  1  0
  2  3  2  0
  2  4  1  0
  4  5  1  0
  5  6  2  0
  5  7  1  0
  7  8  2  0
  7 13  1  0
  8  9  1  0
  9 10  1  0
 10 11  2  0
 10 12  1  0
 12 13  1  0
 13 14  2  3
 15 14  1  6
 15 16  1  0
 15 19  1  0
 16 17  1  0
 17 18  1  0
 18 19  1  0
M  END
