
     RDKit          3D

 19 20  0  0  0  0  0  0  0  0999 V2000
   -0.1620   -1.9380   -3.0540 C   0  0  0  0  0  0  0  0  0  0  0  0
   -0.2060   -2.0350   -1.6100 N   0  0  0  0  0  0  0  0  0  0  0  0
    0.6920   -1.3540   -0.7400 C   0  0  0  0  0  0  0  0  0  0  0  0
    0.3080   -0.3540    0.0350 C   0  0  0  0  0  0  0  0  0  0  0  0
   -1.0940    0.0820    0.0090 C   0  0  0  0  0  0  0  0  0  0  0  0
   -1.5110    1.0600    0.7560 C   0  0  0  0  0  0  0  0  0  0  0  0
   -0.6200    1.8030    1.6800 C   0  0  0  0  0  0  0  0  0  0  0  0
   -2.8820    1.4610    0.6960 N   0  0  0  0  0  0  0  0  0  0  0  0
   -3.7650    0.7760   -0.1870 C   0  0  0  0  0  0  0  0  0  0  0  0
   -5.0080    0.8010   -0.0510 O   0  0  0  0  0  0  0  0  0  0  0  0
   -3.1830    0.0060   -1.3060 C   0  0  0  0  0  0  0  0  0  0  0  0
   -1.9930   -0.5790   -0.8410 O   0  0  0  0  0  0  0  0  0  0  0  0
    1.1990    0.2850    0.8650 O   0  0  0  0  0  0  0  0  0  0  0  0
    2.5410   -0.0500    0.9630 C   0  0  0  0  0  0  0  0  0  0  0  0
    3.4560    0.6590    1.8620 C   0  0  0  0  0  0  0  0  0  0  0  0
    3.0180    1.7310    2.6860 N   0  0  0  0  0  0  0  0  0  0  0  0
    4.6690    0.3490    1.9440 O   0  0  0  0  0  0  0  0  0  0  0  0
    2.9590   -1.0450    0.2020 C   0  0  0  0  0  0  0  0  0  0  0  0
    2.0660   -1.7290   -0.6690 N   0  0  0  0  0  0  0  0  0  0  0  0
  1  2  1  0
  2  3  1  0
  3  4  2  0
  3 19  1  0
  4  5  1  0
  4 13  1  0
  5  6  2  0
  5 12  1  0
  6  7  1  0
  6  8  1  0
  8  9  1  0
  9 10  2  0
  9 11  1  0
 11 12  1  0
 13 14  1  0
 14 15  1  0
 14 18  2  0
 15 16  1  0
 15 17  2  0
 18 19  1  0
M  END
