
     RDKit          3D

 46 50  0  0  0  0  0  0  0  0999 V2000
    2.7200   -3.9500    2.3460 C   0  0  0  0  0  0  0  0  0  0  0  0
    2.3600   -2.7820    3.1870 C   0  0  0  0  0  0  0  0  0  0  0  0
    1.3060   -1.8680    2.7080 C   0  0  0  0  0  0  0  0  0  0  0  0
    1.5630   -1.1660    1.3880 C   0  0  1  0  0  0  0  0  0  0  0  0
    2.8130   -0.3540    1.4480 C   0  0  0  0  0  0  0  0  0  0  0  0
    3.2020    0.3540    0.2260 C   0  0  0  0  0  0  0  0  0  0  0  0
    2.6210    1.4340   -0.0640 O   0  0  0  0  0  0  0  0  0  0  0  0
    4.2320   -0.1420   -0.6620 N   0  0  0  0  0  0  0  0  0  0  0  0
    4.9880   -1.3210   -0.4420 C   0  0  0  0  0  0  0  0  0  0  0  0
    6.4410   -0.9870   -0.2670 C   0  0  0  0  0  0  0  0  0  0  0  0
    6.6790    0.2920   -0.9750 N   0  0  0  0  0  0  0  0  0  0  0  0
    7.5610    1.2180   -0.4030 C   0  0  0  0  0  0  0  0  0  0  0  0
    8.1320    0.9420    0.6820 O   0  0  0  0  0  0  0  0  0  0  0  0
    7.8700    2.5230   -1.0040 C   0  0  1  0  0  0  0  0  0  0  0  0
    7.9400    3.6600   -0.0200 C   0  0  0  0  0  0  0  0  0  0  0  0
    9.1860    3.1650   -0.6570 C   0  0  0  0  0  0  0  0  0  0  0  0
    5.9790    0.5080   -2.2240 C   0  0  0  0  0  0  0  0  0  0  0  0
    4.4900    0.6330   -1.8690 C   0  0  0  0  0  0  0  0  0  0  0  0
    1.4330   -2.1120    0.2500 C   0  0  0  0  0  0  0  0  0  0  0  0
    0.8300   -1.4410   -0.9890 C   0  0  0  0  0  0  0  0  0  0  0  0
   -0.5840   -0.9860   -0.7160 C   0  0  0  0  0  0  0  0  0  0  0  0
   -0.7510   -0.8260    0.7150 N   0  0  2  0  0  0  0  0  0  0  0  0
   -1.9950   -0.2550    1.0990 C   0  0  1  0  0  0  0  0  0  0  0  0
   -1.9240   -0.0720    2.6420 C   0  0  0  0  0  0  0  0  0  0  0  0
   -2.1980    1.2010    0.6480 C   0  0  0  0  0  0  0  0  0  0  0  0
   -3.4450    1.5610    1.0180 O   0  0  0  0  0  0  0  0  0  0  0  0
   -4.2680    2.5360    1.3190 C   0  0  0  0  0  0  0  0  0  0  0  0
   -4.3890    3.0990    2.4500 O   0  0  0  0  0  0  0  0  0  0  0  0
   -5.2070    3.1200    0.3060 C   0  0  2  0  0  0  0  0  0  0  0  0
   -6.4810    2.3060    0.4660 C   0  0  0  0  0  0  0  0  0  0  0  0
   -7.4990    2.6900   -0.3810 O   0  0  0  0  0  0  0  0  0  0  0  0
   -4.6620    3.1960   -1.0590 C   0  0  0  0  0  0  0  0  0  0  0  0
   -5.5640    2.7020   -2.1630 C   0  0  0  0  0  0  0  0  0  0  0  0
   -4.8650    2.6640   -3.4760 C   0  0  0  0  0  0  0  0  0  0  0  0
   -4.3760    1.5840   -4.0590 C   0  0  0  0  0  0  0  0  0  0  0  0
   -4.4620    0.2150   -3.4560 C   0  0  0  0  0  0  0  0  0  0  0  0
   -3.3610   -0.0020   -2.4040 C   0  0  0  0  0  0  0  0  0  0  0  0
   -4.0000   -0.1160   -1.1800 O   0  0  0  0  0  0  0  0  0  0  0  0
   -4.0940   -1.0270   -0.1770 C   0  0  0  0  0  0  0  0  0  0  0  0
   -5.1560   -1.9470   -0.1380 C   0  0  0  0  0  0  0  0  0  0  0  0
   -5.3380   -2.9090    0.8290 C   0  0  0  0  0  0  0  0  0  0  0  0
   -4.4180   -2.9840    1.8390 C   0  0  0  0  0  0  0  0  0  0  0  0
   -4.5840   -3.9620    2.8400 N   0  0  0  0  0  0  0  0  0  0  0  0
   -3.3750   -2.0960    1.8250 C   0  0  0  0  0  0  0  0  0  0  0  0
   -3.1720   -1.1170    0.8600 C   0  0  0  0  0  0  0  0  0  0  0  0
    0.3840   -0.1680    1.2740 C   0  0  0  0  0  0  0  0  0  0  0  0
  1  2  1  0
  2  3  1  0
  4  3  1  1
  4  5  1  0
  4 19  1  0
  4 46  1  0
  5  6  1  0
  6  7  2  0
  6  8  1  0
  8  9  1  0
  8 18  1  0
  9 10  1  0
 10 11  1  0
 11 12  1  0
 11 17  1  0
 12 13  2  0
 14 12  1  1
 14 15  1  0
 14 16  1  0
 15 16  1  0
 17 18  1  0
 19 20  1  0
 20 21  1  0
 22 21  1  6
 22 23  1  0
 22 46  1  0
 23 24  1  1
 23 25  1  0
 23 45  1  0
 25 26  1  0
 26 27  1  0
 27 28  2  0
 27 29  1  0
 29 30  1  6
 29 32  1  0
 30 31  1  0
 32 33  1  0
 33 34  1  0
 34 35  2  0
 35 36  1  0
 36 37  1  0
 37 38  1  0
 38 39  1  0
 39 40  2  0
 39 45  1  0
 40 41  1  0
 41 42  2  0
 42 43  1  0
 42 44  1  0
 44 45  2  0
M  CHG  1  22   1
M  END
