
     RDKit          3D

 47 50  0  0  0  0  0  0  0  0999 V2000
    5.1570    5.9510    1.2540 C   0  0  0  0  0  0  0  0  0  0  0  0
    4.8080    5.5450    2.4410 C   0  0  0  0  0  0  0  0  0  0  0  0
    3.8370    4.4510    2.6010 C   0  0  0  0  0  0  0  0  0  0  0  0
    3.5180    4.0640    3.8050 C   0  0  0  0  0  0  0  0  0  0  0  0
    3.2250    3.8200    1.3710 C   0  0  2  0  0  0  0  0  0  0  0  0
    2.5660    4.8710    0.7220 O   0  0  0  0  0  0  0  0  0  0  0  0
    2.2980    2.7150    1.7280 C   0  0  0  0  0  0  0  0  0  0  0  0
    1.6030    2.1020    0.5980 N   0  0  2  0  0  0  0  0  0  0  0  0
    2.5110    1.7900   -0.4840 C   0  0  0  0  0  0  0  0  0  0  0  0
    2.2410    0.4860   -1.1720 C   0  0  0  0  0  0  0  0  0  0  0  0
    3.1570   -0.5960   -0.7870 N   0  0  0  0  0  0  0  0  0  0  0  0
    4.5760   -0.3730   -0.9600 C   0  0  0  0  0  0  0  0  0  0  0  0
    4.9920   -0.8060   -2.3510 C   0  0  0  0  0  0  0  0  0  0  0  0
    4.7160   -2.2290   -2.6200 C   0  0  0  0  0  0  0  0  0  0  0  0
    3.6220   -2.5750   -3.1550 O   0  0  0  0  0  0  0  0  0  0  0  0
    5.5970   -3.2490   -2.3180 O   0  0  0  0  0  0  0  0  0  0  0  0
    5.2940   -4.6060   -2.5970 C   0  0  0  0  0  0  0  0  0  0  0  0
    5.0830   -4.8060   -4.0940 C   0  0  0  0  0  0  0  0  0  0  0  0
    2.6450   -1.8220   -0.2640 C   0  0  0  0  0  0  0  0  0  0  0  0
    3.5990   -2.6710   -0.0080 O   0  0  0  0  0  0  0  0  0  0  0  0
    1.2360   -2.2170    0.0120 C   0  0  0  0  0  0  0  0  0  0  0  0
    1.2050   -2.7550    1.3220 C   0  0  0  0  0  0  0  0  0  0  0  0
    0.0440   -3.1490    1.8880 C   0  0  0  0  0  0  0  0  0  0  0  0
   -1.1120   -2.9920    1.1040 C   0  0  0  0  0  0  0  0  0  0  0  0
   -2.2050   -3.3880    1.8090 N   0  0  0  0  0  0  0  0  0  0  0  0
   -3.3660   -3.2530    1.1950 C   0  0  0  0  0  0  0  0  0  0  0  0
   -4.3890   -3.6310    1.8680 O   0  0  0  0  0  0  0  0  0  0  0  0
   -3.4630   -2.7400   -0.0860 N   0  0  0  0  0  0  0  0  0  0  0  0
   -2.4120   -2.3510   -0.7910 C   0  0  0  0  0  0  0  0  0  0  0  0
   -2.6060   -1.8700   -2.0230 O   0  0  0  0  0  0  0  0  0  0  0  0
   -1.1300   -2.4690   -0.1910 C   0  0  0  0  0  0  0  0  0  0  0  0
    0.1130   -2.0740   -0.7450 C   0  0  0  0  0  0  0  0  0  0  0  0
   -4.9150   -2.6870   -0.3560 C   0  0  1  0  0  0  0  0  0  0  0  0
   -5.6150   -4.0030   -0.0010 C   0  0  0  0  0  0  0  0  0  0  0  0
   -5.5850   -1.6320    0.5110 C   0  0  0  0  0  0  0  0  0  0  0  0
   -5.4290   -0.3020   -0.2250 C   0  0  1  0  0  0  0  0  0  0  0  0
   -6.6600    0.0850   -0.9580 C   0  0  0  0  0  0  0  0  0  0  0  0
   -5.0280    0.7590    0.7650 C   0  0  2  0  0  0  0  0  0  0  0  0
   -6.0940    1.8650    0.9330 C   0  0  0  0  0  0  0  0  0  0  0  0
   -3.6260    1.3030    0.6110 C   0  0  0  0  0  0  0  0  0  0  0  0
   -2.6860    1.1710    1.6080 C   0  0  0  0  0  0  0  0  0  0  0  0
   -1.3600    1.6770    1.5070 C   0  0  0  0  0  0  0  0  0  0  0  0
   -0.9230    2.3380    0.3920 C   0  0  0  0  0  0  0  0  0  0  0  0
   -1.8580    2.4710   -0.6030 C   0  0  0  0  0  0  0  0  0  0  0  0
   -3.1960    1.9650   -0.5110 C   0  0  0  0  0  0  0  0  0  0  0  0
   -3.8760    2.3000   -1.7520 O   0  0  0  0  0  0  0  0  0  0  0  0
    0.4860    2.9170    0.2750 C   0  0  0  0  0  0  0  0  0  0  0  0
  1  2  2  0
  2  3  1  0
  3  4  2  0
  3  5  1  0
  5  6  1  1
  5  7  1  0
  8  7  1  1
  8  9  1  0
  8 47  1  0
  9 10  1  0
 10 11  1  0
 11 12  1  0
 11 19  1  0
 12 13  1  0
 13 14  1  0
 14 15  2  0
 14 16  1  0
 16 17  1  0
 17 18  1  0
 19 20  2  0
 19 21  1  0
 21 22  2  0
 21 32  1  0
 22 23  1  0
 23 24  2  0
 24 25  1  0
 24 31  1  0
 25 26  1  0
 26 27  2  0
 26 28  1  0
 28 29  1  0
 28 33  1  0
 29 30  2  0
 29 31  1  0
 31 32  2  0
 33 34  1  1
 33 35  1  0
 35 36  1  0
 36 37  1  1
 36 38  1  0
 38 39  1  6
 38 40  1  0
 40 41  2  0
 40 45  1  0
 41 42  1  0
 42 43  2  0
 43 44  1  0
 43 47  1  0
 44 45  2  0
 45 46  1  0
M  CHG  1   8   1
M  END
