
     RDKit          3D

 47 50  0  0  0  0  0  0  0  0999 V2000
   -2.7620   -4.7400    2.7350 C   0  0  0  0  0  0  0  0  0  0  0  0
   -2.7490   -3.9450    1.4820 C   0  0  0  0  0  0  0  0  0  0  0  0
   -2.2500   -4.4910    0.3220 C   0  0  0  0  0  0  0  0  0  0  0  0
   -2.2240   -3.7760   -0.8590 C   0  0  0  0  0  0  0  0  0  0  0  0
   -2.7100   -2.4810   -0.8810 C   0  0  0  0  0  0  0  0  0  0  0  0
   -3.2150   -1.9080    0.2640 C   0  0  0  0  0  0  0  0  0  0  0  0
   -3.7290   -0.4950    0.1840 C   0  0  2  0  0  0  0  0  0  0  0  0
   -5.0830   -0.5370   -0.4300 C   0  0  0  0  0  0  0  0  0  0  0  0
   -6.1400   -0.5170    0.6590 C   0  0  0  0  0  0  0  0  0  0  0  0
   -7.4030   -0.0930    0.0830 N   0  0  0  0  0  0  0  0  0  0  0  0
   -7.6950    1.2670    0.5420 C   0  0  0  0  0  0  0  0  0  0  0  0
   -7.5640    2.2770   -0.5750 C   0  0  0  0  0  0  0  0  0  0  0  0
   -6.8600    3.4040   -0.0980 O   0  0  0  0  0  0  0  0  0  0  0  0
   -5.8540    4.0690   -0.7260 C   0  0  0  0  0  0  0  0  0  0  0  0
   -5.7240    5.3500   -0.6510 N   0  0  0  0  0  0  0  0  0  0  0  0
   -4.8560    3.3210   -1.5320 C   0  0  0  0  0  0  0  0  0  0  0  0
   -4.0210    2.4870   -0.5630 C   0  0  2  0  0  0  0  0  0  0  0  0
   -3.0060    3.3750    0.1350 C   0  0  0  0  0  0  0  0  0  0  0  0
   -3.2680    1.4250   -1.3310 C   0  0  0  0  0  0  0  0  0  0  0  0
   -2.8020    0.3540   -0.4840 N   0  0  0  0  0  0  0  0  0  0  0  0
   -1.4010    0.1100   -0.2930 C   0  0  0  0  0  0  0  0  0  0  0  0
   -1.0200   -0.8160    0.4610 O   0  0  0  0  0  0  0  0  0  0  0  0
   -0.3790    0.9390   -0.9780 C   0  0  0  0  0  0  0  0  0  0  0  0
    0.9180    0.4620   -0.6610 O   0  0  0  0  0  0  0  0  0  0  0  0
    1.3160   -0.8300   -0.9780 C   0  0  0  0  0  0  0  0  0  0  0  0
    0.4630   -1.5450   -1.5610 O   0  0  0  0  0  0  0  0  0  0  0  0
    2.6640   -1.2680   -0.6240 C   0  0  1  0  0  0  0  0  0  0  0  0
    3.3750   -2.0420   -1.6590 C   0  0  0  0  0  0  0  0  0  0  0  0
    4.1560   -1.4720   -2.5970 C   0  0  0  0  0  0  0  0  0  0  0  0
    4.8190   -2.2250   -3.5740 C   0  0  0  0  0  0  0  0  0  0  0  0
    4.6920   -3.5950   -3.6080 C   0  0  0  0  0  0  0  0  0  0  0  0
    3.9000   -4.2060   -2.6620 C   0  0  0  0  0  0  0  0  0  0  0  0
    3.2620   -3.4400   -1.7160 C   0  0  0  0  0  0  0  0  0  0  0  0
    3.4330   -0.2180   -0.0060 N   0  0  0  0  0  0  0  0  0  0  0  0
    3.8210    1.0120   -0.6400 C   0  0  0  0  0  0  0  0  0  0  0  0
    3.2320    1.7120   -1.4870 O   0  0  0  0  0  0  0  0  0  0  0  0
    5.1760    1.3620   -0.0710 C   0  0  0  0  0  0  0  0  0  0  0  0
    4.9980    0.9310    1.3420 C   0  0  2  0  0  0  0  0  0  0  0  0
    4.4290    1.9530    2.1280 O   0  0  0  0  0  0  0  0  0  0  0  0
    6.2010    0.3390    2.0030 C   0  0  0  0  0  0  0  0  0  0  0  0
    7.4090    1.1700    2.1240 C   0  0  1  0  0  0  0  0  0  0  0  0
    8.4530    0.2930    2.8510 C   0  0  0  0  0  0  0  0  0  0  0  0
    8.0500    1.4950    0.8010 C   0  0  0  0  0  0  0  0  0  0  0  0
    7.2400    2.4050    2.9760 C   0  0  0  0  0  0  0  0  0  0  0  0
    3.9830   -0.1410    1.2950 C   0  0  0  0  0  0  0  0  0  0  0  0
    3.6440   -0.8950    2.2860 O   0  0  0  0  0  0  0  0  0  0  0  0
   -3.2260   -2.6490    1.4220 C   0  0  0  0  0  0  0  0  0  0  0  0
  1  2  1  0
  2  3  2  0
  2 47  1  0
  3  4  1  0
  4  5  2  0
  5  6  1  0
  7  6  1  6
  6 47  2  0
  7  8  1  0
  7 20  1  0
  8  9  1  0
  9 10  1  0
 10 11  1  0
 11 12  1  0
 12 13  1  0
 13 14  1  0
 14 15  2  0
 14 16  1  0
 16 17  1  0
 17 18  1  6
 17 19  1  0
 19 20  1  0
 20 21  1  0
 21 22  2  0
 21 23  1  0
 23 24  1  0
 24 25  1  0
 25 26  2  0
 25 27  1  0
 27 28  1  0
 27 34  1  6
 28 29  2  0
 28 33  1  0
 29 30  1  0
 30 31  2  0
 31 32  1  0
 32 33  2  0
 34 35  1  0
 34 45  1  0
 35 36  2  0
 35 37  1  0
 37 38  1  0
 38 39  1  1
 38 40  1  0
 38 45  1  0
 40 41  1  0
 41 42  1  1
 41 43  1  0
 41 44  1  0
 45 46  2  0
M  CHG  1  10   1
M  END
