
     RDKit          3D

 47 50  0  0  0  0  0  0  0  0999 V2000
   -5.2150   -0.7540    3.8050 C   0  0  0  0  0  0  0  0  0  0  0  0
   -5.4970   -0.6270    2.3490 C   0  0  0  0  0  0  0  0  0  0  0  0
   -4.4710   -0.9770    1.5160 O   0  0  0  0  0  0  0  0  0  0  0  0
   -3.3490   -0.1540    1.7920 C   0  0  0  0  0  0  0  0  0  0  0  0
   -2.1820   -0.4940    0.8800 C   0  0  2  0  0  0  0  0  0  0  0  0
   -2.7240   -0.2390   -0.5170 C   0  0  0  0  0  0  0  0  0  0  0  0
   -3.8420    0.2910   -0.6760 O   0  0  0  0  0  0  0  0  0  0  0  0
   -1.9700   -0.5960   -1.6570 N   0  0  0  0  0  0  0  0  0  0  0  0
   -2.3410   -0.4230   -3.0070 C   0  0  0  0  0  0  0  0  0  0  0  0
   -3.4540    0.2240   -3.4550 C   0  0  0  0  0  0  0  0  0  0  0  0
   -3.7450    0.3430   -4.8320 C   0  0  0  0  0  0  0  0  0  0  0  0
   -2.8880   -0.2080   -5.7400 C   0  0  0  0  0  0  0  0  0  0  0  0
   -1.7650   -0.8630   -5.3120 C   0  0  0  0  0  0  0  0  0  0  0  0
   -1.4930   -0.9710   -3.9650 C   0  0  0  0  0  0  0  0  0  0  0  0
   -1.8740   -1.9560    0.8830 C   0  0  0  0  0  0  0  0  0  0  0  0
   -1.6280   -2.5940    2.2130 C   0  0  0  0  0  0  0  0  0  0  0  0
   -0.1900   -2.8260    2.4820 N   0  0  0  0  0  0  0  0  0  0  0  0
    0.6120   -1.8510    3.2900 C   0  0  0  0  0  0  0  0  0  0  0  0
    0.0310   -0.4270    3.2060 C   0  0  0  0  0  0  0  0  0  0  0  0
    0.1540    0.0060    1.7840 C   0  0  0  0  0  0  0  0  0  0  0  0
   -1.0940    0.4570    1.1130 C   0  0  1  0  0  0  0  0  0  0  0  0
   -0.6250    1.1380   -0.0510 O   0  0  0  0  0  0  0  0  0  0  0  0
   -1.3700    2.2270   -0.3320 C   0  0  0  0  0  0  0  0  0  0  0  0
   -0.6570    3.5570   -0.2770 C   0  0  0  0  0  0  0  0  0  0  0  0
   -1.2840    4.4770    0.4780 C   0  0  0  0  0  0  0  0  0  0  0  0
   -0.8270    5.8450    0.7100 C   0  0  0  0  0  0  0  0  0  0  0  0
   -0.5810    6.1810    2.1030 N   0  0  0  0  0  0  0  0  0  0  0  0
    0.5370    3.8700   -0.9930 C   0  0  0  0  0  0  0  0  0  0  0  0
    1.1300    3.3090   -2.0510 C   0  0  0  0  0  0  0  0  0  0  0  0
    0.8110    2.1780   -2.8670 C   0  0  0  0  0  0  0  0  0  0  0  0
    1.6040    1.1880   -3.3440 C   0  0  0  0  0  0  0  0  0  0  0  0
    3.0120    0.9540   -3.1990 C   0  0  0  0  0  0  0  0  0  0  0  0
    3.8690    0.6510   -2.2630 C   0  0  0  0  0  0  0  0  0  0  0  0
    5.3880    0.5050   -2.6260 C   0  0  0  0  0  0  0  0  0  0  0  0
    5.5300   -0.7940   -1.9140 C   0  0  0  0  0  0  0  0  0  0  0  0
    6.0800   -1.8040   -2.3560 O   0  0  0  0  0  0  0  0  0  0  0  0
    4.8730   -0.5650   -0.6030 N   0  0  0  0  0  0  0  0  0  0  0  0
    5.3760   -1.2390    0.5730 C   0  0  0  0  0  0  0  0  0  0  0  0
    4.4720   -2.1820    1.2780 C   0  0  0  0  0  0  0  0  0  0  0  0
    3.6220   -2.9730    0.2960 C   0  0  1  0  0  0  0  0  0  0  0  0
    4.4200   -3.6810   -0.6100 O   0  0  0  0  0  0  0  0  0  0  0  0
    2.7490   -3.9750    1.0150 C   0  0  0  0  0  0  0  0  0  0  0  0
    1.2790   -3.7450    0.6890 C   0  0  0  0  0  0  0  0  0  0  0  0
    0.5380   -3.9340    1.9940 C   0  0  0  0  0  0  0  0  0  0  0  0
    0.7430   -5.1370    2.4070 O   0  0  0  0  0  0  0  0  0  0  0  0
    3.8210    0.3580   -0.8380 C   0  0  0  0  0  0  0  0  0  0  0  0
    2.9570    0.8720    0.0410 O   0  0  0  0  0  0  0  0  0  0  0  0
  1  2  1  0
  2  3  1  0
  3  4  1  0
  5  4  1  1
  5  6  1  0
  5 15  1  0
  5 21  1  0
  6  7  2  0
  6  8  1  0
  8  9  1  0
  9 10  2  0
  9 14  1  0
 10 11  1  0
 11 12  2  0
 12 13  1  0
 13 14  2  0
 15 16  1  0
 16 17  1  0
 17 18  1  0
 17 44  1  0
 18 19  1  0
 19 20  1  0
 21 20  1  6
 21 22  1  0
 22 23  1  0
 23 24  1  0
 24 25  2  3
 24 28  1  0
 25 26  1  0
 26 27  1  0
 28 29  2  0
 29 30  1  0
 30 31  2  0
 31 32  1  0
 32 33  2  0
 33 34  1  0
 33 46  1  0
 34 35  1  0
 35 36  2  0
 35 37  1  0
 37 38  1  0
 37 46  1  0
 38 39  1  0
 39 40  1  0
 40 41  1  6
 40 42  1  0
 42 43  1  0
 43 44  1  0
 44 45  2  0
 46 47  2  0
M  CHG  1  27   1
M  END
