
     RDKit          3D

 15 15  0  0  0  0  0  0  0  0999 V2000
    2.6630    0.8210    1.2730 O   0  0  0  0  0  0  0  0  0  0  0  0
    2.5630    0.3000    0.1320 C   0  0  0  0  0  0  0  0  0  0  0  0
    1.3090   -0.2370   -0.2680 N   0  0  0  0  0  0  0  0  0  0  0  0
    0.1870   -0.1790    0.6250 C   0  0  0  0  0  0  0  0  0  0  0  0
   -1.0480   -0.8010    0.0150 C   0  0  1  0  0  0  0  0  0  0  0  0
   -0.7050   -2.1470   -0.2580 O   0  0  0  0  0  0  0  0  0  0  0  0
   -2.1580   -0.8540    1.0230 C   0  0  0  0  0  0  0  0  0  0  0  0
   -2.9920    0.2890    1.0620 N   0  0  0  0  0  0  0  0  0  0  0  0
   -3.3860    0.7960   -0.2310 C   0  0  0  0  0  0  0  0  0  0  0  0
   -2.1400    1.1370   -1.0110 C   0  0  0  0  0  0  0  0  0  0  0  0
   -1.4250   -0.1710   -1.2790 C   0  0  2  0  0  0  0  0  0  0  0  0
   -2.3050   -1.0380   -1.9490 O   0  0  0  0  0  0  0  0  0  0  0  0
    3.6670    0.2650   -0.6940 O   0  0  0  0  0  0  0  0  0  0  0  0
    4.9240    0.7970   -0.3110 C   0  0  0  0  0  0  0  0  0  0  0  0
    5.4380    0.1890    0.8180 O   0  0  0  0  0  0  0  0  0  0  0  0
  1  2  2  0
  2  3  1  0
  2 13  1  0
  3  4  1  0
  4  5  1  0
  5  6  1  6
  5  7  1  0
  5 11  1  0
  7  8  1  0
  8  9  1  0
  9 10  1  0
 10 11  1  0
 11 12  1  1
 13 14  1  0
 14 15  1  0
M  END
