
     RDKit          3D

 16 16  0  0  0  0  0  0  0  0999 V2000
    4.4900   -0.7290    1.4030 N   0  0  0  0  0  0  0  0  0  0  0  0
    3.1840   -0.2440    1.6250 C   0  0  0  0  0  0  0  0  0  0  0  0
    2.7530   -0.1580    2.7930 O   0  0  0  0  0  0  0  0  0  0  0  0
    2.3320    0.1580    0.5260 C   0  0  0  0  0  0  0  0  0  0  0  0
    2.7590    0.0750   -0.6590 O   0  0  0  0  0  0  0  0  0  0  0  0
    1.0590    0.6370    0.6610 O   0  0  0  0  0  0  0  0  0  0  0  0
    0.2220    1.0290   -0.3930 C   0  0  2  0  0  0  0  0  0  0  0  0
   -0.1260    2.4620   -0.3740 C   0  0  0  0  0  0  0  0  0  0  0  0
   -0.9680    3.0310   -1.3720 N   0  0  0  0  0  0  0  0  0  0  0  0
    0.2780    3.2770    0.4990 O   0  0  0  0  0  0  0  0  0  0  0  0
   -0.9670    0.1180   -0.5140 C   0  0  2  0  0  0  0  0  0  0  0  0
   -1.8340    0.0660    0.6990 C   0  0  0  0  0  0  0  0  0  0  0  0
   -2.9210   -0.7400    0.4330 O   0  0  0  0  0  0  0  0  0  0  0  0
   -2.6320   -1.9930   -0.0130 C   0  0  0  0  0  0  0  0  0  0  0  0
   -1.4680   -2.1050   -0.9330 C   0  0  0  0  0  0  0  0  0  0  0  0
   -0.4830   -1.1710   -0.7530 O   0  0  0  0  0  0  0  0  0  0  0  0
  1  2  1  0
  2  3  2  0
  2  4  1  0
  4  5  2  0
  4  6  1  0
  7  6  1  1
  7  8  1  0
  7 11  1  0
  8  9  1  0
  8 10  2  0
 11 12  1  1
 11 16  1  0
 12 13  1  0
 13 14  1  0
 14 15  1  0
 15 16  1  0
M  END
