
     RDKit          3D

 16 16  0  0  0  0  0  0  0  0999 V2000
    2.9680   -0.3780   -1.7150 C   0  0  0  0  0  0  0  0  0  0  0  0
    1.8980   -0.5420   -0.8640 O   0  0  0  0  0  0  0  0  0  0  0  0
    1.4680    0.6450   -0.2990 C   0  0  0  0  0  0  0  0  0  0  0  0
    0.2950    0.4310    0.6280 C   0  0  1  0  0  0  0  0  0  0  0  0
    0.7320   -0.4660    1.6630 N   0  0  0  0  0  0  0  0  0  0  0  0
    0.0590    1.7620    1.3040 C   0  0  0  0  0  0  0  0  0  0  0  0
    0.5400    2.0120    2.4400 O   0  0  0  0  0  0  0  0  0  0  0  0
   -0.7050    2.6460    0.5860 O   0  0  0  0  0  0  0  0  0  0  0  0
   -1.6850    2.1950   -0.2700 C   0  0  0  0  0  0  0  0  0  0  0  0
   -1.6030    0.9520   -0.7760 O   0  0  0  0  0  0  0  0  0  0  0  0
   -0.9530   -0.0200   -0.0810 C   0  0  2  0  0  0  0  0  0  0  0  0
   -1.9190   -0.4750    1.0200 C   0  0  0  0  0  0  0  0  0  0  0  0
   -3.0650   -0.9520    0.3760 O   0  0  0  0  0  0  0  0  0  0  0  0
   -0.7000   -1.1440   -1.0020 C   0  0  0  0  0  0  0  0  0  0  0  0
   -0.0650   -2.3400   -0.5810 N   0  0  0  0  0  0  0  0  0  0  0  0
   -1.0490   -1.0660   -2.2030 O   0  0  0  0  0  0  0  0  0  0  0  0
  1  2  1  0
  2  3  1  0
  3  4  1  0
  4  5  1  1
  4  6  1  0
  4 11  1  0
  6  7  2  0
  6  8  1  0
  8  9  1  0
  9 10  1  0
 10 11  1  0
 11 12  1  1
 11 14  1  0
 12 13  1  0
 14 15  1  0
 14 16  2  0
M  END
