
     RDKit          3D

 16 16  0  0  0  0  0  0  0  0999 V2000
    5.3850   -0.4860   -0.6440 C   0  0  0  0  0  0  0  0  0  0  0  0
    4.1440    0.1780   -0.3660 O   0  0  0  0  0  0  0  0  0  0  0  0
    3.5570   -0.2340    0.8790 C   0  0  0  0  0  0  0  0  0  0  0  0
    4.1130   -1.0260    1.5870 O   0  0  0  0  0  0  0  0  0  0  0  0
    2.2440    0.3890    1.1840 C   0  0  0  0  0  0  0  0  0  0  0  0
    1.2860    0.0970    0.1250 N   0  0  0  0  0  0  0  0  0  0  0  0
   -0.0440    0.5880    0.3300 C   0  0  0  0  0  0  0  0  0  0  0  0
   -0.2540    1.1650    1.3730 O   0  0  0  0  0  0  0  0  0  0  0  0
   -1.0410    0.4050   -0.6030 N   0  0  0  0  0  0  0  0  0  0  0  0
   -2.4250    0.8350   -0.4410 C   0  0  1  0  0  0  0  0  0  0  0  0
   -3.1670   -0.4390   -0.7410 C   0  0  2  0  0  0  0  0  0  0  0  0
   -4.4550   -0.5070   -0.2590 O   0  0  0  0  0  0  0  0  0  0  0  0
   -2.3400   -1.2720    0.2990 C   0  0  0  0  0  0  0  0  0  0  0  0
   -2.1520   -0.3780    1.3950 O   0  0  0  0  0  0  0  0  0  0  0  0
   -2.7850    0.7710    1.0860 C   0  0  1  0  0  0  0  0  0  0  0  0
   -2.5390    1.9060    1.7510 O   0  0  0  0  0  0  0  0  0  0  0  0
  1  2  1  0
  2  3  1  0
  3  4  2  0
  3  5  1  0
  5  6  1  0
  6  7  1  0
  7  8  2  0
  7  9  1  0
 10  9  1  1
 10 11  1  0
 10 15  1  0
 11 12  1  1
 11 13  1  0
 13 14  1  0
 14 15  1  0
 15 16  1  1
M  END
