
     RDKit          3D

 12 12  0  0  0  0  0  0  0  0999 V2000
   -1.9520    1.7760   -0.6250 C   0  0  0  0  0  0  0  0  0  0  0  0
   -2.1810    0.5050    0.0960 C   0  0  1  0  0  0  0  0  0  0  0  0
   -1.2930   -0.0330    0.9340 O   0  0  0  0  0  0  0  0  0  0  0  0
   -0.0600   -0.4150    0.5650 C   0  0  0  0  0  0  0  0  0  0  0  0
    0.8680    0.5990    0.0050 C   0  0  0  0  0  0  0  0  0  0  0  0
    2.2260    0.0630   -0.3570 C   0  0  0  0  0  0  0  0  0  0  0  0
    2.9740   -0.5290    0.7970 C   0  0  0  0  0  0  0  0  0  0  0  0
    4.3110   -1.0190    0.2700 C   0  0  0  0  0  0  0  0  0  0  0  0
    5.0590    0.0130   -0.2810 O   0  0  0  0  0  0  0  0  0  0  0  0
   -3.6160    0.4570    0.6670 C   0  0  0  0  0  0  0  0  0  0  0  0
   -3.6400   -0.9980    0.2080 C   0  0  0  0  0  0  0  0  0  0  0  0
   -2.7100   -0.5460   -0.8990 C   0  0  0  0  0  0  0  0  0  0  0  0
  2  1  1  6
  2  3  1  0
  2 10  1  0
  2 12  1  0
  3  4  1  0
  4  5  1  0
  5  6  1  0
  6  7  1  0
  7  8  1  0
  8  9  1  0
 10 11  1  0
 11 12  1  0
M  END
