
     RDKit          3D

 12 11  0  0  0  0  0  0  0  0999 V2000
    3.8690   -0.6710   -1.3760 C   0  0  0  0  0  0  0  0  0  0  0  0
    3.3300    0.2450   -0.2930 C   0  0  1  0  0  0  0  0  0  0  0  0
    3.8950    1.6340   -0.4890 C   0  0  0  0  0  0  0  0  0  0  0  0
    1.9520    0.2360   -0.2390 O   0  0  0  0  0  0  0  0  0  0  0  0
    1.5200   -0.2430    0.9730 C   0  0  0  0  0  0  0  0  0  0  0  0
    0.0040   -0.2710    1.0770 C   0  0  0  0  0  0  0  0  0  0  0  0
   -0.6240   -1.1330    0.0390 C   0  0  0  0  0  0  0  0  0  0  0  0
   -2.1050   -1.1890    0.1210 C   0  0  0  0  0  0  0  0  0  0  0  0
   -2.8350    0.0960   -0.0280 C   0  0  2  0  0  0  0  0  0  0  0  0
   -4.3360   -0.2120    0.0840 C   0  0  0  0  0  0  0  0  0  0  0  0
   -2.6080    0.7960   -1.3240 C   0  0  0  0  0  0  0  0  0  0  0  0
   -2.6000    0.9880    1.0440 O   0  0  0  0  0  0  0  0  0  0  0  0
  2  1  1  6
  2  3  1  0
  2  4  1  0
  4  5  1  0
  5  6  1  0
  6  7  1  0
  7  8  1  0
  8  9  1  0
  9 10  1  6
  9 11  1  0
  9 12  1  0
M  END
