
     RDKit          3D

 12 11  0  0  0  0  0  0  0  0999 V2000
   -4.6590   -0.7370    0.1530 C   0  0  0  0  0  0  0  0  0  0  0  0
   -3.4960   -0.4160   -0.6780 C   0  0  0  0  0  0  0  0  0  0  0  0
   -2.4350    0.3090   -0.2890 C   0  0  0  0  0  0  0  0  0  0  0  0
   -2.4770    0.8120    1.0990 C   0  0  0  0  0  0  0  0  0  0  0  0
   -1.3590    0.5500   -1.2680 C   0  0  0  0  0  0  0  0  0  0  0  0
   -0.0160    0.0220   -0.9370 C   0  0  0  0  0  0  0  0  0  0  0  0
    0.6410    0.5730    0.2980 C   0  0  0  0  0  0  0  0  0  0  0  0
    1.9790   -0.1100    0.4110 C   0  0  0  0  0  0  0  0  0  0  0  0
    2.1730   -0.8980    1.3740 O   0  0  0  0  0  0  0  0  0  0  0  0
    2.9930    0.0880   -0.4890 O   0  0  0  0  0  0  0  0  0  0  0  0
    4.2680   -0.5060   -0.4620 C   0  0  0  0  0  0  0  0  0  0  0  0
    5.0420   -0.1360    0.7870 C   0  0  0  0  0  0  0  0  0  0  0  0
  1  2  1  0
  2  3  2  3
  3  4  1  0
  3  5  1  0
  5  6  1  0
  6  7  1  0
  7  8  1  0
  8  9  2  0
  8 10  1  0
 10 11  1  0
 11 12  1  0
M  END
