
     RDKit          3D

 11 10  0  0  0  0  0  0  0  0999 V2000
    4.0270   -0.2960   -0.4420 C   0  0  0  0  0  0  0  0  0  0  0  0
    2.9250   -0.5110    0.5460 C   0  0  0  0  0  0  0  0  0  0  0  0
    1.6640    0.2490    0.1380 C   0  0  0  0  0  0  0  0  0  0  0  0
    0.5800    0.0100    1.1540 C   0  0  0  0  0  0  0  0  0  0  0  0
   -0.7050    0.7070    0.8520 C   0  0  0  0  0  0  0  0  0  0  0  0
   -1.3160    0.2720   -0.4560 C   0  0  2  0  0  0  0  0  0  0  0  0
   -2.6180    1.0330   -0.6990 C   0  0  0  0  0  0  0  0  0  0  0  0
   -3.6130    0.7660    0.4110 C   0  0  0  0  0  0  0  0  0  0  0  0
   -1.6270   -1.1160   -0.3680 O   0  0  0  0  0  0  0  0  0  0  0  0
   -1.1600   -2.0500   -1.2470 C   0  0  0  0  0  0  0  0  0  0  0  0
   -0.4180   -1.7000   -2.1960 O   0  0  0  0  0  0  0  0  0  0  0  0
  1  2  1  0
  2  3  1  0
  3  4  1  0
  4  5  1  0
  6  5  1  1
  6  7  1  0
  6  9  1  0
  7  8  1  0
  9 10  1  0
 10 11  2  0
M  END
