
     RDKit          3D

 12 11  0  0  0  0  0  0  0  0999 V2000
    3.8610   -1.4690    0.0010 C   0  0  0  0  0  0  0  0  0  0  0  0
    3.3750   -0.0140    0.0930 C   0  0  1  0  0  0  0  0  0  0  0  0
    4.5990    0.8770   -0.1090 C   0  0  0  0  0  0  0  0  0  0  0  0
    2.5110    0.2840   -0.9420 O   0  0  0  0  0  0  0  0  0  0  0  0
    1.2570    0.6520   -0.4820 C   0  0  0  0  0  0  0  0  0  0  0  0
    0.6370   -0.5090    0.2500 C   0  0  0  0  0  0  0  0  0  0  0  0
   -0.7350   -0.2120    0.8130 C   0  0  0  0  0  0  0  0  0  0  0  0
   -1.6600    0.1470   -0.2940 C   0  0  0  0  0  0  0  0  0  0  0  0
   -3.0670    0.4470    0.1870 C   0  0  2  0  0  0  0  0  0  0  0  0
   -3.6030   -0.7900    0.8780 C   0  0  0  0  0  0  0  0  0  0  0  0
   -3.8970    0.6800   -1.0780 C   0  0  0  0  0  0  0  0  0  0  0  0
   -5.2000    0.9610   -0.7430 O   0  0  0  0  0  0  0  0  0  0  0  0
  2  1  1  6
  2  3  1  0
  2  4  1  0
  4  5  1  0
  5  6  1  0
  6  7  1  0
  7  8  1  0
  8  9  1  0
  9 10  1  6
  9 11  1  0
 11 12  1  0
M  END
