
     RDKit          3D

 12 13  0  0  0  0  0  0  0  0999 V2000
   -1.8780    1.7830   -0.0490 C   0  0  0  0  0  0  0  0  0  0  0  0
   -0.4850    1.4110    0.0460 N   0  0  0  0  0  0  0  0  0  0  0  0
    0.5740    2.2680    0.1880 C   0  0  0  0  0  0  0  0  0  0  0  0
    1.7090    1.5620    0.2400 N   0  0  0  0  0  0  0  0  0  0  0  0
    1.3850    0.2510    0.1320 C   0  0  0  0  0  0  0  0  0  0  0  0
    2.1110   -0.9160    0.1200 C   0  0  0  0  0  0  0  0  0  0  0  0
    3.5260   -0.8620    0.2430 N   0  0  0  0  0  0  0  0  0  0  0  0
    1.4730   -2.0850   -0.0070 N   0  0  0  0  0  0  0  0  0  0  0  0
    0.1430   -2.1770   -0.1250 C   0  0  0  0  0  0  0  0  0  0  0  0
   -0.5960   -1.0490   -0.1170 N   0  0  0  0  0  0  0  0  0  0  0  0
   -2.0370   -1.1260   -0.2430 C   0  0  0  0  0  0  0  0  0  0  0  0
   -0.0090    0.1660    0.0080 C   0  0  0  0  0  0  0  0  0  0  0  0
  1  2  1  0
  2  3  1  0
  2 12  1  0
  3  4  2  0
  4  5  1  0
  5  6  2  0
  5 12  1  0
  6  7  1  0
  6  8  1  0
  8  9  2  0
  9 10  1  0
 10 11  1  0
 10 12  2  0
M  CHG  1  10   1
M  END
