
     RDKit          3D

 20 20  0  0  0  0  0  0  0  0999 V2000
   -2.8810   -1.1980   -0.5530 C   0  0  0  0  0  0  0  0  0  0  0  0
   -1.8810   -0.7930    0.5020 C   0  0  2  0  0  0  0  0  0  0  0  0
   -2.4650   -0.3430    1.6670 O   0  0  0  0  0  0  0  0  0  0  0  0
   -3.4680    1.0410    1.4320 P   0  0  0  0  0  0  0  0  0  0  0  0
   -4.8940    0.6820    0.5360 O   0  0  0  0  0  0  0  0  0  0  0  0
   -2.5920    2.3640    0.7350 O   0  0  0  0  0  0  0  0  0  0  0  0
   -0.9140    0.1720   -0.1000 C   0  0  0  0  0  0  0  0  0  0  0  0
    0.3690   -0.6030   -0.3300 C   0  0  2  0  0  0  0  0  0  0  0  0
    1.3440   -0.2250    0.5640 O   0  0  0  0  0  0  0  0  0  0  0  0
    2.4720   -1.0180    0.4020 C   0  0  0  0  0  0  0  0  0  0  0  0
    3.4450   -0.6160    1.3180 O   0  0  0  0  0  0  0  0  0  0  0  0
    3.8840    1.0310    1.0770 P   0  0  0  0  0  0  0  0  0  0  0  0
    5.3860    1.3400    1.8900 O   0  0  0  0  0  0  0  0  0  0  0  0
    3.9890    1.4430   -0.6070 O   0  0  0  0  0  0  0  0  0  0  0  0
    0.8120   -0.4700   -1.6350 O   0  0  0  0  0  0  0  0  0  0  0  0
    1.0550    0.7660   -1.9520 O   0  0  0  0  0  0  0  0  0  0  0  0
    0.8680    1.6090   -0.9720 O   0  0  0  0  0  0  0  0  0  0  0  0
   -0.0470   -2.0150   -0.0970 C   0  0  0  0  0  0  0  0  0  0  0  0
    0.4580   -3.0280   -0.6310 O   0  0  0  0  0  0  0  0  0  0  0  0
   -1.0970   -1.9270    0.8270 O   0  0  0  0  0  0  0  0  0  0  0  0
  2  1  1  6
  2  3  1  0
  2  7  1  0
  2 20  1  0
  3  4  1  0
  4  5  1  0
  4  6  1  0
  7  8  1  0
  8  9  1  1
  8 15  1  0
  8 18  1  0
  9 10  1  0
 10 11  1  0
 11 12  1  0
 12 13  1  0
 12 14  1  0
 15 16  1  0
 16 17  1  0
 18 19  2  0
 18 20  1  0
M  END
