
     RDKit          3D

 21 20  0  0  0  0  0  0  0  0999 V2000
   -1.5230    3.7250   -0.2420 O   0  0  0  0  0  0  0  0  0  0  0  0
   -1.5850    3.2930   -1.4130 C   0  0  0  0  0  0  0  0  0  0  0  0
   -2.4310    3.9720   -2.3210 O   0  0  0  0  0  0  0  0  0  0  0  0
   -0.8670    2.2220   -1.7820 O   0  0  0  0  0  0  0  0  0  0  0  0
   -0.0040    1.3670   -1.1740 C   0  0  0  0  0  0  0  0  0  0  0  0
   -0.4930    0.4060   -0.1290 C   0  0  1  0  0  0  0  0  0  0  0  0
   -0.8420    1.0830    1.1370 C   0  0  0  0  0  0  0  0  0  0  0  0
    0.2020    1.9110    1.5340 O   0  0  0  0  0  0  0  0  0  0  0  0
   -1.4580   -0.3950   -0.6750 O   0  0  0  0  0  0  0  0  0  0  0  0
   -2.0590   -1.2660    0.1850 C   0  0  0  0  0  0  0  0  0  0  0  0
   -3.3390   -2.2920   -0.6970 P   0  0  0  0  0  0  0  0  0  0  0  0
   -2.6010   -3.8040   -1.2000 O   0  0  0  0  0  0  0  0  0  0  0  0
   -4.5610   -2.7180    0.4630 O   0  0  0  0  0  0  0  0  0  0  0  0
    0.7090   -0.5300    0.1200 C   0  0  0  0  0  0  0  0  0  0  0  0
    0.6540   -1.7100   -0.2390 O   0  0  0  0  0  0  0  0  0  0  0  0
    1.8400   -0.0490    0.7440 O   0  0  0  0  0  0  0  0  0  0  0  0
    3.2490   -1.0480    1.0650 P   0  0  0  0  0  0  0  0  0  0  0  0
    4.5440   -0.0290    1.5960 O   0  0  0  0  0  0  0  0  0  0  0  0
    5.3050    0.2930    0.5820 O   0  0  0  0  0  0  0  0  0  0  0  0
    3.7290   -1.7680   -0.4430 O   0  0  0  0  0  0  0  0  0  0  0  0
    4.6900   -2.6570   -0.2240 O   0  0  0  0  0  0  0  0  0  0  0  0
  1  2  2  0
  2  3  1  0
  2  4  1  0
  4  5  1  0
  6  5  1  6
  6  7  1  0
  6  9  1  0
  6 14  1  0
  7  8  1  0
  9 10  1  0
 10 11  1  0
 11 12  1  0
 11 13  1  0
 14 15  2  0
 14 16  1  0
 16 17  1  0
 17 18  1  0
 17 20  1  0
 18 19  1  0
 20 21  1  0
M  END
