
     RDKit          3D

 21 21  0  0  0  0  0  0  0  0999 V2000
    4.5310   -0.2260    1.1590 C   0  0  0  0  0  0  0  0  0  0  0  0
    4.0360   -0.8110   -0.0160 O   0  0  0  0  0  0  0  0  0  0  0  0
    2.8310   -2.0000    0.3540 P   0  0  0  0  0  0  0  0  0  0  0  0
    3.4480   -3.5420   -0.1690 O   0  0  0  0  0  0  0  0  0  0  0  0
    1.3210   -1.6300   -0.4150 O   0  0  0  0  0  0  0  0  0  0  0  0
    1.3210   -0.2820   -0.7600 C   0  0  0  0  0  0  0  0  0  0  0  0
    0.0290    0.1230   -1.4420 C   0  0  2  0  0  0  0  0  0  0  0  0
   -0.0660   -0.6780   -2.6050 O   0  0  0  0  0  0  0  0  0  0  0  0
    0.2080    1.4230   -1.8930 O   0  0  0  0  0  0  0  0  0  0  0  0
    0.2940    2.2120   -0.8740 O   0  0  0  0  0  0  0  0  0  0  0  0
   -0.8470    2.2450   -0.0740 C   0  0  0  0  0  0  0  0  0  0  0  0
   -1.5060    0.9270    0.1340 C   0  0  2  0  0  0  0  0  0  0  0  0
   -2.8960    0.9720    0.2530 O   0  0  0  0  0  0  0  0  0  0  0  0
   -3.6710    1.4620   -0.7750 C   0  0  0  0  0  0  0  0  0  0  0  0
   -3.0460    1.8450   -1.7810 O   0  0  0  0  0  0  0  0  0  0  0  0
   -5.0550    1.5440   -0.7430 O   0  0  0  0  0  0  0  0  0  0  0  0
   -1.0870    0.4870    1.4270 O   0  0  0  0  0  0  0  0  0  0  0  0
   -1.7970   -1.0500    1.7830 P   0  0  0  0  0  0  0  0  0  0  0  0
   -2.5580   -1.0450    3.3510 O   0  0  0  0  0  0  0  0  0  0  0  0
   -2.9840   -1.5150    0.6250 O   0  0  0  0  0  0  0  0  0  0  0  0
   -1.0760   -0.0910   -0.7020 O   0  0  0  0  0  0  0  0  0  0  0  0
  1  2  1  0
  2  3  1  0
  3  4  1  0
  3  5  1  0
  5  6  1  0
  6  7  1  0
  7  8  1  6
  7  9  1  0
  7 21  1  0
  9 10  1  0
 10 11  1  0
 11 12  1  0
 12 13  1  1
 12 17  1  0
 12 21  1  0
 13 14  1  0
 14 15  2  0
 14 16  1  0
 17 18  1  0
 18 19  1  0
 18 20  1  0
M  END
