
     RDKit          3D

 21 20  0  0  0  0  0  0  0  0999 V2000
   -1.2240   -0.9890    1.5820 C   0  0  0  0  0  0  0  0  0  0  0  0
   -1.0250   -0.3080    0.2670 C   0  0  2  0  0  0  0  0  0  0  0  0
    0.2590   -0.4630   -0.2380 O   0  0  0  0  0  0  0  0  0  0  0  0
    1.2140    0.2220    0.4980 C   0  0  0  0  0  0  0  0  0  0  0  0
    2.4630   -0.0360   -0.1420 O   0  0  0  0  0  0  0  0  0  0  0  0
    3.6560    0.4920    0.3220 C   0  0  0  0  0  0  0  0  0  0  0  0
    3.6380    1.2250    1.3440 O   0  0  0  0  0  0  0  0  0  0  0  0
    4.8150    0.1810   -0.3720 O   0  0  0  0  0  0  0  0  0  0  0  0
    6.3330    0.8440    0.2070 P   0  0  0  0  0  0  0  0  0  0  0  0
    7.5770    0.6560   -0.9830 O   0  0  0  0  0  0  0  0  0  0  0  0
    6.7860    0.1200    1.7220 O   0  0  0  0  0  0  0  0  0  0  0  0
   -1.3850    1.0130    0.2660 O   0  0  0  0  0  0  0  0  0  0  0  0
   -2.6260    1.3140    0.7500 C   0  0  0  0  0  0  0  0  0  0  0  0
   -4.0360    0.5250   -0.1450 P   0  0  0  0  0  0  0  0  0  0  0  0
   -4.6270   -0.8450    0.7780 O   0  0  0  0  0  0  0  0  0  0  0  0
   -5.3690    1.6270   -0.2900 O   0  0  0  0  0  0  0  0  0  0  0  0
   -1.8610   -0.9820   -0.6940 O   0  0  0  0  0  0  0  0  0  0  0  0
   -1.8820   -0.5810   -2.0210 C   0  0  0  0  0  0  0  0  0  0  0  0
   -1.1490    0.3850   -2.3450 O   0  0  0  0  0  0  0  0  0  0  0  0
   -2.6520   -1.1680   -3.0090 O   0  0  0  0  0  0  0  0  0  0  0  0
   -2.6510   -0.7580   -4.2840 O   0  0  0  0  0  0  0  0  0  0  0  0
  2  1  1  1
  2  3  1  0
  2 12  1  0
  2 17  1  0
  3  4  1  0
  4  5  1  0
  5  6  1  0
  6  7  2  0
  6  8  1  0
  8  9  1  0
  9 10  1  0
  9 11  1  0
 12 13  1  0
 13 14  1  0
 14 15  1  0
 14 16  1  0
 17 18  1  0
 18 19  2  0
 18 20  1  0
 20 21  1  0
M  END
