
     RDKit          3D

 21 20  0  0  0  0  0  0  0  0999 V2000
    1.2710    4.9260   -1.1350 O   0  0  0  0  0  0  0  0  0  0  0  0
    1.7000    4.7670    0.0360 C   0  0  0  0  0  0  0  0  0  0  0  0
    1.3270    3.6080    0.7010 O   0  0  0  0  0  0  0  0  0  0  0  0
    0.5100    2.6940    0.0480 C   0  0  0  0  0  0  0  0  0  0  0  0
    0.1000    2.8990   -1.1410 O   0  0  0  0  0  0  0  0  0  0  0  0
    0.0910    1.5110    0.6410 O   0  0  0  0  0  0  0  0  0  0  0  0
   -0.7690    0.5950   -0.1020 C   0  0  2  0  0  0  0  0  0  0  0  0
   -0.9690   -0.4580    0.7940 O   0  0  0  0  0  0  0  0  0  0  0  0
    0.1850   -1.0250    1.2360 C   0  0  0  0  0  0  0  0  0  0  0  0
    1.1600   -1.5820    0.2810 C   0  0  0  0  0  0  0  0  0  0  0  0
    2.6470   -2.2520    1.2110 P   0  0  0  0  0  0  0  0  0  0  0  0
    3.7430   -0.9960    1.6290 O   0  0  0  0  0  0  0  0  0  0  0  0
    2.1760   -3.2260    2.5420 O   0  0  0  0  0  0  0  0  0  0  0  0
   -0.2810    0.1880   -1.2730 O   0  0  0  0  0  0  0  0  0  0  0  0
   -0.9670   -0.5580   -2.0070 O   0  0  0  0  0  0  0  0  0  0  0  0
   -2.0020   -1.7610   -1.4480 P   0  0  0  0  0  0  0  0  0  0  0  0
   -1.3330   -3.3880   -1.5940 O   0  0  0  0  0  0  0  0  0  0  0  0
   -3.5110   -1.7940   -2.3450 O   0  0  0  0  0  0  0  0  0  0  0  0
   -2.0520    1.3640   -0.3330 C   0  0  0  0  0  0  0  0  0  0  0  0
   -2.1780    2.5480    0.1140 O   0  0  0  0  0  0  0  0  0  0  0  0
   -3.1330    0.8680   -1.0110 O   0  0  0  0  0  0  0  0  0  0  0  0
  1  2  2  0
  2  3  1  0
  3  4  1  0
  4  5  2  0
  4  6  1  0
  7  6  1  1
  7  8  1  0
  7 14  1  0
  7 19  1  0
  8  9  1  0
  9 10  1  0
 10 11  1  0
 11 12  1  0
 11 13  1  0
 14 15  1  0
 15 16  1  0
 16 17  1  0
 16 18  1  0
 19 20  2  0
 19 21  1  0
M  END
