
     RDKit          3D

 15 15  0  0  0  0  0  0  0  0999 V2000
   -1.2450   -0.9960   -1.6610 C   0  0  0  0  0  0  0  0  0  0  0  0
   -0.5500   -0.6700   -0.3500 C   0  0  2  0  0  0  0  0  0  0  0  0
    0.2500   -1.8320    0.1460 C   0  0  0  0  0  0  0  0  0  0  0  0
   -1.6440   -0.4270    0.6550 C   0  0  2  0  0  0  0  0  0  0  0  0
   -2.7110   -1.2890    0.3070 O   0  0  0  0  0  0  0  0  0  0  0  0
   -2.0760    0.9780    0.8200 C   0  0  1  0  0  0  0  0  0  0  0  0
   -1.8920    1.4190    2.1550 O   0  0  0  0  0  0  0  0  0  0  0  0
   -1.5400    1.9640   -0.1280 C   0  0  0  0  0  0  0  0  0  0  0  0
   -0.5470    1.5690   -0.9580 O   0  0  0  0  0  0  0  0  0  0  0  0
    0.2760    0.5570   -0.4800 C   0  0  1  0  0  0  0  0  0  0  0  0
    0.8320    0.9190    0.7400 O   0  0  0  0  0  0  0  0  0  0  0  0
    1.3800    0.3920   -1.4980 C   0  0  0  0  0  0  0  0  0  0  0  0
    2.5690   -0.8820   -1.1440 S   0  0  0  0  0  0  0  0  0  0  0  0
    3.6540   -0.5650    0.2380 C   0  0  0  0  0  0  0  0  0  0  0  0
    4.5300    0.4990    0.0170 O   0  0  0  0  0  0  0  0  0  0  0  0
  2  1  1  6
  2  3  1  0
  2  4  1  0
  2 10  1  0
  4  5  1  6
  4  6  1  0
  6  7  1  1
  6  8  1  0
  8  9  1  0
  9 10  1  0
 10 11  1  1
 10 12  1  0
 12 13  1  0
 13 14  1  0
 14 15  1  0
M  END
