
     RDKit          3D

 15 15  0  0  0  0  0  0  0  0999 V2000
    0.1180    1.3800    1.5540 O   0  0  0  0  0  0  0  0  0  0  0  0
    1.2980    1.5790    0.8370 C   0  0  0  0  0  0  0  0  0  0  0  0
    1.7740    0.2580    0.2650 C   0  0  0  0  0  0  0  0  0  0  0  0
    2.9390   -0.2170    0.5940 C   0  0  0  0  0  0  0  0  0  0  0  0
    3.6120   -1.4530    0.1800 C   0  0  1  0  0  0  0  0  0  0  0  0
    3.8640   -2.2940    1.2820 O   0  0  0  0  0  0  0  0  0  0  0  0
    2.5920   -2.3890   -0.9550 S   0  0  0  0  0  0  0  0  0  0  0  0
    1.0960   -1.5090   -1.2080 C   0  0  0  0  0  0  0  0  0  0  0  0
    0.8440   -0.3750   -0.6320 C   0  0  0  0  0  0  0  0  0  0  0  0
   -0.4120    0.2230   -0.9320 O   0  0  0  0  0  0  0  0  0  0  0  0
   -1.5280   -0.5960   -0.5550 C   0  0  0  0  0  0  0  0  0  0  0  0
   -2.8330    0.0870   -0.8950 C   0  0  2  0  0  0  0  0  0  0  0  0
   -2.9360    0.3390   -2.2440 O   0  0  0  0  0  0  0  0  0  0  0  0
   -3.0710    1.3080   -0.0450 C   0  0  0  0  0  0  0  0  0  0  0  0
   -2.9330    0.8970    1.2930 O   0  0  0  0  0  0  0  0  0  0  0  0
  1  2  1  0
  2  3  1  0
  3  4  2  0
  3  9  1  0
  4  5  1  0
  5  6  1  1
  5  7  1  0
  7  8  1  0
  8  9  2  0
  9 10  1  0
 10 11  1  0
 11 12  1  0
 12 13  1  6
 12 14  1  0
 14 15  1  0
M  END
