
     RDKit          3D

 15 15  0  0  0  0  0  0  0  0999 V2000
    0.2820   -1.1270    2.2790 C   0  0  0  0  0  0  0  0  0  0  0  0
   -0.8630   -0.6300    1.4440 C   0  0  1  0  0  0  0  0  0  0  0  0
   -1.5840   -1.7630    1.0300 O   0  0  0  0  0  0  0  0  0  0  0  0
   -1.7520    0.1770    2.1070 O   0  0  0  0  0  0  0  0  0  0  0  0
   -2.0080    1.3940    1.5300 C   0  0  0  0  0  0  0  0  0  0  0  0
   -2.3190    1.3480    0.0600 C   0  0  0  0  0  0  0  0  0  0  0  0
   -1.4670    0.3390   -0.6690 C   0  0  1  0  0  0  0  0  0  0  0  0
   -2.2420   -0.8200   -0.8110 O   0  0  0  0  0  0  0  0  0  0  0  0
   -1.0600    0.7760   -2.0410 C   0  0  0  0  0  0  0  0  0  0  0  0
   -0.1150   -0.1530   -2.5050 O   0  0  0  0  0  0  0  0  0  0  0  0
   -0.2870    0.0840    0.2490 C   0  0  2  0  0  0  0  0  0  0  0  0
    1.0550   -0.7950   -0.5410 S   0  0  0  0  0  0  0  0  0  0  0  0
    2.6180    0.0410   -0.1860 C   0  0  0  0  0  0  0  0  0  0  0  0
    3.7140   -0.3510   -1.1340 C   0  0  0  0  0  0  0  0  0  0  0  0
    3.8440   -1.7190   -1.2930 O   0  0  0  0  0  0  0  0  0  0  0  0
  2  1  1  1
  2  3  1  0
  2  4  1  0
  2 11  1  0
  4  5  1  0
  5  6  1  0
  6  7  1  0
  7  8  1  6
  7  9  1  0
  7 11  1  0
  9 10  1  0
 11 12  1  6
 12 13  1  0
 13 14  1  0
 14 15  1  0
M  END
