
     RDKit          3D

 15 15  0  0  0  0  0  0  0  0999 V2000
    4.4540   -0.9300   -1.1800 O   0  0  0  0  0  0  0  0  0  0  0  0
    4.2250    0.4340   -0.9910 C   0  0  0  0  0  0  0  0  0  0  0  0
    3.1840    0.6260    0.1200 C   0  0  1  0  0  0  0  0  0  0  0  0
    3.0090    1.9980    0.2520 O   0  0  0  0  0  0  0  0  0  0  0  0
    1.8880    0.0640   -0.4270 C   0  0  0  0  0  0  0  0  0  0  0  0
    0.8350    0.3300    0.4340 O   0  0  0  0  0  0  0  0  0  0  0  0
   -0.3720   -0.1540   -0.0040 C   0  0  2  0  0  0  0  0  0  0  0  0
   -1.3110    1.0040   -0.1480 C   0  0  0  0  0  0  0  0  0  0  0  0
   -2.6880    0.6380   -0.5650 C   0  0  2  0  0  0  0  0  0  0  0  0
   -3.2730    1.7880   -1.1460 O   0  0  0  0  0  0  0  0  0  0  0  0
   -3.5910    0.2110    0.5480 C   0  0  0  0  0  0  0  0  0  0  0  0
   -3.5800   -1.6130    0.5900 S   0  0  0  0  0  0  0  0  0  0  0  0
   -1.8900   -2.1280    0.1220 C   0  0  0  0  0  0  0  0  0  0  0  0
   -0.9400   -1.2310    0.8980 C   0  0  2  0  0  0  0  0  0  0  0  0
   -1.5470   -0.6980    2.0360 O   0  0  0  0  0  0  0  0  0  0  0  0
  1  2  1  0
  2  3  1  0
  3  4  1  6
  3  5  1  0
  5  6  1  0
  7  6  1  1
  7  8  1  0
  7 14  1  0
  8  9  1  0
  9 10  1  1
  9 11  1  0
 11 12  1  0
 12 13  1  0
 13 14  1  0
 14 15  1  1
M  END
