
     RDKit          3D

 15 15  0  0  0  0  0  0  0  0999 V2000
   -1.7920   -2.2090   -0.6110 O   0  0  0  0  0  0  0  0  0  0  0  0
   -0.5140   -2.1730   -0.1550 C   0  0  0  0  0  0  0  0  0  0  0  0
    0.0590   -0.7380   -0.0110 C   0  0  2  0  0  0  0  0  0  0  0  0
    1.4570   -1.0270    0.4850 C   0  0  0  0  0  0  0  0  0  0  0  0
    2.3670    0.0710    0.7590 C   0  0  0  0  0  0  0  0  0  0  0  0
    2.7880    1.1450   -0.6290 S   0  0  0  0  0  0  0  0  0  0  0  0
    3.8670    2.3630   -0.0770 O   0  0  0  0  0  0  0  0  0  0  0  0
   -0.7540   -0.0570    1.0190 C   0  0  1  0  0  0  0  0  0  0  0  0
   -0.1530    1.0860    1.5520 O   0  0  0  0  0  0  0  0  0  0  0  0
   -2.1470    0.3120    0.7010 C   0  0  0  0  0  0  0  0  0  0  0  0
   -2.1790    1.5810   -0.1310 C   0  0  0  0  0  0  0  0  0  0  0  0
   -1.8710    1.2290   -1.4450 O   0  0  0  0  0  0  0  0  0  0  0  0
   -0.4630    1.2320   -1.5170 C   0  0  0  0  0  0  0  0  0  0  0  0
    0.0690   -0.1720   -1.3760 C   0  0  2  0  0  0  0  0  0  0  0  0
   -0.7420   -0.9390   -2.2600 O   0  0  0  0  0  0  0  0  0  0  0  0
  1  2  1  0
  3  2  1  6
  3  4  1  0
  3  8  1  0
  3 14  1  0
  4  5  1  0
  5  6  1  0
  6  7  1  0
  8  9  1  6
  8 10  1  0
 10 11  1  0
 11 12  1  0
 12 13  1  0
 13 14  1  0
 14 15  1  6
M  END
