
     RDKit          3D

 24 27  0  0  0  0  0  0  0  0999 V2000
    2.8130    0.0240   -1.7950 C   0  0  0  0  0  0  0  0  0  0  0  0
    2.1760   -0.4110   -0.5870 N   0  0  1  0  0  0  0  0  0  0  0  0
    2.8790   -0.0340    0.6070 C   0  0  0  0  0  0  0  0  0  0  0  0
    4.3810   -0.0970    0.4090 C   0  0  0  0  0  0  0  0  0  0  0  0
    5.2490   -1.1050    0.5410 C   0  0  0  0  0  0  0  0  0  0  0  0
    6.5140   -0.8200    0.2910 N   0  0  0  0  0  0  0  0  0  0  0  0
    6.9790    0.1620   -0.0220 C   0  0  0  0  0  0  0  0  0  0  0  0
    5.4230    1.2530   -0.0770 S   0  0  0  0  0  0  0  0  0  0  0  0
    0.8520    0.1200   -0.5280 C   0  0  0  0  0  0  0  0  0  0  0  0
    0.3250    0.9110   -1.5180 C   0  0  0  0  0  0  0  0  0  0  0  0
   -0.9670    1.4360   -1.4560 C   0  0  0  0  0  0  0  0  0  0  0  0
   -1.7540    1.1440   -0.3440 C   0  0  0  0  0  0  0  0  0  0  0  0
   -1.2590    0.3440    0.6860 C   0  0  0  0  0  0  0  0  0  0  0  0
    0.0220   -0.1360    0.5530 C   0  0  0  0  0  0  0  0  0  0  0  0
   -2.3050    0.2020    1.7550 C   0  0  2  0  0  0  0  0  0  0  0  0
   -2.3100   -1.0140    2.3760 O   0  0  0  0  0  0  0  0  0  0  0  0
   -3.5550    0.6080    1.0570 C   0  0  2  0  0  0  0  0  0  0  0  0
   -4.2090   -0.5720    0.4500 C   0  0  0  0  0  0  0  0  0  0  0  0
   -3.7940   -1.8430    0.2510 C   0  0  0  0  0  0  0  0  0  0  0  0
   -4.7540   -2.5320   -0.3540 O   0  0  0  0  0  0  0  0  0  0  0  0
   -5.7880   -1.7350   -0.5530 C   0  0  0  0  0  0  0  0  0  0  0  0
   -5.4980   -0.4990   -0.0690 C   0  0  0  0  0  0  0  0  0  0  0  0
   -6.6360    1.0090   -0.1030 Br  0  0  0  0  0  0  0  0  0  0  0  0
   -3.0790    1.5190    0.0040 N   0  0  0  0  0  0  0  0  0  0  0  0
  2  1  1  6
  2  3  1  0
  2  9  1  0
  3  4  1  0
  4  5  2  0
  4  8  1  0
  5  6  1  0
  6  7  2  0
  7  8  1  0
  9 10  2  0
  9 14  1  0
 10 11  1  0
 11 12  2  0
 12 13  1  0
 12 24  1  0
 13 14  2  0
 13 15  1  0
 15 16  1  6
 15 17  1  0
 17 18  1  6
 17 24  1  0
 18 19  2  0
 18 22  1  0
 19 20  1  0
 20 21  1  0
 21 22  2  0
 22 23  1  0
M  CHG  1   2   1
M  END
