
     RDKit          3D

 24 26  0  0  0  0  0  0  0  0999 V2000
    2.9610    2.0750    1.0950 C   0  0  0  0  0  0  0  0  0  0  0  0
    3.5610    1.1800    0.3300 C   0  0  0  0  0  0  0  0  0  0  0  0
    2.8460    0.3570   -0.5750 N   0  0  0  0  0  0  0  0  0  0  0  0
    2.0690   -0.7630   -0.1810 C   0  0  0  0  0  0  0  0  0  0  0  0
    2.7130   -1.8490    0.2020 C   0  0  0  0  0  0  0  0  0  0  0  0
    4.6060   -2.0230    0.2650 Br  0  0  0  0  0  0  0  0  0  0  0  0
    1.8820   -3.0080    0.6100 C   0  0  0  0  0  0  0  0  0  0  0  0
    0.8470   -3.2300   -0.4460 C   0  0  0  0  0  0  0  0  0  0  0  0
    0.1110   -2.0020   -0.8650 C   0  0  0  0  0  0  0  0  0  0  0  0
    0.5680   -0.7440   -0.1890 C   0  0  1  0  0  0  0  0  0  0  0  0
    0.0190   -0.6120    1.2130 C   0  0  0  0  0  0  0  0  0  0  0  0
   -0.9460    0.5560    1.2790 C   0  0  0  0  0  0  0  0  0  0  0  0
   -1.9470    0.4100    0.2450 N   0  0  1  0  0  0  0  0  0  0  0  0
   -3.0020    1.3800    0.5290 C   0  0  1  0  0  0  0  0  0  0  0  0
   -3.9570    1.4920   -0.6400 C   0  0  0  0  0  0  0  0  0  0  0  0
   -5.0260    0.4500   -0.3940 C   0  0  0  0  0  0  0  0  0  0  0  0
   -4.8100   -0.0930    0.9860 C   0  0  0  0  0  0  0  0  0  0  0  0
   -3.9060    0.9170    1.6340 C   0  0  0  0  0  0  0  0  0  0  0  0
   -1.3240    0.6680   -1.0180 C   0  0  0  0  0  0  0  0  0  0  0  0
    0.1470    0.4280   -1.0490 C   0  0  0  0  0  0  0  0  0  0  0  0
    4.9700    1.0240    0.4040 N   0  0  0  0  0  0  0  0  0  0  0  0
    5.9600    1.2290   -0.9910 S   0  0  2  0  0  0  0  0  0  0  0  0
    7.3450    1.5710   -0.5010 O   0  0  0  0  0  0  0  0  0  0  0  0
    5.4350    2.2680   -1.9220 O   0  0  0  0  0  0  0  0  0  0  0  0
  1  2  2  0
  2  3  1  0
  2 21  1  0
  3  4  1  0
  4  5  2  0
  4 10  1  0
  5  6  1  0
  5  7  1  0
  7  8  1  0
  8  9  1  0
 10  9  1  6
 10 11  1  0
 10 20  1  0
 11 12  1  0
 13 12  1  1
 13 14  1  0
 13 19  1  0
 14 15  1  6
 14 18  1  0
 15 16  1  0
 16 17  1  0
 17 18  1  0
 19 20  1  0
 22 21  1  1
 22 23  2  0
 22 24  2  0
M  CHG  1  13   1
M  END
