
     RDKit          3D

 24 25  0  0  0  0  0  0  0  0999 V2000
   -2.3120    2.9060    0.4330 C   0  0  0  0  0  0  0  0  0  0  0  0
   -1.8500    1.7080    0.1210 C   0  0  0  0  0  0  0  0  0  0  0  0
   -2.6110    0.7080   -0.6090 C   0  0  0  0  0  0  0  0  0  0  0  0
   -1.8710   -0.3990   -0.7790 C   0  0  0  0  0  0  0  0  0  0  0  0
   -0.5840   -0.2820   -0.2060 N   0  0  0  0  0  0  0  0  0  0  0  0
   -0.1530   -1.1420    0.6560 C   0  0  0  0  0  0  0  0  0  0  0  0
    1.1860   -0.9350    1.1890 C   0  0  0  0  0  0  0  0  0  0  0  0
    1.9490    0.0680    0.8340 C   0  0  0  0  0  0  0  0  0  0  0  0
    3.3010    0.3310    1.3320 C   0  0  0  0  0  0  0  0  0  0  0  0
    3.9010    1.3900    0.8520 C   0  0  0  0  0  0  0  0  0  0  0  0
    5.2160    1.8710    1.1690 C   0  0  0  0  0  0  0  0  0  0  0  0
    6.1750    1.3480    2.0500 N   0  0  0  0  0  0  0  0  0  0  0  0
    5.5940    2.9510    0.5580 O   0  0  0  0  0  0  0  0  0  0  0  0
    3.9380   -0.5280    2.2980 C   0  0  0  0  0  0  0  0  0  0  0  0
    3.4050   -1.6250    2.8420 C   0  0  0  0  0  0  0  0  0  0  0  0
    4.1960   -2.4020    3.8260 C   0  0  0  0  0  0  0  0  0  0  0  0
    1.7690   -2.1220    2.3720 S   0  0  0  0  0  0  0  0  0  0  0  0
   -2.1790   -1.5930   -1.4120 O   0  0  0  0  0  0  0  0  0  0  0  0
   -2.8620   -2.0220   -2.5990 C   0  0  0  0  0  0  0  0  0  0  0  0
   -3.1230   -0.8410   -3.4770 C   0  0  0  0  0  0  0  0  0  0  0  0
   -4.2690   -0.0590   -3.1470 N   0  0  0  0  0  0  0  0  0  0  0  0
   -4.6380   -0.0060   -1.7760 C   0  0  0  0  0  0  0  0  0  0  0  0
   -3.9940    1.1120   -0.9820 C   0  0  1  0  0  0  0  0  0  0  0  0
   -4.9560    1.3520    0.7070 Br  0  0  0  0  0  0  0  0  0  0  0  0
  1  2  2  0
  2  3  1  0
  3  4  2  0
  3 23  1  0
  4  5  1  0
  4 18  1  0
  5  6  2  3
  6  7  1  0
  7  8  2  0
  7 17  1  0
  8  9  1  0
  9 10  2  3
  9 14  1  0
 10 11  1  0
 11 12  1  0
 11 13  2  0
 14 15  2  0
 15 16  1  0
 15 17  1  0
 18 19  1  0
 19 20  1  0
 20 21  1  0
 21 22  1  0
 22 23  1  0
 23 24  1  1
M  CHG  1  21   1
M  END
