
     RDKit          3D

 19 21  0  0  0  0  0  0  0  0999 V2000
    5.5730    0.0680   -0.4220 C   0  0  0  0  0  0  0  0  0  0  0  0
    4.2710   -0.0730   -0.6450 C   0  0  0  0  0  0  0  0  0  0  0  0
    3.6020   -0.2660   -1.9100 C   0  0  0  0  0  0  0  0  0  0  0  0
    4.1330   -0.3370   -3.0490 O   0  0  0  0  0  0  0  0  0  0  0  0
    2.2020   -0.3600   -1.5950 N   0  0  0  0  0  0  0  0  0  0  0  0
    2.0140   -0.2320   -0.2110 C   0  0  0  0  0  0  0  0  0  0  0  0
    0.7860   -0.2620    0.5330 C   0  0  0  0  0  0  0  0  0  0  0  0
    0.8810   -0.1250    1.8260 O   0  0  0  0  0  0  0  0  0  0  0  0
   -0.5290   -0.4180    0.0730 N   0  0  0  0  0  0  0  0  0  0  0  0
   -0.9210   -0.5690   -1.2750 C   0  0  0  0  0  0  0  0  0  0  0  0
   -2.3670   -0.7020   -1.5870 C   0  0  0  0  0  0  0  0  0  0  0  0
   -3.2410   -0.8750   -0.5580 O   0  0  0  0  0  0  0  0  0  0  0  0
   -2.6660   -1.3330    0.5990 C   0  0  0  0  0  0  0  0  0  0  0  0
   -1.5990   -0.4340    1.1050 C   0  0  2  0  0  0  0  0  0  0  0  0
   -1.9900    0.9240    1.5270 C   0  0  1  0  0  0  0  0  0  0  0  0
   -2.5390    1.9720    0.6620 C   0  0  0  0  0  0  0  0  0  0  0  0
   -3.4830    1.1960    1.5610 C   0  0  0  0  0  0  0  0  0  0  0  0
    3.2280   -0.0630    0.3580 C   0  0  0  0  0  0  0  0  0  0  0  0
    3.4480    0.1000    1.7220 O   0  0  0  0  0  0  0  0  0  0  0  0
  1  2  2  0
  2  3  1  0
  2 18  1  0
  3  4  2  0
  3  5  1  0
  5  6  1  0
  6  7  1  0
  6 18  2  0
  7  8  2  0
  7  9  1  0
  9 10  1  0
  9 14  1  0
 10 11  1  0
 11 12  1  0
 12 13  1  0
 14 13  1  6
 14 15  1  0
 15 16  1  6
 15 17  1  0
 16 17  1  0
 18 19  1  0
M  END
