
     RDKit          3D

 19 21  0  0  0  0  0  0  0  0999 V2000
   -5.1830    0.2990   -0.9800 C   0  0  0  0  0  0  0  0  0  0  0  0
   -4.2500   -0.5330   -0.2230 C   0  0  0  0  0  0  0  0  0  0  0  0
   -4.6050   -1.7020    0.1000 O   0  0  0  0  0  0  0  0  0  0  0  0
   -2.9050   -0.0620    0.1810 C   0  0  0  0  0  0  0  0  0  0  0  0
   -2.4090    1.1870   -0.1130 C   0  0  0  0  0  0  0  0  0  0  0  0
   -1.1410    1.2430    0.4280 C   0  0  0  0  0  0  0  0  0  0  0  0
   -0.9210    0.0360    1.0220 C   0  0  0  0  0  0  0  0  0  0  0  0
    0.3010   -0.4370    1.7590 C   0  0  0  0  0  0  0  0  0  0  0  0
    1.2280   -1.0670    0.8790 N   0  0  0  0  0  0  0  0  0  0  0  0
    1.3020   -2.3670    0.5420 C   0  0  0  0  0  0  0  0  0  0  0  0
    0.5390   -3.2970    0.9550 O   0  0  0  0  0  0  0  0  0  0  0  0
    2.3280   -2.5090   -0.3140 N   0  0  0  0  0  0  0  0  0  0  0  0
    2.9130   -1.3100   -0.5280 C   0  0  0  0  0  0  0  0  0  0  0  0
    2.2150   -0.4070    0.2270 C   0  0  0  0  0  0  0  0  0  0  0  0
    2.5870    0.8590    0.1990 C   0  0  0  0  0  0  0  0  0  0  0  0
    3.6980    1.4040   -0.5770 C   0  0  0  0  0  0  0  0  0  0  0  0
    4.3470    0.4110   -1.3110 O   0  0  0  0  0  0  0  0  0  0  0  0
    3.9300   -0.8950   -1.2550 C   0  0  0  0  0  0  0  0  0  0  0  0
   -1.9950   -0.6930    0.8450 O   0  0  0  0  0  0  0  0  0  0  0  0
  1  2  1  0
  2  3  2  0
  2  4  1  0
  4  5  2  0
  4 19  1  0
  5  6  1  0
  6  7  2  0
  7  8  1  0
  7 19  1  0
  8  9  1  0
  9 10  1  0
  9 14  1  0
 10 11  2  0
 10 12  1  0
 12 13  1  0
 13 14  1  0
 13 18  2  0
 14 15  2  0
 15 16  1  0
 16 17  1  0
 17 18  1  0
M  END
