
     RDKit          3D

 19 21  0  0  0  0  0  0  0  0999 V2000
   -1.7040   -3.7250    0.3490 O   0  0  0  0  0  0  0  0  0  0  0  0
   -1.7090   -2.4800    0.3090 C   0  0  0  0  0  0  0  0  0  0  0  0
   -2.8250   -1.8570   -0.1120 N   0  0  0  0  0  0  0  0  0  0  0  0
   -2.8380   -0.5200   -0.1570 C   0  0  0  0  0  0  0  0  0  0  0  0
   -3.9820    0.1090   -0.5900 C   0  0  0  0  0  0  0  0  0  0  0  0
   -4.0570    1.4870   -0.6590 C   0  0  0  0  0  0  0  0  0  0  0  0
   -2.9530    2.2070   -0.2830 C   0  0  0  0  0  0  0  0  0  0  0  0
   -1.8000    1.5810    0.1530 C   0  0  0  0  0  0  0  0  0  0  0  0
   -1.7260    0.2140    0.2220 C   0  0  0  0  0  0  0  0  0  0  0  0
   -0.6040   -0.3930    0.6450 N   0  0  0  0  0  0  0  0  0  0  0  0
    0.5720    0.3210    1.0470 C   0  0  0  0  0  0  0  0  0  0  0  0
    1.5000    0.5540   -0.1290 C   0  0  1  0  0  0  0  0  0  0  0  0
    2.7220    1.3120    0.3610 C   0  0  0  0  0  0  0  0  0  0  0  0
    3.7660    1.1590   -0.5540 O   0  0  0  0  0  0  0  0  0  0  0  0
    4.2440   -0.1580   -0.4640 C   0  0  0  0  0  0  0  0  0  0  0  0
    3.1110   -1.0820   -0.1510 C   0  0  0  0  0  0  0  0  0  0  0  0
    1.9190   -0.6350   -0.6970 O   0  0  0  0  0  0  0  0  0  0  0  0
   -0.6040   -1.7350    0.6850 C   0  0  0  0  0  0  0  0  0  0  0  0
    0.4010   -2.3980    1.0680 O   0  0  0  0  0  0  0  0  0  0  0  0
  1  2  2  0
  2  3  1  0
  2 18  1  0
  3  4  1  0
  4  5  2  0
  4  9  1  0
  5  6  1  0
  6  7  2  0
  7  8  1  0
  8  9  2  0
  9 10  1  0
 10 11  1  0
 10 18  1  0
 12 11  1  1
 12 13  1  0
 12 17  1  0
 13 14  1  0
 14 15  1  0
 15 16  1  0
 16 17  1  0
 18 19  2  0
M  END
