
     RDKit          3D

 19 21  0  0  0  0  0  0  0  0999 V2000
    3.9410   -1.3590   -0.9080 C   0  0  0  0  0  0  0  0  0  0  0  0
    2.6700   -0.7990   -0.4160 C   0  0  0  0  0  0  0  0  0  0  0  0
    1.5150   -1.1340   -0.9960 N   0  0  0  0  0  0  0  0  0  0  0  0
    0.3520   -0.6220   -0.5470 C   0  0  0  0  0  0  0  0  0  0  0  0
   -0.8160   -0.9940   -1.1750 C   0  0  0  0  0  0  0  0  0  0  0  0
   -2.0110   -0.4710   -0.7180 C   0  0  0  0  0  0  0  0  0  0  0  0
   -1.9730    0.3970    0.3440 C   0  0  0  0  0  0  0  0  0  0  0  0
   -0.7930    0.7630    0.9650 C   0  0  0  0  0  0  0  0  0  0  0  0
    0.3590    0.2390    0.5000 N   0  0  0  0  0  0  0  0  0  0  0  0
    1.5040    0.5920    1.1010 C   0  0  0  0  0  0  0  0  0  0  0  0
    1.4780    1.4050    2.0860 O   0  0  0  0  0  0  0  0  0  0  0  0
    2.6870    0.0660    0.6390 C   0  0  0  0  0  0  0  0  0  0  0  0
    3.9220    0.4720    1.3170 C   0  0  0  0  0  0  0  0  0  0  0  0
    4.3300   -0.2060    2.2930 O   0  0  0  0  0  0  0  0  0  0  0  0
    4.6460    1.5820    0.9050 O   0  0  0  0  0  0  0  0  0  0  0  0
   -3.2700    0.9620    0.8380 C   0  0  0  0  0  0  0  0  0  0  0  0
   -4.3850    0.7280   -0.1390 C   0  0  0  0  0  0  0  0  0  0  0  0
   -4.3990   -0.5810   -0.6180 O   0  0  0  0  0  0  0  0  0  0  0  0
   -3.3050   -0.8670   -1.3940 C   0  0  0  0  0  0  0  0  0  0  0  0
  1  2  1  0
  2  3  1  0
  2 12  2  0
  3  4  2  0
  4  5  1  0
  4  9  1  0
  5  6  2  0
  6  7  1  0
  6 19  1  0
  7  8  2  0
  7 16  1  0
  8  9  1  0
  9 10  1  0
 10 11  2  0
 10 12  1  0
 12 13  1  0
 13 14  2  0
 13 15  1  0
 16 17  1  0
 17 18  1  0
 18 19  1  0
M  END
