
     RDKit          3D

 23 25  0  0  0  0  0  0  0  0999 V2000
    7.3810    2.5680    0.3780 C   0  0  0  0  0  0  0  0  0  0  0  0
    6.4340    1.4070    0.2230 C   0  0  0  0  0  0  0  0  0  0  0  0
    6.4230    0.2610    0.2280 N   0  0  0  0  0  0  0  0  0  0  0  0
    5.4000   -0.5790    0.0600 C   0  0  0  0  0  0  0  0  0  0  0  0
    5.5970   -2.0630    0.1300 C   0  0  0  0  0  0  0  0  0  0  0  0
    4.2180    0.0010   -0.1450 C   0  0  0  0  0  0  0  0  0  0  0  0
    2.8280   -0.4680   -0.3400 C   0  0  0  0  0  0  0  0  0  0  0  0
    2.5130   -1.7800   -0.5580 C   0  0  0  0  0  0  0  0  0  0  0  0
    1.1680   -2.1150   -0.6640 C   0  0  0  0  0  0  0  0  0  0  0  0
    0.2070   -1.1550   -0.5530 N   0  0  0  0  0  0  0  0  0  0  0  0
    0.5240    0.1310   -0.3410 C   0  0  0  0  0  0  0  0  0  0  0  0
   -0.4800    1.1440   -0.1800 N   0  0  0  0  0  0  0  0  0  0  0  0
   -1.8580    0.8540   -0.2000 C   0  0  0  0  0  0  0  0  0  0  0  0
   -2.4220    0.5380    1.0420 C   0  0  0  0  0  0  0  0  0  0  0  0
   -3.7630    0.2420    1.1190 C   0  0  0  0  0  0  0  0  0  0  0  0
   -4.5880    0.2420    0.0110 C   0  0  0  0  0  0  0  0  0  0  0  0
   -5.9600   -0.0850    0.1300 N   0  0  0  0  0  0  0  0  0  0  0  0
   -6.9150    0.7940    0.7730 C   0  0  0  0  0  0  0  0  0  0  0  0
   -6.4130   -1.3440   -0.4270 C   0  0  0  0  0  0  0  0  0  0  0  0
   -4.0100    0.5570   -1.2110 C   0  0  0  0  0  0  0  0  0  0  0  0
   -2.6580    0.8600   -1.3130 C   0  0  0  0  0  0  0  0  0  0  0  0
    1.8190    0.4470   -0.2400 N   0  0  0  0  0  0  0  0  0  0  0  0
    4.6010    1.7900   -0.0900 S   0  0  0  0  0  0  0  0  0  0  0  0
  1  2  1  0
  2  3  2  0
  2 23  1  0
  3  4  1  0
  4  5  1  0
  4  6  2  0
  6  7  1  0
  6 23  1  0
  7  8  2  0
  7 22  1  0
  8  9  1  0
  9 10  2  0
 10 11  1  0
 11 12  1  0
 11 22  2  0
 12 13  1  0
 13 14  2  0
 13 21  1  0
 14 15  1  0
 15 16  2  0
 16 17  1  0
 16 20  1  0
 17 18  1  0
 17 19  1  0
 20 21  2  0
M  END
