
     RDKit          3D

 12 13  0  0  0  0  0  0  0  0999 V2000
   -3.0550   -2.0400   -0.4160 C   0  0  0  0  0  0  0  0  0  0  0  0
   -2.0460   -1.2700   -0.0460 C   0  0  0  0  0  0  0  0  0  0  0  0
   -2.1760   -0.0370    0.7870 C   0  0  0  0  0  0  0  0  0  0  0  0
   -0.9250    0.6200    0.4620 N   0  0  0  0  0  0  0  0  0  0  0  0
   -0.6390    2.0520    0.6180 C   0  0  0  0  0  0  0  0  0  0  0  0
    0.0160   -0.3520   -0.0460 C   0  0  0  0  0  0  0  0  0  0  0  0
    1.4490   -0.1020   -0.1870 C   0  0  0  0  0  0  0  0  0  0  0  0
    2.2480    0.6960    0.5310 N   0  0  0  0  0  0  0  0  0  0  0  0
    3.5100    0.6480    0.0810 C   0  0  0  0  0  0  0  0  0  0  0  0
    3.4900   -0.2350   -0.9820 C   0  0  0  0  0  0  0  0  0  0  0  0
    2.2300   -0.6700   -1.1170 N   0  0  0  0  0  0  0  0  0  0  0  0
   -0.6630   -1.3880   -0.3140 N   0  0  0  0  0  0  0  0  0  0  0  0
  1  2  2  0
  2  3  1  0
  2 12  1  0
  3  4  1  0
  4  5  1  0
  4  6  1  0
  6  7  1  0
  6 12  2  0
  7  8  2  0
  7 11  1  0
  8  9  1  0
  9 10  2  0
 10 11  1  0
M  END
