
     RDKit          3D

 12 13  0  0  0  0  0  0  0  0999 V2000
   -1.8180    1.6640   -0.2220 C   0  0  0  0  0  0  0  0  0  0  0  0
   -2.1580    0.6760    0.5860 C   0  0  0  0  0  0  0  0  0  0  0  0
   -1.5040   -0.5750    0.7500 C   0  0  0  0  0  0  0  0  0  0  0  0
   -1.9720   -1.4790    1.5830 C   0  0  0  0  0  0  0  0  0  0  0  0
   -0.3090   -0.9240    0.0040 C   0  0  0  0  0  0  0  0  0  0  0  0
   -0.0620   -2.1450   -0.5770 N   0  0  0  0  0  0  0  0  0  0  0  0
    1.1270   -2.1150   -1.1190 N   0  0  0  0  0  0  0  0  0  0  0  0
    1.7240   -0.9720   -0.9590 N   0  0  0  0  0  0  0  0  0  0  0  0
    2.8330   -0.2700   -1.1960 C   0  0  0  0  0  0  0  0  0  0  0  0
    2.6820    0.9920   -0.6350 C   0  0  0  0  0  0  0  0  0  0  0  0
    1.4530    0.9770   -0.0760 N   0  0  0  0  0  0  0  0  0  0  0  0
    0.8430   -0.2080   -0.2580 C   0  0  0  0  0  0  0  0  0  0  0  0
  1  2  2  0
  2  3  1  0
  3  4  2  0
  3  5  1  0
  5  6  1  0
  5 12  2  0
  6  7  2  0
  7  8  1  0
  8  9  1  0
  8 12  1  0
  9 10  2  0
 10 11  1  0
 11 12  1  0
M  END
