
     RDKit          3D

 12 13  0  0  0  0  0  0  0  0999 V2000
   -3.6560    0.1080   -0.3640 C   0  0  0  0  0  0  0  0  0  0  0  0
   -2.3820    0.0590   -0.0080 C   0  0  0  0  0  0  0  0  0  0  0  0
   -1.2060   -0.2480   -0.8190 C   0  0  0  0  0  0  0  0  0  0  0  0
   -0.1850   -0.5480   -0.0310 C   0  0  0  0  0  0  0  0  0  0  0  0
    1.1810   -0.9150   -0.4950 C   0  0  0  0  0  0  0  0  0  0  0  0
    2.1850   -0.0200   -0.0160 N   0  0  0  0  0  0  0  0  0  0  0  0
    2.8600   -0.1650    1.1340 C   0  0  0  0  0  0  0  0  0  0  0  0
    3.7090    0.8810    1.2180 N   0  0  0  0  0  0  0  0  0  0  0  0
    3.5530    1.6420    0.1470 N   0  0  0  0  0  0  0  0  0  0  0  0
    2.6010    1.0820   -0.6270 C   0  0  0  0  0  0  0  0  0  0  0  0
   -0.6120   -0.4610    1.3220 N   0  0  0  0  0  0  0  0  0  0  0  0
   -1.8480    0.3160    1.3540 C   0  0  0  0  0  0  0  0  0  0  0  0
  1  2  2  0
  2  3  1  0
  2 12  1  0
  3  4  2  0
  4  5  1  0
  4 11  1  0
  5  6  1  0
  6  7  1  0
  6 10  1  0
  7  8  2  0
  8  9  1  0
  9 10  2  0
 11 12  1  0
M  END
