
     RDKit          3D

 43 47  0  0  0  0  0  0  0  0999 V2000
   -1.8070    6.9400   -0.5650 C   0  0  0  0  0  0  0  0  0  0  0  0
   -3.1380    6.2280   -0.5240 C   0  0  0  0  0  0  0  0  0  0  0  0
   -2.8790    4.8410   -0.0560 C   0  0  0  0  0  0  0  0  0  0  0  0
   -2.9280    4.5750    1.3110 C   0  0  0  0  0  0  0  0  0  0  0  0
   -2.6960    3.3200    1.8040 C   0  0  0  0  0  0  0  0  0  0  0  0
   -2.4050    2.2840    0.9320 C   0  0  0  0  0  0  0  0  0  0  0  0
   -2.1850    1.0550    1.5070 O   0  0  0  0  0  0  0  0  0  0  0  0
   -1.8750   -0.0850    0.7670 C   0  0  2  0  0  0  0  0  0  0  0  0
   -3.0110   -1.1310    0.9250 C   0  0  0  0  0  0  0  0  0  0  0  0
   -2.5780   -2.2650   -0.0010 C   0  0  2  0  0  0  0  0  0  0  0  0
   -3.6700   -3.2180   -0.2840 C   0  0  0  0  0  0  0  0  0  0  0  0
   -4.2910   -3.1430   -1.5010 C   0  0  0  0  0  0  0  0  0  0  0  0
   -5.3090   -4.0270   -1.7790 C   0  0  0  0  0  0  0  0  0  0  0  0
   -5.6710   -4.9620   -0.8190 C   0  0  0  0  0  0  0  0  0  0  0  0
   -6.7690   -5.9240   -1.1000 C   0  0  0  0  0  0  0  0  0  0  0  0
   -5.0410   -5.0350    0.4120 C   0  0  0  0  0  0  0  0  0  0  0  0
   -5.4720   -6.0650    1.4100 C   0  0  0  0  0  0  0  0  0  0  0  0
   -4.0250   -4.1420    0.6720 C   0  0  0  0  0  0  0  0  0  0  0  0
   -1.4920   -2.9260    0.6250 N   0  0  0  0  0  0  0  0  0  0  0  0
   -0.6690   -2.1850    1.4990 C   0  0  1  0  0  0  0  0  0  0  0  0
    0.7140   -2.8090    1.5090 C   0  0  0  0  0  0  0  0  0  0  0  0
   -0.6140   -0.6980    1.2880 C   0  0  1  0  0  0  0  0  0  0  0  0
    0.4730   -0.3920    0.3540 N   0  0  0  0  0  0  0  0  0  0  0  0
    1.6270    0.3370    0.7470 C   0  0  0  0  0  0  0  0  0  0  0  0
    1.7140    0.7300    1.9320 O   0  0  0  0  0  0  0  0  0  0  0  0
    2.7200    0.6360   -0.2040 C   0  0  0  0  0  0  0  0  0  0  0  0
    2.5810    0.5270   -1.5500 C   0  0  0  0  0  0  0  0  0  0  0  0
    3.6470    0.8040   -2.3890 C   0  0  0  0  0  0  0  0  0  0  0  0
    4.8630    1.1960   -1.8590 C   0  0  0  0  0  0  0  0  0  0  0  0
    6.2350    1.5580   -2.7910 S   0  0  0  0  0  0  0  0  0  0  0  0
    7.6050    2.0130   -1.8380 C   0  0  0  0  0  0  0  0  0  0  0  0
    8.6670    2.4240   -2.4300 N   0  0  0  0  0  0  0  0  0  0  0  0
    7.4070    2.0120   -0.5310 N   0  0  0  0  0  0  0  0  0  0  0  0
    8.5140    2.1690    0.3600 C   0  0  0  0  0  0  0  0  0  0  0  0
    9.6790    1.6390    0.4090 C   0  0  0  0  0  0  0  0  0  0  0  0
   10.3500    0.6630   -0.3950 C   0  0  0  0  0  0  0  0  0  0  0  0
    9.8830    0.0560   -1.3690 O   0  0  0  0  0  0  0  0  0  0  0  0
    6.2170    1.6930    0.0740 C   0  0  0  0  0  0  0  0  0  0  0  0
    6.2210    1.7580    1.3480 O   0  0  0  0  0  0  0  0  0  0  0  0
    5.0490    1.3210   -0.5020 C   0  0  0  0  0  0  0  0  0  0  0  0
    3.9310    1.0260    0.3030 C   0  0  0  0  0  0  0  0  0  0  0  0
   -2.3590    2.5580   -0.4160 C   0  0  0  0  0  0  0  0  0  0  0  0
   -2.5940    3.8300   -0.9290 C   0  0  0  0  0  0  0  0  0  0  0  0
  1  2  1  0
  2  3  1  0
  3  4  2  0
  3 43  1  0
  4  5  1  0
  5  6  2  0
  6  7  1  0
  6 42  1  0
  8  7  1  1
  8  9  1  0
  8 22  1  0
  9 10  1  0
 10 11  1  1
 10 19  1  0
 11 12  2  0
 11 18  1  0
 12 13  1  0
 13 14  2  0
 14 15  1  0
 14 16  1  0
 16 17  1  0
 16 18  2  0
 19 20  1  0
 20 21  1  6
 20 22  1  0
 22 23  1  6
 23 24  1  0
 24 25  2  0
 24 26  1  0
 26 27  2  0
 26 41  1  0
 27 28  1  0
 28 29  2  0
 29 30  1  0
 29 40  1  0
 30 31  1  0
 31 32  2  0
 31 33  1  0
 33 34  1  0
 33 38  1  0
 34 35  2  3
 35 36  1  0
 36 37  2  0
 38 39  2  0
 38 40  1  0
 40 41  2  0
 42 43  2  0
M  END
