
     RDKit          3D

 42 46  0  0  0  0  0  0  0  0999 V2000
   -5.9850    4.6520    0.9670 C   0  0  0  0  0  0  0  0  0  0  0  0
   -5.6910    3.3450    1.6540 C   0  0  0  0  0  0  0  0  0  0  0  0
   -5.3230    2.2350    0.9320 C   0  0  0  0  0  0  0  0  0  0  0  0
   -5.0500    1.0180    1.5890 C   0  0  0  0  0  0  0  0  0  0  0  0
   -4.6720   -0.1400    0.8030 C   0  0  0  0  0  0  0  0  0  0  0  0
   -4.5350    0.0380   -0.4580 O   0  0  0  0  0  0  0  0  0  0  0  0
   -4.4460   -1.4690    1.3810 C   0  0  0  0  0  0  0  0  0  0  0  0
   -4.2800   -2.5320    0.4320 N   0  0  0  0  0  0  0  0  0  0  0  0
   -5.5520   -3.2680    0.1290 C   0  0  0  0  0  0  0  0  0  0  0  0
   -6.3400   -2.6260   -0.9250 C   0  0  0  0  0  0  0  0  0  0  0  0
   -7.2520   -1.6040   -0.6030 C   0  0  0  0  0  0  0  0  0  0  0  0
   -7.9620   -1.0570   -1.6220 C   0  0  0  0  0  0  0  0  0  0  0  0
   -7.8280   -1.4500   -2.9110 N   0  0  0  0  0  0  0  0  0  0  0  0
   -6.9740   -2.4180   -3.2640 C   0  0  0  0  0  0  0  0  0  0  0  0
   -6.2260   -3.0020   -2.2270 C   0  0  0  0  0  0  0  0  0  0  0  0
   -3.1580   -3.0010   -0.2350 C   0  0  0  0  0  0  0  0  0  0  0  0
   -3.3790   -4.0270   -1.0180 O   0  0  0  0  0  0  0  0  0  0  0  0
   -1.8100   -2.5350   -0.1940 C   0  0  0  0  0  0  0  0  0  0  0  0
   -0.8430   -3.2520   -0.9140 C   0  0  0  0  0  0  0  0  0  0  0  0
    0.4790   -2.8710   -0.9380 C   0  0  0  0  0  0  0  0  0  0  0  0
    0.9240   -1.7440   -0.2420 C   0  0  0  0  0  0  0  0  0  0  0  0
    2.2890   -1.4290   -0.3330 N   0  0  0  0  0  0  0  0  0  0  0  0
    3.0110   -0.5570    0.5250 C   0  0  0  0  0  0  0  0  0  0  0  0
    2.3670    0.0040    1.4800 O   0  0  0  0  0  0  0  0  0  0  0  0
    4.4000   -0.2840    0.3740 N   0  0  0  0  0  0  0  0  0  0  0  0
    5.0330    0.6140    1.3080 C   0  0  0  0  0  0  0  0  0  0  0  0
    6.4790    0.2180    1.5400 C   0  0  0  0  0  0  0  0  0  0  0  0
    7.1600    0.2310    0.2700 N   0  0  2  0  0  0  0  0  0  0  0  0
    7.2620    1.5550   -0.3160 C   0  0  2  0  0  0  0  0  0  0  0  0
    7.5390    1.5430   -1.7880 C   0  0  0  0  0  0  0  0  0  0  0  0
    7.9940    2.9930   -2.0130 C   0  0  0  0  0  0  0  0  0  0  0  0
    8.6330    3.4240   -0.6960 C   0  0  0  0  0  0  0  0  0  0  0  0
    8.5510    2.2050    0.2140 C   0  0  0  0  0  0  0  0  0  0  0  0
    6.6360   -0.7720   -0.5850 C   0  0  0  0  0  0  0  0  0  0  0  0
    5.1610   -0.8860   -0.6720 C   0  0  0  0  0  0  0  0  0  0  0  0
   -0.0330   -1.0770    0.4390 C   0  0  0  0  0  0  0  0  0  0  0  0
   -1.3790   -1.4540    0.4710 C   0  0  0  0  0  0  0  0  0  0  0  0
   -5.1510    0.9430    2.9500 C   0  0  0  0  0  0  0  0  0  0  0  0
   -4.8930   -0.1940    3.6110 F   0  0  0  0  0  0  0  0  0  0  0  0
   -5.5190    2.0550    3.6800 C   0  0  0  0  0  0  0  0  0  0  0  0
   -5.7850    3.2410    3.0260 C   0  0  0  0  0  0  0  0  0  0  0  0
   -6.1540    4.3640    3.7070 F   0  0  0  0  0  0  0  0  0  0  0  0
  1  2  1  0
  2  3  2  0
  2 41  1  0
  3  4  1  0
  4  5  1  0
  4 38  2  0
  5  6  2  0
  5  7  1  0
  7  8  1  0
  8  9  1  0
  8 16  1  0
  9 10  1  0
 10 11  2  0
 10 15  1  0
 11 12  1  0
 12 13  2  0
 13 14  1  0
 14 15  2  0
 16 17  2  0
 16 18  1  0
 18 19  2  0
 18 37  1  0
 19 20  1  0
 20 21  2  0
 21 22  1  0
 21 36  1  0
 22 23  1  0
 23 24  2  0
 23 25  1  0
 25 26  1  0
 25 35  1  0
 26 27  1  0
 28 27  1  1
 28 29  1  0
 28 34  1  0
 29 30  1  6
 29 33  1  0
 30 31  1  0
 31 32  1  0
 32 33  1  0
 34 35  1  0
 36 37  2  0
 38 39  1  0
 38 40  1  0
 40 41  2  0
 41 42  1  0
M  CHG  2  13   1  28   1
M  END
