
     RDKit          3D

 43 46  0  0  0  0  0  0  0  0999 V2000
   -8.2800    1.7770   -0.1180 C   0  0  0  0  0  0  0  0  0  0  0  0
   -8.8510    0.6130    0.2060 C   0  0  0  0  0  0  0  0  0  0  0  0
  -10.2130    0.1800   -0.2640 C   0  0  0  0  0  0  0  0  0  0  0  0
  -10.4000   -1.0910    0.3590 N   0  0  0  0  0  0  0  0  0  0  0  0
   -9.3810   -1.4410    1.0770 C   0  0  0  0  0  0  0  0  0  0  0  0
   -9.3500   -2.7280    1.8140 C   0  0  0  0  0  0  0  0  0  0  0  0
   -8.7210   -3.7390    1.1100 F   0  0  0  0  0  0  0  0  0  0  0  0
   -8.3640   -0.4350    1.0350 N   0  0  0  0  0  0  0  0  0  0  0  0
   -7.0760   -0.4300    1.7430 C   0  0  0  0  0  0  0  0  0  0  0  0
   -6.1350   -1.4310    1.3520 C   0  0  0  0  0  0  0  0  0  0  0  0
   -4.9810   -1.5030    0.8350 C   0  0  0  0  0  0  0  0  0  0  0  0
   -4.0620   -0.4920    0.3840 C   0  0  0  0  0  0  0  0  0  0  0  0
   -2.7850   -0.9180   -0.0390 C   0  0  0  0  0  0  0  0  0  0  0  0
   -1.8510    0.0030   -0.5390 C   0  0  0  0  0  0  0  0  0  0  0  0
   -2.1290    1.3350   -0.6390 C   0  0  0  0  0  0  0  0  0  0  0  0
   -1.2630    2.3140   -1.1780 C   0  0  0  0  0  0  0  0  0  0  0  0
   -1.7140    3.5510   -1.0410 O   0  0  0  0  0  0  0  0  0  0  0  0
   -0.0580    2.2480   -1.8140 N   0  0  0  0  0  0  0  0  0  0  0  0
    0.7150    1.1100   -2.1510 C   0  0  0  0  0  0  0  0  0  0  0  0
    1.6380    0.7660   -1.0030 C   0  0  0  0  0  0  0  0  0  0  0  0
    2.4750   -0.4380   -1.2980 C   0  0  0  0  0  0  0  0  0  0  0  0
    2.2750   -1.0930   -2.3780 O   0  0  0  0  0  0  0  0  0  0  0  0
    3.4580   -0.8170   -0.3760 N   0  0  0  0  0  0  0  0  0  0  0  0
    3.6810   -0.0750    0.8290 C   0  0  0  0  0  0  0  0  0  0  0  0
    5.1490    0.1790    1.0130 C   0  0  0  0  0  0  0  0  0  0  0  0
    6.0600   -0.7330    0.6340 C   0  0  0  0  0  0  0  0  0  0  0  0
    7.4810   -0.4690    0.8220 C   0  0  0  0  0  0  0  0  0  0  0  0
    7.8250    0.3480    1.9170 C   0  0  0  0  0  0  0  0  0  0  0  0
    9.1280    0.6140    2.2200 C   0  0  0  0  0  0  0  0  0  0  0  0
   10.0910    0.1000    1.4800 N   0  0  0  0  0  0  0  0  0  0  0  0
    9.8430   -0.7120    0.3830 C   0  0  0  0  0  0  0  0  0  0  0  0
   10.8770   -1.1720   -0.2430 C   0  0  0  0  0  0  0  0  0  0  0  0
    8.5060   -0.9800    0.0660 C   0  0  0  0  0  0  0  0  0  0  0  0
    8.2630   -1.5040   -1.1150 C   0  0  0  0  0  0  0  0  0  0  0  0
    9.2440   -2.0280   -1.8730 F   0  0  0  0  0  0  0  0  0  0  0  0
    7.0470   -1.4350   -1.7450 F   0  0  0  0  0  0  0  0  0  0  0  0
    5.4800   -2.0410    0.2650 C   0  0  0  0  0  0  0  0  0  0  0  0
    4.2900   -1.9910   -0.6470 C   0  0  0  0  0  0  0  0  0  0  0  0
    0.5240    3.5230   -2.2410 C   0  0  0  0  0  0  0  0  0  0  0  0
    1.7880    3.6350   -2.9740 C   0  0  0  0  0  0  0  0  0  0  0  0
   -0.0820    4.6190   -1.9780 O   0  0  0  0  0  0  0  0  0  0  0  0
   -3.4120    1.7180   -0.2060 C   0  0  0  0  0  0  0  0  0  0  0  0
   -4.3480    0.8470    0.2870 C   0  0  0  0  0  0  0  0  0  0  0  0
  1  2  2  0
  2  3  1  0
  2  8  1  0
  3  4  1  0
  4  5  2  0
  5  6  1  0
  5  8  1  0
  6  7  1  0
  8  9  1  0
  9 10  1  0
 10 11  2  3
 11 12  1  0
 12 13  2  0
 12 43  1  0
 13 14  1  0
 14 15  2  0
 15 16  1  0
 15 42  1  0
 16 17  2  0
 16 18  1  0
 18 19  1  0
 18 39  1  0
 19 20  1  0
 20 21  1  0
 21 22  2  0
 21 23  1  0
 23 24  1  0
 23 38  1  0
 24 25  1  0
 25 26  2  0
 26 27  1  0
 26 37  1  0
 27 28  2  0
 27 33  1  0
 28 29  1  0
 29 30  2  0
 30 31  1  0
 31 32  2  0
 31 33  1  0
 33 34  2  3
 34 35  1  0
 34 36  1  0
 37 38  1  0
 39 40  1  0
 39 41  2  0
 42 43  2  0
M  CHG  2   4   1  30   1
M  END
