
     RDKit          3D

 43 44  0  0  0  0  0  0  0  0999 V2000
    4.7160   -0.8710    3.3860 C   0  0  0  0  0  0  0  0  0  0  0  0
    5.2270   -0.9900    2.0710 O   0  0  0  0  0  0  0  0  0  0  0  0
    4.9090   -0.1220    1.0520 C   0  0  0  0  0  0  0  0  0  0  0  0
    4.1070    0.8190    1.3840 O   0  0  0  0  0  0  0  0  0  0  0  0
    5.4170   -0.2270   -0.2990 C   0  0  0  0  0  0  0  0  0  0  0  0
    6.2790   -1.2240   -0.6900 C   0  0  0  0  0  0  0  0  0  0  0  0
    6.7480   -2.2030    0.1520 O   0  0  0  0  0  0  0  0  0  0  0  0
    6.7050   -1.2360   -2.0390 C   0  0  0  0  0  0  0  0  0  0  0  0
    6.2970   -0.3100   -2.9520 C   0  0  0  0  0  0  0  0  0  0  0  0
    5.4250    0.6820   -2.5150 C   0  0  0  0  0  0  0  0  0  0  0  0
    4.9720    0.7520   -1.2180 C   0  0  0  0  0  0  0  0  0  0  0  0
    4.1260    1.7000   -0.7500 O   0  0  0  0  0  0  0  0  0  0  0  0
    3.4830    2.7670   -1.3140 C   0  0  0  0  0  0  0  0  0  0  0  0
    2.4910    2.4450   -2.3820 C   0  0  0  0  0  0  0  0  0  0  0  0
    1.3730    1.5470   -1.8770 C   0  0  0  0  0  0  0  0  0  0  0  0
    0.5800    2.1720   -0.7720 C   0  0  0  0  0  0  0  0  0  0  0  0
   -0.4650    1.2460   -0.3290 N   0  0  0  0  0  0  0  0  0  0  0  0
   -0.1810   -0.0070    0.2350 C   0  0  0  0  0  0  0  0  0  0  0  0
    1.0360   -0.3700    0.3660 O   0  0  0  0  0  0  0  0  0  0  0  0
   -1.2120   -0.9350    0.6830 C   0  0  2  0  0  0  0  0  0  0  0  0
   -2.0140   -0.4960    1.8820 C   0  0  0  0  0  0  0  0  0  0  0  0
   -2.7260    0.7590    1.7040 C   0  0  0  0  0  0  0  0  0  0  0  0
   -2.1620    1.9330    2.1730 C   0  0  0  0  0  0  0  0  0  0  0  0
   -2.8150    3.1250    2.0090 C   0  0  0  0  0  0  0  0  0  0  0  0
   -4.0650    3.2110    1.3690 C   0  0  0  0  0  0  0  0  0  0  0  0
   -4.6540    4.4490    1.2440 O   0  0  0  0  0  0  0  0  0  0  0  0
   -5.8810    4.7340    0.6410 C   0  0  1  0  0  0  0  0  0  0  0  0
   -6.7630    5.3230    1.6930 C   0  0  0  0  0  0  0  0  0  0  0  0
   -6.3860    5.4910    2.8800 O   0  0  0  0  0  0  0  0  0  0  0  0
   -8.0390    5.6940    1.3400 O   0  0  0  0  0  0  0  0  0  0  0  0
   -5.6820    5.7520   -0.4270 C   0  0  0  0  0  0  0  0  0  0  0  0
   -6.6890    6.1300   -1.0740 O   0  0  0  0  0  0  0  0  0  0  0  0
   -4.4420    6.2740   -0.7150 O   0  0  0  0  0  0  0  0  0  0  0  0
   -4.6040    2.0400    0.9130 C   0  0  0  0  0  0  0  0  0  0  0  0
   -3.9480    0.8380    1.0780 C   0  0  0  0  0  0  0  0  0  0  0  0
   -0.5900   -2.2470    1.0320 N   0  0  0  0  0  0  0  0  0  0  0  0
   -0.9410   -3.4430    0.3790 C   0  0  0  0  0  0  0  0  0  0  0  0
   -1.8030   -3.3950   -0.5210 O   0  0  0  0  0  0  0  0  0  0  0  0
   -0.3740   -4.6720    0.6890 O   0  0  0  0  0  0  0  0  0  0  0  0
   -0.7820   -5.8250   -0.0120 C   0  0  2  0  0  0  0  0  0  0  0  0
   -0.4870   -5.6310   -1.4830 C   0  0  0  0  0  0  0  0  0  0  0  0
   -2.2580   -6.0430    0.2180 C   0  0  0  0  0  0  0  0  0  0  0  0
   -0.0210   -7.0400    0.4730 C   0  0  0  0  0  0  0  0  0  0  0  0
  1  2  1  0
  2  3  1  0
  3  4  2  0
  3  5  1  0
  5  6  2  0
  5 11  1  0
  6  7  1  0
  6  8  1  0
  8  9  2  0
  9 10  1  0
 10 11  2  0
 11 12  1  0
 12 13  1  0
 13 14  1  0
 14 15  1  0
 15 16  1  0
 16 17  1  0
 17 18  1  0
 18 19  2  0
 18 20  1  0
 20 21  1  1
 20 36  1  0
 21 22  1  0
 22 23  2  0
 22 35  1  0
 23 24  1  0
 24 25  2  0
 25 26  1  0
 25 34  1  0
 27 26  1  1
 27 28  1  0
 27 31  1  0
 28 29  2  0
 28 30  1  0
 31 32  2  0
 31 33  1  0
 34 35  2  0
 36 37  1  0
 37 38  2  0
 37 39  1  0
 39 40  1  0
 40 41  1  6
 40 42  1  0
 40 43  1  0
M  END
