
     RDKit          3D

 43 47  0  0  0  0  0  0  0  0999 V2000
   -6.5650    5.0810    1.5450 C   0  0  0  0  0  0  0  0  0  0  0  0
   -6.8970    3.9250    0.6700 C   0  0  0  0  0  0  0  0  0  0  0  0
   -5.9390    2.7840    0.6920 C   0  0  0  0  0  0  0  0  0  0  0  0
   -4.5920    3.0470    0.1850 C   0  0  1  0  0  0  0  0  0  0  0  0
   -3.7180    4.0460    0.8410 C   0  0  0  0  0  0  0  0  0  0  0  0
   -2.4030    4.4120   -0.4260 S   0  0  0  0  0  0  0  0  0  0  0  0
   -2.6140    3.1490   -1.6940 C   0  0  0  0  0  0  0  0  0  0  0  0
   -2.8080    1.8230   -0.9090 C   0  0  0  0  0  0  0  0  0  0  0  0
   -1.6630    1.0110   -0.9610 N   0  0  0  0  0  0  0  0  0  0  0  0
   -1.1430    0.0310   -0.1330 C   0  0  0  0  0  0  0  0  0  0  0  0
   -1.7140   -0.2410    0.9280 O   0  0  0  0  0  0  0  0  0  0  0  0
    0.0910   -0.7220   -0.4570 C   0  0  0  0  0  0  0  0  0  0  0  0
    1.3110   -0.0590   -0.4960 C   0  0  0  0  0  0  0  0  0  0  0  0
    2.4850   -0.6960   -0.8560 C   0  0  0  0  0  0  0  0  0  0  0  0
    2.4990   -2.0230   -1.1940 C   0  0  0  0  0  0  0  0  0  0  0  0
    3.6860   -2.7470   -1.6270 C   0  0  0  0  0  0  0  0  0  0  0  0
    3.7220   -3.5000   -2.8260 C   0  0  0  0  0  0  0  0  0  0  0  0
    4.9790   -4.0560   -2.9050 C   0  0  0  0  0  0  0  0  0  0  0  0
    5.6690   -3.6700   -1.8270 N   0  0  0  0  0  0  0  0  0  0  0  0
    4.8790   -2.8610   -1.0320 C   0  0  0  0  0  0  0  0  0  0  0  0
    5.3550   -2.2860    0.2120 C   0  0  0  0  0  0  0  0  0  0  0  0
    4.8520   -2.6920    1.4150 C   0  0  0  0  0  0  0  0  0  0  0  0
    5.3720   -2.1650    2.6170 C   0  0  0  0  0  0  0  0  0  0  0  0
    6.3860   -1.2400    2.5960 C   0  0  0  0  0  0  0  0  0  0  0  0
    6.9130   -0.8090    1.3740 C   0  0  0  0  0  0  0  0  0  0  0  0
    8.0280    0.1580    1.4200 C   0  0  2  0  0  0  0  0  0  0  0  0
    7.8680    0.9180    2.5940 O   0  0  0  0  0  0  0  0  0  0  0  0
    8.0130    1.1350    0.2860 C   0  0  0  0  0  0  0  0  0  0  0  0
    8.0840    0.8130   -0.8920 O   0  0  0  0  0  0  0  0  0  0  0  0
    7.9110    2.5120    0.6020 O   0  0  0  0  0  0  0  0  0  0  0  0
    7.8980    3.4670   -0.4550 C   0  0  0  0  0  0  0  0  0  0  0  0
    6.3820   -1.3450    0.2130 C   0  0  0  0  0  0  0  0  0  0  0  0
    1.2750   -2.6840   -1.1520 C   0  0  0  0  0  0  0  0  0  0  0  0
    0.0920   -2.0500   -0.7910 C   0  0  0  0  0  0  0  0  0  0  0  0
   -1.1750   -2.8470   -0.7430 C   0  0  0  0  0  0  0  0  0  0  0  0
   -3.7590    1.7940   -0.0480 C   0  0  0  0  0  0  0  0  0  0  0  0
   -4.3190    0.5150    0.3890 C   0  0  0  0  0  0  0  0  0  0  0  0
   -5.1320    0.3830    1.3710 N   0  0  0  0  0  0  0  0  0  0  0  0
   -5.5200   -0.9410    1.5870 N   0  0  0  0  0  0  0  0  0  0  0  0
   -4.6060   -1.7530    0.8060 C   0  0  1  0  0  0  0  0  0  0  0  0
   -5.1930   -3.0480    0.3260 C   0  0  0  0  0  0  0  0  0  0  0  0
   -6.3840   -2.9330   -0.5540 C   0  0  0  0  0  0  0  0  0  0  0  0
   -4.3160   -0.7990   -0.3300 C   0  0  0  0  0  0  0  0  0  0  0  0
  1  2  1  0
  2  3  1  0
  4  3  1  1
  4  5  1  0
  4 36  1  0
  5  6  1  0
  6  7  1  0
  7  8  1  0
  8  9  1  0
  8 36  2  0
  9 10  1  0
 10 11  2  0
 10 12  1  0
 12 13  2  0
 12 34  1  0
 13 14  1  0
 14 15  2  0
 15 16  1  0
 15 33  1  0
 16 17  1  0
 16 20  2  0
 17 18  2  0
 18 19  1  0
 19 20  1  0
 20 21  1  0
 21 22  2  0
 21 32  1  0
 22 23  1  0
 23 24  2  0
 24 25  1  0
 25 26  1  0
 25 32  2  0
 26 27  1  1
 26 28  1  0
 28 29  2  0
 28 30  1  0
 30 31  1  0
 33 34  2  0
 34 35  1  0
 36 37  1  0
 37 38  2  0
 37 43  1  0
 38 39  1  0
 39 40  1  0
 40 41  1  6
 40 43  1  0
 41 42  1  0
M  END
