
     RDKit          3D

 42 46  0  0  0  0  0  0  0  0999 V2000
   -7.8440    1.3520   -3.9140 C   0  0  0  0  0  0  0  0  0  0  0  0
   -7.7880    1.8610   -2.5220 C   0  0  0  0  0  0  0  0  0  0  0  0
   -8.6780    2.8130   -2.1190 C   0  0  0  0  0  0  0  0  0  0  0  0
   -8.6680    3.3210   -0.8420 C   0  0  0  0  0  0  0  0  0  0  0  0
   -9.5630    4.2780   -0.4370 F   0  0  0  0  0  0  0  0  0  0  0  0
   -7.7120    2.8160    0.0080 C   0  0  0  0  0  0  0  0  0  0  0  0
   -7.6960    3.3190    1.2870 F   0  0  0  0  0  0  0  0  0  0  0  0
   -6.7950    1.8480   -0.3730 C   0  0  0  0  0  0  0  0  0  0  0  0
   -6.8290    1.3640   -1.6490 C   0  0  0  0  0  0  0  0  0  0  0  0
   -5.8920    0.3180   -2.1200 C   0  0  0  0  0  0  0  0  0  0  0  0
   -4.9140   -0.1430   -1.2250 N   0  0  0  0  0  0  0  0  0  0  0  0
   -3.9360    0.7400   -0.7670 C   0  0  0  0  0  0  0  0  0  0  0  0
   -3.4510    0.4540    0.6350 C   0  0  0  0  0  0  0  0  0  0  0  0
   -2.3770   -0.6500    0.4780 C   0  0  0  0  0  0  0  0  0  0  0  0
   -3.0670   -1.9100    0.4090 N   0  0  0  0  0  0  0  0  0  0  0  0
   -2.3530   -3.0320    0.8990 C   0  0  0  0  0  0  0  0  0  0  0  0
   -3.0690   -4.1190    0.9040 O   0  0  0  0  0  0  0  0  0  0  0  0
   -1.0050   -3.0770    1.3640 C   0  0  0  0  0  0  0  0  0  0  0  0
   -0.7020   -4.1880    2.1870 C   0  0  0  0  0  0  0  0  0  0  0  0
    0.5530   -4.4060    2.6560 C   0  0  0  0  0  0  0  0  0  0  0  0
    1.6130   -3.5750    2.3700 C   0  0  0  0  0  0  0  0  0  0  0  0
    1.3300   -2.4960    1.5700 C   0  0  0  0  0  0  0  0  0  0  0  0
    0.0380   -2.2670    1.0830 C   0  0  0  0  0  0  0  0  0  0  0  0
    2.3890   -1.5550    1.1950 C   0  0  0  0  0  0  0  0  0  0  0  0
    3.6710   -1.8260    1.7700 N   0  0  0  0  0  0  0  0  0  0  0  0
    4.7300   -0.9220    1.5020 C   0  0  0  0  0  0  0  0  0  0  0  0
    5.8530   -1.1060    1.9800 O   0  0  0  0  0  0  0  0  0  0  0  0
    4.5000    0.2610    0.6400 C   0  0  0  0  0  0  0  0  0  0  0  0
    5.7070    1.0650    0.4960 N   0  0  0  0  0  0  0  0  0  0  0  0
    6.8780    0.5200   -0.0650 C   0  0  0  0  0  0  0  0  0  0  0  0
    6.8310   -0.7050   -0.4210 O   0  0  0  0  0  0  0  0  0  0  0  0
    8.1400    1.2140   -0.2740 C   0  0  0  0  0  0  0  0  0  0  0  0
    9.3170    0.4400   -0.2220 C   0  0  0  0  0  0  0  0  0  0  0  0
   10.5330    1.0110   -0.3550 C   0  0  0  0  0  0  0  0  0  0  0  0
   10.5960    2.3750   -0.5430 C   0  0  0  0  0  0  0  0  0  0  0  0
    9.4770    3.1050   -0.5930 N   0  0  0  0  0  0  0  0  0  0  0  0
    8.2300    2.5620   -0.4640 C   0  0  0  0  0  0  0  0  0  0  0  0
    7.0770    3.4670   -0.5900 C   0  0  0  0  0  0  0  0  0  0  0  0
    3.9410   -2.9540    2.5950 C   0  0  0  0  0  0  0  0  0  0  0  0
    2.9570   -3.7840    2.8790 C   0  0  0  0  0  0  0  0  0  0  0  0
   -4.3770   -2.2640   -0.1130 C   0  0  0  0  0  0  0  0  0  0  0  0
   -5.3400   -1.2110   -0.4170 C   0  0  0  0  0  0  0  0  0  0  0  0
  1  2  1  0
  2  3  2  0
  2  9  1  0
  3  4  1  0
  4  5  1  0
  4  6  2  0
  6  7  1  0
  6  8  1  0
  8  9  2  0
  9 10  1  0
 10 11  1  0
 11 12  1  0
 11 42  1  0
 12 13  1  0
 13 14  1  0
 14 15  1  0
 15 16  1  0
 15 41  1  0
 16 17  2  0
 16 18  1  0
 18 19  2  0
 18 23  1  0
 19 20  1  0
 20 21  2  0
 21 22  1  0
 21 40  1  0
 22 23  2  0
 22 24  1  0
 24 25  1  0
 25 26  1  0
 25 39  1  0
 26 27  2  0
 26 28  1  0
 28 29  1  0
 29 30  1  0
 30 31  2  0
 30 32  1  0
 32 33  2  0
 32 37  1  0
 33 34  1  0
 34 35  2  0
 35 36  1  0
 36 37  2  0
 37 38  1  0
 39 40  2  0
 41 42  1  0
M  CHG  1  36   1
M  END
