
     RDKit          3D

 32 33  0  0  0  0  0  0  0  0999 V2000
   -9.3660    1.9370    1.5910 C   0  0  0  0  0  0  0  0  0  0  0  0
   -8.2250    1.1040    1.6210 O   0  0  0  0  0  0  0  0  0  0  0  0
   -7.2110    1.1610    0.6850 C   0  0  0  0  0  0  0  0  0  0  0  0
   -7.2970    2.0720   -0.3500 C   0  0  0  0  0  0  0  0  0  0  0  0
   -6.2890    2.1300   -1.2800 C   0  0  0  0  0  0  0  0  0  0  0  0
   -5.2080    1.2780   -1.1610 C   0  0  0  0  0  0  0  0  0  0  0  0
   -5.1250    0.3560   -0.1090 C   0  0  0  0  0  0  0  0  0  0  0  0
   -3.9160   -0.4670   -0.0760 C   0  0  0  0  0  0  0  0  0  0  0  0
   -2.6830    0.1410   -0.0860 C   0  0  0  0  0  0  0  0  0  0  0  0
   -1.4570   -0.5490   -0.0520 C   0  0  0  0  0  0  0  0  0  0  0  0
   -0.2400    0.2300    0.0150 C   0  0  0  0  0  0  0  0  0  0  0  0
   -0.3920    1.4690    0.3870 O   0  0  0  0  0  0  0  0  0  0  0  0
    1.1520   -0.1050   -0.2660 C   0  0  1  0  0  0  0  0  0  0  0  0
    1.4450   -1.5140   -0.5350 C   0  0  0  0  0  0  0  0  0  0  0  0
    1.4660    0.6870   -1.5650 C   0  0  0  0  0  0  0  0  0  0  0  0
    1.9780    0.4870    0.7720 N   0  0  0  0  0  0  0  0  0  0  0  0
    3.0500   -0.2650    1.2660 C   0  0  0  0  0  0  0  0  0  0  0  0
    4.3100   -0.3630    0.5650 C   0  0  0  0  0  0  0  0  0  0  0  0
    5.1760   -1.1820    1.0380 O   0  0  0  0  0  0  0  0  0  0  0  0
    4.7050    0.3480   -0.5780 N   0  0  0  0  0  0  0  0  0  0  0  0
    6.0130    0.1900   -1.2310 C   0  0  0  0  0  0  0  0  0  0  0  0
    7.1550    0.5160   -0.2850 C   0  0  0  0  0  0  0  0  0  0  0  0
    8.4740    0.3730   -1.0490 C   0  0  0  0  0  0  0  0  0  0  0  0
    9.8560    0.7620    0.1240 P   0  0  0  0  0  0  0  0  0  0  0  0
    9.2270    1.1700    1.6790 O   0  0  0  0  0  0  0  0  0  0  0  0
   10.8690    1.9800   -0.5340 O   0  0  0  0  0  0  0  0  0  0  0  0
   -1.5820   -1.9110   -0.0070 C   0  0  0  0  0  0  0  0  0  0  0  0
   -2.8450   -2.5390    0.0030 C   0  0  0  0  0  0  0  0  0  0  0  0
   -4.0220   -1.8390   -0.0300 C   0  0  0  0  0  0  0  0  0  0  0  0
   -5.2680   -2.4450   -0.0200 O   0  0  0  0  0  0  0  0  0  0  0  0
   -5.4780   -3.8250    0.0220 C   0  0  0  0  0  0  0  0  0  0  0  0
   -6.1390    0.3070    0.8120 C   0  0  0  0  0  0  0  0  0  0  0  0
  1  2  1  0
  2  3  1  0
  3  4  2  0
  3 32  1  0
  4  5  1  0
  5  6  2  0
  6  7  1  0
  7  8  1  0
  7 32  2  0
  8  9  2  0
  8 29  1  0
  9 10  1  0
 10 11  1  0
 10 27  2  0
 11 12  2  0
 11 13  1  0
 13 14  1  6
 13 15  1  0
 13 16  1  0
 16 17  1  0
 17 18  1  0
 18 19  2  0
 18 20  1  0
 20 21  1  0
 21 22  1  0
 22 23  1  0
 23 24  1  0
 24 25  1  0
 24 26  1  0
 27 28  1  0
 28 29  2  0
 29 30  1  0
 30 31  1  0
M  END
