
     RDKit          3D

 44 48  0  0  0  0  0  0  0  0999 V2000
    9.4620    0.2790   -1.9450 C   0  0  0  0  0  0  0  0  0  0  0  0
    9.8520   -0.7330   -0.9390 C   0  0  0  0  0  0  0  0  0  0  0  0
   10.9520   -1.3230   -1.0430 O   0  0  0  0  0  0  0  0  0  0  0  0
    8.9790   -1.0550    0.1690 C   0  0  0  0  0  0  0  0  0  0  0  0
    9.2980   -1.9880    1.1290 C   0  0  0  0  0  0  0  0  0  0  0  0
    8.4250   -2.2510    2.1610 C   0  0  0  0  0  0  0  0  0  0  0  0
    7.2180   -1.5870    2.2520 C   0  0  0  0  0  0  0  0  0  0  0  0
    6.9110   -0.6800    1.3170 N   0  0  0  0  0  0  0  0  0  0  0  0
    5.6520    0.0220    1.4000 C   0  0  2  0  0  0  0  0  0  0  0  0
    4.7400   -0.5660    0.5380 O   0  0  0  0  0  0  0  0  0  0  0  0
    3.8620    0.4340    0.1370 C   0  0  2  0  0  0  0  0  0  0  0  0
    3.1060    0.0090   -1.0870 C   0  0  0  0  0  0  0  0  0  0  0  0
    2.3930   -1.1400   -0.7800 O   0  0  0  0  0  0  0  0  0  0  0  0
    1.5050   -1.6990   -2.1020 P   0  0  1  0  0  0  0  0  0  0  0  0
    1.8740   -0.9880   -3.3750 O   0  0  0  0  0  0  0  0  0  0  0  0
    1.7790   -3.3720   -2.2530 O   0  0  0  0  0  0  0  0  0  0  0  0
   -0.1520   -1.4730   -1.8510 O   0  0  0  0  0  0  0  0  0  0  0  0
   -0.4790   -0.1570   -0.8650 P   0  0  2  0  0  0  0  0  0  0  0  0
   -0.4800    1.1430   -1.6660 O   0  0  0  0  0  0  0  0  0  0  0  0
    0.6220   -0.0430    0.4170 O   0  0  0  0  0  0  0  0  0  0  0  0
   -2.0110   -0.3690   -0.1880 O   0  0  0  0  0  0  0  0  0  0  0  0
   -2.9350    0.5580   -0.6730 C   0  0  0  0  0  0  0  0  0  0  0  0
   -4.2520    0.2580    0.0090 C   0  0  1  0  0  0  0  0  0  0  0  0
   -5.2660    1.1280   -0.3990 O   0  0  0  0  0  0  0  0  0  0  0  0
   -6.3790    0.5570    0.2110 C   0  0  1  0  0  0  0  0  0  0  0  0
   -7.6260    1.0230   -0.3630 N   0  0  0  0  0  0  0  0  0  0  0  0
   -7.8810    2.0450   -1.1640 C   0  0  0  0  0  0  0  0  0  0  0  0
   -9.1970    2.0830   -1.4360 N   0  0  0  0  0  0  0  0  0  0  0  0
   -9.8040    1.0530   -0.7880 C   0  0  0  0  0  0  0  0  0  0  0  0
  -11.1140    0.6230   -0.7140 C   0  0  0  0  0  0  0  0  0  0  0  0
  -12.1340    1.3140   -1.4120 N   0  0  0  0  0  0  0  0  0  0  0  0
  -11.3830   -0.4550    0.0320 N   0  0  0  0  0  0  0  0  0  0  0  0
  -10.4180   -1.1050    0.6890 C   0  0  0  0  0  0  0  0  0  0  0  0
   -9.1520   -0.6780    0.6090 N   0  0  0  0  0  0  0  0  0  0  0  0
   -8.7950    0.4020   -0.1210 C   0  0  0  0  0  0  0  0  0  0  0  0
   -6.2720   -0.9300   -0.0990 C   0  0  2  0  0  0  0  0  0  0  0  0
   -6.5160   -1.6390    1.0860 O   0  0  0  0  0  0  0  0  0  0  0  0
   -4.7990   -1.0730   -0.4990 C   0  0  2  0  0  0  0  0  0  0  0  0
   -4.2070   -2.1540    0.1070 O   0  0  0  0  0  0  0  0  0  0  0  0
    4.8470    1.5640   -0.1860 C   0  0  1  0  0  0  0  0  0  0  0  0
    4.1690    2.7640   -0.2430 O   0  0  0  0  0  0  0  0  0  0  0  0
    5.7770    1.4710    1.0090 C   0  0  1  0  0  0  0  0  0  0  0  0
    5.2160    2.3130    1.9960 O   0  0  0  0  0  0  0  0  0  0  0  0
    7.7580   -0.4120    0.2990 C   0  0  0  0  0  0  0  0  0  0  0  0
  1  2  1  0
  2  3  2  0
  2  4  1  0
  4  5  2  0
  4 44  1  0
  5  6  1  0
  6  7  2  0
  7  8  1  0
  9  8  1  6
  8 44  2  0
  9 10  1  0
  9 42  1  0
 10 11  1  0
 11 12  1  6
 11 40  1  0
 12 13  1  0
 13 14  1  0
 14 15  2  0
 14 16  1  6
 14 17  1  0
 17 18  1  0
 18 19  2  0
 18 20  1  1
 18 21  1  0
 21 22  1  0
 23 22  1  6
 23 24  1  0
 23 38  1  0
 24 25  1  0
 25 26  1  6
 25 36  1  0
 26 27  1  0
 26 35  1  0
 27 28  2  0
 28 29  1  0
 29 30  2  0
 29 35  1  0
 30 31  1  0
 30 32  1  0
 32 33  2  0
 33 34  1  0
 34 35  2  0
 36 37  1  1
 36 38  1  0
 38 39  1  1
 40 41  1  1
 40 42  1  0
 42 43  1  1
M  CHG  2   8   1  16  -1
M  END
