
     RDKit          3D

 32 33  0  0  0  0  0  0  0  0999 V2000
   -7.2810    3.3150   -1.6390 C   0  0  0  0  0  0  0  0  0  0  0  0
   -6.4280    2.2260   -1.0800 C   0  0  0  0  0  0  0  0  0  0  0  0
   -5.0430    2.5800   -1.0160 O   0  0  0  0  0  0  0  0  0  0  0  0
   -4.1620    1.6340   -0.5070 C   0  0  0  0  0  0  0  0  0  0  0  0
   -2.8140    1.9060   -0.4160 C   0  0  0  0  0  0  0  0  0  0  0  0
   -1.9530    0.9520    0.0940 C   0  0  0  0  0  0  0  0  0  0  0  0
   -2.3520   -0.2790    0.5270 C   0  0  0  0  0  0  0  0  0  0  0  0
   -1.5260   -1.2610    1.0430 O   0  0  0  0  0  0  0  0  0  0  0  0
    0.1660   -1.2060    1.2840 P   0  0  0  0  0  0  0  0  0  0  0  0
    0.8410    0.3160    1.6130 O   0  0  0  0  0  0  0  0  0  0  0  0
    1.0700   -2.2660    0.1090 C   0  0  0  0  0  0  0  0  0  0  0  0
    2.3020   -1.5750   -0.4990 C   0  0  0  0  0  0  0  0  0  0  0  0
    1.8560   -0.3850   -1.2490 C   0  0  0  0  0  0  0  0  0  0  0  0
    2.8710    0.3920   -1.9770 C   0  0  0  0  0  0  0  0  0  0  0  0
    3.9860    0.9480   -1.3160 N   0  0  0  0  0  0  0  0  0  0  0  0
    5.0850    0.2990   -0.7140 C   0  0  0  0  0  0  0  0  0  0  0  0
    5.1410   -0.9480   -0.7670 O   0  0  0  0  0  0  0  0  0  0  0  0
    6.1810    0.9980   -0.0220 C   0  0  0  0  0  0  0  0  0  0  0  0
    6.1950    2.3530    0.2030 C   0  0  0  0  0  0  0  0  0  0  0  0
    7.2710    2.9560    0.8710 C   0  0  0  0  0  0  0  0  0  0  0  0
    8.3130    2.2310    1.3080 N   0  0  0  0  0  0  0  0  0  0  0  0
    8.3210    0.9130    1.1010 C   0  0  0  0  0  0  0  0  0  0  0  0
    9.3660    0.0810    1.5230 O   0  0  0  0  0  0  0  0  0  0  0  0
   10.4430    0.7210    2.1990 C   0  0  0  0  0  0  0  0  0  0  0  0
    7.2700    0.2880    0.4430 C   0  0  0  0  0  0  0  0  0  0  0  0
   -3.7340   -0.5800    0.4430 C   0  0  0  0  0  0  0  0  0  0  0  0
   -4.1390   -1.7900    0.8640 O   0  0  0  0  0  0  0  0  0  0  0  0
   -5.2190   -2.5720    0.9880 C   0  0  0  0  0  0  0  0  0  0  0  0
   -5.9470   -3.0280   -0.2500 C   0  0  1  0  0  0  0  0  0  0  0  0
   -7.0240   -4.0180    0.2270 C   0  0  0  0  0  0  0  0  0  0  0  0
   -6.4760   -2.0640   -1.0470 O   0  0  0  0  0  0  0  0  0  0  0  0
   -4.5860    0.3890   -0.0700 C   0  0  0  0  0  0  0  0  0  0  0  0
  1  2  1  0
  2  3  1  0
  3  4  1  0
  4  5  2  0
  4 32  1  0
  5  6  1  0
  6  7  2  0
  7  8  1  0
  7 26  1  0
  8  9  1  0
  9 10  1  0
  9 11  1  0
 11 12  1  0
 12 13  1  0
 13 14  1  0
 14 15  1  0
 15 16  1  0
 16 17  2  0
 16 18  1  0
 18 19  2  0
 18 25  1  0
 19 20  1  0
 20 21  2  0
 21 22  1  0
 22 23  1  0
 22 25  2  0
 23 24  1  0
 26 27  1  0
 26 32  2  0
 27 28  1  0
 28 29  1  0
 29 30  1  1
 29 31  1  0
M  END
