
     RDKit          3D

 32 33  0  0  0  0  0  0  0  0999 V2000
    6.4400    2.9050   -0.1620 C   0  0  0  0  0  0  0  0  0  0  0  0
    5.6220    1.6140   -0.1720 C   0  0  0  0  0  0  0  0  0  0  0  0
    5.1630    1.3130    1.0950 O   0  0  0  0  0  0  0  0  0  0  0  0
    4.2260   -0.0680    1.2420 P   0  0  0  0  0  0  0  0  0  0  0  0
    4.8170   -1.5570    0.6800 O   0  0  0  0  0  0  0  0  0  0  0  0
    5.9440   -1.7500   -0.1170 C   0  0  0  0  0  0  0  0  0  0  0  0
    7.1650   -1.9290    0.5070 C   0  0  0  0  0  0  0  0  0  0  0  0
    8.3100   -2.1250   -0.2330 C   0  0  0  0  0  0  0  0  0  0  0  0
    8.3070   -2.1530   -1.6130 C   0  0  0  0  0  0  0  0  0  0  0  0
    7.0640   -1.9700   -2.1920 C   0  0  0  0  0  0  0  0  0  0  0  0
    5.9100   -1.7740   -1.4810 C   0  0  0  0  0  0  0  0  0  0  0  0
    2.4100    0.1990    1.1760 C   0  0  1  0  0  0  0  0  0  0  0  0
    2.0780    1.0080    2.2720 O   0  0  0  0  0  0  0  0  0  0  0  0
    1.9480    0.8670   -0.0730 C   0  0  0  0  0  0  0  0  0  0  0  0
    0.5460    1.1120   -0.0420 N   0  0  0  0  0  0  0  0  0  0  0  0
   -0.3290    0.0030   -0.1010 C   0  0  2  0  0  0  0  0  0  0  0  0
   -0.3130   -0.8160   -1.3380 C   0  0  0  0  0  0  0  0  0  0  0  0
   -0.6270   -0.1710   -2.5140 O   0  0  0  0  0  0  0  0  0  0  0  0
   -1.7370    0.4620    0.1730 C   0  0  0  0  0  0  0  0  0  0  0  0
   -2.2570    1.6040   -0.3480 C   0  0  0  0  0  0  0  0  0  0  0  0
   -3.5600    1.9770   -0.0360 C   0  0  0  0  0  0  0  0  0  0  0  0
   -4.3760    1.2370    0.7910 C   0  0  0  0  0  0  0  0  0  0  0  0
   -5.7420    1.6750    1.1030 C   0  0  0  0  0  0  0  0  0  0  0  0
   -6.7760    0.8390    0.3680 C   0  0  0  0  0  0  0  0  0  0  0  0
   -7.9140    0.7390    0.8640 O   0  0  0  0  0  0  0  0  0  0  0  0
   -6.4550    0.1960   -0.8330 N   0  0  0  0  0  0  0  0  0  0  0  0
   -7.3340   -0.6220   -1.6080 C   0  0  0  0  0  0  0  0  0  0  0  0
   -7.7790   -1.8380   -0.8640 C   0  0  0  0  0  0  0  0  0  0  0  0
   -8.4750   -1.5880    0.2980 O   0  0  0  0  0  0  0  0  0  0  0  0
   -3.8370    0.0810    1.3140 C   0  0  0  0  0  0  0  0  0  0  0  0
   -4.6130   -0.7960    2.2120 C   0  0  0  0  0  0  0  0  0  0  0  0
   -2.5500   -0.3010    1.0150 C   0  0  0  0  0  0  0  0  0  0  0  0
  1  2  1  0
  2  3  1  0
  3  4  1  0
  4  5  1  0
  4 12  1  0
  5  6  1  0
  6  7  2  0
  6 11  1  0
  7  8  1  0
  8  9  2  0
  9 10  1  0
 10 11  2  0
 12 13  1  1
 12 14  1  0
 14 15  1  0
 15 16  1  0
 16 17  1  6
 16 19  1  0
 17 18  1  0
 19 20  2  0
 19 32  1  0
 20 21  1  0
 21 22  2  0
 22 23  1  0
 22 30  1  0
 23 24  1  0
 24 25  2  0
 24 26  1  0
 26 27  1  0
 27 28  1  0
 28 29  1  0
 30 31  1  0
 30 32  2  0
M  END
