
     RDKit          3D

 32 33  0  0  0  0  0  0  0  0999 V2000
   -3.9200    4.7640    1.6400 C   0  0  0  0  0  0  0  0  0  0  0  0
   -2.9240    3.7390    1.5990 O   0  0  0  0  0  0  0  0  0  0  0  0
   -3.5690    2.6290    1.0940 C   0  0  0  0  0  0  0  0  0  0  0  0
   -2.8510    1.3870    0.9120 C   0  0  0  0  0  0  0  0  0  0  0  0
   -1.5280    1.3640    0.0950 C   0  0  1  0  0  0  0  0  0  0  0  0
   -0.6370    2.0890    0.7530 O   0  0  0  0  0  0  0  0  0  0  0  0
   -1.3950   -0.0310   -0.2900 C   0  0  0  0  0  0  0  0  0  0  0  0
   -0.4080   -0.8390    0.2010 C   0  0  0  0  0  0  0  0  0  0  0  0
    0.8900   -0.2250    0.4920 N   0  0  0  0  0  0  0  0  0  0  0  0
    1.9300   -1.0770    0.8640 C   0  0  0  0  0  0  0  0  0  0  0  0
    1.7850   -2.2720    1.2890 O   0  0  0  0  0  0  0  0  0  0  0  0
    3.3470   -0.6430    0.7740 C   0  0  0  0  0  0  0  0  0  0  0  0
    4.1430   -0.5750    1.8240 C   0  0  0  0  0  0  0  0  0  0  0  0
    5.4700   -0.2380    1.5820 C   0  0  0  0  0  0  0  0  0  0  0  0
    5.9330    0.0110    0.3230 C   0  0  0  0  0  0  0  0  0  0  0  0
    7.7140    0.4270    0.1060 P   0  0  0  0  0  0  0  0  0  0  0  0
    8.5420    0.5040    1.7650 C   0  0  0  0  0  0  0  0  0  0  0  0
    7.7600    2.0740   -0.7490 C   0  0  0  0  0  0  0  0  0  0  0  0
    5.1070   -0.0590   -0.7630 C   0  0  0  0  0  0  0  0  0  0  0  0
    3.7840   -0.3870   -0.5580 C   0  0  0  0  0  0  0  0  0  0  0  0
   -0.4040   -2.2020    0.0790 N   0  0  0  0  0  0  0  0  0  0  0  0
   -1.4060   -2.7930   -0.5740 C   0  0  0  0  0  0  0  0  0  0  0  0
   -1.6290   -4.1160   -0.7860 O   0  0  0  0  0  0  0  0  0  0  0  0
   -1.1360   -5.3210   -0.4880 C   0  0  0  0  0  0  0  0  0  0  0  0
   -2.4220   -1.9720   -1.1370 C   0  0  0  0  0  0  0  0  0  0  0  0
   -3.1780   -2.7530   -2.1990 C   0  0  0  0  0  0  0  0  0  0  0  0
   -4.4770   -2.9340   -1.9700 O   0  0  0  0  0  0  0  0  0  0  0  0
   -2.4610   -0.6090   -1.0220 C   0  0  0  0  0  0  0  0  0  0  0  0
   -3.4190    0.1220   -1.5840 O   0  0  0  0  0  0  0  0  0  0  0  0
   -4.5290    0.8160   -1.6550 C   0  0  0  0  0  0  0  0  0  0  0  0
   -5.7840    0.1220   -1.2580 C   0  0  0  0  0  0  0  0  0  0  0  0
   -6.1610   -0.9260   -2.0530 O   0  0  0  0  0  0  0  0  0  0  0  0
  1  2  1  0
  2  3  1  0
  3  4  1  0
  4  5  1  0
  5  6  1  1
  5  7  1  0
  7  8  2  0
  7 28  1  0
  8  9  1  0
  8 21  1  0
  9 10  1  0
 10 11  2  0
 10 12  1  0
 12 13  2  0
 12 20  1  0
 13 14  1  0
 14 15  2  0
 15 16  1  0
 15 19  1  0
 16 17  1  0
 16 18  1  0
 19 20  2  0
 21 22  2  0
 22 23  1  0
 22 25  1  0
 23 24  1  0
 25 26  1  0
 25 28  2  0
 26 27  1  0
 28 29  1  0
 29 30  1  0
 30 31  1  0
 31 32  1  0
M  END
