
     RDKit          3D

 22 24  0  0  0  0  0  0  0  0999 V2000
    0.7320   -2.3490   -0.0810 O   0  0  0  0  0  0  0  0  0  0  0  0
    0.5360   -1.1110   -0.1300 C   0  0  0  0  0  0  0  0  0  0  0  0
   -0.8150   -0.7500   -0.2540 O   0  0  0  0  0  0  0  0  0  0  0  0
   -1.8280   -1.7150   -0.3170 C   0  0  0  0  0  0  0  0  0  0  0  0
   -3.2050   -1.1950   -0.4440 C   0  0  1  0  0  0  0  0  0  0  0  0
   -3.8670   -0.3140    0.5290 C   0  0  1  0  0  0  0  0  0  0  0  0
   -3.1900    0.6850    1.3720 C   0  0  0  0  0  0  0  0  0  0  0  0
   -2.2730    1.3970    0.6510 O   0  0  0  0  0  0  0  0  0  0  0  0
   -2.6700    1.3540   -0.6600 C   0  0  0  0  0  0  0  0  0  0  0  0
   -3.5370    0.1720   -0.8870 C   0  0  1  0  0  0  0  0  0  0  0  0
   -4.6490    0.3970   -1.7090 O   0  0  0  0  0  0  0  0  0  0  0  0
    1.5920   -0.1180   -0.0670 C   0  0  0  0  0  0  0  0  0  0  0  0
    1.3250    1.2330   -0.1310 C   0  0  0  0  0  0  0  0  0  0  0  0
    2.3320    2.1830   -0.0730 C   0  0  0  0  0  0  0  0  0  0  0  0
    2.0620    3.5360   -0.1380 O   0  0  0  0  0  0  0  0  0  0  0  0
    3.6360    1.7890    0.0500 C   0  0  0  0  0  0  0  0  0  0  0  0
    3.9300    0.4500    0.1160 C   0  0  0  0  0  0  0  0  0  0  0  0
    5.2450    0.0010    0.2410 O   0  0  0  0  0  0  0  0  0  0  0  0
    2.9020   -0.5010    0.0570 C   0  0  0  0  0  0  0  0  0  0  0  0
    3.2960   -1.8720    0.1330 N   0  0  1  0  0  0  0  0  0  0  0  0
    3.1390   -2.4650   -1.0740 O   0  0  0  0  0  0  0  0  0  0  0  0
    4.6140   -1.9780    0.4300 O   0  0  0  0  0  0  0  0  0  0  0  0
  1  2  2  0
  2  3  1  0
  2 12  1  0
  3  4  1  0
  5  4  1  1
  5  6  1  0
  5 10  1  0
  6  7  1  1
  6 10  1  0
  7  8  1  0
  8  9  1  0
  9 10  1  0
 10 11  1  6
 12 13  2  0
 12 19  1  0
 13 14  1  0
 14 15  1  0
 14 16  2  0
 16 17  1  0
 17 18  1  0
 17 19  2  0
 19 20  1  0
 20 21  1  6
 20 22  1  0
M  CHG  2  20   1  21  -1
M  END
