
     RDKit          3D

 22 23  0  0  0  0  0  0  0  0999 V2000
   -1.8010    1.8200   -0.7120 N   0  0  0  0  0  0  0  0  0  0  0  0
   -2.4030    1.2910    0.4690 C   0  0  1  0  0  0  0  0  0  0  0  0
   -3.5190    0.3550    0.1890 C   0  0  0  0  0  0  0  0  0  0  0  0
   -4.4550    0.3500   -0.7400 C   0  0  0  0  0  0  0  0  0  0  0  0
   -5.4450   -0.7330   -0.7650 C   0  0  0  0  0  0  0  0  0  0  0  0
   -5.2900   -1.6850    0.2460 O   0  0  0  0  0  0  0  0  0  0  0  0
   -4.3100   -1.6750    1.2140 C   0  0  0  0  0  0  0  0  0  0  0  0
   -4.2370   -2.6870    2.1910 O   0  0  0  0  0  0  0  0  0  0  0  0
   -3.4320   -0.6880    1.2070 C   0  0  0  0  0  0  0  0  0  0  0  0
   -2.3400   -0.4190    2.0560 O   0  0  0  0  0  0  0  0  0  0  0  0
   -1.4880    0.4870    1.3340 C   0  0  1  0  0  0  0  0  0  0  0  0
   -0.5550   -0.2750    0.4590 C   0  0  0  0  0  0  0  0  0  0  0  0
   -0.5720   -1.5230    0.4150 O   0  0  0  0  0  0  0  0  0  0  0  0
    0.3330    0.4070   -0.3070 O   0  0  0  0  0  0  0  0  0  0  0  0
    1.2990   -0.0300   -1.1840 C   0  0  0  0  0  0  0  0  0  0  0  0
    2.3770   -0.8170   -0.4970 C   0  0  2  0  0  0  0  0  0  0  0  0
    1.8730   -1.9310    0.0940 O   0  0  0  0  0  0  0  0  0  0  0  0
    2.9180    0.1100    0.6060 C   0  0  0  0  0  0  0  0  0  0  0  0
    3.4540    1.2620    0.1190 O   0  0  0  0  0  0  0  0  0  0  0  0
    4.5030    1.1250   -0.7500 C   0  0  0  0  0  0  0  0  0  0  0  0
    5.7000    0.4400   -0.1790 C   0  0  0  0  0  0  0  0  0  0  0  0
    5.5050   -0.8430    0.2660 O   0  0  0  0  0  0  0  0  0  0  0  0
  2  1  1  6
  2  3  1  0
  2 11  1  0
  3  4  2  0
  3  9  1  0
  4  5  1  0
  5  6  1  0
  6  7  1  0
  7  8  1  0
  7  9  2  0
  9 10  1  0
 10 11  1  0
 11 12  1  6
 12 13  2  0
 12 14  1  0
 14 15  1  0
 15 16  1  0
 16 17  1  1
 16 18  1  0
 18 19  1  0
 19 20  1  0
 20 21  1  0
 21 22  1  0
M  CHG  1   1   1
M  END
