
     RDKit          3D

 23 24  0  0  0  0  0  0  0  0999 V2000
   -3.1450    0.5180    4.1240 O   0  0  0  0  0  0  0  0  0  0  0  0
   -3.8240    0.5610    3.0750 N   0  0  0  0  0  0  0  0  0  0  0  0
   -5.1720    0.7560    3.1970 O   0  0  0  0  0  0  0  0  0  0  0  0
   -3.2000    0.4110    1.7990 C   0  0  0  0  0  0  0  0  0  0  0  0
   -3.9920    0.4660    0.6720 C   0  0  0  0  0  0  0  0  0  0  0  0
   -3.3900    0.3220   -0.5370 C   0  0  0  0  0  0  0  0  0  0  0  0
   -4.1740    0.3690   -1.8010 C   0  0  0  0  0  0  0  0  0  0  0  0
   -5.5180    0.5720   -1.5080 O   0  0  0  0  0  0  0  0  0  0  0  0
   -2.0160    0.1260   -0.6110 C   0  0  0  0  0  0  0  0  0  0  0  0
   -1.2000    0.0650    0.4880 C   0  0  0  0  0  0  0  0  0  0  0  0
    0.1560   -0.1270    0.4500 O   0  0  0  0  0  0  0  0  0  0  0  0
    0.9140   -0.2880   -0.6770 C   0  0  1  0  0  0  0  0  0  0  0  0
    1.9360    0.6570   -0.8210 O   0  0  0  0  0  0  0  0  0  0  0  0
    2.7090    0.7520    0.3300 C   0  0  2  0  0  0  0  0  0  0  0  0
    3.6430    1.9280    0.1870 C   0  0  0  0  0  0  0  0  0  0  0  0
    2.9530    3.1220    0.0160 O   0  0  0  0  0  0  0  0  0  0  0  0
    3.4690   -0.5440    0.5110 C   0  0  2  0  0  0  0  0  0  0  0  0
    4.0970   -0.9180   -0.6960 O   0  0  0  0  0  0  0  0  0  0  0  0
    2.3880   -1.6120    0.7370 C   0  0  2  0  0  0  0  0  0  0  0  0
    3.0070   -2.8050    1.0280 O   0  0  0  0  0  0  0  0  0  0  0  0
    1.6080   -1.6610   -0.5630 C   0  0  1  0  0  0  0  0  0  0  0  0
    0.6770   -2.6870   -0.5880 O   0  0  0  0  0  0  0  0  0  0  0  0
   -1.8450    0.2170    1.7330 C   0  0  0  0  0  0  0  0  0  0  0  0
  1  2  2  0
  2  3  1  0
  2  4  1  0
  4  5  2  0
  4 23  1  0
  5  6  1  0
  6  7  1  0
  6  9  2  0
  7  8  1  0
  9 10  1  0
 10 11  1  0
 10 23  2  0
 12 11  1  1
 12 13  1  0
 12 21  1  0
 13 14  1  0
 14 15  1  6
 14 17  1  0
 15 16  1  0
 17 18  1  6
 17 19  1  0
 19 20  1  6
 19 21  1  0
 21 22  1  1
M  CHG  2   2   1   3  -1
M  END
