
     RDKit          3D

 22 23  0  0  0  0  0  0  0  0999 V2000
    6.2480   -0.3230   -1.6580 O   0  0  0  0  0  0  0  0  0  0  0  0
    5.3950   -0.5750   -0.7620 C   0  0  0  0  0  0  0  0  0  0  0  0
    3.9280   -0.2660   -0.8310 C   0  0  0  0  0  0  0  0  0  0  0  0
    3.4690   -0.6680    0.5350 C   0  0  1  0  0  0  0  0  0  0  0  0
    2.1020   -1.3030    0.5490 C   0  0  0  0  0  0  0  0  0  0  0  0
    1.1050   -0.4960    0.0690 O   0  0  0  0  0  0  0  0  0  0  0  0
    0.9540    0.6850    0.7830 C   0  0  0  0  0  0  0  0  0  0  0  0
   -0.1520    1.5100    0.1980 C   0  0  2  0  0  0  0  0  0  0  0  0
   -0.2830    2.6970    0.9390 O   0  0  0  0  0  0  0  0  0  0  0  0
   -1.4950    0.8310    0.2350 C   0  0  2  0  0  0  0  0  0  0  0  0
   -1.8930    0.5330    1.5370 O   0  0  0  0  0  0  0  0  0  0  0  0
   -1.5880   -0.3910   -0.6000 C   0  0  0  0  0  0  0  0  0  0  0  0
   -3.0420   -0.6580   -0.9900 C   0  0  1  0  0  0  0  0  0  0  0  0
   -3.3110   -2.0700   -1.0620 N   0  0  0  0  0  0  0  0  0  0  0  0
   -3.6910   -2.5790   -2.1130 O   0  0  0  0  0  0  0  0  0  0  0  0
   -3.1370   -2.8400    0.0530 O   0  0  0  0  0  0  0  0  0  0  0  0
   -3.9880   -0.0760    0.0420 C   0  0  0  0  0  0  0  0  0  0  0  0
   -3.8670    1.4070    0.1750 C   0  0  0  0  0  0  0  0  0  0  0  0
   -2.5130    1.8410   -0.2960 C   0  0  2  0  0  0  0  0  0  0  0  0
   -2.4230    1.9810   -1.6640 O   0  0  0  0  0  0  0  0  0  0  0  0
    4.4650   -1.7730    0.8860 C   0  0  0  0  0  0  0  0  0  0  0  0
    5.6840   -1.1870    0.4500 O   0  0  0  0  0  0  0  0  0  0  0  0
  1  2  2  0
  2  3  1  0
  2 22  1  0
  3  4  1  0
  4  5  1  6
  4 21  1  0
  5  6  1  0
  6  7  1  0
  7  8  1  0
  8  9  1  1
  8 10  1  0
 10 11  1  1
 10 12  1  0
 10 19  1  0
 12 13  1  0
 13 14  1  1
 13 17  1  0
 14 15  2  0
 14 16  1  0
 17 18  1  0
 18 19  1  0
 19 20  1  6
 21 22  1  0
M  CHG  2  14   1  16  -1
M  END
