
     RDKit          3D

 23 23  0  0  0  0  0  0  0  0999 V2000
    7.7940   -0.5680   -0.2930 C   0  0  0  0  0  0  0  0  0  0  0  0
    6.3970   -0.3290   -0.3760 O   0  0  0  0  0  0  0  0  0  0  0  0
    5.7980    0.8330    0.0790 C   0  0  0  0  0  0  0  0  0  0  0  0
    6.5420    1.7030    0.5840 O   0  0  0  0  0  0  0  0  0  0  0  0
    4.3650    1.0730   -0.0090 C   0  0  0  0  0  0  0  0  0  0  0  0
    3.8700    2.2750    0.4790 O   0  0  0  0  0  0  0  0  0  0  0  0
    3.5480    0.1710   -0.5390 C   0  0  0  0  0  0  0  0  0  0  0  0
    2.1200    0.4880   -0.5900 C   0  0  0  0  0  0  0  0  0  0  0  0
    1.6650    1.5700   -0.1530 O   0  0  0  0  0  0  0  0  0  0  0  0
    1.2520   -0.4100   -1.1250 O   0  0  0  0  0  0  0  0  0  0  0  0
   -0.1240   -0.3410   -1.2780 C   0  0  0  0  0  0  0  0  0  0  0  0
   -0.8870   -0.2500    0.0060 C   0  0  1  0  0  0  0  0  0  0  0  0
   -0.6050    0.8550    0.7840 O   0  0  0  0  0  0  0  0  0  0  0  0
   -2.3880   -0.3360   -0.2200 C   0  0  2  0  0  0  0  0  0  0  0  0
   -2.8390    0.8010   -1.1150 C   0  0  0  0  0  0  0  0  0  0  0  0
   -4.2590    1.1790   -0.6980 C   0  0  0  0  0  0  0  0  0  0  0  0
   -4.9520    0.0200   -0.4480 O   0  0  0  0  0  0  0  0  0  0  0  0
   -4.6140   -0.5460    0.7730 C   0  0  1  0  0  0  0  0  0  0  0  0
   -4.9430   -1.9740    0.8230 C   0  0  0  0  0  0  0  0  0  0  0  0
   -5.0580   -2.6160    1.8980 O   0  0  0  0  0  0  0  0  0  0  0  0
   -5.1460   -2.6840   -0.3520 O   0  0  0  0  0  0  0  0  0  0  0  0
   -3.1590   -0.2520    1.0540 C   0  0  1  0  0  0  0  0  0  0  0  0
   -2.6840   -1.1550    2.0820 N   0  0  0  0  0  0  0  0  0  0  0  0
  1  2  1  0
  2  3  1  0
  3  4  2  0
  3  5  1  0
  5  6  1  0
  5  7  2  3
  7  8  1  0
  8  9  2  0
  8 10  1  0
 10 11  1  0
 11 12  1  0
 12 13  1  6
 12 14  1  0
 14 15  1  6
 14 22  1  0
 15 16  1  0
 16 17  1  0
 17 18  1  0
 18 19  1  6
 18 22  1  0
 19 20  2  0
 19 21  1  0
 22 23  1  1
M  CHG  2  21  -1  23   1
M  END
