
     RDKit          3D

 11 11  0  0  0  0  0  0  0  0999 V2000
   -0.5600   -1.0840   -2.5450 C   0  0  0  0  0  0  0  0  0  0  0  0
   -0.0630   -0.1180   -1.6880 O   0  0  0  0  0  0  0  0  0  0  0  0
   -0.2330   -0.4730   -0.3440 C   0  0  0  0  0  0  0  0  0  0  0  0
    0.3500    0.6620    0.4600 C   0  0  0  0  0  0  0  0  0  0  0  0
    0.8520    1.6570   -0.2440 C   0  0  0  0  0  0  0  0  0  0  0  0
    1.5510    3.0190    0.5720 Cl  0  0  0  0  0  0  0  0  0  0  0  0
    0.3650    0.6740    1.9050 C   0  0  0  0  0  0  0  0  0  0  0  0
    1.0890    2.0710    2.7240 Cl  0  0  0  0  0  0  0  0  0  0  0  0
   -0.1090   -0.2560    2.6860 C   0  0  0  0  0  0  0  0  0  0  0  0
   -0.0110   -0.0910    4.4560 Cl  0  0  0  0  0  0  0  0  0  0  0  0
   -0.8560   -1.6830    2.0080 Cl  0  0  0  0  0  0  0  0  0  0  0  0
  1  2  1  0
  2  3  1  0
  3  4  1  0
  4  5  2  0
  4  7  1  0
  5  6  1  0
  7  8  1  0
  7  9  2  3
  9 10  1  0
  9 11  1  0
  8  6  1  0
M  END
