
     RDKit          3D

 12 12  0  0  0  0  0  0  0  0999 V2000
   -3.9840   -0.1830   -0.9660 Cl  0  0  0  0  0  0  0  0  0  0  0  0
   -2.2920    0.1730   -0.8530 C   0  0  0  0  0  0  0  0  0  0  0  0
   -1.5550    1.4080   -1.8360 Cl  0  0  0  0  0  0  0  0  0  0  0  0
   -1.5410   -0.4790    0.0040 C   0  0  0  0  0  0  0  0  0  0  0  0
   -2.1880   -1.7090    1.0570 Cl  0  0  0  0  0  0  0  0  0  0  0  0
   -0.1060   -0.2070    0.0450 C   0  0  0  0  0  0  0  0  0  0  0  0
    0.6970   -0.1040   -1.0110 O   0  0  0  0  0  0  0  0  0  0  0  0
    1.9290    0.1440   -0.6730 C   0  0  0  0  0  0  0  0  0  0  0  0
    3.3090    0.3480   -1.7660 Cl  0  0  0  0  0  0  0  0  0  0  0  0
    2.0180    0.2240    0.7070 C   0  0  0  0  0  0  0  0  0  0  0  0
    0.7120   -0.0030    1.1400 C   0  0  0  0  0  0  0  0  0  0  0  0
    0.1370   -0.0260    2.8090 Cl  0  0  0  0  0  0  0  0  0  0  0  0
  1  2  1  0
  2  3  1  0
  2  4  2  3
  4  5  1  0
  4  6  1  0
  6  7  1  0
  6 11  2  0
  7  8  1  0
  8  9  1  0
  8 10  2  0
 10 11  1  0
 11 12  1  0
M  END
