
     RDKit          3D

 25 26  0  0  0  0  0  0  0  0999 V2000
    6.1850    1.4190   -0.4570 C   0  0  0  0  0  0  0  0  0  0  0  0
    6.6720    0.0740   -0.4640 N   0  0  0  0  0  0  0  0  0  0  0  0
    5.7620   -1.0070   -0.4440 C   0  0  0  0  0  0  0  0  0  0  0  0
    4.3790   -0.7680   -0.4180 C   0  0  0  0  0  0  0  0  0  0  0  0
    3.4380   -1.7460   -0.3970 C   0  0  0  0  0  0  0  0  0  0  0  0
    2.0440   -1.5900   -0.3710 N   0  0  0  0  0  0  0  0  0  0  0  0
    1.3550   -0.3630   -0.3650 C   0  0  0  0  0  0  0  0  0  0  0  0
    1.9640    0.7220   -0.3840 O   0  0  0  0  0  0  0  0  0  0  0  0
   -0.1330   -0.3270   -0.3360 C   0  0  0  0  0  0  0  0  0  0  0  0
   -0.5930    1.0750   -0.3370 C   0  0  0  0  0  0  0  0  0  0  0  0
   -2.0640    1.2880   -0.3100 C   0  0  2  0  0  0  0  0  0  0  0  0
   -2.3070    2.8030   -0.3160 C   0  0  0  0  0  0  0  0  0  0  0  0
   -3.7130    2.9940   -0.8670 C   0  0  0  0  0  0  0  0  0  0  0  0
   -4.6250    2.2880    0.0930 C   0  0  0  0  0  0  0  0  0  0  0  0
   -5.7570    2.7430    0.4020 O   0  0  0  0  0  0  0  0  0  0  0  0
   -4.2280    1.0230    0.7180 C   0  0  0  0  0  0  0  0  0  0  0  0
   -5.1590    0.1800    1.1330 C   0  0  0  0  0  0  0  0  0  0  0  0
   -6.5970    0.4170    1.0130 C   0  0  0  0  0  0  0  0  0  0  0  0
   -4.7420   -1.0080    1.7200 O   0  0  0  0  0  0  0  0  0  0  0  0
   -4.7220   -2.2470    1.0680 C   0  0  0  0  0  0  0  0  0  0  0  0
   -2.7730    0.7290    0.8660 C   0  0  0  0  0  0  0  0  0  0  0  0
    3.9320   -3.0600   -0.4040 C   0  0  0  0  0  0  0  0  0  0  0  0
    5.2680   -3.3560   -0.4300 C   0  0  0  0  0  0  0  0  0  0  0  0
    6.1780   -2.3130   -0.4500 C   0  0  0  0  0  0  0  0  0  0  0  0
    7.5170   -2.6550   -0.4750 O   0  0  0  0  0  0  0  0  0  0  0  0
  1  2  1  0
  2  3  1  0
  3  4  2  0
  3 24  1  0
  4  5  1  0
  5  6  1  0
  5 22  2  0
  6  7  1  0
  7  8  2  0
  7  9  1  0
  9 10  1  0
 11 10  1  1
 11 12  1  0
 11 21  1  0
 12 13  1  0
 13 14  1  0
 14 15  2  0
 14 16  1  0
 16 17  2  3
 16 21  1  0
 17 18  1  0
 17 19  1  0
 19 20  1  0
 22 23  1  0
 23 24  2  0
 24 25  1  0
M  END
