
     RDKit          3D

 25 26  0  0  0  0  0  0  0  0999 V2000
    5.8250    2.3290   -2.4940 C   0  0  0  0  0  0  0  0  0  0  0  0
    4.4940    1.9030   -2.3650 O   0  0  0  0  0  0  0  0  0  0  0  0
    4.1100    1.1170   -1.2950 C   0  0  0  0  0  0  0  0  0  0  0  0
    4.9490    0.7870   -0.4430 O   0  0  0  0  0  0  0  0  0  0  0  0
    2.7020    0.6530   -1.1390 C   0  0  0  0  0  0  0  0  0  0  0  0
    2.4140   -0.0840   -0.1060 C   0  0  0  0  0  0  0  0  0  0  0  0
    3.5320   -0.3430    0.7510 N   0  0  0  0  0  0  0  0  0  0  0  0
    1.0720   -0.6370    0.1780 C   0  0  0  0  0  0  0  0  0  0  0  0
    0.0190   -0.3780   -0.7930 C   0  0  0  0  0  0  0  0  0  0  0  0
    0.3080    0.2900   -1.8680 O   0  0  0  0  0  0  0  0  0  0  0  0
   -1.3620   -0.7770   -0.7230 C   0  0  0  0  0  0  0  0  0  0  0  0
   -1.7800   -1.9860   -1.2220 C   0  0  0  0  0  0  0  0  0  0  0  0
   -0.7610   -2.9380   -1.7870 C   0  0  0  0  0  0  0  0  0  0  0  0
   -3.1150   -2.2890   -1.2080 C   0  0  0  0  0  0  0  0  0  0  0  0
   -4.0170   -1.3990   -0.7030 N   0  0  0  0  0  0  0  0  0  0  0  0
   -3.6170   -0.2150   -0.2130 C   0  0  0  0  0  0  0  0  0  0  0  0
   -2.2920    0.1460   -0.2000 C   0  0  0  0  0  0  0  0  0  0  0  0
   -1.7790    1.4370    0.3260 C   0  0  0  0  0  0  0  0  0  0  0  0
   -2.8710    2.3800    0.7080 C   0  0  1  0  0  0  0  0  0  0  0  0
   -2.5110    3.7220    0.5020 O   0  0  0  0  0  0  0  0  0  0  0  0
   -4.1250    2.1310   -0.0690 C   0  0  0  0  0  0  0  0  0  0  0  0
   -4.6150    0.7320    0.3270 C   0  0  0  0  0  0  0  0  0  0  0  0
    0.8860   -1.3640    1.2650 C   0  0  0  0  0  0  0  0  0  0  0  0
   -0.4260   -1.9700    1.6440 C   0  0  0  0  0  0  0  0  0  0  0  0
    1.9770   -1.6680    2.2500 C   0  0  0  0  0  0  0  0  0  0  0  0
  1  2  1  0
  2  3  1  0
  3  4  2  0
  3  5  1  0
  5  6  2  3
  6  7  1  0
  6  8  1  0
  8  9  1  0
  8 23  2  3
  9 10  2  0
  9 11  1  0
 11 12  2  0
 11 17  1  0
 12 13  1  0
 12 14  1  0
 14 15  2  0
 15 16  1  0
 16 17  2  0
 16 22  1  0
 17 18  1  0
 18 19  1  0
 19 20  1  6
 19 21  1  0
 21 22  1  0
 23 24  1  0
 23 25  1  0
M  END
