
     RDKit          3D

 12 11  0  0  0  0  0  0  0  0999 V2000
   -0.9540   -0.8720   -1.6840 C   0  0  0  0  0  0  0  0  0  0  0  0
    0.1780   -0.2690   -1.3500 C   0  0  0  0  0  0  0  0  0  0  0  0
    0.5000   -0.0530    0.1120 C   0  0  2  0  0  0  0  0  0  0  0  0
    2.2900    0.4980    0.1530 P   0  0  0  0  0  0  0  0  0  0  0  0
    2.8160    1.1310    1.4740 O   0  0  0  0  0  0  0  0  0  0  0  0
    0.4220   -1.3210    0.8320 C   0  0  0  0  0  0  0  0  0  0  0  0
   -0.2600   -1.5520    1.8650 O   0  0  0  0  0  0  0  0  0  0  0  0
    1.1560   -2.4040    0.3650 O   0  0  0  0  0  0  0  0  0  0  0  0
    1.1480   -3.6050    0.9580 O   0  0  0  0  0  0  0  0  0  0  0  0
   -0.2510    1.0230    0.6040 N   0  0  0  0  0  0  0  0  0  0  0  0
    0.1240    2.2320   -0.1050 C   0  0  0  0  0  0  0  0  0  0  0  0
   -1.6340    0.9390    0.7030 C   0  0  0  0  0  0  0  0  0  0  0  0
  1  2  2  0
  2  3  1  0
  3  4  1  0
  3  6  1  0
  3 10  1  1
  4  5  2  0
  6  7  2  0
  6  8  1  0
  8  9  1  0
 10 11  1  0
 10 12  1  0
M  END
