
     RDKit          3D

 12 11  0  0  0  0  0  0  0  0999 V2000
   -4.1290   -0.8290   -0.6450 C   0  0  0  0  0  0  0  0  0  0  0  0
   -3.0760   -0.1030   -0.3270 C   0  0  0  0  0  0  0  0  0  0  0  0
   -2.1700   -0.4860    0.7120 N   0  0  0  0  0  0  0  0  0  0  0  0
   -2.1910    0.0400    2.0450 C   0  0  0  0  0  0  0  0  0  0  0  0
   -0.9220   -1.7110    0.3130 P   0  0  0  0  0  0  0  0  0  0  0  0
    0.5330   -1.1680   -0.2710 C   0  0  0  0  0  0  0  0  0  0  0  0
    1.4920   -2.1190   -0.5770 O   0  0  0  0  0  0  0  0  0  0  0  0
    0.8260    0.2850   -0.4710 C   0  0  0  0  0  0  0  0  0  0  0  0
    1.9280    0.6040    0.3300 O   0  0  0  0  0  0  0  0  0  0  0  0
    2.1880    1.8810    0.1570 O   0  0  0  0  0  0  0  0  0  0  0  0
    3.3290    1.9610   -0.4810 O   0  0  0  0  0  0  0  0  0  0  0  0
    4.3260    1.1930    0.1030 C   0  0  0  0  0  0  0  0  0  0  0  0
  1  2  2  0
  2  3  1  0
  3  4  1  0
  3  5  1  0
  5  6  2  3
  6  7  1  0
  6  8  1  0
  8  9  1  0
  9 10  1  0
 10 11  1  0
 11 12  1  0
M  END
