
     RDKit          3D

 12 11  0  0  0  0  0  0  0  0999 V2000
    4.5780    0.5690   -0.0380 C   0  0  0  0  0  0  0  0  0  0  0  0
    3.3760    0.8350   -0.7030 O   0  0  0  0  0  0  0  0  0  0  0  0
    3.0830   -0.1920   -1.5040 O   0  0  0  0  0  0  0  0  0  0  0  0
    2.0260   -0.8060   -0.9610 O   0  0  0  0  0  0  0  0  0  0  0  0
    1.0460   -0.1160   -0.2490 C   0  0  0  0  0  0  0  0  0  0  0  0
   -0.1520   -0.6530   -0.1540 C   0  0  0  0  0  0  0  0  0  0  0  0
   -1.1830    0.0350    0.5730 C   0  0  0  0  0  0  0  0  0  0  0  0
   -2.3810   -0.5190    0.6580 C   0  0  0  0  0  0  0  0  0  0  0  0
   -2.7280   -1.8070    0.0490 C   0  0  0  0  0  0  0  0  0  0  0  0
   -3.3580    0.1580    1.3620 O   0  0  0  0  0  0  0  0  0  0  0  0
   -3.7890    1.3820    0.9930 N   0  0  0  0  0  0  0  0  0  0  0  0
   -3.0900    2.2710   -0.1860 P   0  0  0  0  0  0  0  0  0  0  0  0
  1  2  1  0
  2  3  1  0
  3  4  1  0
  4  5  1  0
  5  6  2  3
  6  7  1  0
  7  8  2  3
  8  9  1  0
  8 10  1  0
 10 11  1  0
 11 12  2  0
M  END
