
     RDKit          3D

 11 10  0  0  0  0  0  0  0  0999 V2000
   -4.3270    0.4060    1.2060 O   0  0  0  0  0  0  0  0  0  0  0  0
   -3.2130    0.7020    0.7140 C   0  0  0  0  0  0  0  0  0  0  0  0
   -2.5230   -0.1430   -0.1910 N   0  0  0  0  0  0  0  0  0  0  0  0
   -3.1080   -1.3120   -0.5250 O   0  0  0  0  0  0  0  0  0  0  0  0
   -1.2480    0.1970   -0.7520 C   0  0  0  0  0  0  0  0  0  0  0  0
   -0.0820   -0.2920    0.0920 C   0  0  0  0  0  0  0  0  0  0  0  0
    1.1850    0.1270   -0.6040 C   0  0  0  0  0  0  0  0  0  0  0  0
    2.6720   -0.3730    0.2630 P   0  0  2  0  0  0  0  0  0  0  0  0
    2.5040   -1.6530    1.0420 O   0  0  0  0  0  0  0  0  0  0  0  0
    3.1020    0.8300    1.3840 O   0  0  0  0  0  0  0  0  0  0  0  0
    3.9890   -0.5560   -0.7990 O   0  0  0  0  0  0  0  0  0  0  0  0
  1  2  2  0
  2  3  1  0
  3  4  1  0
  3  5  1  0
  5  6  1  0
  6  7  1  0
  7  8  1  0
  8  9  2  0
  8 10  1  1
  8 11  1  0
M  END
