
     RDKit          3D

 13 13  0  0  0  0  0  0  0  0999 V2000
    4.1020   -0.1840    0.1590 C   0  0  0  0  0  0  0  0  0  0  0  0
    2.9960   -0.4290    0.7880 N   0  0  0  0  0  0  0  0  0  0  0  0
    1.9290   -0.9530    0.0680 O   0  0  0  0  0  0  0  0  0  0  0  0
    0.9740   -0.0380   -0.3470 C   0  0  0  0  0  0  0  0  0  0  0  0
    0.9680    0.3740   -1.5960 C   0  0  0  0  0  0  0  0  0  0  0  0
    0.0570    0.4040    0.5900 O   0  0  0  0  0  0  0  0  0  0  0  0
   -1.2240   -0.2360    0.7040 C   0  0  0  0  0  0  0  0  0  0  0  0
   -2.2510    0.2570   -0.0630 C   0  0  0  0  0  0  0  0  0  0  0  0
   -2.3710    1.2460   -0.9450 O   0  0  0  0  0  0  0  0  0  0  0  0
   -3.6860   -0.8550    0.4010 P   0  0  0  0  0  0  0  0  0  0  0  0
   -2.7020   -1.7990    1.5370 O   0  0  0  0  0  0  0  0  0  0  0  0
   -1.4530   -1.2670    1.5050 C   0  0  0  0  0  0  0  0  0  0  0  0
   -0.5680   -1.8400    2.2920 O   0  0  0  0  0  0  0  0  0  0  0  0
  1  2  2  0
  2  3  1  0
  3  4  1  0
  4  5  2  0
  4  6  1  0
  6  7  1  0
  7  8  2  0
  7 12  1  0
  8  9  1  0
  8 10  1  0
 10 11  1  0
 11 12  1  0
 12 13  2  0
M  END
