
     RDKit          3D

 21 23  0  0  0  0  0  0  0  0999 V2000
   -2.7240   -2.7500   -0.8840 C   0  0  0  0  0  0  0  0  0  0  0  0
   -2.3130   -1.5700   -0.0130 C   0  0  0  0  0  0  0  0  0  0  0  0
   -0.8640   -1.2550   -0.3310 C   0  0  0  0  0  0  0  0  0  0  0  0
   -0.3350   -0.0900    0.4680 C   0  0  1  0  0  0  0  0  0  0  0  0
   -1.0760    1.1570    0.2300 C   0  0  0  0  0  0  0  0  0  0  0  0
   -1.5680    1.8730    1.2170 C   0  0  0  0  0  0  0  0  0  0  0  0
   -2.3240    3.1380    1.0430 C   0  0  0  0  0  0  0  0  0  0  0  0
   -2.4370    3.5490   -0.2620 O   0  0  0  0  0  0  0  0  0  0  0  0
   -1.9260    2.8020   -1.2920 C   0  0  0  0  0  0  0  0  0  0  0  0
   -1.2790    1.6720   -1.1300 C   0  0  0  0  0  0  0  0  0  0  0  0
   -0.6120   -0.5110    1.9290 C   0  0  0  0  0  0  0  0  0  0  0  0
   -0.0390   -1.8170    2.1750 N   0  0  0  0  0  0  0  0  0  0  0  0
    1.3090   -2.0230    1.8010 C   0  0  0  0  0  0  0  0  0  0  0  0
    1.9810   -3.0210    2.2080 O   0  0  0  0  0  0  0  0  0  0  0  0
    1.9060   -1.0180    0.9090 C   0  0  0  0  0  0  0  0  0  0  0  0
    3.1860   -1.1300    0.6650 C   0  0  0  0  0  0  0  0  0  0  0  0
    3.8000   -0.2040   -0.1760 O   0  0  0  0  0  0  0  0  0  0  0  0
    3.0490    0.1480   -1.3230 C   0  0  2  0  0  0  0  0  0  0  0  0
    3.7280    1.4040   -1.8660 C   0  0  0  0  0  0  0  0  0  0  0  0
    1.5920    0.3360   -1.0860 C   0  0  0  0  0  0  0  0  0  0  0  0
    1.1360    0.0960    0.2980 C   0  0  1  0  0  0  0  0  0  0  0  0
  1  2  1  0
  2  3  1  0
  4  3  1  6
  4  5  1  0
  4 11  1  0
  4 21  1  0
  5  6  2  0
  5 10  1  0
  6  7  1  0
  7  8  1  0
  8  9  1  0
  9 10  2  0
 11 12  1  0
 12 13  1  0
 13 14  2  0
 13 15  1  0
 15 16  2  0
 15 21  1  0
 16 17  1  0
 17 18  1  0
 18 19  1  1
 18 20  1  0
 21 20  1  6
M  END
