
     RDKit          3D

 21 23  0  0  0  0  0  0  0  0999 V2000
    4.0720   -2.4330   -0.1050 C   0  0  0  0  0  0  0  0  0  0  0  0
    2.7140   -2.1370   -0.2130 O   0  0  0  0  0  0  0  0  0  0  0  0
    2.2220   -0.8190   -0.2690 C   0  0  0  0  0  0  0  0  0  0  0  0
    3.0810    0.0620   -0.2160 O   0  0  0  0  0  0  0  0  0  0  0  0
    0.8160   -0.5490   -0.3810 C   0  0  0  0  0  0  0  0  0  0  0  0
   -0.0130   -1.6170   -0.3850 C   0  0  0  0  0  0  0  0  0  0  0  0
    0.5950   -2.9400   -0.3080 N   0  0  0  0  0  0  0  0  0  0  0  0
   -1.4500   -1.5830   -0.1810 C   0  0  0  0  0  0  0  0  0  0  0  0
   -1.9710   -0.3570    0.0560 C   0  0  0  0  0  0  0  0  0  0  0  0
   -3.4330   -0.4290    0.2380 C   0  0  0  0  0  0  0  0  0  0  0  0
   -3.7520   -1.7520   -0.4430 C   0  0  0  0  0  0  0  0  0  0  0  0
   -2.5360   -2.5780   -0.1640 C   0  0  0  0  0  0  0  0  0  0  0  0
   -1.0510    0.7600    0.1890 C   0  0  0  0  0  0  0  0  0  0  0  0
   -1.0030    1.8130    0.9640 C   0  0  0  0  0  0  0  0  0  0  0  0
   -2.0080    2.1340    2.0170 C   0  0  0  0  0  0  0  0  0  0  0  0
    0.1700    2.5990    0.5620 C   0  0  0  0  0  0  0  0  0  0  0  0
    0.8050    1.9840   -0.4540 C   0  0  0  0  0  0  0  0  0  0  0  0
    1.9830    2.5610   -1.0550 C   0  0  0  0  0  0  0  0  0  0  0  0
    2.5840    3.8480   -0.5220 C   0  0  0  0  0  0  0  0  0  0  0  0
    2.6210    2.0990   -2.0370 O   0  0  0  0  0  0  0  0  0  0  0  0
    0.1540    0.7410   -0.6840 C   0  0  1  0  0  0  0  0  0  0  0  0
  1  2  1  0
  2  3  1  0
  3  4  2  0
  3  5  1  0
  5  6  2  0
 21  5  1  1
  6  7  1  0
  6  8  1  0
  8  9  2  0
  8 12  1  0
  9 10  1  0
  9 13  1  0
 10 11  1  0
 11 12  1  0
 13 14  2  0
 13 21  1  0
 14 15  1  0
 14 16  1  0
 16 17  2  0
 17 18  1  0
 17 21  1  0
 18 19  1  0
 18 20  2  0
M  END
