
     RDKit          3D

 21 23  0  0  0  0  0  0  0  0999 V2000
    1.4690   -1.4590    1.2210 C   0  0  0  0  0  0  0  0  0  0  0  0
    1.8750   -0.1550    0.5210 C   0  0  2  0  0  0  0  0  0  0  0  0
    0.7740    0.8030    0.7610 C   0  0  0  0  0  0  0  0  0  0  0  0
    0.9880    1.9020    1.3780 O   0  0  0  0  0  0  0  0  0  0  0  0
   -0.5610    0.5930    0.3450 N   0  0  0  0  0  0  0  0  0  0  0  0
   -1.6320    1.5020    0.5680 C   0  0  2  0  0  0  0  0  0  0  0  0
   -2.7630    0.9660    1.3820 C   0  0  0  0  0  0  0  0  0  0  0  0
   -3.3340   -0.2050    0.6990 C   0  0  0  0  0  0  0  0  0  0  0  0
   -3.8100   -1.3680    1.0890 C   0  0  0  0  0  0  0  0  0  0  0  0
   -4.2400   -2.1220   -0.0890 C   0  0  0  0  0  0  0  0  0  0  0  0
   -3.9490   -1.2350   -1.2430 C   0  0  0  0  0  0  0  0  0  0  0  0
   -3.4190   -0.1150   -0.7760 C   0  0  0  0  0  0  0  0  0  0  0  0
   -2.9640    1.0680   -1.5190 C   0  0  0  0  0  0  0  0  0  0  0  0
   -2.1450    2.0180   -0.7390 C   0  0  1  0  0  0  0  0  0  0  0  0
   -2.8130    3.2340   -0.4730 O   0  0  0  0  0  0  0  0  0  0  0  0
    2.0630   -0.4840   -0.9280 C   0  0  0  0  0  0  0  0  0  0  0  0
    3.3470    0.0680   -1.5040 C   0  0  0  0  0  0  0  0  0  0  0  0
    4.4290   -0.9860   -1.2370 C   0  0  0  0  0  0  0  0  0  0  0  0
    4.1490   -1.5000    0.0300 O   0  0  0  0  0  0  0  0  0  0  0  0
    4.3310   -0.4800    0.9420 C   0  0  0  0  0  0  0  0  0  0  0  0
    3.1140    0.3430    1.1980 C   0  0  0  0  0  0  0  0  0  0  0  0
  2  1  1  1
  2  3  1  0
  2 16  1  0
  2 21  1  0
  3  4  2  0
  3  5  1  0
  6  5  1  6
  6  7  1  0
  6 14  1  0
  7  8  1  0
  8  9  2  0
  8 12  1  0
  9 10  1  0
 10 11  1  0
 11 12  2  0
 12 13  1  0
 13 14  1  0
 14 15  1  1
 16 17  1  0
 17 18  1  0
 18 19  1  0
 19 20  1  0
 20 21  1  0
M  END
