
     RDKit          3D

 21 23  0  0  0  0  0  0  0  0999 V2000
    6.0070    1.9900    0.2670 C   0  0  0  0  0  0  0  0  0  0  0  0
    4.6360    1.4330    0.2680 C   0  0  0  0  0  0  0  0  0  0  0  0
    4.3170    0.3950   -0.4930 C   0  0  0  0  0  0  0  0  0  0  0  0
    5.2190   -0.3400   -1.4160 C   0  0  0  0  0  0  0  0  0  0  0  0
    4.4620   -1.5340   -1.7030 N   0  0  0  0  0  0  0  0  0  0  0  0
    3.1320   -1.3480   -1.2820 C   0  0  0  0  0  0  0  0  0  0  0  0
    3.0100   -0.2330   -0.5730 C   0  0  0  0  0  0  0  0  0  0  0  0
    1.7750    0.3040    0.0420 C   0  0  2  0  0  0  0  0  0  0  0  0
    1.4330    1.5510   -0.4880 O   0  0  0  0  0  0  0  0  0  0  0  0
    1.8740    0.4350    1.5460 C   0  0  0  0  0  0  0  0  0  0  0  0
    0.7910   -0.3930    2.2360 C   0  0  0  0  0  0  0  0  0  0  0  0
   -0.4760   -0.0950    1.8090 O   0  0  0  0  0  0  0  0  0  0  0  0
   -0.5950    0.0550    0.4550 C   0  0  2  0  0  0  0  0  0  0  0  0
   -1.8910   -0.4730   -0.0990 C   0  0  0  0  0  0  0  0  0  0  0  0
   -2.9300    0.2420    0.5260 O   0  0  0  0  0  0  0  0  0  0  0  0
   -4.1210   -0.2360    0.0230 C   0  0  2  0  0  0  0  0  0  0  0  0
   -5.0150    0.8230   -0.5440 C   0  0  0  0  0  0  0  0  0  0  0  0
   -6.3560    0.1170   -0.6230 C   0  0  0  0  0  0  0  0  0  0  0  0
   -6.3100   -0.9830    0.4270 C   0  0  0  0  0  0  0  0  0  0  0  0
   -4.9950   -0.7990    1.1510 C   0  0  0  0  0  0  0  0  0  0  0  0
    0.5850   -0.6120   -0.2210 C   0  0  0  0  0  0  0  0  0  0  0  0
  1  2  1  0
  2  3  2  3
  3  4  1  0
  3  7  1  0
  4  5  1  0
  5  6  1  0
  6  7  2  0
  7  8  1  0
  8  9  1  6
  8 10  1  0
  8 21  1  0
 10 11  1  0
 11 12  1  0
 12 13  1  0
 13 14  1  6
 13 21  1  0
 14 15  1  0
 16 15  1  1
 16 17  1  0
 16 20  1  0
 17 18  1  0
 18 19  1  0
 19 20  1  0
M  END
