
     RDKit          3D

 26 29  0  0  0  0  0  0  0  0999 V2000
    1.6780   -3.9460   -2.2100 C   0  0  0  0  0  0  0  0  0  0  0  0
    1.4880   -2.7210   -1.3520 C   0  0  0  0  0  0  0  0  0  0  0  0
    2.5210   -1.9340   -1.0350 N   0  0  0  0  0  0  0  0  0  0  0  0
    2.3900   -0.8140   -0.2600 C   0  0  0  0  0  0  0  0  0  0  0  0
    3.5630   -0.0090    0.0410 C   0  0  0  0  0  0  0  0  0  0  0  0
    4.7420   -0.4010   -0.4600 C   0  0  0  0  0  0  0  0  0  0  0  0
    6.0120    0.2930   -0.2540 C   0  0  1  0  0  0  0  0  0  0  0  0
    6.5110    1.1310   -1.4230 C   0  0  0  0  0  0  0  0  0  0  0  0
    7.0990    2.0780   -0.3670 C   0  0  0  0  0  0  0  0  0  0  0  0
    6.0150    1.5330    0.5740 C   0  0  0  0  0  0  0  0  0  0  0  0
    1.1400   -0.4970    0.2060 C   0  0  0  0  0  0  0  0  0  0  0  0
    0.8870    0.6010    0.9910 C   0  0  0  0  0  0  0  0  0  0  0  0
    1.8040    1.3840    1.3290 O   0  0  0  0  0  0  0  0  0  0  0  0
   -0.3480    0.9060    1.4450 N   0  0  0  0  0  0  0  0  0  0  0  0
   -1.3610    0.0970    1.1090 C   0  0  0  0  0  0  0  0  0  0  0  0
   -2.7030    0.1930    1.4450 C   0  0  0  0  0  0  0  0  0  0  0  0
   -3.3110   -0.8840    0.8480 C   0  0  0  0  0  0  0  0  0  0  0  0
   -4.7630   -1.1770    0.9460 C   0  0  0  0  0  0  0  0  0  0  0  0
   -5.5270   -0.5010   -0.1880 C   0  0  0  0  0  0  0  0  0  0  0  0
   -5.3740    0.9850   -0.1790 C   0  0  2  0  0  0  0  0  0  0  0  0
   -5.8660    1.6450    1.0800 C   0  0  0  0  0  0  0  0  0  0  0  0
   -6.2290    1.5250   -1.3210 C   0  0  0  0  0  0  0  0  0  0  0  0
   -2.3530   -1.5670    0.1970 N   0  0  0  0  0  0  0  0  0  0  0  0
   -1.1740   -0.9920    0.3430 N   0  0  0  0  0  0  0  0  0  0  0  0
    0.0540   -1.3100   -0.1180 C   0  0  0  0  0  0  0  0  0  0  0  0
    0.2760   -2.3860   -0.8830 N   0  0  0  0  0  0  0  0  0  0  0  0
  1  2  1  0
  2  3  2  0
  2 26  1  0
  3  4  1  0
  4  5  1  0
  4 11  2  0
  5  6  2  3
  7  6  1  6
  7  8  1  0
  7 10  1  0
  8  9  1  0
  9 10  1  0
 11 12  1  0
 11 25  1  0
 12 13  2  0
 12 14  1  0
 14 15  1  0
 15 16  2  0
 15 24  1  0
 16 17  1  0
 17 18  1  0
 17 23  2  0
 18 19  1  0
 19 20  1  0
 20 21  1  1
 20 22  1  0
 23 24  1  0
 24 25  1  0
 25 26  2  0
M  END
