
     RDKit          3D

 26 29  0  0  0  0  0  0  0  0999 V2000
    9.2590    0.1160    0.1110 C   0  0  0  0  0  0  0  0  0  0  0  0
    7.8050    0.4230   -0.0110 C   0  0  0  0  0  0  0  0  0  0  0  0
    7.3880    1.7040   -0.3200 C   0  0  0  0  0  0  0  0  0  0  0  0
    6.0520    1.9660   -0.4280 C   0  0  0  0  0  0  0  0  0  0  0  0
    5.1100    0.9570   -0.2300 C   0  0  0  0  0  0  0  0  0  0  0  0
    3.8040    1.3040   -0.3560 O   0  0  0  0  0  0  0  0  0  0  0  0
    2.6710    0.5550   -0.2210 C   0  0  0  0  0  0  0  0  0  0  0  0
    1.4630    1.2630   -0.4290 C   0  0  0  0  0  0  0  0  0  0  0  0
    0.2680    0.6030   -0.3160 C   0  0  0  0  0  0  0  0  0  0  0  0
    0.2410   -0.7380   -0.0030 C   0  0  0  0  0  0  0  0  0  0  0  0
   -1.0050   -1.4380    0.1160 N   0  0  0  0  0  0  0  0  0  0  0  0
   -2.2670   -0.7680   -0.0940 C   0  0  0  0  0  0  0  0  0  0  0  0
   -3.3760   -1.7200    0.1010 C   0  0  0  0  0  0  0  0  0  0  0  0
   -3.3070   -3.0430    0.4550 C   0  0  0  0  0  0  0  0  0  0  0  0
   -4.5840   -3.4860    0.5210 N   0  0  0  0  0  0  0  0  0  0  0  0
   -5.4090   -2.5080    0.2270 N   0  0  0  0  0  0  0  0  0  0  0  0
   -4.7120   -1.3920   -0.0410 C   0  0  0  0  0  0  0  0  0  0  0  0
   -5.3100   -0.1540   -0.4070 N   0  0  0  0  0  0  0  0  0  0  0  0
   -6.7730    0.0550   -0.4910 C   0  0  0  0  0  0  0  0  0  0  0  0
   -6.9230    1.2590    0.3990 C   0  0  0  0  0  0  0  0  0  0  0  0
   -5.6990    2.0700    0.0400 C   0  0  0  0  0  0  0  0  0  0  0  0
   -4.8050    1.1210   -0.7730 C   0  0  0  0  0  0  0  0  0  0  0  0
    1.4360   -1.3910    0.1910 C   0  0  0  0  0  0  0  0  0  0  0  0
    2.6010   -0.7460    0.0810 N   0  0  0  0  0  0  0  0  0  0  0  0
    5.5380   -0.3030    0.0740 C   0  0  0  0  0  0  0  0  0  0  0  0
    6.8880   -0.5820    0.1870 C   0  0  0  0  0  0  0  0  0  0  0  0
  1  2  1  0
  2  3  2  0
  2 26  1  0
  3  4  1  0
  4  5  2  0
  5  6  1  0
  5 25  1  0
  6  7  1  0
  7  8  2  0
  7 24  1  0
  8  9  1  0
  9 10  2  0
 10 11  1  0
 10 23  1  0
 11 12  1  0
 12 13  1  0
 13 14  1  0
 13 17  2  0
 14 15  2  0
 15 16  1  0
 16 17  1  0
 17 18  1  0
 18 19  1  0
 18 22  1  0
 19 20  1  0
 20 21  1  0
 21 22  1  0
 23 24  2  0
 25 26  2  0
M  END
