
     RDKit          3D

 26 28  0  0  0  0  0  0  0  0999 V2000
    8.9110   -0.2420   -2.2180 C   0  0  0  0  0  0  0  0  0  0  0  0
    7.5370   -0.1290   -1.6320 C   0  0  0  0  0  0  0  0  0  0  0  0
    6.5910   -0.0750   -2.4390 O   0  0  0  0  0  0  0  0  0  0  0  0
    7.2870   -0.0830   -0.2570 N   0  0  0  0  0  0  0  0  0  0  0  0
    6.0400    0.0210    0.3920 C   0  0  0  0  0  0  0  0  0  0  0  0
    4.8630    0.0970   -0.1780 C   0  0  0  0  0  0  0  0  0  0  0  0
    3.6000    0.2050    0.5840 C   0  0  0  0  0  0  0  0  0  0  0  0
    2.4530    0.2790    0.0030 N   0  0  0  0  0  0  0  0  0  0  0  0
    1.2080    0.3840    0.6940 C   0  0  0  0  0  0  0  0  0  0  0  0
    0.0990    0.4510   -0.0240 C   0  0  0  0  0  0  0  0  0  0  0  0
    0.2680    0.4090   -1.5170 C   0  0  0  0  0  0  0  0  0  0  0  0
   -1.2470    0.5830    0.5680 C   0  0  0  0  0  0  0  0  0  0  0  0
   -2.1630   -0.4710    0.2970 N   0  0  0  0  0  0  0  0  0  0  0  0
   -2.6160   -0.5330   -1.0410 C   0  0  0  0  0  0  0  0  0  0  0  0
   -4.0870   -0.9440   -1.1330 C   0  0  0  0  0  0  0  0  0  0  0  0
   -4.8560    0.0110   -0.4040 N   0  0  0  0  0  0  0  0  0  0  0  0
   -6.2500   -0.0150   -0.6430 C   0  0  1  0  0  0  0  0  0  0  0  0
   -6.9140   -1.3350   -0.2410 C   0  0  0  0  0  0  0  0  0  0  0  0
   -7.0180    1.0870    0.0360 C   0  0  0  0  0  0  0  0  0  0  0  0
   -4.4130    0.2960    0.9130 C   0  0  0  0  0  0  0  0  0  0  0  0
   -3.1990   -0.5090    1.2750 C   0  0  0  0  0  0  0  0  0  0  0  0
    1.2740    0.4060    2.1340 C   0  0  0  0  0  0  0  0  0  0  0  0
    2.4620    0.3300    2.7330 C   0  0  0  0  0  0  0  0  0  0  0  0
    3.6650    0.2270    1.9990 N   0  0  0  0  0  0  0  0  0  0  0  0
    4.9540    0.1440    2.5990 C   0  0  0  0  0  0  0  0  0  0  0  0
    6.0470    0.0490    1.8650 C   0  0  0  0  0  0  0  0  0  0  0  0
  1  2  1  0
  2  3  2  0
  2  4  1  0
  4  5  1  0
  5  6  2  0
  5 26  1  0
  6  7  1  0
  7  8  2  0
  7 24  1  0
  8  9  1  0
  9 10  2  3
  9 22  1  0
 10 11  1  0
 10 12  1  0
 12 13  1  0
 13 14  1  0
 13 21  1  0
 14 15  1  0
 15 16  1  0
 16 17  1  0
 16 20  1  0
 17 18  1  1
 17 19  1  0
 20 21  1  0
 22 23  2  0
 23 24  1  0
 24 25  1  0
 25 26  2  0
M  END
