
     RDKit          3D

 25 28  0  0  0  0  0  0  0  0999 V2000
   -4.2460   -4.4320    0.4870 C   0  0  0  0  0  0  0  0  0  0  0  0
   -3.6080   -3.0860    0.6820 C   0  0  0  0  0  0  0  0  0  0  0  0
   -3.3310   -2.4280   -0.6540 C   0  0  0  0  0  0  0  0  0  0  0  0
   -2.7020   -1.1000   -0.4920 C   0  0  0  0  0  0  0  0  0  0  0  0
   -3.2530    0.1140   -0.6220 N   0  0  0  0  0  0  0  0  0  0  0  0
   -2.3010    1.0840   -0.3780 C   0  0  0  0  0  0  0  0  0  0  0  0
   -2.6210    2.4390   -0.4380 N   0  0  0  0  0  0  0  0  0  0  0  0
   -1.6970    3.4990   -0.2100 C   0  0  0  0  0  0  0  0  0  0  0  0
   -2.4210    4.8580   -0.2830 C   0  0  0  0  0  0  0  0  0  0  0  0
   -1.4800    5.8430   -0.0550 O   0  0  0  0  0  0  0  0  0  0  0  0
   -1.1790    0.4620   -0.1020 N   0  0  0  0  0  0  0  0  0  0  0  0
   -1.3860   -0.8850   -0.1620 C   0  0  0  0  0  0  0  0  0  0  0  0
   -0.2920   -1.8200    0.1120 C   0  0  0  0  0  0  0  0  0  0  0  0
    1.0290   -1.3790   -0.4490 C   0  0  0  0  0  0  0  0  0  0  0  0
    1.2430    0.0860   -0.4410 C   0  0  2  0  0  0  0  0  0  0  0  0
    2.4860    0.5160    0.1830 N   0  0  0  0  0  0  0  0  0  0  0  0
    2.6780    1.4440    1.1350 C   0  0  0  0  0  0  0  0  0  0  0  0
    3.9790    1.5570    1.4550 N   0  0  0  0  0  0  0  0  0  0  0  0
    4.6720    0.6770    0.6940 C   0  0  0  0  0  0  0  0  0  0  0  0
    6.0060    0.3470    0.5810 C   0  0  0  0  0  0  0  0  0  0  0  0
    6.4300   -0.6250   -0.3160 C   0  0  0  0  0  0  0  0  0  0  0  0
    5.5010   -1.2690   -1.1040 C   0  0  0  0  0  0  0  0  0  0  0  0
    4.1720   -0.9220   -0.9730 C   0  0  0  0  0  0  0  0  0  0  0  0
    3.7340    0.0370   -0.0910 C   0  0  0  0  0  0  0  0  0  0  0  0
    0.1380    0.8740    0.2320 C   0  0  0  0  0  0  0  0  0  0  0  0
  1  2  1  0
  2  3  1  0
  3  4  1  0
  4  5  1  0
  4 12  2  0
  5  6  2  0
  6  7  1  0
  6 11  1  0
  7  8  1  0
  8  9  1  0
  9 10  1  0
 11 12  1  0
 11 25  1  0
 12 13  1  0
 13 14  1  0
 14 15  1  0
 15 16  1  1
 15 25  1  0
 16 17  1  0
 16 24  1  0
 17 18  2  0
 18 19  1  0
 19 20  2  0
 19 24  1  0
 20 21  1  0
 21 22  2  0
 22 23  1  0
 23 24  2  0
M  END
