
     RDKit          3D

 20 22  0  0  0  0  0  0  0  0999 V2000
    4.1610    2.3090   -0.0860 C   0  0  0  0  0  0  0  0  0  0  0  0
    3.2410    1.3940   -1.3580 S   0  0  0  0  0  0  0  0  0  0  0  0
    2.9730   -0.3230   -0.8250 C   0  0  0  0  0  0  0  0  0  0  0  0
    2.0620   -0.3710    0.3870 C   0  0  1  0  0  0  0  0  0  0  0  0
    0.7670    0.2130    0.0980 N   0  0  0  0  0  0  0  0  0  0  0  0
   -0.1090   -0.8810   -0.1580 C   0  0  2  0  0  0  0  0  0  0  0  0
   -1.5390   -0.5670    0.0190 C   0  0  0  0  0  0  0  0  0  0  0  0
   -2.4280   -1.3750    0.6940 C   0  0  0  0  0  0  0  0  0  0  0  0
   -3.6480   -0.7780    0.6490 N   0  0  0  0  0  0  0  0  0  0  0  0
   -3.5370    0.3780   -0.0330 C   0  0  0  0  0  0  0  0  0  0  0  0
   -4.4250    1.3990   -0.3900 C   0  0  0  0  0  0  0  0  0  0  0  0
   -5.6300    1.2650   -0.0210 O   0  0  0  0  0  0  0  0  0  0  0  0
   -3.9940    2.4540   -1.0860 N   0  0  0  0  0  0  0  0  0  0  0  0
   -2.6950    2.5720   -1.4690 C   0  0  0  0  0  0  0  0  0  0  0  0
   -1.8580    1.5940   -1.1250 N   0  0  0  0  0  0  0  0  0  0  0  0
   -2.2290    0.5200   -0.4320 C   0  0  0  0  0  0  0  0  0  0  0  0
    0.3680   -2.0040    0.6970 C   0  0  1  0  0  0  0  0  0  0  0  0
    0.0970   -3.2580    0.1350 O   0  0  0  0  0  0  0  0  0  0  0  0
    1.8300   -1.7640    0.8730 C   0  0  2  0  0  0  0  0  0  0  0  0
    2.2160   -1.9210    2.2160 O   0  0  0  0  0  0  0  0  0  0  0  0
  1  2  1  0
  2  3  1  0
  4  3  1  6
  4  5  1  0
  4 19  1  0
  5  6  1  0
  6  7  1  1
  6 17  1  0
  7  8  2  0
  7 16  1  0
  8  9  1  0
  9 10  1  0
 10 11  1  0
 10 16  2  0
 11 12  2  0
 11 13  1  0
 13 14  1  0
 14 15  2  0
 15 16  1  0
 17 18  1  6
 17 19  1  0
 19 20  1  1
M  CHG  1   5   1
M  END
