
     RDKit          3D

 26 28  0  0  0  0  0  0  0  0999 V2000
    7.0500    2.2160   -1.8420 C   0  0  0  0  0  0  0  0  0  0  0  0
    6.1940    1.0710   -1.4040 C   0  0  0  0  0  0  0  0  0  0  0  0
    5.1710    1.4760   -0.5130 O   0  0  0  0  0  0  0  0  0  0  0  0
    4.2760    0.5820    0.0080 C   0  0  0  0  0  0  0  0  0  0  0  0
    3.0390    0.9050    0.2920 C   0  0  0  0  0  0  0  0  0  0  0  0
    2.4370    2.1770    0.1190 N   0  0  0  0  0  0  0  0  0  0  0  0
    1.2100    2.1090    0.5100 C   0  0  0  0  0  0  0  0  0  0  0  0
    0.9130    0.7620    0.9760 C   0  0  0  0  0  0  0  0  0  0  0  0
   -0.3720    0.2340    1.5130 C   0  0  0  0  0  0  0  0  0  0  0  0
   -1.4380    0.3530    0.5340 N   0  0  0  0  0  0  0  0  0  0  0  0
   -2.7400   -0.0940    0.8550 C   0  0  0  0  0  0  0  0  0  0  0  0
   -3.0060   -0.6460    2.1000 C   0  0  0  0  0  0  0  0  0  0  0  0
   -4.2280   -1.0850    2.4500 N   0  0  0  0  0  0  0  0  0  0  0  0
   -5.2370   -1.0000    1.5910 C   0  0  0  0  0  0  0  0  0  0  0  0
   -6.5930   -1.4900    1.9880 C   0  0  0  0  0  0  0  0  0  0  0  0
   -5.0100   -0.4520    0.3330 C   0  0  0  0  0  0  0  0  0  0  0  0
   -3.7720    0.0050   -0.0540 C   0  0  0  0  0  0  0  0  0  0  0  0
   -3.4760    0.5960   -1.3800 C   0  0  0  0  0  0  0  0  0  0  0  0
   -4.6480    0.3450   -2.2880 C   0  0  0  0  0  0  0  0  0  0  0  0
   -5.9070    0.7520   -1.5510 C   0  0  0  0  0  0  0  0  0  0  0  0
   -6.2060   -0.3930   -0.5760 C   0  0  0  0  0  0  0  0  0  0  0  0
    2.0050    0.0400    0.8470 C   0  0  0  0  0  0  0  0  0  0  0  0
    2.1980   -1.3280    1.1720 N   0  0  0  0  0  0  0  0  0  0  0  0
    4.7350   -0.7530    0.2420 N   0  0  0  0  0  0  0  0  0  0  0  0
    4.5830   -1.7330   -0.8030 C   0  0  0  0  0  0  0  0  0  0  0  0
    5.3290   -1.0510    1.5190 C   0  0  0  0  0  0  0  0  0  0  0  0
  1  2  1  0
  2  3  1  0
  3  4  1  0
  4  5  2  3
  4 24  1  0
  5  6  1  0
  5 22  1  0
  6  7  2  0
  7  8  1  0
  8  9  1  0
  8 22  2  0
  9 10  1  0
 10 11  1  0
 11 12  2  0
 11 17  1  0
 12 13  1  0
 13 14  2  0
 14 15  1  0
 14 16  1  0
 16 17  2  0
 16 21  1  0
 17 18  1  0
 18 19  1  0
 19 20  1  0
 20 21  1  0
 22 23  1  0
 24 25  1  0
 24 26  1  0
M  END
