
     RDKit          3D

 20 20  0  0  0  0  0  0  0  0999 V2000
   -5.0670   -0.1720    0.9730 C   0  0  0  0  0  0  0  0  0  0  0  0
   -3.7280   -0.7180    0.6110 C   0  0  1  0  0  0  0  0  0  0  0  0
   -3.6820   -1.3030   -0.7900 C   0  0  0  0  0  0  0  0  0  0  0  0
   -2.2430   -1.6370   -1.0900 C   0  0  0  0  0  0  0  0  0  0  0  0
   -1.4220   -1.5100   -0.0260 O   0  0  0  0  0  0  0  0  0  0  0  0
   -1.3630   -0.3220    0.6540 C   0  0  1  0  0  0  0  0  0  0  0  0
   -1.2280   -0.7350    2.1460 C   0  0  0  0  0  0  0  0  0  0  0  0
   -0.1130    0.4440    0.3590 C   0  0  2  0  0  0  0  0  0  0  0  0
    0.1120    0.8570   -1.0410 C   0  0  0  0  0  0  0  0  0  0  0  0
   -0.9330    1.7590   -1.5900 C   0  0  0  0  0  0  0  0  0  0  0  0
   -1.1720    3.0390   -0.9940 N   0  0  0  0  0  0  0  0  0  0  0  0
   -1.6540    1.4770   -2.5780 O   0  0  0  0  0  0  0  0  0  0  0  0
    1.0300   -0.4960    0.7590 C   0  0  0  0  0  0  0  0  0  0  0  0
    2.3660    0.0440    0.6060 C   0  0  0  0  0  0  0  0  0  0  0  0
    2.6330    1.2220    0.3110 O   0  0  0  0  0  0  0  0  0  0  0  0
    3.4470   -0.8050    0.7990 O   0  0  0  0  0  0  0  0  0  0  0  0
    4.7860   -0.4720    0.6940 C   0  0  0  0  0  0  0  0  0  0  0  0
    5.0880   -0.0020   -0.7080 C   0  0  0  0  0  0  0  0  0  0  0  0
    6.4950    0.3390   -0.7900 N   0  0  0  0  0  0  0  0  0  0  0  0
   -2.6530    0.3910    0.5840 C   0  0  0  0  0  0  0  0  0  0  0  0
  2  1  1  6
  2  3  1  0
  2 20  1  0
  3  4  1  0
  4  5  1  0
  5  6  1  0
  6  7  1  1
  6  8  1  0
  6 20  1  0
  8  9  1  6
  8 13  1  0
  9 10  1  0
 10 11  1  0
 10 12  2  0
 13 14  1  0
 14 15  2  0
 14 16  1  0
 16 17  1  0
 17 18  1  0
 18 19  1  0
M  CHG  1  19   1
M  END
