
     RDKit          3D

 21 24  0  0  0  0  0  0  0  0999 V2000
   -3.6700   -1.7290   -0.7800 C   0  0  0  0  0  0  0  0  0  0  0  0
   -2.6440   -0.7110   -0.4160 C   0  0  0  0  0  0  0  0  0  0  0  0
   -1.2950   -0.8780   -0.4780 N   0  0  0  0  0  0  0  0  0  0  0  0
   -0.6740    0.2450   -0.0760 C   0  0  0  0  0  0  0  0  0  0  0  0
    0.7450    0.4070   -0.0200 N   0  0  0  0  0  0  0  0  0  0  0  0
    1.2670    1.6190   -0.2710 C   0  0  0  0  0  0  0  0  0  0  0  0
    0.4990    2.6000   -0.5540 O   0  0  0  0  0  0  0  0  0  0  0  0
    2.5960    1.7580   -0.2150 N   0  0  0  0  0  0  0  0  0  0  0  0
    3.4150    0.7260    0.0830 C   0  0  0  0  0  0  0  0  0  0  0  0
    4.7870    0.8940    0.1350 C   0  0  0  0  0  0  0  0  0  0  0  0
    5.6600   -0.1230    0.4330 C   0  0  0  0  0  0  0  0  0  0  0  0
    5.1070   -1.3760    0.6920 C   0  0  0  0  0  0  0  0  0  0  0  0
    3.7420   -1.5600    0.6440 C   0  0  0  0  0  0  0  0  0  0  0  0
    2.8960   -0.5260    0.3440 C   0  0  0  0  0  0  0  0  0  0  0  0
    1.5240   -0.6510    0.2820 C   0  0  0  0  0  0  0  0  0  0  0  0
    1.0530   -1.7980    0.5210 O   0  0  0  0  0  0  0  0  0  0  0  0
   -1.6250    1.1820    0.2610 C   0  0  0  0  0  0  0  0  0  0  0  0
   -2.8410    0.5730    0.0440 C   0  0  0  0  0  0  0  0  0  0  0  0
   -4.1750    1.2070    0.2720 C   0  0  2  0  0  0  0  0  0  0  0  0
   -5.2300    0.4450    0.9650 C   0  0  0  0  0  0  0  0  0  0  0  0
   -5.3560    0.6590   -0.3700 C   0  0  0  0  0  0  0  0  0  0  0  0
  1  2  1  0
  2  3  1  0
  2 18  2  0
  3  4  1  0
  4  5  1  0
  4 17  2  0
  5  6  1  0
  5 15  1  0
  6  7  2  0
  6  8  1  0
  8  9  1  0
  9 10  2  0
  9 14  1  0
 10 11  1  0
 11 12  2  0
 12 13  1  0
 13 14  2  0
 14 15  1  0
 15 16  2  0
 17 18  1  0
 19 18  1  6
 19 20  1  0
 19 21  1  0
 20 21  2  0
M  END
