
     RDKit          3D

 16 15  0  0  0  0  0  0  0  0999 V2000
   -3.1160    0.0850   -1.4200 C   0  0  0  0  0  0  0  0  0  0  0  0
   -3.2310   -0.0600    0.0850 C   0  0  2  0  0  0  0  0  0  0  0  0
   -3.1660   -1.4170    0.3980 O   0  0  0  0  0  0  0  0  0  0  0  0
   -4.5690    0.4950    0.5150 C   0  0  0  0  0  0  0  0  0  0  0  0
   -4.7500    2.3520    0.0520 Br  0  0  0  0  0  0  0  0  0  0  0  0
   -2.0860    0.6190    0.8060 C   0  0  0  0  0  0  0  0  0  0  0  0
   -0.8180   -0.0080    0.3570 C   0  0  0  0  0  0  0  0  0  0  0  0
    0.2930    0.5480    0.9630 O   0  0  0  0  0  0  0  0  0  0  0  0
    1.6490   -0.2940    0.3370 P   0  0  0  0  0  0  0  0  0  0  0  0
    1.9530    0.9670   -0.4620 O   0  0  0  0  0  0  0  0  0  0  0  0
    1.4580   -1.3240   -0.8940 O   0  0  0  0  0  0  0  0  0  0  0  0
    3.0240   -0.2280    1.2120 O   0  0  0  0  0  0  0  0  0  0  0  0
    4.3640    0.0120    0.2730 P   0  0  0  0  0  0  0  0  0  0  0  0
    4.3180   -0.3080   -1.3380 O   0  0  0  0  0  0  0  0  0  0  0  0
    4.9140   -1.3550    0.6450 O   0  0  0  0  0  0  0  0  0  0  0  0
    5.6680    0.7930    0.9140 O   0  0  0  0  0  0  0  0  0  0  0  0
  2  1  1  6
  2  3  1  0
  2  4  1  0
  2  6  1  0
  4  5  1  0
  6  7  1  0
  7  8  1  0
  8  9  1  0
  9 10  1  0
  9 11  1  0
  9 12  1  0
 12 13  1  0
 13 14  1  0
 13 15  1  0
 13 16  1  0
M  END
