
     RDKit          3D

 25 26  0  0  0  0  0  0  0  0999 V2000
    2.5960   -2.3700   -2.2950 C   0  0  0  0  0  0  0  0  0  0  0  0
    2.6620   -2.0190   -0.9100 O   0  0  0  0  0  0  0  0  0  0  0  0
    1.8400   -0.9810   -0.4310 C   0  0  0  0  0  0  0  0  0  0  0  0
    2.3690   -0.2240    0.5360 C   0  0  0  0  0  0  0  0  0  0  0  0
    3.6130   -0.4580    1.0050 O   0  0  0  0  0  0  0  0  0  0  0  0
    4.5710    0.2860    1.6200 C   0  0  0  0  0  0  0  0  0  0  0  0
    5.0440    1.4970    0.8260 C   0  0  0  0  0  0  0  0  0  0  0  0
    5.6380    1.0470   -0.5060 C   0  0  0  0  0  0  0  0  0  0  0  0
    4.6750    0.3690   -1.2430 O   0  0  0  0  0  0  0  0  0  0  0  0
    1.5380    0.8490    1.0470 C   0  0  0  0  0  0  0  0  0  0  0  0
    1.6860    1.7970    1.9730 C   0  0  0  0  0  0  0  0  0  0  0  0
    0.4760    2.6170    2.0510 C   0  0  0  0  0  0  0  0  0  0  0  0
   -0.4130    2.1800    1.1800 C   0  0  0  0  0  0  0  0  0  0  0  0
   -1.6780    2.6460    0.9090 O   0  0  0  0  0  0  0  0  0  0  0  0
    0.1850    1.0270    0.4760 C   0  0  0  0  0  0  0  0  0  0  0  0
   -0.2810    0.2530   -0.4680 C   0  0  0  0  0  0  0  0  0  0  0  0
   -1.5840    0.4520   -0.9850 O   0  0  0  0  0  0  0  0  0  0  0  0
   -2.3010   -0.7500   -1.3080 C   0  0  0  0  0  0  0  0  0  0  0  0
   -2.6170   -1.6190   -0.1640 C   0  0  0  0  0  0  0  0  0  0  0  0
   -3.6280   -1.0500    0.8150 C   0  0  0  0  0  0  0  0  0  0  0  0
   -4.9480   -0.8600    0.1490 C   0  0  0  0  0  0  0  0  0  0  0  0
   -5.5690   -1.9930   -0.6070 C   0  0  0  0  0  0  0  0  0  0  0  0
   -5.5790    0.2830    0.2110 C   0  0  0  0  0  0  0  0  0  0  0  0
   -4.9230    1.7240    1.1030 P   0  0  0  0  0  0  0  0  0  0  0  0
    0.5290   -0.8460   -1.0330 C   0  0  0  0  0  0  0  0  0  0  0  0
  1  2  1  0
  2  3  1  0
  3  4  2  0
  3 25  1  0
  4  5  1  0
  4 10  1  0
  5  6  1  0
  6  7  1  0
  7  8  1  0
  8  9  1  0
 10 11  2  0
 10 15  1  0
 11 12  1  0
 12 13  2  0
 13 14  1  0
 13 15  1  0
 15 16  2  0
 16 17  1  0
 16 25  1  0
 17 18  1  0
 18 19  1  0
 19 20  1  0
 20 21  1  0
 21 22  1  0
 21 23  2  3
 23 24  1  0
M  END
