
     RDKit          3D

 24 26  0  0  0  0  0  0  0  0999 V2000
    1.9490    0.6800   -1.6400 C   0  0  0  0  0  0  0  0  0  0  0  0
    1.3570    0.7250   -0.2800 C   0  0  2  0  0  0  0  0  0  0  0  0
    2.3820    0.6420    0.8260 C   0  0  0  0  0  0  0  0  0  0  0  0
    3.3540    1.7380    0.7850 C   0  0  0  0  0  0  0  0  0  0  0  0
    4.6370    1.5240    0.6490 C   0  0  0  0  0  0  0  0  0  0  0  0
    5.2320    0.1940    0.5270 C   0  0  2  0  0  0  0  0  0  0  0  0
    6.7370    0.1820    0.5130 C   0  0  0  0  0  0  0  0  0  0  0  0
    5.9900   -0.1280   -0.7250 C   0  0  0  0  0  0  0  0  0  0  0  0
    0.3670   -0.3950   -0.0530 C   0  0  0  0  0  0  0  0  0  0  0  0
   -0.8680   -0.0230    0.1700 C   0  0  0  0  0  0  0  0  0  0  0  0
   -2.0880   -0.7090    0.4260 C   0  0  0  0  0  0  0  0  0  0  0  0
   -2.3700   -1.9030    0.8400 C   0  0  0  0  0  0  0  0  0  0  0  0
   -3.7250   -2.4420    1.0500 C   0  0  0  0  0  0  0  0  0  0  0  0
   -4.8390   -1.5420    0.7540 C   0  0  0  0  0  0  0  0  0  0  0  0
   -4.4780   -0.2020    0.2890 C   0  0  0  0  0  0  0  0  0  0  0  0
   -5.5910    0.7870   -0.0330 C   0  0  0  0  0  0  0  0  0  0  0  0
   -5.0310    2.0980   -0.4890 C   0  0  0  0  0  0  0  0  0  0  0  0
   -6.1210    2.9330   -0.7600 O   0  0  0  0  0  0  0  0  0  0  0  0
   -3.2440    0.1700    0.1420 C   0  0  0  0  0  0  0  0  0  0  0  0
   -1.4790   -2.9830    1.1930 O   0  0  0  0  0  0  0  0  0  0  0  0
    0.1540   -3.0690    0.4490 P   0  0  0  0  0  0  0  0  0  0  0  0
    0.9830   -1.7150   -0.1400 C   0  0  0  0  0  0  0  0  0  0  0  0
    2.2320   -1.8170   -0.7080 O   0  0  0  0  0  0  0  0  0  0  0  0
    2.2980   -2.4960   -1.8790 O   0  0  0  0  0  0  0  0  0  0  0  0
  2  1  1  6
  2  3  1  0
  2  9  1  0
  3  4  1  0
  4  5  2  3
  6  5  1  6
  6  7  1  0
  6  8  1  0
  7  8  1  0
  9 10  2  0
  9 22  1  0
 10 11  1  0
 11 12  2  0
 11 19  1  0
 12 13  1  0
 12 20  1  0
 13 14  1  0
 14 15  1  0
 15 16  1  0
 15 19  2  0
 16 17  1  0
 17 18  1  0
 20 21  1  0
 21 22  2  0
 22 23  1  0
 23 24  1  0
M  END
