
     RDKit          3D

 25 26  0  0  0  0  0  0  0  0999 V2000
   -3.2980   -1.3180   -1.2020 C   0  0  0  0  0  0  0  0  0  0  0  0
   -2.6650   -0.0920   -0.6220 C   0  0  0  0  0  0  0  0  0  0  0  0
   -3.3200    0.9490   -0.7820 O   0  0  0  0  0  0  0  0  0  0  0  0
   -1.3760   -0.1080    0.0800 C   0  0  1  0  0  0  0  0  0  0  0  0
   -1.3820   -1.0040    1.2970 C   0  0  0  0  0  0  0  0  0  0  0  0
   -2.4740   -0.4230    2.2100 C   0  0  0  0  0  0  0  0  0  0  0  0
   -3.7050   -0.4290    1.5930 O   0  0  0  0  0  0  0  0  0  0  0  0
   -0.1910   -0.4120   -0.8550 C   0  0  2  0  0  0  0  0  0  0  0  0
   -0.2540    0.7220   -1.8690 C   0  0  0  0  0  0  0  0  0  0  0  0
   -0.4520    0.4860   -3.0910 O   0  0  0  0  0  0  0  0  0  0  0  0
   -0.0880    2.1110   -1.4620 C   0  0  0  0  0  0  0  0  0  0  0  0
   -0.1420    3.2030   -2.3170 C   0  0  0  0  0  0  0  0  0  0  0  0
    0.0610    4.3330   -1.5600 C   0  0  0  0  0  0  0  0  0  0  0  0
    0.2320    3.9020   -0.2670 C   0  0  0  0  0  0  0  0  0  0  0  0
    0.1340    2.6170   -0.2890 O   0  0  0  0  0  0  0  0  0  0  0  0
   -0.3930   -1.6330   -1.6060 C   0  0  0  0  0  0  0  0  0  0  0  0
   -0.1340   -2.8930   -1.3080 C   0  0  0  0  0  0  0  0  0  0  0  0
    0.4430   -3.2530   -0.0670 O   0  0  0  0  0  0  0  0  0  0  0  0
    1.4980   -2.6230    0.5820 C   0  0  0  0  0  0  0  0  0  0  0  0
    1.7290   -1.3160    0.5510 C   0  0  0  0  0  0  0  0  0  0  0  0
    2.9160   -0.9530    1.3310 C   0  0  0  0  0  0  0  0  0  0  0  0
    3.3260    0.2970    1.4300 C   0  0  0  0  0  0  0  0  0  0  0  0
    4.4830    0.6860    2.1850 C   0  0  0  0  0  0  0  0  0  0  0  0
    5.3650   -0.4670    2.9810 P   0  0  0  0  0  0  0  0  0  0  0  0
    1.0420   -0.2100   -0.0870 C   0  0  0  0  0  0  0  0  0  0  0  0
  1  2  1  0
  2  3  2  0
  2  4  1  0
  4  5  1  1
  4  8  1  0
  5  6  1  0
  6  7  1  0
  8  9  1  6
  8 16  1  0
  8 25  1  0
  9 10  2  0
  9 11  1  0
 11 12  2  0
 11 15  1  0
 12 13  1  0
 13 14  2  0
 14 15  1  0
 16 17  2  0
 17 18  1  0
 18 19  1  0
 19 20  2  0
 20 21  1  0
 20 25  1  0
 21 22  2  3
 22 23  1  0
 23 24  2  0
M  END
