
     RDKit          3D

 21 22  0  0  0  0  0  0  0  0999 V2000
   -2.4810   -2.6120   -1.0220 C   0  0  0  0  0  0  0  0  0  0  0  0
   -3.2000   -1.4370   -0.6020 C   0  0  0  0  0  0  0  0  0  0  0  0
   -5.0080   -1.3060   -0.5200 S   0  0  0  0  0  0  0  0  0  0  0  0
   -4.9400    0.4780    0.0500 C   0  0  0  0  0  0  0  0  0  0  0  0
   -6.1430    1.2130    0.3120 N   0  0  0  0  0  0  0  0  0  0  0  0
   -6.7300    1.9120   -0.6680 O   0  0  0  0  0  0  0  0  0  0  0  0
   -3.7690    0.6580    0.0820 N   0  0  0  0  0  0  0  0  0  0  0  0
   -2.7760   -0.1390   -0.1940 C   0  0  0  0  0  0  0  0  0  0  0  0
   -1.3750    0.2550   -0.0520 C   0  0  0  0  0  0  0  0  0  0  0  0
   -1.1230    1.5190   -0.0040 O   0  0  0  0  0  0  0  0  0  0  0  0
   -0.2570   -0.5700    0.0430 N   0  0  0  0  0  0  0  0  0  0  0  0
    1.1060   -0.1980    0.1680 C   0  0  0  0  0  0  0  0  0  0  0  0
    1.6070    1.0630   -0.0200 C   0  0  0  0  0  0  0  0  0  0  0  0
    2.9680    1.2900    0.1540 C   0  0  0  0  0  0  0  0  0  0  0  0
    3.8480    0.3090    0.5070 C   0  0  0  0  0  0  0  0  0  0  0  0
    5.3040    0.5210    0.6990 C   0  0  0  0  0  0  0  0  0  0  0  0
    5.7170    1.8790    0.4980 N   0  0  0  0  0  0  0  0  0  0  0  0
    6.5430    2.1360   -0.3850 O   0  0  0  0  0  0  0  0  0  0  0  0
    5.1780    2.8740    1.3020 O   0  0  0  0  0  0  0  0  0  0  0  0
    3.3590   -0.9540    0.6970 C   0  0  0  0  0  0  0  0  0  0  0  0
    2.0150   -1.2030    0.5310 C   0  0  0  0  0  0  0  0  0  0  0  0
  1  2  1  0
  2  3  1  0
  2  8  2  0
  3  4  1  0
  4  5  1  0
  4  7  2  0
  5  6  1  0
  7  8  1  0
  8  9  1  0
  9 10  2  0
  9 11  1  0
 11 12  1  0
 12 13  2  0
 12 21  1  0
 13 14  1  0
 14 15  2  0
 15 16  1  0
 15 20  1  0
 16 17  1  0
 17 18  2  0
 17 19  1  0
 20 21  2  0
M  CHG  2  17   1  19  -1
M  END
