
     RDKit          3D

 21 22  0  0  0  0  0  0  0  0999 V2000
   -3.6560   -2.0840   -1.0390 N   0  0  0  0  0  0  0  0  0  0  0  0
   -4.0860   -0.4830   -0.5790 S   0  0  2  0  0  0  0  0  0  0  0  0
   -5.4630   -0.4630    0.0650 O   0  0  0  0  0  0  0  0  0  0  0  0
   -4.1830    0.3440   -1.8190 O   0  0  0  0  0  0  0  0  0  0  0  0
   -2.9260    0.1830    0.5620 C   0  0  0  0  0  0  0  0  0  0  0  0
   -3.0530    0.0510    1.8600 C   0  0  0  0  0  0  0  0  0  0  0  0
   -1.9160    0.7220    2.5220 C   0  0  0  0  0  0  0  0  0  0  0  0
   -1.1420    1.2460    1.3630 C   0  0  0  0  0  0  0  0  0  0  0  0
   -1.7140    0.9410    0.2310 C   0  0  0  0  0  0  0  0  0  0  0  0
   -1.3230    1.2360   -1.1550 C   0  0  0  0  0  0  0  0  0  0  0  0
   -0.0600    2.0080   -1.2960 C   0  0  0  0  0  0  0  0  0  0  0  0
    1.1200    1.3740   -0.7520 N   0  0  0  0  0  0  0  0  0  0  0  0
    1.6070    0.1210   -1.1890 C   0  0  0  0  0  0  0  0  0  0  0  0
    0.9160   -0.4250   -2.1220 O   0  0  0  0  0  0  0  0  0  0  0  0
    2.7820   -0.5690   -0.6860 C   0  0  0  0  0  0  0  0  0  0  0  0
    3.5330    0.0010    0.3110 C   0  0  0  0  0  0  0  0  0  0  0  0
    4.6450   -0.6170    0.8110 N   0  0  0  0  0  0  0  0  0  0  0  0
    5.3800   -0.0090    1.8220 O   0  0  0  0  0  0  0  0  0  0  0  0
    5.0060   -1.7980    0.3170 C   0  0  0  0  0  0  0  0  0  0  0  0
    4.2690   -2.3890   -0.6840 C   0  0  0  0  0  0  0  0  0  0  0  0
    3.1800   -1.7590   -1.1570 N   0  0  0  0  0  0  0  0  0  0  0  0
  2  1  1  6
  2  3  2  0
  2  4  2  0
  2  5  1  0
  5  6  2  0
  5  9  1  0
  6  7  1  0
  7  8  1  0
  8  9  2  0
  9 10  1  0
 10 11  1  0
 11 12  1  0
 12 13  1  0
 13 14  2  0
 13 15  1  0
 15 16  2  0
 15 21  1  0
 16 17  1  0
 17 18  1  0
 17 19  2  0
 19 20  1  0
 20 21  2  0
M  CHG  2  17   1  18  -1
M  END
