
     RDKit          3D

 21 22  0  0  0  0  0  0  0  0999 V2000
   -5.5070    0.3230   -2.2760 C   0  0  0  0  0  0  0  0  0  0  0  0
   -4.4340    1.1430   -1.8570 O   0  0  0  0  0  0  0  0  0  0  0  0
   -3.5430    0.7760   -0.8680 C   0  0  0  0  0  0  0  0  0  0  0  0
   -3.6420   -0.4390   -0.2120 C   0  0  0  0  0  0  0  0  0  0  0  0
   -2.7580   -0.8160    0.7760 C   0  0  0  0  0  0  0  0  0  0  0  0
   -1.7120    0.0280    1.1620 C   0  0  0  0  0  0  0  0  0  0  0  0
   -0.7990   -0.4290    2.2390 C   0  0  0  0  0  0  0  0  0  0  0  0
    0.2380   -1.3150    1.7990 N   0  0  0  0  0  0  0  0  0  0  0  0
    1.3800   -0.7900    1.1350 C   0  0  0  0  0  0  0  0  0  0  0  0
    1.4730    0.4510    0.9410 O   0  0  0  0  0  0  0  0  0  0  0  0
    2.4130   -1.6310    0.6910 N   0  0  0  0  0  0  0  0  0  0  0  0
    3.6060   -1.1080    0.0110 C   0  0  0  0  0  0  0  0  0  0  0  0
    4.5900   -1.4240   -0.4700 N   0  0  0  0  0  0  0  0  0  0  0  0
    5.5580   -0.7280   -1.0430 C   0  0  0  0  0  0  0  0  0  0  0  0
    5.3460    0.6070   -1.0650 C   0  0  0  0  0  0  0  0  0  0  0  0
    6.0790    1.7410   -1.5570 N   0  0  0  0  0  0  0  0  0  0  0  0
    7.1810    1.5960   -2.1130 O   0  0  0  0  0  0  0  0  0  0  0  0
    5.5250    2.9920   -1.3920 O   0  0  0  0  0  0  0  0  0  0  0  0
    3.7030    0.7700   -0.2250 S   0  0  0  0  0  0  0  0  0  0  0  0
   -1.6140    1.2340    0.5110 C   0  0  0  0  0  0  0  0  0  0  0  0
   -2.5150    1.6080   -0.4910 C   0  0  0  0  0  0  0  0  0  0  0  0
  1  2  1  0
  2  3  1  0
  3  4  2  0
  3 21  1  0
  4  5  1  0
  5  6  2  0
  6  7  1  0
  6 20  1  0
  7  8  1  0
  8  9  1  0
  9 10  2  0
  9 11  1  0
 11 12  1  0
 12 13  2  0
 12 19  1  0
 13 14  1  0
 14 15  2  0
 15 16  1  0
 15 19  1  0
 16 17  2  0
 16 18  1  0
 20 21  2  0
M  CHG  2  16   1  18  -1
M  END
