
     RDKit          3D

 20 21  0  0  0  0  0  0  0  0999 V2000
   -1.7640    3.8110    1.0150 C   0  0  0  0  0  0  0  0  0  0  0  0
   -2.3750    3.0670   -0.0630 N   0  0  0  0  0  0  0  0  0  0  0  0
   -1.8610    1.7860   -0.4120 C   0  0  0  0  0  0  0  0  0  0  0  0
   -2.4490    1.0880   -1.4540 C   0  0  0  0  0  0  0  0  0  0  0  0
   -1.9710   -0.1410   -1.7970 C   0  0  0  0  0  0  0  0  0  0  0  0
   -0.8830   -0.7110   -1.1020 C   0  0  0  0  0  0  0  0  0  0  0  0
   -0.4510   -2.0590   -1.4890 C   0  0  0  0  0  0  0  0  0  0  0  0
    0.2560   -3.0130   -0.8160 C   0  0  0  0  0  0  0  0  0  0  0  0
    0.4050   -4.1490   -1.6220 C   0  0  0  0  0  0  0  0  0  0  0  0
   -0.2500   -3.8080   -2.7880 C   0  0  0  0  0  0  0  0  0  0  0  0
   -0.7330   -2.6040   -2.6840 O   0  0  0  0  0  0  0  0  0  0  0  0
   -0.3210   -0.0100   -0.0970 C   0  0  0  0  0  0  0  0  0  0  0  0
    0.8440   -0.4210    0.4760 N   0  0  0  0  0  0  0  0  0  0  0  0
    1.4250    0.2850    1.6920 C   0  0  0  0  0  0  0  0  0  0  0  0
    0.7610    1.1970    2.0800 O   0  0  0  0  0  0  0  0  0  0  0  0
    2.5820   -0.3730    1.9840 N   0  0  0  0  0  0  0  0  0  0  0  0
    2.9920    0.5710    3.3930 C   0  0  0  0  0  0  0  0  0  0  0  0
    2.2050    1.3960    3.6520 O   0  0  0  0  0  0  0  0  0  0  0  0
    4.5090    0.0150    4.0530 S   0  0  0  0  0  0  0  0  0  0  0  0
   -0.8340    1.2420    0.2330 N   0  0  0  0  0  0  0  0  0  0  0  0
  1  2  1  0
  2  3  1  0
  3  4  2  0
  3 20  1  0
  4  5  1  0
  5  6  2  0
  6  7  1  0
  6 12  1  0
  7  8  2  0
  7 11  1  0
  8  9  1  0
  9 10  2  0
 10 11  1  0
 12 13  1  0
 12 20  2  0
 13 14  1  0
 14 15  2  0
 14 16  1  0
 16 17  1  0
 17 18  2  0
 17 19  1  0
M  END
