
     RDKit          3D

 21 22  0  0  0  0  0  0  0  0999 V2000
    5.5420   -0.7530   -1.6420 C   0  0  0  0  0  0  0  0  0  0  0  0
    5.0720    0.9750   -1.3020 S   0  0  0  0  0  0  0  0  0  0  0  0
    3.7880    1.0020   -0.0510 C   0  0  0  0  0  0  0  0  0  0  0  0
    4.1100    1.0720    1.2880 C   0  0  0  0  0  0  0  0  0  0  0  0
    3.1200    1.0930    2.2480 C   0  0  0  0  0  0  0  0  0  0  0  0
    1.7750    1.0470    1.9300 C   0  0  0  0  0  0  0  0  0  0  0  0
    1.4480    0.9780    0.5930 C   0  0  0  0  0  0  0  0  0  0  0  0
    2.4500    0.9560   -0.3830 C   0  0  0  0  0  0  0  0  0  0  0  0
   -0.0080    0.9410    0.5330 C   0  0  0  0  0  0  0  0  0  0  0  0
   -0.6900    0.8740   -0.5760 N   0  0  0  0  0  0  0  0  0  0  0  0
   -2.0700    0.8450   -0.5050 N   0  0  0  0  0  0  0  0  0  0  0  0
   -2.8650   -0.2210   -1.0150 C   0  0  0  0  0  0  0  0  0  0  0  0
   -2.2430   -1.1650   -1.5500 O   0  0  0  0  0  0  0  0  0  0  0  0
   -4.3150   -0.2520   -0.9410 C   0  0  0  0  0  0  0  0  0  0  0  0
   -5.0100   -1.4680   -1.4110 C   0  0  0  0  0  0  0  0  0  0  0  0
   -4.6650   -2.6390   -0.6550 N   0  0  0  0  0  0  0  0  0  0  0  0
   -5.5760   -3.2540   -0.0190 O   0  0  0  0  0  0  0  0  0  0  0  0
   -3.4210   -3.1850   -0.5380 O   0  0  0  0  0  0  0  0  0  0  0  0
   -0.5370    0.9910    1.8900 C   0  0  0  0  0  0  0  0  0  0  0  0
   -1.7620    0.9780    2.2220 O   0  0  0  0  0  0  0  0  0  0  0  0
    0.5990    1.0570    2.7420 N   0  0  0  0  0  0  0  0  0  0  0  0
  1  2  1  0
  2  3  1  0
  3  4  2  0
  3  8  1  0
  4  5  1  0
  5  6  2  0
  6  7  1  0
  6 21  1  0
  7  8  2  0
  7  9  1  0
  9 10  2  3
  9 19  1  0
 10 11  1  0
 11 12  1  0
 12 13  2  0
 12 14  1  0
 14 15  1  0
 15 16  1  0
 16 17  2  0
 16 18  1  0
 19 20  2  0
 19 21  1  0
M  CHG  2  16   1  18  -1
M  END
