
     RDKit          3D

 12 13  0  0  0  0  0  0  0  0999 V2000
    3.1130   -0.7080   -2.3260 O   0  0  0  0  0  0  0  0  0  0  0  0
    2.4980   -0.5170   -1.2380 C   0  0  0  0  0  0  0  0  0  0  0  0
    1.1370   -0.2850   -1.2150 C   0  0  0  0  0  0  0  0  0  0  0  0
    0.4730   -0.0780   -0.0270 C   0  0  0  0  0  0  0  0  0  0  0  0
   -0.9870    0.1710    0.0090 C   0  0  0  0  0  0  0  0  0  0  0  0
   -1.7090    0.3800    1.0890 C   0  0  0  0  0  0  0  0  0  0  0  0
   -3.1170    0.5860    0.7000 C   0  0  0  0  0  0  0  0  0  0  0  0
   -3.0660    0.8290   -0.6440 O   0  0  0  0  0  0  0  0  0  0  0  0
   -1.9100    0.2370   -1.1370 C   0  0  0  0  0  0  0  0  0  0  0  0
    1.2160   -0.1100    1.1320 C   0  0  0  0  0  0  0  0  0  0  0  0
    2.5830   -0.3460    1.0650 C   0  0  0  0  0  0  0  0  0  0  0  0
    3.2220   -0.5470   -0.1020 N   0  0  0  0  0  0  0  0  0  0  0  0
  1  2  2  0
  2  3  1  0
  2 12  1  0
  3  4  2  0
  4  5  1  0
  4 10  1  0
  5  6  2  0
  5  9  1  0
  6  7  1  0
  7  8  1  0
  8  9  1  0
 10 11  2  0
 11 12  1  0
M  END
