
     RDKit          3D

 20 21  0  0  0  0  0  0  0  0999 V2000
    4.2640   -0.3150    1.1000 C   0  0  0  0  0  0  0  0  0  0  0  0
    4.3380   -0.6040   -0.2990 N   0  0  2  0  0  0  0  0  0  0  0  0
    5.6210   -0.1200   -0.8350 C   0  0  0  0  0  0  0  0  0  0  0  0
    3.2980   -0.0580   -1.1050 C   0  0  0  0  0  0  0  0  0  0  0  0
    2.0670    0.3810   -0.3810 C   0  0  0  0  0  0  0  0  0  0  0  0
    1.3080   -0.9960    0.4960 S   0  0  0  0  0  0  0  0  0  0  0  0
   -0.2670   -0.5370    1.2630 C   0  0  0  0  0  0  0  0  0  0  0  0
   -1.3400   -0.3270    0.2570 C   0  0  0  0  0  0  0  0  0  0  0  0
   -1.1120   -0.5520   -1.0830 C   0  0  0  0  0  0  0  0  0  0  0  0
   -2.1150   -0.3800   -2.0230 C   0  0  0  0  0  0  0  0  0  0  0  0
   -1.8730   -0.6140   -3.4140 N   0  0  0  0  0  0  0  0  0  0  0  0
   -3.3440    0.0230   -1.5550 C   0  0  0  0  0  0  0  0  0  0  0  0
   -3.5800    0.2500   -0.2070 C   0  0  0  0  0  0  0  0  0  0  0  0
   -4.8230    0.6550    0.2520 C   0  0  0  0  0  0  0  0  0  0  0  0
   -5.7190    0.8050   -0.6160 O   0  0  0  0  0  0  0  0  0  0  0  0
   -5.0070    0.8640    1.5690 N   0  0  0  0  0  0  0  0  0  0  0  0
   -4.0200    0.6930    2.4840 C   0  0  0  0  0  0  0  0  0  0  0  0
   -4.3040    0.9390    3.8660 N   0  0  0  0  0  0  0  0  0  0  0  0
   -2.8130    0.3010    2.0480 N   0  0  0  0  0  0  0  0  0  0  0  0
   -2.5840    0.0800    0.7280 C   0  0  0  0  0  0  0  0  0  0  0  0
  2  1  1  1
  2  3  1  0
  2  4  1  0
  4  5  1  0
  5  6  1  0
  6  7  1  0
  7  8  1  0
  8  9  2  0
  8 20  1  0
  9 10  1  0
 10 11  1  0
 10 12  2  0
 12 13  1  0
 13 14  1  0
 13 20  2  0
 14 15  2  0
 14 16  1  0
 16 17  1  0
 17 18  1  0
 17 19  2  0
 19 20  1  0
M  CHG  1   2   1
M  END
