
     RDKit          3D

 11 12  0  0  0  0  0  0  0  0999 V2000
   -3.6980   -1.2930    0.4470 Cl  0  0  0  0  0  0  0  0  0  0  0  0
   -2.0680   -0.6360    0.2320 C   0  0  0  0  0  0  0  0  0  0  0  0
   -1.9120    0.6960   -0.0580 C   0  0  0  0  0  0  0  0  0  0  0  0
   -0.6510    1.1970   -0.2240 C   0  0  0  0  0  0  0  0  0  0  0  0
    0.4290    0.3240   -0.0890 C   0  0  0  0  0  0  0  0  0  0  0  0
    1.7670    0.4800   -0.1850 N   0  0  0  0  0  0  0  0  0  0  0  0
    2.3870   -0.6710    0.0310 C   0  0  0  0  0  0  0  0  0  0  0  0
    4.1260   -1.0070    0.0210 Cl  0  0  0  0  0  0  0  0  0  0  0  0
    1.4500   -1.6040    0.2730 N   0  0  0  0  0  0  0  0  0  0  0  0
    0.2320   -1.0090    0.2040 C   0  0  0  0  0  0  0  0  0  0  0  0
   -1.0170   -1.4630    0.3580 N   0  0  0  0  0  0  0  0  0  0  0  0
  1  2  1  0
  2  3  2  0
  2 11  1  0
  3  4  1  0
  4  5  2  0
  5  6  1  0
  5 10  1  0
  6  7  1  0
  7  8  1  0
  7  9  2  0
  9 10  1  0
 10 11  2  0
M  END
