
     RDKit          3D

 11 12  0  0  0  0  0  0  0  0999 V2000
    3.6070   -0.4510   -0.1180 Cl  0  0  0  0  0  0  0  0  0  0  0  0
    1.8910   -0.0270   -0.0070 C   0  0  0  0  0  0  0  0  0  0  0  0
    1.5420    1.2640    0.3330 C   0  0  0  0  0  0  0  0  0  0  0  0
    0.2330    1.5620    0.4110 N   0  0  0  0  0  0  0  0  0  0  0  0
   -0.7090    0.6200    0.1630 C   0  0  0  0  0  0  0  0  0  0  0  0
   -2.0910    0.7150    0.1880 C   0  0  0  0  0  0  0  0  0  0  0  0
   -3.0120    2.1680    0.5700 Cl  0  0  0  0  0  0  0  0  0  0  0  0
   -2.5520   -0.5060   -0.1340 N   0  0  0  0  0  0  0  0  0  0  0  0
   -1.5080   -1.3270   -0.3490 C   0  0  0  0  0  0  0  0  0  0  0  0
   -0.3500   -0.6330   -0.1660 N   0  0  0  0  0  0  0  0  0  0  0  0
    0.9460   -1.0130   -0.2660 C   0  0  0  0  0  0  0  0  0  0  0  0
  1  2  1  0
  2  3  1  0
  2 11  2  0
  3  4  2  0
  4  5  1  0
  5  6  2  0
  5 10  1  0
  6  7  1  0
  6  8  1  0
  8  9  2  0
  9 10  1  0
 10 11  1  0
M  END
