
     RDKit          3D

 20 22  0  0  0  0  0  0  0  0999 V2000
   -3.8410   -2.3890    0.1780 C   0  0  0  0  0  0  0  0  0  0  0  0
   -4.2690   -1.1370   -0.3260 O   0  0  0  0  0  0  0  0  0  0  0  0
   -3.3640   -0.1060   -0.4210 C   0  0  0  0  0  0  0  0  0  0  0  0
   -2.0440   -0.2610   -0.0350 C   0  0  0  0  0  0  0  0  0  0  0  0
   -1.1470    0.7860   -0.1370 C   0  0  0  0  0  0  0  0  0  0  0  0
    0.2480    0.6340    0.2660 C   0  0  0  0  0  0  0  0  0  0  0  0
    0.9330   -0.5100   -0.1320 C   0  0  0  0  0  0  0  0  0  0  0  0
    2.2550   -0.6500    0.2520 C   0  0  0  0  0  0  0  0  0  0  0  0
    2.9270    0.2830    1.0070 C   0  0  0  0  0  0  0  0  0  0  0  0
    2.2390    1.4210    1.4010 C   0  0  0  0  0  0  0  0  0  0  0  0
    0.9210    1.5700    1.0230 C   0  0  0  0  0  0  0  0  0  0  0  0
    0.2300    2.7080    1.4160 O   0  0  0  0  0  0  0  0  0  0  0  0
    4.2540    0.0500    1.3410 O   0  0  0  0  0  0  0  0  0  0  0  0
    5.0760   -0.7870    0.5900 C   0  0  0  0  0  0  0  0  0  0  0  0
    4.3630   -1.8030   -0.2340 C   0  0  0  0  0  0  0  0  0  0  0  0
    2.9740   -1.7810   -0.1270 O   0  0  0  0  0  0  0  0  0  0  0  0
   -1.6330    1.9780   -0.6360 C   0  0  0  0  0  0  0  0  0  0  0  0
   -2.9460    2.1540   -1.0260 C   0  0  0  0  0  0  0  0  0  0  0  0
   -3.8340    1.1040   -0.9210 C   0  0  0  0  0  0  0  0  0  0  0  0
   -5.1550    1.2680   -1.3100 O   0  0  0  0  0  0  0  0  0  0  0  0
  1  2  1  0
  2  3  1  0
  3  4  2  0
  3 19  1  0
  4  5  1  0
  5  6  1  0
  5 17  2  0
  6  7  2  0
  6 11  1  0
  7  8  1  0
  8  9  2  0
  8 16  1  0
  9 10  1  0
  9 13  1  0
 10 11  2  0
 11 12  1  0
 13 14  1  0
 14 15  1  0
 15 16  1  0
 17 18  1  0
 18 19  2  0
 19 20  1  0
M  END
