
     RDKit          3D

 21 23  0  0  0  0  0  0  0  0999 V2000
    5.4160   -0.7630   -0.5930 C   0  0  0  0  0  0  0  0  0  0  0  0
    4.4400   -0.8590    0.4040 O   0  0  0  0  0  0  0  0  0  0  0  0
    3.1700   -0.3160    0.2650 C   0  0  0  0  0  0  0  0  0  0  0  0
    2.8430    0.3480   -0.8990 C   0  0  0  0  0  0  0  0  0  0  0  0
    1.5960    0.8960   -1.0680 C   0  0  0  0  0  0  0  0  0  0  0  0
    1.1280    1.7530   -2.5290 Cl  0  0  0  0  0  0  0  0  0  0  0  0
    0.6700    0.7720   -0.0520 C   0  0  0  0  0  0  0  0  0  0  0  0
    0.9780    0.1050    1.1330 C   0  0  0  0  0  0  0  0  0  0  0  0
    2.2390   -0.4360    1.2750 C   0  0  0  0  0  0  0  0  0  0  0  0
    0.1370   -0.1360    2.3300 C   0  0  0  0  0  0  0  0  0  0  0  0
   -1.0950   -0.7490    1.9460 O   0  0  0  0  0  0  0  0  0  0  0  0
   -1.9190   -0.4430    0.8460 C   0  0  0  0  0  0  0  0  0  0  0  0
   -3.0700   -1.2030    0.8240 C   0  0  0  0  0  0  0  0  0  0  0  0
   -4.0100   -1.0540   -0.1740 C   0  0  0  0  0  0  0  0  0  0  0  0
   -5.1580   -1.8200   -0.1850 O   0  0  0  0  0  0  0  0  0  0  0  0
   -3.8340   -0.1390   -1.1910 C   0  0  0  0  0  0  0  0  0  0  0  0
   -4.8070   -0.0050   -2.1980 O   0  0  0  0  0  0  0  0  0  0  0  0
   -2.6840    0.6220   -1.1730 C   0  0  0  0  0  0  0  0  0  0  0  0
   -1.7470    0.4710   -0.1730 C   0  0  0  0  0  0  0  0  0  0  0  0
   -0.6070    1.4120   -0.3930 C   0  0  1  0  0  0  0  0  0  0  0  0
   -0.8610    2.5490    0.3730 O   0  0  0  0  0  0  0  0  0  0  0  0
  1  2  1  0
  2  3  1  0
  3  4  2  0
  3  9  1  0
  4  5  1  0
  5  6  1  0
  5  7  2  0
  7  8  1  0
  7 20  1  0
  8  9  2  0
  8 10  1  0
 10 11  1  0
 11 12  1  0
 12 13  2  0
 12 19  1  0
 13 14  1  0
 14 15  1  0
 14 16  2  0
 16 17  1  0
 16 18  1  0
 18 19  2  0
 19 20  1  0
 20 21  1  1
M  END
