
     RDKit          3D

 13 12  0  0  0  0  0  0  0  0999 V2000
    0.8100    0.5800    2.1230 C   0  0  0  0  0  0  0  0  0  0  0  0
    1.6620    0.1860    1.2570 C   0  0  0  0  0  0  0  0  0  0  0  0
    1.5780   -0.3630   -0.0160 C   0  0  0  0  0  0  0  0  0  0  0  0
    2.8090   -0.6390   -0.5950 C   0  0  0  0  0  0  0  0  0  0  0  0
    4.0700   -0.3640    0.1030 C   0  0  0  0  0  0  0  0  0  0  0  0
    0.4520   -0.6950   -0.8410 C   0  0  0  0  0  0  0  0  0  0  0  0
   -0.8200   -0.6500   -0.7980 C   0  0  0  0  0  0  0  0  0  0  0  0
   -1.5920   -1.1680   -2.0340 C   0  0  0  0  0  0  0  0  0  0  0  0
   -0.6900   -1.5990   -2.9890 O   0  0  0  0  0  0  0  0  0  0  0  0
   -1.6820   -0.1930    0.2230 N   0  0  0  0  0  0  0  0  0  0  0  0
   -2.3180    1.1210    0.1410 C   0  0  0  0  0  0  0  0  0  0  0  0
   -3.1810    1.3150    1.3700 C   0  0  0  0  0  0  0  0  0  0  0  0
   -3.9940    2.8800    1.3600 Cl  0  0  0  0  0  0  0  0  0  0  0  0
  1  2  2  0
  2  3  1  0
  3  4  2  3
  3  6  1  0
  4  5  1  0
  6  7  2  3
  7  8  1  0
  7 10  1  0
  8  9  1  0
 10 11  1  0
 11 12  1  0
 12 13  1  0
M  END
