
     RDKit          3D

 13 13  0  0  0  0  0  0  0  0999 V2000
    3.9430   -1.4420   -1.9020 N   0  0  0  0  0  0  0  0  0  0  0  0
    2.7060   -1.1590   -1.6870 C   0  0  0  0  0  0  0  0  0  0  0  0
    2.2380   -0.2550   -0.6720 C   0  0  0  0  0  0  0  0  0  0  0  0
    3.0340    0.3870    0.1540 C   0  0  0  0  0  0  0  0  0  0  0  0
    2.5330    1.3140    1.1940 C   0  0  0  0  0  0  0  0  0  0  0  0
    3.0650    0.6770    2.7680 Cl  0  0  0  0  0  0  0  0  0  0  0  0
    0.8730   -0.0290   -0.5340 O   0  0  0  0  0  0  0  0  0  0  0  0
   -0.0370   -0.9400   -0.0280 C   0  0  0  0  0  0  0  0  0  0  0  0
   -1.3960   -0.3350   -0.0380 C   0  0  0  0  0  0  0  0  0  0  0  0
   -1.6540    0.8920   -0.4740 C   0  0  0  0  0  0  0  0  0  0  0  0
   -3.1080    1.1710   -0.3420 C   0  0  0  0  0  0  0  0  0  0  0  0
   -3.4700    0.2690    0.8270 C   0  0  0  0  0  0  0  0  0  0  0  0
   -2.6720   -0.9790    0.4240 C   0  0  0  0  0  0  0  0  0  0  0  0
  1  2  2  0
  2  3  1  0
  3  4  2  3
  3  7  1  0
  4  5  1  0
  5  6  1  0
  7  8  1  0
  8  9  1  0
  9 10  2  0
  9 13  1  0
 10 11  1  0
 11 12  1  0
 12 13  1  0
M  END
