
     RDKit          3D

 13 13  0  0  0  0  0  0  0  0999 V2000
   -3.2300   -0.9690   -0.9570 C   0  0  0  0  0  0  0  0  0  0  0  0
   -2.0380   -0.7590   -0.0640 C   0  0  0  0  0  0  0  0  0  0  0  0
   -1.8420   -1.6090    1.0950 C   0  0  0  0  0  0  0  0  0  0  0  0
   -0.7040   -1.3490    1.8180 O   0  0  0  0  0  0  0  0  0  0  0  0
   -1.1720    0.2200   -0.4030 C   0  0  0  0  0  0  0  0  0  0  0  0
   -1.4630    0.9770   -1.5990 C   0  0  0  0  0  0  0  0  0  0  0  0
   -0.7870    1.9750   -2.1000 C   0  0  0  0  0  0  0  0  0  0  0  0
   -1.3330    2.7540   -3.5920 Cl  0  0  0  0  0  0  0  0  0  0  0  0
   -0.0440    0.4260    0.4550 N   0  0  0  0  0  0  0  0  0  0  0  0
    1.2640    0.1680   -0.0150 C   0  0  0  0  0  0  0  0  0  0  0  0
    2.3500    0.1070    1.0190 C   0  0  1  0  0  0  0  0  0  0  0  0
    3.7250   -0.1250    0.3180 C   0  0  0  0  0  0  0  0  0  0  0  0
    3.4470    1.0530    1.1900 C   0  0  0  0  0  0  0  0  0  0  0  0
  1  2  1  0
  2  3  1  0
  2  5  2  3
  3  4  1  0
  5  6  1  0
  5  9  1  0
  6  7  2  3
  7  8  1  0
  9 10  1  0
 11 10  1  6
 11 12  1  0
 11 13  1  0
 12 13  1  0
M  END
