
     RDKit          3D

 20 21  0  0  0  0  0  0  0  0999 V2000
    1.9610   -2.6540   -1.2040 O   0  0  0  0  0  0  0  0  0  0  0  0
    2.4820   -1.5450   -0.8110 C   0  0  0  0  0  0  0  0  0  0  0  0
    1.5440   -0.5310   -0.3290 C   0  0  0  0  0  0  0  0  0  0  0  0
    0.2000   -1.0350   -0.3580 O   0  0  0  0  0  0  0  0  0  0  0  0
   -0.8450   -0.2170    0.0650 C   0  0  0  0  0  0  0  0  0  0  0  0
   -0.6150    1.0770    0.5140 C   0  0  0  0  0  0  0  0  0  0  0  0
   -1.6350    1.8960    0.9340 C   0  0  0  0  0  0  0  0  0  0  0  0
   -1.3270    3.1720    1.3670 O   0  0  0  0  0  0  0  0  0  0  0  0
   -2.9390    1.4560    0.9240 C   0  0  0  0  0  0  0  0  0  0  0  0
   -3.9710    2.2860    1.3500 O   0  0  0  0  0  0  0  0  0  0  0  0
   -3.2050    0.1600    0.4790 C   0  0  0  0  0  0  0  0  0  0  0  0
   -2.1550   -0.6560    0.0560 C   0  0  0  0  0  0  0  0  0  0  0  0
   -2.6440   -1.8880   -0.3400 O   0  0  0  0  0  0  0  0  0  0  0  0
   -4.0280   -1.7550   -0.5700 C   0  0  0  0  0  0  0  0  0  0  0  0
   -4.4430   -0.6120    0.3390 C   0  0  0  0  0  0  0  0  0  0  0  0
    3.9040   -1.3430   -0.8550 C   0  0  0  0  0  0  0  0  0  0  0  0
    4.6290   -2.4710   -1.3740 O   0  0  0  0  0  0  0  0  0  0  0  0
    4.6370   -0.3380   -0.5130 C   0  0  0  0  0  0  0  0  0  0  0  0
    4.3200    0.9710    0.0460 C   0  0  0  0  0  0  0  0  0  0  0  0
    5.1860    1.2180    1.7870 Br  0  0  0  0  0  0  0  0  0  0  0  0
  1  2  2  0
  2  3  1  0
  2 16  1  0
  3  4  1  0
  4  5  1  0
  5  6  2  0
  5 12  1  0
  6  7  1  0
  7  8  1  0
  7  9  2  0
  9 10  1  0
  9 11  1  0
 11 12  2  0
 11 15  1  0
 12 13  1  0
 13 14  1  0
 14 15  1  0
 16 17  1  0
 16 18  2  3
 18 19  1  0
 19 20  1  0
M  END
