
     RDKit          3D

 21 22  0  0  0  0  0  0  0  0999 V2000
   -3.0170    3.1180    0.5660 O   0  0  0  0  0  0  0  0  0  0  0  0
   -2.3010    1.9800    1.2750 S   0  0  1  0  0  0  0  0  0  0  0  0
   -0.9800    2.5340    1.7200 O   0  0  0  0  0  0  0  0  0  0  0  0
   -3.2270    1.5180    2.6150 O   0  0  0  0  0  0  0  0  0  0  0  0
   -2.1320    0.6160    0.2140 C   0  0  0  0  0  0  0  0  0  0  0  0
   -3.0590    0.3990   -0.7830 C   0  0  0  0  0  0  0  0  0  0  0  0
   -2.9660   -0.6720   -1.6510 C   0  0  0  0  0  0  0  0  0  0  0  0
   -1.9070   -1.5210   -1.4830 C   0  0  0  0  0  0  0  0  0  0  0  0
   -1.7560   -2.6160   -2.3210 O   0  0  0  0  0  0  0  0  0  0  0  0
   -0.9490   -1.3450   -0.4950 C   0  0  0  0  0  0  0  0  0  0  0  0
    0.1350   -2.3220   -0.3550 C   0  0  0  0  0  0  0  0  0  0  0  0
    1.0860   -2.0380    0.6280 O   0  0  0  0  0  0  0  0  0  0  0  0
    1.8890   -0.9270    0.5140 C   0  0  0  0  0  0  0  0  0  0  0  0
    2.7960   -0.6880    1.5420 C   0  0  0  0  0  0  0  0  0  0  0  0
    3.6330    0.3890    1.5070 C   0  0  0  0  0  0  0  0  0  0  0  0
    3.5800    1.2640    0.4270 C   0  0  0  0  0  0  0  0  0  0  0  0
    4.4270    2.3550    0.3920 O   0  0  0  0  0  0  0  0  0  0  0  0
    2.6960    1.0580   -0.6060 C   0  0  0  0  0  0  0  0  0  0  0  0
    2.6850    2.2990   -2.0470 Br  0  0  0  0  0  0  0  0  0  0  0  0
    1.8630   -0.0420   -0.5410 C   0  0  0  0  0  0  0  0  0  0  0  0
   -1.0700   -0.2680    0.3550 C   0  0  0  0  0  0  0  0  0  0  0  0
  1  2  2  0
  2  3  2  0
  2  4  1  1
  2  5  1  0
  5  6  2  0
  5 21  1  0
  6  7  1  0
  7  8  2  0
  8  9  1  0
  8 10  1  0
 10 11  1  0
 10 21  2  0
 11 12  1  0
 12 13  1  0
 13 14  2  0
 13 20  1  0
 14 15  1  0
 15 16  2  0
 16 17  1  0
 16 18  1  0
 18 19  1  0
 18 20  2  0
M  END
