
     RDKit          3D

 21 22  0  0  0  0  0  0  0  0999 V2000
    6.5480   -1.1980    0.1140 O   0  0  0  0  0  0  0  0  0  0  0  0
    5.2500   -0.8130   -0.1490 C   0  0  0  0  0  0  0  0  0  0  0  0
    4.2360   -1.2410    0.6800 C   0  0  0  0  0  0  0  0  0  0  0  0
    2.9280   -0.8710    0.4400 C   0  0  0  0  0  0  0  0  0  0  0  0
    2.6700   -0.0760   -0.6340 C   0  0  0  0  0  0  0  0  0  0  0  0
    1.3860    0.3130   -0.9060 O   0  0  0  0  0  0  0  0  0  0  0  0
    0.3180   -0.0930   -0.0960 C   0  0  0  0  0  0  0  0  0  0  0  0
   -0.8650    0.4400   -0.5950 O   0  0  0  0  0  0  0  0  0  0  0  0
   -2.1170    0.2520   -0.0550 C   0  0  0  0  0  0  0  0  0  0  0  0
   -2.3580   -0.5010    1.0680 C   0  0  0  0  0  0  0  0  0  0  0  0
   -3.6270   -0.6620    1.5740 C   0  0  0  0  0  0  0  0  0  0  0  0
   -3.8660   -1.7320    3.1480 Br  0  0  0  0  0  0  0  0  0  0  0  0
   -4.6920   -0.0600    0.9510 C   0  0  0  0  0  0  0  0  0  0  0  0
   -6.3320   -0.2780    1.6180 S   0  0  0  0  0  0  0  0  0  0  0  0
   -4.4890    0.7170   -0.1980 C   0  0  0  0  0  0  0  0  0  0  0  0
   -5.6110    1.2910   -0.7690 O   0  0  0  0  0  0  0  0  0  0  0  0
   -3.2170    0.8620   -0.6820 C   0  0  0  0  0  0  0  0  0  0  0  0
   -2.9580    1.6090   -1.7990 O   0  0  0  0  0  0  0  0  0  0  0  0
    3.6710    0.3710   -1.4870 C   0  0  0  0  0  0  0  0  0  0  0  0
    3.3860    1.1920   -2.5910 O   0  0  0  0  0  0  0  0  0  0  0  0
    4.9680   -0.0090   -1.2300 C   0  0  0  0  0  0  0  0  0  0  0  0
  1  2  1  0
  2  3  2  0
  2 21  1  0
  3  4  1  0
  4  5  2  0
  5  6  1  0
  5 19  1  0
  6  7  1  0
  7  8  1  0
  8  9  1  0
  9 10  2  0
  9 17  1  0
 10 11  1  0
 11 12  1  0
 11 13  2  0
 13 14  1  0
 13 15  1  0
 15 16  1  0
 15 17  2  0
 17 18  1  0
 19 20  1  0
 19 21  2  0
M  END
