
     RDKit          3D

 18 19  0  0  0  0  0  0  0  0999 V2000
    3.9140   -0.3130    0.9940 C   0  0  0  0  0  0  0  0  0  0  0  0
    3.4840    0.6200   -0.0730 C   0  0  1  0  0  0  0  0  0  0  0  0
    4.3020    0.4480   -1.2420 N   0  0  0  0  0  0  0  0  0  0  0  0
    2.0070    0.5880   -0.3910 C   0  0  1  0  0  0  0  0  0  0  0  0
    1.5210   -0.7420   -0.8510 C   0  0  0  0  0  0  0  0  0  0  0  0
    0.9740   -1.6320    0.2050 C   0  0  0  0  0  0  0  0  0  0  0  0
   -0.0200   -0.9150    1.0880 C   0  0  2  0  0  0  0  0  0  0  0  0
   -1.3420   -0.7530    0.3530 C   0  0  0  0  0  0  0  0  0  0  0  0
   -1.4100   -1.1840   -0.8100 O   0  0  0  0  0  0  0  0  0  0  0  0
   -2.4370   -0.1420    0.9700 N   0  0  0  0  0  0  0  0  0  0  0  0
   -3.7070    0.0520    0.3810 C   0  0  0  0  0  0  0  0  0  0  0  0
   -4.6190    0.9260    1.0000 C   0  0  0  0  0  0  0  0  0  0  0  0
   -5.8450    1.0980    0.4390 C   0  0  0  0  0  0  0  0  0  0  0  0
   -6.2270    0.4620   -0.6920 N   0  0  0  0  0  0  0  0  0  0  0  0
   -5.4070   -0.3730   -1.3170 C   0  0  0  0  0  0  0  0  0  0  0  0
   -4.1350   -0.5690   -0.7590 C   0  0  0  0  0  0  0  0  0  0  0  0
    0.4810    0.3770    1.6190 C   0  0  0  0  0  0  0  0  0  0  0  0
    1.2100    1.2450    0.6740 C   0  0  0  0  0  0  0  0  0  0  0  0
  2  1  1  1
  2  3  1  0
  2  4  1  0
  4  5  1  1
  4 18  1  0
  5  6  1  0
  6  7  1  0
  7  8  1  6
  7 17  1  0
  8  9  2  0
  8 10  1  0
 10 11  1  0
 11 12  2  0
 11 16  1  0
 12 13  1  0
 13 14  2  0
 14 15  1  0
 15 16  2  0
 17 18  1  0
M  CHG  1   3   1
M  END
