
     RDKit          3D

 21 22  0  0  0  0  0  0  0  0999 V2000
    0.1900   -2.3590   -0.3270 O   0  0  0  0  0  0  0  0  0  0  0  0
    0.4780   -1.6410    0.6620 C   0  0  0  0  0  0  0  0  0  0  0  0
    1.9130   -1.5480    1.0200 C   0  0  0  0  0  0  0  0  0  0  0  0
    2.6650   -0.6100    0.1920 C   0  0  0  0  0  0  0  0  0  0  0  0
    2.0680    0.0600   -0.7570 C   0  0  0  0  0  0  0  0  0  0  0  0
    2.8010    0.9990   -1.5920 C   0  0  0  0  0  0  0  0  0  0  0  0
    4.0590    1.2870   -1.5250 C   0  0  0  0  0  0  0  0  0  0  0  0
    4.7120    2.6040   -2.8140 Br  0  0  0  0  0  0  0  0  0  0  0  0
    5.0650    0.7450   -0.5980 C   0  0  0  0  0  0  0  0  0  0  0  0
    4.3570   -0.4150    0.5040 S   0  0  1  0  0  0  0  0  0  0  0  0
    4.5130    0.1240    1.9100 O   0  0  0  0  0  0  0  0  0  0  0  0
    5.0860   -1.7380    0.3780 O   0  0  0  0  0  0  0  0  0  0  0  0
   -0.5420   -1.0180    1.3120 O   0  0  0  0  0  0  0  0  0  0  0  0
   -1.8990   -1.0270    1.0690 C   0  0  0  0  0  0  0  0  0  0  0  0
   -2.3490   -0.4680   -0.2520 C   0  0  1  0  0  0  0  0  0  0  0  0
   -1.8280   -1.1560   -1.3380 O   0  0  0  0  0  0  0  0  0  0  0  0
   -3.8480   -0.5550   -0.3760 C   0  0  0  0  0  0  0  0  0  0  0  0
   -4.5880    0.6470    0.0860 C   0  0  0  0  0  0  0  0  0  0  0  0
   -3.9790    1.8480   -0.2630 O   0  0  0  0  0  0  0  0  0  0  0  0
   -2.7160    1.9630    0.3090 C   0  0  0  0  0  0  0  0  0  0  0  0
   -1.8300    0.9450   -0.3450 C   0  0  0  0  0  0  0  0  0  0  0  0
  1  2  2  0
  2  3  1  0
  2 13  1  0
  3  4  1  0
  4  5  2  0
  4 10  1  0
  5  6  1  0
  6  7  2  0
  7  8  1  0
  7  9  1  0
 10  9  1  6
 10 11  2  0
 10 12  2  0
 13 14  1  0
 14 15  1  0
 15 16  1  6
 15 17  1  0
 15 21  1  0
 17 18  1  0
 18 19  1  0
 19 20  1  0
 20 21  1  0
M  END
