
     RDKit          3D

 22 24  0  0  0  0  0  0  0  0999 V2000
   -5.4300    2.3490   -0.0380 C   0  0  0  0  0  0  0  0  0  0  0  0
   -4.1860    1.6020   -0.4460 C   0  0  1  0  0  0  0  0  0  0  0  0
   -3.7020    0.6640    0.6360 C   0  0  0  0  0  0  0  0  0  0  0  0
   -3.0730   -0.4710    0.0280 N   0  0  0  0  0  0  0  0  0  0  0  0
   -1.7620   -0.9360    0.3490 C   0  0  0  0  0  0  0  0  0  0  0  0
   -1.5380   -1.5580    1.4560 N   0  0  0  0  0  0  0  0  0  0  0  0
   -0.2670   -2.0440    1.8400 C   0  0  0  0  0  0  0  0  0  0  0  0
   -0.0240   -3.1740    2.3220 O   0  0  0  0  0  0  0  0  0  0  0  0
    0.8860   -1.1230    1.6510 C   0  0  0  0  0  0  0  0  0  0  0  0
    1.0920   -1.0310    0.1840 C   0  0  0  0  0  0  0  0  0  0  0  0
    2.2440   -1.1850   -0.4300 C   0  0  0  0  0  0  0  0  0  0  0  0
    3.5450   -1.4750    0.1950 C   0  0  0  0  0  0  0  0  0  0  0  0
    4.4840   -0.3670   -0.1360 C   0  0  0  0  0  0  0  0  0  0  0  0
    5.2650   -0.4200   -1.2620 C   0  0  0  0  0  0  0  0  0  0  0  0
    6.1270    0.6210   -1.5450 C   0  0  0  0  0  0  0  0  0  0  0  0
    6.2080    1.6790   -0.7310 N   0  0  0  0  0  0  0  0  0  0  0  0
    5.4530    1.7410    0.3660 C   0  0  0  0  0  0  0  0  0  0  0  0
    4.5830    0.7300    0.6860 C   0  0  0  0  0  0  0  0  0  0  0  0
   -0.3840   -0.6820   -0.7570 S   0  0  0  0  0  0  0  0  0  0  0  0
   -3.8030   -1.2100   -0.9840 C   0  0  0  0  0  0  0  0  0  0  0  0
   -4.9660   -0.3070   -1.4060 C   0  0  0  0  0  0  0  0  0  0  0  0
   -4.4160    0.9430   -1.6490 O   0  0  0  0  0  0  0  0  0  0  0  0
  2  1  1  1
  2  3  1  0
  2 22  1  0
  3  4  1  0
  4  5  1  0
  4 20  1  0
  5  6  2  0
  5 19  1  0
  6  7  1  0
  7  8  2  0
  7  9  1  0
  9 10  1  0
 10 11  2  3
 10 19  1  0
 11 12  1  0
 12 13  1  0
 13 14  2  0
 13 18  1  0
 14 15  1  0
 15 16  2  0
 16 17  1  0
 17 18  2  0
 20 21  1  0
 21 22  1  0
M  CHG  1  16   1
M  END
