
     RDKit          3D

 22 23  0  0  0  0  0  0  0  0999 V2000
   -3.8420   -3.2740    1.3550 C   0  0  0  0  0  0  0  0  0  0  0  0
   -4.1390   -2.0190    0.9670 C   0  0  0  0  0  0  0  0  0  0  0  0
   -5.5280   -1.5870    1.1860 C   0  0  0  0  0  0  0  0  0  0  0  0
   -3.0870   -1.2280    0.4070 C   0  0  0  0  0  0  0  0  0  0  0  0
   -3.1280    0.0070   -0.0480 C   0  0  0  0  0  0  0  0  0  0  0  0
   -4.2890    0.8290   -0.0710 N   0  0  0  0  0  0  0  0  0  0  0  0
   -4.1690    2.1550    0.3090 N   0  0  0  0  0  0  0  0  0  0  0  0
   -3.1830    2.8600   -0.4830 C   0  0  0  0  0  0  0  0  0  0  0  0
   -2.0880    1.9710   -0.9790 C   0  0  0  0  0  0  0  0  0  0  0  0
   -1.2960    2.4650   -1.8180 O   0  0  0  0  0  0  0  0  0  0  0  0
   -1.9160    0.6320   -0.5480 N   0  0  0  0  0  0  0  0  0  0  0  0
   -0.6560   -0.0300   -0.6030 C   0  0  0  0  0  0  0  0  0  0  0  0
    0.0370    0.2050    0.7230 C   0  0  0  0  0  0  0  0  0  0  0  0
    1.3810   -0.4380    0.8100 C   0  0  1  0  0  0  0  0  0  0  0  0
    2.2860    0.0190   -0.1680 O   0  0  0  0  0  0  0  0  0  0  0  0
    3.5820    0.0880    0.1920 C   0  0  0  0  0  0  0  0  0  0  0  0
    4.7060   -0.0180   -0.8140 C   0  0  2  0  0  0  0  0  0  0  0  0
    4.6350    1.0990   -1.8250 C   0  0  0  0  0  0  0  0  0  0  0  0
    4.6450   -1.3580   -1.5480 C   0  0  0  0  0  0  0  0  0  0  0  0
    6.0550    0.0370   -0.1510 C   0  0  0  0  0  0  0  0  0  0  0  0
    3.8560    0.2530    1.4690 C   0  0  0  0  0  0  0  0  0  0  0  0
    2.2360    0.3210    2.2650 S   0  0  0  0  0  0  0  0  0  0  0  0
  1  2  2  0
  2  3  1  0
  2  4  1  0
  4  5  2  3
  5  6  1  0
  5 11  1  0
  6  7  1  0
  7  8  1  0
  8  9  1  0
  9 10  2  0
  9 11  1  0
 11 12  1  0
 12 13  1  0
 14 13  1  6
 14 15  1  0
 14 22  1  0
 15 16  1  0
 16 17  1  0
 16 21  2  0
 17 18  1  6
 17 19  1  0
 17 20  1  0
 21 22  1  0
M  CHG  1   7   1
M  END
