
     RDKit          3D

 22 24  0  0  0  0  0  0  0  0999 V2000
    2.0130    4.0090    0.7640 C   0  0  0  0  0  0  0  0  0  0  0  0
    1.4020    3.1270   -0.2370 N   0  0  0  0  0  0  0  0  0  0  0  0
    0.2380    2.5200    0.2700 C   0  0  0  0  0  0  0  0  0  0  0  0
   -0.5990    3.3020    0.8450 O   0  0  0  0  0  0  0  0  0  0  0  0
   -0.0770    1.1210    0.1940 C   0  0  0  0  0  0  0  0  0  0  0  0
   -1.2420    0.7110    0.7260 C   0  0  0  0  0  0  0  0  0  0  0  0
   -1.6590   -0.6390    0.7100 N   0  0  0  0  0  0  0  0  0  0  0  0
   -2.7850   -1.0250    1.2260 C   0  0  0  0  0  0  0  0  0  0  0  0
   -3.1570   -2.4320    1.1780 C   0  0  1  0  0  0  0  0  0  0  0  0
   -4.3740   -2.9270    0.5060 C   0  0  0  0  0  0  0  0  0  0  0  0
   -3.0050   -3.0960   -0.1810 C   0  0  0  0  0  0  0  0  0  0  0  0
   -3.6190   -0.0110    1.8310 C   0  0  0  0  0  0  0  0  0  0  0  0
   -4.9060   -0.3940    2.4300 C   0  0  0  0  0  0  0  0  0  0  0  0
   -3.2630    1.2250    1.8580 N   0  0  0  0  0  0  0  0  0  0  0  0
   -2.0620    1.6540    1.3110 O   0  0  0  0  0  0  0  0  0  0  0  0
    0.7590    0.0800   -0.4240 C   0  0  1  0  0  0  0  0  0  0  0  0
    0.9850    0.2720   -1.9070 C   0  0  0  0  0  0  0  0  0  0  0  0
    2.3520   -0.3180   -2.1520 C   0  0  0  0  0  0  0  0  0  0  0  0
    3.1240   -0.1540   -0.8820 C   0  0  2  0  0  0  0  0  0  0  0  0
    4.2530   -1.5770   -0.6410 S   0  0  0  0  0  0  0  0  0  0  0  0
    5.5170   -1.5810   -1.9140 C   0  0  0  0  0  0  0  0  0  0  0  0
    2.1050   -0.0660    0.2240 C   0  0  0  0  0  0  0  0  0  0  0  0
  1  2  1  0
  2  3  1  0
  3  4  2  0
  3  5  1  0
  5  6  2  3
 16  5  1  1
  6  7  1  0
  6 15  1  0
  7  8  2  0
  9  8  1  6
  8 12  1  0
  9 10  1  0
  9 11  1  0
 10 11  1  0
 12 13  1  0
 12 14  2  0
 14 15  1  0
 16 17  1  0
 16 22  1  0
 17 18  1  0
 18 19  1  0
 19 20  1  1
 19 22  1  0
 20 21  1  0
M  CHG  1   2   1
M  END
