
     RDKit          3D

 22 24  0  0  0  0  0  0  0  0999 V2000
    7.3340   -0.0540   -1.0990 C   0  0  0  0  0  0  0  0  0  0  0  0
    6.7080    0.9430   -0.1710 C   0  0  2  0  0  0  0  0  0  0  0  0
    6.0360    0.0480    1.2920 S   0  0  0  0  0  0  0  0  0  0  0  0
    4.3420   -0.0780    0.7100 C   0  0  0  0  0  0  0  0  0  0  0  0
    3.3640   -0.6090    1.3520 N   0  0  0  0  0  0  0  0  0  0  0  0
    2.0580   -0.6650    0.8150 C   0  0  0  0  0  0  0  0  0  0  0  0
    1.0710    0.0620    1.4400 C   0  0  0  0  0  0  0  0  0  0  0  0
   -0.2290    0.0190    0.9230 C   0  0  0  0  0  0  0  0  0  0  0  0
   -0.5520   -0.7230   -0.1840 C   0  0  0  0  0  0  0  0  0  0  0  0
   -1.8090   -0.7690   -0.6910 O   0  0  0  0  0  0  0  0  0  0  0  0
   -2.9170   -0.1260   -0.2220 C   0  0  1  0  0  0  0  0  0  0  0  0
   -3.4340    0.7680   -1.3640 C   0  0  0  0  0  0  0  0  0  0  0  0
   -4.6140    0.0410   -1.9710 C   0  0  0  0  0  0  0  0  0  0  0  0
   -5.7430    0.1500   -0.9370 C   0  0  0  0  0  0  0  0  0  0  0  0
   -5.2570   -0.3350    0.3320 N   0  0  0  0  0  0  0  0  0  0  0  0
   -5.2110    0.6570    1.3590 C   0  0  0  0  0  0  0  0  0  0  0  0
   -4.0300   -1.0720    0.2150 C   0  0  0  0  0  0  0  0  0  0  0  0
    0.4800   -1.4640   -0.8120 C   0  0  0  0  0  0  0  0  0  0  0  0
    1.7500   -1.4250   -0.3110 C   0  0  0  0  0  0  0  0  0  0  0  0
    4.3680    0.5290   -0.5770 N   0  0  0  0  0  0  0  0  0  0  0  0
    5.4280    1.4190   -0.7610 C   0  0  0  0  0  0  0  0  0  0  0  0
    5.3730    2.5450   -1.3650 O   0  0  0  0  0  0  0  0  0  0  0  0
  2  1  1  6
  2  3  1  0
  2 21  1  0
  3  4  1  0
  4  5  2  3
  4 20  1  0
  5  6  1  0
  6  7  2  0
  6 19  1  0
  7  8  1  0
  8  9  2  0
  9 10  1  0
  9 18  1  0
 11 10  1  6
 11 12  1  0
 11 17  1  0
 12 13  1  0
 13 14  1  0
 14 15  1  0
 15 16  1  0
 15 17  1  0
 18 19  2  0
 20 21  1  0
 21 22  2  0
M  CHG  1   5   1
M  END
