
     RDKit          3D

 22 24  0  0  0  0  0  0  0  0999 V2000
   -6.6690    1.3000   -0.8810 C   0  0  0  0  0  0  0  0  0  0  0  0
   -5.3230    1.8390   -1.0900 C   0  0  0  0  0  0  0  0  0  0  0  0
   -4.2480    1.1100   -0.8510 C   0  0  0  0  0  0  0  0  0  0  0  0
   -2.5920    1.7010   -1.0830 S   0  0  0  0  0  0  0  0  0  0  0  0
   -1.7590    0.2460   -0.5860 C   0  0  0  0  0  0  0  0  0  0  0  0
   -0.3400    0.0630   -0.5430 N   0  0  0  0  0  0  0  0  0  0  0  0
    0.5530    1.0730   -0.9110 C   0  0  0  0  0  0  0  0  0  0  0  0
    0.1560    2.1850   -1.2950 O   0  0  0  0  0  0  0  0  0  0  0  0
    2.0160    0.8280   -0.8480 C   0  0  2  0  0  0  0  0  0  0  0  0
    2.4730    0.4030    0.5110 C   0  0  0  0  0  0  0  0  0  0  0  0
    3.7880   -0.2340    0.3360 N   0  0  0  0  0  0  0  0  0  0  0  0
    4.3310   -0.4400    1.6650 C   0  0  0  0  0  0  0  0  0  0  0  0
    5.6810   -1.0870    1.6340 C   0  0  0  0  0  0  0  0  0  0  0  0
    4.6200    0.6340   -0.4730 C   0  0  0  0  0  0  0  0  0  0  0  0
    3.9810    1.9880   -0.6840 C   0  0  0  0  0  0  0  0  0  0  0  0
    2.7320    1.9310   -1.2450 O   0  0  0  0  0  0  0  0  0  0  0  0
   -2.7790   -0.6000   -0.2730 C   0  0  0  0  0  0  0  0  0  0  0  0
   -4.0350   -0.1650   -0.4070 C   0  0  0  0  0  0  0  0  0  0  0  0
   -4.8680   -1.1730   -0.0410 C   0  0  0  0  0  0  0  0  0  0  0  0
   -4.1160   -2.3130    0.3480 N   0  0  0  0  0  0  0  0  0  0  0  0
   -2.8700   -2.0010    0.2200 C   0  0  0  0  0  0  0  0  0  0  0  0
   -1.7110   -2.8810    0.5100 C   0  0  0  0  0  0  0  0  0  0  0  0
  1  2  1  0
  2  3  2  3
  3  4  1  0
  3 18  1  0
  4  5  1  0
  5  6  1  0
  5 17  2  0
  6  7  1  0
  7  8  2  0
  9  7  1  1
  9 10  1  0
  9 16  1  0
 10 11  1  0
 11 12  1  0
 11 14  1  0
 12 13  1  0
 14 15  1  0
 15 16  1  0
 17 18  1  0
 17 21  1  0
 18 19  2  0
 19 20  1  0
 20 21  2  0
 21 22  1  0
M  CHG  1  20   1
M  END
