
     RDKit          3D

 22 24  0  0  0  0  0  0  0  0999 V2000
    6.2430    0.4720    0.5960 C   0  0  0  0  0  0  0  0  0  0  0  0
    4.8430    0.2780    0.1270 C   0  0  0  0  0  0  0  0  0  0  0  0
    4.3060   -0.9950   -0.0360 C   0  0  0  0  0  0  0  0  0  0  0  0
    3.0150   -1.1880   -0.4680 C   0  0  0  0  0  0  0  0  0  0  0  0
    2.4880   -2.5410   -0.6230 C   0  0  0  0  0  0  0  0  0  0  0  0
    2.2200   -0.0920   -0.7530 C   0  0  0  0  0  0  0  0  0  0  0  0
    0.6060   -0.3590   -1.3050 S   0  0  1  0  0  0  0  0  0  0  0  0
    0.1620    0.6780   -2.3320 O   0  0  0  0  0  0  0  0  0  0  0  0
    0.5940   -1.6590   -2.1070 O   0  0  0  0  0  0  0  0  0  0  0  0
   -0.5440   -0.5440   -0.0650 N   0  0  0  0  0  0  0  0  0  0  0  0
   -0.6770    0.5920    0.7800 C   0  0  0  0  0  0  0  0  0  0  0  0
   -1.6240    0.1980    1.9170 C   0  0  0  0  0  0  0  0  0  0  0  0
   -2.9140    0.0560    1.3070 N   0  0  0  0  0  0  0  0  0  0  0  0
   -3.3220    1.2000    0.5300 C   0  0  0  0  0  0  0  0  0  0  0  0
   -4.8440    1.0980    0.3690 C   0  0  0  0  0  0  0  0  0  0  0  0
   -5.2110   -0.3070    0.4380 N   0  0  0  0  0  0  0  0  0  0  0  0
   -4.2340   -1.1230   -0.2770 C   0  0  0  0  0  0  0  0  0  0  0  0
   -2.8910   -1.0880    0.4390 C   0  0  1  0  0  0  0  0  0  0  0  0
   -1.7560   -1.1400   -0.5060 C   0  0  0  0  0  0  0  0  0  0  0  0
    2.7010    1.1820   -0.6100 C   0  0  0  0  0  0  0  0  0  0  0  0
    1.9400    2.3950   -0.8950 C   0  0  0  0  0  0  0  0  0  0  0  0
    4.0150    1.3370   -0.1680 C   0  0  0  0  0  0  0  0  0  0  0  0
  1  2  1  0
  2  3  2  0
  2 22  1  0
  3  4  1  0
  4  5  1  0
  4  6  2  0
  6  7  1  0
  6 20  1  0
  7  8  2  0
  7  9  2  0
  7 10  1  1
 10 11  1  0
 10 19  1  0
 11 12  1  0
 12 13  1  0
 13 14  1  0
 13 18  1  0
 14 15  1  0
 15 16  1  0
 16 17  1  0
 18 17  1  6
 18 19  1  0
 20 21  1  0
 20 22  2  0
M  CHG  1  16   1
M  END
