
     RDKit          3D

 22 23  0  0  0  0  0  0  0  0999 V2000
    0.1440   -2.1410    2.0530 C   0  0  0  0  0  0  0  0  0  0  0  0
    0.1320   -1.7310    0.7810 C   0  0  0  0  0  0  0  0  0  0  0  0
   -1.1010   -1.6410    0.0290 C   0  0  0  0  0  0  0  0  0  0  0  0
   -1.7640   -0.6270   -0.4880 C   0  0  0  0  0  0  0  0  0  0  0  0
   -3.0370   -0.9810   -1.2190 C   0  0  0  0  0  0  0  0  0  0  0  0
   -3.1370   -1.9530   -2.0720 C   0  0  0  0  0  0  0  0  0  0  0  0
   -2.0210   -2.8330   -2.4450 C   0  0  0  0  0  0  0  0  0  0  0  0
   -4.4750    0.1030   -0.8850 S   0  0  0  0  0  0  0  0  0  0  0  0
   -3.7970    1.0420    0.5350 C   0  0  0  0  0  0  0  0  0  0  0  0
   -2.5560    1.6770    0.0610 C   0  0  0  0  0  0  0  0  0  0  0  0
   -1.5030    0.7500   -0.4210 N   0  0  0  0  0  0  0  0  0  0  0  0
   -0.3020    1.4960   -0.7800 C   0  0  0  0  0  0  0  0  0  0  0  0
   -0.1030    2.6330    0.1560 C   0  0  0  0  0  0  0  0  0  0  0  0
   -0.7010    3.7200   -0.1910 O   0  0  0  0  0  0  0  0  0  0  0  0
    0.6590    2.6170    1.3470 N   0  0  0  0  0  0  0  0  0  0  0  0
    1.9960    2.1910    1.5200 C   0  0  0  0  0  0  0  0  0  0  0  0
    2.5450    2.1100    2.6630 O   0  0  0  0  0  0  0  0  0  0  0  0
    2.9200    1.7900    0.4260 C   0  0  0  0  0  0  0  0  0  0  0  0
    3.1500    0.3810    0.5490 N   0  0  2  0  0  0  0  0  0  0  0  0
    3.5450   -0.2010   -0.7460 C   0  0  0  0  0  0  0  0  0  0  0  0
    2.0810   -0.3560    1.1610 C   0  0  0  0  0  0  0  0  0  0  0  0
    1.5080   -1.4370    0.2800 C   0  0  0  0  0  0  0  0  0  0  0  0
  1  2  2  0
  2  3  1  0
  2 22  1  0
  3  4  2  0
  4  5  1  0
  4 11  1  0
  5  6  2  3
  5  8  1  0
  6  7  1  0
  8  9  1  0
  9 10  1  0
 10 11  1  0
 11 12  1  0
 12 13  1  0
 13 14  2  0
 13 15  1  0
 15 16  1  0
 16 17  2  0
 16 18  1  0
 18 19  1  0
 19 20  1  6
 19 21  1  0
 21 22  1  0
M  CHG  1  19   1
M  END
