
     RDKit          3D

 20 22  0  0  0  0  0  0  0  0999 V2000
    5.0490   -2.0580    0.8380 O   0  0  0  0  0  0  0  0  0  0  0  0
    4.2830   -1.0270    1.6130 S   0  0  2  0  0  0  0  0  0  0  0  0
    4.6610   -0.9370    3.0380 O   0  0  0  0  0  0  0  0  0  0  0  0
    2.5150   -1.2030    1.3650 C   0  0  0  0  0  0  0  0  0  0  0  0
    2.3410   -0.4690    0.1060 C   0  0  0  0  0  0  0  0  0  0  0  0
    3.2280    0.4100   -0.2040 C   0  0  0  0  0  0  0  0  0  0  0  0
    4.3410    0.5690    0.7790 C   0  0  0  0  0  0  0  0  0  0  0  0
    3.1080    1.1520   -1.4290 N   0  0  0  0  0  0  0  0  0  0  0  0
    1.9140    1.0490   -2.2530 C   0  0  0  0  0  0  0  0  0  0  0  0
    0.7710    0.6670   -1.4060 N   0  0  0  0  0  0  0  0  0  0  0  0
   -0.2910    0.3170   -2.3420 C   0  0  0  0  0  0  0  0  0  0  0  0
   -1.5930    0.1430   -1.6430 C   0  0  0  0  0  0  0  0  0  0  0  0
   -1.7830    0.3440   -0.3620 C   0  0  0  0  0  0  0  0  0  0  0  0
   -3.0560    0.1690    0.3100 C   0  0  0  0  0  0  0  0  0  0  0  0
   -4.2150   -0.2300   -0.3130 C   0  0  0  0  0  0  0  0  0  0  0  0
   -5.3770   -0.3590    0.4530 C   0  0  0  0  0  0  0  0  0  0  0  0
   -5.4340   -0.1180    1.7620 N   0  0  0  0  0  0  0  0  0  0  0  0
   -4.2960    0.2720    2.3700 C   0  0  0  0  0  0  0  0  0  0  0  0
   -3.1310    0.4170    1.6800 C   0  0  0  0  0  0  0  0  0  0  0  0
    1.2110   -0.6430   -0.8770 C   0  0  0  0  0  0  0  0  0  0  0  0
  1  2  2  0
  2  3  2  0
  2  4  1  1
  2  7  1  0
  4  5  1  0
  5  6  2  0
  5 20  1  0
  6  7  1  0
  6  8  1  0
  8  9  1  0
  9 10  1  0
 10 11  1  0
 10 20  1  0
 11 12  1  0
 12 13  2  3
 13 14  1  0
 14 15  2  0
 14 19  1  0
 15 16  1  0
 16 17  2  0
 17 18  1  0
 18 19  2  0
M  CHG  1  17   1
M  END
