
     RDKit          3D

 20 21  0  0  0  0  0  0  0  0999 V2000
   -4.7360   -2.1040    1.6840 C   0  0  0  0  0  0  0  0  0  0  0  0
   -4.1020   -1.1080    1.0630 C   0  0  0  0  0  0  0  0  0  0  0  0
   -4.7780    0.2370    0.9220 C   0  0  0  0  0  0  0  0  0  0  0  0
   -3.8400    1.2540    1.2750 N   0  0  0  0  0  0  0  0  0  0  0  0
   -2.5390    1.1400    0.6910 C   0  0  0  0  0  0  0  0  0  0  0  0
   -2.0460   -0.1740    0.3200 C   0  0  0  0  0  0  0  0  0  0  0  0
   -0.7520   -0.4680   -0.2550 C   0  0  0  0  0  0  0  0  0  0  0  0
    0.2770    0.2610   -0.6000 C   0  0  0  0  0  0  0  0  0  0  0  0
    1.5180   -0.3250   -1.1870 C   0  0  0  0  0  0  0  0  0  0  0  0
    1.6890   -1.6190   -1.4200 C   0  0  0  0  0  0  0  0  0  0  0  0
    2.4670    0.6880   -1.4690 N   0  0  0  0  0  0  0  0  0  0  0  0
    3.7540    0.3930   -2.0740 C   0  0  0  0  0  0  0  0  0  0  0  0
    4.8850    0.2100   -1.1440 C   0  0  0  0  0  0  0  0  0  0  0  0
    4.7110   -1.0930    0.0810 S   0  0  0  0  0  0  0  0  0  0  0  0
    3.4590   -0.6760    1.3160 C   0  0  0  0  0  0  0  0  0  0  0  0
    1.9090    1.8970   -1.0980 C   0  0  0  0  0  0  0  0  0  0  0  0
    2.4710    3.0360   -1.2050 O   0  0  0  0  0  0  0  0  0  0  0  0
    0.5470    1.6880   -0.5520 C   0  0  0  0  0  0  0  0  0  0  0  0
   -0.1750    2.6120   -0.1450 O   0  0  0  0  0  0  0  0  0  0  0  0
   -2.8360   -1.2140    0.5210 N   0  0  0  0  0  0  0  0  0  0  0  0
  1  2  2  0
  2  3  1  0
  2 20  1  0
  3  4  1  0
  4  5  1  0
  5  6  1  0
  6  7  1  0
  6 20  2  0
  7  8  2  3
  8  9  1  0
  8 18  1  0
  9 10  2  0
  9 11  1  0
 11 12  1  0
 11 16  1  0
 12 13  1  0
 13 14  1  0
 14 15  1  0
 16 17  2  0
 16 18  1  0
 18 19  2  0
M  CHG  1   4   1
M  END
