
     RDKit          3D

 20 22  0  0  0  0  0  0  0  0999 V2000
   -3.2660    4.1150    1.2460 C   0  0  0  0  0  0  0  0  0  0  0  0
   -2.0970    3.2210    1.1350 N   0  0  0  0  0  0  0  0  0  0  0  0
   -2.1970    1.9940    0.4500 C   0  0  0  0  0  0  0  0  0  0  0  0
   -3.7400    1.4590   -0.2900 S   0  0  0  0  0  0  0  0  0  0  0  0
   -3.0910   -0.0940   -0.9090 C   0  0  0  0  0  0  0  0  0  0  0  0
   -1.8440   -0.0780   -0.5300 C   0  0  0  0  0  0  0  0  0  0  0  0
   -1.3140    0.9680    0.1760 C   0  0  0  0  0  0  0  0  0  0  0  0
    0.1120    1.1870    0.5600 C   0  0  0  0  0  0  0  0  0  0  0  0
    0.4530    2.4180    0.8440 O   0  0  0  0  0  0  0  0  0  0  0  0
    1.1470    0.3120    0.6720 N   0  0  0  0  0  0  0  0  0  0  0  0
    2.5340    0.8140    0.8400 C   0  0  0  0  0  0  0  0  0  0  0  0
    3.4930   -0.3590    0.6270 C   0  0  0  0  0  0  0  0  0  0  0  0
    2.9930   -1.1150   -0.5030 N   0  0  1  0  0  0  0  0  0  0  0  0
    4.0410   -1.8430   -1.1730 C   0  0  0  0  0  0  0  0  0  0  0  0
    1.9430   -1.9990    0.0040 C   0  0  0  0  0  0  0  0  0  0  0  0
    1.0550   -1.0870    0.8030 C   0  0  0  0  0  0  0  0  0  0  0  0
    0.2310   -1.6330    1.5970 O   0  0  0  0  0  0  0  0  0  0  0  0
   -1.2550   -1.3600   -1.1320 C   0  0  0  0  0  0  0  0  0  0  0  0
   -2.2450   -1.7610   -2.2290 C   0  0  0  0  0  0  0  0  0  0  0  0
   -3.5660   -1.2600   -1.6760 C   0  0  0  0  0  0  0  0  0  0  0  0
  1  2  1  0
  2  3  1  0
  3  4  1  0
  3  7  2  0
  4  5  1  0
  5  6  2  0
  5 20  1  0
  6  7  1  0
  6 18  1  0
  7  8  1  0
  8  9  2  0
  8 10  1  0
 10 11  1  0
 10 16  1  0
 11 12  1  0
 12 13  1  0
 13 14  1  1
 13 15  1  0
 15 16  1  0
 16 17  2  0
 18 19  1  0
 19 20  1  0
M  CHG  1  13   1
M  END
