
     RDKit          3D

 16 16  0  0  0  0  0  0  0  0999 V2000
   -0.4300   -1.4740   -2.6370 O   0  0  0  0  0  0  0  0  0  0  0  0
   -0.7710   -0.7330   -1.6850 C   0  0  0  0  0  0  0  0  0  0  0  0
   -2.0640   -0.4300   -1.3420 O   0  0  0  0  0  0  0  0  0  0  0  0
   -2.3190    0.0060   -0.0190 C   0  0  2  0  0  0  0  0  0  0  0  0
   -3.7100    0.4610    0.1140 C   0  0  0  0  0  0  0  0  0  0  0  0
   -4.4770    0.4220   -0.8840 O   0  0  0  0  0  0  0  0  0  0  0  0
   -4.2230    0.9350    1.2940 O   0  0  0  0  0  0  0  0  0  0  0  0
   -1.3400    1.0140    0.4270 C   0  0  0  0  0  0  0  0  0  0  0  0
   -1.6140    1.7660    1.3760 O   0  0  0  0  0  0  0  0  0  0  0  0
   -0.1320    1.0780   -0.2500 O   0  0  0  0  0  0  0  0  0  0  0  0
    0.3310   -0.1300   -0.8560 C   0  0  1  0  0  0  0  0  0  0  0  0
    0.6160   -1.0170    0.1260 O   0  0  0  0  0  0  0  0  0  0  0  0
    1.8820   -1.4890    0.2560 C   0  0  0  0  0  0  0  0  0  0  0  0
    2.9000   -0.4330    0.5710 C   0  0  0  0  0  0  0  0  0  0  0  0
    3.0250    0.5690   -0.3610 O   0  0  0  0  0  0  0  0  0  0  0  0
    3.9400    1.4040    0.0480 O   0  0  0  0  0  0  0  0  0  0  0  0
  1  2  2  0
  2  3  1  0
  2 11  1  0
  3  4  1  0
  4  5  1  6
  4  8  1  0
  5  6  2  0
  5  7  1  0
  8  9  2  0
  8 10  1  0
 10 11  1  0
 11 12  1  1
 12 13  1  0
 13 14  1  0
 14 15  1  0
 15 16  1  0
M  END
