
     RDKit          3D

 21 21  0  0  0  0  0  0  0  0999 V2000
    1.9090    2.4000   -1.6760 O   0  0  0  0  0  0  0  0  0  0  0  0
    1.9610    1.8990   -0.5050 C   0  0  0  0  0  0  0  0  0  0  0  0
    3.2040    1.3190   -0.1460 N   0  0  0  0  0  0  0  0  0  0  0  0
    3.4870    0.5530    1.0000 C   0  0  0  0  0  0  0  0  0  0  0  0
    4.5870    0.8400    1.6030 O   0  0  0  0  0  0  0  0  0  0  0  0
    2.6900   -0.5110    1.5740 C   0  0  0  0  0  0  0  0  0  0  0  0
    2.5270   -0.4650    2.8470 O   0  0  0  0  0  0  0  0  0  0  0  0
    2.0760   -1.5880    0.9070 N   0  0  0  0  0  0  0  0  0  0  0  0
    2.2560   -1.9590   -0.4830 C   0  0  0  0  0  0  0  0  0  0  0  0
    0.8820   -1.8290   -1.1590 C   0  0  0  0  0  0  0  0  0  0  0  0
    0.8520   -0.7260   -1.9570 O   0  0  0  0  0  0  0  0  0  0  0  0
   -0.1440    0.1070   -1.8460 O   0  0  0  0  0  0  0  0  0  0  0  0
   -1.0910    0.2410   -0.8490 C   0  0  0  0  0  0  0  0  0  0  0  0
   -2.3850    0.3020   -1.1660 C   0  0  0  0  0  0  0  0  0  0  0  0
   -3.4870    0.4440   -0.1820 C   0  0  0  0  0  0  0  0  0  0  0  0
   -4.1540    1.6340   -0.5050 O   0  0  0  0  0  0  0  0  0  0  0  0
   -5.1400    1.7930    0.3490 O   0  0  0  0  0  0  0  0  0  0  0  0
   -5.2130    0.7670    1.1810 O   0  0  0  0  0  0  0  0  0  0  0  0
   -0.7400    0.3210    0.5680 C   0  0  0  0  0  0  0  0  0  0  0  0
    0.1970    1.0910    1.0960 C   0  0  0  0  0  0  0  0  0  0  0  0
    0.9390    1.9000    0.3520 O   0  0  0  0  0  0  0  0  0  0  0  0
  1  2  2  0
  2  3  1  0
  2 21  1  0
  3  4  1  0
  4  5  2  0
  4  6  1  0
  6  7  2  0
  6  8  1  0
  8  9  1  0
  9 10  1  0
 10 11  1  0
 11 12  1  0
 12 13  1  0
 13 14  2  3
 13 19  1  0
 14 15  1  0
 15 16  1  0
 16 17  1  0
 17 18  1  0
 19 20  2  0
 20 21  1  0
M  END
