
     RDKit          3D

 16 17  0  0  0  0  0  0  0  0999 V2000
    6.4680    1.2950   -0.1410 O   0  0  0  0  0  0  0  0  0  0  0  0
    5.2470    1.4560   -0.5520 O   0  0  0  0  0  0  0  0  0  0  0  0
    4.3970    1.3100    0.4190 O   0  0  0  0  0  0  0  0  0  0  0  0
    3.4540    0.4690    0.0830 O   0  0  0  0  0  0  0  0  0  0  0  0
    2.2540    0.7190    0.7480 C   0  0  0  0  0  0  0  0  0  0  0  0
    1.2550   -0.3290    0.2630 C   0  0  0  0  0  0  0  0  0  0  0  0
    0.0140   -0.1600    0.8760 O   0  0  0  0  0  0  0  0  0  0  0  0
   -0.8400   -1.1260    0.4030 C   0  0  1  0  0  0  0  0  0  0  0  0
   -1.3890   -1.9300    1.3550 O   0  0  0  0  0  0  0  0  0  0  0  0
   -2.5840   -2.2640    1.0650 O   0  0  0  0  0  0  0  0  0  0  0  0
   -2.9570   -1.7810   -0.1570 C   0  0  0  0  0  0  0  0  0  0  0  0
   -2.0490   -0.5680   -0.2990 C   0  0  1  0  0  0  0  0  0  0  0  0
   -2.6440    0.6240    0.3870 C   0  0  0  0  0  0  0  0  0  0  0  0
   -3.2920    1.2610   -0.6960 O   0  0  0  0  0  0  0  0  0  0  0  0
   -2.3700    1.0900   -1.7120 C   0  0  0  0  0  0  0  0  0  0  0  0
   -1.8380   -0.1870   -1.5870 O   0  0  0  0  0  0  0  0  0  0  0  0
  1  2  1  0
  2  3  1  0
  3  4  1  0
  4  5  1  0
  5  6  1  0
  6  7  1  0
  8  7  1  1
  8  9  1  0
  8 12  1  0
  9 10  1  0
 10 11  1  0
 12 11  1  6
 12 13  1  0
 12 16  1  0
 13 14  1  0
 14 15  1  0
 15 16  1  0
M  END
