
     RDKit          3D

 28 31  0  0  0  0  0  0  0  0999 V2000
    6.5740   -0.8270    0.3250 C   0  0  0  0  0  0  0  0  0  0  0  0
    5.4130   -0.1000   -0.2560 C   0  0  0  0  0  0  0  0  0  0  0  0
    4.1890   -0.0260    0.3610 C   0  0  0  0  0  0  0  0  0  0  0  0
    3.1330    0.6340   -0.1650 N   0  0  0  0  0  0  0  0  0  0  0  0
    1.9180    0.6270    0.5900 C   0  0  1  0  0  0  0  0  0  0  0  0
    0.7140    1.1150   -0.1370 C   0  0  0  0  0  0  0  0  0  0  0  0
   -0.3220    0.6950    0.9200 C   0  0  1  0  0  0  0  0  0  0  0  0
   -1.5830    0.8310    0.5610 O   0  0  0  0  0  0  0  0  0  0  0  0
   -2.3360   -0.2900    0.2290 C   0  0  2  0  0  0  0  0  0  0  0  0
   -3.0610    0.1810   -0.9960 C   0  0  0  0  0  0  0  0  0  0  0  0
   -3.0180    1.4690   -1.4630 C   0  0  0  0  0  0  0  0  0  0  0  0
   -3.6910    1.8810   -2.5990 C   0  0  0  0  0  0  0  0  0  0  0  0
   -4.4440    0.9490   -3.2970 C   0  0  0  0  0  0  0  0  0  0  0  0
   -4.5120   -0.3610   -2.8570 C   0  0  0  0  0  0  0  0  0  0  0  0
   -3.8120   -0.7230   -1.7040 C   0  0  0  0  0  0  0  0  0  0  0  0
   -3.3780   -0.9460    1.4830 P   0  0  0  0  0  0  0  0  0  0  0  0
   -4.7800   -0.2640    1.8910 O   0  0  0  0  0  0  0  0  0  0  0  0
   -3.0180   -2.5320    2.0490 O   0  0  0  0  0  0  0  0  0  0  0  0
   -2.5490   -0.4460    2.6610 O   0  0  0  0  0  0  0  0  0  0  0  0
   -1.5380   -1.3300   -0.2500 O   0  0  0  0  0  0  0  0  0  0  0  0
   -0.5310   -1.7370    0.5690 C   0  0  0  0  0  0  0  0  0  0  0  0
    0.2010   -0.6460    1.2760 C   0  0  1  0  0  0  0  0  0  0  0  0
    1.5760   -0.6550    0.9730 O   0  0  0  0  0  0  0  0  0  0  0  0
    3.3160    1.2340   -1.3420 C   0  0  0  0  0  0  0  0  0  0  0  0
    2.3330    1.8490   -1.8340 O   0  0  0  0  0  0  0  0  0  0  0  0
    4.5130    1.1800   -1.9780 N   0  0  0  0  0  0  0  0  0  0  0  0
    5.5760    0.5300   -1.4730 C   0  0  0  0  0  0  0  0  0  0  0  0
    6.6890    0.4910   -2.0850 O   0  0  0  0  0  0  0  0  0  0  0  0
  1  2  1  0
  2  3  2  0
  2 27  1  0
  3  4  1  0
  5  4  1  6
  4 24  1  0
  5  6  1  0
  5 23  1  0
  7  6  1  6
  7  8  1  0
  7 22  1  0
  8  9  1  0
  9 10  1  0
  9 16  1  1
  9 20  1  0
 10 11  2  0
 10 15  1  0
 11 12  1  0
 12 13  2  0
 13 14  1  0
 14 15  2  0
 16 17  1  0
 16 18  1  0
 16 19  1  0
 20 21  1  0
 22 21  1  6
 22 23  1  0
 24 25  2  0
 24 26  1  0
 26 27  1  0
 27 28  2  0
M  END
