
     RDKit          3D

 16 17  0  0  0  0  0  0  0  0999 V2000
    1.9280    0.6970   -2.6040 O   0  0  0  0  0  0  0  0  0  0  0  0
    2.0940    0.7410   -1.3680 C   0  0  0  0  0  0  0  0  0  0  0  0
    3.2820    1.2760   -0.9000 O   0  0  0  0  0  0  0  0  0  0  0  0
    3.6080    1.2920    0.4830 C   0  0  0  0  0  0  0  0  0  0  0  0
    2.6690    0.2750    1.1380 C   0  0  0  0  0  0  0  0  0  0  0  0
    1.3640    0.6460    0.8490 O   0  0  0  0  0  0  0  0  0  0  0  0
    1.0670    0.2450   -0.4660 C   0  0  2  0  0  0  0  0  0  0  0  0
    0.9350   -1.2560   -0.4410 C   0  0  0  0  0  0  0  0  0  0  0  0
   -0.4080   -1.4600   -0.7850 O   0  0  0  0  0  0  0  0  0  0  0  0
   -0.9920   -0.3200   -0.2070 C   0  0  2  0  0  0  0  0  0  0  0  0
   -2.4460   -0.1940   -0.5830 C   0  0  0  0  0  0  0  0  0  0  0  0
   -3.1110   -1.3170   -0.1330 O   0  0  0  0  0  0  0  0  0  0  0  0
   -4.3810   -1.3290   -0.3970 O   0  0  0  0  0  0  0  0  0  0  0  0
   -4.8210   -0.0890   -0.4770 O   0  0  0  0  0  0  0  0  0  0  0  0
   -5.6520    0.1850    0.4940 O   0  0  0  0  0  0  0  0  0  0  0  0
   -0.2150    0.6830   -0.7930 O   0  0  0  0  0  0  0  0  0  0  0  0
  1  2  2  0
  2  3  1  0
  2  7  1  0
  3  4  1  0
  4  5  1  0
  5  6  1  0
  6  7  1  0
  7  8  1  1
  7 16  1  0
  8  9  1  0
  9 10  1  0
 10 11  1  6
 10 16  1  0
 11 12  1  0
 12 13  1  0
 13 14  1  0
 14 15  1  0
M  END
