
     RDKit          3D

 26 27  0  0  0  0  0  0  0  0999 V2000
   -5.8910   -3.2770   -0.0880 C   0  0  0  0  0  0  0  0  0  0  0  0
   -5.7280   -2.8570   -1.3910 O   0  0  0  0  0  0  0  0  0  0  0  0
   -5.5330   -1.4990   -1.5120 C   0  0  0  0  0  0  0  0  0  0  0  0
   -4.3300   -0.9770   -0.8530 C   0  0  0  0  0  0  0  0  0  0  0  0
   -3.4790   -1.6400   -0.2350 O   0  0  0  0  0  0  0  0  0  0  0  0
   -4.0910    0.4380   -0.9140 N   0  0  0  0  0  0  0  0  0  0  0  0
   -2.9650    1.0240   -0.3110 C   0  0  0  0  0  0  0  0  0  0  0  0
   -2.6090    2.2810   -0.2770 C   0  0  0  0  0  0  0  0  0  0  0  0
   -3.4160    3.2960   -0.9200 N   0  0  0  0  0  0  0  0  0  0  0  0
   -1.3930    2.6090    0.4330 C   0  0  0  0  0  0  0  0  0  0  0  0
   -0.4620    1.4560    0.5500 C   0  0  2  0  0  0  0  0  0  0  0  0
    0.2570    1.4540    1.7920 N   0  0  0  0  0  0  0  0  0  0  0  0
    1.4070    0.6300    1.9080 C   0  0  0  0  0  0  0  0  0  0  0  0
    1.9230    0.4070    3.0520 O   0  0  0  0  0  0  0  0  0  0  0  0
    2.0390    0.0100    0.7140 C   0  0  2  0  0  0  0  0  0  0  0  0
    1.5570   -1.4120    0.6150 C   0  0  0  0  0  0  0  0  0  0  0  0
    3.5320    0.0930    0.9140 C   0  0  0  0  0  0  0  0  0  0  0  0
    4.2910   -0.4880   -0.1990 C   0  0  0  0  0  0  0  0  0  0  0  0
    3.6580   -0.9820   -1.1670 O   0  0  0  0  0  0  0  0  0  0  0  0
    5.7080   -0.5320   -0.2570 N   0  0  0  0  0  0  0  0  0  0  0  0
    6.3660   -1.1250   -1.3960 C   0  0  0  0  0  0  0  0  0  0  0  0
    7.7900   -1.0930   -1.3090 N   0  0  0  0  0  0  0  0  0  0  0  0
    1.7190    0.7920   -0.4700 N   0  0  0  0  0  0  0  0  0  0  0  0
    0.3780    1.2220   -0.6210 C   0  0  0  0  0  0  0  0  0  0  0  0
   -0.0760    1.3980   -1.7790 O   0  0  0  0  0  0  0  0  0  0  0  0
   -1.7160    0.1000    0.5710 S   0  0  0  0  0  0  0  0  0  0  0  0
  1  2  1  0
  2  3  1  0
  3  4  1  0
  4  5  2  0
  4  6  1  0
  6  7  1  0
  7  8  2  0
  7 26  1  0
  8  9  1  0
  8 10  1  0
 11 10  1  6
 11 12  1  0
 11 24  1  0
 11 26  1  0
 12 13  1  0
 13 14  2  0
 13 15  1  0
 15 16  1  6
 15 17  1  0
 15 23  1  0
 17 18  1  0
 18 19  2  0
 18 20  1  0
 20 21  1  0
 21 22  1  0
 23 24  1  0
 24 25  2  0
M  CHG  1   9   1
M  END
