
     RDKit          3D

 26 28  0  0  0  0  0  0  0  0999 V2000
   -3.6590    1.6780    0.8980 C   0  0  0  0  0  0  0  0  0  0  0  0
   -4.2540    0.6020    0.0460 C   0  0  1  0  0  0  0  0  0  0  0  0
   -5.7220    0.5030    0.3750 C   0  0  0  0  0  0  0  0  0  0  0  0
   -6.0950    0.2740    1.7160 N   0  0  0  0  0  0  0  0  0  0  0  0
   -6.5980    0.6160   -0.4930 O   0  0  0  0  0  0  0  0  0  0  0  0
   -4.0840    0.8380   -1.3730 N   0  0  0  0  0  0  0  0  0  0  0  0
   -4.1280   -0.2770   -2.2540 C   0  0  0  0  0  0  0  0  0  0  0  0
   -4.5150   -0.1240   -3.4410 O   0  0  0  0  0  0  0  0  0  0  0  0
   -3.7060   -1.5980   -1.7180 C   0  0  0  0  0  0  0  0  0  0  0  0
   -4.2400   -1.7250   -0.4420 O   0  0  0  0  0  0  0  0  0  0  0  0
   -3.6890   -0.7590    0.3920 C   0  0  1  0  0  0  0  0  0  0  0  0
   -2.2240   -0.7740    0.3830 C   0  0  0  0  0  0  0  0  0  0  0  0
   -1.3350   -1.8000    0.4620 C   0  0  0  0  0  0  0  0  0  0  0  0
   -0.0160   -1.4910    0.4260 C   0  0  0  0  0  0  0  0  0  0  0  0
    0.3590   -0.2210    0.3180 C   0  0  0  0  0  0  0  0  0  0  0  0
    1.6640    0.3940    0.2570 N   0  0  0  0  0  0  0  0  0  0  0  0
    2.8670   -0.3040    0.3060 C   0  0  0  0  0  0  0  0  0  0  0  0
    2.8760   -1.5450    0.4090 O   0  0  0  0  0  0  0  0  0  0  0  0
    4.1520    0.3510    0.2420 N   0  0  0  0  0  0  0  0  0  0  0  0
    5.3270   -0.4590    0.3000 C   0  0  1  0  0  0  0  0  0  0  0  0
    6.1520   -0.1680   -0.9580 C   0  0  0  0  0  0  0  0  0  0  0  0
    6.6930    1.1430   -0.6560 N   0  0  0  0  0  0  0  0  0  0  0  0
    6.8720    1.1590    0.7660 C   0  0  0  0  0  0  0  0  0  0  0  0
    7.5040    2.0380    1.3850 O   0  0  0  0  0  0  0  0  0  0  0  0
    6.2140    0.0190    1.3320 N   0  0  0  0  0  0  0  0  0  0  0  0
   -1.1290    0.6610    0.2560 S   0  0  0  0  0  0  0  0  0  0  0  0
  2  1  1  1
  2  3  1  0
  2  6  1  0
  2 11  1  0
  3  4  1  0
  3  5  2  0
  6  7  1  0
  7  8  2  0
  7  9  1  0
  9 10  1  0
 10 11  1  0
 11 12  1  6
 12 13  2  0
 12 26  1  0
 13 14  1  0
 14 15  2  0
 15 16  1  0
 15 26  1  0
 16 17  1  0
 17 18  2  0
 17 19  1  0
 20 19  1  6
 20 21  1  0
 20 25  1  0
 21 22  1  0
 22 23  1  0
 23 24  2  0
 23 25  1  0
M  CHG  1  22   1
M  END
