
     RDKit          3D

 40 43  0  0  0  0  0  0  0  0999 V2000
   -8.0720   -0.7940    1.6720 C   0  0  0  0  0  0  0  0  0  0  0  0
   -7.1560   -0.4010    0.6780 C   0  0  0  0  0  0  0  0  0  0  0  0
   -5.9330   -0.6760    0.1870 C   0  0  0  0  0  0  0  0  0  0  0  0
   -5.0980   -0.4980   -0.5020 C   0  0  0  0  0  0  0  0  0  0  0  0
   -3.7350   -0.8020   -0.8280 N   0  0  0  0  0  0  0  0  0  0  0  0
   -3.0000   -0.4460   -1.9430 C   0  0  0  0  0  0  0  0  0  0  0  0
   -3.4890    0.2090   -2.8500 O   0  0  0  0  0  0  0  0  0  0  0  0
   -1.5650   -0.8690   -1.9730 C   0  0  0  0  0  0  0  0  0  0  0  0
   -1.3230   -1.7910   -0.8330 O   0  0  0  0  0  0  0  0  0  0  0  0
   -0.0000   -1.9520   -0.5070 C   0  0  0  0  0  0  0  0  0  0  0  0
    0.5220   -2.7060    0.5140 C   0  0  0  0  0  0  0  0  0  0  0  0
    1.8680   -2.8300    0.8790 C   0  0  0  0  0  0  0  0  0  0  0  0
    2.7530   -2.0800    0.0830 C   0  0  0  0  0  0  0  0  0  0  0  0
    4.1750   -1.9210    0.4100 N   0  0  0  0  0  0  0  0  0  0  0  0
    4.6010   -0.6050    0.6010 C   0  0  0  0  0  0  0  0  0  0  0  0
    3.6550    0.1630    1.1220 O   0  0  0  0  0  0  0  0  0  0  0  0
    5.7860    0.0280    0.3320 N   0  0  0  0  0  0  0  0  0  0  0  0
    5.9930    1.4020    0.6100 C   0  0  0  0  0  0  0  0  0  0  0  0
    7.1210    2.0420   -0.0790 C   0  0  0  0  0  0  0  0  0  0  0  0
    7.7560    1.4510   -1.1370 C   0  0  0  0  0  0  0  0  0  0  0  0
    8.7670    2.1140   -1.9040 C   0  0  0  0  0  0  0  0  0  0  0  0
    9.0210    3.3360   -1.4980 C   0  0  0  0  0  0  0  0  0  0  0  0
   10.0720    4.2430   -2.3990 C   0  0  0  0  0  0  0  0  0  0  0  0
   10.6930    4.7790   -2.9110 N   0  0  0  0  0  0  0  0  0  0  0  0
    8.4900    4.0100   -0.5070 C   0  0  0  0  0  0  0  0  0  0  0  0
    7.4990    3.3590    0.2510 C   0  0  0  0  0  0  0  0  0  0  0  0
    6.7380    4.1240    1.5880 Cl  0  0  0  0  0  0  0  0  0  0  0  0
    4.8730   -3.1260    0.5670 C   0  0  1  0  0  0  0  0  0  0  0  0
    6.3330   -3.3200    0.7890 C   0  0  0  0  0  0  0  0  0  0  0  0
    5.3510   -3.4150    1.9890 C   0  0  0  0  0  0  0  0  0  0  0  0
    2.2070   -1.3570   -0.9460 C   0  0  0  0  0  0  0  0  0  0  0  0
    0.9440   -1.2310   -1.3050 N   0  0  0  0  0  0  0  0  0  0  0  0
   -6.0550    0.9220   -1.3130 S   0  0  0  0  0  0  0  0  0  0  0  0
   -7.5020    0.7760   -0.2900 C   0  0  0  0  0  0  0  0  0  0  0  0
   -8.6660    1.4450   -0.2660 C   0  0  0  0  0  0  0  0  0  0  0  0
   -9.7570    2.0580   -0.2310 C   0  0  0  0  0  0  0  0  0  0  0  0
  -11.0620    2.7950   -0.1980 C   0  0  0  0  0  0  0  0  0  0  0  0
  -12.1500    1.8860   -0.2750 N   0  0  0  0  0  0  0  0  0  0  0  0
  -12.0770    1.1390    0.9710 C   0  0  0  0  0  0  0  0  0  0  0  0
  -11.9900    0.4250    2.1330 N   0  0  0  0  0  0  0  0  0  0  0  0
  1  2  1  0
  2  3  1  0
  2 34  2  0
  3  4  2  0
  4  5  1  0
  4 33  1  0
  5  6  1  0
  6  7  2  0
  6  8  1  0
  8  9  1  0
  9 10  1  0
 10 11  2  0
 10 32  1  0
 11 12  1  0
 12 13  2  0
 13 14  1  0
 13 31  1  0
 14 15  1  0
 28 14  1  1
 15 16  2  0
 15 17  1  0
 17 18  1  0
 18 19  1  0
 19 20  2  0
 19 26  1  0
 20 21  1  0
 21 22  2  0
 22 23  1  0
 22 25  1  0
 23 24  3  0
 25 26  2  0
 26 27  1  0
 28 29  1  0
 28 30  1  0
 29 30  1  0
 31 32  2  0
 33 34  1  0
 34 35  1  0
 35 36  3  0
 36 37  1  0
 37 38  1  0
 38 39  1  0
 39 40  3  0
M  CHG  1  38   1
M  END
