
     RDKit          3D

 41 44  0  0  0  0  0  0  0  0999 V2000
   10.2780    2.4090    0.1890 C   0  0  0  0  0  0  0  0  0  0  0  0
    9.0570    1.6600   -0.1880 N   0  0  0  0  0  0  0  0  0  0  0  0
    8.2730    2.0840   -1.2830 C   0  0  0  0  0  0  0  0  0  0  0  0
    8.7590    3.1620   -1.8500 O   0  0  0  0  0  0  0  0  0  0  0  0
    7.0880    1.4990   -1.8050 C   0  0  0  0  0  0  0  0  0  0  0  0
    6.3720    0.4720   -1.5310 C   0  0  0  0  0  0  0  0  0  0  0  0
    5.1240    0.2380   -2.4080 C   0  0  0  0  0  0  0  0  0  0  0  0
    3.8780    0.2240   -1.5520 C   0  0  0  0  0  0  0  0  0  0  0  0
    4.0800   -0.5540   -0.3440 N   0  0  0  0  0  0  0  0  0  0  0  0
    3.0890   -1.4630    0.0590 C   0  0  0  0  0  0  0  0  0  0  0  0
    3.2850   -2.1350    1.1200 O   0  0  0  0  0  0  0  0  0  0  0  0
    1.8320   -1.7050   -0.6540 C   0  0  0  0  0  0  0  0  0  0  0  0
    0.9870   -2.7930   -0.0990 C   0  0  0  0  0  0  0  0  0  0  0  0
    0.5180   -2.6060    1.2830 C   0  0  0  0  0  0  0  0  0  0  0  0
    1.1290   -2.9710    2.4320 N   0  0  0  0  0  0  0  0  0  0  0  0
    0.3620   -2.6380    3.4870 C   0  0  0  0  0  0  0  0  0  0  0  0
    0.6860   -2.8840    5.2390 S   0  0  0  0  0  0  0  0  0  0  0  0
    1.5660   -1.3840    5.8170 C   0  0  0  0  0  0  0  0  0  0  0  0
   -0.7610   -2.0440    2.9250 C   0  0  0  0  0  0  0  0  0  0  0  0
   -1.9120   -1.4980    3.5120 C   0  0  0  0  0  0  0  0  0  0  0  0
   -1.9470   -1.5510    4.8850 O   0  0  0  0  0  0  0  0  0  0  0  0
   -2.9140   -0.9570    2.7240 C   0  0  0  0  0  0  0  0  0  0  0  0
   -4.1290   -0.3520    3.3420 C   0  0  0  0  0  0  0  0  0  0  0  0
   -2.8000   -0.9460    1.3500 C   0  0  0  0  0  0  0  0  0  0  0  0
   -3.8320   -0.3770    0.4610 C   0  0  0  0  0  0  0  0  0  0  0  0
   -4.9980    0.0650    0.9040 N   0  0  0  0  0  0  0  0  0  0  0  0
   -5.9700    0.6110    0.1400 C   0  0  0  0  0  0  0  0  0  0  0  0
   -7.4310    1.1500    0.9160 Cl  0  0  0  0  0  0  0  0  0  0  0  0
   -5.7380    0.7260   -1.2360 C   0  0  0  0  0  0  0  0  0  0  0  0
   -6.7920    1.2130   -2.1030 C   0  0  2  0  0  0  0  0  0  0  0  0
   -6.4000    1.9430   -3.3550 C   0  0  0  0  0  0  0  0  0  0  0  0
   -7.9380    1.8450   -1.4960 N   0  0  0  0  0  0  0  0  0  0  0  0
   -8.9150    2.2780   -2.5280 C   0  0  0  0  0  0  0  0  0  0  0  0
   -4.5340    0.2710   -1.7130 C   0  0  0  0  0  0  0  0  0  0  0  0
   -4.1420    0.2570   -3.1270 C   0  0  0  0  0  0  0  0  0  0  0  0
   -4.8160   -0.7110   -3.8470 F   0  0  0  0  0  0  0  0  0  0  0  0
   -3.6110   -0.2720   -0.8310 N   0  0  0  0  0  0  0  0  0  0  0  0
   -1.6460   -1.4950    0.8120 C   0  0  0  0  0  0  0  0  0  0  0  0
   -0.6810   -2.0160    1.5880 N   0  0  0  0  0  0  0  0  0  0  0  0
    5.3000   -0.4150    0.4370 C   0  0  0  0  0  0  0  0  0  0  0  0
    6.5080   -0.5880   -0.5200 C   0  0  0  0  0  0  0  0  0  0  0  0
  1  2  1  0
  2  3  1  0
  3  4  2  0
  3  5  1  0
  5  6  2  3
  6  7  1  0
  6 41  1  0
  7  8  1  0
  8  9  1  0
  9 10  1  0
  9 40  1  0
 10 11  2  0
 10 12  1  0
 12 13  1  0
 13 14  1  0
 14 15  2  0
 14 39  1  0
 15 16  1  0
 16 17  1  0
 16 19  2  0
 17 18  1  0
 19 20  1  0
 19 39  1  0
 20 21  1  0
 20 22  2  0
 22 23  1  0
 22 24  1  0
 24 25  1  0
 24 38  2  0
 25 26  2  0
 25 37  1  0
 26 27  1  0
 27 28  1  0
 27 29  2  0
 29 30  1  0
 29 34  1  0
 30 31  1  6
 30 32  1  0
 32 33  1  0
 34 35  1  0
 34 37  2  0
 35 36  1  0
 38 39  1  0
 40 41  1  0
M  CHG  1  32   1
M  END
