
     RDKit          3D

 41 44  0  0  0  0  0  0  0  0999 V2000
   -6.9080   -2.3250    0.8820 C   0  0  0  0  0  0  0  0  0  0  0  0
   -6.0780   -1.3120    0.9370 C   0  0  0  0  0  0  0  0  0  0  0  0
   -4.7290   -1.5030    1.3310 N   0  0  0  0  0  0  0  0  0  0  0  0
   -4.2430   -0.7870    2.4510 C   0  0  0  0  0  0  0  0  0  0  0  0
   -5.0130   -0.2170    3.3570 C   0  0  0  0  0  0  0  0  0  0  0  0
   -4.4980    0.4620    4.4180 F   0  0  0  0  0  0  0  0  0  0  0  0
   -6.7480   -0.3580    3.1640 Cl  0  0  0  0  0  0  0  0  0  0  0  0
   -3.8950   -2.3880    0.5950 C   0  0  0  0  0  0  0  0  0  0  0  0
   -3.4420   -1.9800   -0.7520 C   0  0  0  0  0  0  0  0  0  0  0  0
   -2.6300   -0.8190   -0.8720 N   0  0  0  0  0  0  0  0  0  0  0  0
   -3.0490    0.5100   -1.0760 C   0  0  0  0  0  0  0  0  0  0  0  0
   -2.1770    1.4600   -1.1640 O   0  0  0  0  0  0  0  0  0  0  0  0
   -4.3800    0.9650   -1.2030 N   0  0  0  0  0  0  0  0  0  0  0  0
   -4.7040    2.3530   -1.4070 C   0  0  1  0  0  0  0  0  0  0  0  0
   -5.9650    2.5810   -2.1820 C   0  0  0  0  0  0  0  0  0  0  0  0
   -6.9960    2.7250   -1.0680 C   0  0  0  0  0  0  0  0  0  0  0  0
   -6.3220    3.4000    0.0040 N   0  0  0  0  0  0  0  0  0  0  0  0
   -4.9300    3.0750   -0.0830 C   0  0  0  0  0  0  0  0  0  0  0  0
   -1.2000   -1.0380   -0.7740 C   0  0  0  0  0  0  0  0  0  0  0  0
   -0.3900   -1.0890   -1.8960 C   0  0  0  0  0  0  0  0  0  0  0  0
    0.9800   -1.3180   -1.7740 C   0  0  0  0  0  0  0  0  0  0  0  0
    1.5770   -1.5010   -0.5590 C   0  0  0  0  0  0  0  0  0  0  0  0
    2.9840   -1.7490   -0.4090 N   0  0  0  0  0  0  0  0  0  0  0  0
    3.4170   -3.0380   -0.3230 C   0  0  0  0  0  0  0  0  0  0  0  0
    2.2930   -4.2450   -0.4270 S   0  0  0  0  0  0  0  0  0  0  0  0
    4.7100   -3.3550   -0.1580 N   0  0  0  0  0  0  0  0  0  0  0  0
    5.6540   -2.4120   -0.0670 C   0  0  0  0  0  0  0  0  0  0  0  0
    6.9840   -2.6880    0.1180 C   0  0  0  0  0  0  0  0  0  0  0  0
    7.9170   -1.7010    0.2240 C   0  0  0  0  0  0  0  0  0  0  0  0
    7.5390   -0.3420    0.1440 C   0  0  0  0  0  0  0  0  0  0  0  0
    8.5690    0.6630    0.2890 C   0  0  0  0  0  0  0  0  0  0  0  0
    9.7870    0.1900    0.4820 O   0  0  0  0  0  0  0  0  0  0  0  0
    8.4330    2.0420    0.2530 N   0  0  0  0  0  0  0  0  0  0  0  0
    9.7070    2.7940    0.4540 C   0  0  0  0  0  0  0  0  0  0  0  0
    7.2830    2.8260    0.0580 C   0  0  0  0  0  0  0  0  0  0  0  0
    6.2090   -0.1110   -0.0420 C   0  0  0  0  0  0  0  0  0  0  0  0
    5.2260   -1.0930   -0.1540 C   0  0  0  0  0  0  0  0  0  0  0  0
    3.8980   -0.7760   -0.3240 C   0  0  0  0  0  0  0  0  0  0  0  0
    3.5370    0.4280   -0.4010 O   0  0  0  0  0  0  0  0  0  0  0  0
    0.7630   -1.4490    0.5770 C   0  0  0  0  0  0  0  0  0  0  0  0
   -0.5840   -1.2220    0.4470 C   0  0  0  0  0  0  0  0  0  0  0  0
  1  2  2  0
  2  3  1  0
  3  4  1  0
  3  8  1  0
  4  5  2  3
  5  6  1  0
  5  7  1  0
  8  9  1  0
  9 10  1  0
 10 11  1  0
 10 19  1  0
 11 12  2  0
 11 13  1  0
 14 13  1  1
 14 15  1  0
 14 18  1  0
 15 16  1  0
 16 17  1  0
 17 18  1  0
 19 20  2  0
 19 41  1  0
 20 21  1  0
 21 22  2  0
 22 23  1  0
 22 40  1  0
 23 24  1  0
 23 38  1  0
 24 25  2  0
 24 26  1  0
 26 27  1  0
 27 28  2  0
 27 37  1  0
 28 29  1  0
 29 30  2  0
 30 31  1  0
 30 36  1  0
 31 32  2  0
 31 33  1  0
 33 34  1  0
 33 35  1  0
 36 37  2  0
 37 38  1  0
 38 39  2  0
 40 41  2  0
M  CHG  1  17   1
M  END
