
     RDKit          3D

 41 44  0  0  0  0  0  0  0  0999 V2000
   10.6770    1.3100    0.5720 N   0  0  0  0  0  0  0  0  0  0  0  0
   10.5070    0.8130   -0.4170 N   0  0  0  0  0  0  0  0  0  0  0  0
   10.3030    0.2170   -1.6420 C   0  0  0  0  0  0  0  0  0  0  0  0
    9.7640   -1.1500   -1.6320 C   0  0  0  0  0  0  0  0  0  0  0  0
    8.4770   -1.4510   -1.0170 C   0  0  1  0  0  0  0  0  0  0  0  0
    8.4560   -1.1380    0.4580 C   0  0  0  0  0  0  0  0  0  0  0  0
    7.2680   -1.8690    1.0660 C   0  0  0  0  0  0  0  0  0  0  0  0
    6.1190   -1.7900    0.0850 C   0  0  0  0  0  0  0  0  0  0  0  0
    6.3030   -0.5340   -0.6860 N   0  0  0  0  0  0  0  0  0  0  0  0
    5.5090    0.5490   -0.3600 C   0  0  0  0  0  0  0  0  0  0  0  0
    4.1810    0.3000    0.0560 C   0  0  0  0  0  0  0  0  0  0  0  0
    3.2960    1.2750    0.4360 C   0  0  0  0  0  0  0  0  0  0  0  0
    1.9630    1.0690    0.8310 N   0  0  0  0  0  0  0  0  0  0  0  0
    1.0640    0.1330    0.2670 C   0  0  0  0  0  0  0  0  0  0  0  0
    1.4730   -0.5660   -0.6970 O   0  0  0  0  0  0  0  0  0  0  0  0
   -0.2440    0.0080    0.7800 N   0  0  0  0  0  0  0  0  0  0  0  0
   -1.1860   -0.9120    0.1870 C   0  0  0  0  0  0  0  0  0  0  0  0
   -1.4740   -0.4540   -1.2720 C   0  0  0  0  0  0  0  0  0  0  0  0
   -2.0100    0.9900   -1.1770 C   0  0  0  0  0  0  0  0  0  0  0  0
   -3.2230    1.0580   -0.3980 N   0  0  0  0  0  0  0  0  0  0  0  0
   -4.4360    0.4340   -0.7870 C   0  0  0  0  0  0  0  0  0  0  0  0
   -4.5050   -0.2060   -1.8670 O   0  0  0  0  0  0  0  0  0  0  0  0
   -5.6060    0.5610    0.1130 C   0  0  0  0  0  0  0  0  0  0  0  0
   -5.4940    1.0930    1.2380 O   0  0  0  0  0  0  0  0  0  0  0  0
   -6.8780    0.0770   -0.2900 N   0  0  0  0  0  0  0  0  0  0  0  0
   -8.0610    0.1130    0.4830 C   0  0  0  0  0  0  0  0  0  0  0  0
   -8.1330    0.2980    1.8400 C   0  0  0  0  0  0  0  0  0  0  0  0
   -9.3500    0.2520    2.5300 C   0  0  0  0  0  0  0  0  0  0  0  0
   -9.3380    0.4550    4.0180 C   0  0  0  0  0  0  0  0  0  0  0  0
   -9.1720   -0.7660    4.6670 F   0  0  0  0  0  0  0  0  0  0  0  0
  -10.4830    0.0170    1.8210 C   0  0  0  0  0  0  0  0  0  0  0  0
  -10.4740   -0.1770    0.4270 C   0  0  0  0  0  0  0  0  0  0  0  0
   -9.2620   -0.1230   -0.1940 C   0  0  0  0  0  0  0  0  0  0  0  0
   -9.5920   -0.4160   -1.9420 S   0  0  0  0  0  0  0  0  0  0  0  0
  -11.2640   -1.1340   -1.6800 C   0  0  0  0  0  0  0  0  0  0  0  0
  -11.6380   -0.3960   -0.4320 C   0  0  0  0  0  0  0  0  0  0  0  0
    3.7620    2.5990    0.4000 C   0  0  0  0  0  0  0  0  0  0  0  0
    5.0380    2.9000    0.0050 C   0  0  0  0  0  0  0  0  0  0  0  0
    5.9040    1.8620   -0.3740 C   0  0  0  0  0  0  0  0  0  0  0  0
    7.5330    2.2560   -0.8870 Cl  0  0  0  0  0  0  0  0  0  0  0  0
    7.3170   -0.7010   -1.6990 C   0  0  0  0  0  0  0  0  0  0  0  0
  1  2  3  0
  2  3  1  0
  3  4  1  0
  5  4  1  6
  5  6  1  0
  5 41  1  0
  6  7  1  0
  7  8  1  0
  8  9  1  0
  9 10  1  0
  9 41  1  0
 10 11  2  0
 10 39  1  0
 11 12  1  0
 12 13  1  0
 12 37  2  0
 13 14  1  0
 14 15  2  0
 14 16  1  0
 16 17  1  0
 17 18  1  0
 18 19  1  0
 19 20  1  0
 20 21  1  0
 21 22  2  0
 21 23  1  0
 23 24  2  0
 23 25  1  0
 25 26  1  0
 26 27  2  0
 26 33  1  0
 27 28  1  0
 28 29  1  0
 28 31  2  0
 29 30  1  0
 31 32  1  0
 32 33  2  0
 32 36  1  0
 33 34  1  0
 34 35  1  0
 35 36  1  0
 37 38  1  0
 38 39  2  0
 39 40  1  0
M  CHG  1   2   1
M  END
