
     RDKit          3D

 41 45  0  0  0  0  0  0  0  0999 V2000
    7.2110   -3.3690    0.6540 C   0  0  0  0  0  0  0  0  0  0  0  0
    6.7420   -3.2600   -0.7100 N   0  0  0  0  0  0  0  0  0  0  0  0
    7.4670   -3.6770   -1.7980 C   0  0  0  0  0  0  0  0  0  0  0  0
    6.7320   -3.4040   -2.9170 C   0  0  0  0  0  0  0  0  0  0  0  0
    5.6000   -2.8410   -2.5040 N   0  0  0  0  0  0  0  0  0  0  0  0
    5.5980   -2.7480   -1.1310 C   0  0  0  0  0  0  0  0  0  0  0  0
    4.4780   -2.1510   -0.4380 C   0  0  0  0  0  0  0  0  0  0  0  0
    4.3390   -2.1360    0.9110 C   0  0  0  0  0  0  0  0  0  0  0  0
    3.2260   -1.5000    1.4980 C   0  0  0  0  0  0  0  0  0  0  0  0
    2.2690   -0.8910    0.7220 C   0  0  0  0  0  0  0  0  0  0  0  0
    2.3850   -0.8920   -0.6510 C   0  0  0  0  0  0  0  0  0  0  0  0
    1.4730   -0.3070   -1.4820 O   0  0  0  0  0  0  0  0  0  0  0  0
    0.3340    0.3530   -1.0670 C   0  0  0  0  0  0  0  0  0  0  0  0
   -0.8180   -0.3260   -1.0320 N   0  0  0  0  0  0  0  0  0  0  0  0
   -2.0190    0.2110   -0.6400 C   0  0  0  0  0  0  0  0  0  0  0  0
   -3.0820   -0.6080   -0.6670 O   0  0  0  0  0  0  0  0  0  0  0  0
   -3.6680   -1.4640    0.2190 C   0  0  0  0  0  0  0  0  0  0  0  0
   -3.7710   -2.8290   -0.1700 C   0  0  0  0  0  0  0  0  0  0  0  0
   -4.3410   -3.7720    0.6440 C   0  0  0  0  0  0  0  0  0  0  0  0
   -4.4190   -5.1610    0.1750 C   0  0  0  0  0  0  0  0  0  0  0  0
   -3.9150   -5.5140   -1.1240 N   0  0  0  0  0  0  0  0  0  0  0  0
   -4.9250   -6.0830    0.8820 N   0  0  0  0  0  0  0  0  0  0  0  0
   -4.8180   -3.3630    1.8620 C   0  0  0  0  0  0  0  0  0  0  0  0
   -4.7460   -2.0540    2.2920 C   0  0  0  0  0  0  0  0  0  0  0  0
   -4.1550   -1.1000    1.4390 C   0  0  0  0  0  0  0  0  0  0  0  0
   -4.0870    0.2040    1.8790 O   0  0  0  0  0  0  0  0  0  0  0  0
   -1.9880    1.5210   -0.2760 C   0  0  0  0  0  0  0  0  0  0  0  0
   -3.1570    2.1340    0.0660 F   0  0  0  0  0  0  0  0  0  0  0  0
   -0.8070    2.2750   -0.2940 C   0  0  0  0  0  0  0  0  0  0  0  0
   -0.8840    3.6330    0.1030 N   0  0  0  0  0  0  0  0  0  0  0  0
   -0.6990    4.0280    1.4830 C   0  0  0  0  0  0  0  0  0  0  0  0
   -1.6140    5.1720    1.8560 C   0  0  0  0  0  0  0  0  0  0  0  0
   -1.2510    6.3100    0.9060 C   0  0  0  0  0  0  0  0  0  0  0  0
   -1.7100    5.8970   -0.4610 C   0  0  1  0  0  0  0  0  0  0  0  0
   -1.2760    6.9520   -1.4450 C   0  0  0  0  0  0  0  0  0  0  0  0
   -0.5150    6.6840   -2.3930 O   0  0  0  0  0  0  0  0  0  0  0  0
   -1.7480    8.2390   -1.2690 O   0  0  0  0  0  0  0  0  0  0  0  0
   -1.1460    4.5960   -0.9180 C   0  0  0  0  0  0  0  0  0  0  0  0
    0.3570    1.6840   -0.6930 C   0  0  0  0  0  0  0  0  0  0  0  0
    1.5230    2.3490   -0.7340 F   0  0  0  0  0  0  0  0  0  0  0  0
    3.4800   -1.5190   -1.1890 C   0  0  0  0  0  0  0  0  0  0  0  0
  1  2  1  0
  2  3  1  0
  2  6  1  0
  3  4  2  0
  4  5  1  0
  5  6  2  0
  6  7  1  0
  7  8  2  0
  7 41  1  0
  8  9  1  0
  9 10  2  0
 10 11  1  0
 11 12  1  0
 11 41  2  0
 12 13  1  0
 13 14  2  0
 13 39  1  0
 14 15  1  0
 15 16  1  0
 15 27  2  0
 16 17  1  0
 17 18  2  0
 17 25  1  0
 18 19  1  0
 19 20  1  0
 19 23  2  0
 20 21  1  0
 20 22  2  0
 23 24  1  0
 24 25  2  0
 25 26  1  0
 27 28  1  0
 27 29  1  0
 29 30  1  0
 29 39  2  0
 30 31  1  0
 30 38  1  0
 31 32  1  0
 32 33  1  0
 33 34  1  0
 34 35  1  6
 34 38  1  0
 35 36  2  0
 35 37  1  0
 39 40  1  0
M  CHG  1  22   1
M  END
