
     RDKit          3D

 41 43  0  0  0  0  0  0  0  0999 V2000
    0.2120   -4.8000   -1.8530 C   0  0  0  0  0  0  0  0  0  0  0  0
   -0.4910   -4.2810   -0.8400 C   0  0  0  0  0  0  0  0  0  0  0  0
   -0.2810   -4.5980    0.4070 O   0  0  0  0  0  0  0  0  0  0  0  0
   -1.0600   -3.9900    1.2150 N   0  0  0  0  0  0  0  0  0  0  0  0
   -1.8760   -3.1920    0.5610 C   0  0  0  0  0  0  0  0  0  0  0  0
   -3.0380   -2.3700    0.9980 C   0  0  0  0  0  0  0  0  0  0  0  0
   -3.9360   -3.0410    1.7650 C   0  0  0  0  0  0  0  0  0  0  0  0
   -3.8720   -4.4010    2.1800 C   0  0  0  0  0  0  0  0  0  0  0  0
   -2.9190   -5.3160    1.8910 O   0  0  0  0  0  0  0  0  0  0  0  0
   -4.8910   -4.8350    2.9640 C   0  0  0  0  0  0  0  0  0  0  0  0
   -6.0080   -4.0090    3.3800 C   0  0  0  0  0  0  0  0  0  0  0  0
   -4.8580   -6.1520    3.3860 F   0  0  0  0  0  0  0  0  0  0  0  0
   -3.1590   -0.7170    0.8510 S   0  0  0  0  0  0  0  0  0  0  0  0
   -2.3230    0.6350    0.5420 C   0  0  0  0  0  0  0  0  0  0  0  0
   -0.9880    0.9460    0.2160 N   0  0  0  0  0  0  0  0  0  0  0  0
    0.1190    0.2210   -0.1950 C   0  0  0  0  0  0  0  0  0  0  0  0
   -0.0510   -1.0110   -0.3470 O   0  0  0  0  0  0  0  0  0  0  0  0
    1.4420    0.7360   -0.4730 N   0  0  0  0  0  0  0  0  0  0  0  0
    2.3800   -0.2390   -1.0360 C   0  0  0  0  0  0  0  0  0  0  0  0
    3.5540    0.5350   -1.6070 C   0  0  0  0  0  0  0  0  0  0  0  0
    4.2520    1.3110   -0.4880 C   0  0  2  0  0  0  0  0  0  0  0  0
    5.1740    0.4120    0.1850 N   0  0  0  0  0  0  0  0  0  0  0  0
    6.5150    0.5110   -0.3450 C   0  0  0  0  0  0  0  0  0  0  0  0
    7.3540   -0.7020   -0.0490 C   0  0  0  0  0  0  0  0  0  0  0  0
    3.2890    1.9230    0.4510 C   0  0  0  0  0  0  0  0  0  0  0  0
    1.8990    2.0500   -0.1870 C   0  0  0  0  0  0  0  0  0  0  0  0
   -3.0020    1.8700    0.8780 C   0  0  0  0  0  0  0  0  0  0  0  0
   -4.2940    1.7060    1.4440 C   0  0  0  0  0  0  0  0  0  0  0  0
   -5.3500    1.5600    1.9140 N   0  0  0  0  0  0  0  0  0  0  0  0
   -2.4350    3.1410    0.6280 C   0  0  0  0  0  0  0  0  0  0  0  0
   -1.6560    3.5210   -0.3180 N   0  0  0  0  0  0  0  0  0  0  0  0
   -1.0740    4.6990   -0.5810 C   0  0  0  0  0  0  0  0  0  0  0  0
   -0.2410    4.8630   -1.7000 N   0  0  0  0  0  0  0  0  0  0  0  0
    0.4290    6.1380   -1.9790 C   0  0  0  0  0  0  0  0  0  0  0  0
   -1.3490    5.7040    0.3150 C   0  0  0  0  0  0  0  0  0  0  0  0
   -2.1770    5.4210    1.3690 C   0  0  0  0  0  0  0  0  0  0  0  0
   -2.7680    4.2170    1.6300 C   0  0  0  0  0  0  0  0  0  0  0  0
   -3.8670    3.8620    2.8860 Cl  0  0  0  0  0  0  0  0  0  0  0  0
   -1.5170   -3.3670   -0.8420 C   0  0  0  0  0  0  0  0  0  0  0  0
   -2.1290   -2.7970   -1.8030 C   0  0  0  0  0  0  0  0  0  0  0  0
   -1.8690   -2.9860   -3.2290 C   0  0  0  0  0  0  0  0  0  0  0  0
  1  2  2  0
  2  3  1  0
  2 39  1  0
  3  4  1  0
  4  5  2  0
  5  6  1  0
  5 39  1  0
  6  7  2  3
  6 13  1  0
  7  8  1  0
  8  9  1  0
  8 10  2  3
 10 11  1  0
 10 12  1  0
 13 14  1  0
 14 15  1  0
 14 27  2  3
 15 16  1  0
 16 17  2  0
 16 18  1  0
 18 19  1  0
 18 26  1  0
 19 20  1  0
 20 21  1  0
 21 22  1  1
 21 25  1  0
 22 23  1  0
 23 24  1  0
 25 26  1  0
 27 28  1  0
 27 30  1  0
 28 29  3  0
 30 31  2  0
 30 37  1  0
 31 32  1  0
 32 33  1  0
 32 35  2  0
 33 34  1  0
 35 36  1  0
 36 37  2  0
 37 38  1  0
 39 40  2  3
 40 41  1  0
M  CHG  1  22   1
M  END
