
     RDKit          3D

 31 33  0  0  0  0  0  0  0  0999 V2000
    6.8080   -0.8970    3.5800 C   0  0  0  0  0  0  0  0  0  0  0  0
    6.1940   -0.8360    2.2850 O   0  0  0  0  0  0  0  0  0  0  0  0
    4.8730   -1.1600    2.0880 C   0  0  0  0  0  0  0  0  0  0  0  0
    4.1890   -1.5210    3.0830 O   0  0  0  0  0  0  0  0  0  0  0  0
    4.2110   -1.1110    0.7930 C   0  0  0  0  0  0  0  0  0  0  0  0
    4.8710   -0.7310   -0.3530 C   0  0  0  0  0  0  0  0  0  0  0  0
    4.2640   -0.6750   -1.5870 C   0  0  0  0  0  0  0  0  0  0  0  0
    5.0370   -0.2550   -2.7850 C   0  0  0  0  0  0  0  0  0  0  0  0
    2.9150   -1.0220   -1.6800 C   0  0  0  0  0  0  0  0  0  0  0  0
    2.2260   -1.4040   -0.5670 C   0  0  0  0  0  0  0  0  0  0  0  0
    0.8300   -1.7410   -0.6320 C   0  0  0  0  0  0  0  0  0  0  0  0
   -0.1650   -1.0470   -1.1260 C   0  0  0  0  0  0  0  0  0  0  0  0
    0.0910    0.2860   -1.7140 C   0  0  0  0  0  0  0  0  0  0  0  0
   -0.7110    1.3750   -1.1000 C   0  0  0  0  0  0  0  0  0  0  0  0
   -1.7950    1.9030   -1.7520 C   0  0  0  0  0  0  0  0  0  0  0  0
   -2.5620    2.9270   -1.1690 C   0  0  0  0  0  0  0  0  0  0  0  0
   -2.2200    3.4080    0.0790 C   0  0  0  0  0  0  0  0  0  0  0  0
   -3.0620    4.4990    0.6670 C   0  0  0  0  0  0  0  0  0  0  0  0
   -1.1420    2.8870    0.7320 C   0  0  0  0  0  0  0  0  0  0  0  0
   -0.7770    3.4050    2.0640 C   0  0  0  0  0  0  0  0  0  0  0  0
   -0.4060    1.8860    0.1430 C   0  0  0  0  0  0  0  0  0  0  0  0
   -1.5230   -1.5420   -1.1230 C   0  0  0  0  0  0  0  0  0  0  0  0
   -2.4740   -0.8360   -1.6140 O   0  0  0  0  0  0  0  0  0  0  0  0
   -1.9420   -2.7990   -0.6070 N   0  0  0  0  0  0  0  0  0  0  0  0
   -3.3530   -3.2040   -0.6560 C   0  0  0  0  0  0  0  0  0  0  0  0
   -4.2000   -2.2480    0.0920 C   0  0  0  0  0  0  0  0  0  0  0  0
   -5.1890   -1.5430   -0.4300 C   0  0  0  0  0  0  0  0  0  0  0  0
   -5.7950   -0.7030    0.6350 C   0  0  0  0  0  0  0  0  0  0  0  0
   -5.0340   -1.0170    1.8080 N   0  0  0  0  0  0  0  0  0  0  0  0
   -4.1410   -1.8830    1.5020 C   0  0  0  0  0  0  0  0  0  0  0  0
    2.8770   -1.4430    0.6420 C   0  0  0  0  0  0  0  0  0  0  0  0
  1  2  1  0
  2  3  1  0
  3  4  2  0
  3  5  1  0
  5  6  2  0
  5 31  1  0
  6  7  1  0
  7  8  1  0
  7  9  2  0
  9 10  1  0
 10 11  1  0
 10 31  2  0
 11 12  2  3
 12 13  1  0
 12 22  1  0
 13 14  1  0
 14 15  2  0
 14 21  1  0
 15 16  1  0
 16 17  2  0
 17 18  1  0
 17 19  1  0
 19 20  1  0
 19 21  2  0
 22 23  2  0
 22 24  1  0
 24 25  1  0
 25 26  1  0
 26 27  2  0
 26 30  1  0
 27 28  1  0
 28 29  1  0
 29 30  2  0
M  CHG  1  29   1
M  END
