
     RDKit          3D

 31 33  0  0  0  0  0  0  0  0999 V2000
   -4.9950   -0.4300   -1.9710 C   0  0  0  0  0  0  0  0  0  0  0  0
   -4.2870   -0.0460   -0.7700 N   0  0  2  0  0  0  0  0  0  0  0  0
   -3.7880   -1.2090   -0.1090 C   0  0  2  0  0  0  0  0  0  0  0  0
   -2.6260   -1.7730   -0.7700 C   0  0  0  0  0  0  0  0  0  0  0  0
   -2.1720   -1.2510   -1.8130 O   0  0  0  0  0  0  0  0  0  0  0  0
   -1.9880   -2.9210   -0.2450 N   0  0  0  0  0  0  0  0  0  0  0  0
   -0.8320   -3.5380   -0.8450 C   0  0  0  0  0  0  0  0  0  0  0  0
    0.3290   -2.6800   -0.5380 C   0  0  0  0  0  0  0  0  0  0  0  0
    0.9460   -1.8800   -1.4640 C   0  0  0  0  0  0  0  0  0  0  0  0
    2.0470   -1.0690   -1.1280 C   0  0  0  0  0  0  0  0  0  0  0  0
    2.5360   -1.0600    0.1560 C   0  0  0  0  0  0  0  0  0  0  0  0
    3.6350   -0.3110    0.6220 N   0  0  0  0  0  0  0  0  0  0  0  0
    4.5780    0.3920   -0.1450 C   0  0  0  0  0  0  0  0  0  0  0  0
    4.4930    0.3910   -1.3900 O   0  0  0  0  0  0  0  0  0  0  0  0
    5.7110    1.1620    0.4880 C   0  0  1  0  0  0  0  0  0  0  0  0
    6.4430    0.1940    1.3810 C   0  0  0  0  0  0  0  0  0  0  0  0
    7.7930   -0.2100    0.8390 C   0  0  0  0  0  0  0  0  0  0  0  0
    8.5240    0.9880    0.3920 C   0  0  0  0  0  0  0  0  0  0  0  0
    7.8640    1.9240   -0.2640 C   0  0  0  0  0  0  0  0  0  0  0  0
    8.6010    3.1550   -0.7260 C   0  0  0  0  0  0  0  0  0  0  0  0
    8.0480    4.3510   -0.1590 N   0  0  0  0  0  0  0  0  0  0  0  0
    6.5190    1.7450   -0.5050 O   0  0  0  0  0  0  0  0  0  0  0  0
    1.8660   -1.8930    1.0490 C   0  0  0  0  0  0  0  0  0  0  0  0
    0.8170   -2.6600    0.7100 N   0  0  0  0  0  0  0  0  0  0  0  0
   -4.8910   -2.2050    0.1770 C   0  0  0  0  0  0  0  0  0  0  0  0
   -6.0380   -1.4980    0.8680 C   0  0  0  0  0  0  0  0  0  0  0  0
   -5.6750   -0.0850    1.2500 C   0  0  0  0  0  0  0  0  0  0  0  0
   -5.1180    0.7350    0.1250 C   0  0  1  0  0  0  0  0  0  0  0  0
   -4.2270    1.7970    0.7600 C   0  0  0  0  0  0  0  0  0  0  0  0
   -6.1480    1.4480   -0.6970 C   0  0  0  0  0  0  0  0  0  0  0  0
   -7.0520    2.2760    0.0740 N   0  0  0  0  0  0  0  0  0  0  0  0
  2  1  1  6
  2  3  1  0
  2 28  1  0
  3  4  1  6
  3 25  1  0
  4  5  2  0
  4  6  1  0
  6  7  1  0
  7  8  1  0
  8  9  2  0
  8 24  1  0
  9 10  1  0
 10 11  2  0
 11 12  1  0
 11 23  1  0
 12 13  1  0
 13 14  2  0
 15 13  1  6
 15 16  1  0
 15 22  1  0
 16 17  1  0
 17 18  1  0
 18 19  2  0
 19 20  1  0
 19 22  1  0
 20 21  1  0
 23 24  2  0
 25 26  1  0
 26 27  1  0
 27 28  1  0
 28 29  1  1
 28 30  1  0
 30 31  1  0
M  CHG  2   2   1  31   1
M  END
