
     RDKit          3D

 31 33  0  0  0  0  0  0  0  0999 V2000
   -1.5860    3.0120   -0.7590 C   0  0  0  0  0  0  0  0  0  0  0  0
   -0.9680    2.3590    0.2950 O   0  0  0  0  0  0  0  0  0  0  0  0
   -0.2040    1.1840    0.2150 C   0  0  0  0  0  0  0  0  0  0  0  0
    1.1490    1.2380    0.1250 C   0  0  0  0  0  0  0  0  0  0  0  0
    2.0500    2.3300   -0.0340 C   0  0  0  0  0  0  0  0  0  0  0  0
    3.2290    2.4430    0.4930 C   0  0  0  0  0  0  0  0  0  0  0  0
    4.0860    1.7030    1.3630 C   0  0  0  0  0  0  0  0  0  0  0  0
    5.3550    2.1600    1.6230 C   0  0  0  0  0  0  0  0  0  0  0  0
    6.0640    1.2380    2.5420 C   0  0  0  0  0  0  0  0  0  0  0  0
    5.2890    0.0720    2.4970 O   0  0  0  0  0  0  0  0  0  0  0  0
    3.9840    0.5730    2.3010 C   0  0  0  0  0  0  0  0  0  0  0  0
    1.6850    3.4850   -0.9510 C   0  0  0  0  0  0  0  0  0  0  0  0
    1.3240    4.6500   -0.0820 C   0  0  0  0  0  0  0  0  0  0  0  0
    1.0080    5.7980   -0.9280 C   0  0  0  0  0  0  0  0  0  0  0  0
    0.7470    6.7430   -1.5990 N   0  0  0  0  0  0  0  0  0  0  0  0
    1.7750   -0.0260    0.0400 C   0  0  0  0  0  0  0  0  0  0  0  0
    1.0910   -1.1960    0.0540 C   0  0  0  0  0  0  0  0  0  0  0  0
   -0.2890   -1.1870    0.1530 C   0  0  0  0  0  0  0  0  0  0  0  0
   -0.9620    0.0010    0.2330 C   0  0  0  0  0  0  0  0  0  0  0  0
   -2.3930    0.1270    0.3350 C   0  0  0  0  0  0  0  0  0  0  0  0
   -3.2600   -0.9620    0.3650 N   0  0  1  0  0  0  0  0  0  0  0  0
   -4.2440   -0.6840    1.4580 C   0  0  0  0  0  0  0  0  0  0  0  0
   -4.0850   -1.1360   -0.8190 C   0  0  1  0  0  0  0  0  0  0  0  0
   -4.5550    0.1750   -1.4120 C   0  0  0  0  0  0  0  0  0  0  0  0
   -3.4660   -1.9470   -1.9040 C   0  0  0  0  0  0  0  0  0  0  0  0
   -0.9020   -2.4100    0.1640 O   0  0  0  0  0  0  0  0  0  0  0  0
   -0.2800   -3.5460   -0.3690 C   0  0  2  0  0  0  0  0  0  0  0  0
   -0.1200   -3.4710   -1.8790 C   0  0  0  0  0  0  0  0  0  0  0  0
   -1.0750   -4.7950   -0.0120 C   0  0  0  0  0  0  0  0  0  0  0  0
    1.0720   -3.6610    0.2770 C   0  0  0  0  0  0  0  0  0  0  0  0
    1.8880   -2.4560   -0.0610 C   0  0  0  0  0  0  0  0  0  0  0  0
  1  2  1  0
  2  3  1  0
  3  4  2  0
  3 19  1  0
  4  5  1  0
  4 16  1  0
  5  6  2  3
  5 12  1  0
  6  7  1  0
  7  8  2  0
  7 11  1  0
  8  9  1  0
  9 10  1  0
 10 11  1  0
 12 13  1  0
 13 14  1  0
 14 15  3  0
 16 17  2  0
 17 18  1  0
 17 31  1  0
 18 19  2  0
 18 26  1  0
 19 20  1  0
 20 21  1  0
 21 22  1  1
 21 23  1  0
 23 24  1  6
 23 25  1  0
 26 27  1  0
 27 28  1  6
 27 29  1  0
 27 30  1  0
 30 31  1  0
M  CHG  1  21   1
M  END
