
     RDKit          3D

 31 34  0  0  0  0  0  0  0  0999 V2000
   -0.8550   -4.3340   -0.9170 C   0  0  0  0  0  0  0  0  0  0  0  0
   -1.4270   -3.1660   -0.4330 O   0  0  0  0  0  0  0  0  0  0  0  0
   -1.7050   -2.3090   -1.4540 C   0  0  0  0  0  0  0  0  0  0  0  0
   -2.3390   -1.0080   -0.9790 C   0  0  0  0  0  0  0  0  0  0  0  0
   -1.6980    0.0910   -1.2360 C   0  0  0  0  0  0  0  0  0  0  0  0
   -0.3960    0.1640   -1.9510 C   0  0  0  0  0  0  0  0  0  0  0  0
   -0.2710    0.9540   -3.0760 C   0  0  0  0  0  0  0  0  0  0  0  0
    0.9470    1.0800   -3.7290 C   0  0  0  0  0  0  0  0  0  0  0  0
    2.0440    0.4050   -3.2440 C   0  0  0  0  0  0  0  0  0  0  0  0
    1.9460   -0.3910   -2.1210 C   0  0  0  0  0  0  0  0  0  0  0  0
    3.0670   -1.0520   -1.6650 O   0  0  0  0  0  0  0  0  0  0  0  0
    3.9860   -0.5140   -0.7780 C   0  0  0  0  0  0  0  0  0  0  0  0
    5.0830    0.1880   -1.2900 C   0  0  0  0  0  0  0  0  0  0  0  0
    6.0210    0.7390   -0.4380 C   0  0  0  0  0  0  0  0  0  0  0  0
    7.1710    1.4770   -1.0240 C   0  0  0  0  0  0  0  0  0  0  0  0
    5.9090    0.6180    0.9320 C   0  0  0  0  0  0  0  0  0  0  0  0
    4.8360   -0.0690    1.4600 C   0  0  0  0  0  0  0  0  0  0  0  0
    3.8930   -0.6240    0.5940 C   0  0  0  0  0  0  0  0  0  0  0  0
    4.9610   -0.0430    2.9300 C   0  0  0  0  0  0  0  0  0  0  0  0
    6.4160    0.3090    3.1350 C   0  0  0  0  0  0  0  0  0  0  0  0
    6.7360    1.0950    1.9850 N   0  0  0  0  0  0  0  0  0  0  0  0
    0.7050   -0.4840   -1.5040 C   0  0  0  0  0  0  0  0  0  0  0  0
   -3.5920   -1.0910   -0.2950 C   0  0  0  0  0  0  0  0  0  0  0  0
   -3.9890   -2.3620   -0.1750 O   0  0  0  0  0  0  0  0  0  0  0  0
   -4.4370   -0.1500    0.2440 N   0  0  0  0  0  0  0  0  0  0  0  0
   -5.6660   -0.6860    0.9020 C   0  0  0  0  0  0  0  0  0  0  0  0
   -5.7810   -0.0150    2.2420 C   0  0  0  0  0  0  0  0  0  0  0  0
   -6.0580    1.4500    1.9960 C   0  0  2  0  0  0  0  0  0  0  0  0
   -7.5520    1.7230    1.9740 C   0  0  0  0  0  0  0  0  0  0  0  0
   -5.4650    2.0120    0.7670 C   0  0  0  0  0  0  0  0  0  0  0  0
   -4.2540    1.2560    0.2210 C   0  0  0  0  0  0  0  0  0  0  0  0
  1  2  1  0
  2  3  1  0
  3  4  1  0
  4  5  2  3
  4 23  1  0
  5  6  1  0
  6  7  2  0
  6 22  1  0
  7  8  1  0
  8  9  2  0
  9 10  1  0
 10 11  1  0
 10 22  2  0
 11 12  1  0
 12 13  2  0
 12 18  1  0
 13 14  1  0
 14 15  1  0
 14 16  2  0
 16 17  1  0
 16 21  1  0
 17 18  2  0
 17 19  1  0
 19 20  1  0
 20 21  1  0
 23 24  2  0
 23 25  1  0
 25 26  1  0
 25 31  1  0
 26 27  1  0
 27 28  1  0
 28 29  1  6
 28 30  1  0
 30 31  1  0
M  CHG  1  21   1
M  END
