
     RDKit          3D

 31 34  0  0  0  0  0  0  0  0999 V2000
   -6.9590   -2.6140    0.6530 C   0  0  0  0  0  0  0  0  0  0  0  0
   -7.4190   -1.2420    0.5230 N   0  0  0  0  0  0  0  0  0  0  0  0
   -6.3860   -0.3660    0.0640 C   0  0  2  0  0  0  0  0  0  0  0  0
   -6.8160    0.5520   -1.0380 C   0  0  0  0  0  0  0  0  0  0  0  0
   -5.8090    1.6220   -1.2930 C   0  0  0  0  0  0  0  0  0  0  0  0
   -4.4040    1.1740   -0.9730 C   0  0  0  0  0  0  0  0  0  0  0  0
   -3.3660    2.0860   -1.0540 C   0  0  0  0  0  0  0  0  0  0  0  0
   -2.0590    1.7680   -0.7810 C   0  0  0  0  0  0  0  0  0  0  0  0
   -1.7870    0.4680   -0.4100 C   0  0  0  0  0  0  0  0  0  0  0  0
   -0.3820    0.0660   -0.1030 C   0  0  0  0  0  0  0  0  0  0  0  0
   -0.2550    0.0680    1.2900 O   0  0  0  0  0  0  0  0  0  0  0  0
   -0.4710    1.2700    1.8820 C   0  0  0  0  0  0  0  0  0  0  0  0
    0.5340    2.2730    1.5350 C   0  0  0  0  0  0  0  0  0  0  0  0
    0.1980    3.5300    1.5630 O   0  0  0  0  0  0  0  0  0  0  0  0
    1.8950    1.9550    1.1610 C   0  0  0  0  0  0  0  0  0  0  0  0
    2.4930    0.8040    1.1150 C   0  0  0  0  0  0  0  0  0  0  0  0
    3.8650    0.6550    0.7130 C   0  0  0  0  0  0  0  0  0  0  0  0
    4.3980   -0.6350    0.7020 C   0  0  0  0  0  0  0  0  0  0  0  0
    5.6930   -0.9090    0.3390 C   0  0  0  0  0  0  0  0  0  0  0  0
    6.2290   -2.1820    0.3250 C   0  0  0  0  0  0  0  0  0  0  0  0
    7.5340   -2.4300   -0.0440 C   0  0  0  0  0  0  0  0  0  0  0  0
    8.3300   -1.3640   -0.4120 C   0  0  0  0  0  0  0  0  0  0  0  0
    9.7500   -1.5740   -0.8210 C   0  0  0  0  0  0  0  0  0  0  0  0
    7.7980   -0.0860   -0.4000 C   0  0  0  0  0  0  0  0  0  0  0  0
    6.4760    0.1630   -0.0260 C   0  0  0  0  0  0  0  0  0  0  0  0
    5.9530    1.4310   -0.0160 C   0  0  0  0  0  0  0  0  0  0  0  0
    6.6410    2.4220   -0.3420 O   0  0  0  0  0  0  0  0  0  0  0  0
    4.6450    1.6560    0.3570 N   0  0  0  0  0  0  0  0  0  0  0  0
   -2.7930   -0.4680   -0.3190 C   0  0  0  0  0  0  0  0  0  0  0  0
   -4.0940   -0.1110   -0.6000 C   0  0  0  0  0  0  0  0  0  0  0  0
   -5.1900   -1.1490   -0.4950 C   0  0  0  0  0  0  0  0  0  0  0  0
  1  2  1  0
  3  2  1  6
  3  4  1  0
  3 31  1  0
  4  5  1  0
  5  6  1  0
  6  7  2  0
  6 30  1  0
  7  8  1  0
  8  9  2  0
  9 10  1  0
  9 29  1  0
 10 11  1  0
 11 12  1  0
 12 13  1  0
 13 14  2  0
 13 15  1  0
 15 16  2  3
 16 17  1  0
 17 18  2  0
 17 28  1  0
 18 19  1  0
 19 20  2  0
 19 25  1  0
 20 21  1  0
 21 22  2  0
 22 23  1  0
 22 24  1  0
 24 25  2  0
 25 26  1  0
 26 27  2  0
 26 28  1  0
 29 30  2  0
 30 31  1  0
M  CHG  1   2   1
M  END
