
     RDKit          3D

 31 34  0  0  0  0  0  0  0  0999 V2000
    1.6600    2.8070    3.1550 C   0  0  0  0  0  0  0  0  0  0  0  0
    0.9330    3.1740    1.8740 C   0  0  0  0  0  0  0  0  0  0  0  0
    0.6540    2.0050    1.1580 O   0  0  0  0  0  0  0  0  0  0  0  0
    1.5780    1.1300    0.6300 C   0  0  0  0  0  0  0  0  0  0  0  0
    2.9180    1.4850    0.8190 C   0  0  0  0  0  0  0  0  0  0  0  0
    3.9030    0.6730    0.3260 C   0  0  0  0  0  0  0  0  0  0  0  0
    5.2200    1.0050    0.5030 C   0  0  0  0  0  0  0  0  0  0  0  0
    6.1960    0.1910    0.0090 C   0  0  0  0  0  0  0  0  0  0  0  0
    5.8740   -0.9540   -0.6620 C   0  0  0  0  0  0  0  0  0  0  0  0
    6.6640   -1.9390   -1.2530 C   0  0  0  0  0  0  0  0  0  0  0  0
    5.8050   -2.8440   -1.7750 C   0  0  0  0  0  0  0  0  0  0  0  0
    4.5040   -2.4770   -1.5400 N   0  0  0  0  0  0  0  0  0  0  0  0
    3.3740   -3.2670   -1.9900 C   0  0  0  0  0  0  0  0  0  0  0  0
    4.5620   -1.3280   -0.8630 C   0  0  0  0  0  0  0  0  0  0  0  0
    3.5620   -0.4810   -0.3490 C   0  0  0  0  0  0  0  0  0  0  0  0
    2.2600   -0.8080   -0.5240 C   0  0  0  0  0  0  0  0  0  0  0  0
    1.1930    0.0010   -0.0310 C   0  0  0  0  0  0  0  0  0  0  0  0
   -0.1500   -0.4070   -0.2630 C   0  0  0  0  0  0  0  0  0  0  0  0
   -0.2210   -1.5650   -0.9210 O   0  0  0  0  0  0  0  0  0  0  0  0
   -1.4860    0.1520    0.0530 C   0  0  1  0  0  0  0  0  0  0  0  0
   -2.3900   -0.9080   -0.5520 C   0  0  0  0  0  0  0  0  0  0  0  0
   -3.8150   -0.8640   -0.6030 C   0  0  2  0  0  0  0  0  0  0  0  0
   -4.5220    0.1900   -1.3790 C   0  0  0  0  0  0  0  0  0  0  0  0
   -4.4770   -0.9930    0.6300 O   0  0  0  0  0  0  0  0  0  0  0  0
   -4.2150   -2.1960   -1.3060 C   0  0  0  0  0  0  0  0  0  0  0  0
   -5.6830   -2.3110   -1.4400 C   0  0  0  0  0  0  0  0  0  0  0  0
   -1.5940    0.1500    1.5510 C   0  0  0  0  0  0  0  0  0  0  0  0
   -2.2460    1.3250    2.1520 C   0  0  0  0  0  0  0  0  0  0  0  0
   -3.0350    2.1060    1.2600 N   0  0  0  0  0  0  0  0  0  0  0  0
   -2.3320    2.5250    0.1100 C   0  0  0  0  0  0  0  0  0  0  0  0
   -1.6760    1.4340   -0.6450 C   0  0  0  0  0  0  0  0  0  0  0  0
  1  2  1  0
  2  3  1  0
  3  4  1  0
  4  5  2  0
  4 17  1  0
  5  6  1  0
  6  7  2  0
  6 15  1  0
  7  8  1  0
  8  9  2  0
  9 10  1  0
  9 14  1  0
 10 11  2  0
 11 12  1  0
 12 13  1  0
 12 14  1  0
 14 15  2  0
 15 16  1  0
 16 17  2  0
 17 18  1  0
 18 19  2  0
 18 20  1  0
 20 21  1  6
 20 27  1  0
 20 31  1  0
 21 22  1  0
 22 23  1  6
 22 24  1  0
 22 25  1  0
 25 26  1  0
 27 28  1  0
 28 29  1  0
 29 30  1  0
 30 31  1  0
M  CHG  1  29   1
M  END
