
     RDKit          3D

 29 31  0  0  0  0  0  0  0  0999 V2000
   -0.9800   -2.7620   -2.3210 C   0  0  0  0  0  0  0  0  0  0  0  0
   -0.5280   -1.5840   -1.5390 C   0  0  0  0  0  0  0  0  0  0  0  0
    0.7760   -1.0930   -1.6720 C   0  0  0  0  0  0  0  0  0  0  0  0
    1.6220   -1.7230   -2.5360 F   0  0  0  0  0  0  0  0  0  0  0  0
    1.1610    0.0020   -0.9310 C   0  0  0  0  0  0  0  0  0  0  0  0
    2.4330    0.5110   -1.0350 O   0  0  0  0  0  0  0  0  0  0  0  0
    3.4670    0.1830   -0.1790 C   0  0  0  0  0  0  0  0  0  0  0  0
    3.2820   -0.7030    0.8550 C   0  0  0  0  0  0  0  0  0  0  0  0
    4.3120   -1.0400    1.7210 C   0  0  0  0  0  0  0  0  0  0  0  0
    5.5550   -0.4520    1.5160 C   0  0  0  0  0  0  0  0  0  0  0  0
    5.7880    0.4380    0.4990 C   0  0  0  0  0  0  0  0  0  0  0  0
    7.0800    1.0620    0.2700 C   0  0  0  0  0  0  0  0  0  0  0  0
    7.2190    1.9820   -0.8240 N   0  0  0  0  0  0  0  0  0  0  0  0
    8.0840    0.8020    1.0270 N   0  0  0  0  0  0  0  0  0  0  0  0
    4.7090    0.7370   -0.3410 C   0  0  0  0  0  0  0  0  0  0  0  0
    0.3100    0.6280   -0.0690 N   0  0  0  0  0  0  0  0  0  0  0  0
   -0.9460    0.1700    0.0710 C   0  0  0  0  0  0  0  0  0  0  0  0
   -1.8200    0.7760    0.9260 O   0  0  0  0  0  0  0  0  0  0  0  0
   -3.1150    0.4060    1.1550 C   0  0  0  0  0  0  0  0  0  0  0  0
   -3.4130   -0.4990    2.1410 C   0  0  0  0  0  0  0  0  0  0  0  0
   -4.7240   -0.8430    2.3380 C   0  0  0  0  0  0  0  0  0  0  0  0
   -5.7490   -0.3110    1.5810 C   0  0  0  0  0  0  0  0  0  0  0  0
   -5.4370    0.5980    0.5930 C   0  0  0  0  0  0  0  0  0  0  0  0
   -6.4690    1.2030   -0.2470 C   0  0  0  0  0  0  0  0  0  0  0  0
   -6.0860    2.1460   -1.2600 N   0  0  0  0  0  0  0  0  0  0  0  0
   -7.7170    0.9390   -0.1330 N   0  0  0  0  0  0  0  0  0  0  0  0
   -4.1150    0.9460    0.3930 C   0  0  0  0  0  0  0  0  0  0  0  0
   -1.3510   -0.9240   -0.6610 C   0  0  0  0  0  0  0  0  0  0  0  0
   -2.6110   -1.3630   -0.5030 F   0  0  0  0  0  0  0  0  0  0  0  0
  1  2  1  0
  2  3  2  0
  2 28  1  0
  3  4  1  0
  3  5  1  0
  5  6  1  0
  5 16  2  0
  6  7  1  0
  7  8  2  0
  7 15  1  0
  8  9  1  0
  9 10  2  0
 10 11  1  0
 11 12  1  0
 11 15  2  0
 12 13  1  0
 12 14  2  0
 16 17  1  0
 17 18  1  0
 17 28  2  0
 18 19  1  0
 19 20  2  0
 19 27  1  0
 20 21  1  0
 21 22  2  0
 22 23  1  0
 23 24  1  0
 23 27  2  0
 24 25  1  0
 24 26  2  0
 28 29  1  0
M  CHG  2  14   1  26   1
M  END
