
     RDKit          3D

 37 38  0  0  0  0  0  0  0  0999 V2000
   12.3500   -0.1500    1.7370 C   0  0  0  0  0  0  0  0  0  0  0  0
   11.0570   -0.4090    0.9550 C   0  0  0  0  0  0  0  0  0  0  0  0
   10.0240   -0.9920    1.8180 C   0  0  0  0  0  0  0  0  0  0  0  0
   10.4770   -2.5780    2.5280 Cl  0  0  0  0  0  0  0  0  0  0  0  0
    8.8470   -0.5380    2.1410 C   0  0  0  0  0  0  0  0  0  0  0  0
    7.9770   -1.3360    3.0470 C   0  0  0  0  0  0  0  0  0  0  0  0
    6.5300   -1.2740    2.8380 C   0  0  0  0  0  0  0  0  0  0  0  0
    6.1740   -0.6620    1.5040 C   0  0  0  0  0  0  0  0  0  0  0  0
    5.1370   -0.9380    0.7590 N   0  0  0  0  0  0  0  0  0  0  0  0
    4.8220   -0.4700   -0.2960 C   0  0  0  0  0  0  0  0  0  0  0  0
    3.7570   -0.5820   -1.3430 C   0  0  0  0  0  0  0  0  0  0  0  0
    2.6510    0.3740   -0.9560 C   0  0  1  0  0  0  0  0  0  0  0  0
    3.2620    1.7670   -0.9160 C   0  0  0  0  0  0  0  0  0  0  0  0
    2.2420    2.6630   -0.5960 O   0  0  0  0  0  0  0  0  0  0  0  0
    1.6050    0.4030   -1.9690 N   0  0  0  0  0  0  0  0  0  0  0  0
    0.2740    0.1410   -1.5630 C   0  0  0  0  0  0  0  0  0  0  0  0
    0.0310   -0.1070   -0.3630 O   0  0  0  0  0  0  0  0  0  0  0  0
   -0.8090    0.1670   -2.5730 C   0  0  0  0  0  0  0  0  0  0  0  0
   -2.1590   -0.1260   -1.9210 C   0  0  0  0  0  0  0  0  0  0  0  0
   -3.1960   -0.0830   -2.9840 C   0  0  0  0  0  0  0  0  0  0  0  0
   -2.8930    0.1490   -4.1920 O   0  0  0  0  0  0  0  0  0  0  0  0
   -4.5720   -0.3070   -2.6530 N   0  0  0  0  0  0  0  0  0  0  0  0
   -5.5810   -0.2650   -3.6850 C   0  0  0  0  0  0  0  0  0  0  0  0
   -6.9450   -0.5210   -3.1010 C   0  0  0  0  0  0  0  0  0  0  0  0
   -7.2700    0.5470   -2.0630 C   0  0  0  0  0  0  0  0  0  0  0  0
   -8.5850    0.2850   -1.5180 N   0  0  0  0  0  0  0  0  0  0  0  0
   -8.4740   -0.6910   -0.4730 C   0  0  0  0  0  0  0  0  0  0  0  0
   -8.9110   -0.0680    0.8190 C   0  0  0  0  0  0  0  0  0  0  0  0
   -9.2810    1.1190    0.8050 O   0  0  0  0  0  0  0  0  0  0  0  0
   -8.8940   -0.8310    2.0040 N   0  0  0  0  0  0  0  0  0  0  0  0
   -9.3070   -0.3060    3.2630 C   0  0  0  0  0  0  0  0  0  0  0  0
  -10.7370    0.0980    3.3560 C   0  0  0  0  0  0  0  0  0  0  0  0
  -11.1050    1.0710    2.4800 O   0  0  0  0  0  0  0  0  0  0  0  0
    6.2350    0.7580   -0.5640 S   0  0  0  0  0  0  0  0  0  0  0  0
    7.0090    0.3140    0.9680 C   0  0  0  0  0  0  0  0  0  0  0  0
    8.2470    0.7370    1.6930 C   0  0  2  0  0  0  0  0  0  0  0  0
    9.0260    1.5780    0.9760 O   0  0  0  0  0  0  0  0  0  0  0  0
  1  2  1  0
  2  3  1  0
  3  4  1  0
  3  5  2  3
  5  6  1  0
  5 36  1  0
  6  7  1  0
  7  8  1  0
  8  9  1  0
  8 35  2  0
  9 10  2  0
 10 11  1  0
 10 34  1  0
 12 11  1  6
 12 13  1  0
 12 15  1  0
 13 14  1  0
 15 16  1  0
 16 17  2  0
 16 18  1  0
 18 19  1  0
 19 20  1  0
 20 21  2  0
 20 22  1  0
 22 23  1  0
 23 24  1  0
 24 25  1  0
 25 26  1  0
 26 27  1  0
 27 28  1  0
 28 29  2  0
 28 30  1  0
 30 31  1  0
 31 32  1  0
 32 33  1  0
 34 35  1  0
 35 36  1  0
 36 37  1  6
M  CHG  1  26   1
M  END
