
     RDKit          3D

 37 38  0  0  0  0  0  0  0  0999 V2000
    6.7150    2.7710    0.4190 C   0  0  0  0  0  0  0  0  0  0  0  0
    6.2240    2.1050    1.6720 C   0  0  0  0  0  0  0  0  0  0  0  0
    4.8370    1.8740    1.5530 O   0  0  0  0  0  0  0  0  0  0  0  0
    4.3880    1.0740    0.5240 C   0  0  0  0  0  0  0  0  0  0  0  0
    5.2150    0.5140   -0.3580 N   0  0  0  0  0  0  0  0  0  0  0  0
    4.7680   -0.2680   -1.3630 C   0  0  0  0  0  0  0  0  0  0  0  0
    5.8560   -1.0320   -2.5580 S   0  0  0  0  0  0  0  0  0  0  0  0
    6.3360   -2.6630   -1.8860 C   0  0  0  0  0  0  0  0  0  0  0  0
    7.1750   -2.4720   -0.6550 C   0  0  0  0  0  0  0  0  0  0  0  0
    7.5100   -1.1940   -0.1500 N   0  0  0  0  0  0  0  0  0  0  0  0
    7.5720   -3.5220   -0.0840 O   0  0  0  0  0  0  0  0  0  0  0  0
    3.4220   -0.4680   -1.4450 C   0  0  0  0  0  0  0  0  0  0  0  0
    2.4880    0.0950   -0.5430 C   0  0  0  0  0  0  0  0  0  0  0  0
    1.0880   -0.1890   -0.7360 C   0  0  0  0  0  0  0  0  0  0  0  0
    0.7750   -0.9440   -1.7220 O   0  0  0  0  0  0  0  0  0  0  0  0
    0.0640    0.3040    0.0790 N   0  0  0  0  0  0  0  0  0  0  0  0
   -1.3420   -0.0480   -0.2040 C   0  0  2  0  0  0  0  0  0  0  0  0
   -2.1740    1.1980   -0.3550 C   0  0  0  0  0  0  0  0  0  0  0  0
   -1.6130    2.0020   -1.4970 C   0  0  0  0  0  0  0  0  0  0  0  0
   -0.6430    2.9430   -1.2920 C   0  0  0  0  0  0  0  0  0  0  0  0
   -0.1570    3.6550   -2.3520 C   0  0  0  0  0  0  0  0  0  0  0  0
   -0.6500    3.4180   -3.6220 C   0  0  0  0  0  0  0  0  0  0  0  0
   -0.1580    4.1370   -4.6890 O   0  0  0  0  0  0  0  0  0  0  0  0
   -1.6340    2.4650   -3.8340 C   0  0  0  0  0  0  0  0  0  0  0  0
   -2.1230    1.7460   -2.7550 C   0  0  0  0  0  0  0  0  0  0  0  0
   -1.8370   -0.8420    0.9470 C   0  0  0  0  0  0  0  0  0  0  0  0
   -1.1200   -1.1160    1.9440 O   0  0  0  0  0  0  0  0  0  0  0  0
   -3.1860   -1.3160    0.9250 N   0  0  0  0  0  0  0  0  0  0  0  0
   -3.6570   -2.0890    2.0540 C   0  0  0  0  0  0  0  0  0  0  0  0
   -5.1000   -2.5080    1.8730 C   0  0  1  0  0  0  0  0  0  0  0  0
   -5.4660   -3.3060    3.1030 C   0  0  0  0  0  0  0  0  0  0  0  0
   -5.8870   -1.3190    1.7190 N   0  0  0  0  0  0  0  0  0  0  0  0
   -7.0370   -1.4620    0.8920 C   0  0  0  0  0  0  0  0  0  0  0  0
   -8.2740   -1.6620    1.7730 C   0  0  0  0  0  0  0  0  0  0  0  0
   -9.7380   -1.8460    0.7770 Cl  0  0  0  0  0  0  0  0  0  0  0  0
    3.0030    0.8720    0.4440 C   0  0  0  0  0  0  0  0  0  0  0  0
    2.1760    1.4720    1.3820 O   0  0  0  0  0  0  0  0  0  0  0  0
  1  2  1  0
  2  3  1  0
  3  4  1  0
  4  5  2  0
  4 36  1  0
  5  6  1  0
  6  7  1  0
  6 12  2  0
  7  8  1  0
  8  9  1  0
  9 10  1  0
  9 11  2  0
 12 13  1  0
 13 14  1  0
 13 36  2  0
 14 15  2  0
 14 16  1  0
 16 17  1  0
 17 18  1  1
 17 26  1  0
 18 19  1  0
 19 20  2  0
 19 25  1  0
 20 21  1  0
 21 22  2  0
 22 23  1  0
 22 24  1  0
 24 25  2  0
 26 27  2  0
 26 28  1  0
 28 29  1  0
 29 30  1  0
 30 31  1  1
 30 32  1  0
 32 33  1  0
 33 34  1  0
 34 35  1  0
 36 37  1  0
M  CHG  1  32   1
M  END
