
     RDKit          3D

 37 40  0  0  0  0  0  0  0  0999 V2000
   -3.6540   -0.5870    1.7280 C   0  0  0  0  0  0  0  0  0  0  0  0
   -3.7110   -0.9040    0.2750 C   0  0  1  0  0  0  0  0  0  0  0  0
   -3.4690    0.3340   -0.5840 C   0  0  0  0  0  0  0  0  0  0  0  0
   -4.3620    1.4450   -0.1970 C   0  0  0  0  0  0  0  0  0  0  0  0
   -5.3100    1.2540    0.5430 O   0  0  0  0  0  0  0  0  0  0  0  0
   -4.1210    2.8050   -0.6980 C   0  0  1  0  0  0  0  0  0  0  0  0
   -3.9760    3.8370    0.3440 C   0  0  0  0  0  0  0  0  0  0  0  0
   -2.5350    3.5910    0.7450 C   0  0  0  0  0  0  0  0  0  0  0  0
   -1.9970    3.9360    1.9760 C   0  0  0  0  0  0  0  0  0  0  0  0
   -0.6710    3.6300    2.1030 C   0  0  0  0  0  0  0  0  0  0  0  0
    0.1150    3.0160    1.0880 C   0  0  0  0  0  0  0  0  0  0  0  0
   -0.4530    2.6880   -0.1250 C   0  0  0  0  0  0  0  0  0  0  0  0
   -1.8070    2.9920   -0.2700 C   0  0  0  0  0  0  0  0  0  0  0  0
   -2.7270    2.7970   -1.3910 C   0  0  0  0  0  0  0  0  0  0  0  0
    1.4950    2.8340    1.5910 C   0  0  0  0  0  0  0  0  0  0  0  0
    2.0070    3.8420    2.2720 O   0  0  0  0  0  0  0  0  0  0  0  0
    2.3800    1.8100    1.4990 O   0  0  0  0  0  0  0  0  0  0  0  0
    2.7320    0.9700    0.4500 C   0  0  1  0  0  0  0  0  0  0  0  0
    4.1960    1.1050    0.0970 C   0  0  0  0  0  0  0  0  0  0  0  0
    4.8630    1.9220    0.7750 O   0  0  0  0  0  0  0  0  0  0  0  0
    4.7820    0.3880   -0.9010 O   0  0  0  0  0  0  0  0  0  0  0  0
    6.1510    0.5520   -1.1930 C   0  0  0  0  0  0  0  0  0  0  0  0
    6.5110    1.9420   -1.6020 C   0  0  0  0  0  0  0  0  0  0  0  0
    5.8200    2.3420   -2.7490 O   0  0  0  0  0  0  0  0  0  0  0  0
    2.5530   -0.4660    0.9410 C   0  0  0  0  0  0  0  0  0  0  0  0
    1.9040   -1.3650   -0.0880 C   0  0  2  0  0  0  0  0  0  0  0  0
    2.9700   -2.3630   -0.5690 C   0  0  0  0  0  0  0  0  0  0  0  0
    1.4740   -0.7060   -1.2090 O   0  0  0  0  0  0  0  0  0  0  0  0
    0.8320   -2.1730    0.6010 C   0  0  2  0  0  0  0  0  0  0  0  0
    1.3430   -3.4000    1.2750 C   0  0  0  0  0  0  0  0  0  0  0  0
    0.5480   -4.5700    0.7160 C   0  0  0  0  0  0  0  0  0  0  0  0
   -0.7770   -3.8710    0.3810 C   0  0  0  0  0  0  0  0  0  0  0  0
   -0.3180   -2.5740   -0.2560 C   0  0  2  0  0  0  0  0  0  0  0  0
    0.1940   -2.9170   -1.5230 O   0  0  0  0  0  0  0  0  0  0  0  0
   -1.3970   -1.5500   -0.3420 C   0  0  0  0  0  0  0  0  0  0  0  0
   -2.7880   -2.0320   -0.1280 C   0  0  2  0  0  0  0  0  0  0  0  0
   -3.3130   -2.5750   -1.4510 C   0  0  0  0  0  0  0  0  0  0  0  0
  2  1  1  1
  2  3  1  0
  2 36  1  0
  3  4  1  0
  4  5  2  0
  4  6  1  0
  6  7  1  1
  6 14  1  0
  7  8  1  0
  8  9  2  0
  8 13  1  0
  9 10  1  0
 10 11  2  0
 11 12  1  0
 11 15  1  0
 12 13  2  0
 13 14  1  0
 15 16  2  0
 15 17  1  0
 17 18  1  0
 18 19  1  1
 18 25  1  0
 19 20  2  0
 19 21  1  0
 21 22  1  0
 22 23  1  0
 23 24  1  0
 25 26  1  0
 26 27  1  6
 26 28  1  0
 26 29  1  0
 29 30  1  6
 29 33  1  0
 30 31  1  0
 31 32  1  0
 32 33  1  0
 33 34  1  6
 33 35  1  0
 35 36  1  0
 36 37  1  6
M  END
