
     RDKit          3D

 37 38  0  0  0  0  0  0  0  0999 V2000
   10.2490    0.9840    0.0400 C   0  0  0  0  0  0  0  0  0  0  0  0
    8.9190    0.5210    0.1940 O   0  0  0  0  0  0  0  0  0  0  0  0
    8.6480   -0.8320   -0.0120 C   0  0  0  0  0  0  0  0  0  0  0  0
    9.6490   -1.7170   -0.3610 C   0  0  0  0  0  0  0  0  0  0  0  0
    9.3880   -3.0510   -0.5660 C   0  0  0  0  0  0  0  0  0  0  0  0
    8.1030   -3.4810   -0.4130 C   0  0  0  0  0  0  0  0  0  0  0  0
    7.7370   -5.1740   -0.6660 Cl  0  0  0  0  0  0  0  0  0  0  0  0
    7.1030   -2.5730   -0.0600 C   0  0  0  0  0  0  0  0  0  0  0  0
    7.3160   -1.2420    0.1530 C   0  0  0  0  0  0  0  0  0  0  0  0
    6.3700   -0.2680    0.5090 N   0  0  0  0  0  0  0  0  0  0  0  0
    4.9720   -0.4700    0.7200 C   0  0  0  0  0  0  0  0  0  0  0  0
    4.5510   -1.6340    0.5700 O   0  0  0  0  0  0  0  0  0  0  0  0
    4.1040    0.6470    1.0900 C   0  0  0  0  0  0  0  0  0  0  0  0
    2.8360    0.5420    1.2940 C   0  0  0  0  0  0  0  0  0  0  0  0
    1.9240   -0.5980    1.2340 C   0  0  0  0  0  0  0  0  0  0  0  0
    0.8690   -0.3720    0.2300 N   0  0  0  0  0  0  0  0  0  0  0  0
   -0.0570    0.7010    0.3170 C   0  0  0  0  0  0  0  0  0  0  0  0
    0.0670    1.4800    1.3310 O   0  0  0  0  0  0  0  0  0  0  0  0
   -1.0840    0.9550   -0.6280 N   0  0  0  0  0  0  0  0  0  0  0  0
   -1.9370    2.1120   -0.4290 C   0  0  0  0  0  0  0  0  0  0  0  0
   -1.2110    3.2710   -1.1420 C   0  0  0  0  0  0  0  0  0  0  0  0
   -1.9490    4.4920   -1.0240 N   0  0  0  0  0  0  0  0  0  0  0  0
   -1.3020    0.1210   -1.7640 C   0  0  0  0  0  0  0  0  0  0  0  0
   -2.2200   -0.9980   -1.4670 C   0  0  1  0  0  0  0  0  0  0  0  0
   -1.7710   -1.8770   -0.4800 O   0  0  0  0  0  0  0  0  0  0  0  0
   -3.5200   -0.4630   -0.9520 C   0  0  0  0  0  0  0  0  0  0  0  0
   -4.6810   -0.1550   -1.6320 C   0  0  0  0  0  0  0  0  0  0  0  0
   -5.7160    0.2820   -0.9040 C   0  0  0  0  0  0  0  0  0  0  0  0
   -5.6280    0.4170    0.4320 C   0  0  0  0  0  0  0  0  0  0  0  0
   -6.5490    0.8550    1.4550 C   0  0  1  0  0  0  0  0  0  0  0  0
   -7.3870    1.8520    0.9440 O   0  0  0  0  0  0  0  0  0  0  0  0
   -7.3370   -0.2150    2.1020 C   0  0  0  0  0  0  0  0  0  0  0  0
   -8.2060   -1.0650    1.2600 C   0  0  0  0  0  0  0  0  0  0  0  0
   -7.5300   -1.9450    0.2920 C   0  0  0  0  0  0  0  0  0  0  0  0
   -8.1660   -2.3520   -0.9200 N   0  0  0  0  0  0  0  0  0  0  0  0
   -6.3540   -2.3920    0.4830 O   0  0  0  0  0  0  0  0  0  0  0  0
   -3.9100   -0.1240    0.7410 S   0  0  0  0  0  0  0  0  0  0  0  0
  1  2  1  0
  2  3  1  0
  3  4  2  0
  3  9  1  0
  4  5  1  0
  5  6  2  0
  6  7  1  0
  6  8  1  0
  8  9  2  0
  9 10  1  0
 10 11  1  0
 11 12  2  0
 11 13  1  0
 13 14  2  3
 14 15  1  0
 15 16  1  0
 16 17  1  0
 17 18  2  0
 17 19  1  0
 19 20  1  0
 19 23  1  0
 20 21  1  0
 21 22  1  0
 23 24  1  0
 24 25  1  1
 24 26  1  0
 26 27  2  0
 26 37  1  0
 27 28  1  0
 28 29  2  0
 29 30  1  0
 29 37  1  0
 30 31  1  6
 30 32  1  0
 32 33  1  0
 33 34  1  0
 34 35  1  0
 34 36  2  0
M  CHG  1  22   1
M  END
