
     RDKit          3D

 37 38  0  0  0  0  0  0  0  0999 V2000
    9.1420    1.4920   -0.8910 C   0  0  0  0  0  0  0  0  0  0  0  0
    7.8920    1.4740   -0.0290 C   0  0  0  0  0  0  0  0  0  0  0  0
    7.1290    0.2270   -0.3070 C   0  0  0  0  0  0  0  0  0  0  0  0
    5.9710    0.0360    0.3800 O   0  0  0  0  0  0  0  0  0  0  0  0
    4.7730    0.7000    0.4220 C   0  0  0  0  0  0  0  0  0  0  0  0
    4.5050    1.8030   -0.3480 C   0  0  0  0  0  0  0  0  0  0  0  0
    3.2890    2.4240   -0.2560 C   0  0  0  0  0  0  0  0  0  0  0  0
    3.0360    3.5720   -1.0690 N   0  0  0  0  0  0  0  0  0  0  0  0
    2.3080    1.9480    0.6190 C   0  0  0  0  0  0  0  0  0  0  0  0
    2.5270    0.8510    1.4070 C   0  0  0  0  0  0  0  0  0  0  0  0
    1.5550    0.3660    2.3090 N   0  0  0  0  0  0  0  0  0  0  0  0
   -0.0740    0.1240    1.6670 S   0  0  1  0  0  0  0  0  0  0  0  0
   -0.9750   -0.2630    2.8110 O   0  0  0  0  0  0  0  0  0  0  0  0
   -0.4670    1.5020    1.2440 O   0  0  0  0  0  0  0  0  0  0  0  0
    0.0740   -1.0420    0.4260 C   0  0  0  0  0  0  0  0  0  0  0  0
   -1.0570   -1.5670   -0.3700 C   0  0  2  0  0  0  0  0  0  0  0  0
   -1.8710   -0.6480   -1.1750 C   0  0  0  0  0  0  0  0  0  0  0  0
   -2.6710    0.3820   -0.5230 C   0  0  0  0  0  0  0  0  0  0  0  0
   -3.0050    0.2190    0.6640 O   0  0  0  0  0  0  0  0  0  0  0  0
   -3.0880    1.5620   -1.1710 N   0  0  0  0  0  0  0  0  0  0  0  0
   -3.8560    2.6180   -0.6330 C   0  0  0  0  0  0  0  0  0  0  0  0
   -4.3410    2.6960    0.6460 C   0  0  0  0  0  0  0  0  0  0  0  0
   -5.0940    3.7880    1.0930 C   0  0  0  0  0  0  0  0  0  0  0  0
   -5.5640    3.8090    2.4170 O   0  0  0  0  0  0  0  0  0  0  0  0
   -5.3950    4.8540    0.2760 C   0  0  0  0  0  0  0  0  0  0  0  0
   -6.1550    5.9600    0.7240 N   0  0  0  0  0  0  0  0  0  0  0  0
   -4.9120    4.7870   -1.0110 C   0  0  0  0  0  0  0  0  0  0  0  0
   -4.1780    3.7200   -1.4440 C   0  0  0  0  0  0  0  0  0  0  0  0
   -3.6280    3.7660   -3.1090 Cl  0  0  0  0  0  0  0  0  0  0  0  0
   -1.8470   -2.5460    0.3700 N   0  0  0  0  0  0  0  0  0  0  0  0
   -2.1060   -3.7770   -0.2830 C   0  0  2  0  0  0  0  0  0  0  0  0
   -1.3400   -4.0750   -1.5210 C   0  0  0  0  0  0  0  0  0  0  0  0
   -3.5960   -3.9280   -0.6480 C   0  0  0  0  0  0  0  0  0  0  0  0
   -1.8700   -4.9240    0.7000 C   0  0  0  0  0  0  0  0  0  0  0  0
   -2.1090   -6.2790    0.1420 C   0  0  0  0  0  0  0  0  0  0  0  0
   -1.8490   -7.1800    1.2090 O   0  0  0  0  0  0  0  0  0  0  0  0
    3.7640    0.2570    1.2820 C   0  0  0  0  0  0  0  0  0  0  0  0
  1  2  1  0
  2  3  1  0
  3  4  1  0
  4  5  1  0
  5  6  2  0
  5 37  1  0
  6  7  1  0
  7  8  1  0
  7  9  2  0
  9 10  1  0
 10 11  1  0
 10 37  2  0
 11 12  1  0
 12 13  2  0
 12 14  2  0
 12 15  1  6
 16 15  1  1
 16 17  1  0
 16 30  1  0
 17 18  1  0
 18 19  2  0
 18 20  1  0
 20 21  1  0
 21 22  2  0
 21 28  1  0
 22 23  1  0
 23 24  1  0
 23 25  2  0
 25 26  1  0
 25 27  1  0
 27 28  2  0
 28 29  1  0
 30 31  1  0
 31 32  1  6
 31 33  1  0
 31 34  1  0
 34 35  1  0
 35 36  1  0
M  CHG  1  30   1
M  END
