
     RDKit          3D

 33 34  0  0  0  0  0  0  0  0999 V2000
    9.7940    0.8210   -1.8230 N   0  0  0  0  0  0  0  0  0  0  0  0
    9.8430    1.3990   -0.5020 C   0  0  0  0  0  0  0  0  0  0  0  0
    8.4730    1.3140    0.1460 C   0  0  0  0  0  0  0  0  0  0  0  0
    8.0980   -0.1520    0.2260 C   0  0  0  0  0  0  0  0  0  0  0  0
    6.7630   -0.2270    0.8590 C   0  0  0  0  0  0  0  0  0  0  0  0
    6.6660   -0.3340    2.2250 C   0  0  0  0  0  0  0  0  0  0  0  0
    5.4060   -0.4020    2.7820 C   0  0  0  0  0  0  0  0  0  0  0  0
    4.2630   -0.3620    1.9740 C   0  0  0  0  0  0  0  0  0  0  0  0
    4.3650   -0.2540    0.6070 C   0  0  0  0  0  0  0  0  0  0  0  0
    3.1640   -0.2070   -0.3060 C   0  0  2  0  0  0  0  0  0  0  0  0
    2.2310    0.6880    0.2760 N   0  0  0  0  0  0  0  0  0  0  0  0
    2.7410   -1.6000   -0.5840 C   0  0  0  0  0  0  0  0  0  0  0  0
    1.5800   -1.8280   -1.4590 C   0  0  0  0  0  0  0  0  0  0  0  0
    0.2420   -1.3050   -0.9680 C   0  0  0  0  0  0  0  0  0  0  0  0
   -0.1000   -1.9870    0.2970 C   0  0  0  0  0  0  0  0  0  0  0  0
   -1.3190   -1.6010    1.0360 C   0  0  0  0  0  0  0  0  0  0  0  0
   -2.6070   -1.7820    0.3720 C   0  0  0  0  0  0  0  0  0  0  0  0
   -2.9540   -1.0610   -0.8650 C   0  0  0  0  0  0  0  0  0  0  0  0
   -2.8830    0.3760   -0.7810 N   0  0  0  0  0  0  0  0  0  0  0  0
   -4.1720    1.0250   -0.6410 C   0  0  0  0  0  0  0  0  0  0  0  0
   -4.5280    1.3010    0.7800 C   0  0  0  0  0  0  0  0  0  0  0  0
   -5.8160    1.9510    0.8460 N   0  0  0  0  0  0  0  0  0  0  0  0
   -6.9560    1.2730    0.3530 C   0  0  0  0  0  0  0  0  0  0  0  0
   -6.9270    0.1230   -0.1400 O   0  0  0  0  0  0  0  0  0  0  0  0
   -8.2480    1.9100    0.4030 N   0  0  0  0  0  0  0  0  0  0  0  0
   -9.3890    1.2420   -0.0860 C   0  0  0  0  0  0  0  0  0  0  0  0
  -10.4570    0.9360    0.6120 C   0  0  0  0  0  0  0  0  0  0  0  0
  -11.4290    0.2490   -0.2320 C   0  0  0  0  0  0  0  0  0  0  0  0
  -12.5620   -0.1890    0.0970 O   0  0  0  0  0  0  0  0  0  0  0  0
  -10.8570    0.1580   -1.5260 N   0  0  0  0  0  0  0  0  0  0  0  0
   -9.5780    0.7780   -1.4430 C   0  0  0  0  0  0  0  0  0  0  0  0
   -8.7700    0.8850   -2.4220 O   0  0  0  0  0  0  0  0  0  0  0  0
    5.6310   -0.1880    0.0670 C   0  0  0  0  0  0  0  0  0  0  0  0
  1  2  1  0
  2  3  1  0
  3  4  1  0
  4  5  1  0
  5  6  2  0
  5 33  1  0
  6  7  1  0
  7  8  2  0
  8  9  1  0
  9 10  1  0
  9 33  2  0
 10 11  1  1
 10 12  1  0
 12 13  1  0
 13 14  1  0
 14 15  1  0
 15 16  1  0
 16 17  1  0
 17 18  1  0
 18 19  1  0
 19 20  1  0
 20 21  1  0
 21 22  1  0
 22 23  1  0
 23 24  2  0
 23 25  1  0
 25 26  1  0
 26 27  2  0
 26 31  1  0
 27 28  1  0
 28 29  2  0
 28 30  1  0
 30 31  1  0
 31 32  2  0
M  CHG  2  11   1  19   1
M  END
