
     RDKit          3D

 33 33  0  0  0  0  0  0  0  0999 V2000
   -9.9680    0.6330   -1.1680 C   0  0  0  0  0  0  0  0  0  0  0  0
   -9.1930    0.0120   -0.0380 C   0  0  1  0  0  0  0  0  0  0  0  0
   -9.7700    0.5510    1.2390 C   0  0  0  0  0  0  0  0  0  0  0  0
   -9.5170   -1.5090   -0.0650 C   0  0  0  0  0  0  0  0  0  0  0  0
   -7.7390    0.1300   -0.1470 C   0  0  0  0  0  0  0  0  0  0  0  0
   -6.9080   -0.3590    0.8750 C   0  0  0  0  0  0  0  0  0  0  0  0
   -5.5500   -0.2680    0.6890 C   0  0  0  0  0  0  0  0  0  0  0  0
   -4.9340    0.2450   -0.4000 C   0  0  0  0  0  0  0  0  0  0  0  0
   -3.5730    0.2980   -0.7230 N   0  0  0  0  0  0  0  0  0  0  0  0
   -2.4780    0.2170    0.2360 C   0  0  0  0  0  0  0  0  0  0  0  0
   -2.6040    0.1410    1.4130 O   0  0  0  0  0  0  0  0  0  0  0  0
   -1.1570    0.2180   -0.3730 N   0  0  0  0  0  0  0  0  0  0  0  0
    0.0180    0.0660    0.2000 O   0  0  0  0  0  0  0  0  0  0  0  0
    0.9900    0.8130   -0.5700 C   0  0  0  0  0  0  0  0  0  0  0  0
    1.9210   -0.0870   -1.1950 C   0  0  0  0  0  0  0  0  0  0  0  0
    2.7800   -1.1150   -0.4810 C   0  0  2  0  0  0  0  0  0  0  0  0
    1.7440   -1.9290    0.3070 C   0  0  0  0  0  0  0  0  0  0  0  0
    2.2100   -3.2720    0.7580 C   0  0  0  0  0  0  0  0  0  0  0  0
    1.2530   -3.9180    1.6410 N   0  0  0  0  0  0  0  0  0  0  0  0
    3.8140   -0.4810    0.3170 C   0  0  0  0  0  0  0  0  0  0  0  0
    4.4920    0.6130    0.0870 C   0  0  0  0  0  0  0  0  0  0  0  0
    4.6070    1.6580   -0.8840 C   0  0  0  0  0  0  0  0  0  0  0  0
    5.8250    1.4490   -1.7950 C   0  0  0  0  0  0  0  0  0  0  0  0
    7.0950    1.2840   -0.9770 C   0  0  1  0  0  0  0  0  0  0  0  0
    8.2310    1.0650   -1.8880 N   0  0  0  0  0  0  0  0  0  0  0  0
    7.4570    2.4700   -0.1430 C   0  0  0  0  0  0  0  0  0  0  0  0
    8.6620    2.1250    0.6340 C   0  0  0  0  0  0  0  0  0  0  0  0
    9.5640    1.2950    0.2550 N   0  0  0  0  0  0  0  0  0  0  0  0
    4.1200   -1.0050    1.6850 C   0  0  0  0  0  0  0  0  0  0  0  0
    5.1250   -0.2500    2.4500 N   0  0  0  0  0  0  0  0  0  0  0  0
    3.6890   -1.9500    2.2890 O   0  0  0  0  0  0  0  0  0  0  0  0
   -5.8080    0.7250   -1.4030 C   0  0  0  0  0  0  0  0  0  0  0  0
   -7.1660    0.6590   -1.2570 C   0  0  0  0  0  0  0  0  0  0  0  0
  2  1  1  6
  2  3  1  0
  2  4  1  0
  2  5  1  0
  5  6  2  0
  5 33  1  0
  6  7  1  0
  7  8  2  0
  8  9  1  0
  8 32  1  0
  9 10  1  0
 10 11  2  0
 10 12  1  0
 12 13  1  0
 13 14  1  0
 14 15  1  0
 16 15  1  1
 16 17  1  0
 16 20  1  0
 17 18  1  0
 18 19  1  0
 20 21  2  3
 20 29  1  0
 21 22  1  0
 22 23  1  0
 23 24  1  0
 24 25  1  6
 24 26  1  0
 26 27  1  0
 27 28  2  0
 29 30  1  0
 29 31  2  0
 32 33  2  0
M  CHG  2  19   1  25   1
M  END
