
     RDKit          3D

 34 37  0  0  0  0  0  0  0  0999 V2000
   -5.1790   -3.0900   -1.0520 C   0  0  0  0  0  0  0  0  0  0  0  0
   -5.0660   -2.2580   -0.0520 C   0  0  0  0  0  0  0  0  0  0  0  0
   -6.2960   -1.6460    0.5930 C   0  0  0  0  0  0  0  0  0  0  0  0
   -6.0220   -0.2060    0.5820 N   0  0  0  0  0  0  0  0  0  0  0  0
   -6.8000    0.8220    0.2120 C   0  0  0  0  0  0  0  0  0  0  0  0
   -6.0820    1.9740    0.3800 C   0  0  0  0  0  0  0  0  0  0  0  0
   -4.8830    1.6040    0.8510 N   0  0  0  0  0  0  0  0  0  0  0  0
   -4.8210    0.2660    0.9850 C   0  0  0  0  0  0  0  0  0  0  0  0
   -3.8020   -0.6820    1.4430 C   0  0  2  0  0  0  0  0  0  0  0  0
   -2.5000   -0.1090    1.5960 N   0  0  0  0  0  0  0  0  0  0  0  0
   -1.7710    0.4790    0.5280 C   0  0  0  0  0  0  0  0  0  0  0  0
   -2.3430    0.4920   -0.7260 C   0  0  0  0  0  0  0  0  0  0  0  0
   -1.6510    1.0650   -1.7920 C   0  0  0  0  0  0  0  0  0  0  0  0
   -2.2140    1.0790   -3.0420 F   0  0  0  0  0  0  0  0  0  0  0  0
   -0.4040    1.6280   -1.6470 C   0  0  0  0  0  0  0  0  0  0  0  0
    0.2620    2.1920   -2.7280 O   0  0  0  0  0  0  0  0  0  0  0  0
    1.5460    2.7480   -2.4790 C   0  0  0  0  0  0  0  0  0  0  0  0
    0.1470    1.5980   -0.3600 C   0  0  0  0  0  0  0  0  0  0  0  0
   -0.5240    1.0370    0.6940 C   0  0  0  0  0  0  0  0  0  0  0  0
    0.0560    1.0110    2.0480 C   0  0  0  0  0  0  0  0  0  0  0  0
    1.4540    1.4760    2.1720 C   0  0  0  0  0  0  0  0  0  0  0  0
    2.4450    0.6930    1.4050 C   0  0  0  0  0  0  0  0  0  0  0  0
    2.0400   -0.2720    0.7310 O   0  0  0  0  0  0  0  0  0  0  0  0
    3.8200    1.0030    1.4170 N   0  0  0  0  0  0  0  0  0  0  0  0
    4.8390    0.3160    0.7110 C   0  0  0  0  0  0  0  0  0  0  0  0
    6.1730    0.6150    1.0400 C   0  0  0  0  0  0  0  0  0  0  0  0
    7.2290    0.0130    0.4060 C   0  0  0  0  0  0  0  0  0  0  0  0
    7.0120   -0.9250   -0.5950 C   0  0  0  0  0  0  0  0  0  0  0  0
    8.1000   -1.5160   -1.2160 O   0  0  0  0  0  0  0  0  0  0  0  0
    7.9820   -2.4710   -2.2390 C   0  0  0  0  0  0  0  0  0  0  0  0
    5.7360   -1.1990   -0.8970 N   0  0  0  0  0  0  0  0  0  0  0  0
    4.6810   -0.6040   -0.2700 C   0  0  0  0  0  0  0  0  0  0  0  0
   -3.7900   -1.8530    0.5170 C   0  0  0  0  0  0  0  0  0  0  0  0
   -2.6940   -2.5040    0.2240 C   0  0  0  0  0  0  0  0  0  0  0  0
  1  2  2  0
  2  3  1  0
  2 33  1  0
  3  4  1  0
  4  5  1  0
  4  8  1  0
  5  6  2  0
  6  7  1  0
  7  8  2  0
  8  9  1  0
  9 10  1  6
  9 33  1  0
 10 11  1  0
 11 12  2  0
 11 19  1  0
 12 13  1  0
 13 14  1  0
 13 15  2  0
 15 16  1  0
 15 18  1  0
 16 17  1  0
 18 19  2  0
 19 20  1  0
 20 21  1  0
 21 22  1  0
 22 23  2  0
 22 24  1  0
 24 25  1  0
 25 26  2  0
 25 32  1  0
 26 27  1  0
 27 28  2  0
 28 29  1  0
 28 31  1  0
 29 30  1  0
 31 32  2  0
 33 34  2  0
M  END
