
     RDKit          3D

 34 37  0  0  0  0  0  0  0  0999 V2000
   -3.6990    3.0490    0.6040 C   0  0  0  0  0  0  0  0  0  0  0  0
   -4.0930    2.7030   -0.8260 C   0  0  0  0  0  0  0  0  0  0  0  0
   -4.7910    1.4140   -0.8410 C   0  0  0  0  0  0  0  0  0  0  0  0
   -4.0400    0.2370   -0.7050 C   0  0  0  0  0  0  0  0  0  0  0  0
   -2.6230    0.3290   -0.5790 N   0  0  0  0  0  0  0  0  0  0  0  0
   -1.7490   -0.7520   -0.3580 C   0  0  0  0  0  0  0  0  0  0  0  0
   -2.1670   -1.9090   -0.2430 O   0  0  0  0  0  0  0  0  0  0  0  0
   -0.2760   -0.4350   -0.2670 C   0  0  0  0  0  0  0  0  0  0  0  0
    0.5140   -1.6780    0.0540 C   0  0  0  0  0  0  0  0  0  0  0  0
    1.9060   -1.2990    0.0960 N   0  0  0  0  0  0  0  0  0  0  0  0
    2.4770   -0.8630    1.3070 C   0  0  0  0  0  0  0  0  0  0  0  0
    1.7690   -0.8140    2.3390 O   0  0  0  0  0  0  0  0  0  0  0  0
    3.9050   -0.4650    1.3640 C   0  0  0  0  0  0  0  0  0  0  0  0
    4.2630   -0.0310    2.7520 C   0  0  0  0  0  0  0  0  0  0  0  0
    4.1470    1.2410    3.2640 C   0  0  0  0  0  0  0  0  0  0  0  0
    4.5880    1.2090    4.5660 C   0  0  0  0  0  0  0  0  0  0  0  0
    4.6560    2.3520    5.5410 C   0  0  0  0  0  0  0  0  0  0  0  0
    4.9430   -0.0280    4.7920 O   0  0  0  0  0  0  0  0  0  0  0  0
    4.7670   -0.7840    3.7510 N   0  0  0  0  0  0  0  0  0  0  0  0
    2.7090   -1.3640   -1.0730 C   0  0  0  0  0  0  0  0  0  0  0  0
    3.1880   -2.5830   -1.5540 C   0  0  0  0  0  0  0  0  0  0  0  0
    3.9670   -2.6410   -2.6890 C   0  0  0  0  0  0  0  0  0  0  0  0
    4.4600   -3.9670   -3.1700 C   0  0  0  0  0  0  0  0  0  0  0  0
    4.3060   -1.5110   -3.3940 C   0  0  0  0  0  0  0  0  0  0  0  0
    3.8450   -0.2930   -2.9390 C   0  0  0  0  0  0  0  0  0  0  0  0
    4.1660    0.8290   -3.6140 F   0  0  0  0  0  0  0  0  0  0  0  0
    3.0710   -0.2420   -1.8100 C   0  0  0  0  0  0  0  0  0  0  0  0
   -4.7460   -0.9340   -0.7230 C   0  0  0  0  0  0  0  0  0  0  0  0
   -6.1450   -0.9510   -0.8720 C   0  0  0  0  0  0  0  0  0  0  0  0
   -6.8610    0.2130   -1.0030 C   0  0  0  0  0  0  0  0  0  0  0  0
   -8.1670    0.4850   -1.1550 N   0  0  0  0  0  0  0  0  0  0  0  0
   -8.3310    1.7970   -1.2350 N   0  0  0  0  0  0  0  0  0  0  0  0
   -7.1270    2.3830   -1.1350 C   0  0  0  0  0  0  0  0  0  0  0  0
   -6.1690    1.4000   -0.9860 C   0  0  0  0  0  0  0  0  0  0  0  0
  1  2  1  0
  2  3  1  0
  3  4  2  0
  3 34  1  0
  4  5  1  0
  4 28  1  0
  5  6  1  0
  6  7  2  0
  6  8  1  0
  8  9  1  0
  9 10  1  0
 10 11  1  0
 10 20  1  0
 11 12  2  0
 11 13  1  0
 13 14  1  0
 14 15  1  0
 14 19  2  0
 15 16  2  0
 16 17  1  0
 16 18  1  0
 18 19  1  0
 20 21  2  0
 20 27  1  0
 21 22  1  0
 22 23  1  0
 22 24  2  0
 24 25  1  0
 25 26  1  0
 25 27  2  0
 28 29  2  0
 29 30  1  0
 30 31  1  0
 30 34  2  0
 31 32  1  0
 32 33  2  0
 33 34  1  0
M  END
