
     RDKit          3D

 34 38  0  0  0  0  0  0  0  0999 V2000
    8.7620   -0.6980   -1.1470 C   0  0  0  0  0  0  0  0  0  0  0  0
    7.5000   -1.3480   -0.6810 C   0  0  0  0  0  0  0  0  0  0  0  0
    7.1750   -2.4670   -1.2200 N   0  0  0  0  0  0  0  0  0  0  0  0
    6.7310   -0.7130    0.3220 N   0  0  0  0  0  0  0  0  0  0  0  0
    6.0180   -1.4010    1.3790 C   0  0  0  0  0  0  0  0  0  0  0  0
    4.5320   -1.1280    1.3760 C   0  0  0  0  0  0  0  0  0  0  0  0
    4.2950    0.1030    0.5250 C   0  0  1  0  0  0  0  0  0  0  0  0
    3.0140    0.5830    0.5830 O   0  0  0  0  0  0  0  0  0  0  0  0
    2.1880    0.7190   -0.5050 C   0  0  0  0  0  0  0  0  0  0  0  0
    2.4870    0.4100   -1.8100 C   0  0  0  0  0  0  0  0  0  0  0  0
    1.5970    0.5760   -2.8580 C   0  0  0  0  0  0  0  0  0  0  0  0
    0.3370    1.0730   -2.6230 C   0  0  0  0  0  0  0  0  0  0  0  0
   -0.7380    1.3560   -3.3780 N   0  0  0  0  0  0  0  0  0  0  0  0
   -1.6960    1.8330   -2.5660 C   0  0  0  0  0  0  0  0  0  0  0  0
   -3.0410    2.2630   -3.0320 C   0  0  0  0  0  0  0  0  0  0  0  0
   -1.2750    1.8690   -1.3010 N   0  0  0  0  0  0  0  0  0  0  0  0
   -1.9910    2.3170   -0.1350 C   0  0  0  0  0  0  0  0  0  0  0  0
   -2.7910    1.2470    0.5050 C   0  0  0  0  0  0  0  0  0  0  0  0
   -2.2790    0.4610    1.5070 C   0  0  0  0  0  0  0  0  0  0  0  0
   -2.9990   -0.5440    2.1220 C   0  0  0  0  0  0  0  0  0  0  0  0
   -4.2930   -0.7700    1.7130 C   0  0  0  0  0  0  0  0  0  0  0  0
   -5.0840   -1.7580    2.2780 C   0  0  0  0  0  0  0  0  0  0  0  0
   -6.3730   -1.9540    1.8440 C   0  0  0  0  0  0  0  0  0  0  0  0
   -6.9530   -1.2040    0.8440 C   0  0  0  0  0  0  0  0  0  0  0  0
   -8.3220   -1.4390    0.4070 C   0  0  0  0  0  0  0  0  0  0  0  0
   -9.0360   -2.5020    1.0780 N   0  0  0  0  0  0  0  0  0  0  0  0
   -8.9120   -0.7850   -0.5040 N   0  0  0  0  0  0  0  0  0  0  0  0
   -6.1700   -0.2230    0.2810 C   0  0  0  0  0  0  0  0  0  0  0  0
   -4.8500   -0.0070    0.7120 C   0  0  0  0  0  0  0  0  0  0  0  0
   -4.1070    0.9990    0.1060 C   0  0  0  0  0  0  0  0  0  0  0  0
   -0.0090    1.3980   -1.3220 C   0  0  0  0  0  0  0  0  0  0  0  0
    0.8890    1.2260   -0.3000 C   0  0  0  0  0  0  0  0  0  0  0  0
    5.3330    1.1230    0.9950 C   0  0  0  0  0  0  0  0  0  0  0  0
    6.6410    0.7520    0.2990 C   0  0  0  0  0  0  0  0  0  0  0  0
  1  2  1  0
  2  3  2  0
  2  4  1  0
  4  5  1  0
  4 34  1  0
  5  6  1  0
  6  7  1  0
  7  8  1  1
  7 33  1  0
  8  9  1  0
  9 10  2  0
  9 32  1  0
 10 11  1  0
 11 12  2  0
 12 13  1  0
 12 31  1  0
 13 14  2  0
 14 15  1  0
 14 16  1  0
 16 17  1  0
 16 31  1  0
 17 18  1  0
 18 19  2  0
 18 30  1  0
 19 20  1  0
 20 21  2  0
 21 22  1  0
 21 29  1  0
 22 23  2  0
 23 24  1  0
 24 25  1  0
 24 28  2  0
 25 26  1  0
 25 27  2  0
 28 29  1  0
 29 30  2  0
 31 32  2  0
 33 34  1  0
M  CHG  1  27   1
M  END
