
     RDKit          3D

 35 37  0  0  0  0  0  0  0  0999 V2000
   -9.6580    1.9800    0.4580 C   0  0  0  0  0  0  0  0  0  0  0  0
   -8.3190    1.3910    0.8140 C   0  0  0  0  0  0  0  0  0  0  0  0
   -7.6170    0.4510    0.0910 C   0  0  0  0  0  0  0  0  0  0  0  0
   -6.4310    0.1950    0.7910 C   0  0  0  0  0  0  0  0  0  0  0  0
   -5.4790   -0.7530    0.2820 N   0  0  0  0  0  0  0  0  0  0  0  0
   -5.7060   -2.0240    0.0450 N   0  0  0  0  0  0  0  0  0  0  0  0
   -4.6180   -2.6110   -0.4260 C   0  0  0  0  0  0  0  0  0  0  0  0
   -4.4840   -4.0390   -0.7990 C   0  0  0  0  0  0  0  0  0  0  0  0
   -3.5620   -1.6440   -0.5150 C   0  0  0  0  0  0  0  0  0  0  0  0
   -2.2430   -1.9940   -1.0450 C   0  0  1  0  0  0  0  0  0  0  0  0
   -2.3440   -2.4070   -2.4540 N   0  0  0  0  0  0  0  0  0  0  0  0
   -1.0410   -1.2080   -0.7800 C   0  0  2  0  0  0  0  0  0  0  0  0
    0.1260   -2.2710   -0.9200 C   0  0  0  0  0  0  0  0  0  0  0  0
   -0.9830   -0.8370    0.5440 O   0  0  0  0  0  0  0  0  0  0  0  0
   -0.6470   -0.1010   -1.6700 C   0  0  0  0  0  0  0  0  0  0  0  0
    0.5710    0.3670   -1.6030 O   0  0  0  0  0  0  0  0  0  0  0  0
    1.3930    0.9560   -0.8350 C   0  0  0  0  0  0  0  0  0  0  0  0
    1.9190    0.4360    0.4630 C   0  0  0  0  0  0  0  0  0  0  0  0
    2.5890   -0.7370    0.4370 O   0  0  0  0  0  0  0  0  0  0  0  0
    3.7430   -0.8530   -0.2620 C   0  0  0  0  0  0  0  0  0  0  0  0
    4.8810   -0.0410    0.1710 C   0  0  0  0  0  0  0  0  0  0  0  0
    5.2200    1.1240   -0.4560 C   0  0  0  0  0  0  0  0  0  0  0  0
    6.3100    1.8860   -0.0400 C   0  0  0  0  0  0  0  0  0  0  0  0
    7.0670    1.4650    1.0230 C   0  0  0  0  0  0  0  0  0  0  0  0
    8.2440    2.2510    1.5000 C   0  0  0  0  0  0  0  0  0  0  0  0
    9.4920    1.8110    0.7490 C   0  0  0  0  0  0  0  0  0  0  0  0
    9.7780    0.3470    0.9610 C   0  0  0  0  0  0  0  0  0  0  0  0
   10.9310   -0.0180    0.2500 O   0  0  0  0  0  0  0  0  0  0  0  0
    6.7200    0.2890    1.6510 C   0  0  0  0  0  0  0  0  0  0  0  0
    5.6430   -0.4660    1.2410 C   0  0  0  0  0  0  0  0  0  0  0  0
   -4.1640   -0.5080   -0.0600 C   0  0  0  0  0  0  0  0  0  0  0  0
   -3.6230    0.8470    0.0630 C   0  0  0  0  0  0  0  0  0  0  0  0
   -6.4290    0.9290    1.8510 O   0  0  0  0  0  0  0  0  0  0  0  0
   -7.5360    1.6650    1.9150 C   0  0  0  0  0  0  0  0  0  0  0  0
   -7.9210    2.6400    2.9730 C   0  0  0  0  0  0  0  0  0  0  0  0
  1  2  1  0
  2  3  1  0
  2 34  2  0
  3  4  2  0
  4  5  1  0
  4 33  1  0
  5  6  1  0
  5 31  1  0
  6  7  2  0
  7  8  1  0
  7  9  1  0
  9 10  1  0
  9 31  2  0
 10 11  1  6
 10 12  1  0
 12 13  1  1
 12 14  1  0
 12 15  1  0
 15 16  1  0
 16 17  1  0
 17 18  1  0
 18 19  1  0
 19 20  1  0
 20 21  1  0
 21 22  2  0
 21 30  1  0
 22 23  1  0
 23 24  2  0
 24 25  1  0
 24 29  1  0
 25 26  1  0
 26 27  1  0
 27 28  1  0
 29 30  2  0
 31 32  1  0
 33 34  1  0
 34 35  1  0
M  CHG  1  11   1
M  END
