
     RDKit          3D

 35 36  0  0  0  0  0  0  0  0999 V2000
    6.3630    3.7680    0.5960 C   0  0  0  0  0  0  0  0  0  0  0  0
    6.2230    2.3070    0.4530 C   0  0  0  0  0  0  0  0  0  0  0  0
    4.8200    1.7960    0.8970 C   0  0  0  0  0  0  0  0  0  0  0  0
    4.8830    0.3440    0.5930 C   0  0  0  0  0  0  0  0  0  0  0  0
    3.6380   -0.5150    0.8960 C   0  0  2  0  0  0  0  0  0  0  0  0
    3.3740   -0.3670    2.4110 C   0  0  0  0  0  0  0  0  0  0  0  0
    3.9880   -1.8460    0.6270 N   0  0  0  0  0  0  0  0  0  0  0  0
    3.2350   -2.9810    0.5490 C   0  0  0  0  0  0  0  0  0  0  0  0
    2.3320   -3.2070   -0.6060 C   0  0  0  0  0  0  0  0  0  0  0  0
    1.1680   -2.4920   -0.7220 C   0  0  0  0  0  0  0  0  0  0  0  0
    0.1920   -2.9040   -1.6450 C   0  0  0  0  0  0  0  0  0  0  0  0
   -1.1060   -2.2840   -1.8030 C   0  0  0  0  0  0  0  0  0  0  0  0
   -1.9170   -2.7500   -2.7060 O   0  0  0  0  0  0  0  0  0  0  0  0
   -1.6260   -1.1970   -1.0730 N   0  0  0  0  0  0  0  0  0  0  0  0
   -2.9260   -0.5990   -1.3130 C   0  0  0  0  0  0  0  0  0  0  0  0
   -3.3400    0.3590   -0.2930 C   0  0  2  0  0  0  0  0  0  0  0  0
   -3.6040   -0.1440    0.9680 O   0  0  0  0  0  0  0  0  0  0  0  0
   -2.9330    0.0780    2.1290 C   0  0  0  0  0  0  0  0  0  0  0  0
   -1.9210    0.7810    2.2040 O   0  0  0  0  0  0  0  0  0  0  0  0
   -3.5180   -0.5980    3.4020 C   0  0  0  0  0  0  0  0  0  0  0  0
   -4.9830   -0.7760    3.1520 C   0  0  0  0  0  0  0  0  0  0  0  0
   -4.1510    1.5120   -0.6360 C   0  0  0  0  0  0  0  0  0  0  0  0
   -4.2460    2.5320    0.1910 C   0  0  0  0  0  0  0  0  0  0  0  0
   -4.9220    3.7380   -0.1300 C   0  0  0  0  0  0  0  0  0  0  0  0
   -4.8770    4.9120    0.7450 C   0  0  0  0  0  0  0  0  0  0  0  0
   -5.4930    3.7920   -1.3730 C   0  0  0  0  0  0  0  0  0  0  0  0
   -5.4150    2.7240   -2.2940 C   0  0  0  0  0  0  0  0  0  0  0  0
   -5.9360    2.8880   -3.5820 C   0  0  0  0  0  0  0  0  0  0  0  0
   -6.3990    3.0230   -4.7560 N   0  0  0  0  0  0  0  0  0  0  0  0
   -4.7350    1.5690   -1.9140 C   0  0  0  0  0  0  0  0  0  0  0  0
    0.4160   -4.0340   -2.4490 C   0  0  0  0  0  0  0  0  0  0  0  0
   -0.4870   -4.4850   -3.3800 O   0  0  0  0  0  0  0  0  0  0  0  0
    1.6450   -4.7330   -2.2780 C   0  0  0  0  0  0  0  0  0  0  0  0
    2.5450   -4.3270   -1.3980 C   0  0  0  0  0  0  0  0  0  0  0  0
    3.7950   -4.9770   -1.1570 O   0  0  0  0  0  0  0  0  0  0  0  0
  1  2  1  0
  2  3  1  0
  3  4  1  0
  4  5  1  0
  5  6  1  1
  5  7  1  0
  7  8  1  0
  8  9  1  0
  9 10  2  0
  9 34  1  0
 10 11  1  0
 11 12  1  0
 11 31  2  0
 12 13  2  0
 12 14  1  0
 14 15  1  0
 16 15  1  6
 16 17  1  0
 16 22  1  0
 17 18  1  0
 18 19  2  0
 18 20  1  0
 20 21  1  0
 22 23  2  0
 22 30  1  0
 23 24  1  0
 24 25  1  0
 24 26  2  0
 26 27  1  0
 27 28  1  0
 27 30  2  0
 28 29  3  0
 31 32  1  0
 31 33  1  0
 33 34  2  0
 34 35  1  0
M  CHG  1   7   1
M  END
