
     RDKit          3D

 20 21  0  0  0  0  0  0  0  0999 V2000
    4.0790    1.7230    0.3530 C   0  0  0  0  0  0  0  0  0  0  0  0
    3.0190    0.9200    0.6120 O   0  0  0  0  0  0  0  0  0  0  0  0
    2.6090    0.0360   -0.3670 C   0  0  1  0  0  0  0  0  0  0  0  0
    1.8160   -1.0730    0.1710 C   0  0  0  0  0  0  0  0  0  0  0  0
    0.3770   -0.9720   -0.3260 C   0  0  1  0  0  0  0  0  0  0  0  0
    0.0170   -2.0750   -1.2110 C   0  0  0  0  0  0  0  0  0  0  0  0
   -0.1070   -3.3610   -0.5730 N   0  0  0  0  0  0  0  0  0  0  0  0
   -0.1890   -1.9920   -2.4330 O   0  0  0  0  0  0  0  0  0  0  0  0
   -0.6260   -0.9030    0.7970 C   0  0  0  0  0  0  0  0  0  0  0  0
   -1.7040   -0.0870    0.2620 N   0  0  0  0  0  0  0  0  0  0  0  0
   -3.0490   -0.0790    0.6940 C   0  0  0  0  0  0  0  0  0  0  0  0
   -3.5900   -1.0130    1.3480 O   0  0  0  0  0  0  0  0  0  0  0  0
   -3.8850    1.0990    0.3800 C   0  0  0  0  0  0  0  0  0  0  0  0
   -2.8500    2.1580    0.3430 O   0  0  0  0  0  0  0  0  0  0  0  0
   -3.3310    3.0100    1.3290 O   0  0  0  0  0  0  0  0  0  0  0  0
   -1.1600    0.5810   -0.8910 C   0  0  0  0  0  0  0  0  0  0  0  0
   -1.7070    1.2460   -1.7910 O   0  0  0  0  0  0  0  0  0  0  0  0
    0.2720    0.3560   -0.8470 N   0  0  0  0  0  0  0  0  0  0  0  0
    1.4980    0.9280   -1.0890 C   0  0  0  0  0  0  0  0  0  0  0  0
    1.8460    1.9410   -1.6710 O   0  0  0  0  0  0  0  0  0  0  0  0
  1  2  1  0
  3  2  1  1
  3  4  1  0
  3 19  1  0
  4  5  1  0
  5  6  1  6
  5  9  1  0
  5 18  1  0
  6  7  1  0
  6  8  2  0
  9 10  1  0
 10 11  1  0
 10 16  1  0
 11 12  2  0
 11 13  1  0
 13 14  1  0
 14 15  1  0
 16 17  2  0
 16 18  1  0
 18 19  1  0
 19 20  2  0
M  END
