
     RDKit          3D

 20 19  0  0  0  0  0  0  0  0999 V2000
    4.9720   -0.1660    1.7020 C   0  0  0  0  0  0  0  0  0  0  0  0
    5.6750   -0.3830    0.4250 C   0  0  0  0  0  0  0  0  0  0  0  0
    7.1600   -0.4250    0.3430 C   0  0  0  0  0  0  0  0  0  0  0  0
    4.9830   -0.5470   -0.6880 C   0  0  0  0  0  0  0  0  0  0  0  0
    3.5010   -0.5100   -0.6340 C   0  0  0  0  0  0  0  0  0  0  0  0
    3.0340    0.6140   -1.5190 C   0  0  0  0  0  0  0  0  0  0  0  0
    1.5600    0.6700   -1.4890 C   0  0  0  0  0  0  0  0  0  0  0  0
    0.8540    1.7120   -2.2890 C   0  0  0  0  0  0  0  0  0  0  0  0
    0.8550   -0.1830   -0.7700 C   0  0  0  0  0  0  0  0  0  0  0  0
   -0.6460   -0.0590   -0.7940 C   0  0  0  0  0  0  0  0  0  0  0  0
   -1.1140    0.1990    0.6200 C   0  0  0  0  0  0  0  0  0  0  0  0
   -2.6010    0.3360    0.6870 C   0  0  0  0  0  0  0  0  0  0  0  0
   -3.2410    1.3680   -0.0640 C   0  0  0  0  0  0  0  0  0  0  0  0
   -3.2600   -0.5090    1.4370 C   0  0  0  0  0  0  0  0  0  0  0  0
   -4.7200   -0.4370    1.5520 C   0  0  1  0  0  0  0  0  0  0  0  0
   -5.2560    0.8020    1.8730 O   0  0  0  0  0  0  0  0  0  0  0  0
   -5.5590   -1.0920    0.1930 P   0  0  0  0  0  0  0  0  0  0  0  0
   -4.4810   -0.9520   -0.8780 O   0  0  0  0  0  0  0  0  0  0  0  0
   -6.5320   -0.1130   -0.7600 O   0  0  0  0  0  0  0  0  0  0  0  0
   -5.5780   -2.7370   -0.0690 O   0  0  0  0  0  0  0  0  0  0  0  0
  1  2  1  0
  2  3  1  0
  2  4  2  3
  4  5  1  0
  5  6  1  0
  6  7  1  0
  7  8  1  0
  7  9  2  3
  9 10  1  0
 10 11  1  0
 11 12  1  0
 12 13  1  0
 12 14  2  3
 14 15  1  0
 15 16  1  6
 15 17  1  0
 17 18  1  0
 17 19  1  0
 17 20  1  0
M  END
