
     RDKit          3D

 24 24  0  0  0  0  0  0  0  0999 V2000
   -2.3780   -0.5210    2.7560 C   0  0  0  0  0  0  0  0  0  0  0  0
   -2.3030    0.6140    1.7420 C   0  0  1  0  0  0  0  0  0  0  0  0
   -2.2620    1.9620    2.4350 C   0  0  0  0  0  0  0  0  0  0  0  0
   -1.4080    0.4560    0.7600 O   0  0  0  0  0  0  0  0  0  0  0  0
   -0.0940    0.4350    0.9100 C   0  0  0  0  0  0  0  0  0  0  0  0
    0.5650   -0.5750    1.7590 C   0  0  0  0  0  0  0  0  0  0  0  0
    1.9990   -0.4370    1.7950 N   0  0  0  0  0  0  0  0  0  0  0  0
    2.8590   -0.5390    0.6580 C   0  0  0  0  0  0  0  0  0  0  0  0
    2.2940   -0.7740   -0.4390 O   0  0  0  0  0  0  0  0  0  0  0  0
    4.2650   -0.3820    0.7820 N   0  0  0  0  0  0  0  0  0  0  0  0
    5.1100   -0.4830   -0.3720 C   0  0  0  0  0  0  0  0  0  0  0  0
    4.7590    0.5640   -1.3750 C   0  0  0  0  0  0  0  0  0  0  0  0
    5.6440    0.4890   -2.6130 C   0  0  0  0  0  0  0  0  0  0  0  0
    7.4320    0.7260   -2.1690 P   0  0  0  0  0  0  0  0  0  0  0  0
    7.6620    2.1080   -1.1820 O   0  0  0  0  0  0  0  0  0  0  0  0
    8.0890   -0.7070   -1.4730 O   0  0  0  0  0  0  0  0  0  0  0  0
   -3.5950    0.5730    1.0900 O   0  0  0  0  0  0  0  0  0  0  0  0
   -4.0320   -0.5400    0.4090 C   0  0  0  0  0  0  0  0  0  0  0  0
   -3.3010   -1.5540    0.3420 O   0  0  0  0  0  0  0  0  0  0  0  0
   -5.3770   -0.5240   -0.2460 C   0  0  1  0  0  0  0  0  0  0  0  0
   -5.4230    0.5540   -1.3100 C   0  0  0  0  0  0  0  0  0  0  0  0
   -6.0450   -0.1360   -2.5240 C   0  0  0  0  0  0  0  0  0  0  0  0
   -5.5610   -1.5570   -2.3230 C   0  0  0  0  0  0  0  0  0  0  0  0
   -5.6730   -1.7540   -0.9080 N   0  0  0  0  0  0  0  0  0  0  0  0
  2  1  1  1
  2  3  1  0
  2  4  1  0
  2 17  1  0
  4  5  1  0
  5  6  1  0
  6  7  1  0
  7  8  1  0
  8  9  2  0
  8 10  1  0
 10 11  1  0
 11 12  1  0
 12 13  1  0
 13 14  1  0
 14 15  1  0
 14 16  1  0
 17 18  1  0
 18 19  2  0
 20 18  1  6
 20 21  1  0
 20 24  1  0
 21 22  1  0
 22 23  1  0
 23 24  1  0
M  END
