
     RDKit          3D

 20 20  0  0  0  0  0  0  0  0999 V2000
   -2.5710   -2.2120   -0.0420 O   0  0  0  0  0  0  0  0  0  0  0  0
   -2.1050   -1.0290   -0.1760 C   0  0  0  0  0  0  0  0  0  0  0  0
   -2.9720    0.0560   -0.4490 N   0  0  0  0  0  0  0  0  0  0  0  0
   -4.3820   -0.2720   -0.5590 C   0  0  0  0  0  0  0  0  0  0  0  0
   -5.2420    0.9030   -0.8490 C   0  0  0  0  0  0  0  0  0  0  0  0
   -5.1830    1.8970    0.1140 O   0  0  0  0  0  0  0  0  0  0  0  0
   -6.0100    2.8540   -0.3120 O   0  0  0  0  0  0  0  0  0  0  0  0
   -0.6420   -0.8910   -0.0300 C   0  0  0  0  0  0  0  0  0  0  0  0
   -0.0420    0.2800   -0.1450 C   0  0  0  0  0  0  0  0  0  0  0  0
    1.3560    0.4430   -0.0130 N   0  0  0  0  0  0  0  0  0  0  0  0
    2.1160   -0.5590    0.2230 C   0  0  0  0  0  0  0  0  0  0  0  0
    3.5170   -0.2690    0.3410 N   0  0  0  0  0  0  0  0  0  0  0  0
    4.0080    1.0430    0.6540 C   0  0  0  0  0  0  0  0  0  0  0  0
    3.7740    2.0450   -0.4510 C   0  0  0  0  0  0  0  0  0  0  0  0
    4.4000    1.6690   -1.6380 O   0  0  0  0  0  0  0  0  0  0  0  0
    1.5610   -1.9150    0.3390 C   0  0  2  0  0  0  0  0  0  0  0  0
    2.1920   -2.9060   -0.5750 C   0  0  0  0  0  0  0  0  0  0  0  0
    1.5130   -3.6460   -1.3490 O   0  0  0  0  0  0  0  0  0  0  0  0
    3.5560   -3.0730   -0.6250 O   0  0  0  0  0  0  0  0  0  0  0  0
    0.1610   -1.9650    0.2320 O   0  0  0  0  0  0  0  0  0  0  0  0
  1  2  2  0
  2  3  1  0
  2  8  1  0
  3  4  1  0
  4  5  1  0
  5  6  1  0
  6  7  1  0
  8  9  2  0
  8 20  1  0
  9 10  1  0
 10 11  2  0
 11 12  1  0
 11 16  1  0
 12 13  1  0
 13 14  1  0
 14 15  1  0
 16 17  1  6
 16 20  1  0
 17 18  2  0
 17 19  1  0
M  END
