
     RDKit          3D

 24 24  0  0  0  0  0  0  0  0999 V2000
   -7.2090    0.7190   -0.6840 C   0  0  0  0  0  0  0  0  0  0  0  0
   -5.7290    0.6520   -0.7680 N   0  0  0  0  0  0  0  0  0  0  0  0
   -4.9730    0.3570    0.3750 C   0  0  0  0  0  0  0  0  0  0  0  0
   -5.6750    0.2240    1.4530 O   0  0  0  0  0  0  0  0  0  0  0  0
   -3.4820    0.1710    0.4090 C   0  0  2  0  0  0  0  0  0  0  0  0
   -3.0550   -0.5530   -0.8120 C   0  0  0  0  0  0  0  0  0  0  0  0
   -3.4070   -0.7410    1.6060 N   0  0  0  0  0  0  0  0  0  0  0  0
   -2.6650    1.3610    0.6970 C   0  0  0  0  0  0  0  0  0  0  0  0
   -1.3730    1.2310    1.1470 O   0  0  0  0  0  0  0  0  0  0  0  0
   -0.1720    0.7440    0.7150 C   0  0  0  0  0  0  0  0  0  0  0  0
    0.7670    1.6030    0.1660 C   0  0  0  0  0  0  0  0  0  0  0  0
    1.9380    0.7970   -0.2130 C   0  0  1  0  0  0  0  0  0  0  0  0
    3.1330    1.5370   -0.3610 N   0  0  0  0  0  0  0  0  0  0  0  0
    3.9160    1.0120   -1.4220 C   0  0  0  0  0  0  0  0  0  0  0  0
    4.6350   -0.3260   -1.1210 C   0  0  0  0  0  0  0  0  0  0  0  0
    5.4190    0.0200    0.0030 O   0  0  0  0  0  0  0  0  0  0  0  0
    7.0350   -0.1580   -0.2760 P   0  0  0  0  0  0  0  0  0  0  0  0
    7.9140   -1.4660   -0.5710 O   0  0  0  0  0  0  0  0  0  0  0  0
    7.8600    1.0550    0.7040 O   0  0  0  0  0  0  0  0  0  0  0  0
    1.8890   -0.2720    0.7460 C   0  0  0  0  0  0  0  0  0  0  0  0
    2.6830   -0.8180    1.4110 O   0  0  0  0  0  0  0  0  0  0  0  0
    0.3800   -0.6040    0.7170 C   0  0  2  0  0  0  0  0  0  0  0  0
    0.2140   -1.3240   -0.6010 C   0  0  0  0  0  0  0  0  0  0  0  0
    0.1830   -1.4870    1.9160 C   0  0  0  0  0  0  0  0  0  0  0  0
  1  2  1  0
  2  3  1  0
  3  4  2  0
  3  5  1  0
  5  6  1  6
  5  7  1  0
  5  8  1  0
  8  9  1  0
  9 10  1  0
 10 11  2  0
 10 22  1  0
 11 12  1  0
 12 13  1  1
 12 20  1  0
 13 14  1  0
 14 15  1  0
 15 16  1  0
 16 17  1  0
 17 18  1  0
 17 19  1  0
 20 21  2  0
 20 22  1  0
 22 23  1  6
 22 24  1  0
M  END
