
     RDKit          3D

 32 35  0  0  0  0  0  0  0  0999 V2000
   -9.9550   -1.5500   -0.1270 C   0  0  0  0  0  0  0  0  0  0  0  0
   -8.4670   -1.8820   -0.0010 C   0  0  0  0  0  0  0  0  0  0  0  0
   -7.8370   -2.0450   -1.3280 C   0  0  0  0  0  0  0  0  0  0  0  0
   -6.8360   -1.3260   -1.8040 C   0  0  0  0  0  0  0  0  0  0  0  0
   -6.1410   -0.2240   -1.1310 C   0  0  0  0  0  0  0  0  0  0  0  0
   -4.7440   -0.5050   -0.9720 O   0  0  0  0  0  0  0  0  0  0  0  0
   -3.9670    0.4480   -0.3530 C   0  0  0  0  0  0  0  0  0  0  0  0
   -4.4840    1.6380    0.1070 C   0  0  0  0  0  0  0  0  0  0  0  0
   -3.6820    2.5690    0.7200 C   0  0  0  0  0  0  0  0  0  0  0  0
   -2.3310    2.3660    0.9070 C   0  0  0  0  0  0  0  0  0  0  0  0
   -1.7980    1.1620    0.4430 C   0  0  0  0  0  0  0  0  0  0  0  0
   -2.5980    0.2280   -0.1710 C   0  0  0  0  0  0  0  0  0  0  0  0
   -0.3440    0.9620    0.6530 C   0  0  0  0  0  0  0  0  0  0  0  0
    0.2400   -0.2050    0.2180 C   0  0  0  0  0  0  0  0  0  0  0  0
    1.6130   -0.3880    0.4190 C   0  0  0  0  0  0  0  0  0  0  0  0
    2.3960    0.5470    1.0300 C   0  0  0  0  0  0  0  0  0  0  0  0
    3.8380    0.3190    1.2210 C   0  0  0  0  0  0  0  0  0  0  0  0
    4.6340    0.9210    0.1660 N   0  0  0  0  0  0  0  0  0  0  0  0
    6.0060    0.5910    0.1880 C   0  0  0  0  0  0  0  0  0  0  0  0
    6.4540   -0.6470   -0.4140 C   0  0  0  0  0  0  0  0  0  0  0  0
    7.8310   -0.9140   -0.3590 C   0  0  0  0  0  0  0  0  0  0  0  0
    8.7410    0.0470    0.2900 C   0  0  0  0  0  0  0  0  0  0  0  0
    8.3300   -2.0090   -0.8770 O   0  0  0  0  0  0  0  0  0  0  0  0
    7.6120   -2.9270   -1.4750 C   0  0  0  0  0  0  0  0  0  0  0  0
    8.1690   -3.9700   -1.9560 O   0  0  0  0  0  0  0  0  0  0  0  0
    6.2890   -2.7320   -1.5610 N   0  0  0  0  0  0  0  0  0  0  0  0
    5.7060   -1.6080   -1.0400 C   0  0  0  0  0  0  0  0  0  0  0  0
    4.4610   -1.4710   -1.1460 O   0  0  0  0  0  0  0  0  0  0  0  0
    1.7920    1.6970    1.4530 C   0  0  0  0  0  0  0  0  0  0  0  0
    0.4290    1.9260    1.2760 C   0  0  0  0  0  0  0  0  0  0  0  0
   -0.1490    3.1900    1.7590 C   0  0  0  0  0  0  0  0  0  0  0  0
   -1.5110    3.2710    1.5110 O   0  0  0  0  0  0  0  0  0  0  0  0
  1  2  1  0
  2  3  1  0
  3  4  2  3
  4  5  1  0
  5  6  1  0
  6  7  1  0
  7  8  2  0
  7 12  1  0
  8  9  1  0
  9 10  2  0
 10 11  1  0
 10 32  1  0
 11 12  2  0
 11 13  1  0
 13 14  2  0
 13 30  1  0
 14 15  1  0
 15 16  2  0
 16 17  1  0
 16 29  1  0
 17 18  1  0
 18 19  1  0
 19 20  1  0
 20 21  2  0
 20 27  1  0
 21 22  1  0
 21 23  1  0
 23 24  1  0
 24 25  2  0
 24 26  1  0
 26 27  1  0
 27 28  2  0
 29 30  2  0
 30 31  1  0
 31 32  1  0
M  CHG  1  18   1
M  END
