
     RDKit          3D

 32 35  0  0  0  0  0  0  0  0999 V2000
    7.3820    0.8850   -2.7790 C   0  0  0  0  0  0  0  0  0  0  0  0
    6.1800    0.6600   -2.1320 O   0  0  0  0  0  0  0  0  0  0  0  0
    6.2890    0.8760   -0.7750 C   0  0  0  0  0  0  0  0  0  0  0  0
    4.9680    0.6290   -0.0650 C   0  0  0  0  0  0  0  0  0  0  0  0
    4.5730   -0.7130   -0.2820 O   0  0  0  0  0  0  0  0  0  0  0  0
    3.3820   -1.1460    0.2870 C   0  0  0  0  0  0  0  0  0  0  0  0
    2.5900   -0.3060    1.0450 C   0  0  0  0  0  0  0  0  0  0  0  0
    1.4090   -0.7000    1.6190 C   0  0  0  0  0  0  0  0  0  0  0  0
    0.5350    0.2050    2.4420 C   0  0  0  0  0  0  0  0  0  0  0  0
   -0.5170    0.8530    1.6710 C   0  0  0  0  0  0  0  0  0  0  0  0
   -1.8020    0.6870    1.8940 C   0  0  0  0  0  0  0  0  0  0  0  0
   -2.2680   -0.1840    2.9600 C   0  0  0  0  0  0  0  0  0  0  0  0
   -3.5620   -0.3270    3.2130 C   0  0  0  0  0  0  0  0  0  0  0  0
   -4.5160    0.4000    2.4010 C   0  0  0  0  0  0  0  0  0  0  0  0
   -4.1240    1.1930    1.4200 C   0  0  0  0  0  0  0  0  0  0  0  0
   -2.7390    1.4470    1.0130 C   0  0  1  0  0  0  0  0  0  0  0  0
   -2.5240    2.8190    1.3210 O   0  0  0  0  0  0  0  0  0  0  0  0
   -2.4500    1.2930   -0.4390 C   0  0  2  0  0  0  0  0  0  0  0  0
   -2.8710    2.5190   -1.1890 C   0  0  0  0  0  0  0  0  0  0  0  0
   -3.2140    3.4590   -1.7690 N   0  0  0  0  0  0  0  0  0  0  0  0
   -2.9950    0.1220   -1.1370 C   0  0  0  0  0  0  0  0  0  0  0  0
   -4.3700   -0.1230   -1.2200 N   0  0  1  0  0  0  0  0  0  0  0  0
   -5.1160    0.8110   -2.0350 C   0  0  0  0  0  0  0  0  0  0  0  0
   -4.4990   -1.4060   -1.9610 C   0  0  0  0  0  0  0  0  0  0  0  0
   -0.9470    1.2460   -0.6370 C   0  0  0  0  0  0  0  0  0  0  0  0
   -0.1590    1.7810    0.5350 C   0  0  0  0  0  0  0  0  0  0  0  0
    1.0340   -2.0280    1.3960 C   0  0  0  0  0  0  0  0  0  0  0  0
    1.8000   -2.8950    0.6450 C   0  0  0  0  0  0  0  0  0  0  0  0
    2.9850   -2.4360    0.0890 C   0  0  0  0  0  0  0  0  0  0  0  0
    3.5800   -3.4670   -0.6160 O   0  0  0  0  0  0  0  0  0  0  0  0
    2.8900   -4.6570   -0.3140 C   0  0  0  0  0  0  0  0  0  0  0  0
    1.6890   -4.2260    0.2620 O   0  0  0  0  0  0  0  0  0  0  0  0
  1  2  1  0
  2  3  1  0
  3  4  1  0
  4  5  1  0
  5  6  1  0
  6  7  2  0
  6 29  1  0
  7  8  1  0
  8  9  1  0
  8 27  2  0
  9 10  1  0
 10 11  2  0
 10 26  1  0
 11 12  1  0
 11 16  1  0
 12 13  2  0
 13 14  1  0
 14 15  2  0
 15 16  1  0
 16 17  1  1
 16 18  1  0
 18 19  1  6
 18 21  1  0
 18 25  1  0
 19 20  3  0
 21 22  1  0
 22 23  1  6
 22 24  1  0
 25 26  1  0
 27 28  1  0
 28 29  2  0
 28 32  1  0
 29 30  1  0
 30 31  1  0
 31 32  1  0
M  CHG  1  22   1
M  END
