
     RDKit          3D

 33 35  0  0  0  0  0  0  0  0999 V2000
   -2.5970   -2.0120    0.8440 C   0  0  0  0  0  0  0  0  0  0  0  0
   -3.1580   -0.6200    1.0420 C   0  0  1  0  0  0  0  0  0  0  0  0
   -2.1630    0.4600    0.6880 C   0  0  0  0  0  0  0  0  0  0  0  0
   -2.1320    0.7780   -0.6970 N   0  0  0  0  0  0  0  0  0  0  0  0
   -0.9370    1.0200   -1.4100 C   0  0  0  0  0  0  0  0  0  0  0  0
   -1.0870    1.3160   -2.6560 O   0  0  0  0  0  0  0  0  0  0  0  0
    0.4350    0.9740   -0.9000 C   0  0  1  0  0  0  0  0  0  0  0  0
    1.2820    1.4550   -1.9380 O   0  0  0  0  0  0  0  0  0  0  0  0
    0.7210    1.8110    0.2910 C   0  0  0  0  0  0  0  0  0  0  0  0
    1.9540    2.5620    0.1380 N   0  0  0  0  0  0  0  0  0  0  0  0
    2.9160    2.7580    1.1720 C   0  0  0  0  0  0  0  0  0  0  0  0
    3.1600    3.9870    1.5060 O   0  0  0  0  0  0  0  0  0  0  0  0
    3.6430    1.7260    1.8840 C   0  0  0  0  0  0  0  0  0  0  0  0
    3.5350    1.7320    3.3950 C   0  0  1  0  0  0  0  0  0  0  0  0
    4.4040    0.8180    3.9670 F   0  0  0  0  0  0  0  0  0  0  0  0
    3.9680    2.9900    3.7850 F   0  0  0  0  0  0  0  0  0  0  0  0
    1.9330    1.3420    3.9920 Cl  0  0  0  0  0  0  0  0  0  0  0  0
    4.4420    0.8150    1.2870 C   0  0  0  0  0  0  0  0  0  0  0  0
    4.6800    0.7440   -0.0380 N   0  0  0  0  0  0  0  0  0  0  0  0
    4.7170    0.0610   -1.0660 C   0  0  0  0  0  0  0  0  0  0  0  0
    4.4360   -1.3370   -1.3310 C   0  0  0  0  0  0  0  0  0  0  0  0
    3.2920   -1.9180   -1.6860 C   0  0  0  0  0  0  0  0  0  0  0  0
    3.2670   -3.3670   -1.8910 C   0  0  0  0  0  0  0  0  0  0  0  0
    2.1960   -3.9960   -2.2350 C   0  0  0  0  0  0  0  0  0  0  0  0
    2.2770   -5.3610   -2.4030 F   0  0  0  0  0  0  0  0  0  0  0  0
    0.6720   -3.1880   -2.4910 Cl  0  0  0  0  0  0  0  0  0  0  0  0
    1.7520   -1.0750   -1.9980 S   0  0  1  0  0  0  0  0  0  0  0  0
    0.9040   -0.4570   -0.5710 C   0  0  0  0  0  0  0  0  0  0  0  0
   -3.3910    0.8630   -1.4410 C   0  0  0  0  0  0  0  0  0  0  0  0
   -4.1530   -0.4190   -1.1840 C   0  0  0  0  0  0  0  0  0  0  0  0
   -4.4630   -0.4590    0.2970 C   0  0  2  0  0  0  0  0  0  0  0  0
   -5.2420    0.7320    0.7510 C   0  0  0  0  0  0  0  0  0  0  0  0
   -5.2320   -1.6000    0.5320 O   0  0  0  0  0  0  0  0  0  0  0  0
  2  1  1  6
  2  3  1  0
  2 31  1  0
  3  4  1  0
  4  5  1  0
  4 29  1  0
  5  6  2  0
  5  7  1  0
  7  8  1  6
  7  9  1  0
  7 28  1  0
  9 10  1  0
 10 11  1  0
 11 12  2  0
 11 13  1  0
 13 14  1  0
 13 18  2  0
 14 15  1  1
 14 16  1  0
 14 17  1  0
 18 19  1  0
 19 20  2  0
 20 21  1  0
 21 22  2  0
 22 23  1  0
 22 27  1  0
 23 24  2  0
 24 25  1  0
 24 26  1  0
 27 28  1  1
 29 30  1  0
 30 31  1  0
 31 32  1  1
 31 33  1  0
 27 26  1  0
M  END
