
     RDKit          3D

 42 44  0  0  0  0  0  0  0  0999 V2000
   -5.4900   -1.8630   -1.4550 C   0  0  0  0  0  0  0  0  0  0  0  0
   -4.7080   -0.7030   -2.0330 C   0  0  2  0  0  0  0  0  0  0  0  0
   -5.1260   -0.6830   -3.5080 C   0  0  0  0  0  0  0  0  0  0  0  0
   -3.3670   -0.8170   -2.0480 O   0  0  0  0  0  0  0  0  0  0  0  0
   -2.6680   -0.5170   -0.9160 C   0  0  1  0  0  0  0  0  0  0  0  0
   -2.7160   -1.7340    0.0460 C   0  0  0  0  0  0  0  0  0  0  0  0
   -1.2100   -0.5830   -1.3910 C   0  0  0  0  0  0  0  0  0  0  0  0
   -0.2260   -0.5180   -0.3590 N   0  0  0  0  0  0  0  0  0  0  0  0
    1.1120   -0.8120   -0.7510 C   0  0  0  0  0  0  0  0  0  0  0  0
    1.3610   -1.1120   -1.9650 O   0  0  0  0  0  0  0  0  0  0  0  0
    2.2820   -0.8070    0.1870 C   0  0  2  0  0  0  0  0  0  0  0  0
    1.9660    0.0320    1.2440 O   0  0  0  0  0  0  0  0  0  0  0  0
    2.2550    1.3050    0.6710 C   0  0  1  0  0  0  0  0  0  0  0  0
    2.2640    2.3670    1.7540 C   0  0  0  0  0  0  0  0  0  0  0  0
    3.2610    2.0610    2.6790 O   0  0  0  0  0  0  0  0  0  0  0  0
    3.6210    1.0700    0.0850 C   0  0  2  0  0  0  0  0  0  0  0  0
    3.9710    2.0720   -0.9810 C   0  0  0  0  0  0  0  0  0  0  0  0
    4.0100    1.8440   -2.1560 O   0  0  0  0  0  0  0  0  0  0  0  0
    4.2890    3.3620   -0.4030 O   0  0  0  0  0  0  0  0  0  0  0  0
    3.4530   -0.3000   -0.5400 C   0  0  1  0  0  0  0  0  0  0  0  0
    4.6800   -1.0680   -0.5010 C   0  0  0  0  0  0  0  0  0  0  0  0
    5.0030   -1.5680   -1.6470 O   0  0  0  0  0  0  0  0  0  0  0  0
    5.5420   -1.3100    0.5840 N   0  0  0  0  0  0  0  0  0  0  0  0
    6.7990   -2.0280    0.4160 C   0  0  2  0  0  0  0  0  0  0  0  0
    7.8390   -1.7560    1.3420 C   0  0  0  0  0  0  0  0  0  0  0  0
    9.1300   -2.3530    1.1970 N   0  0  0  0  0  0  0  0  0  0  0  0
    7.7310   -0.9760    2.3530 O   0  0  0  0  0  0  0  0  0  0  0  0
    7.2360   -1.6390   -1.0180 C   0  0  0  0  0  0  0  0  0  0  0  0
    7.0540   -2.4070   -1.9810 O   0  0  0  0  0  0  0  0  0  0  0  0
    7.8220   -0.4040   -1.2010 O   0  0  0  0  0  0  0  0  0  0  0  0
    8.1550    0.0470   -2.4560 N   0  0  0  0  0  0  0  0  0  0  0  0
   -3.1110    0.6270   -0.1280 C   0  0  2  0  0  0  0  0  0  0  0  0
   -2.1800    1.6460    0.3860 C   0  0  0  0  0  0  0  0  0  0  0  0
   -4.0840    0.1850    0.7760 O   0  0  0  0  0  0  0  0  0  0  0  0
   -4.2600    0.8690    1.9120 C   0  0  2  0  0  0  0  0  0  0  0  0
   -4.4240   -0.1200    3.0460 C   0  0  0  0  0  0  0  0  0  0  0  0
   -5.9130   -0.4780    2.8350 C   0  0  0  0  0  0  0  0  0  0  0  0
   -6.5280    0.7230    2.5240 O   0  0  0  0  0  0  0  0  0  0  0  0
   -5.6040    1.5620    1.9850 C   0  0  0  0  0  0  0  0  0  0  0  0
   -4.0160    1.4610   -1.1340 C   0  0  0  0  0  0  0  0  0  0  0  0
   -5.1810    0.6010   -1.4360 C   0  0  1  0  0  0  0  0  0  0  0  0
   -6.0130    1.3050   -2.3200 O   0  0  0  0  0  0  0  0  0  0  0  0
  2  1  1  1
  2  3  1  0
  2  4  1  0
  2 41  1  0
  4  5  1  0
  5  6  1  1
  5  7  1  0
  5 32  1  0
  7  8  1  0
  8  9  1  0
  9 10  2  0
 11  9  1  6
 11 12  1  0
 11 20  1  0
 12 13  1  0
 13 14  1  1
 13 16  1  0
 14 15  1  0
 16 17  1  6
 16 20  1  0
 17 18  2  0
 17 19  1  0
 20 21  1  1
 21 22  2  0
 21 23  1  0
 24 23  1  1
 24 25  1  0
 24 28  1  0
 25 26  1  0
 25 27  2  0
 28 29  2  0
 28 30  1  0
 30 31  1  0
 32 33  1  1
 32 34  1  0
 32 40  1  0
 35 34  1  6
 35 36  1  0
 35 39  1  0
 36 37  1  0
 37 38  1  0
 38 39  1  0
 40 41  1  0
 41 42  1  6
M  END
