
     RDKit          3D

 43 45  0  0  0  0  0  0  0  0999 V2000
   -4.4290    3.7280    2.5440 C   0  0  0  0  0  0  0  0  0  0  0  0
   -3.5230    3.3140    1.4810 O   0  0  0  0  0  0  0  0  0  0  0  0
   -2.3820    2.5990    1.8410 C   0  0  0  0  0  0  0  0  0  0  0  0
   -2.2270    2.3040    3.0840 O   0  0  0  0  0  0  0  0  0  0  0  0
   -1.3270    2.1890    0.8660 C   0  0  2  0  0  0  0  0  0  0  0  0
   -0.5590    3.3960    0.7060 N   0  0  0  0  0  0  0  0  0  0  0  0
    0.5290    3.9840    1.3160 C   0  0  0  0  0  0  0  0  0  0  0  0
    0.3750    5.0610    2.0470 O   0  0  0  0  0  0  0  0  0  0  0  0
    1.8780    3.4790    1.2200 N   0  0  0  0  0  0  0  0  0  0  0  0
    2.5970    3.3370   -0.0180 C   0  0  2  0  0  0  0  0  0  0  0  0
    1.7200    3.5350   -1.1260 O   0  0  0  0  0  0  0  0  0  0  0  0
    3.3750    2.0890   -0.1710 C   0  0  1  0  0  0  0  0  0  0  0  0
    4.8770    2.3690   -0.3340 C   0  0  0  0  0  0  0  0  0  0  0  0
    5.4080    1.5210   -1.3190 O   0  0  0  0  0  0  0  0  0  0  0  0
    6.5720    0.8960   -0.8850 C   0  0  0  0  0  0  0  0  0  0  0  0
    6.5250   -0.5030   -1.1220 O   0  0  0  0  0  0  0  0  0  0  0  0
    5.1710   -0.8140   -0.9340 C   0  0  0  0  0  0  0  0  0  0  0  0
    4.8300   -2.2660   -1.0100 C   0  0  0  0  0  0  0  0  0  0  0  0
    3.4330   -2.3540   -1.2550 O   0  0  0  0  0  0  0  0  0  0  0  0
    2.6790   -1.9450   -0.1620 C   0  0  1  0  0  0  0  0  0  0  0  0
    2.0940   -0.5710   -0.3830 C   0  0  0  0  0  0  0  0  0  0  0  0
    2.1780    0.3590    0.7620 C   0  0  0  0  0  0  0  0  0  0  0  0
    3.2750    1.1910    0.8520 O   0  0  0  0  0  0  0  0  0  0  0  0
    1.5160   -2.9520   -0.0750 C   0  0  0  0  0  0  0  0  0  0  0  0
    0.6260   -2.7990   -1.2560 C   0  0  0  0  0  0  0  0  0  0  0  0
    1.2030   -3.0320   -2.3800 O   0  0  0  0  0  0  0  0  0  0  0  0
   -0.7450   -2.4350   -1.2750 N   0  0  0  0  0  0  0  0  0  0  0  0
   -1.8400   -3.0840   -0.6140 C   0  0  1  0  0  0  0  0  0  0  0  0
   -1.6890   -3.3140    0.8530 C   0  0  0  0  0  0  0  0  0  0  0  0
   -3.2410   -2.9710    0.8780 C   0  0  1  0  0  0  0  0  0  0  0  0
   -3.5080   -2.2740    2.0470 O   0  0  0  0  0  0  0  0  0  0  0  0
   -4.2290   -3.0930    2.9010 C   0  0  0  0  0  0  0  0  0  0  0  0
   -2.9070   -2.0630   -0.2720 C   0  0  2  0  0  0  0  0  0  0  0  0
   -3.9760   -2.0310   -1.3130 C   0  0  2  0  0  0  0  0  0  0  0  0
   -4.6230   -3.3480   -1.3330 N   0  0  0  0  0  0  0  0  0  0  0  0
   -3.3320   -2.0130   -2.5920 O   0  0  0  0  0  0  0  0  0  0  0  0
   -2.3250   -0.7850    0.2180 C   0  0  0  0  0  0  0  0  0  0  0  0
   -2.7490    0.4930   -0.3950 C   0  0  2  0  0  0  0  0  0  0  0  0
   -3.0960    0.3830   -1.7310 O   0  0  0  0  0  0  0  0  0  0  0  0
   -1.6520    1.5290   -0.3650 C   0  0  1  0  0  0  0  0  0  0  0  0
   -1.7580    2.4050   -1.5600 C   0  0  0  0  0  0  0  0  0  0  0  0
   -2.6310    3.3710   -1.5430 O   0  0  0  0  0  0  0  0  0  0  0  0
   -0.9950    2.3110   -2.6900 O   0  0  0  0  0  0  0  0  0  0  0  0
  1  2  1  0
  2  3  1  0
  3  4  2  0
  5  3  1  6
  5  6  1  0
  5 40  1  0
  6  7  1  0
  7  8  2  0
  7  9  1  0
  9 10  1  0
 10 11  1  6
 10 12  1  0
 12 13  1  1
 12 23  1  0
 13 14  1  0
 14 15  1  0
 15 16  1  0
 16 17  1  0
 17 18  1  0
 18 19  1  0
 19 20  1  0
 20 21  1  0
 20 24  1  6
 21 22  1  0
 22 23  1  0
 24 25  1  0
 25 26  2  0
 25 27  1  0
 27 28  1  0
 28 29  1  1
 28 33  1  0
 29 30  1  0
 30 31  1  1
 30 33  1  0
 31 32  1  0
 33 34  1  0
 33 37  1  1
 34 35  1  6
 34 36  1  0
 37 38  1  0
 38 39  1  6
 38 40  1  0
 40 41  1  6
 41 42  2  0
 41 43  1  0
M  END
