
     RDKit          3D

 43 47  0  0  0  0  0  0  0  0999 V2000
   -1.5140    4.8690   -1.3670 C   0  0  0  0  0  0  0  0  0  0  0  0
   -2.5630    3.8020   -1.4630 C   0  0  2  0  0  0  0  0  0  0  0  0
   -3.7780    4.3000   -2.2070 C   0  0  0  0  0  0  0  0  0  0  0  0
   -4.4210    5.4430   -1.4600 C   0  0  0  0  0  0  0  0  0  0  0  0
   -4.8380    4.9620   -0.1050 C   0  0  0  0  0  0  0  0  0  0  0  0
   -3.6980    4.3380    0.6730 C   0  0  0  0  0  0  0  0  0  0  0  0
   -2.9340    3.4170   -0.1190 N   0  0  0  0  0  0  0  0  0  0  0  0
   -2.5400    2.1550    0.3750 C   0  0  0  0  0  0  0  0  0  0  0  0
   -2.8660    1.8350    1.5360 O   0  0  0  0  0  0  0  0  0  0  0  0
   -1.7410    1.1910   -0.4540 C   0  0  0  0  0  0  0  0  0  0  0  0
   -1.4890   -0.0090    0.3170 N   0  0  1  0  0  0  0  0  0  0  0  0
   -1.3590   -1.1970   -0.4740 C   0  0  0  0  0  0  0  0  0  0  0  0
   -2.6440   -1.7210   -1.0450 C   0  0  0  0  0  0  0  0  0  0  0  0
   -3.6420   -2.0660   -0.0370 C   0  0  0  0  0  0  0  0  0  0  0  0
   -4.1470   -3.2230    0.2920 C   0  0  0  0  0  0  0  0  0  0  0  0
   -5.2000   -3.4480    1.3690 C   0  0  0  0  0  0  0  0  0  0  0  0
   -6.0100   -4.5030    0.6420 C   0  0  0  0  0  0  0  0  0  0  0  0
   -7.2580   -4.5850    0.6100 O   0  0  0  0  0  0  0  0  0  0  0  0
   -5.0130   -5.3620    0.0170 C   0  0  0  0  0  0  0  0  0  0  0  0
   -5.0710   -6.6880   -0.3320 C   0  0  0  0  0  0  0  0  0  0  0  0
   -3.9830   -7.2330   -0.8950 N   0  0  0  0  0  0  0  0  0  0  0  0
   -2.8540   -6.4920   -1.1120 C   0  0  0  0  0  0  0  0  0  0  0  0
   -2.7880   -5.1440   -0.7600 C   0  0  0  0  0  0  0  0  0  0  0  0
   -3.8820   -4.5730   -0.1900 C   0  0  0  0  0  0  0  0  0  0  0  0
   -0.3720    0.2070    1.2080 C   0  0  0  0  0  0  0  0  0  0  0  0
    0.9520    0.1970    0.5170 C   0  0  0  0  0  0  0  0  0  0  0  0
    2.0300    0.4200    1.4520 N   0  0  0  0  0  0  0  0  0  0  0  0
    2.7980   -0.7330    1.7340 C   0  0  0  0  0  0  0  0  0  0  0  0
    2.3080   -1.6010    2.5400 O   0  0  0  0  0  0  0  0  0  0  0  0
    4.0580   -0.9300    1.1620 N   0  0  0  0  0  0  0  0  0  0  0  0
    4.9540   -2.0440    1.5380 C   0  0  0  0  0  0  0  0  0  0  0  0
    6.2630   -1.2210    1.6060 C   0  0  0  0  0  0  0  0  0  0  0  0
    6.1580   -0.3320    0.4240 C   0  0  0  0  0  0  0  0  0  0  0  0
    7.0300    0.3230   -0.4040 C   0  0  0  0  0  0  0  0  0  0  0  0
    8.4920    0.2160   -0.2940 C   0  0  0  0  0  0  0  0  0  0  0  0
    9.1060   -0.9750   -0.9550 C   0  0  1  0  0  0  0  0  0  0  0  0
    8.6270   -2.1470   -0.4420 F   0  0  0  0  0  0  0  0  0  0  0  0
    8.9760   -0.9220   -2.3400 F   0  0  0  0  0  0  0  0  0  0  0  0
   10.4930   -1.0080   -0.7420 F   0  0  0  0  0  0  0  0  0  0  0  0
    6.5310    1.1070   -1.4320 C   0  0  0  0  0  0  0  0  0  0  0  0
    5.2030    1.2780   -1.6860 C   0  0  0  0  0  0  0  0  0  0  0  0
    4.3200    0.6100   -0.8420 C   0  0  0  0  0  0  0  0  0  0  0  0
    4.7720   -0.1820    0.1970 C   0  0  0  0  0  0  0  0  0  0  0  0
  2  1  1  1
  2  3  1  0
  2  7  1  0
  3  4  1  0
  4  5  1  0
  5  6  1  0
  6  7  1  0
  7  8  1  0
  8  9  2  0
  8 10  1  0
 11 10  1  6
 11 12  1  0
 11 25  1  0
 12 13  1  0
 13 14  1  0
 14 15  2  3
 15 16  1  0
 15 24  1  0
 16 17  1  0
 17 18  2  0
 17 19  1  0
 19 20  2  0
 19 24  1  0
 20 21  1  0
 21 22  2  0
 22 23  1  0
 23 24  2  0
 25 26  1  0
 26 27  1  0
 27 28  1  0
 28 29  2  0
 28 30  1  0
 30 31  1  0
 30 43  1  0
 31 32  1  0
 32 33  1  0
 33 34  2  0
 33 43  1  0
 34 35  1  0
 34 40  1  0
 35 36  1  0
 36 37  1  1
 36 38  1  0
 36 39  1  0
 40 41  2  0
 41 42  1  0
 42 43  2  0
M  CHG  2  11   1  27   1
M  END
