
     RDKit          3D

 42 44  0  0  0  0  0  0  0  0999 V2000
    4.8720   -0.4820    0.5660 C   0  0  0  0  0  0  0  0  0  0  0  0
    3.8710   -0.3450   -0.5910 C   0  0  1  0  0  0  0  0  0  0  0  0
    4.3670    0.6300   -1.4500 O   0  0  0  0  0  0  0  0  0  0  0  0
    3.7680    1.7080   -2.0080 C   0  0  0  0  0  0  0  0  0  0  0  0
    3.6530    1.7890   -3.2830 O   0  0  0  0  0  0  0  0  0  0  0  0
    3.1960    2.8790   -1.2530 C   0  0  1  0  0  0  0  0  0  0  0  0
    3.8590    2.9270    0.0790 C   0  0  0  0  0  0  0  0  0  0  0  0
    4.0280    4.2700    0.4660 O   0  0  0  0  0  0  0  0  0  0  0  0
    5.1300    4.7290   -0.2540 C   0  0  0  0  0  0  0  0  0  0  0  0
    4.8750    4.3990   -1.7090 C   0  0  0  0  0  0  0  0  0  0  0  0
    3.5890    4.0120   -1.9790 O   0  0  0  0  0  0  0  0  0  0  0  0
    1.7380    2.7650   -1.2530 C   0  0  0  0  0  0  0  0  0  0  0  0
    1.1800    2.3660   -2.3440 O   0  0  0  0  0  0  0  0  0  0  0  0
    0.8370    3.0400   -0.1970 N   0  0  0  0  0  0  0  0  0  0  0  0
    0.8270    2.4860    1.0810 N   0  0  0  0  0  0  0  0  0  0  0  0
    0.8300    1.1140    1.4360 C   0  0  0  0  0  0  0  0  0  0  0  0
    1.6980    0.7900    2.3380 O   0  0  0  0  0  0  0  0  0  0  0  0
    0.0130    0.0840    0.9280 N   0  0  0  0  0  0  0  0  0  0  0  0
   -1.4410    0.0390    0.9260 C   0  0  1  0  0  0  0  0  0  0  0  0
   -2.0570    1.1770    0.2140 C   0  0  0  0  0  0  0  0  0  0  0  0
   -3.5290    1.2920    0.1540 C   0  0  1  0  0  0  0  0  0  0  0  0
   -4.1590    1.3910    1.5410 C   0  0  0  0  0  0  0  0  0  0  0  0
   -3.7930    2.5720   -0.4270 O   0  0  0  0  0  0  0  0  0  0  0  0
   -4.3060    0.3100   -0.6270 C   0  0  0  0  0  0  0  0  0  0  0  0
   -5.7910    0.7440   -0.5010 C   0  0  0  0  0  0  0  0  0  0  0  0
   -6.5990   -0.2600   -1.2960 C   0  0  2  0  0  0  0  0  0  0  0  0
   -8.0590   -0.1210   -1.3710 C   0  0  0  0  0  0  0  0  0  0  0  0
   -7.4710   -1.2390   -0.5990 C   0  0  2  0  0  0  0  0  0  0  0  0
   -7.5960   -1.2000    0.7850 O   0  0  0  0  0  0  0  0  0  0  0  0
   -1.8120   -1.3030    0.2750 C   0  0  0  0  0  0  0  0  0  0  0  0
   -0.6880   -2.1620    0.2560 O   0  0  0  0  0  0  0  0  0  0  0  0
   -0.8390   -3.2270    1.1140 C   0  0  0  0  0  0  0  0  0  0  0  0
    0.4570   -3.9600    1.3600 C   0  0  1  0  0  0  0  0  0  0  0  0
    0.1070   -5.2590    1.7680 O   0  0  0  0  0  0  0  0  0  0  0  0
    1.2870   -4.0680    0.1010 C   0  0  0  0  0  0  0  0  0  0  0  0
    2.5330   -3.2000    0.2590 C   0  0  1  0  0  0  0  0  0  0  0  0
    3.5210   -4.0290    0.9890 C   0  0  0  0  0  0  0  0  0  0  0  0
    4.8160   -4.2830    0.4840 N   0  0  0  0  0  0  0  0  0  0  0  0
    3.2000   -4.5280    2.1060 O   0  0  0  0  0  0  0  0  0  0  0  0
    2.9920   -2.7080   -0.9500 O   0  0  0  0  0  0  0  0  0  0  0  0
    3.8450   -1.7020   -1.2340 C   0  0  0  0  0  0  0  0  0  0  0  0
    4.7320   -1.8750   -2.1290 O   0  0  0  0  0  0  0  0  0  0  0  0
  2  1  1  1
  2  3  1  0
  2 41  1  0
  3  4  1  0
  4  5  2  0
  4  6  1  0
  6  7  1  1
  6 11  1  0
  6 12  1  0
  7  8  1  0
  8  9  1  0
  9 10  1  0
 10 11  1  0
 12 13  2  0
 12 14  1  0
 14 15  1  0
 15 16  1  0
 16 17  2  0
 16 18  1  0
 18 19  1  0
 19 20  1  6
 19 30  1  0
 20 21  1  0
 21 22  1  1
 21 23  1  0
 21 24  1  0
 24 25  1  0
 26 25  1  1
 26 27  1  0
 26 28  1  0
 27 28  1  0
 28 29  1  1
 30 31  1  0
 31 32  1  0
 32 33  1  0
 33 34  1  6
 33 35  1  0
 35 36  1  0
 36 37  1  6
 36 40  1  0
 37 38  1  0
 37 39  2  0
 40 41  1  0
 41 42  2  0
M  END
