
     RDKit          3D

 43 48  0  0  0  0  0  0  0  0999 V2000
    6.5790   -0.5420    0.3330 O   0  0  0  0  0  0  0  0  0  0  0  0
    6.1840   -0.4660   -0.8800 C   0  0  0  0  0  0  0  0  0  0  0  0
    7.1760   -0.3600   -1.8680 N   0  0  0  0  0  0  0  0  0  0  0  0
    8.5390   -0.3420   -1.4670 C   0  0  0  0  0  0  0  0  0  0  0  0
    9.2190   -0.3960   -0.4390 N   0  0  0  0  0  0  0  0  0  0  0  0
   10.5070   -0.3540   -0.3660 C   0  0  0  0  0  0  0  0  0  0  0  0
   11.2320   -0.2400   -1.5040 C   0  0  0  0  0  0  0  0  0  0  0  0
    9.8350   -0.1980   -2.7300 S   0  0  0  0  0  0  0  0  0  0  0  0
    4.7470   -0.4930   -1.1390 C   0  0  0  0  0  0  0  0  0  0  0  0
    4.2680   -0.5760   -2.4210 C   0  0  0  0  0  0  0  0  0  0  0  0
    2.8950   -0.5900   -2.6060 C   0  0  0  0  0  0  0  0  0  0  0  0
    2.0400   -0.5230   -1.5240 C   0  0  0  0  0  0  0  0  0  0  0  0
    2.5030   -0.4390   -0.2290 C   0  0  0  0  0  0  0  0  0  0  0  0
    1.6040   -0.3580    0.9290 C   0  0  0  0  0  0  0  0  0  0  0  0
    0.2130   -0.1630    0.5760 N   0  0  0  0  0  0  0  0  0  0  0  0
   -0.5780   -1.3210    0.4310 C   0  0  0  0  0  0  0  0  0  0  0  0
    0.0570   -2.3960    0.1430 O   0  0  0  0  0  0  0  0  0  0  0  0
   -2.0160   -1.5040    0.5560 N   0  0  0  0  0  0  0  0  0  0  0  0
   -2.4940   -2.5930   -0.3030 C   0  0  0  0  0  0  0  0  0  0  0  0
   -2.8310   -2.1220   -1.6710 C   0  0  2  0  0  0  0  0  0  0  0  0
   -3.3320   -3.0090   -2.7340 C   0  0  0  0  0  0  0  0  0  0  0  0
   -1.9080   -2.6050   -2.7850 C   0  0  0  0  0  0  0  0  0  0  0  0
   -2.8330   -0.7580    1.4070 C   0  0  2  0  0  0  0  0  0  0  0  0
   -4.2470   -0.5110    1.2140 C   0  0  0  0  0  0  0  0  0  0  0  0
   -5.2250   -1.5760    1.1510 C   0  0  0  0  0  0  0  0  0  0  0  0
   -5.6790   -2.1950    2.3020 C   0  0  0  0  0  0  0  0  0  0  0  0
   -6.6480   -3.1680    2.2230 C   0  0  0  0  0  0  0  0  0  0  0  0
   -7.1870   -3.5500    1.0090 C   0  0  0  0  0  0  0  0  0  0  0  0
   -6.7440   -2.9420   -0.1390 C   0  0  0  0  0  0  0  0  0  0  0  0
   -5.7750   -1.9710   -0.0400 C   0  0  0  0  0  0  0  0  0  0  0  0
   -2.2010    0.6140    1.7620 C   0  0  2  0  0  0  0  0  0  0  0  0
   -3.1890    1.4030    2.3280 O   0  0  0  0  0  0  0  0  0  0  0  0
   -1.6750    1.3100    0.5520 C   0  0  1  0  0  0  0  0  0  0  0  0
   -2.2440    2.5510    0.4060 O   0  0  0  0  0  0  0  0  0  0  0  0
   -0.1980    1.2450    0.3970 C   0  0  1  0  0  0  0  0  0  0  0  0
    0.6320    2.1930    1.1520 C   0  0  0  0  0  0  0  0  0  0  0  0
    0.1820    3.5850    0.9400 C   0  0  0  0  0  0  0  0  0  0  0  0
    0.6880    4.2600   -0.1770 C   0  0  0  0  0  0  0  0  0  0  0  0
    0.3610    5.5640   -0.4740 C   0  0  0  0  0  0  0  0  0  0  0  0
   -0.5040    6.2040    0.3870 C   0  0  0  0  0  0  0  0  0  0  0  0
   -1.0180    5.5680    1.4940 C   0  0  0  0  0  0  0  0  0  0  0  0
   -0.6800    4.2620    1.7750 C   0  0  0  0  0  0  0  0  0  0  0  0
    3.8670   -0.4260   -0.0630 C   0  0  0  0  0  0  0  0  0  0  0  0
  1  2  2  0
  2  3  1  0
  2  9  1  0
  3  4  1  0
  4  5  2  0
  4  8  1  0
  5  6  1  0
  6  7  2  0
  7  8  1  0
  9 10  2  0
  9 43  1  0
 10 11  1  0
 11 12  2  0
 12 13  1  0
 13 14  1  0
 13 43  2  0
 14 15  1  0
 15 16  1  0
 15 35  1  0
 16 17  2  0
 16 18  1  0
 18 19  1  0
 18 23  1  0
 20 19  1  1
 20 21  1  0
 20 22  1  0
 21 22  1  0
 23 24  1  6
 23 31  1  0
 24 25  1  0
 25 26  2  0
 25 30  1  0
 26 27  1  0
 27 28  2  0
 28 29  1  0
 29 30  2  0
 31 32  1  6
 31 33  1  0
 33 34  1  1
 33 35  1  0
 35 36  1  1
 36 37  1  0
 37 38  2  0
 37 42  1  0
 38 39  1  0
 39 40  2  0
 40 41  1  0
 41 42  2  0
M  END
