
     RDKit          3D

 43 45  0  0  0  0  0  0  0  0999 V2000
   -8.6010   -2.1610    0.2990 C   0  0  0  0  0  0  0  0  0  0  0  0
   -7.4790   -1.2240   -0.1580 C   0  0  1  0  0  0  0  0  0  0  0  0
   -7.1400   -1.6420   -1.5810 C   0  0  0  0  0  0  0  0  0  0  0  0
   -8.0250    0.0400   -0.2370 O   0  0  0  0  0  0  0  0  0  0  0  0
   -6.2930   -1.3400    0.7750 C   0  0  1  0  0  0  0  0  0  0  0  0
   -6.8170   -1.0900    2.1650 C   0  0  0  0  0  0  0  0  0  0  0  0
   -5.9270   -2.6950    0.7420 O   0  0  0  0  0  0  0  0  0  0  0  0
   -4.6800   -2.7780    0.1760 C   0  0  0  0  0  0  0  0  0  0  0  0
   -4.0720   -1.5690    0.3990 O   0  0  0  0  0  0  0  0  0  0  0  0
   -5.1060   -0.5850    0.3620 C   0  0  2  0  0  0  0  0  0  0  0  0
   -4.6860    0.5610    1.2630 C   0  0  2  0  0  0  0  0  0  0  0  0
   -5.5900    1.7490    0.9550 C   0  0  0  0  0  0  0  0  0  0  0  0
   -5.6320    1.8590   -0.4310 O   0  0  0  0  0  0  0  0  0  0  0  0
   -4.4300    2.1100   -1.0260 C   0  0  0  0  0  0  0  0  0  0  0  0
   -3.2890    1.3110   -0.4530 C   0  0  1  0  0  0  0  0  0  0  0  0
   -2.0080    2.0280   -0.7510 C   0  0  0  0  0  0  0  0  0  0  0  0
   -0.8240    1.2930   -0.2010 C   0  0  0  0  0  0  0  0  0  0  0  0
   -0.9480    0.2440    0.4560 O   0  0  0  0  0  0  0  0  0  0  0  0
    0.4000    1.8100   -0.4430 O   0  0  0  0  0  0  0  0  0  0  0  0
    1.6410    1.3140   -0.0500 C   0  0  2  0  0  0  0  0  0  0  0  0
    1.7240    1.1550    1.4700 C   0  0  0  0  0  0  0  0  0  0  0  0
    2.6040    2.4820   -0.3290 C   0  0  0  0  0  0  0  0  0  0  0  0
    2.0620    0.0260   -0.6720 C   0  0  2  0  0  0  0  0  0  0  0  0
    1.0660   -0.9500   -0.3110 O   0  0  0  0  0  0  0  0  0  0  0  0
    3.3180   -0.5760   -0.1740 C   0  0  0  0  0  0  0  0  0  0  0  0
    4.5950    0.1080   -0.3500 C   0  0  0  0  0  0  0  0  0  0  0  0
    4.8630    1.0340   -1.1380 O   0  0  0  0  0  0  0  0  0  0  0  0
    5.7070   -0.3160    0.4770 N   0  0  0  0  0  0  0  0  0  0  0  0
    6.9810    0.3230    0.3420 C   0  0  1  0  0  0  0  0  0  0  0  0
    7.3410    1.0570    1.5920 C   0  0  0  0  0  0  0  0  0  0  0  0
    8.5510    1.7840    1.6980 N   0  0  0  0  0  0  0  0  0  0  0  0
    6.5700    1.0440    2.5860 O   0  0  0  0  0  0  0  0  0  0  0  0
    8.0780   -0.6790    0.0400 C   0  0  2  0  0  0  0  0  0  0  0  0
    7.8170   -1.3640   -1.1350 O   0  0  0  0  0  0  0  0  0  0  0  0
    8.3090   -1.5350    1.0890 O   0  0  0  0  0  0  0  0  0  0  0  0
    9.5860   -1.3550    1.5660 C   0  0  0  0  0  0  0  0  0  0  0  0
   10.2960   -0.5110    0.6270 N   0  0  0  0  0  0  0  0  0  0  0  0
    9.3330    0.0880   -0.1940 C   0  0  0  0  0  0  0  0  0  0  0  0
    9.4550    1.0500   -0.9650 O   0  0  0  0  0  0  0  0  0  0  0  0
    2.0550    0.0800   -2.1560 C   0  0  0  0  0  0  0  0  0  0  0  0
    1.1540   -0.7200   -2.8860 N   0  0  0  0  0  0  0  0  0  0  0  0
    2.8400    0.8270   -2.7660 O   0  0  0  0  0  0  0  0  0  0  0  0
   -3.4080    1.0380    0.8740 O   0  0  0  0  0  0  0  0  0  0  0  0
  2  1  1  1
  2  3  1  0
  2  4  1  0
  2  5  1  0
  5  6  1  1
  5  7  1  0
  5 10  1  0
  7  8  1  0
  8  9  1  0
 10  9  1  1
 10 11  1  0
 11 12  1  6
 11 43  1  0
 12 13  1  0
 13 14  1  0
 14 15  1  0
 15 16  1  1
 15 43  1  0
 16 17  1  0
 17 18  2  0
 17 19  1  0
 19 20  1  0
 20 21  1  1
 20 22  1  0
 20 23  1  0
 23 24  1  6
 23 25  1  0
 23 40  1  0
 25 26  1  0
 26 27  2  0
 26 28  1  0
 29 28  1  1
 29 30  1  0
 29 33  1  0
 30 31  1  0
 30 32  2  0
 33 34  1  6
 33 35  1  0
 33 38  1  0
 35 36  1  0
 36 37  1  0
 37 38  1  0
 38 39  2  0
 40 41  1  0
 40 42  2  0
M  END
