
     RDKit          3D

 28 30  0  0  0  0  0  0  0  0999 V2000
    5.1080   -3.7950   -1.1130 C   0  0  0  0  0  0  0  0  0  0  0  0
    5.4600   -3.1790    0.2120 C   0  0  0  0  0  0  0  0  0  0  0  0
    5.6400   -1.7090    0.1410 C   0  0  0  0  0  0  0  0  0  0  0  0
    6.7910   -1.0580    0.1460 N   0  0  0  0  0  0  0  0  0  0  0  0
    6.5420    0.2180    0.0870 N   0  0  0  0  0  0  0  0  0  0  0  0
    5.1800    0.4330    0.0370 C   0  0  0  0  0  0  0  0  0  0  0  0
    4.6040    1.8020   -0.0260 C   0  0  0  0  0  0  0  0  0  0  0  0
    4.1250    2.3100    1.3070 C   0  0  0  0  0  0  0  0  0  0  0  0
    4.5620   -0.7730    0.0690 C   0  0  0  0  0  0  0  0  0  0  0  0
    3.2210   -1.2730    0.0110 C   0  0  0  0  0  0  0  0  0  0  0  0
    2.1580   -0.3220    0.0340 N   0  0  0  0  0  0  0  0  0  0  0  0
    0.7960   -0.7620   -0.1020 C   0  0  0  0  0  0  0  0  0  0  0  0
    0.6590   -2.0190   -0.2640 O   0  0  0  0  0  0  0  0  0  0  0  0
   -0.3280    0.1370   -0.0520 C   0  0  0  0  0  0  0  0  0  0  0  0
   -1.6180   -0.4440    0.0830 C   0  0  0  0  0  0  0  0  0  0  0  0
   -2.7650    0.3030    0.2030 C   0  0  0  0  0  0  0  0  0  0  0  0
   -4.1010   -0.3640    0.3050 C   0  0  2  0  0  0  0  0  0  0  0  0
   -3.9560   -1.7070    0.9280 C   0  0  0  0  0  0  0  0  0  0  0  0
   -4.9010   -2.6190    0.1810 C   0  0  0  0  0  0  0  0  0  0  0  0
   -5.0970   -1.9470   -1.1380 C   0  0  0  0  0  0  0  0  0  0  0  0
   -4.6550   -0.5840   -1.0260 N   0  0  0  0  0  0  0  0  0  0  0  0
   -2.6570    1.7010    0.1910 C   0  0  0  0  0  0  0  0  0  0  0  0
   -3.8360    2.5290    0.3280 C   0  0  1  0  0  0  0  0  0  0  0  0
   -3.5220    3.9700    0.6910 C   0  0  0  0  0  0  0  0  0  0  0  0
   -4.5330    2.6320   -1.0280 C   0  0  0  0  0  0  0  0  0  0  0  0
   -1.4210    2.2500    0.0620 N   0  0  0  0  0  0  0  0  0  0  0  0
   -0.3250    1.4920   -0.0530 C   0  0  0  0  0  0  0  0  0  0  0  0
    0.7610    2.1160   -0.1710 O   0  0  0  0  0  0  0  0  0  0  0  0
  1  2  1  0
  2  3  1  0
  3  4  2  0
  3  9  1  0
  4  5  1  0
  5  6  1  0
  6  7  1  0
  6  9  2  0
  7  8  1  0
  9 10  1  0
 10 11  1  0
 11 12  1  0
 12 13  2  0
 12 14  1  0
 14 15  2  0
 14 27  1  0
 15 16  1  0
 17 16  1  6
 16 22  2  0
 17 18  1  0
 17 21  1  0
 18 19  1  0
 19 20  1  0
 20 21  1  0
 22 23  1  0
 22 26  1  0
 23 24  1  6
 23 25  1  0
 26 27  1  0
 27 28  2  0
M  CHG  1  21   1
M  END
