
     RDKit          3D

 28 29  0  0  0  0  0  0  0  0999 V2000
   -5.2900    3.0040   -1.9760 C   0  0  0  0  0  0  0  0  0  0  0  0
   -4.8520    2.6860   -0.7770 C   0  0  0  0  0  0  0  0  0  0  0  0
   -5.2750    3.4970    0.3530 C   0  0  0  0  0  0  0  0  0  0  0  0
   -4.8450    3.1950    1.5520 C   0  0  0  0  0  0  0  0  0  0  0  0
   -3.9540    2.0740    1.8120 C   0  0  0  0  0  0  0  0  0  0  0  0
   -3.5060    1.2680    0.8670 C   0  0  0  0  0  0  0  0  0  0  0  0
   -2.6050    0.1690    1.2430 C   0  0  2  0  0  0  0  0  0  0  0  0
   -1.1550    0.3600    0.9700 C   0  0  0  0  0  0  0  0  0  0  0  0
   -0.6830    0.5890   -0.3930 C   0  0  0  0  0  0  0  0  0  0  0  0
    0.7500    0.7270   -0.5340 N   0  0  0  0  0  0  0  0  0  0  0  0
    1.6700   -0.2890   -0.1730 C   0  0  0  0  0  0  0  0  0  0  0  0
    1.1760   -1.3450    0.2860 O   0  0  0  0  0  0  0  0  0  0  0  0
    3.0540   -0.0780   -0.3400 N   0  0  0  0  0  0  0  0  0  0  0  0
    3.7340    1.0840   -0.8530 C   0  0  0  0  0  0  0  0  0  0  0  0
    5.0140    0.5660   -1.4900 C   0  0  0  0  0  0  0  0  0  0  0  0
    5.1680   -0.8620   -1.0600 C   0  0  1  0  0  0  0  0  0  0  0  0
    6.5230   -1.1510   -0.4500 C   0  0  0  0  0  0  0  0  0  0  0  0
    6.8010   -0.3680    0.7140 N   0  0  0  0  0  0  0  0  0  0  0  0
    8.2610   -0.2340    0.8150 C   0  0  0  0  0  0  0  0  0  0  0  0
    4.0960   -1.0350   -0.0110 C   0  0  0  0  0  0  0  0  0  0  0  0
   -3.1250   -1.0690    0.6820 N   0  0  0  0  0  0  0  0  0  0  0  0
   -3.6040   -2.0590    1.5720 C   0  0  0  0  0  0  0  0  0  0  0  0
   -3.5930   -1.8990    2.8320 O   0  0  0  0  0  0  0  0  0  0  0  0
   -4.1470   -3.3470    1.0200 C   0  0  0  0  0  0  0  0  0  0  0  0
   -4.6040   -4.2660    2.1040 C   0  0  0  0  0  0  0  0  0  0  0  0
   -3.9550    1.5540   -0.5170 C   0  0  0  0  0  0  0  0  0  0  0  0
   -3.5780    0.7910   -1.3980 N   0  0  0  0  0  0  0  0  0  0  0  0
   -3.6220    0.4640   -2.7300 C   0  0  0  0  0  0  0  0  0  0  0  0
  1  2  2  0
  2  3  1  0
  2 26  1  0
  3  4  2  0
  4  5  1  0
  5  6  2  0
  6  7  1  0
  6 26  1  0
  7  8  1  6
  7 21  1  0
  8  9  1  0
  9 10  1  0
 10 11  1  0
 11 12  2  0
 11 13  1  0
 13 14  1  0
 13 20  1  0
 14 15  1  0
 15 16  1  0
 16 17  1  1
 16 20  1  0
 17 18  1  0
 18 19  1  0
 21 22  1  0
 22 23  2  0
 22 24  1  0
 24 25  1  0
 26 27  2  3
 27 28  1  0
M  CHG  1  18   1
M  END
