
     RDKit          3D

 28 30  0  0  0  0  0  0  0  0999 V2000
   -2.7080    2.1090    3.2390 C   0  0  0  0  0  0  0  0  0  0  0  0
   -1.4040    1.9380    2.7690 O   0  0  0  0  0  0  0  0  0  0  0  0
   -1.0470    0.5720    2.8840 C   0  0  0  0  0  0  0  0  0  0  0  0
   -1.7740   -0.3250    1.9660 C   0  0  0  0  0  0  0  0  0  0  0  0
   -1.5820   -0.0780    0.5690 N   0  0  0  0  0  0  0  0  0  0  0  0
   -0.3730   -0.4460   -0.0220 C   0  0  0  0  0  0  0  0  0  0  0  0
    0.8760    0.2610    0.4590 C   0  0  0  0  0  0  0  0  0  0  0  0
    2.0070   -0.3210   -0.4610 C   0  0  0  0  0  0  0  0  0  0  0  0
    3.3220    0.1440    0.0150 C   0  0  0  0  0  0  0  0  0  0  0  0
    3.3820    1.0040    0.9690 O   0  0  0  0  0  0  0  0  0  0  0  0
    4.5050   -0.3320   -0.5350 N   0  0  0  0  0  0  0  0  0  0  0  0
    5.8130   -0.0130   -0.1610 N   0  0  0  0  0  0  0  0  0  0  0  0
    6.1490   -0.0150    1.2330 C   0  0  0  0  0  0  0  0  0  0  0  0
    7.3970    0.1990    1.6270 C   0  0  0  0  0  0  0  0  0  0  0  0
    8.8900    0.4640    1.8990 C   0  0  0  0  0  0  0  0  0  0  0  0
    8.3680    0.4270    0.6850 C   0  0  0  0  0  0  0  0  0  0  0  0
    8.1040    0.4500   -0.7650 C   0  0  0  0  0  0  0  0  0  0  0  0
    6.8350    0.2250   -1.1180 C   0  0  0  0  0  0  0  0  0  0  0  0
    6.5270    0.2330   -2.5040 N   0  0  0  0  0  0  0  0  0  0  0  0
   -2.7580   -0.6250   -0.1890 C   0  0  2  0  0  0  0  0  0  0  0  0
   -2.7840   -2.0800    0.1780 C   0  0  0  0  0  0  0  0  0  0  0  0
   -3.7970   -2.8780   -0.4190 N   0  0  0  0  0  0  0  0  0  0  0  0
   -2.4490   -0.5780   -1.6740 C   0  0  0  0  0  0  0  0  0  0  0  0
   -2.3400    0.8420   -2.0940 C   0  0  0  0  0  0  0  0  0  0  0  0
   -3.6530    1.3360   -2.6380 C   0  0  0  0  0  0  0  0  0  0  0  0
   -4.8560    0.6040   -2.1740 C   0  0  0  0  0  0  0  0  0  0  0  0
   -5.0520    0.3770   -0.7540 C   0  0  0  0  0  0  0  0  0  0  0  0
   -3.9140    0.1930    0.1760 C   0  0  0  0  0  0  0  0  0  0  0  0
  1  2  1  0
  2  3  1  0
  3  4  1  0
  4  5  1  0
  5  6  1  0
  5 20  1  0
  6  7  1  0
  7  8  1  0
  8  9  1  0
  9 10  2  0
  9 11  1  0
 11 12  1  0
 12 13  1  0
 12 18  1  0
 13 14  2  0
 14 15  1  0
 14 16  1  0
 15 16  2  0
 16 17  1  0
 17 18  2  0
 18 19  1  0
 20 21  1  1
 20 23  1  0
 20 28  1  0
 21 22  1  0
 23 24  1  0
 24 25  1  0
 25 26  1  0
 26 27  1  0
 27 28  1  0
M  CHG  1  22   1
M  END
