
     RDKit          3D

 36 39  0  0  0  0  0  0  0  0999 V2000
   -6.1630   -3.7040    3.0100 C   0  0  0  0  0  0  0  0  0  0  0  0
   -5.0690   -3.4150    2.0400 C   0  0  1  0  0  0  0  0  0  0  0  0
   -5.5130   -3.6480    0.5980 C   0  0  0  0  0  0  0  0  0  0  0  0
   -5.8970   -5.0450    0.5000 N   0  0  0  0  0  0  0  0  0  0  0  0
   -4.5320   -2.0480    2.1720 N   0  0  0  0  0  0  0  0  0  0  0  0
   -3.1470   -2.1030    1.8490 C   0  0  0  0  0  0  0  0  0  0  0  0
   -2.6550   -0.8630    1.1950 C   0  0  0  0  0  0  0  0  0  0  0  0
   -3.3670    0.3160    1.1380 C   0  0  0  0  0  0  0  0  0  0  0  0
   -2.8880    1.4560    0.5130 C   0  0  0  0  0  0  0  0  0  0  0  0
   -1.6480    1.4470   -0.0860 C   0  0  0  0  0  0  0  0  0  0  0  0
   -0.9190    0.2740   -0.0380 C   0  0  0  0  0  0  0  0  0  0  0  0
   -1.4030   -0.8590    0.5850 C   0  0  0  0  0  0  0  0  0  0  0  0
    0.2670    0.5580   -0.7150 C   0  0  0  0  0  0  0  0  0  0  0  0
    1.3340   -0.4080   -0.9020 C   0  0  0  0  0  0  0  0  0  0  0  0
    1.3090   -1.1420   -1.9210 O   0  0  0  0  0  0  0  0  0  0  0  0
    2.3880   -0.5300    0.0430 N   0  0  0  0  0  0  0  0  0  0  0  0
    2.4860    0.2840    1.2390 C   0  0  0  0  0  0  0  0  0  0  0  0
    3.7190    1.1440    1.0490 C   0  0  0  0  0  0  0  0  0  0  0  0
    4.5290    0.7360   -0.1600 C   0  0  0  0  0  0  0  0  0  0  0  0
    4.7600   -0.7470   -0.2520 C   0  0  1  0  0  0  0  0  0  0  0  0
    5.3180   -1.0480   -1.6290 C   0  0  0  0  0  0  0  0  0  0  0  0
    5.6040   -2.5210   -1.8080 C   0  0  0  0  0  0  0  0  0  0  0  0
    6.4170   -3.1180   -0.7110 C   0  0  0  0  0  0  0  0  0  0  0  0
    6.0080   -2.6790    0.6710 C   0  0  0  0  0  0  0  0  0  0  0  0
    5.7870   -1.1960    0.7530 C   0  0  2  0  0  0  0  0  0  0  0  0
    5.5050   -0.8200    2.0400 O   0  0  0  0  0  0  0  0  0  0  0  0
    3.4560   -1.4980   -0.1360 C   0  0  0  0  0  0  0  0  0  0  0  0
    0.2210    1.8740   -1.1450 C   0  0  0  0  0  0  0  0  0  0  0  0
   -0.9510    2.3800   -0.7470 N   0  0  0  0  0  0  0  0  0  0  0  0
   -1.4010    3.7610   -1.0000 C   0  0  1  0  0  0  0  0  0  0  0  0
   -0.2590    4.7130   -0.8370 C   0  0  0  0  0  0  0  0  0  0  0  0
   -2.2040    3.8400   -2.2330 C   0  0  0  0  0  0  0  0  0  0  0  0
   -2.7000    5.2070   -2.5600 C   0  0  0  0  0  0  0  0  0  0  0  0
   -1.6840    6.2000   -2.9010 C   0  0  0  0  0  0  0  0  0  0  0  0
   -1.9100    7.5750   -2.6310 N   0  0  0  0  0  0  0  0  0  0  0  0
   -0.6100    5.8620   -3.4390 O   0  0  0  0  0  0  0  0  0  0  0  0
  2  1  1  1
  2  3  1  0
  2  5  1  0
  3  4  1  0
  5  6  1  0
  6  7  1  0
  7  8  2  0
  7 12  1  0
  8  9  1  0
  9 10  2  0
 10 11  1  0
 10 29  1  0
 11 12  2  0
 11 13  1  0
 13 14  1  0
 13 28  2  0
 14 15  2  0
 14 16  1  0
 16 17  1  0
 16 27  1  0
 17 18  1  0
 18 19  1  0
 20 19  1  6
 20 21  1  0
 20 25  1  0
 20 27  1  0
 21 22  1  0
 22 23  1  0
 23 24  1  0
 24 25  1  0
 25 26  1  1
 28 29  1  0
 29 30  1  0
 30 31  1  6
 30 32  1  0
 32 33  1  0
 33 34  1  0
 34 35  1  0
 34 36  2  0
M  CHG  2   4   1   5   1
M  END
