
     RDKit          3D

 36 39  0  0  0  0  0  0  0  0999 V2000
    3.9880    0.4960   -2.0430 C   0  0  0  0  0  0  0  0  0  0  0  0
    4.3400    1.0350   -0.6250 C   0  0  1  0  0  0  0  0  0  0  0  0
    3.3480    2.0600   -0.2490 C   0  0  0  0  0  0  0  0  0  0  0  0
    1.9830    1.7000   -0.1750 N   0  0  0  0  0  0  0  0  0  0  0  0
    1.3390    0.8440    0.7380 C   0  0  0  0  0  0  0  0  0  0  0  0
    1.9790    0.2960    1.6560 O   0  0  0  0  0  0  0  0  0  0  0  0
   -0.0690    0.5730    0.6450 C   0  0  0  0  0  0  0  0  0  0  0  0
   -0.5910   -0.6030    1.2020 C   0  0  0  0  0  0  0  0  0  0  0  0
   -1.9300   -0.8400    1.1170 C   0  0  0  0  0  0  0  0  0  0  0  0
   -2.7940    0.0490    0.4930 C   0  0  0  0  0  0  0  0  0  0  0  0
   -4.1750   -0.1880    0.4020 N   0  0  0  0  0  0  0  0  0  0  0  0
   -4.8330   -1.3870    0.9150 C   0  0  0  0  0  0  0  0  0  0  0  0
   -6.3300   -1.1680    0.6370 C   0  0  2  0  0  0  0  0  0  0  0  0
   -7.1150   -1.6010    1.8820 C   0  0  0  0  0  0  0  0  0  0  0  0
   -6.7730   -1.9780   -0.5010 C   0  0  0  0  0  0  0  0  0  0  0  0
   -6.7100   -1.3580   -1.8390 C   0  0  0  0  0  0  0  0  0  0  0  0
   -6.0890   -1.9610   -2.7420 O   0  0  0  0  0  0  0  0  0  0  0  0
   -7.3010   -0.1200   -2.1960 N   0  0  0  0  0  0  0  0  0  0  0  0
   -7.6820    0.9650   -1.3590 C   0  0  0  0  0  0  0  0  0  0  0  0
   -8.0860    2.0570   -1.9300 N   0  0  0  0  0  0  0  0  0  0  0  0
   -7.6530    0.9410    0.1270 C   0  0  0  0  0  0  0  0  0  0  0  0
   -6.3950    0.3010    0.5690 C   0  0  1  0  0  0  0  0  0  0  0  0
   -6.1660    0.7790    1.8880 O   0  0  0  0  0  0  0  0  0  0  0  0
   -5.1550    0.7020   -0.1990 C   0  0  0  0  0  0  0  0  0  0  0  0
   -2.2690    1.1990   -0.0500 C   0  0  0  0  0  0  0  0  0  0  0  0
   -0.9210    1.4460    0.0320 C   0  0  0  0  0  0  0  0  0  0  0  0
    4.5870   -0.0720    0.3080 C   0  0  0  0  0  0  0  0  0  0  0  0
    5.7610   -0.8950   -0.1090 C   0  0  0  0  0  0  0  0  0  0  0  0
    5.4920   -1.9570   -0.9830 C   0  0  0  0  0  0  0  0  0  0  0  0
    6.5020   -2.7590   -1.4630 C   0  0  0  0  0  0  0  0  0  0  0  0
    7.7790   -2.4850   -1.0570 C   0  0  0  0  0  0  0  0  0  0  0  0
    8.0610   -1.4460   -0.1980 C   0  0  0  0  0  0  0  0  0  0  0  0
    7.0310   -0.6340    0.2880 C   0  0  0  0  0  0  0  0  0  0  0  0
    7.3760    0.4410    1.2130 C   0  0  1  0  0  0  0  0  0  0  0  0
    8.7820    0.1170    1.7820 C   0  0  0  0  0  0  0  0  0  0  0  0
    7.5960    1.6890    0.4910 N   0  0  0  0  0  0  0  0  0  0  0  0
  2  1  1  6
  2  3  1  0
  2 27  1  0
  3  4  1  0
  4  5  1  0
  5  6  2  0
  5  7  1  0
  7  8  2  0
  7 26  1  0
  8  9  1  0
  9 10  2  0
 10 11  1  0
 10 25  1  0
 11 12  1  0
 11 24  1  0
 12 13  1  0
 13 14  1  1
 13 15  1  0
 13 22  1  0
 15 16  1  0
 16 17  2  0
 16 18  1  0
 18 19  1  0
 19 20  2  0
 19 21  1  0
 21 22  1  0
 22 23  1  1
 22 24  1  0
 25 26  2  0
 27 28  1  0
 28 29  2  0
 28 33  1  0
 29 30  1  0
 30 31  2  0
 31 32  1  0
 32 33  2  0
 33 34  1  0
 34 35  1  6
 34 36  1  0
M  CHG  2  20   1  36   1
M  END
