
     RDKit          3D

 23 23  0  0  0  0  0  0  0  0999 V2000
   -1.7630   -2.8980   -0.5250 C   0  0  0  0  0  0  0  0  0  0  0  0
   -1.3090   -1.7850    0.3240 N   0  0  0  0  0  0  0  0  0  0  0  0
   -2.3310   -0.8490    0.7810 C   0  0  0  0  0  0  0  0  0  0  0  0
   -3.2100   -0.0420   -0.6170 P   0  0  0  0  0  0  0  0  0  0  0  0
   -4.9310   -0.0140   -0.4050 O   0  0  0  0  0  0  0  0  0  0  0  0
   -5.3530   -0.8950    0.4600 O   0  0  0  0  0  0  0  0  0  0  0  0
   -5.5360   -2.0310   -0.1940 O   0  0  0  0  0  0  0  0  0  0  0  0
   -2.6790    1.5430   -0.9530 O   0  0  0  0  0  0  0  0  0  0  0  0
   -2.5440    2.3400    0.1780 C   0  0  0  0  0  0  0  0  0  0  0  0
   -1.3700    3.2690   -0.0920 C   0  0  0  0  0  0  0  0  0  0  0  0
   -0.1000    2.5280    0.3490 C   0  0  0  0  0  0  0  0  0  0  0  0
    0.1980    1.5890   -0.6550 O   0  0  0  0  0  0  0  0  0  0  0  0
    0.9820    0.4770   -0.4860 C   0  0  0  0  0  0  0  0  0  0  0  0
    1.2060   -0.3490   -1.3980 O   0  0  0  0  0  0  0  0  0  0  0  0
    1.6020    0.2230    0.8330 C   0  0  2  0  0  0  0  0  0  0  0  0
    2.8630   -0.4100    0.6260 N   0  0  0  0  0  0  0  0  0  0  0  0
    3.8390    0.3400   -0.0900 C   0  0  0  0  0  0  0  0  0  0  0  0
    5.3680   -0.7360   -0.2090 P   0  0  0  0  0  0  0  0  0  0  0  0
    6.5870   -0.0730    0.8300 O   0  0  0  0  0  0  0  0  0  0  0  0
    5.9370   -0.7480   -1.8260 O   0  0  0  0  0  0  0  0  0  0  0  0
    0.6750   -0.7490    1.5690 C   0  0  0  0  0  0  0  0  0  0  0  0
    0.0540   -1.6970    0.6340 C   0  0  0  0  0  0  0  0  0  0  0  0
    0.8550   -2.5130    0.0590 O   0  0  0  0  0  0  0  0  0  0  0  0
  1  2  1  0
  2  3  1  0
  2 22  1  0
  3  4  1  0
  4  5  1  0
  4  8  1  0
  5  6  1  0
  6  7  1  0
  8  9  1  0
  9 10  1  0
 10 11  1  0
 11 12  1  0
 12 13  1  0
 13 14  2  0
 13 15  1  0
 15 16  1  6
 15 21  1  0
 16 17  1  0
 17 18  1  0
 18 19  1  0
 18 20  1  0
 21 22  1  0
 22 23  2  0
M  END
