
     RDKit          3D

 25 27  0  0  0  0  0  0  0  0999 V2000
   -6.4990    3.2650    1.0050 O   0  0  0  0  0  0  0  0  0  0  0  0
   -5.1550    3.3230    1.7680 P   0  0  0  0  0  0  0  0  0  0  0  0
   -3.9110    1.5850    2.1900 P   0  0  0  0  0  0  0  0  0  0  0  0
   -4.7240    0.5830    3.3510 O   0  0  0  0  0  0  0  0  0  0  0  0
   -3.5430    0.6580    0.6480 C   0  0  0  0  0  0  0  0  0  0  0  0
   -4.5210    0.0030   -0.0640 C   0  0  0  0  0  0  0  0  0  0  0  0
   -4.2240   -0.6870   -1.2200 C   0  0  0  0  0  0  0  0  0  0  0  0
   -2.9410   -0.7600   -1.7220 C   0  0  0  0  0  0  0  0  0  0  0  0
   -2.6580   -1.4590   -2.8870 O   0  0  0  0  0  0  0  0  0  0  0  0
   -1.9580   -0.0950   -0.9960 C   0  0  0  0  0  0  0  0  0  0  0  0
   -2.2490    0.6020    0.1680 C   0  0  0  0  0  0  0  0  0  0  0  0
   -1.2160    1.2850    0.8900 N   0  0  0  0  0  0  0  0  0  0  0  0
    0.1610    1.2380    0.4920 C   0  0  0  0  0  0  0  0  0  0  0  0
    0.7280   -0.1280    0.5880 C   0  0  0  0  0  0  0  0  0  0  0  0
    0.0060   -1.0530    0.9900 O   0  0  0  0  0  0  0  0  0  0  0  0
    2.0760   -0.3340    0.2190 N   0  0  0  0  0  0  0  0  0  0  0  0
    2.5170   -1.7200    0.3580 C   0  0  0  0  0  0  0  0  0  0  0  0
    2.5990   -2.2970   -1.0390 C   0  0  0  0  0  0  0  0  0  0  0  0
    4.1400   -1.8160   -1.8640 S   0  0  0  0  0  0  0  0  0  0  0  0
    4.8590   -0.3730   -1.1030 C   0  0  0  0  0  0  0  0  0  0  0  0
    6.1960   -0.1390   -1.0930 C   0  0  0  0  0  0  0  0  0  0  0  0
    6.3480    1.0120   -0.4460 O   0  0  0  0  0  0  0  0  0  0  0  0
    5.1960    1.4830   -0.0680 N   0  0  0  0  0  0  0  0  0  0  0  0
    4.2150    0.6440   -0.4590 C   0  0  0  0  0  0  0  0  0  0  0  0
    2.7820    0.8240   -0.2230 C   0  0  0  0  0  0  0  0  0  0  0  0
  1  2  2  0
  2  3  1  0
  3  4  1  0
  3  5  1  0
  5  6  2  0
  5 11  1  0
  6  7  1  0
  7  8  2  0
  8  9  1  0
  8 10  1  0
 10 11  2  0
 11 12  1  0
 12 13  1  0
 13 14  1  0
 14 15  2  0
 14 16  1  0
 16 17  1  0
 16 25  1  0
 17 18  1  0
 18 19  1  0
 19 20  1  0
 20 21  2  0
 20 24  1  0
 21 22  1  0
 22 23  1  0
 23 24  2  0
 24 25  1  0
M  END
