
     RDKit          3D

 23 24  0  0  0  0  0  0  0  0999 V2000
   -4.0030   -3.6690    1.2660 O   0  0  0  0  0  0  0  0  0  0  0  0
   -3.5790   -2.5650    1.6720 C   0  0  0  0  0  0  0  0  0  0  0  0
   -2.5510   -1.8440    1.0130 N   0  0  0  0  0  0  0  0  0  0  0  0
   -1.8840   -2.3020   -0.1920 C   0  0  0  0  0  0  0  0  0  0  0  0
   -1.2790   -1.0180   -0.7420 C   0  0  2  0  0  0  0  0  0  0  0  0
   -2.2520   -0.2910   -1.4030 O   0  0  0  0  0  0  0  0  0  0  0  0
   -3.5860    0.2040   -0.4710 P   0  0  0  0  0  0  0  0  0  0  0  0
   -3.8100    1.9210   -0.7900 O   0  0  0  0  0  0  0  0  0  0  0  0
   -5.0290   -0.5870   -1.0240 O   0  0  0  0  0  0  0  0  0  0  0  0
   -0.3260   -1.3840   -1.6410 O   0  0  0  0  0  0  0  0  0  0  0  0
    0.9200   -0.8440   -1.5220 C   0  0  0  0  0  0  0  0  0  0  0  0
    0.9290    0.6630   -1.4180 C   0  0  0  0  0  0  0  0  0  0  0  0
    0.9180    1.1750   -0.1070 N   0  0  0  0  0  0  0  0  0  0  0  0
    1.9660    0.9010    0.7810 C   0  0  0  0  0  0  0  0  0  0  0  0
    3.2980    1.5170    0.4860 C   0  0  1  0  0  0  0  0  0  0  0  0
    4.1790    1.1170    1.5210 O   0  0  0  0  0  0  0  0  0  0  0  0
    4.0790    0.8890   -1.0800 P   0  0  0  0  0  0  0  0  0  0  0  0
    5.0700   -0.4980   -0.8070 O   0  0  0  0  0  0  0  0  0  0  0  0
    4.9480    2.1610   -1.8810 O   0  0  0  0  0  0  0  0  0  0  0  0
   -0.4080    1.0350    0.4450 C   0  0  0  0  0  0  0  0  0  0  0  0
   -0.8090   -0.3800    0.5240 C   0  0  1  0  0  0  0  0  0  0  0  0
   -2.0130   -0.5830    1.4090 C   0  0  0  0  0  0  0  0  0  0  0  0
   -2.4160    0.1990    2.2810 O   0  0  0  0  0  0  0  0  0  0  0  0
  1  2  2  0
  2  3  1  0
  3  4  1  0
  3 22  1  0
  4  5  1  0
  5  6  1  6
  5 10  1  0
  5 21  1  0
  6  7  1  0
  7  8  1  0
  7  9  1  0
 10 11  1  0
 11 12  1  0
 12 13  1  0
 13 14  1  0
 13 20  1  0
 14 15  1  0
 15 16  1  1
 15 17  1  0
 17 18  1  0
 17 19  1  0
 21 20  1  6
 21 22  1  0
 22 23  2  0
M  END
