
     RDKit          3D

 23 24  0  0  0  0  0  0  0  0999 V2000
    4.4540    2.4380   -0.0620 O   0  0  0  0  0  0  0  0  0  0  0  0
    5.3960    1.6280   -0.2480 C   0  0  0  0  0  0  0  0  0  0  0  0
    6.5790    2.1040   -0.7930 O   0  0  0  0  0  0  0  0  0  0  0  0
    5.2340    0.2940    0.0910 O   0  0  0  0  0  0  0  0  0  0  0  0
    4.0550   -0.2290    0.6440 C   0  0  0  0  0  0  0  0  0  0  0  0
    2.8890   -0.0380   -0.2570 C   0  0  0  0  0  0  0  0  0  0  0  0
    3.1000    0.5470   -1.3540 O   0  0  0  0  0  0  0  0  0  0  0  0
    1.6040   -0.5040    0.1270 N   0  0  0  0  0  0  0  0  0  0  0  0
    0.5130   -0.2880   -0.7900 C   0  0  0  0  0  0  0  0  0  0  0  0
   -0.8070   -0.7390   -0.3060 C   0  0  2  0  0  0  0  0  0  0  0  0
   -1.6990   -0.9610   -1.5160 C   0  0  0  0  0  0  0  0  0  0  0  0
   -1.8970    0.4240   -2.0590 C   0  0  0  0  0  0  0  0  0  0  0  0
   -2.5300    1.1810   -1.0910 O   0  0  0  0  0  0  0  0  0  0  0  0
   -1.7920    0.6940    0.4270 P   0  0  0  0  0  0  0  0  0  0  0  0
   -3.0700    0.0390    1.4040 O   0  0  0  0  0  0  0  0  0  0  0  0
   -4.6100    0.1640    0.6440 P   0  0  0  0  0  0  0  0  0  0  0  0
   -5.7210   -1.0340    1.1640 O   0  0  0  0  0  0  0  0  0  0  0  0
   -5.2670    1.7530    0.7130 O   0  0  0  0  0  0  0  0  0  0  0  0
   -4.9030    2.4040   -0.3670 O   0  0  0  0  0  0  0  0  0  0  0  0
   -0.7900   -1.9110    0.6160 C   0  0  0  0  0  0  0  0  0  0  0  0
    0.1430   -1.6740    1.6740 N   0  0  0  0  0  0  0  0  0  0  0  0
    1.4330   -1.1560    1.3750 C   0  0  0  0  0  0  0  0  0  0  0  0
    2.3380   -1.3010    2.2170 O   0  0  0  0  0  0  0  0  0  0  0  0
  1  2  2  0
  2  3  1  0
  2  4  1  0
  4  5  1  0
  5  6  1  0
  6  7  2  0
  6  8  1  0
  8  9  1  0
  8 22  1  0
 10  9  1  6
 10 11  1  0
 10 14  1  0
 10 20  1  0
 11 12  1  0
 12 13  1  0
 13 14  1  0
 14 15  1  0
 15 16  1  0
 16 17  1  0
 16 18  1  0
 18 19  1  0
 20 21  1  0
 21 22  1  0
 22 23  2  0
M  END
