
     RDKit          3D

 24 24  0  0  0  0  0  0  0  0999 V2000
    4.5810   -4.2330    2.0620 O   0  0  0  0  0  0  0  0  0  0  0  0
    3.0750   -3.8780    2.1320 P   0  0  0  0  0  0  0  0  0  0  0  0
    2.2950   -1.8480    1.9300 P   0  0  0  0  0  0  0  0  0  0  0  0
    0.8160   -1.8470    1.0620 O   0  0  0  0  0  0  0  0  0  0  0  0
    1.0390   -1.7080   -0.3020 C   0  0  0  0  0  0  0  0  0  0  0  0
   -0.2770   -1.7100   -1.0540 C   0  0  0  0  0  0  0  0  0  0  0  0
   -1.0840   -0.6080   -0.5870 N   0  0  0  0  0  0  0  0  0  0  0  0
   -2.3810   -0.3300   -1.0940 C   0  0  0  0  0  0  0  0  0  0  0  0
   -2.8380   -1.0820   -1.9870 O   0  0  0  0  0  0  0  0  0  0  0  0
   -3.1610    0.8350   -0.5590 C   0  0  2  0  0  0  0  0  0  0  0  0
   -3.4160    0.6100    0.8910 C   0  0  0  0  0  0  0  0  0  0  0  0
   -4.5420    1.1770    1.4020 O   0  0  0  0  0  0  0  0  0  0  0  0
   -5.0710    2.2300    0.7120 C   0  0  0  0  0  0  0  0  0  0  0  0
   -5.4120    1.7580   -0.6580 C   0  0  0  0  0  0  0  0  0  0  0  0
   -6.4680    2.0970   -1.2510 O   0  0  0  0  0  0  0  0  0  0  0  0
   -4.4400    0.8870   -1.2450 N   0  0  0  0  0  0  0  0  0  0  0  0
    3.4850   -0.7470    1.2600 O   0  0  0  0  0  0  0  0  0  0  0  0
    4.3490   -1.0810    0.2550 C   0  0  0  0  0  0  0  0  0  0  0  0
    4.3180   -2.2270   -0.2400 O   0  0  0  0  0  0  0  0  0  0  0  0
    5.3250   -0.1000   -0.2590 C   0  0  0  0  0  0  0  0  0  0  0  0
    5.2390    1.1380    0.3930 O   0  0  0  0  0  0  0  0  0  0  0  0
    4.1050    1.9370    0.4140 C   0  0  0  0  0  0  0  0  0  0  0  0
    3.0880    1.5190   -0.1950 O   0  0  0  0  0  0  0  0  0  0  0  0
    4.0810    3.1730    1.0880 O   0  0  0  0  0  0  0  0  0  0  0  0
  1  2  2  0
  2  3  1  0
  3  4  1  0
  3 17  1  0
  4  5  1  0
  5  6  1  0
  6  7  1  0
  7  8  1  0
  8  9  2  0
 10  8  1  6
 10 11  1  0
 10 16  1  0
 11 12  1  0
 12 13  1  0
 13 14  1  0
 14 15  2  0
 14 16  1  0
 17 18  1  0
 18 19  2  0
 18 20  1  0
 20 21  1  0
 21 22  1  0
 22 23  2  0
 22 24  1  0
M  END
