
     RDKit          3D

 23 24  0  0  0  0  0  0  0  0999 V2000
    0.8440   -2.9120   -0.9180 C   0  0  0  0  0  0  0  0  0  0  0  0
   -0.2670   -2.2070   -0.5410 O   0  0  0  0  0  0  0  0  0  0  0  0
   -0.0750   -1.0390    0.0500 N   0  0  0  0  0  0  0  0  0  0  0  0
    1.1670   -0.6970    0.6180 C   0  0  0  0  0  0  0  0  0  0  0  0
    2.0080   -1.5520    1.0090 O   0  0  0  0  0  0  0  0  0  0  0  0
    1.5250    0.7600    0.7720 C   0  0  1  0  0  0  0  0  0  0  0  0
    2.8180    1.0280    0.1810 N   0  0  0  0  0  0  0  0  0  0  0  0
    4.0000    1.5960    0.7950 C   0  0  0  0  0  0  0  0  0  0  0  0
    5.1340    1.1110   -0.0830 C   0  0  0  0  0  0  0  0  0  0  0  0
    4.5350    1.0660   -1.3630 O   0  0  0  0  0  0  0  0  0  0  0  0
    3.1820    0.7700   -1.1660 C   0  0  0  0  0  0  0  0  0  0  0  0
    2.3640    0.3350   -2.0310 O   0  0  0  0  0  0  0  0  0  0  0  0
    0.4150    1.5180    0.0670 C   0  0  0  0  0  0  0  0  0  0  0  0
   -0.7850    1.1360    0.6550 O   0  0  0  0  0  0  0  0  0  0  0  0
   -1.1650   -0.0880    0.1230 C   0  0  1  0  0  0  0  0  0  0  0  0
   -1.8300    0.1190   -1.2000 C   0  0  0  0  0  0  0  0  0  0  0  0
   -2.9400    1.1070   -1.0950 C   0  0  0  0  0  0  0  0  0  0  0  0
   -4.2970    0.6360    0.0590 P   0  0  0  0  0  0  0  0  0  0  0  0
   -5.2620    2.0700    0.3600 O   0  0  0  0  0  0  0  0  0  0  0  0
   -5.3600   -0.5650   -0.6330 O   0  0  0  0  0  0  0  0  0  0  0  0
   -2.4180   -0.8270    1.3220 P   0  0  0  0  0  0  0  0  0  0  0  0
   -3.0590   -2.2630    0.5430 O   0  0  0  0  0  0  0  0  0  0  0  0
   -1.5390   -1.3390    2.7430 O   0  0  0  0  0  0  0  0  0  0  0  0
  1  2  1  0
  2  3  1  0
  3  4  1  0
  3 15  1  0
  4  5  2  0
  4  6  1  0
  6  7  1  6
  6 13  1  0
  7  8  1  0
  7 11  1  0
  8  9  1  0
  9 10  1  0
 10 11  1  0
 11 12  2  0
 13 14  1  0
 14 15  1  0
 15 16  1  6
 15 21  1  0
 16 17  1  0
 17 18  1  0
 18 19  1  0
 18 20  1  0
 21 22  1  0
 21 23  1  0
M  END
