
     RDKit          3D

 24 25  0  0  0  0  0  0  0  0999 V2000
    1.0340   -2.3850   -0.8410 O   0  0  0  0  0  0  0  0  0  0  0  0
    0.1720   -1.5940   -0.3530 C   0  0  0  0  0  0  0  0  0  0  0  0
   -1.0200   -2.1850    0.3040 C   0  0  2  0  0  0  0  0  0  0  0  0
   -1.2490   -3.5990   -0.0950 C   0  0  0  0  0  0  0  0  0  0  0  0
   -2.2290   -3.7860   -1.0400 O   0  0  0  0  0  0  0  0  0  0  0  0
   -3.5030   -3.4290   -0.5420 C   0  0  0  0  0  0  0  0  0  0  0  0
   -3.4510   -1.9580   -0.3250 C   0  0  0  0  0  0  0  0  0  0  0  0
   -4.4820   -1.2370   -0.3240 O   0  0  0  0  0  0  0  0  0  0  0  0
   -2.1710   -1.3770   -0.1140 N   0  0  0  0  0  0  0  0  0  0  0  0
   -2.0060    0.0160   -0.3130 C   0  0  0  0  0  0  0  0  0  0  0  0
   -2.9210    0.6950   -0.8510 O   0  0  0  0  0  0  0  0  0  0  0  0
   -0.7240    0.6250    0.1350 C   0  0  2  0  0  0  0  0  0  0  0  0
   -0.6830    2.0730   -0.2310 C   0  0  0  0  0  0  0  0  0  0  0  0
   -1.7670    2.6950    0.3890 O   0  0  0  0  0  0  0  0  0  0  0  0
   -1.8630    4.3690    0.0670 P   0  0  0  0  0  0  0  0  0  0  0  0
   -2.3110    5.2720    1.4620 O   0  0  0  0  0  0  0  0  0  0  0  0
   -0.4330    4.9580   -0.6900 O   0  0  0  0  0  0  0  0  0  0  0  0
    0.3370   -0.1690   -0.4280 N   0  0  0  0  0  0  0  0  0  0  0  0
    1.5200    0.3290   -1.0450 C   0  0  0  0  0  0  0  0  0  0  0  0
    2.9150    0.5690    0.1530 P   0  0  0  0  0  0  0  0  0  0  0  0
    3.7470    2.0690   -0.1160 O   0  0  0  0  0  0  0  0  0  0  0  0
    4.1220   -0.8190    0.1090 C   0  0  0  0  0  0  0  0  0  0  0  0
    4.8960   -0.7560    1.2670 O   0  0  0  0  0  0  0  0  0  0  0  0
    5.5310    0.3990    1.3060 O   0  0  0  0  0  0  0  0  0  0  0  0
  1  2  2  0
  2  3  1  0
  2 18  1  0
  3  4  1  6
  3  9  1  0
  4  5  1  0
  5  6  1  0
  6  7  1  0
  7  8  2  0
  7  9  1  0
  9 10  1  0
 10 11  2  0
 10 12  1  0
 12 13  1  6
 12 18  1  0
 13 14  1  0
 14 15  1  0
 15 16  1  0
 15 17  1  0
 18 19  1  0
 19 20  1  0
 20 21  1  0
 20 22  1  0
 22 23  1  0
 23 24  1  0
M  END
