
     RDKit          3D

 35 37  0  0  0  0  0  0  0  0999 V2000
    1.0250   -1.1500    2.8190 O   0  0  0  0  0  0  0  0  0  0  0  0
    2.0230   -1.0910    2.0780 C   0  0  0  0  0  0  0  0  0  0  0  0
    1.8960   -1.0850    0.6730 N   0  0  0  0  0  0  0  0  0  0  0  0
    0.6880   -1.1260   -0.0690 C   0  0  1  0  0  0  0  0  0  0  0  0
    0.1430   -2.4880   -0.3070 C   0  0  0  0  0  0  0  0  0  0  0  0
    1.0750   -3.3630   -1.0570 C   0  0  0  0  0  0  0  0  0  0  0  0
    1.9670   -4.1310   -0.3570 C   0  0  0  0  0  0  0  0  0  0  0  0
    2.8380   -4.9460   -1.0630 C   0  0  0  0  0  0  0  0  0  0  0  0
    2.7780   -4.9560   -2.4420 C   0  0  0  0  0  0  0  0  0  0  0  0
    1.8860   -4.1890   -3.1520 C   0  0  0  0  0  0  0  0  0  0  0  0
    1.0230   -3.3800   -2.4230 C   0  0  0  0  0  0  0  0  0  0  0  0
   -0.4080   -0.2480    0.4580 C   0  0  0  0  0  0  0  0  0  0  0  0
   -0.2500    0.4890    1.4610 O   0  0  0  0  0  0  0  0  0  0  0  0
   -1.6900   -0.1940   -0.1440 N   0  0  0  0  0  0  0  0  0  0  0  0
   -2.7590    0.6490    0.3560 C   0  0  1  0  0  0  0  0  0  0  0  0
   -3.1400    1.6630   -0.6860 C   0  0  0  0  0  0  0  0  0  0  0  0
   -4.2360    2.5610   -0.2480 C   0  0  0  0  0  0  0  0  0  0  0  0
   -3.9640    3.7370    0.4380 C   0  0  0  0  0  0  0  0  0  0  0  0
   -5.0130    4.5500    0.8230 C   0  0  0  0  0  0  0  0  0  0  0  0
   -6.3270    4.2200    0.5410 C   0  0  0  0  0  0  0  0  0  0  0  0
   -7.3350    5.0770    0.9530 O   0  0  0  0  0  0  0  0  0  0  0  0
   -6.6220    3.0580   -0.1400 C   0  0  0  0  0  0  0  0  0  0  0  0
   -5.5520    2.2550   -0.5180 C   0  0  0  0  0  0  0  0  0  0  0  0
   -3.8670   -0.2140    0.8020 C   0  0  0  0  0  0  0  0  0  0  0  0
   -3.7670   -1.4580    0.6880 O   0  0  0  0  0  0  0  0  0  0  0  0
   -5.0360    0.2900    1.3510 O   0  0  0  0  0  0  0  0  0  0  0  0
    3.3690   -1.0250    2.6850 C   0  0  1  0  0  0  0  0  0  0  0  0
    4.5000   -2.1850    1.8910 S   0  0  0  0  0  0  0  0  0  0  0  0
    3.8850    0.3770    2.6400 C   0  0  0  0  0  0  0  0  0  0  0  0
    4.0000    0.9420    1.2910 C   0  0  0  0  0  0  0  0  0  0  0  0
    2.9980    1.7050    0.6790 C   0  0  0  0  0  0  0  0  0  0  0  0
    3.1780    2.1980   -0.5900 C   0  0  0  0  0  0  0  0  0  0  0  0
    4.3270    1.9650   -1.2900 C   0  0  0  0  0  0  0  0  0  0  0  0
    5.3300    1.2160   -0.7080 C   0  0  0  0  0  0  0  0  0  0  0  0
    5.1680    0.7080    0.5720 C   0  0  0  0  0  0  0  0  0  0  0  0
  1  2  2  0
  2  3  1  0
  2 27  1  0
  3  4  1  0
  4  5  1  1
  4 12  1  0
  5  6  1  0
  6  7  2  0
  6 11  1  0
  7  8  1  0
  8  9  2  0
  9 10  1  0
 10 11  2  0
 12 13  2  0
 12 14  1  0
 14 15  1  0
 15 16  1  6
 15 24  1  0
 16 17  1  0
 17 18  2  0
 17 23  1  0
 18 19  1  0
 19 20  2  0
 20 21  1  0
 20 22  1  0
 22 23  2  0
 24 25  2  0
 24 26  1  0
 27 28  1  6
 27 29  1  0
 29 30  1  0
 30 31  2  0
 30 35  1  0
 31 32  1  0
 32 33  2  0
 33 34  1  0
 34 35  2  0
M  END
