
     RDKit          3D

 34 37  0  0  0  0  0  0  0  0999 V2000
   -6.2250   -0.4910   -2.2870 C   0  0  0  0  0  0  0  0  0  0  0  0
   -5.2250    0.6130   -2.2470 C   0  0  0  0  0  0  0  0  0  0  0  0
   -5.1010    1.3270   -0.9540 C   0  0  0  0  0  0  0  0  0  0  0  0
   -4.7120    0.4910    0.1820 C   0  0  0  0  0  0  0  0  0  0  0  0
   -5.5660   -0.2470    0.9770 C   0  0  0  0  0  0  0  0  0  0  0  0
   -7.0260   -0.2170    0.7750 C   0  0  0  0  0  0  0  0  0  0  0  0
   -5.1020   -1.0200    1.9940 N   0  0  0  0  0  0  0  0  0  0  0  0
   -3.8140   -1.1060    2.2720 C   0  0  0  0  0  0  0  0  0  0  0  0
   -3.3430   -1.8100    3.2050 O   0  0  0  0  0  0  0  0  0  0  0  0
   -2.8910   -0.3820    1.5020 C   0  0  0  0  0  0  0  0  0  0  0  0
   -1.5490   -0.4870    1.7880 C   0  0  0  0  0  0  0  0  0  0  0  0
   -0.5870    0.1710    1.0780 C   0  0  0  0  0  0  0  0  0  0  0  0
    0.8170    0.0980    1.3070 N   0  0  0  0  0  0  0  0  0  0  0  0
    1.4870   -0.6230    2.2890 C   0  0  0  0  0  0  0  0  0  0  0  0
    0.8380   -1.3100    3.1080 O   0  0  0  0  0  0  0  0  0  0  0  0
    2.9720   -0.6400    2.4430 C   0  0  0  0  0  0  0  0  0  0  0  0
    3.6750    0.1510    1.4950 N   0  0  0  0  0  0  0  0  0  0  0  0
    4.0140    1.5210    1.6920 C   0  0  0  0  0  0  0  0  0  0  0  0
    3.3360    2.1880    2.5030 O   0  0  0  0  0  0  0  0  0  0  0  0
    5.1500    2.1120    0.9380 C   0  0  0  0  0  0  0  0  0  0  0  0
    5.1220    1.7080   -0.4500 N   0  0  1  0  0  0  0  0  0  0  0  0
    6.4120    2.0410   -1.0410 C   0  0  0  0  0  0  0  0  0  0  0  0
    4.7690    0.3500   -0.6480 C   0  0  0  0  0  0  0  0  0  0  0  0
    5.1410   -0.2450   -1.8460 C   0  0  0  0  0  0  0  0  0  0  0  0
    4.8370   -1.5630   -2.1150 C   0  0  0  0  0  0  0  0  0  0  0  0
    4.1530   -2.3520   -1.2150 C   0  0  0  0  0  0  0  0  0  0  0  0
    3.8310   -3.7290   -1.4870 C   0  0  0  0  0  0  0  0  0  0  0  0
    4.1470   -4.3160   -2.5590 O   0  0  0  0  0  0  0  0  0  0  0  0
    3.7820   -1.7650   -0.0260 C   0  0  0  0  0  0  0  0  0  0  0  0
    4.0840   -0.4300    0.2580 C   0  0  0  0  0  0  0  0  0  0  0  0
   -1.0610    0.9680    0.0300 C   0  0  0  0  0  0  0  0  0  0  0  0
    0.0820    1.8640   -0.9540 Cl  0  0  0  0  0  0  0  0  0  0  0  0
   -2.4000    1.0860   -0.2710 C   0  0  0  0  0  0  0  0  0  0  0  0
   -3.3350    0.4040    0.4730 C   0  0  0  0  0  0  0  0  0  0  0  0
  1  2  1  0
  2  3  1  0
  3  4  1  0
  4  5  2  0
  4 34  1  0
  5  6  1  0
  5  7  1  0
  7  8  1  0
  8  9  2  0
  8 10  1  0
 10 11  2  0
 10 34  1  0
 11 12  1  0
 12 13  1  0
 12 31  2  0
 13 14  1  0
 14 15  2  0
 14 16  1  0
 16 17  1  0
 17 18  1  0
 17 30  1  0
 18 19  2  0
 18 20  1  0
 20 21  1  0
 21 22  1  1
 21 23  1  0
 23 24  2  0
 23 30  1  0
 24 25  1  0
 25 26  2  0
 26 27  1  0
 26 29  1  0
 27 28  2  0
 29 30  2  0
 31 32  1  0
 31 33  1  0
 33 34  2  0
M  CHG  1  21   1
M  END
