
     RDKit          3D

 34 37  0  0  0  0  0  0  0  0999 V2000
   -5.4600    2.5570    3.9790 C   0  0  0  0  0  0  0  0  0  0  0  0
   -4.3420    1.8400    3.4960 O   0  0  0  0  0  0  0  0  0  0  0  0
   -4.4980    0.9260    2.4760 C   0  0  0  0  0  0  0  0  0  0  0  0
   -5.7430    0.7110    1.9260 C   0  0  0  0  0  0  0  0  0  0  0  0
   -5.9050   -0.2000    0.9060 C   0  0  0  0  0  0  0  0  0  0  0  0
   -7.4920   -0.4710    0.2120 Cl  0  0  0  0  0  0  0  0  0  0  0  0
   -4.8170   -0.8950    0.4390 C   0  0  0  0  0  0  0  0  0  0  0  0
   -4.9650   -1.8080   -0.5800 O   0  0  0  0  0  0  0  0  0  0  0  0
   -4.8440   -1.4910   -1.9400 C   0  0  0  0  0  0  0  0  0  0  0  0
   -5.8420   -0.4660   -2.3470 C   0  0  0  0  0  0  0  0  0  0  0  0
   -6.8280   -0.7370   -3.1100 N   0  0  0  0  0  0  0  0  0  0  0  0
   -3.5520   -0.6880    0.9860 C   0  0  0  0  0  0  0  0  0  0  0  0
   -2.4690   -1.4340    0.4750 N   0  0  0  0  0  0  0  0  0  0  0  0
   -1.0890   -1.2800    0.9160 C   0  0  2  0  0  0  0  0  0  0  0  0
   -0.5540    0.0600    0.5760 C   0  0  0  0  0  0  0  0  0  0  0  0
    0.4230    0.1520   -0.4920 C   0  0  0  0  0  0  0  0  0  0  0  0
    1.0080   -0.9320   -0.9990 C   0  0  0  0  0  0  0  0  0  0  0  0
    2.0120   -0.7080   -2.1130 C   0  0  0  0  0  0  0  0  0  0  0  0
    2.9760    0.2890   -1.5410 N   0  0  0  0  0  0  0  0  0  0  0  0
    4.3300   -0.0750   -1.4770 C   0  0  0  0  0  0  0  0  0  0  0  0
    4.5750   -1.2880   -1.9070 O   0  0  0  0  0  0  0  0  0  0  0  0
    5.4650    0.6400   -1.0330 C   0  0  0  0  0  0  0  0  0  0  0  0
    5.5070    1.8640   -0.5710 C   0  0  0  0  0  0  0  0  0  0  0  0
    6.8190    2.4700   -0.1370 C   0  0  0  0  0  0  0  0  0  0  0  0
    7.5610    1.5160    0.7750 C   0  0  0  0  0  0  0  0  0  0  0  0
    7.3600    0.0790    0.3560 C   0  0  0  0  0  0  0  0  0  0  0  0
    6.8470   -0.0200   -1.0600 C   0  0  0  0  0  0  0  0  0  0  0  0
    2.3800    1.5270   -1.1070 C   0  0  0  0  0  0  0  0  0  0  0  0
    0.8550    1.4810   -1.1070 C   0  0  0  0  0  0  0  0  0  0  0  0
    0.6700   -2.2280   -0.4820 C   0  0  0  0  0  0  0  0  0  0  0  0
    1.2240   -3.2810   -0.9580 O   0  0  0  0  0  0  0  0  0  0  0  0
   -0.2750   -2.4030    0.5590 N   0  0  0  0  0  0  0  0  0  0  0  0
   -0.4200   -3.6870    1.2530 C   0  0  0  0  0  0  0  0  0  0  0  0
   -3.3980    0.2350    2.0150 C   0  0  0  0  0  0  0  0  0  0  0  0
  1  2  1  0
  2  3  1  0
  3  4  2  0
  3 34  1  0
  4  5  1  0
  5  6  1  0
  5  7  2  0
  7  8  1  0
  7 12  1  0
  8  9  1  0
  9 10  1  0
 10 11  2  0
 12 13  1  0
 12 34  2  0
 14 13  1  6
 14 15  1  0
 14 32  1  0
 15 16  1  0
 16 17  2  0
 16 29  1  0
 17 18  1  0
 17 30  1  0
 18 19  1  0
 19 20  1  0
 19 28  1  0
 20 21  2  0
 20 22  1  0
 22 23  2  0
 22 27  1  0
 23 24  1  0
 24 25  1  0
 25 26  1  0
 26 27  1  0
 28 29  1  0
 30 31  2  0
 30 32  1  0
 32 33  1  0
M  CHG  1  11   1
M  END
