
     RDKit          3D

 34 37  0  0  0  0  0  0  0  0999 V2000
   -2.8990   -3.4610   -0.9610 C   0  0  0  0  0  0  0  0  0  0  0  0
   -3.9370   -2.4790   -0.7780 N   0  0  2  0  0  0  0  0  0  0  0  0
   -5.2170   -3.1580   -0.9050 C   0  0  0  0  0  0  0  0  0  0  0  0
   -3.8100   -1.4410   -1.7660 C   0  0  0  0  0  0  0  0  0  0  0  0
   -3.2140   -0.1790   -1.2220 C   0  0  0  0  0  0  0  0  0  0  0  0
   -1.8170   -0.4120   -0.6630 C   0  0  0  0  0  0  0  0  0  0  0  0
   -1.2410    0.7840   -0.1490 N   0  0  0  0  0  0  0  0  0  0  0  0
   -1.4740    1.1150    1.2350 C   0  0  0  0  0  0  0  0  0  0  0  0
   -1.6690    0.2420    2.1100 O   0  0  0  0  0  0  0  0  0  0  0  0
   -1.4750    2.5250    1.5870 C   0  0  0  0  0  0  0  0  0  0  0  0
   -1.6930    2.9400    2.9000 C   0  0  0  0  0  0  0  0  0  0  0  0
   -1.6890    4.2760    3.2080 C   0  0  0  0  0  0  0  0  0  0  0  0
   -1.9630    4.8130    4.8580 Cl  0  0  0  0  0  0  0  0  0  0  0  0
   -1.4690    5.2180    2.2140 C   0  0  0  0  0  0  0  0  0  0  0  0
   -1.2520    4.8220    0.9140 C   0  0  0  0  0  0  0  0  0  0  0  0
   -1.2560    3.4600    0.6040 C   0  0  0  0  0  0  0  0  0  0  0  0
   -1.0350    3.0550   -0.7160 N   0  0  0  0  0  0  0  0  0  0  0  0
   -0.4570    1.6940   -0.9670 C   0  0  2  0  0  0  0  0  0  0  0  0
   -0.6210    1.4060   -2.4010 C   0  0  0  0  0  0  0  0  0  0  0  0
    0.9400    1.7530   -0.4690 C   0  0  0  0  0  0  0  0  0  0  0  0
    1.3430    2.8700    0.0580 O   0  0  0  0  0  0  0  0  0  0  0  0
    1.9000    0.7200   -0.5020 N   0  0  0  0  0  0  0  0  0  0  0  0
    1.5740   -0.5540   -1.0520 C   0  0  0  0  0  0  0  0  0  0  0  0
    2.8140   -1.3970   -1.3260 C   0  0  0  0  0  0  0  0  0  0  0  0
    3.7330   -1.3760   -0.1690 C   0  0  0  0  0  0  0  0  0  0  0  0
    4.3850   -2.5070    0.2510 C   0  0  0  0  0  0  0  0  0  0  0  0
    4.2380   -3.7340   -0.3800 O   0  0  0  0  0  0  0  0  0  0  0  0
    5.2380   -2.4340    1.3630 C   0  0  0  0  0  0  0  0  0  0  0  0
    5.4560   -1.2690    2.0620 C   0  0  0  0  0  0  0  0  0  0  0  0
    6.3520   -1.2180    3.2200 C   0  0  0  0  0  0  0  0  0  0  0  0
    6.9660   -2.2290    3.6360 O   0  0  0  0  0  0  0  0  0  0  0  0
    4.7940   -0.1450    1.6250 C   0  0  0  0  0  0  0  0  0  0  0  0
    3.9360   -0.1870    0.5180 C   0  0  0  0  0  0  0  0  0  0  0  0
    3.2360    1.0120    0.0410 C   0  0  0  0  0  0  0  0  0  0  0  0
  2  1  1  6
  2  3  1  0
  2  4  1  0
  4  5  1  0
  5  6  1  0
  6  7  1  0
  7  8  1  0
  7 18  1  0
  8  9  2  0
  8 10  1  0
 10 11  2  0
 10 16  1  0
 11 12  1  0
 12 13  1  0
 12 14  2  0
 14 15  1  0
 15 16  2  0
 16 17  1  0
 17 18  1  0
 18 19  1  6
 18 20  1  0
 20 21  2  0
 20 22  1  0
 22 23  1  0
 22 34  1  0
 23 24  1  0
 24 25  1  0
 25 26  2  0
 25 33  1  0
 26 27  1  0
 26 28  1  0
 28 29  2  0
 29 30  1  0
 29 32  1  0
 30 31  2  0
 32 33  2  0
 33 34  1  0
M  CHG  1   2   1
M  END
