
     RDKit          3D

 34 37  0  0  0  0  0  0  0  0999 V2000
   -4.0010    7.9300    0.4120 C   0  0  0  0  0  0  0  0  0  0  0  0
   -4.1090    6.4190    0.2600 C   0  0  0  0  0  0  0  0  0  0  0  0
   -2.7400    5.8970    0.3810 C   0  0  0  0  0  0  0  0  0  0  0  0
   -1.7920    6.6110    0.7840 O   0  0  0  0  0  0  0  0  0  0  0  0
   -2.4590    4.5100    0.0120 C   0  0  0  0  0  0  0  0  0  0  0  0
   -3.3420    3.5920   -0.4210 C   0  0  0  0  0  0  0  0  0  0  0  0
   -2.6620    2.4820   -0.7140 N   0  0  0  0  0  0  0  0  0  0  0  0
   -1.3400    2.6070   -0.4960 C   0  0  0  0  0  0  0  0  0  0  0  0
   -0.2120    1.7360   -0.6400 C   0  0  0  0  0  0  0  0  0  0  0  0
    0.9470    2.3300   -0.4920 O   0  0  0  0  0  0  0  0  0  0  0  0
   -0.0800    0.3660   -0.9270 N   0  0  0  0  0  0  0  0  0  0  0  0
    1.3060   -0.0020   -1.2830 C   0  0  0  0  0  0  0  0  0  0  0  0
    2.1010   -0.4180   -0.1070 C   0  0  0  0  0  0  0  0  0  0  0  0
    1.5560   -0.8290    0.9110 O   0  0  0  0  0  0  0  0  0  0  0  0
    3.5030   -0.3310   -0.1830 O   0  0  0  0  0  0  0  0  0  0  0  0
    4.3920   -0.6860    0.8390 C   0  0  2  0  0  0  0  0  0  0  0  0
    5.1350    0.6020    1.2280 C   0  0  0  0  0  0  0  0  0  0  0  0
    5.5530    1.2200   -0.0950 C   0  0  0  0  0  0  0  0  0  0  0  0
    6.4340    0.3520   -0.8130 N   0  0  0  0  0  0  0  0  0  0  0  0
    5.8260   -0.9040   -1.1050 C   0  0  0  0  0  0  0  0  0  0  0  0
    5.4550   -1.5740    0.2270 C   0  0  0  0  0  0  0  0  0  0  0  0
   -1.0680   -0.6390   -0.6250 C   0  0  0  0  0  0  0  0  0  0  0  0
   -1.1400   -1.8210   -1.1460 C   0  0  0  0  0  0  0  0  0  0  0  0
    0.0660   -2.3170   -2.3830 Cl  0  0  0  0  0  0  0  0  0  0  0  0
   -2.0880   -2.9060   -0.7710 C   0  0  1  0  0  0  0  0  0  0  0  0
   -1.3580   -4.0750   -0.3310 N   0  0  0  0  0  0  0  0  0  0  0  0
   -1.6920   -4.6930    0.8720 C   0  0  0  0  0  0  0  0  0  0  0  0
   -2.6330   -5.8460    0.5660 C   0  0  0  0  0  0  0  0  0  0  0  0
   -2.4340   -6.0890   -0.9150 C   0  0  0  0  0  0  0  0  0  0  0  0
   -1.3220   -5.1340   -1.2900 C   0  0  0  0  0  0  0  0  0  0  0  0
   -3.1530   -2.4760    0.1180 C   0  0  0  0  0  0  0  0  0  0  0  0
   -3.0520   -1.1500    0.7530 C   0  0  0  0  0  0  0  0  0  0  0  0
   -2.1010   -0.3330    0.3920 C   0  0  0  0  0  0  0  0  0  0  0  0
   -1.2190    3.9150   -0.0270 C   0  0  0  0  0  0  0  0  0  0  0  0
  1  2  1  0
  2  3  1  0
  3  4  2  0
  3  5  1  0
  5  6  2  0
  5 34  1  0
  6  7  1  0
  7  8  1  0
  8  9  1  0
  8 34  2  0
  9 10  2  0
  9 11  1  0
 11 12  1  0
 11 22  1  0
 12 13  1  0
 13 14  2  0
 13 15  1  0
 16 15  1  6
 16 17  1  0
 16 21  1  0
 17 18  1  0
 18 19  1  0
 19 20  1  0
 20 21  1  0
 22 23  2  0
 22 33  1  0
 23 24  1  0
 23 25  1  0
 25 26  1  1
 25 31  1  0
 26 27  1  0
 26 30  1  0
 27 28  1  0
 28 29  1  0
 29 30  1  0
 31 32  1  0
 32 33  2  0
M  CHG  1  19   1
M  END
