
     RDKit          3D

 34 37  0  0  0  0  0  0  0  0999 V2000
   -7.9450   -0.4460   -2.6160 C   0  0  0  0  0  0  0  0  0  0  0  0
   -7.4000    0.3170   -1.5140 N   0  0  0  0  0  0  0  0  0  0  0  0
   -6.0390    0.1040   -1.1330 C   0  0  0  0  0  0  0  0  0  0  0  0
   -5.3830   -0.7460   -1.7870 O   0  0  0  0  0  0  0  0  0  0  0  0
   -5.4480    0.8720   -0.0050 C   0  0  1  0  0  0  0  0  0  0  0  0
   -6.3060    0.8900    1.2160 C   0  0  0  0  0  0  0  0  0  0  0  0
   -6.8900   -0.4250    1.6100 C   0  0  0  0  0  0  0  0  0  0  0  0
   -5.9610   -1.5000    1.7470 N   0  0  0  0  0  0  0  0  0  0  0  0
   -4.6420   -1.0310    2.0680 C   0  0  0  0  0  0  0  0  0  0  0  0
   -3.8880   -0.7970    0.7840 C   0  0  0  0  0  0  0  0  0  0  0  0
   -4.0890    0.4780    0.1980 N   0  0  0  0  0  0  0  0  0  0  0  0
   -3.2290    1.5280    0.6380 C   0  0  0  0  0  0  0  0  0  0  0  0
   -1.8250    1.2030    0.3580 C   0  0  0  0  0  0  0  0  0  0  0  0
   -1.0630    0.6440    1.3580 C   0  0  0  0  0  0  0  0  0  0  0  0
    0.2520    0.3340    1.1120 C   0  0  0  0  0  0  0  0  0  0  0  0
    0.8650    0.5540   -0.1020 C   0  0  0  0  0  0  0  0  0  0  0  0
    2.2690    0.2140   -0.3390 C   0  0  0  0  0  0  0  0  0  0  0  0
    2.7880    0.4320   -1.4590 O   0  0  0  0  0  0  0  0  0  0  0  0
    3.0570   -0.3490    0.6510 O   0  0  0  0  0  0  0  0  0  0  0  0
    4.4310   -0.6820    0.4230 C   0  0  0  0  0  0  0  0  0  0  0  0
    5.1530    0.5550    0.0650 C   0  0  0  0  0  0  0  0  0  0  0  0
    4.5050    1.6440    0.1220 O   0  0  0  0  0  0  0  0  0  0  0  0
    6.5150    0.5570   -0.3300 N   0  0  0  0  0  0  0  0  0  0  0  0
    7.2130    1.8150   -0.6090 C   0  0  0  0  0  0  0  0  0  0  0  0
    8.3340    1.4060   -1.5050 C   0  0  0  0  0  0  0  0  0  0  0  0
    8.5630   -0.0540   -1.2290 C   0  0  0  0  0  0  0  0  0  0  0  0
    9.6170   -0.8820   -1.5550 C   0  0  0  0  0  0  0  0  0  0  0  0
    9.5910   -2.2100   -1.1840 C   0  0  0  0  0  0  0  0  0  0  0  0
   10.9220   -3.2820   -1.5900 Cl  0  0  0  0  0  0  0  0  0  0  0  0
    8.4890   -2.6510   -0.4900 C   0  0  0  0  0  0  0  0  0  0  0  0
    7.4270   -1.8080   -0.1630 C   0  0  0  0  0  0  0  0  0  0  0  0
    7.4460   -0.4770   -0.5320 C   0  0  0  0  0  0  0  0  0  0  0  0
    0.1050    1.1130   -1.1060 C   0  0  0  0  0  0  0  0  0  0  0  0
   -1.2300    1.4360   -0.8800 C   0  0  0  0  0  0  0  0  0  0  0  0
  1  2  1  0
  2  3  1  0
  3  4  2  0
  5  3  1  6
  5  6  1  0
  5 11  1  0
  6  7  1  0
  7  8  1  0
  8  9  1  0
  9 10  1  0
 10 11  1  0
 11 12  1  0
 12 13  1  0
 13 14  2  0
 13 34  1  0
 14 15  1  0
 15 16  2  0
 16 17  1  0
 16 33  1  0
 17 18  2  0
 17 19  1  0
 19 20  1  0
 20 21  1  0
 21 22  2  0
 21 23  1  0
 23 24  1  0
 23 32  1  0
 24 25  1  0
 25 26  1  0
 26 27  2  0
 26 32  1  0
 27 28  1  0
 28 29  1  0
 28 30  2  0
 30 31  1  0
 31 32  2  0
 33 34  2  0
M  CHG  1   8   1
M  END
