
     RDKit          3D

 33 36  0  0  0  0  0  0  0  0999 V2000
    2.1010    2.5080   -3.1140 C   0  0  0  0  0  0  0  0  0  0  0  0
    0.9420    1.6010   -2.9720 C   0  0  0  0  0  0  0  0  0  0  0  0
   -0.2430    1.8840   -3.5300 N   0  0  0  0  0  0  0  0  0  0  0  0
   -1.2830    1.0640   -3.4000 C   0  0  0  0  0  0  0  0  0  0  0  0
   -2.4130    1.3230   -3.9260 O   0  0  0  0  0  0  0  0  0  0  0  0
   -1.1980   -0.0950   -2.6970 N   0  0  0  0  0  0  0  0  0  0  0  0
   -2.3180   -0.9780   -2.6010 C   0  0  0  0  0  0  0  0  0  0  0  0
   -3.3100   -0.6790   -1.5590 C   0  0  0  0  0  0  0  0  0  0  0  0
   -4.5040   -0.0360   -1.9380 C   0  0  0  0  0  0  0  0  0  0  0  0
   -5.4910    0.3040   -1.0620 C   0  0  0  0  0  0  0  0  0  0  0  0
   -6.6900    0.9490   -1.4370 N   0  0  0  0  0  0  0  0  0  0  0  0
   -5.3350    0.0110    0.2780 C   0  0  0  0  0  0  0  0  0  0  0  0
   -4.1950   -0.6160    0.7100 C   0  0  0  0  0  0  0  0  0  0  0  0
   -3.2030   -0.9490   -0.2210 C   0  0  0  0  0  0  0  0  0  0  0  0
   -1.7740   -1.7950    0.3980 Cl  0  0  0  0  0  0  0  0  0  0  0  0
   -3.9680   -0.9610    2.1590 C   0  0  0  0  0  0  0  0  0  0  0  0
   -5.3440   -1.1520    2.7690 C   0  0  1  0  0  0  0  0  0  0  0  0
   -5.2710   -1.5690    4.2130 C   0  0  0  0  0  0  0  0  0  0  0  0
   -6.0670    0.1880    2.6200 C   0  0  0  0  0  0  0  0  0  0  0  0
   -6.3650    0.3620    1.2150 N   0  0  0  0  0  0  0  0  0  0  0  0
    0.0030   -0.3910   -2.1280 C   0  0  0  0  0  0  0  0  0  0  0  0
    1.1030    0.4290   -2.2380 C   0  0  0  0  0  0  0  0  0  0  0  0
    2.3790    0.1010   -1.6250 C   0  0  0  0  0  0  0  0  0  0  0  0
    2.5880   -0.9850   -0.9220 C   0  0  0  0  0  0  0  0  0  0  0  0
    3.9160   -1.2310   -0.3400 C   0  0  0  0  0  0  0  0  0  0  0  0
    4.1310   -2.2630    0.3330 O   0  0  0  0  0  0  0  0  0  0  0  0
    4.9620   -0.3490   -0.5070 O   0  0  0  0  0  0  0  0  0  0  0  0
    6.2550   -0.5250    0.0240 C   0  0  0  0  0  0  0  0  0  0  0  0
    6.2550   -0.6060    1.5310 C   0  0  1  0  0  0  0  0  0  0  0  0
    7.6810   -0.7140    2.0660 C   0  0  0  0  0  0  0  0  0  0  0  0
    8.0780    0.7620    2.0760 C   0  0  0  0  0  0  0  0  0  0  0  0
    6.7550    1.4660    2.1220 C   0  0  0  0  0  0  0  0  0  0  0  0
    5.7500    0.5210    2.1300 O   0  0  0  0  0  0  0  0  0  0  0  0
  1  2  1  0
  2  3  2  0
  2 22  1  0
  3  4  1  0
  4  5  2  0
  4  6  1  0
  6  7  1  0
  6 21  1  0
  7  8  1  0
  8  9  2  0
  8 14  1  0
  9 10  1  0
 10 11  1  0
 10 12  2  0
 12 13  1  0
 12 20  1  0
 13 14  2  0
 13 16  1  0
 14 15  1  0
 16 17  1  0
 17 18  1  1
 17 19  1  0
 19 20  1  0
 21 22  2  0
 22 23  1  0
 23 24  2  3
 24 25  1  0
 25 26  2  0
 25 27  1  0
 27 28  1  0
 29 28  1  6
 29 30  1  0
 29 33  1  0
 30 31  1  0
 31 32  1  0
 32 33  1  0
M  CHG  1   3   1
M  END
