
     RDKit          3D

 19 21  0  0  0  0  0  0  0  0999 V2000
   -3.1380   -2.1790    1.1670 C   0  0  0  0  0  0  0  0  0  0  0  0
   -3.0140   -0.8230    0.6670 N   0  0  0  0  0  0  0  0  0  0  0  0
   -1.7610   -0.2410    0.2690 C   0  0  0  0  0  0  0  0  0  0  0  0
   -1.6680    1.0040   -0.1730 C   0  0  0  0  0  0  0  0  0  0  0  0
   -0.3580    1.5040   -0.5530 C   0  0  0  0  0  0  0  0  0  0  0  0
   -0.2100    2.6840   -0.9720 N   0  0  0  0  0  0  0  0  0  0  0  0
    0.7440    0.5940   -0.4280 N   0  0  0  0  0  0  0  0  0  0  0  0
    0.9860   -0.2690   -1.5520 C   0  0  0  0  0  0  0  0  0  0  0  0
    2.0060   -1.3350   -1.2830 C   0  0  0  0  0  0  0  0  0  0  0  0
    3.1020   -0.8790   -0.3960 C   0  0  0  0  0  0  0  0  0  0  0  0
    4.3680   -1.2490   -0.3970 C   0  0  0  0  0  0  0  0  0  0  0  0
    5.0660   -0.5130    0.6780 C   0  0  0  0  0  0  0  0  0  0  0  0
    3.9890    0.3180    1.2690 C   0  0  0  0  0  0  0  0  0  0  0  0
    2.8620    0.1060    0.6510 C   0  0  0  0  0  0  0  0  0  0  0  0
    1.4880    0.6350    0.7990 C   0  0  0  0  0  0  0  0  0  0  0  0
   -2.8550    1.8630   -0.2620 C   0  0  0  0  0  0  0  0  0  0  0  0
   -4.1110    1.0500   -0.4810 C   0  0  0  0  0  0  0  0  0  0  0  0
   -4.1670    0.0030    0.5630 C   0  0  0  0  0  0  0  0  0  0  0  0
   -5.1520   -0.1630    1.3150 O   0  0  0  0  0  0  0  0  0  0  0  0
  1  2  1  0
  2  3  1  0
  2 18  1  0
  3  4  2  0
  4  5  1  0
  4 16  1  0
  5  6  2  0
  5  7  1  0
  7  8  1  0
  7 15  1  0
  8  9  1  0
  9 10  1  0
 10 11  2  0
 10 14  1  0
 11 12  1  0
 12 13  1  0
 13 14  2  0
 14 15  1  0
 16 17  1  0
 17 18  1  0
 18 19  2  0
M  END
