
     RDKit          3D

 19 21  0  0  0  0  0  0  0  0999 V2000
   -5.5090    0.3340   -0.4280 C   0  0  0  0  0  0  0  0  0  0  0  0
   -4.4880   -0.4820   -0.2500 C   0  0  0  0  0  0  0  0  0  0  0  0
   -3.2720    0.3370   -0.2130 C   0  0  0  0  0  0  0  0  0  0  0  0
   -1.9370   -0.1960   -0.0260 C   0  0  0  0  0  0  0  0  0  0  0  0
   -1.9330   -1.5070    0.1170 N   0  0  0  0  0  0  0  0  0  0  0  0
   -0.8300   -2.3970    0.3210 C   0  0  0  0  0  0  0  0  0  0  0  0
    0.4610   -2.3230    0.3250 N   0  0  0  0  0  0  0  0  0  0  0  0
    1.4500   -1.2870    0.1210 C   0  0  0  0  0  0  0  0  0  0  0  0
    2.6530   -1.5700    0.5170 C   0  0  0  0  0  0  0  0  0  0  0  0
    3.7760   -0.6740    0.4090 C   0  0  0  0  0  0  0  0  0  0  0  0
    5.0000   -1.0520   -0.1140 C   0  0  0  0  0  0  0  0  0  0  0  0
    5.8190    0.0490   -0.0560 C   0  0  0  0  0  0  0  0  0  0  0  0
    5.0800    1.0630    0.4960 C   0  0  0  0  0  0  0  0  0  0  0  0
    3.9050    0.5910    0.7460 O   0  0  0  0  0  0  0  0  0  0  0  0
    1.3200    0.0420   -0.4990 C   0  0  0  0  0  0  0  0  0  0  0  0
    0.4440    0.8810    0.4200 C   0  0  0  0  0  0  0  0  0  0  0  0
   -0.9370    0.7960   -0.0550 N   0  0  0  0  0  0  0  0  0  0  0  0
   -3.5640    1.6090   -0.3660 C   0  0  0  0  0  0  0  0  0  0  0  0
   -5.0370    1.7110   -0.5180 C   0  0  0  0  0  0  0  0  0  0  0  0
  1  2  2  0
  1 19  1  0
  2  3  1  0
  3  4  1  0
  3 18  2  0
  4  5  2  0
  4 17  1  0
  5  6  1  0
  6  7  2  0
  7  8  1  0
  8  9  2  3
  8 15  1  0
  9 10  1  0
 10 11  2  0
 10 14  1  0
 11 12  1  0
 12 13  2  0
 13 14  1  0
 15 16  1  0
 16 17  1  0
 18 19  1  0
M  END
