
     RDKit          3D

 19 21  0  0  0  0  0  0  0  0999 V2000
   -4.6600   -1.0070    1.1760 C   0  0  0  0  0  0  0  0  0  0  0  0
   -4.4830   -0.0350    0.0460 C   0  0  0  0  0  0  0  0  0  0  0  0
   -3.2090    0.7170    0.2200 C   0  0  0  0  0  0  0  0  0  0  0  0
   -3.0570    1.8770    0.8850 N   0  0  0  0  0  0  0  0  0  0  0  0
   -1.7690    2.2660    0.8390 C   0  0  0  0  0  0  0  0  0  0  0  0
   -1.0880    1.2910    0.1040 C   0  0  0  0  0  0  0  0  0  0  0  0
   -1.9780    0.3780   -0.2510 N   0  0  0  0  0  0  0  0  0  0  0  0
   -1.8150   -0.8260   -1.0120 C   0  0  0  0  0  0  0  0  0  0  0  0
   -0.6480   -0.7940   -1.9610 C   0  0  0  0  0  0  0  0  0  0  0  0
    0.6470   -1.0250   -1.2090 C   0  0  0  0  0  0  0  0  0  0  0  0
    0.9880    0.1060   -0.3980 N   0  0  0  0  0  0  0  0  0  0  0  0
    2.2120   -0.0720    0.3250 C   0  0  0  0  0  0  0  0  0  0  0  0
    2.2250   -0.4620    1.5800 C   0  0  0  0  0  0  0  0  0  0  0  0
    3.4260   -0.6750    2.4110 C   0  0  0  0  0  0  0  0  0  0  0  0
    4.5770   -0.4030    1.6780 O   0  0  0  0  0  0  0  0  0  0  0  0
    4.5770    0.0040    0.3710 C   0  0  0  0  0  0  0  0  0  0  0  0
    3.4760    0.1830   -0.3400 C   0  0  0  0  0  0  0  0  0  0  0  0
    3.5510    0.6270   -1.7590 C   0  0  0  0  0  0  0  0  0  0  0  0
    0.3600    1.3800   -0.1580 C   0  0  0  0  0  0  0  0  0  0  0  0
  1  2  1  0
  2  3  1  0
  3  4  2  0
  3  7  1  0
  4  5  1  0
  5  6  2  0
  6  7  1  0
  6 19  1  0
  7  8  1  0
  8  9  1  0
  9 10  1  0
 10 11  1  0
 11 12  1  0
 11 19  1  0
 12 13  2  0
 12 17  1  0
 13 14  1  0
 14 15  1  0
 15 16  1  0
 16 17  2  0
 17 18  1  0
M  END
