
     RDKit          3D

 19 20  0  0  0  0  0  0  0  0999 V2000
   -3.9770   -1.0570    0.0320 C   0  0  0  0  0  0  0  0  0  0  0  0
   -2.7490   -0.6290    0.0230 C   0  0  0  0  0  0  0  0  0  0  0  0
   -2.4870    0.7780   -0.1110 N   0  0  0  0  0  0  0  0  0  0  0  0
   -1.3150    1.2990   -0.0990 C   0  0  0  0  0  0  0  0  0  0  0  0
   -1.1410    2.7320   -0.2460 C   0  0  0  0  0  0  0  0  0  0  0  0
   -2.2130    3.4980   -0.3930 C   0  0  0  0  0  0  0  0  0  0  0  0
   -2.1090    4.9700   -0.5490 C   0  0  0  0  0  0  0  0  0  0  0  0
   -0.1730    0.4370    0.1100 N   0  0  0  0  0  0  0  0  0  0  0  0
    1.1180    0.8030   -0.3610 C   0  0  0  0  0  0  0  0  0  0  0  0
    2.1550   -0.0750    0.0150 N   0  0  0  0  0  0  0  0  0  0  0  0
    2.5190   -0.1620    1.3790 C   0  0  0  0  0  0  0  0  0  0  0  0
    3.1320   -1.5170    1.6750 C   0  0  0  0  0  0  0  0  0  0  0  0
    3.7360   -2.0570    0.5410 O   0  0  0  0  0  0  0  0  0  0  0  0
    4.3220   -1.0550   -0.2490 C   0  0  0  0  0  0  0  0  0  0  0  0
    3.2080   -0.2960   -0.9150 C   0  0  0  0  0  0  0  0  0  0  0  0
   -0.3710   -0.8350    0.7820 C   0  0  0  0  0  0  0  0  0  0  0  0
   -1.6020   -1.4800    0.1690 C   0  0  0  0  0  0  0  0  0  0  0  0
   -1.5480   -2.7050   -0.2380 C   0  0  0  0  0  0  0  0  0  0  0  0
   -2.5840   -3.5150   -0.9270 C   0  0  0  0  0  0  0  0  0  0  0  0
  1  2  2  0
  2  3  1  0
  2 17  1  0
  3  4  2  0
  4  5  1  0
  4  8  1  0
  5  6  2  3
  6  7  1  0
  8  9  1  0
  8 16  1  0
  9 10  1  0
 10 11  1  0
 10 15  1  0
 11 12  1  0
 12 13  1  0
 13 14  1  0
 14 15  1  0
 16 17  1  0
 17 18  2  3
 18 19  1  0
M  END
