
     RDKit          3D

 30 34  0  0  0  0  0  0  0  0999 V2000
   -1.7330   -2.5140   -2.9220 C   0  0  0  0  0  0  0  0  0  0  0  0
   -0.7550   -1.6560   -2.2570 C   0  0  0  0  0  0  0  0  0  0  0  0
   -1.2130   -1.0580   -0.9060 C   0  0  0  0  0  0  0  0  0  0  0  0
   -1.4850    0.3420   -1.1140 C   0  0  0  0  0  0  0  0  0  0  0  0
   -1.8720    1.1900   -0.1790 C   0  0  0  0  0  0  0  0  0  0  0  0
   -2.0200    0.6640    1.0830 C   0  0  0  0  0  0  0  0  0  0  0  0
   -1.7750   -0.6930    1.3730 C   0  0  0  0  0  0  0  0  0  0  0  0
   -1.3720   -1.5500    0.3660 C   0  0  0  0  0  0  0  0  0  0  0  0
   -1.1450   -2.9850    0.8420 C   0  0  0  0  0  0  0  0  0  0  0  0
    0.2970   -3.1710    1.2640 C   0  0  0  0  0  0  0  0  0  0  0  0
    0.9700   -2.1180    1.1910 N   0  0  0  0  0  0  0  0  0  0  0  0
    2.2090   -2.2340    1.8290 C   0  0  0  0  0  0  0  0  0  0  0  0
    2.2960   -3.4360    2.3200 C   0  0  0  0  0  0  0  0  0  0  0  0
    1.1700   -4.2340    1.7530 C   0  0  0  0  0  0  0  0  0  0  0  0
    3.0990   -1.0360    1.8240 N   0  0  0  0  0  0  0  0  0  0  0  0
    2.5450    0.1640    1.2650 C   0  0  0  0  0  0  0  0  0  0  0  0
    1.8200    1.0730    2.0090 C   0  0  0  0  0  0  0  0  0  0  0  0
    1.2350    2.2250    1.4350 C   0  0  0  0  0  0  0  0  0  0  0  0
    1.3160    2.5690    0.0970 C   0  0  0  0  0  0  0  0  0  0  0  0
    2.0540    1.6450   -0.6580 C   0  0  0  0  0  0  0  0  0  0  0  0
    2.3170    1.7190   -2.0390 O   0  0  0  0  0  0  0  0  0  0  0  0
    3.0310    0.8450   -2.8010 C   0  0  0  0  0  0  0  0  0  0  0  0
    2.6390    0.4910   -0.0790 C   0  0  0  0  0  0  0  0  0  0  0  0
    0.7240    3.7100   -0.4080 O   0  0  0  0  0  0  0  0  0  0  0  0
   -0.3860    4.2250   -0.9010 C   0  0  0  0  0  0  0  0  0  0  0  0
   -1.7180    3.6970   -0.6600 C   0  0  0  0  0  0  0  0  0  0  0  0
   -2.6650    4.4660   -1.1370 O   0  0  0  0  0  0  0  0  0  0  0  0
   -2.2060    2.5460   -0.0310 N   0  0  0  0  0  0  0  0  0  0  0  0
   -3.2790    2.5510    1.0010 C   0  0  0  0  0  0  0  0  0  0  0  0
   -2.4990    1.7570    2.0330 C   0  0  0  0  0  0  0  0  0  0  0  0
  1  2  1  0
  2  3  1  0
  3  4  2  0
  3  8  1  0
  4  5  1  0
  5  6  2  0
  5 28  1  0
  6  7  1  0
  6 30  1  0
  7  8  2  0
  8  9  1  0
  9 10  1  0
 10 11  2  0
 10 14  1  0
 11 12  1  0
 12 13  2  0
 12 15  1  0
 13 14  1  0
 15 16  1  0
 16 17  2  0
 16 23  1  0
 17 18  1  0
 18 19  2  0
 19 20  1  0
 19 24  1  0
 20 21  1  0
 20 23  2  0
 21 22  1  0
 24 25  1  0
 25 26  1  0
 26 27  2  0
 26 28  1  0
 28 29  1  0
 29 30  1  0
M  END
