
     RDKit          3D

 30 35  0  0  0  0  0  0  0  0999 V2000
   -2.3470    1.1310   -1.0570 O   0  0  0  0  0  0  0  0  0  0  0  0
   -2.4240    0.5110    0.0230 C   0  0  0  0  0  0  0  0  0  0  0  0
   -1.3180   -0.0080    0.7750 C   0  0  0  0  0  0  0  0  0  0  0  0
   -0.5340   -1.2220    0.1160 C   0  0  2  0  0  0  0  0  0  0  0  0
    0.4630   -1.5500    1.1130 C   0  0  0  0  0  0  0  0  0  0  0  0
    1.7490   -1.1430    1.0860 C   0  0  0  0  0  0  0  0  0  0  0  0
    2.3360   -0.3550    0.0230 C   0  0  0  0  0  0  0  0  0  0  0  0
    3.5180    0.1770    0.0320 C   0  0  0  0  0  0  0  0  0  0  0  0
    4.5200    0.1230    1.1020 C   0  0  0  0  0  0  0  0  0  0  0  0
    5.7480    0.6810    0.9880 C   0  0  0  0  0  0  0  0  0  0  0  0
    6.4780    0.4700    2.1500 O   0  0  0  0  0  0  0  0  0  0  0  0
    5.5880    0.2490    3.2050 C   0  0  0  0  0  0  0  0  0  0  0  0
    4.4110   -0.4160    2.4450 C   0  0  0  0  0  0  0  0  0  0  0  0
    1.4010   -0.1090   -1.1020 C   0  0  0  0  0  0  0  0  0  0  0  0
    0.1550   -0.6450   -1.0620 C   0  0  0  0  0  0  0  0  0  0  0  0
   -0.7590   -0.6310   -2.0860 C   0  0  0  0  0  0  0  0  0  0  0  0
   -0.3910   -0.0040   -3.2460 C   0  0  0  0  0  0  0  0  0  0  0  0
    0.8600    0.5670   -3.3400 C   0  0  0  0  0  0  0  0  0  0  0  0
    1.4470    1.2280   -4.3520 N   0  0  0  0  0  0  0  0  0  0  0  0
    2.6610    1.6140   -4.0270 C   0  0  0  0  0  0  0  0  0  0  0  0
    2.8720    1.1690   -2.7140 C   0  0  0  0  0  0  0  0  0  0  0  0
    1.7720    0.5190   -2.2670 C   0  0  0  0  0  0  0  0  0  0  0  0
   -1.8320   -1.5370   -1.7380 N   0  0  0  0  0  0  0  0  0  0  0  0
   -1.4940   -2.1210   -0.4390 C   0  0  0  0  0  0  0  0  0  0  0  0
   -1.9800   -3.1850    0.0230 O   0  0  0  0  0  0  0  0  0  0  0  0
   -3.7860    0.3360    0.5100 N   0  0  0  0  0  0  0  0  0  0  0  0
   -4.1330   -0.3290    1.7790 C   0  0  0  0  0  0  0  0  0  0  0  0
   -5.6300   -0.4310    1.7240 C   0  0  0  0  0  0  0  0  0  0  0  0
   -5.9700    0.8830    0.9950 C   0  0  0  0  0  0  0  0  0  0  0  0
   -4.9690    0.7750   -0.1520 C   0  0  0  0  0  0  0  0  0  0  0  0
  1  2  2  0
  2  3  1  0
  2 26  1  0
  4  3  1  1
  4  5  1  0
  4 15  1  0
  4 24  1  0
  5  6  2  0
  6  7  1  0
  7  8  2  3
  7 14  1  0
  8  9  1  0
  9 10  2  0
  9 13  1  0
 10 11  1  0
 11 12  1  0
 12 13  1  0
 14 15  2  0
 14 22  1  0
 15 16  1  0
 16 17  2  0
 16 23  1  0
 17 18  1  0
 18 19  1  0
 18 22  2  0
 19 20  1  0
 20 21  2  0
 21 22  1  0
 23 24  1  0
 24 25  2  0
 26 27  1  0
 26 30  1  0
 27 28  1  0
 28 29  1  0
 29 30  1  0
M  END
