
     RDKit          3D

 29 31  0  0  0  0  0  0  0  0999 V2000
   -2.1090    5.8670    0.2080 C   0  0  0  0  0  0  0  0  0  0  0  0
   -1.9900    4.4240   -0.1900 C   0  0  0  0  0  0  0  0  0  0  0  0
   -2.9140    3.5270    0.6400 C   0  0  0  0  0  0  0  0  0  0  0  0
   -2.6730    2.1690    0.1280 N   0  0  0  0  0  0  0  0  0  0  0  0
   -3.4880    1.7260   -0.9520 C   0  0  0  0  0  0  0  0  0  0  0  0
   -3.0260    0.4760   -1.6150 C   0  0  0  0  0  0  0  0  0  0  0  0
   -1.6440    0.0960   -1.1930 C   0  0  0  0  0  0  0  0  0  0  0  0
   -1.5270   -0.0220    0.2800 C   0  0  1  0  0  0  0  0  0  0  0  0
   -2.5860   -0.7050    1.0250 C   0  0  0  0  0  0  0  0  0  0  0  0
   -2.9880   -2.0810    0.8340 C   0  0  2  0  0  0  0  0  0  0  0  0
   -4.1300   -2.3700    1.8320 C   0  0  0  0  0  0  0  0  0  0  0  0
   -2.0890   -3.1480    0.9500 N   0  0  0  0  0  0  0  0  0  0  0  0
   -2.8200   -4.4150    0.7600 C   0  0  0  0  0  0  0  0  0  0  0  0
   -3.4680   -4.4770   -0.6070 C   0  0  0  0  0  0  0  0  0  0  0  0
   -0.1930   -0.3860    0.7220 N   0  0  0  0  0  0  0  0  0  0  0  0
    0.8310    0.2890   -0.0460 C   0  0  0  0  0  0  0  0  0  0  0  0
    2.1700   -0.1070    0.5430 C   0  0  2  0  0  0  0  0  0  0  0  0
    2.3160    0.2770    1.9830 C   0  0  0  0  0  0  0  0  0  0  0  0
    3.6420    1.0370    2.0830 C   0  0  0  0  0  0  0  0  0  0  0  0
    4.3610    0.4960    0.8430 C   0  0  0  0  0  0  0  0  0  0  0  0
    3.2830    0.5040   -0.1240 N   0  0  1  0  0  0  0  0  0  0  0  0
    3.6400   -0.1680   -1.3570 C   0  0  2  0  0  0  0  0  0  0  0  0
    4.2980   -1.4810   -1.1680 C   0  0  0  0  0  0  0  0  0  0  0  0
    5.7160   -1.4850   -1.1910 N   0  0  0  0  0  0  0  0  0  0  0  0
    6.3370   -0.4940   -1.9940 C   0  0  0  0  0  0  0  0  0  0  0  0
    5.2900    0.0780   -2.9500 C   0  0  0  0  0  0  0  0  0  0  0  0
    4.3480    0.7210   -2.1430 O   0  0  0  0  0  0  0  0  0  0  0  0
   -1.6510    1.4220    0.7560 C   0  0  0  0  0  0  0  0  0  0  0  0
   -0.9290    1.9250    1.6210 O   0  0  0  0  0  0  0  0  0  0  0  0
  1  2  1  0
  2  3  1  0
  3  4  1  0
  4  5  1  0
  4 28  1  0
  5  6  1  0
  6  7  1  0
  7  8  1  0
  8  9  1  1
  8 15  1  0
  8 28  1  0
  9 10  1  0
 10 11  1  1
 10 12  1  0
 12 13  1  0
 13 14  1  0
 15 16  1  0
 17 16  1  6
 17 18  1  0
 17 21  1  0
 18 19  1  0
 19 20  1  0
 21 20  1  1
 21 22  1  0
 22 23  1  1
 22 27  1  0
 23 24  1  0
 24 25  1  0
 25 26  1  0
 26 27  1  0
 28 29  2  0
M  CHG  3  12   1  15   1  21   1
M  END
