
     RDKit          3D

 30 35  0  0  0  0  0  0  0  0999 V2000
    4.7010    1.7470   -2.1570 C   0  0  0  0  0  0  0  0  0  0  0  0
    3.7130    1.0010   -1.2640 C   0  0  0  0  0  0  0  0  0  0  0  0
    4.0990   -0.0050   -0.5700 C   0  0  0  0  0  0  0  0  0  0  0  0
    5.4470   -0.3590   -0.6870 C   0  0  0  0  0  0  0  0  0  0  0  0
    5.9420   -1.4240    0.0240 C   0  0  0  0  0  0  0  0  0  0  0  0
    5.1960   -2.1340    0.8190 O   0  0  0  0  0  0  0  0  0  0  0  0
    3.9260   -1.8420    0.9620 C   0  0  0  0  0  0  0  0  0  0  0  0
    3.2290   -2.6580    1.8280 C   0  0  0  0  0  0  0  0  0  0  0  0
    1.9010   -2.4250    2.0370 C   0  0  0  0  0  0  0  0  0  0  0  0
    1.3040   -1.3600    1.3560 C   0  0  0  0  0  0  0  0  0  0  0  0
    1.9890   -0.5360    0.4870 C   0  0  0  0  0  0  0  0  0  0  0  0
    1.1080    0.4180   -0.0170 C   0  0  0  0  0  0  0  0  0  0  0  0
    1.2530    1.3490   -0.8220 O   0  0  0  0  0  0  0  0  0  0  0  0
   -0.0870    0.1360    0.5740 N   0  0  0  0  0  0  0  0  0  0  0  0
   -1.1850    0.8750    0.3420 C   0  0  0  0  0  0  0  0  0  0  0  0
   -0.9210    2.1700    0.0320 C   0  0  0  0  0  0  0  0  0  0  0  0
   -2.0070    2.9990   -0.2660 C   0  0  0  0  0  0  0  0  0  0  0  0
   -3.3110    2.5240   -0.2480 C   0  0  0  0  0  0  0  0  0  0  0  0
   -4.4520    3.4220   -0.5700 C   0  0  0  0  0  0  0  0  0  0  0  0
   -3.5170    1.2060    0.0760 C   0  0  0  0  0  0  0  0  0  0  0  0
   -2.4820    0.3460    0.3800 C   0  0  0  0  0  0  0  0  0  0  0  0
   -2.9140   -0.8810    0.7360 N   0  0  0  0  0  0  0  0  0  0  0  0
   -4.1610   -1.2960    0.1970 C   0  0  2  0  0  0  0  0  0  0  0  0
   -4.1080   -2.5830   -0.6480 C   0  0  0  0  0  0  0  0  0  0  0  0
   -4.4790   -1.2440   -1.2460 C   0  0  0  0  0  0  0  0  0  0  0  0
   -2.2890   -1.7250    1.5660 C   0  0  0  0  0  0  0  0  0  0  0  0
   -2.8710   -2.7870    1.9050 O   0  0  0  0  0  0  0  0  0  0  0  0
   -1.0170   -1.5110    2.0940 N   0  0  0  0  0  0  0  0  0  0  0  0
    0.0080   -0.9180    1.3890 C   0  0  0  0  0  0  0  0  0  0  0  0
    3.3490   -0.7650    0.2660 C   0  0  0  0  0  0  0  0  0  0  0  0
  1  2  1  0
  2  3  2  3
  3  4  1  0
  3 30  1  0
  4  5  2  0
  5  6  1  0
  6  7  1  0
  7  8  2  0
  7 30  1  0
  8  9  1  0
  9 10  2  0
 10 11  1  0
 10 29  1  0
 11 12  1  0
 11 30  2  0
 12 13  2  0
 12 14  1  0
 14 15  1  0
 14 29  1  0
 15 16  2  0
 15 21  1  0
 16 17  1  0
 17 18  2  0
 18 19  1  0
 18 20  1  0
 20 21  2  0
 21 22  1  0
 23 22  1  6
 22 26  1  0
 23 24  1  0
 23 25  1  0
 24 25  1  0
 26 27  2  0
 26 28  1  0
 28 29  2  0
M  END
