
     RDKit          3D

 29 31  0  0  0  0  0  0  0  0999 V2000
    2.3060   -0.3550    2.1490 O   0  0  0  0  0  0  0  0  0  0  0  0
    2.3440   -0.1310    0.9230 C   0  0  0  0  0  0  0  0  0  0  0  0
    1.1560    0.2780    0.2520 N   0  0  0  0  0  0  0  0  0  0  0  0
   -0.1060    0.4500    0.9220 C   0  0  0  0  0  0  0  0  0  0  0  0
   -1.1380    0.8820   -0.0660 C   0  0  0  0  0  0  0  0  0  0  0  0
   -0.7680    1.0200   -1.2610 O   0  0  0  0  0  0  0  0  0  0  0  0
   -2.4390    1.1050    0.3930 N   0  0  0  0  0  0  0  0  0  0  0  0
   -2.9180    0.9850    1.7460 C   0  0  2  0  0  0  0  0  0  0  0  0
   -3.1310   -0.3760    2.2270 C   0  0  0  0  0  0  0  0  0  0  0  0
   -3.5930   -0.5460    3.3990 O   0  0  0  0  0  0  0  0  0  0  0  0
   -2.8720   -1.5340    1.5160 O   0  0  0  0  0  0  0  0  0  0  0  0
   -4.2220    1.7770    1.8320 C   0  0  0  0  0  0  0  0  0  0  0  0
   -4.2900    2.5050    0.5000 C   0  0  0  0  0  0  0  0  0  0  0  0
   -3.5600    1.5360   -0.4400 C   0  0  2  0  0  0  0  0  0  0  0  0
   -4.4170    0.4640   -0.9090 C   0  0  0  0  0  0  0  0  0  0  0  0
   -5.7840    0.5680   -0.8640 C   0  0  0  0  0  0  0  0  0  0  0  0
   -6.5690   -0.5010   -1.3400 C   0  0  0  0  0  0  0  0  0  0  0  0
   -5.9780   -1.6360   -1.8430 C   0  0  0  0  0  0  0  0  0  0  0  0
   -4.5950   -1.7490   -1.8910 C   0  0  0  0  0  0  0  0  0  0  0  0
   -3.8390   -0.6990   -1.4250 C   0  0  0  0  0  0  0  0  0  0  0  0
    3.5870   -0.2800    0.1530 C   0  0  1  0  0  0  0  0  0  0  0  0
    3.9740    1.3490   -0.5880 S   0  0  0  0  0  0  0  0  0  0  0  0
    4.7650   -0.6750    0.9830 C   0  0  0  0  0  0  0  0  0  0  0  0
    5.9410   -0.7890    0.0860 C   0  0  0  0  0  0  0  0  0  0  0  0
    6.7590    0.2710   -0.1690 C   0  0  0  0  0  0  0  0  0  0  0  0
    7.8540    0.1430   -1.0110 C   0  0  0  0  0  0  0  0  0  0  0  0
    8.1240   -1.0820   -1.6060 C   0  0  0  0  0  0  0  0  0  0  0  0
    7.3150   -2.1520   -1.3610 C   0  0  0  0  0  0  0  0  0  0  0  0
    6.2350   -2.0120   -0.5260 C   0  0  0  0  0  0  0  0  0  0  0  0
  1  2  2  0
  2  3  1  0
  2 21  1  0
  3  4  1  0
  4  5  1  0
  5  6  2  0
  5  7  1  0
  7  8  1  0
  7 14  1  0
  8  9  1  6
  8 12  1  0
  9 10  2  0
  9 11  1  0
 12 13  1  0
 13 14  1  0
 14 15  1  1
 15 16  2  0
 15 20  1  0
 16 17  1  0
 17 18  2  0
 18 19  1  0
 19 20  2  0
 21 22  1  1
 21 23  1  0
 23 24  1  0
 24 25  2  0
 24 29  1  0
 25 26  1  0
 26 27  2  0
 27 28  1  0
 28 29  2  0
M  END
