
     RDKit          3D

 20 19  0  0  0  0  0  0  0  0999 V2000
   -5.7280    0.9530    1.4390 C   0  0  0  0  0  0  0  0  0  0  0  0
   -4.7100    0.3120    0.5090 C   0  0  0  0  0  0  0  0  0  0  0  0
   -3.1780   -0.0540    1.3330 S   0  0  0  0  0  0  0  0  0  0  0  0
   -1.8190   -0.5850    0.3770 C   0  0  0  0  0  0  0  0  0  0  0  0
   -0.8400    0.3460   -0.2240 C   0  0  2  0  0  0  0  0  0  0  0  0
   -1.3700    1.4020   -1.1000 C   0  0  0  0  0  0  0  0  0  0  0  0
   -2.4010    2.5870   -0.1310 P   0  0  0  0  0  0  0  0  0  0  0  0
    0.0990   -0.4680   -0.8970 O   0  0  0  0  0  0  0  0  0  0  0  0
    1.3640   -0.4460   -0.3340 C   0  0  2  0  0  0  0  0  0  0  0  0
    1.2610   -0.9250    1.0060 O   0  0  0  0  0  0  0  0  0  0  0  0
    1.9120    0.7950   -0.2470 O   0  0  0  0  0  0  0  0  0  0  0  0
    3.1510    0.9000    0.2830 C   0  0  0  0  0  0  0  0  0  0  0  0
    4.2720    0.3150   -0.4750 C   0  0  0  0  0  0  0  0  0  0  0  0
    4.1170   -0.1200   -1.5800 O   0  0  0  0  0  0  0  0  0  0  0  0
    5.9730    0.2200    0.2240 P   0  0  0  0  0  0  0  0  0  0  0  0
    6.3280    1.6100    1.1830 O   0  0  0  0  0  0  0  0  0  0  0  0
    2.0980   -1.4110   -0.9980 O   0  0  0  0  0  0  0  0  0  0  0  0
    1.5050   -2.6460   -0.8410 C   0  0  1  0  0  0  0  0  0  0  0  0
    1.1200   -3.2230   -2.0720 O   0  0  0  0  0  0  0  0  0  0  0  0
    2.4080   -3.5760   -0.2680 O   0  0  0  0  0  0  0  0  0  0  0  0
  1  2  1  0
  2  3  1  0
  3  4  1  0
  5  4  1  6
  5  6  1  0
  5  8  1  0
  6  7  1  0
  8  9  1  0
  9 10  1  1
  9 11  1  0
  9 17  1  0
 11 12  1  0
 12 13  1  0
 13 14  2  0
 13 15  1  0
 15 16  1  0
 17 18  1  0
 18 19  1  6
 18 20  1  0
M  END
