
     RDKit          3D

 20 21  0  0  0  0  0  0  0  0999 V2000
   -0.3090    1.5680   -1.6730 C   0  0  0  0  0  0  0  0  0  0  0  0
   -0.6280    1.3890   -0.4220 C   0  0  0  0  0  0  0  0  0  0  0  0
   -0.9780    2.4690    0.3710 O   0  0  0  0  0  0  0  0  0  0  0  0
   -0.6410    0.0310    0.2600 C   0  0  2  0  0  0  0  0  0  0  0  0
   -0.6740   -1.0060   -0.5710 O   0  0  0  0  0  0  0  0  0  0  0  0
   -1.6100   -1.3300   -1.4390 C   0  0  0  0  0  0  0  0  0  0  0  0
   -2.9500   -1.7730   -0.9900 C   0  0  0  0  0  0  0  0  0  0  0  0
   -3.3060   -1.9780    0.1270 O   0  0  0  0  0  0  0  0  0  0  0  0
   -1.7550    0.1300    1.2690 C   0  0  0  0  0  0  0  0  0  0  0  0
   -1.3260    1.1510    2.1880 O   0  0  0  0  0  0  0  0  0  0  0  0
   -0.5140    0.5370    3.1660 C   0  0  0  0  0  0  0  0  0  0  0  0
    0.3360   -0.5110    2.4780 C   0  0  0  0  0  0  0  0  0  0  0  0
    0.6340   -0.0470    1.1040 C   0  0  2  0  0  0  0  0  0  0  0  0
    1.4160    1.6020    1.2220 S   0  0  0  0  0  0  0  0  0  0  0  0
    2.8500    1.3650    0.3070 O   0  0  0  0  0  0  0  0  0  0  0  0
    3.2940    0.1790    0.5710 O   0  0  0  0  0  0  0  0  0  0  0  0
    2.0040   -0.9540    0.2820 P   0  0  0  0  0  0  0  0  0  0  0  0
    1.7540   -0.9860   -1.4330 O   0  0  0  0  0  0  0  0  0  0  0  0
    3.3050   -0.7430   -2.1930 P   0  0  0  0  0  0  0  0  0  0  0  0
    3.2910   -1.3910   -3.8210 O   0  0  0  0  0  0  0  0  0  0  0  0
  1  2  2  0
  2  3  1  0
  2  4  1  0
  4  5  1  6
  4  9  1  0
  4 13  1  0
  5  6  1  0
  6  7  1  0
  7  8  2  0
  9 10  1  0
 10 11  1  0
 11 12  1  0
 13 12  1  1
 13 14  1  0
 13 17  1  0
 14 15  1  0
 15 16  1  0
 16 17  1  0
 17 18  1  0
 18 19  1  0
 19 20  1  0
M  END
