
     RDKit          3D

 20 20  0  0  0  0  0  0  0  0999 V2000
    4.8370    0.5440   -0.6730 C   0  0  0  0  0  0  0  0  0  0  0  0
    3.5930    0.4720   -1.0750 C   0  0  0  0  0  0  0  0  0  0  0  0
    2.4910    0.4700   -0.0890 C   0  0  2  0  0  0  0  0  0  0  0  0
    2.6890   -0.7030    0.7950 C   0  0  0  0  0  0  0  0  0  0  0  0
    3.2120   -0.5320    1.8800 O   0  0  0  0  0  0  0  0  0  0  0  0
    0.8350    0.2920   -0.9290 P   0  0  0  0  0  0  0  0  0  0  0  0
    0.7900   -1.2520   -1.9620 C   0  0  0  0  0  0  0  0  0  0  0  0
   -0.4760    0.1710    0.3500 C   0  0  2  0  0  0  0  0  0  0  0  0
   -0.1460    0.9710    1.5910 C   0  0  0  0  0  0  0  0  0  0  0  0
    0.0290    2.7360    1.0270 P   0  0  0  0  0  0  0  0  0  0  0  0
   -1.5780    3.3470    0.7770 O   0  0  0  0  0  0  0  0  0  0  0  0
   -0.8030   -1.2550    0.6350 C   0  0  0  0  0  0  0  0  0  0  0  0
   -1.9810   -1.4400   -0.0910 O   0  0  0  0  0  0  0  0  0  0  0  0
   -2.6590   -0.2560    0.1980 C   0  0  2  0  0  0  0  0  0  0  0  0
   -2.9660   -0.2820    1.5500 O   0  0  0  0  0  0  0  0  0  0  0  0
   -3.9620   -1.6800    1.7980 S   0  0  0  0  0  0  0  0  0  0  0  0
   -3.8300   -0.0470   -0.6640 C   0  0  0  0  0  0  0  0  0  0  0  0
   -4.5100    0.9950   -0.4830 O   0  0  0  0  0  0  0  0  0  0  0  0
   -4.2420   -0.9130   -1.6640 O   0  0  0  0  0  0  0  0  0  0  0  0
   -1.7010    0.6970   -0.1260 O   0  0  0  0  0  0  0  0  0  0  0  0
  1  2  2  0
  2  3  1  0
  3  4  1  0
  3  6  1  6
  4  5  2  0
  6  7  1  0
  6  8  1  0
  8  9  1  1
  8 12  1  0
  8 20  1  0
  9 10  1  0
 10 11  1  0
 12 13  1  0
 13 14  1  0
 14 15  1  1
 14 17  1  0
 14 20  1  0
 15 16  1  0
 17 18  2  0
 17 19  1  0
M  END
