
     RDKit          3D

 21 22  0  0  0  0  0  0  0  0999 V2000
    0.7060   -2.4250   -0.1610 C   0  0  0  0  0  0  0  0  0  0  0  0
    0.5890   -1.2150    0.6250 N   0  0  0  0  0  0  0  0  0  0  0  0
    1.6790   -0.7580    1.4620 C   0  0  0  0  0  0  0  0  0  0  0  0
    2.5960    0.1920    0.8260 C   0  0  0  0  0  0  0  0  0  0  0  0
    2.7060    1.4030    1.3490 C   0  0  0  0  0  0  0  0  0  0  0  0
    3.5900    2.4530    0.8080 C   0  0  0  0  0  0  0  0  0  0  0  0
    4.3390    2.0610   -0.3040 O   0  0  0  0  0  0  0  0  0  0  0  0
    4.2390    0.8040   -0.8610 C   0  0  0  0  0  0  0  0  0  0  0  0
    5.0190    0.5260   -1.9690 O   0  0  0  0  0  0  0  0  0  0  0  0
    3.4070   -0.1130   -0.3350 C   0  0  0  0  0  0  0  0  0  0  0  0
    3.3640   -1.3360   -0.9410 O   0  0  0  0  0  0  0  0  0  0  0  0
   -0.6250   -0.4600    0.6110 C   0  0  0  0  0  0  0  0  0  0  0  0
   -0.6710    0.5700    1.3220 O   0  0  0  0  0  0  0  0  0  0  0  0
   -1.7790   -0.8390   -0.1850 C   0  0  2  0  0  0  0  0  0  0  0  0
   -1.6400   -0.4850   -1.6760 C   0  0  0  0  0  0  0  0  0  0  0  0
   -2.0580    0.9810   -1.6980 C   0  0  0  0  0  0  0  0  0  0  0  0
   -3.1250    1.1050   -0.6380 C   0  0  0  0  0  0  0  0  0  0  0  0
   -3.0780   -0.2010    0.1200 C   0  0  1  0  0  0  0  0  0  0  0  0
   -4.0740   -1.0140   -0.4620 O   0  0  0  0  0  0  0  0  0  0  0  0
   -3.4370    0.0120    1.5400 C   0  0  0  0  0  0  0  0  0  0  0  0
   -4.7110    0.6420    1.5270 O   0  0  0  0  0  0  0  0  0  0  0  0
  1  2  1  0
  2  3  1  0
  2 12  1  0
  3  4  1  0
  4  5  2  0
  4 10  1  0
  5  6  1  0
  6  7  1  0
  7  8  1  0
  8  9  1  0
  8 10  2  0
 10 11  1  0
 12 13  2  0
 14 12  1  1
 14 15  1  0
 14 18  1  0
 15 16  1  0
 16 17  1  0
 17 18  1  0
 18 19  1  6
 18 20  1  0
 20 21  1  0
M  END
