
     RDKit          3D

 21 22  0  0  0  0  0  0  0  0999 V2000
    1.6350    2.6020    0.6810 O   0  0  0  0  0  0  0  0  0  0  0  0
    0.5910    2.3140   -0.0130 C   0  0  0  0  0  0  0  0  0  0  0  0
   -0.6870    2.1920    0.6450 C   0  0  0  0  0  0  0  0  0  0  0  0
   -1.5230    1.1690    0.6100 C   0  0  0  0  0  0  0  0  0  0  0  0
   -2.8260    1.2190    1.3680 C   0  0  0  0  0  0  0  0  0  0  0  0
   -2.8900    2.4560    2.0170 O   0  0  0  0  0  0  0  0  0  0  0  0
   -1.2370   -0.0480   -0.1350 C   0  0  2  0  0  0  0  0  0  0  0  0
   -2.1720   -0.4670   -1.2410 C   0  0  2  0  0  0  0  0  0  0  0  0
   -3.5090   -0.2270   -1.0840 O   0  0  0  0  0  0  0  0  0  0  0  0
   -1.8260   -1.9110   -0.8190 C   0  0  0  0  0  0  0  0  0  0  0  0
   -1.6320   -1.3340    0.5590 C   0  0  1  0  0  0  0  0  0  0  0  0
   -0.6200   -1.8760    1.4000 N   0  0  0  0  0  0  0  0  0  0  0  0
    0.5650   -2.5450    1.0700 C   0  0  0  0  0  0  0  0  0  0  0  0
    0.7410   -3.7040    1.6060 O   0  0  0  0  0  0  0  0  0  0  0  0
    1.6450   -2.0780    0.1750 C   0  0  0  0  0  0  0  0  0  0  0  0
    2.3360   -0.8260    0.6880 C   0  0  1  0  0  0  0  0  0  0  0  0
    3.2520   -1.1560    1.7050 O   0  0  0  0  0  0  0  0  0  0  0  0
    3.1340   -0.1760   -0.4270 C   0  0  0  0  0  0  0  0  0  0  0  0
    2.3110    0.2610   -1.4350 O   0  0  0  0  0  0  0  0  0  0  0  0
    2.3050    1.6210   -1.6530 C   0  0  0  0  0  0  0  0  0  0  0  0
    0.8750    2.1440   -1.4550 C   0  0  0  0  0  0  0  0  0  0  0  0
  1  2  2  0
  2  3  1  0
  2 21  1  0
  3  4  2  0
  4  5  1  0
  7  4  1  1
  5  6  1  0
  7  8  1  0
  7 11  1  0
  8  9  1  1
  8 10  1  0
 11 10  1  6
 11 12  1  0
 12 13  1  0
 13 14  2  0
 13 15  1  0
 15 16  1  0
 16 17  1  1
 16 18  1  0
 18 19  1  0
 19 20  1  0
 20 21  1  0
M  END
