
     RDKit          3D

 21 22  0  0  0  0  0  0  0  0999 V2000
   -2.6520   -1.2970   -1.7620 C   0  0  0  0  0  0  0  0  0  0  0  0
   -2.3360   -0.3570   -0.6060 C   0  0  1  0  0  0  0  0  0  0  0  0
   -0.8840   -0.4020   -0.3640 C   0  0  2  0  0  0  0  0  0  0  0  0
   -0.4540   -1.8090   -0.0100 C   0  0  0  0  0  0  0  0  0  0  0  0
    0.9410   -1.8290    0.5690 C   0  0  0  0  0  0  0  0  0  0  0  0
    1.7580   -0.6430    0.1050 C   0  0  1  0  0  0  0  0  0  0  0  0
    2.0390   -0.7690   -1.2540 O   0  0  0  0  0  0  0  0  0  0  0  0
    3.3630   -0.9670   -1.5500 C   0  0  0  0  0  0  0  0  0  0  0  0
    4.2900    0.1260   -1.1210 C   0  0  0  0  0  0  0  0  0  0  0  0
    3.9630    1.3550   -1.7180 O   0  0  0  0  0  0  0  0  0  0  0  0
    1.1540    0.6820    0.3540 C   0  0  2  0  0  0  0  0  0  0  0  0
    1.8360    1.4580    1.4220 C   0  0  0  0  0  0  0  0  0  0  0  0
    2.8160    1.0520    2.0820 O   0  0  0  0  0  0  0  0  0  0  0  0
    1.3360    2.7210    1.6950 O   0  0  0  0  0  0  0  0  0  0  0  0
    1.8500    3.5240    2.6260 O   0  0  0  0  0  0  0  0  0  0  0  0
   -0.3240    0.5470    0.6370 C   0  0  2  0  0  0  0  0  0  0  0  0
   -0.5770    0.1740    2.0120 N   0  0  0  0  0  0  0  0  0  0  0  0
   -2.9090    0.9740   -0.9530 C   0  0  0  0  0  0  0  0  0  0  0  0
   -4.3900    0.7380   -0.6250 C   0  0  0  0  0  0  0  0  0  0  0  0
   -4.4670   -0.4150    0.1030 O   0  0  0  0  0  0  0  0  0  0  0  0
   -3.2020   -0.7720    0.5400 C   0  0  0  0  0  0  0  0  0  0  0  0
  2  1  1  6
  2  3  1  0
  2 18  1  0
  2 21  1  0
  3  4  1  1
  3 16  1  0
  4  5  1  0
  5  6  1  0
  6  7  1  6
  6 11  1  0
  7  8  1  0
  8  9  1  0
  9 10  1  0
 11 12  1  1
 11 16  1  0
 12 13  2  0
 12 14  1  0
 14 15  1  0
 16 17  1  1
 18 19  1  0
 19 20  1  0
 20 21  1  0
M  END
