
     RDKit          3D

 43 46  0  0  0  0  0  0  0  0999 V2000
    6.9980    1.1720   -3.5820 C   0  0  0  0  0  0  0  0  0  0  0  0
    6.3310    0.0970   -2.9540 O   0  0  0  0  0  0  0  0  0  0  0  0
    5.6310    0.3820   -1.7660 C   0  0  0  0  0  0  0  0  0  0  0  0
    5.6030    1.6570   -1.2440 C   0  0  0  0  0  0  0  0  0  0  0  0
    4.9090    1.9030   -0.0800 C   0  0  0  0  0  0  0  0  0  0  0  0
    4.2380    0.9100    0.5870 C   0  0  0  0  0  0  0  0  0  0  0  0
    4.2430   -0.3770    0.0960 C   0  0  0  0  0  0  0  0  0  0  0  0
    3.5900   -1.5020    0.7840 C   0  0  0  0  0  0  0  0  0  0  0  0
    2.1140   -1.6400    0.5480 C   0  0  2  0  0  0  0  0  0  0  0  0
    1.9840   -1.8220   -0.9870 C   0  0  0  0  0  0  0  0  0  0  0  0
    1.5640   -2.8800   -1.4820 N   0  0  0  0  0  0  0  0  0  0  0  0
    1.1320   -4.0610   -0.7970 C   0  0  0  0  0  0  0  0  0  0  0  0
    0.2320   -4.1720    0.0140 N   0  0  0  0  0  0  0  0  0  0  0  0
   -0.7880   -3.7300    0.7840 C   0  0  0  0  0  0  0  0  0  0  0  0
   -1.4240   -4.5780    1.6060 O   0  0  0  0  0  0  0  0  0  0  0  0
   -1.3560   -2.4950    0.9170 O   0  0  0  0  0  0  0  0  0  0  0  0
   -2.0090   -1.5810    0.1670 C   0  0  0  0  0  0  0  0  0  0  0  0
   -3.1120   -0.7750    0.7860 C   0  0  1  0  0  0  0  0  0  0  0  0
   -3.3260    0.2940   -0.1190 O   0  0  0  0  0  0  0  0  0  0  0  0
   -4.3960    1.0820    0.2090 C   0  0  0  0  0  0  0  0  0  0  0  0
   -4.6240    2.1990   -0.7950 C   0  0  0  0  0  0  0  0  0  0  0  0
   -3.5570    3.0510   -0.9130 O   0  0  0  0  0  0  0  0  0  0  0  0
   -3.8060    3.9810   -1.7790 O   0  0  0  0  0  0  0  0  0  0  0  0
   -5.0570    4.0020   -2.1780 O   0  0  0  0  0  0  0  0  0  0  0  0
   -4.3520   -1.5090    0.7080 O   0  0  0  0  0  0  0  0  0  0  0  0
   -4.9690   -1.8780   -0.4640 C   0  0  0  0  0  0  0  0  0  0  0  0
   -4.4480   -1.5610   -1.5610 O   0  0  0  0  0  0  0  0  0  0  0  0
   -6.1810   -2.6100   -0.4510 O   0  0  0  0  0  0  0  0  0  0  0  0
   -2.8420   -0.3780    2.1470 C   0  0  0  0  0  0  0  0  0  0  0  0
   -2.9250   -1.3160    3.0360 O   0  0  0  0  0  0  0  0  0  0  0  0
   -2.4920    0.8940    2.7100 N   0  0  0  0  0  0  0  0  0  0  0  0
   -3.2330    1.4410    3.8360 C   0  0  0  0  0  0  0  0  0  0  0  0
   -1.3730    1.6970    2.2210 C   0  0  0  0  0  0  0  0  0  0  0  0
   -1.4540    2.9400    2.4580 O   0  0  0  0  0  0  0  0  0  0  0  0
   -0.1960    1.1380    1.4820 C   0  0  0  0  0  0  0  0  0  0  0  0
    0.4670    0.0160    1.7150 C   0  0  0  0  0  0  0  0  0  0  0  0
    1.3410   -0.4430    0.6970 N   0  0  0  0  0  0  0  0  0  0  0  0
    1.5460    0.2820   -0.5500 C   0  0  0  0  0  0  0  0  0  0  0  0
    2.3400   -0.4580   -1.3400 N   0  0  0  0  0  0  0  0  0  0  0  0
    0.8750    1.5100   -0.8180 N   0  0  0  0  0  0  0  0  0  0  0  0
   -0.0000    1.9220    0.2200 C   0  0  0  0  0  0  0  0  0  0  0  0
   -0.6170    3.0220    0.0090 O   0  0  0  0  0  0  0  0  0  0  0  0
    4.9560   -0.6040   -1.0900 C   0  0  0  0  0  0  0  0  0  0  0  0
  1  2  1  0
  2  3  1  0
  3  4  2  0
  3 43  1  0
  4  5  1  0
  5  6  2  0
  6  7  1  0
  7  8  1  0
  7 43  2  0
  9  8  1  6
  9 10  1  0
  9 37  1  0
 10 11  2  0
 10 39  1  0
 11 12  1  0
 12 13  2  0
 13 14  1  0
 14 15  2  0
 14 16  1  0
 16 17  1  0
 17 18  1  0
 18 19  1  6
 18 25  1  0
 18 29  1  0
 19 20  1  0
 20 21  1  0
 21 22  1  0
 22 23  1  0
 23 24  1  0
 25 26  1  0
 26 27  2  0
 26 28  1  0
 29 30  2  0
 29 31  1  0
 31 32  1  0
 31 33  1  0
 33 34  2  0
 33 35  1  0
 35 36  2  0
 35 41  1  0
 36 37  1  0
 37 38  1  0
 38 39  2  0
 38 40  1  0
 40 41  1  0
 41 42  2  0
M  END
