
     RDKit          3D

 43 45  0  0  0  0  0  0  0  0999 V2000
    7.5930   -1.0600    1.0370 C   0  0  0  0  0  0  0  0  0  0  0  0
    6.6720   -1.8080    0.1080 C   0  0  0  0  0  0  0  0  0  0  0  0
    5.4630   -1.0650   -0.1830 N   0  0  0  0  0  0  0  0  0  0  0  0
    5.2820   -0.1400   -1.2640 C   0  0  0  0  0  0  0  0  0  0  0  0
    3.8970    0.4020   -1.1230 C   0  0  0  0  0  0  0  0  0  0  0  0
    3.3280   -0.1690    0.0770 N   0  0  0  0  0  0  0  0  0  0  0  0
    2.1170    0.1940    0.6020 O   0  0  0  0  0  0  0  0  0  0  0  0
    0.9130    0.1800   -0.1120 C   0  0  0  0  0  0  0  0  0  0  0  0
    1.0120   -0.1950   -1.2990 O   0  0  0  0  0  0  0  0  0  0  0  0
   -0.3040    0.5620    0.4790 N   0  0  0  0  0  0  0  0  0  0  0  0
   -0.2450    0.9810    1.8660 C   0  0  0  0  0  0  0  0  0  0  0  0
   -1.1100    0.0420    2.7050 C   0  0  0  0  0  0  0  0  0  0  0  0
   -2.4480   -0.0200    2.0650 N   0  0  0  0  0  0  0  0  0  0  0  0
   -2.6390    0.6950    0.8390 C   0  0  0  0  0  0  0  0  0  0  0  0
   -3.6880    1.3800    0.7060 O   0  0  0  0  0  0  0  0  0  0  0  0
   -1.5720    0.5630   -0.1730 C   0  0  1  0  0  0  0  0  0  0  0  0
   -1.6740    1.8420   -1.0020 C   0  0  0  0  0  0  0  0  0  0  0  0
   -2.6960    2.0100   -1.6520 O   0  0  0  0  0  0  0  0  0  0  0  0
   -0.6110    2.7500   -0.9820 N   0  0  0  0  0  0  0  0  0  0  0  0
   -0.6050    3.9500   -1.7090 C   0  0  0  0  0  0  0  0  0  0  0  0
   -1.5330    4.3240   -2.6320 C   0  0  0  0  0  0  0  0  0  0  0  0
   -1.4390    5.5530   -3.2910 C   0  0  0  0  0  0  0  0  0  0  0  0
   -0.4170    6.4300   -3.0420 C   0  0  0  0  0  0  0  0  0  0  0  0
    0.5310    6.0720   -2.1140 C   0  0  0  0  0  0  0  0  0  0  0  0
    0.4330    4.8650   -1.4700 C   0  0  0  0  0  0  0  0  0  0  0  0
   -1.8100   -0.5620   -1.1390 C   0  0  2  0  0  0  0  0  0  0  0  0
   -3.1720   -0.4150   -1.7000 C   0  0  0  0  0  0  0  0  0  0  0  0
   -3.2840   -0.2020   -2.9420 O   0  0  0  0  0  0  0  0  0  0  0  0
   -4.3260   -0.4980   -0.9540 O   0  0  0  0  0  0  0  0  0  0  0  0
   -5.5630   -0.3390   -1.6180 C   0  0  0  0  0  0  0  0  0  0  0  0
   -1.6560   -1.9000   -0.5370 C   0  0  0  0  0  0  0  0  0  0  0  0
   -0.8000   -2.6880   -1.0120 O   0  0  0  0  0  0  0  0  0  0  0  0
   -2.4130   -2.3270    0.5280 O   0  0  0  0  0  0  0  0  0  0  0  0
   -2.2790   -3.5860    1.1040 C   0  0  0  0  0  0  0  0  0  0  0  0
   -1.4230   -4.3370    0.6050 O   0  0  0  0  0  0  0  0  0  0  0  0
   -3.0930   -4.0140    2.2310 C   0  0  0  0  0  0  0  0  0  0  0  0
   -3.9490   -3.2810    2.7430 O   0  0  0  0  0  0  0  0  0  0  0  0
   -2.8800   -5.3200    2.7470 N   0  0  0  0  0  0  0  0  0  0  0  0
   -3.6200   -5.8390    3.8420 C   0  0  0  0  0  0  0  0  0  0  0  0
   -4.5000   -5.1110    4.3800 O   0  0  0  0  0  0  0  0  0  0  0  0
   -3.3920   -7.1210    4.3240 O   0  0  0  0  0  0  0  0  0  0  0  0
    4.2550   -1.1330    0.5590 C   0  0  0  0  0  0  0  0  0  0  0  0
    4.0810   -1.9540    1.5050 O   0  0  0  0  0  0  0  0  0  0  0  0
  1  2  1  0
  2  3  1  0
  3  4  1  0
  3 42  1  0
  4  5  1  0
  5  6  1  0
  6  7  1  0
  6 42  1  0
  7  8  1  0
  8  9  2  0
  8 10  1  0
 10 11  1  0
 10 16  1  0
 11 12  1  0
 12 13  1  0
 13 14  1  0
 14 15  2  0
 14 16  1  0
 16 17  1  6
 16 26  1  0
 17 18  2  0
 17 19  1  0
 19 20  1  0
 20 21  2  0
 20 25  1  0
 21 22  1  0
 22 23  2  0
 23 24  1  0
 24 25  2  0
 26 27  1  1
 26 31  1  0
 27 28  2  0
 27 29  1  0
 29 30  1  0
 31 32  2  0
 31 33  1  0
 33 34  1  0
 34 35  2  0
 34 36  1  0
 36 37  2  0
 36 38  1  0
 38 39  1  0
 39 40  2  0
 39 41  1  0
 42 43  2  0
M  END
