
     RDKit          3D

 44 48  0  0  0  0  0  0  0  0999 V2000
   10.5890    1.0360   -0.3950 N   0  0  0  0  0  0  0  0  0  0  0  0
   10.3560   -0.2060   -1.0440 C   0  0  0  0  0  0  0  0  0  0  0  0
   11.2380   -0.6780   -1.7720 O   0  0  0  0  0  0  0  0  0  0  0  0
    9.0800   -0.8660   -0.8180 C   0  0  0  0  0  0  0  0  0  0  0  0
    8.8560   -2.0710   -1.4480 C   0  0  0  0  0  0  0  0  0  0  0  0
    7.6540   -2.7170   -1.2500 C   0  0  0  0  0  0  0  0  0  0  0  0
    6.7200   -2.1290   -0.4260 C   0  0  0  0  0  0  0  0  0  0  0  0
    6.9190   -0.9610    0.1940 N   0  0  0  0  0  0  0  0  0  0  0  0
    5.8680   -0.4430    1.0330 C   0  0  2  0  0  0  0  0  0  0  0  0
    4.6040   -0.6540    0.4800 O   0  0  0  0  0  0  0  0  0  0  0  0
    3.7920    0.0470    1.3720 C   0  0  2  0  0  0  0  0  0  0  0  0
    2.3980    0.2440    0.8140 C   0  0  0  0  0  0  0  0  0  0  0  0
    2.4570    0.9650   -0.3810 O   0  0  0  0  0  0  0  0  0  0  0  0
    0.9160    1.2000   -1.0270 P   0  0  1  0  0  0  0  0  0  0  0  0
    0.9700    0.9370   -2.4940 O   0  0  0  0  0  0  0  0  0  0  0  0
   -0.0970    0.0210   -0.3260 O   0  0  0  0  0  0  0  0  0  0  0  0
    0.3060    2.7350   -0.6530 O   0  0  0  0  0  0  0  0  0  0  0  0
   -1.3740    2.7760   -0.7800 P   0  0  1  0  0  0  0  0  0  0  0  0
   -1.8570    3.8850    0.1540 O   0  0  0  0  0  0  0  0  0  0  0  0
   -1.8470    3.2030   -2.3500 O   0  0  0  0  0  0  0  0  0  0  0  0
   -2.0740    1.3010   -0.3810 O   0  0  0  0  0  0  0  0  0  0  0  0
   -3.4030    1.4450    0.0160 C   0  0  0  0  0  0  0  0  0  0  0  0
   -3.9470    0.0610    0.3560 C   0  0  1  0  0  0  0  0  0  0  0  0
   -5.2710    0.1260    0.7610 O   0  0  0  0  0  0  0  0  0  0  0  0
   -5.8000   -1.1360    0.4980 C   0  0  1  0  0  0  0  0  0  0  0  0
   -7.2190   -1.1730    0.6090 N   0  0  0  0  0  0  0  0  0  0  0  0
   -7.9200   -2.1700    1.2160 C   0  0  0  0  0  0  0  0  0  0  0  0
   -9.2490   -1.8760    1.1340 N   0  0  0  0  0  0  0  0  0  0  0  0
   -9.3570   -0.7050    0.4820 C   0  0  0  0  0  0  0  0  0  0  0  0
  -10.4830    0.0450    0.1310 C   0  0  0  0  0  0  0  0  0  0  0  0
  -11.7800   -0.4260    0.4790 N   0  0  0  0  0  0  0  0  0  0  0  0
  -10.2750    1.1930   -0.5290 N   0  0  0  0  0  0  0  0  0  0  0  0
   -9.0420    1.6210   -0.8480 C   0  0  0  0  0  0  0  0  0  0  0  0
   -7.9430    0.8790   -0.5000 N   0  0  0  0  0  0  0  0  0  0  0  0
   -8.0900   -0.2720    0.1580 C   0  0  0  0  0  0  0  0  0  0  0  0
   -5.2990   -1.3880   -0.9100 C   0  0  2  0  0  0  0  0  0  0  0  0
   -5.3120   -2.7670   -1.1010 O   0  0  0  0  0  0  0  0  0  0  0  0
   -3.8780   -0.8590   -0.8180 C   0  0  2  0  0  0  0  0  0  0  0  0
   -3.0650   -1.9710   -0.5010 O   0  0  0  0  0  0  0  0  0  0  0  0
    4.4810    1.3510    1.6470 C   0  0  1  0  0  0  0  0  0  0  0  0
    4.5660    1.5280    3.0460 O   0  0  0  0  0  0  0  0  0  0  0  0
    5.9040    1.0600    1.1630 C   0  0  1  0  0  0  0  0  0  0  0  0
    6.8390    1.4800    2.1070 O   0  0  0  0  0  0  0  0  0  0  0  0
    8.1050   -0.3420   -0.0130 C   0  0  0  0  0  0  0  0  0  0  0  0
  1  2  1  0
  2  3  2  0
  2  4  1  0
  4  5  2  0
  4 44  1  0
  5  6  1  0
  6  7  2  0
  7  8  1  0
  9  8  1  6
  8 44  2  0
  9 10  1  0
  9 42  1  0
 10 11  1  0
 11 12  1  6
 11 40  1  0
 12 13  1  0
 13 14  1  0
 14 15  2  0
 14 16  1  1
 14 17  1  0
 17 18  1  0
 18 19  2  0
 18 20  1  6
 18 21  1  0
 21 22  1  0
 23 22  1  6
 23 24  1  0
 23 38  1  0
 24 25  1  0
 25 26  1  6
 25 36  1  0
 26 27  1  0
 26 35  1  0
 27 28  2  0
 28 29  1  0
 29 30  2  0
 29 35  1  0
 30 31  1  0
 30 32  1  0
 32 33  2  0
 33 34  1  0
 34 35  2  0
 36 37  1  1
 36 38  1  0
 38 39  1  1
 40 41  1  1
 40 42  1  0
 42 43  1  1
M  CHG  2   8   1  16  -1
M  END
