
     RDKit          3D

 43 46  0  0  0  0  0  0  0  0999 V2000
   -3.9500    6.9290    0.2280 C   0  0  0  0  0  0  0  0  0  0  0  0
   -3.0050    5.8540    0.3590 O   0  0  0  0  0  0  0  0  0  0  0  0
   -3.3150    4.7080   -0.2950 N   0  0  0  0  0  0  0  0  0  0  0  0
   -2.8690    3.5720    0.0360 C   0  0  0  0  0  0  0  0  0  0  0  0
   -3.2270    2.3630   -0.6990 C   0  0  0  0  0  0  0  0  0  0  0  0
   -2.7990    1.1420   -0.4200 C   0  0  0  0  0  0  0  0  0  0  0  0
   -3.2680    0.0560   -1.2680 C   0  0  0  0  0  0  0  0  0  0  0  0
   -3.4230   -1.2130   -0.9040 C   0  0  0  0  0  0  0  0  0  0  0  0
   -3.1330   -1.6420    0.3880 O   0  0  0  0  0  0  0  0  0  0  0  0
   -2.8030   -3.0370    0.2740 C   0  0  2  0  0  0  0  0  0  0  0  0
   -1.4780   -3.2550   -0.3930 C   0  0  0  0  0  0  0  0  0  0  0  0
   -0.3950   -3.7570    0.5340 C   0  0  0  0  0  0  0  0  0  0  0  0
    0.8450   -3.9320   -0.3370 C   0  0  0  0  0  0  0  0  0  0  0  0
    2.0600   -3.7350    0.3930 N   0  0  0  0  0  0  0  0  0  0  0  0
    2.3250   -2.6450    1.2650 C   0  0  0  0  0  0  0  0  0  0  0  0
    2.9600   -2.9250    2.3420 O   0  0  0  0  0  0  0  0  0  0  0  0
    1.9460   -1.3600    1.0140 O   0  0  0  0  0  0  0  0  0  0  0  0
    2.1410   -0.6310   -0.1820 C   0  0  1  0  0  0  0  0  0  0  0  0
    0.9660   -0.5790   -0.8560 O   0  0  0  0  0  0  0  0  0  0  0  0
    0.1280    0.4600   -0.6470 C   0  0  2  0  0  0  0  0  0  0  0  0
    0.7500    1.8180   -0.5910 C   0  0  0  0  0  0  0  0  0  0  0  0
    2.2520    1.7890   -0.7540 C   0  0  0  0  0  0  0  0  0  0  0  0
    2.7280    0.7010    0.1980 C   0  0  2  0  0  0  0  0  0  0  0  0
    4.1670    0.7040    0.1980 N   0  0  0  0  0  0  0  0  0  0  0  0
    4.9910    1.0090    1.3450 C   0  0  0  0  0  0  0  0  0  0  0  0
    6.3360    1.3870    0.8320 C   0  0  0  0  0  0  0  0  0  0  0  0
    6.3900    0.7970   -0.4830 N   0  0  0  0  0  0  0  0  0  0  0  0
    7.5750    0.6340   -1.2430 C   0  0  0  0  0  0  0  0  0  0  0  0
    7.6400    1.2250   -2.4070 N   0  0  0  0  0  0  0  0  0  0  0  0
    5.0740    0.4260   -0.8530 C   0  0  0  0  0  0  0  0  0  0  0  0
    4.6970   -0.0880   -1.9570 O   0  0  0  0  0  0  0  0  0  0  0  0
   -0.6870    0.2870    0.6380 C   0  0  0  0  0  0  0  0  0  0  0  0
   -1.9550    0.8250    0.5970 O   0  0  0  0  0  0  0  0  0  0  0  0
   -3.8240   -3.4590   -0.6740 N   0  0  0  0  0  0  0  0  0  0  0  0
   -4.5560   -4.6850   -0.5910 C   0  0  0  0  0  0  0  0  0  0  0  0
   -5.7420   -4.5420    0.1570 O   0  0  0  0  0  0  0  0  0  0  0  0
   -6.3340   -5.7020    0.1750 O   0  0  0  0  0  0  0  0  0  0  0  0
   -3.8830   -2.4080   -1.6200 C   0  0  0  0  0  0  0  0  0  0  0  0
   -4.2510   -2.5050   -2.8050 O   0  0  0  0  0  0  0  0  0  0  0  0
   -2.0240    3.5150    1.1210 O   0  0  0  0  0  0  0  0  0  0  0  0
   -2.4300    4.0490    2.3610 C   0  0  0  0  0  0  0  0  0  0  0  0
   -3.5780    4.5820    2.4440 O   0  0  0  0  0  0  0  0  0  0  0  0
   -1.6300    4.0150    3.4860 O   0  0  0  0  0  0  0  0  0  0  0  0
  1  2  1  0
  2  3  1  0
  3  4  2  3
  4  5  1  0
  4 40  1  0
  5  6  2  3
  6  7  1  0
  6 33  1  0
  7  8  2  0
  8  9  1  0
  8 38  1  0
  9 10  1  0
 10 11  1  6
 10 34  1  0
 11 12  1  0
 12 13  1  0
 13 14  1  0
 14 15  1  0
 15 16  2  0
 15 17  1  0
 18 17  1  1
 18 19  1  0
 18 23  1  0
 19 20  1  0
 20 21  1  1
 20 32  1  0
 21 22  1  0
 22 23  1  0
 23 24  1  6
 24 25  1  0
 24 30  1  0
 25 26  1  0
 26 27  1  0
 27 28  1  0
 27 30  1  0
 28 29  2  0
 30 31  2  0
 32 33  1  0
 34 35  1  0
 34 38  1  0
 35 36  1  0
 36 37  1  0
 38 39  2  0
 40 41  1  0
 41 42  2  0
 41 43  1  0
M  END
