
     RDKit          3D

 43 46  0  0  0  0  0  0  0  0999 V2000
   -9.8210   -1.3820   -0.8940 C   0  0  0  0  0  0  0  0  0  0  0  0
   -9.2060   -0.8980   -2.1830 C   0  0  0  0  0  0  0  0  0  0  0  0
   -8.7480    0.4540   -2.1090 O   0  0  0  0  0  0  0  0  0  0  0  0
   -7.7470    0.8760   -1.2620 C   0  0  0  0  0  0  0  0  0  0  0  0
   -7.2060    0.0360   -0.5040 O   0  0  0  0  0  0  0  0  0  0  0  0
   -7.3000    2.2120   -1.2170 O   0  0  0  0  0  0  0  0  0  0  0  0
   -6.2250    2.5710   -0.3280 C   0  0  0  0  0  0  0  0  0  0  0  0
   -5.0300    1.7460   -0.6850 C   0  0  0  0  0  0  0  0  0  0  0  0
   -4.9920    0.8390   -1.6040 O   0  0  0  0  0  0  0  0  0  0  0  0
   -3.7860    0.2880   -1.6690 C   0  0  0  0  0  0  0  0  0  0  0  0
   -3.4830   -0.6370   -2.4920 N   0  0  0  0  0  0  0  0  0  0  0  0
   -2.9660    0.8350   -0.7570 N   0  0  0  0  0  0  0  0  0  0  0  0
   -1.6830    0.6300   -0.4200 C   0  0  0  0  0  0  0  0  0  0  0  0
   -0.8980   -0.2640   -0.9030 C   0  0  0  0  0  0  0  0  0  0  0  0
   -1.0360   -1.3030   -1.8870 C   0  0  0  0  0  0  0  0  0  0  0  0
   -1.4690   -2.6240   -1.6970 C   0  0  0  0  0  0  0  0  0  0  0  0
   -1.4440   -3.2710   -2.8710 N   0  0  0  0  0  0  0  0  0  0  0  0
   -0.9990   -2.3660   -3.7790 C   0  0  0  0  0  0  0  0  0  0  0  0
   -0.7700   -1.2370   -3.1850 O   0  0  0  0  0  0  0  0  0  0  0  0
   -1.1640    1.4380    0.6270 C   0  0  0  0  0  0  0  0  0  0  0  0
    0.1050    1.4060    0.9590 C   0  0  0  0  0  0  0  0  0  0  0  0
    0.7470    2.1640    2.0040 C   0  0  0  0  0  0  0  0  0  0  0  0
    2.0760    1.9930    2.1390 C   0  0  0  0  0  0  0  0  0  0  0  0
    2.9190    1.1540    1.3730 N   0  0  0  0  0  0  0  0  0  0  0  0
    4.1630    1.2500    1.7750 C   0  0  0  0  0  0  0  0  0  0  0  0
    5.1750    0.4760    1.1180 N   0  0  0  0  0  0  0  0  0  0  0  0
    4.9450   -0.8480    0.5800 C   0  0  2  0  0  0  0  0  0  0  0  0
    6.1850   -1.4160   -0.0380 C   0  0  0  0  0  0  0  0  0  0  0  0
    7.2900   -1.6350    0.6370 O   0  0  0  0  0  0  0  0  0  0  0  0
    8.0030   -0.7470    1.3120 C   0  0  0  0  0  0  0  0  0  0  0  0
    9.2720   -1.4830    1.8230 C   0  0  0  0  0  0  0  0  0  0  0  0
    9.9770   -1.9750    0.6920 O   0  0  0  0  0  0  0  0  0  0  0  0
   11.0670   -2.6020    1.0730 O   0  0  0  0  0  0  0  0  0  0  0  0
    3.9960   -0.6980   -0.5890 C   0  0  0  0  0  0  0  0  0  0  0  0
    3.6430    0.4360   -0.9820 O   0  0  0  0  0  0  0  0  0  0  0  0
    3.4830   -1.7900   -1.2680 O   0  0  0  0  0  0  0  0  0  0  0  0
    4.2390    2.1450    2.8240 O   0  0  0  0  0  0  0  0  0  0  0  0
    2.9440    2.6450    3.0970 C   0  0  0  0  0  0  0  0  0  0  0  0
    2.6000    3.4810    3.9750 O   0  0  0  0  0  0  0  0  0  0  0  0
   -2.0280    2.3690    1.2190 C   0  0  0  0  0  0  0  0  0  0  0  0
   -1.6030    3.0780    2.1280 N   0  0  0  0  0  0  0  0  0  0  0  0
   -3.2920    2.4900    0.8150 O   0  0  0  0  0  0  0  0  0  0  0  0
   -3.7670    1.7620   -0.1400 C   0  0  0  0  0  0  0  0  0  0  0  0
  1  2  1  0
  2  3  1  0
  3  4  1  0
  4  5  2  0
  4  6  1  0
  6  7  1  0
  7  8  1  0
  8  9  1  0
  8 43  2  0
  9 10  1  0
 10 11  2  0
 10 12  1  0
 12 13  1  0
 12 43  1  0
 13 14  2  3
 13 20  1  0
 14 15  1  0
 15 16  2  0
 15 19  1  0
 16 17  1  0
 17 18  2  0
 18 19  1  0
 20 21  2  3
 20 40  1  0
 21 22  1  0
 22 23  2  3
 23 24  1  0
 23 38  1  0
 24 25  2  0
 25 26  1  0
 25 37  1  0
 26 27  1  0
 27 28  1  6
 27 34  1  0
 28 29  1  0
 29 30  1  0
 30 31  1  0
 31 32  1  0
 32 33  1  0
 34 35  2  0
 34 36  1  0
 37 38  1  0
 38 39  2  0
 40 41  2  0
 40 42  1  0
 42 43  1  0
M  END
