
     RDKit          3D

 44 48  0  0  0  0  0  0  0  0999 V2000
   -4.1570   -0.7100   -1.7750 C   0  0  0  0  0  0  0  0  0  0  0  0
   -3.3030   -0.1830   -0.6420 C   0  0  1  0  0  0  0  0  0  0  0  0
   -4.3300    0.4690    0.3240 C   0  0  0  0  0  0  0  0  0  0  0  0
   -4.8830    1.6120   -0.2370 O   0  0  0  0  0  0  0  0  0  0  0  0
   -5.8210    2.3250    0.4930 C   0  0  0  0  0  0  0  0  0  0  0  0
   -6.1830    1.9650    1.6460 O   0  0  0  0  0  0  0  0  0  0  0  0
   -6.4310    3.4860    0.0090 O   0  0  0  0  0  0  0  0  0  0  0  0
   -2.9060   -1.4490    0.1410 C   0  0  0  0  0  0  0  0  0  0  0  0
   -1.5520   -1.9680   -0.2880 C   0  0  0  0  0  0  0  0  0  0  0  0
   -0.8760   -2.6590    0.8090 N   0  0  0  0  0  0  0  0  0  0  0  0
   -1.5560   -3.4530    1.7590 C   0  0  0  0  0  0  0  0  0  0  0  0
   -2.8110   -3.5850    1.6670 O   0  0  0  0  0  0  0  0  0  0  0  0
   -0.8280   -4.0640    2.7670 O   0  0  0  0  0  0  0  0  0  0  0  0
    0.5870   -2.5430    0.9440 C   0  0  2  0  0  0  0  0  0  0  0  0
    0.8260   -1.0910    1.2780 C   0  0  0  0  0  0  0  0  0  0  0  0
   -0.0220   -0.5050    2.3420 C   0  0  0  0  0  0  0  0  0  0  0  0
   -0.9390    0.3770    1.7960 O   0  0  0  0  0  0  0  0  0  0  0  0
   -0.8320    1.7290    1.5450 C   0  0  0  0  0  0  0  0  0  0  0  0
   -1.7850    2.4630    1.9620 O   0  0  0  0  0  0  0  0  0  0  0  0
    0.2540    2.4150    0.8520 C   0  0  0  0  0  0  0  0  0  0  0  0
    0.6950    2.1140   -0.3570 C   0  0  0  0  0  0  0  0  0  0  0  0
    0.0030    1.3740   -1.3600 N   0  0  0  0  0  0  0  0  0  0  0  0
   -1.3870    1.2340   -1.6480 C   0  0  0  0  0  0  0  0  0  0  0  0
   -1.6870    1.7000   -2.8640 O   0  0  0  0  0  0  0  0  0  0  0  0
   -2.3540    0.7180   -0.8760 O   0  0  0  0  0  0  0  0  0  0  0  0
    2.0350    2.7470   -0.4410 C   0  0  2  0  0  0  0  0  0  0  0  0
    3.0910    1.7530    0.0180 C   0  0  0  0  0  0  0  0  0  0  0  0
    3.8190    2.2650    0.9100 O   0  0  0  0  0  0  0  0  0  0  0  0
    3.0870    0.5660   -0.5570 O   0  0  0  0  0  0  0  0  0  0  0  0
    3.8490   -0.3150   -1.2160 C   0  0  1  0  0  0  0  0  0  0  0  0
    4.5030    0.4260   -2.3960 C   0  0  0  0  0  0  0  0  0  0  0  0
    4.9950   -0.9860   -0.5040 C   0  0  0  0  0  0  0  0  0  0  0  0
    4.7160   -2.2690   -0.0510 O   0  0  0  0  0  0  0  0  0  0  0  0
    3.4470   -2.7600    0.2200 C   0  0  0  0  0  0  0  0  0  0  0  0
    3.1580   -3.5270    1.1620 O   0  0  0  0  0  0  0  0  0  0  0  0
    2.4320   -2.2770   -0.7380 N   0  0  0  0  0  0  0  0  0  0  0  0
    1.1540   -2.8170   -0.4310 C   0  0  0  0  0  0  0  0  0  0  0  0
    2.9660   -1.4360   -1.7040 C   0  0  0  0  0  0  0  0  0  0  0  0
    2.8600   -1.4170   -2.9920 O   0  0  0  0  0  0  0  0  0  0  0  0
    2.0040    3.7960    0.5490 N   0  0  0  0  0  0  0  0  0  0  0  0
    2.7050    4.9010    0.9650 C   0  0  0  0  0  0  0  0  0  0  0  0
    2.1760    5.2790    2.1460 N   0  0  0  0  0  0  0  0  0  0  0  0
    1.1960    4.4380    2.4270 N   0  0  0  0  0  0  0  0  0  0  0  0
    1.0720    3.5060    1.4330 C   0  0  0  0  0  0  0  0  0  0  0  0
  2  1  1  6
  2  3  1  0
  2  8  1  0
  2 25  1  0
  3  4  1  0
  4  5  1  0
  5  6  2  0
  5  7  1  0
  8  9  1  0
  9 10  1  0
 10 11  1  0
 10 14  1  0
 11 12  2  0
 11 13  1  0
 14 15  1  0
 14 37  1  6
 15 16  1  0
 16 17  1  0
 17 18  1  0
 18 19  2  0
 18 20  1  0
 20 21  2  0
 20 44  1  0
 21 22  1  0
 21 26  1  0
 22 23  1  0
 23 24  2  0
 23 25  1  0
 26 27  1  0
 26 40  1  1
 27 28  2  0
 27 29  1  0
 29 30  1  0
 30 31  1  6
 30 32  1  0
 30 38  1  0
 32 33  1  0
 33 34  1  0
 34 35  2  0
 34 36  1  0
 36 37  1  0
 36 38  1  0
 38 39  2  0
 40 41  1  0
 40 44  1  0
 41 42  2  0
 42 43  1  0
 43 44  2  0
M  END
