
     RDKit          3D

 31 33  0  0  0  0  0  0  0  0999 V2000
   -4.7890    3.7590   -1.4010 C   0  0  0  0  0  0  0  0  0  0  0  0
   -3.4720    3.4410   -1.0570 O   0  0  0  0  0  0  0  0  0  0  0  0
   -3.1240    2.1960   -0.5720 C   0  0  0  0  0  0  0  0  0  0  0  0
   -4.0060    1.1790   -0.3810 C   0  0  0  0  0  0  0  0  0  0  0  0
   -3.6410   -0.0680    0.1050 C   0  0  0  0  0  0  0  0  0  0  0  0
   -4.6430   -1.1350    0.2920 C   0  0  1  0  0  0  0  0  0  0  0  0
   -4.4020   -2.3100   -0.6340 C   0  0  0  0  0  0  0  0  0  0  0  0
   -4.7200   -1.5790    1.7350 C   0  0  0  0  0  0  0  0  0  0  0  0
   -5.6950   -2.6190    1.9240 N   0  0  0  0  0  0  0  0  0  0  0  0
   -2.3050   -0.2200    0.3890 C   0  0  0  0  0  0  0  0  0  0  0  0
   -1.3530    0.7820    0.2160 C   0  0  0  0  0  0  0  0  0  0  0  0
    0.0390    0.5200    0.5360 C   0  0  0  0  0  0  0  0  0  0  0  0
    0.2950   -0.6490    0.9770 O   0  0  0  0  0  0  0  0  0  0  0  0
    1.0960    1.3570    0.4260 O   0  0  0  0  0  0  0  0  0  0  0  0
    2.4460    1.1240    0.7130 C   0  0  0  0  0  0  0  0  0  0  0  0
    3.1110    0.1080   -0.0970 C   0  0  0  0  0  0  0  0  0  0  0  0
    2.4200   -0.4820   -1.1430 C   0  0  0  0  0  0  0  0  0  0  0  0
    3.0230   -1.4110   -2.0010 C   0  0  0  0  0  0  0  0  0  0  0  0
    4.3480   -1.7630   -1.8160 C   0  0  0  0  0  0  0  0  0  0  0  0
    4.9920   -2.7240   -2.6960 C   0  0  0  0  0  0  0  0  0  0  0  0
    4.3330   -3.2330   -3.6230 O   0  0  0  0  0  0  0  0  0  0  0  0
    4.9980   -1.1560   -0.7680 C   0  0  0  0  0  0  0  0  0  0  0  0
    4.4240   -0.2380    0.0920 C   0  0  0  0  0  0  0  0  0  0  0  0
    5.2530    0.2960    1.2160 C   0  0  0  0  0  0  0  0  0  0  0  0
    4.7820    0.0660    2.5260 C   0  0  0  0  0  0  0  0  0  0  0  0
    6.1000    0.8100    3.5640 S   0  0  0  0  0  0  0  0  0  0  0  0
    7.1330    1.3450    2.1430 C   0  0  0  0  0  0  0  0  0  0  0  0
    6.4060    0.9240    1.0450 C   0  0  0  0  0  0  0  0  0  0  0  0
    7.1630    1.3000   -0.7280 Br  0  0  0  0  0  0  0  0  0  0  0  0
   -1.7630    2.0000   -0.2680 C   0  0  0  0  0  0  0  0  0  0  0  0
   -0.8940    3.0580   -0.4740 O   0  0  0  0  0  0  0  0  0  0  0  0
  1  2  1  0
  2  3  1  0
  3  4  2  0
  3 30  1  0
  4  5  1  0
  5  6  1  0
  5 10  2  0
  6  7  1  6
  6  8  1  0
  8  9  1  0
 10 11  1  0
 11 12  1  0
 11 30  2  0
 12 13  2  0
 12 14  1  0
 14 15  1  0
 15 16  1  0
 16 17  2  0
 16 23  1  0
 17 18  1  0
 18 19  2  0
 19 20  1  0
 19 22  1  0
 20 21  2  0
 22 23  2  0
 23 24  1  0
 24 25  2  0
 24 28  1  0
 25 26  1  0
 26 27  1  0
 27 28  2  0
 28 29  1  0
 30 31  1  0
M  END
