
     RDKit          3D

 31 34  0  0  0  0  0  0  0  0999 V2000
   -9.4350    3.8390    0.0230 C   0  0  0  0  0  0  0  0  0  0  0  0
   -8.4580    2.7180    0.4100 C   0  0  0  0  0  0  0  0  0  0  0  0
   -7.3100    3.3660    0.9670 N   0  0  0  0  0  0  0  0  0  0  0  0
   -6.3260    2.4830    1.5340 C   0  0  0  0  0  0  0  0  0  0  0  0
   -5.8050    1.5210    0.4680 C   0  0  0  0  0  0  0  0  0  0  0  0
   -4.9060    0.6610    0.8340 O   0  0  0  0  0  0  0  0  0  0  0  0
   -4.0520   -0.2020    1.2230 C   0  0  0  0  0  0  0  0  0  0  0  0
   -4.3570   -1.1140    2.2430 C   0  0  0  0  0  0  0  0  0  0  0  0
   -3.4600   -2.0430    2.6750 C   0  0  0  0  0  0  0  0  0  0  0  0
   -2.1930   -2.1220    2.1140 C   0  0  0  0  0  0  0  0  0  0  0  0
   -1.8480   -1.2490    1.1120 C   0  0  0  0  0  0  0  0  0  0  0  0
   -0.5840   -1.3300    0.5570 C   0  0  0  0  0  0  0  0  0  0  0  0
    0.3940   -2.2730    0.9310 N   0  0  0  0  0  0  0  0  0  0  0  0
    1.7210   -2.2970    0.4450 C   0  0  0  0  0  0  0  0  0  0  0  0
    2.4320   -1.2200    0.2660 N   0  0  0  0  0  0  0  0  0  0  0  0
    3.7150   -1.5870   -0.2270 C   0  0  0  0  0  0  0  0  0  0  0  0
    4.7300   -0.7950   -0.5360 C   0  0  0  0  0  0  0  0  0  0  0  0
    5.9520   -1.3840   -1.0230 C   0  0  0  0  0  0  0  0  0  0  0  0
    6.9800   -0.6500   -1.3370 C   0  0  0  0  0  0  0  0  0  0  0  0
    7.0060    0.7610   -1.2360 N   0  0  0  0  0  0  0  0  0  0  0  0
    7.9350    1.5670   -1.9880 C   0  0  0  0  0  0  0  0  0  0  0  0
    9.3110    0.9700   -2.0520 C   0  0  0  0  0  0  0  0  0  0  0  0
    9.4100   -0.4520   -1.6190 C   0  0  0  0  0  0  0  0  0  0  0  0
    8.2110   -1.2340   -1.8270 N   0  0  0  0  0  0  0  0  0  0  0  0
    3.6940   -3.0010   -0.3220 N   0  0  0  0  0  0  0  0  0  0  0  0
    2.5490   -3.4590    0.0600 C   0  0  0  0  0  0  0  0  0  0  0  0
    2.0850   -4.7890    0.1380 N   0  0  0  0  0  0  0  0  0  0  0  0
   -0.2870   -0.4320   -0.4440 C   0  0  0  0  0  0  0  0  0  0  0  0
   -1.2210    0.5180   -0.8770 C   0  0  0  0  0  0  0  0  0  0  0  0
   -2.4620    0.5680   -0.3030 C   0  0  0  0  0  0  0  0  0  0  0  0
   -2.7610   -0.3190    0.6870 C   0  0  0  0  0  0  0  0  0  0  0  0
  1  2  1  0
  2  3  1  0
  3  4  1  0
  4  5  1  0
  5  6  1  0
  6  7  1  0
  7  8  2  0
  7 31  1  0
  8  9  1  0
  9 10  2  0
 10 11  1  0
 11 12  2  0
 11 31  1  0
 12 13  1  0
 12 28  1  0
 13 14  1  0
 14 15  2  0
 14 26  1  0
 15 16  1  0
 16 17  2  3
 16 25  1  0
 17 18  1  0
 18 19  2  3
 19 20  1  0
 19 24  1  0
 20 21  1  0
 21 22  1  0
 22 23  1  0
 23 24  1  0
 25 26  2  0
 26 27  1  0
 28 29  2  0
 29 30  1  0
 30 31  2  0
M  CHG  2   3   1  25   1
M  END
