
     RDKit          3D

 31 34  0  0  0  0  0  0  0  0999 V2000
    5.3780    0.7830    1.4350 C   0  0  0  0  0  0  0  0  0  0  0  0
    5.6610   -0.1330    0.3160 C   0  0  0  0  0  0  0  0  0  0  0  0
    6.9120   -0.5820    0.0970 C   0  0  0  0  0  0  0  0  0  0  0  0
    8.0090   -0.0990    0.9670 C   0  0  0  0  0  0  0  0  0  0  0  0
    8.9410    0.6510    0.0800 N   0  0  0  0  0  0  0  0  0  0  0  0
    7.0850   -1.4830   -0.9120 C   0  0  0  0  0  0  0  0  0  0  0  0
    6.0100   -1.9240   -1.6900 C   0  0  0  0  0  0  0  0  0  0  0  0
    4.7480   -1.4210   -1.4250 C   0  0  0  0  0  0  0  0  0  0  0  0
    4.5130   -0.5080   -0.4320 C   0  0  0  0  0  0  0  0  0  0  0  0
    3.4210    0.2890   -0.2930 N   0  0  0  0  0  0  0  0  0  0  0  0
    2.1300    0.7180   -0.3290 C   0  0  0  0  0  0  0  0  0  0  0  0
    1.8870    2.0260    0.1850 C   0  0  0  0  0  0  0  0  0  0  0  0
    0.6430    2.5720    0.1090 C   0  0  0  0  0  0  0  0  0  0  0  0
   -0.3570    1.8640   -0.4550 C   0  0  0  0  0  0  0  0  0  0  0  0
   -0.1520    0.5680   -0.9680 C   0  0  0  0  0  0  0  0  0  0  0  0
   -1.3360   -0.0780   -1.6060 C   0  0  0  0  0  0  0  0  0  0  0  0
   -2.2370   -0.7290   -0.7720 N   0  0  0  0  0  0  0  0  0  0  0  0
   -1.8560   -1.8490   -0.0050 C   0  0  0  0  0  0  0  0  0  0  0  0
   -2.6780   -1.9610    1.2700 C   0  0  0  0  0  0  0  0  0  0  0  0
   -4.0470   -1.8580    1.0710 O   0  0  0  0  0  0  0  0  0  0  0  0
   -4.4140   -0.9960    0.0560 C   0  0  1  0  0  0  0  0  0  0  0  0
   -5.7550   -0.4470    0.0990 C   0  0  0  0  0  0  0  0  0  0  0  0
   -6.0770    0.9010    0.0710 C   0  0  0  0  0  0  0  0  0  0  0  0
   -7.3730    1.3820    0.0630 C   0  0  0  0  0  0  0  0  0  0  0  0
   -7.6420    2.7700    0.0570 N   0  0  0  0  0  0  0  0  0  0  0  0
   -8.3640    0.4520    0.0840 C   0  0  0  0  0  0  0  0  0  0  0  0
   -8.0790   -0.9020    0.1070 C   0  0  0  0  0  0  0  0  0  0  0  0
   -9.1230   -1.8350    0.1090 N   0  0  0  0  0  0  0  0  0  0  0  0
   -6.8130   -1.3020    0.1160 N   0  0  0  0  0  0  0  0  0  0  0  0
   -3.3380    0.0440   -0.2260 C   0  0  0  0  0  0  0  0  0  0  0  0
    1.0660    0.0470   -0.8880 N   0  0  0  0  0  0  0  0  0  0  0  0
  1  2  1  0
  2  3  2  0
  2  9  1  0
  3  4  1  0
  3  6  1  0
  4  5  1  0
  6  7  2  0
  7  8  1  0
  8  9  2  0
  9 10  1  0
 10 11  1  0
 11 12  2  0
 11 31  1  0
 12 13  1  0
 13 14  2  0
 14 15  1  0
 15 16  1  0
 15 31  2  0
 16 17  1  0
 17 18  1  0
 17 30  1  0
 18 19  1  0
 19 20  1  0
 20 21  1  0
 21 22  1  1
 21 30  1  0
 22 23  2  0
 22 29  1  0
 23 24  1  0
 24 25  1  0
 24 26  2  0
 26 27  1  0
 27 28  1  0
 27 29  2  0
M  CHG  2   5   1  31   1
M  END
