
     RDKit          3D

 31 33  0  0  0  0  0  0  0  0999 V2000
    8.6380   -0.4640   -3.6560 C   0  0  0  0  0  0  0  0  0  0  0  0
    7.3410   -0.3420   -3.0990 O   0  0  0  0  0  0  0  0  0  0  0  0
    7.0970   -0.4860   -1.7420 C   0  0  0  0  0  0  0  0  0  0  0  0
    8.0740   -0.7340   -0.9970 O   0  0  0  0  0  0  0  0  0  0  0  0
    5.7260   -0.3460   -1.2330 C   0  0  0  0  0  0  0  0  0  0  0  0
    4.6730   -0.0730   -2.0740 C   0  0  0  0  0  0  0  0  0  0  0  0
    3.4020    0.0560   -1.5910 C   0  0  0  0  0  0  0  0  0  0  0  0
    3.0830   -0.0780   -0.2260 C   0  0  0  0  0  0  0  0  0  0  0  0
    1.7300    0.0470    0.1770 N   0  0  0  0  0  0  0  0  0  0  0  0
    1.3140    0.3670    1.4580 C   0  0  0  0  0  0  0  0  0  0  0  0
    2.2270    0.5710    2.3270 O   0  0  0  0  0  0  0  0  0  0  0  0
   -0.0610    0.5030    1.9450 C   0  0  0  0  0  0  0  0  0  0  0  0
   -0.2870    0.8360    3.2850 C   0  0  0  0  0  0  0  0  0  0  0  0
   -1.5430    0.9800    3.8110 C   0  0  0  0  0  0  0  0  0  0  0  0
   -1.8230    1.4290    5.6190 Br  0  0  0  0  0  0  0  0  0  0  0  0
   -2.6190    0.7890    2.9880 C   0  0  0  0  0  0  0  0  0  0  0  0
   -2.4260    0.4640    1.6800 C   0  0  0  0  0  0  0  0  0  0  0  0
   -3.5240    0.2730    0.8580 O   0  0  0  0  0  0  0  0  0  0  0  0
   -4.8250    0.4050    1.3350 C   0  0  0  0  0  0  0  0  0  0  0  0
   -5.8550    0.1450    0.2350 C   0  0  0  0  0  0  0  0  0  0  0  0
   -5.4730   -0.1660   -1.0080 C   0  0  0  0  0  0  0  0  0  0  0  0
   -6.4500   -0.3870   -1.9500 C   0  0  0  0  0  0  0  0  0  0  0  0
   -6.3380   -0.7440   -3.3880 C   0  0  0  0  0  0  0  0  0  0  0  0
   -7.9510   -0.1460   -1.0400 S   0  0  0  0  0  0  0  0  0  0  0  0
   -7.1730    0.2350    0.5380 C   0  0  0  0  0  0  0  0  0  0  0  0
   -7.9200    0.5490    1.7790 C   0  0  0  0  0  0  0  0  0  0  0  0
   -1.1460    0.3170    1.1460 C   0  0  0  0  0  0  0  0  0  0  0  0
   -1.0350   -0.0210   -0.2210 O   0  0  0  0  0  0  0  0  0  0  0  0
    4.1300   -0.3500    0.6020 C   0  0  0  0  0  0  0  0  0  0  0  0
    5.4310   -0.4800    0.0980 C   0  0  0  0  0  0  0  0  0  0  0  0
    6.5160   -0.7750    1.0690 C   0  0  0  0  0  0  0  0  0  0  0  0
  1  2  1  0
  2  3  1  0
  3  4  2  0
  3  5  1  0
  5  6  2  0
  5 30  1  0
  6  7  1  0
  7  8  2  0
  8  9  1  0
  8 29  1  0
  9 10  1  0
 10 11  2  0
 10 12  1  0
 12 13  2  0
 12 27  1  0
 13 14  1  0
 14 15  1  0
 14 16  2  0
 16 17  1  0
 17 18  1  0
 17 27  2  0
 18 19  1  0
 19 20  1  0
 20 21  1  0
 20 25  2  0
 21 22  2  0
 22 23  1  0
 22 24  1  0
 24 25  1  0
 25 26  1  0
 27 28  1  0
 29 30  2  0
 30 31  1  0
M  END
