
     RDKit          3D

 19 19  0  0  0  0  0  0  0  0999 V2000
    4.6320    0.8130   -1.2710 O   0  0  0  0  0  0  0  0  0  0  0  0
    5.3500   -0.0690   -0.7500 C   0  0  0  0  0  0  0  0  0  0  0  0
    6.4390   -0.5940   -1.4560 O   0  0  0  0  0  0  0  0  0  0  0  0
    5.0400   -0.5020    0.5230 O   0  0  0  0  0  0  0  0  0  0  0  0
    3.9540    0.0320    1.2050 C   0  0  0  0  0  0  0  0  0  0  0  0
    2.6790   -0.2000    0.4770 C   0  0  0  0  0  0  0  0  0  0  0  0
    2.6720   -0.8170   -0.6180 O   0  0  0  0  0  0  0  0  0  0  0  0
    1.4580    0.2460    0.9620 O   0  0  0  0  0  0  0  0  0  0  0  0
    0.2540    0.0430    0.3030 C   0  0  0  0  0  0  0  0  0  0  0  0
    0.2630   -0.5770   -0.7930 O   0  0  0  0  0  0  0  0  0  0  0  0
   -0.9640    0.4850    0.7830 O   0  0  0  0  0  0  0  0  0  0  0  0
   -2.1880    0.2750    0.1060 C   0  0  2  0  0  0  0  0  0  0  0  0
   -2.8540    1.4860   -0.1710 O   0  0  0  0  0  0  0  0  0  0  0  0
   -4.2430    1.4740   -0.1820 C   0  0  0  0  0  0  0  0  0  0  0  0
   -4.9250    2.5510   -0.2330 O   0  0  0  0  0  0  0  0  0  0  0  0
   -4.9940    0.2680   -0.1380 N   0  0  0  0  0  0  0  0  0  0  0  0
   -4.4100   -0.9310    0.4130 C   0  0  0  0  0  0  0  0  0  0  0  0
   -3.0690   -0.5780    0.9380 C   0  0  0  0  0  0  0  0  0  0  0  0
   -2.6730   -0.9630    2.0200 O   0  0  0  0  0  0  0  0  0  0  0  0
  1  2  2  0
  2  3  1  0
  2  4  1  0
  4  5  1  0
  5  6  1  0
  6  7  2  0
  6  8  1  0
  8  9  1  0
  9 10  2  0
  9 11  1  0
 12 11  1  1
 12 13  1  0
 12 18  1  0
 13 14  1  0
 14 15  2  0
 14 16  1  0
 16 17  1  0
 17 18  1  0
 18 19  2  0
M  END
