
     RDKit          3D

 19 19  0  0  0  0  0  0  0  0999 V2000
   -1.6000    3.5180    0.8410 O   0  0  0  0  0  0  0  0  0  0  0  0
   -1.6810    2.3960    0.2150 C   0  0  0  0  0  0  0  0  0  0  0  0
   -1.1690    2.3140   -1.1020 N   0  0  0  0  0  0  0  0  0  0  0  0
   -0.3180    1.4120   -1.6250 O   0  0  0  0  0  0  0  0  0  0  0  0
    0.6550    0.6450   -1.1030 C   0  0  0  0  0  0  0  0  0  0  0  0
    1.4860    0.0710   -1.8550 O   0  0  0  0  0  0  0  0  0  0  0  0
    0.7920    0.4450    0.3470 C   0  0  2  0  0  0  0  0  0  0  0  0
    2.2070    0.1800    0.7900 C   0  0  0  0  0  0  0  0  0  0  0  0
    2.7250   -0.9950    0.2560 O   0  0  0  0  0  0  0  0  0  0  0  0
    3.9390   -1.1800    0.6630 O   0  0  0  0  0  0  0  0  0  0  0  0
    4.7910   -0.5420   -0.1010 O   0  0  0  0  0  0  0  0  0  0  0  0
    5.5660    0.2110    0.6580 O   0  0  0  0  0  0  0  0  0  0  0  0
    0.0210   -0.6230    0.7730 O   0  0  0  0  0  0  0  0  0  0  0  0
   -0.3380   -1.4670   -0.2400 C   0  0  0  0  0  0  0  0  0  0  0  0
   -1.6070   -2.2410    0.0340 C   0  0  0  0  0  0  0  0  0  0  0  0
   -2.1730   -2.0300    1.2390 O   0  0  0  0  0  0  0  0  0  0  0  0
   -2.5110   -0.7900    1.6270 C   0  0  0  0  0  0  0  0  0  0  0  0
   -2.8180    0.2120    0.5730 C   0  0  0  0  0  0  0  0  0  0  0  0
   -2.2770    1.4240    0.9610 O   0  0  0  0  0  0  0  0  0  0  0  0
  1  2  2  0
  2  3  1  0
  2 19  1  0
  3  4  1  0
  4  5  1  0
  5  6  2  0
  5  7  1  0
  7  8  1  6
  7 13  1  0
  8  9  1  0
  9 10  1  0
 10 11  1  0
 11 12  1  0
 13 14  1  0
 14 15  1  0
 15 16  1  0
 16 17  1  0
 17 18  1  0
 18 19  1  0
M  END
