
     RDKit          3D

 19 19  0  0  0  0  0  0  0  0999 V2000
    3.4730    1.4610   -1.1420 O   0  0  0  0  0  0  0  0  0  0  0  0
    3.3520    0.7490   -0.1230 C   0  0  0  0  0  0  0  0  0  0  0  0
    2.0420    0.1370    0.2050 C   0  0  0  0  0  0  0  0  0  0  0  0
    1.0520    0.5430   -0.8590 C   0  0  0  0  0  0  0  0  0  0  0  0
   -0.2510    0.0020   -0.6400 N   0  0  0  0  0  0  0  0  0  0  0  0
   -1.0060    0.2910    0.5210 C   0  0  0  0  0  0  0  0  0  0  0  0
   -0.5450    1.0440    1.4020 O   0  0  0  0  0  0  0  0  0  0  0  0
   -2.3300   -0.3030    0.6740 C   0  0  2  0  0  0  0  0  0  0  0  0
   -2.6890   -1.1270   -0.4200 O   0  0  0  0  0  0  0  0  0  0  0  0
   -4.0100   -1.2250   -0.8190 C   0  0  0  0  0  0  0  0  0  0  0  0
   -4.2980   -1.5460   -2.0130 O   0  0  0  0  0  0  0  0  0  0  0  0
   -5.0830   -0.9480    0.1720 C   0  0  0  0  0  0  0  0  0  0  0  0
   -4.7200    0.2340    0.8610 O   0  0  0  0  0  0  0  0  0  0  0  0
   -3.4110    0.6780    0.8690 C   0  0  0  0  0  0  0  0  0  0  0  0
   -3.1850    1.9210    1.0460 O   0  0  0  0  0  0  0  0  0  0  0  0
    4.4420    0.5340    0.6970 O   0  0  0  0  0  0  0  0  0  0  0  0
    5.6120    1.0930    0.3860 O   0  0  0  0  0  0  0  0  0  0  0  0
    6.1020    0.6320   -0.7490 O   0  0  0  0  0  0  0  0  0  0  0  0
    6.8410   -0.4270   -0.5240 O   0  0  0  0  0  0  0  0  0  0  0  0
  1  2  2  0
  2  3  1  0
  2 16  1  0
  3  4  1  0
  4  5  1  0
  5  6  1  0
  6  7  2  0
  8  6  1  6
  8  9  1  0
  8 14  1  0
  9 10  1  0
 10 11  2  0
 10 12  1  0
 12 13  1  0
 13 14  1  0
 14 15  2  0
 16 17  1  0
 17 18  1  0
 18 19  1  0
M  END
