
     RDKit          3D

 19 20  0  0  0  0  0  0  0  0999 V2000
   -1.2400    2.2060   -1.4730 O   0  0  0  0  0  0  0  0  0  0  0  0
   -1.7550    1.3850   -0.6930 C   0  0  0  0  0  0  0  0  0  0  0  0
   -2.3220    1.9000    0.5060 N   0  0  0  0  0  0  0  0  0  0  0  0
   -2.3000    3.2420    0.7870 O   0  0  0  0  0  0  0  0  0  0  0  0
   -3.2190    3.7740   -0.0280 O   0  0  0  0  0  0  0  0  0  0  0  0
   -1.8030   -0.0490   -0.9340 C   0  0  1  0  0  0  0  0  0  0  0  0
   -1.1000   -0.4990   -2.0490 O   0  0  0  0  0  0  0  0  0  0  0  0
   -0.1150   -1.1270   -1.2580 C   0  0  1  0  0  0  0  0  0  0  0  0
    1.1700   -0.4040   -1.2200 C   0  0  0  0  0  0  0  0  0  0  0  0
    1.2900    0.6200   -1.9690 O   0  0  0  0  0  0  0  0  0  0  0  0
    2.2570   -0.7180   -0.4560 O   0  0  0  0  0  0  0  0  0  0  0  0
    3.4630    0.0230   -0.4610 C   0  0  0  0  0  0  0  0  0  0  0  0
    3.2230    1.3560   -0.0810 O   0  0  0  0  0  0  0  0  0  0  0  0
    4.3890    1.9810   -0.1170 O   0  0  0  0  0  0  0  0  0  0  0  0
   -1.0130   -0.9560   -0.0790 C   0  0  2  0  0  0  0  0  0  0  0  0
   -1.7080   -2.1170    0.2960 O   0  0  0  0  0  0  0  0  0  0  0  0
   -0.7650   -2.7580    1.0950 C   0  0  0  0  0  0  0  0  0  0  0  0
   -0.0670   -1.5810    1.7670 C   0  0  0  0  0  0  0  0  0  0  0  0
   -0.4200   -0.4550    1.0450 O   0  0  0  0  0  0  0  0  0  0  0  0
  1  2  2  0
  2  3  1  0
  6  2  1  1
  3  4  1  0
  4  5  1  0
  6  7  1  0
  6 15  1  0
  7  8  1  0
  8  9  1  1
  8 15  1  0
  9 10  2  0
  9 11  1  0
 11 12  1  0
 12 13  1  0
 13 14  1  0
 15 16  1  1
 15 19  1  0
 16 17  1  0
 17 18  1  0
 18 19  1  0
M  END
