
     RDKit          3D

 19 20  0  0  0  0  0  0  0  0999 V2000
   -0.5560    1.4920   -1.7140 O   0  0  0  0  0  0  0  0  0  0  0  0
   -0.3000    0.3660   -1.2450 C   0  0  0  0  0  0  0  0  0  0  0  0
    0.8410   -0.3500   -1.5930 O   0  0  0  0  0  0  0  0  0  0  0  0
    1.2760   -1.4600   -0.8470 C   0  0  1  0  0  0  0  0  0  0  0  0
    2.6720   -1.1270   -0.3370 C   0  0  0  0  0  0  0  0  0  0  0  0
    2.5930    0.0300    0.4700 O   0  0  0  0  0  0  0  0  0  0  0  0
    3.7830    0.3380    0.9220 O   0  0  0  0  0  0  0  0  0  0  0  0
    4.0930    1.5740    0.5360 O   0  0  0  0  0  0  0  0  0  0  0  0
    5.2710    1.5640   -0.0160 O   0  0  0  0  0  0  0  0  0  0  0  0
    0.3980   -1.8090    0.3020 C   0  0  0  0  0  0  0  0  0  0  0  0
   -0.3540   -0.7370    0.7820 O   0  0  0  0  0  0  0  0  0  0  0  0
   -1.1820   -0.3380   -0.2620 C   0  0  1  0  0  0  0  0  0  0  0  0
   -2.2830    0.4750    0.1690 N   0  0  0  0  0  0  0  0  0  0  0  0
   -3.6650    0.1930   -0.0290 C   0  0  0  0  0  0  0  0  0  0  0  0
   -4.2030   -0.9230   -0.2540 O   0  0  0  0  0  0  0  0  0  0  0  0
   -4.3480    1.5320    0.0910 C   0  0  0  0  0  0  0  0  0  0  0  0
   -3.5730    2.1410    1.0780 O   0  0  0  0  0  0  0  0  0  0  0  0
   -2.2670    1.7130    0.8710 C   0  0  0  0  0  0  0  0  0  0  0  0
   -1.2100    2.3130    1.2390 O   0  0  0  0  0  0  0  0  0  0  0  0
  1  2  2  0
  2  3  1  0
  2 12  1  0
  3  4  1  0
  4  5  1  1
  4 10  1  0
  5  6  1  0
  6  7  1  0
  7  8  1  0
  8  9  1  0
 10 11  1  0
 11 12  1  0
 12 13  1  1
 13 14  1  0
 13 18  1  0
 14 15  2  0
 14 16  1  0
 16 17  1  0
 17 18  1  0
 18 19  2  0
M  END
