
     RDKit          3D

 19 19  0  0  0  0  0  0  0  0999 V2000
    2.5650   -1.6390    0.0830 O   0  0  0  0  0  0  0  0  0  0  0  0
    1.9540   -0.5520   -0.0890 C   0  0  0  0  0  0  0  0  0  0  0  0
    0.5770   -0.5860   -0.4110 N   0  0  0  0  0  0  0  0  0  0  0  0
   -0.1500   -1.8560   -0.5480 C   0  0  0  0  0  0  0  0  0  0  0  0
   -1.5850   -1.6280   -0.8910 C   0  0  0  0  0  0  0  0  0  0  0  0
   -2.2150   -0.8680    0.1220 O   0  0  0  0  0  0  0  0  0  0  0  0
   -3.5530   -0.5210    0.0410 C   0  0  0  0  0  0  0  0  0  0  0  0
   -4.2030   -0.8900   -0.9480 O   0  0  0  0  0  0  0  0  0  0  0  0
   -4.1140    0.2280    1.0720 O   0  0  0  0  0  0  0  0  0  0  0  0
   -5.4870    0.5950    1.0060 C   0  0  0  0  0  0  0  0  0  0  0  0
   -5.7530    1.3660   -0.1220 O   0  0  0  0  0  0  0  0  0  0  0  0
    2.6840    0.6120    0.0520 O   0  0  0  0  0  0  0  0  0  0  0  0
    4.0600    0.6160    0.3750 C   0  0  1  0  0  0  0  0  0  0  0  0
    4.7870    1.2750   -0.6460 O   0  0  0  0  0  0  0  0  0  0  0  0
    5.8410    1.9790   -0.0840 C   0  0  0  0  0  0  0  0  0  0  0  0
    6.8740    2.4410   -0.6450 O   0  0  0  0  0  0  0  0  0  0  0  0
    5.5560    2.0980    1.2780 O   0  0  0  0  0  0  0  0  0  0  0  0
    4.3440    1.4770    1.5550 C   0  0  0  0  0  0  0  0  0  0  0  0
    3.6080    1.5860    2.5670 O   0  0  0  0  0  0  0  0  0  0  0  0
  1  2  2  0
  2  3  1  0
  2 12  1  0
  3  4  1  0
  4  5  1  0
  5  6  1  0
  6  7  1  0
  7  8  2  0
  7  9  1  0
  9 10  1  0
 10 11  1  0
 13 12  1  6
 13 14  1  0
 13 18  1  0
 14 15  1  0
 15 16  2  0
 15 17  1  0
 17 18  1  0
 18 19  2  0
M  END
