
     RDKit          3D

 27 28  0  0  0  0  0  0  0  0999 V2000
    1.9100   -4.0130   -1.2160 O   0  0  0  0  0  0  0  0  0  0  0  0
    1.0170   -3.1540   -1.5290 C   0  0  0  0  0  0  0  0  0  0  0  0
   -0.2910   -3.6700   -1.9820 C   0  0  0  0  0  0  0  0  0  0  0  0
   -1.2820   -3.1030   -1.1910 O   0  0  0  0  0  0  0  0  0  0  0  0
   -0.9320   -3.2290    0.0700 O   0  0  0  0  0  0  0  0  0  0  0  0
   -1.5490   -2.5120    1.1250 C   0  0  0  0  0  0  0  0  0  0  0  0
   -1.2020   -2.9800    2.2470 O   0  0  0  0  0  0  0  0  0  0  0  0
   -2.3480   -1.5220    0.7800 O   0  0  0  0  0  0  0  0  0  0  0  0
   -2.3950   -0.1770    0.6760 C   0  0  0  0  0  0  0  0  0  0  0  0
   -3.6400    0.3720    0.3790 C   0  0  0  0  0  0  0  0  0  0  0  0
   -3.8880    1.7160    0.2360 C   0  0  0  0  0  0  0  0  0  0  0  0
   -5.1330    2.2410   -0.0600 O   0  0  0  0  0  0  0  0  0  0  0  0
   -5.3520    3.3190   -0.7830 O   0  0  0  0  0  0  0  0  0  0  0  0
   -2.8350    2.5800    0.3980 C   0  0  0  0  0  0  0  0  0  0  0  0
   -1.5830    2.0510    0.6960 C   0  0  0  0  0  0  0  0  0  0  0  0
   -1.3240    0.7000    0.8400 C   0  0  0  0  0  0  0  0  0  0  0  0
   -0.0500    0.3410    1.1290 O   0  0  0  0  0  0  0  0  0  0  0  0
    0.8520   -0.5610    0.5790 C   0  0  2  0  0  0  0  0  0  0  0  0
    2.2060    0.2110    0.5960 C   0  0  0  0  0  0  0  0  0  0  0  0
    2.0870    1.3580   -0.1600 O   0  0  0  0  0  0  0  0  0  0  0  0
    3.1480    2.1110   -0.2400 O   0  0  0  0  0  0  0  0  0  0  0  0
    4.3780    1.9380    0.3380 C   0  0  0  0  0  0  0  0  0  0  0  0
    4.6130    0.9510    1.0610 O   0  0  0  0  0  0  0  0  0  0  0  0
    5.4210    2.8490    0.1490 O   0  0  0  0  0  0  0  0  0  0  0  0
    6.6190    2.6600    0.7260 O   0  0  0  0  0  0  0  0  0  0  0  0
    0.5760   -0.7940   -0.8910 C   0  0  0  0  0  0  0  0  0  0  0  0
    1.3300   -1.8340   -1.4250 O   0  0  0  0  0  0  0  0  0  0  0  0
  1  2  2  0
  2  3  1  0
  2 27  1  0
  3  4  1  0
  4  5  1  0
  5  6  1  0
  6  7  2  0
  6  8  1  0
  8  9  1  0
  9 10  2  0
  9 16  1  0
 10 11  1  0
 11 12  1  0
 11 14  2  0
 12 13  1  0
 14 15  1  0
 15 16  2  0
 16 17  1  0
 17 18  1  0
 18 19  1  6
 18 26  1  0
 19 20  1  0
 20 21  1  0
 21 22  1  0
 22 23  2  0
 22 24  1  0
 24 25  1  0
 26 27  1  0
M  END
