
     RDKit          3D

 16 17  0  0  0  0  0  0  0  0999 V2000
    3.1390   -0.4070   -0.1350 C   0  0  0  0  0  0  0  0  0  0  0  0
    2.4050    0.5710   -0.4740 C   0  0  0  0  0  0  0  0  0  0  0  0
    1.0160    0.7860   -0.3890 C   0  0  0  0  0  0  0  0  0  0  0  0
    0.5440    2.0230   -0.7000 C   0  0  0  0  0  0  0  0  0  0  0  0
   -0.8100    2.6410   -0.7200 C   0  0  0  0  0  0  0  0  0  0  0  0
   -1.8730    2.4070    0.0720 C   0  0  0  0  0  0  0  0  0  0  0  0
   -2.1720    1.5130    1.2190 C   0  0  0  0  0  0  0  0  0  0  0  0
   -1.7710    0.2760    1.4990 C   0  0  0  0  0  0  0  0  0  0  0  0
   -0.8660   -0.6400    0.7370 C   0  0  0  0  0  0  0  0  0  0  0  0
   -1.3870   -1.8600    0.8750 N   0  0  0  0  0  0  0  0  0  0  0  0
   -0.8290   -2.8450    0.1260 C   0  0  0  0  0  0  0  0  0  0  0  0
   -1.3100   -3.9970    0.2520 O   0  0  0  0  0  0  0  0  0  0  0  0
    0.2120   -2.6180   -0.7350 N   0  0  0  0  0  0  0  0  0  0  0  0
    0.7460   -1.3950   -0.8860 C   0  0  0  0  0  0  0  0  0  0  0  0
    1.6780   -1.1740   -1.6860 O   0  0  0  0  0  0  0  0  0  0  0  0
    0.1810   -0.3990   -0.1130 C   0  0  0  0  0  0  0  0  0  0  0  0
  1  2  2  0
  2  3  1  0
  3  4  2  0
  3 16  1  0
  4  5  1  0
  5  6  2  0
  6  7  1  0
  7  8  2  0
  8  9  1  0
  9 10  1  0
  9 16  2  0
 10 11  1  0
 11 12  2  0
 11 13  1  0
 13 14  1  0
 14 15  2  0
 14 16  1  0
M  END
