
     RDKit          3D

 16 17  0  0  0  0  0  0  0  0999 V2000
   -4.6200   -1.0560    0.4680 C   0  0  0  0  0  0  0  0  0  0  0  0
   -3.5060   -0.2790    0.4930 C   0  0  0  0  0  0  0  0  0  0  0  0
   -2.2420   -0.8390    0.1430 C   0  0  0  0  0  0  0  0  0  0  0  0
   -1.0490   -0.3540    0.0770 C   0  0  0  0  0  0  0  0  0  0  0  0
    0.0740   -1.2560   -0.3400 C   0  0  0  0  0  0  0  0  0  0  0  0
    1.3020   -0.8080   -0.4200 C   0  0  0  0  0  0  0  0  0  0  0  0
    2.3270   -1.7750   -0.8380 C   0  0  0  0  0  0  0  0  0  0  0  0
    1.9780   -2.9680   -1.0950 O   0  0  0  0  0  0  0  0  0  0  0  0
    3.6770   -1.3600   -0.9470 N   0  0  0  0  0  0  0  0  0  0  0  0
    4.0000   -0.0060   -0.6440 C   0  0  0  0  0  0  0  0  0  0  0  0
    5.2140    0.3690   -0.7410 O   0  0  0  0  0  0  0  0  0  0  0  0
    3.0390    1.0060   -0.2240 C   0  0  0  0  0  0  0  0  0  0  0  0
    1.6760    0.5210   -0.1320 N   0  0  0  0  0  0  0  0  0  0  0  0
    0.6310    1.3990    0.2660 C   0  0  0  0  0  0  0  0  0  0  0  0
   -0.6460    0.9970    0.3660 C   0  0  0  0  0  0  0  0  0  0  0  0
   -1.6660    1.9990    0.7920 C   0  0  0  0  0  0  0  0  0  0  0  0
  1  2  2  0
  2  3  1  0
  3  4  2  3
  4  5  1  0
  4 15  1  0
  5  6  2  0
  6  7  1  0
  6 13  1  0
  7  8  2  0
  7  9  1  0
  9 10  1  0
 10 11  2  0
 10 12  1  0
 12 13  1  0
 13 14  1  0
 14 15  2  0
 15 16  1  0
M  END
