
     RDKit          3D

 16 18  0  0  0  0  0  0  0  0999 V2000
   -1.6830    3.0060   -0.5290 O   0  0  0  0  0  0  0  0  0  0  0  0
   -0.7090    2.2380   -0.6030 C   0  0  0  0  0  0  0  0  0  0  0  0
    0.5500    2.7410   -1.1020 N   0  0  0  0  0  0  0  0  0  0  0  0
    1.8130    2.2530   -0.7580 N   0  0  0  0  0  0  0  0  0  0  0  0
    2.2420    1.1480   -0.2790 C   0  0  0  0  0  0  0  0  0  0  0  0
    3.5670    0.8650   -0.0030 O   0  0  0  0  0  0  0  0  0  0  0  0
    3.6830   -0.4270    0.5210 C   0  0  0  0  0  0  0  0  0  0  0  0
    2.2800   -0.9820    0.5590 C   0  0  0  0  0  0  0  0  0  0  0  0
    1.4860   -0.0510    0.0900 C   0  0  0  0  0  0  0  0  0  0  0  0
    0.0400   -0.2060   -0.0650 C   0  0  0  0  0  0  0  0  0  0  0  0
   -0.1340   -1.5060   -0.1320 C   0  0  0  0  0  0  0  0  0  0  0  0
   -1.4300   -2.1770   -0.2840 C   0  0  0  0  0  0  0  0  0  0  0  0
   -2.6100   -1.6740    0.0280 C   0  0  0  0  0  0  0  0  0  0  0  0
   -3.0030   -0.3640    0.5930 C   0  0  0  0  0  0  0  0  0  0  0  0
   -2.2330    0.7830    0.1140 C   0  0  0  0  0  0  0  0  0  0  0  0
   -0.9510    0.8860   -0.1670 C   0  0  0  0  0  0  0  0  0  0  0  0
  1  2  2  0
  2  3  1  0
  2 16  1  0
  3  4  1  0
  4  5  2  0
  5  6  1  0
  5  9  1  0
  6  7  1  0
  7  8  1  0
  8  9  2  0
  9 10  1  0
 10 11  2  0
 10 16  1  0
 11 12  1  0
 12 13  2  0
 13 14  1  0
 14 15  1  0
 15 16  2  0
M  END
