
     RDKit          3D

 16 17  0  0  0  0  0  0  0  0999 V2000
   -3.8550    1.0920    0.7050 C   0  0  0  0  0  0  0  0  0  0  0  0
   -2.6950    0.9520    0.2350 N   0  0  0  0  0  0  0  0  0  0  0  0
   -2.1700   -0.2100   -0.3670 C   0  0  0  0  0  0  0  0  0  0  0  0
   -2.9980   -1.1010   -0.9270 C   0  0  0  0  0  0  0  0  0  0  0  0
   -0.7370   -0.4310   -0.3800 C   0  0  0  0  0  0  0  0  0  0  0  0
    0.1730    0.3750    0.1410 C   0  0  0  0  0  0  0  0  0  0  0  0
   -0.2600    1.6060    0.7970 C   0  0  0  0  0  0  0  0  0  0  0  0
    0.7810    2.4780    1.3930 C   0  0  0  0  0  0  0  0  0  0  0  0
    2.1000    2.1240    1.2480 O   0  0  0  0  0  0  0  0  0  0  0  0
    2.5560    0.9760    0.6650 C   0  0  0  0  0  0  0  0  0  0  0  0
    3.8060    0.7560    0.6510 O   0  0  0  0  0  0  0  0  0  0  0  0
    1.6130    0.0400    0.0800 C   0  0  0  0  0  0  0  0  0  0  0  0
    2.0070   -1.0680   -0.4940 C   0  0  0  0  0  0  0  0  0  0  0  0
    3.4870   -1.3750   -0.5370 C   0  0  0  0  0  0  0  0  0  0  0  0
    1.0670   -1.9530   -1.0520 N   0  0  0  0  0  0  0  0  0  0  0  0
   -0.3230   -1.7060   -1.0780 C   0  0  0  0  0  0  0  0  0  0  0  0
  1  2  2  0
  2  3  1  0
  3  4  2  0
  3  5  1  0
  5  6  2  0
  5 16  1  0
  6  7  1  0
  6 12  1  0
  7  8  1  0
  8  9  1  0
  9 10  1  0
 10 11  2  0
 10 12  1  0
 12 13  2  0
 13 14  1  0
 13 15  1  0
 15 16  1  0
M  END
