
     RDKit          3D

 20 23  0  0  0  0  0  0  0  0999 V2000
   -2.1920    1.1230   -1.1660 C   0  0  0  0  0  0  0  0  0  0  0  0
   -2.2100    0.3100    0.0920 C   0  0  2  0  0  0  0  0  0  0  0  0
   -1.5970    1.0700    1.2230 C   0  0  0  0  0  0  0  0  0  0  0  0
   -0.1350    1.2570    1.1330 C   0  0  0  0  0  0  0  0  0  0  0  0
    0.6530    0.1300    0.5860 C   0  0  2  0  0  0  0  0  0  0  0  0
    2.0170    0.5150    0.2390 C   0  0  0  0  0  0  0  0  0  0  0  0
    2.5480    1.6880    0.7100 C   0  0  0  0  0  0  0  0  0  0  0  0
    3.8560    2.0670    0.3820 C   0  0  0  0  0  0  0  0  0  0  0  0
    4.5950    1.2240   -0.4310 C   0  0  0  0  0  0  0  0  0  0  0  0
    5.8820    1.6030   -0.7500 O   0  0  0  0  0  0  0  0  0  0  0  0
    4.0330    0.0390   -0.8960 C   0  0  0  0  0  0  0  0  0  0  0  0
    2.7470   -0.3280   -0.5700 C   0  0  0  0  0  0  0  0  0  0  0  0
    2.1770   -1.6000   -1.0820 C   0  0  0  0  0  0  0  0  0  0  0  0
    0.7060   -1.6010   -1.2490 C   0  0  0  0  0  0  0  0  0  0  0  0
   -0.0640   -0.5310   -0.5990 C   0  0  1  0  0  0  0  0  0  0  0  0
   -1.3590   -0.9630   -0.0410 C   0  0  2  0  0  0  0  0  0  0  0  0
   -2.2220   -1.8240   -0.8600 C   0  0  0  0  0  0  0  0  0  0  0  0
   -3.5240   -1.7180   -0.0740 C   0  0  0  0  0  0  0  0  0  0  0  0
   -3.5500   -0.2610    0.3600 C   0  0  2  0  0  0  0  0  0  0  0  0
   -4.4830    0.3720   -0.4740 O   0  0  0  0  0  0  0  0  0  0  0  0
  2  1  1  6
  2  3  1  0
  2 16  1  0
  2 19  1  0
  3  4  1  0
  5  4  1  6
  5  6  1  0
  5 15  1  0
  6  7  2  0
  6 12  1  0
  7  8  1  0
  8  9  2  0
  9 10  1  0
  9 11  1  0
 11 12  2  0
 12 13  1  0
 13 14  1  0
 15 14  1  1
 15 16  1  0
 16 17  1  6
 17 18  1  0
 18 19  1  0
 19 20  1  6
M  END
