
     RDKit          3D

 34 36  0  0  0  0  0  0  0  0999 V2000
    7.7780    1.1780   -0.2380 C   0  0  0  0  0  0  0  0  0  0  0  0
    6.9550    0.3050   -1.1440 C   0  0  0  0  0  0  0  0  0  0  0  0
    5.6100    0.0220   -0.6320 C   0  0  0  0  0  0  0  0  0  0  0  0
    5.2480   -1.1750   -0.0740 C   0  0  0  0  0  0  0  0  0  0  0  0
    3.9410   -1.3560    0.3890 C   0  0  0  0  0  0  0  0  0  0  0  0
    2.9720   -0.3880    0.3200 C   0  0  0  0  0  0  0  0  0  0  0  0
    1.6570   -0.5280    0.7860 N   0  0  0  0  0  0  0  0  0  0  0  0
    1.1190   -1.5620    1.5720 C   0  0  0  0  0  0  0  0  0  0  0  0
    1.8630   -2.5010    1.9350 O   0  0  0  0  0  0  0  0  0  0  0  0
   -0.3120   -1.5510    1.9730 C   0  0  0  0  0  0  0  0  0  0  0  0
   -0.8680   -2.5440    2.7400 C   0  0  0  0  0  0  0  0  0  0  0  0
   -2.2020   -2.5010    3.0920 C   0  0  0  0  0  0  0  0  0  0  0  0
   -2.9140   -1.4530    2.6520 N   0  0  0  0  0  0  0  0  0  0  0  0
   -2.4030   -0.4650    1.9000 C   0  0  0  0  0  0  0  0  0  0  0  0
   -3.1980    0.5910    1.4790 O   0  0  0  0  0  0  0  0  0  0  0  0
   -3.7690    0.5430    0.2370 C   0  0  0  0  0  0  0  0  0  0  0  0
   -3.4640    1.5090   -0.6740 C   0  0  0  0  0  0  0  0  0  0  0  0
   -4.0230    1.4980   -1.9520 C   0  0  0  0  0  0  0  0  0  0  0  0
   -3.6870    2.4950   -2.8400 O   0  0  0  0  0  0  0  0  0  0  0  0
   -2.7890    3.5260   -2.4810 C   0  0  0  0  0  0  0  0  0  0  0  0
   -4.8950    0.4910   -2.2880 C   0  0  0  0  0  0  0  0  0  0  0  0
   -5.2140   -0.5030   -1.3670 C   0  0  0  0  0  0  0  0  0  0  0  0
   -4.6690   -0.4960   -0.1110 C   0  0  0  0  0  0  0  0  0  0  0  0
   -4.9120   -1.3890    0.8380 O   0  0  0  0  0  0  0  0  0  0  0  0
   -5.6290   -2.4770    1.1230 C   0  0  0  0  0  0  0  0  0  0  0  0
   -7.1070   -2.2800    1.1890 C   0  0  2  0  0  0  0  0  0  0  0  0
   -7.6080   -1.8370    0.0090 F   0  0  0  0  0  0  0  0  0  0  0  0
   -7.4530   -1.3370    2.1520 F   0  0  0  0  0  0  0  0  0  0  0  0
   -7.7600   -3.4510    1.5840 F   0  0  0  0  0  0  0  0  0  0  0  0
   -1.0900   -0.5400    1.5730 N   0  0  0  0  0  0  0  0  0  0  0  0
    3.3680    0.8290   -0.2570 C   0  0  0  0  0  0  0  0  0  0  0  0
    4.6480    1.0060   -0.7100 C   0  0  0  0  0  0  0  0  0  0  0  0
    5.0080    2.3370   -1.3190 C   0  0  0  0  0  0  0  0  0  0  0  0
    3.9050    3.1880   -1.3030 O   0  0  0  0  0  0  0  0  0  0  0  0
  1  2  1  0
  2  3  1  0
  3  4  2  0
  3 32  1  0
  4  5  1  0
  5  6  2  0
  6  7  1  0
  6 31  1  0
  7  8  1  0
  8  9  2  0
  8 10  1  0
 10 11  2  0
 10 30  1  0
 11 12  1  0
 12 13  2  0
 13 14  1  0
 14 15  1  0
 14 30  2  0
 15 16  1  0
 16 17  2  0
 16 23  1  0
 17 18  1  0
 18 19  1  0
 18 21  2  0
 19 20  1  0
 21 22  1  0
 22 23  2  0
 23 24  1  0
 24 25  1  0
 25 26  1  0
 26 27  1  6
 26 28  1  0
 26 29  1  0
 31 32  2  0
 32 33  1  0
 33 34  1  0
M  END
