
     RDKit          3D

 34 36  0  0  0  0  0  0  0  0999 V2000
   -7.1940    1.3260   -0.6500 C   0  0  0  0  0  0  0  0  0  0  0  0
   -6.0740    0.3950   -1.0350 C   0  0  0  0  0  0  0  0  0  0  0  0
   -4.9870    1.1480   -1.6580 C   0  0  0  0  0  0  0  0  0  0  0  0
   -3.7210    1.2370   -1.1780 C   0  0  0  0  0  0  0  0  0  0  0  0
   -2.7770    2.0310   -1.9750 C   0  0  0  0  0  0  0  0  0  0  0  0
   -3.2500    2.9760   -2.8290 O   0  0  0  0  0  0  0  0  0  0  0  0
   -2.2510    3.5430   -3.4310 C   0  0  0  0  0  0  0  0  0  0  0  0
   -2.3110    4.6420   -4.4560 C   0  0  0  0  0  0  0  0  0  0  0  0
   -1.0820    2.9710   -2.9810 C   0  0  0  0  0  0  0  0  0  0  0  0
   -1.4370    1.9810   -2.0260 C   0  0  0  0  0  0  0  0  0  0  0  0
   -0.4130    1.1520   -1.4340 C   0  0  0  0  0  0  0  0  0  0  0  0
    0.8300    1.3950   -1.7220 O   0  0  0  0  0  0  0  0  0  0  0  0
   -0.5720    0.1220   -0.5880 O   0  0  0  0  0  0  0  0  0  0  0  0
    0.4010   -0.6930   -0.0230 C   0  0  0  0  0  0  0  0  0  0  0  0
    1.6260   -0.2060    0.3830 C   0  0  0  0  0  0  0  0  0  0  0  0
    2.6020   -1.0210    0.9550 C   0  0  0  0  0  0  0  0  0  0  0  0
    3.9060   -0.5650    1.2950 N   0  0  0  0  0  0  0  0  0  0  0  0
    4.6440   -0.9700    2.4400 C   0  0  0  0  0  0  0  0  0  0  0  0
    4.1370   -1.7230    3.2920 O   0  0  0  0  0  0  0  0  0  0  0  0
    5.9780   -0.5330    2.6220 N   0  0  0  0  0  0  0  0  0  0  0  0
    6.8220   -0.8640    3.7410 C   0  0  1  0  0  0  0  0  0  0  0  0
    7.9750   -1.7880    3.5810 C   0  0  0  0  0  0  0  0  0  0  0  0
    8.2470   -0.3270    3.6370 C   0  0  0  0  0  0  0  0  0  0  0  0
    2.3290   -2.3610    1.1180 C   0  0  0  0  0  0  0  0  0  0  0  0
    1.1280   -2.8460    0.7180 C   0  0  0  0  0  0  0  0  0  0  0  0
    0.1160   -2.0280    0.1340 C   0  0  0  0  0  0  0  0  0  0  0  0
   -0.9790   -2.6800   -0.1790 O   0  0  0  0  0  0  0  0  0  0  0  0
   -1.7090   -3.7720   -0.2540 C   0  0  0  0  0  0  0  0  0  0  0  0
   -1.9190   -4.3430    1.2240 C   0  0  0  0  0  0  0  0  0  0  0  0
   -2.0410   -4.6910    2.1000 N   0  0  0  0  0  0  0  0  0  0  0  0
   -3.4740    0.6770    0.1400 C   0  0  2  0  0  0  0  0  0  0  0  0
   -2.5900    1.4560    0.9000 F   0  0  0  0  0  0  0  0  0  0  0  0
   -3.1610   -0.6220    0.1870 F   0  0  0  0  0  0  0  0  0  0  0  0
   -4.6600    0.8640    0.9420 F   0  0  0  0  0  0  0  0  0  0  0  0
  1  2  1  0
  2  3  1  0
  3  4  2  3
  4  5  1  0
  4 31  1  0
  5  6  1  0
  5 10  2  0
  6  7  1  0
  7  8  1  0
  7  9  2  0
  9 10  1  0
 10 11  1  0
 11 12  2  0
 11 13  1  0
 13 14  1  0
 14 15  2  0
 14 26  1  0
 15 16  1  0
 16 17  1  0
 16 24  2  0
 17 18  1  0
 18 19  2  0
 18 20  1  0
 21 20  1  6
 21 22  1  0
 21 23  1  0
 22 23  1  0
 24 25  1  0
 25 26  2  0
 26 27  1  0
 27 28  1  0
 28 29  1  0
 29 30  3  0
 31 32  1  1
 31 33  1  0
 31 34  1  0
M  END
