
     RDKit          3D

 34 36  0  0  0  0  0  0  0  0999 V2000
   -8.0660   -1.4610    1.6060 C   0  0  0  0  0  0  0  0  0  0  0  0
   -7.5680   -0.1810    1.3370 O   0  0  0  0  0  0  0  0  0  0  0  0
   -6.2980    0.0750    0.8550 C   0  0  0  0  0  0  0  0  0  0  0  0
   -5.3620   -0.8920    0.5770 C   0  0  0  0  0  0  0  0  0  0  0  0
   -4.1020   -0.5930    0.0960 C   0  0  0  0  0  0  0  0  0  0  0  0
   -3.1670   -1.5760   -0.1800 O   0  0  0  0  0  0  0  0  0  0  0  0
   -3.5320   -2.9220    0.0440 C   0  0  0  0  0  0  0  0  0  0  0  0
   -3.7830    0.7080   -0.1090 C   0  0  0  0  0  0  0  0  0  0  0  0
   -4.7240    1.7130    0.1690 C   0  0  0  0  0  0  0  0  0  0  0  0
   -5.9760    1.4250    0.6470 C   0  0  0  0  0  0  0  0  0  0  0  0
   -6.9050    2.4120    0.9200 O   0  0  0  0  0  0  0  0  0  0  0  0
   -4.2250    3.0840   -0.1070 C   0  0  0  0  0  0  0  0  0  0  0  0
   -3.8030    3.0850   -1.5750 C   0  0  0  0  0  0  0  0  0  0  0  0
   -2.7240    2.0880   -1.8200 C   0  0  0  0  0  0  0  0  0  0  0  0
   -2.4800    1.1840   -0.6170 C   0  0  2  0  0  0  0  0  0  0  0  0
   -1.6840    0.1050   -1.1020 O   0  0  0  0  0  0  0  0  0  0  0  0
   -0.4230   -0.1460   -0.6210 C   0  0  0  0  0  0  0  0  0  0  0  0
    0.0090    0.6370    0.2880 O   0  0  0  0  0  0  0  0  0  0  0  0
    0.4230   -1.1830   -1.0410 N   0  0  0  0  0  0  0  0  0  0  0  0
    1.7500   -1.4140   -0.5060 C   0  0  0  0  0  0  0  0  0  0  0  0
    2.5690   -0.1800   -0.7710 C   0  0  0  0  0  0  0  0  0  0  0  0
    2.1720    0.9430   -1.3860 N   0  0  0  0  0  0  0  0  0  0  0  0
    3.1590    1.8210   -1.4410 C   0  0  0  0  0  0  0  0  0  0  0  0
    4.2250    1.2580   -0.8490 N   0  0  0  0  0  0  0  0  0  0  0  0
    3.8890    0.0150   -0.4230 C   0  0  0  0  0  0  0  0  0  0  0  0
    4.7670   -0.9180    0.2680 C   0  0  0  0  0  0  0  0  0  0  0  0
    4.2730   -2.1310    0.6290 F   0  0  0  0  0  0  0  0  0  0  0  0
    6.0100   -0.5620    0.5210 C   0  0  0  0  0  0  0  0  0  0  0  0
    6.9100   -1.4650    1.2060 C   0  0  0  0  0  0  0  0  0  0  0  0
    8.1450   -1.1100    1.4570 C   0  0  0  0  0  0  0  0  0  0  0  0
    8.6130    0.2290    1.0320 C   0  0  0  0  0  0  0  0  0  0  0  0
    9.1050   -1.9990    2.1560 C   0  0  1  0  0  0  0  0  0  0  0  0
   10.1680   -2.2110    1.2860 F   0  0  0  0  0  0  0  0  0  0  0  0
    9.5560   -1.4390    3.3470 F   0  0  0  0  0  0  0  0  0  0  0  0
  1  2  1  0
  2  3  1  0
  3  4  2  0
  3 10  1  0
  4  5  1  0
  5  6  1  0
  5  8  2  0
  6  7  1  0
  8  9  1  0
  8 15  1  0
  9 10  2  0
  9 12  1  0
 10 11  1  0
 12 13  1  0
 13 14  1  0
 14 15  1  0
 15 16  1  6
 16 17  1  0
 17 18  2  0
 17 19  1  0
 19 20  1  0
 20 21  1  0
 21 22  1  0
 21 25  2  0
 22 23  2  0
 23 24  1  0
 24 25  1  0
 25 26  1  0
 26 27  1  0
 26 28  2  3
 28 29  1  0
 29 30  2  3
 30 31  1  0
 30 32  1  0
 32 33  1  6
 32 34  1  0
M  END
