
     RDKit          3D

 34 36  0  0  0  0  0  0  0  0999 V2000
    5.4770    2.2000   -1.8270 C   0  0  0  0  0  0  0  0  0  0  0  0
    5.1010    0.8870   -1.2260 C   0  0  0  0  0  0  0  0  0  0  0  0
    3.8980    0.3440   -1.3660 O   0  0  0  0  0  0  0  0  0  0  0  0
    3.8280   -0.8080   -0.7360 C   0  0  0  0  0  0  0  0  0  0  0  0
    2.6840   -1.7260   -0.6400 C   0  0  0  0  0  0  0  0  0  0  0  0
    1.4540   -1.2980   -0.4710 C   0  0  0  0  0  0  0  0  0  0  0  0
    1.2190    0.0220   -0.3820 F   0  0  0  0  0  0  0  0  0  0  0  0
    0.3340   -2.2220   -0.3670 C   0  0  0  0  0  0  0  0  0  0  0  0
   -0.9330   -1.8390   -0.1920 C   0  0  0  0  0  0  0  0  0  0  0  0
   -1.9540   -2.8430   -0.1070 C   0  0  0  0  0  0  0  0  0  0  0  0
   -3.2160   -2.5850    0.0780 C   0  0  0  0  0  0  0  0  0  0  0  0
   -3.7490   -1.2520    0.2230 C   0  0  0  0  0  0  0  0  0  0  0  0
   -5.1070   -1.0200    0.4110 C   0  0  0  0  0  0  0  0  0  0  0  0
   -5.2770    0.3280    0.5140 C   0  0  0  0  0  0  0  0  0  0  0  0
   -6.5710    0.9960    0.7210 C   0  0  0  0  0  0  0  0  0  0  0  0
   -6.6110    2.2340    0.8660 O   0  0  0  0  0  0  0  0  0  0  0  0
   -7.7750    0.2630    0.7620 N   0  0  0  0  0  0  0  0  0  0  0  0
   -9.0790    0.7820    0.9570 C   0  0  0  0  0  0  0  0  0  0  0  0
  -10.1500   -0.0330    0.9700 C   0  0  0  0  0  0  0  0  0  0  0  0
  -10.1470   -1.3810    0.8090 F   0  0  0  0  0  0  0  0  0  0  0  0
  -11.3930    0.7240    1.1900 C   0  0  0  0  0  0  0  0  0  0  0  0
  -10.9180    2.1140    1.3110 C   0  0  0  0  0  0  0  0  0  0  0  0
   -9.5770    2.1190    1.1720 C   0  0  0  0  0  0  0  0  0  0  0  0
   -8.7980    3.2320    1.2280 F   0  0  0  0  0  0  0  0  0  0  0  0
   -4.0750    0.8840    0.3940 N   0  0  0  0  0  0  0  0  0  0  0  0
   -3.2140   -0.0760    0.2250 O   0  0  0  0  0  0  0  0  0  0  0  0
    5.0670   -1.0080   -0.1590 C   0  0  0  0  0  0  0  0  0  0  0  0
    5.9030    0.0830   -0.4690 C   0  0  0  0  0  0  0  0  0  0  0  0
    7.2850    0.2010   -0.0470 C   0  0  0  0  0  0  0  0  0  0  0  0
    7.6910   -0.5170    0.9010 O   0  0  0  0  0  0  0  0  0  0  0  0
    8.1780    1.0860   -0.6620 N   0  0  0  0  0  0  0  0  0  0  0  0
    9.5470    1.1730   -0.2000 C   0  0  0  0  0  0  0  0  0  0  0  0
   10.2530   -0.1390   -0.3300 C   0  0  0  0  0  0  0  0  0  0  0  0
   11.5740   -0.0020    0.1260 O   0  0  0  0  0  0  0  0  0  0  0  0
  1  2  1  0
  2  3  1  0
  2 28  2  0
  3  4  1  0
  4  5  1  0
  4 27  2  0
  5  6  2  3
  6  7  1  0
  6  8  1  0
  8  9  2  3
  9 10  1  0
 10 11  2  3
 11 12  1  0
 12 13  2  0
 12 26  1  0
 13 14  1  0
 14 15  1  0
 14 25  2  0
 15 16  2  0
 15 17  1  0
 17 18  1  0
 18 19  2  0
 18 23  1  0
 19 20  1  0
 19 21  1  0
 21 22  1  0
 22 23  2  0
 23 24  1  0
 25 26  1  0
 27 28  1  0
 28 29  1  0
 29 30  2  0
 29 31  1  0
 31 32  1  0
 32 33  1  0
 33 34  1  0
M  END
