
     RDKit          3D

 34 36  0  0  0  0  0  0  0  0999 V2000
   -5.0180   -4.7210    1.4590 C   0  0  0  0  0  0  0  0  0  0  0  0
   -4.1060   -4.4980    0.2810 C   0  0  0  0  0  0  0  0  0  0  0  0
   -3.4970   -3.2530    0.2320 O   0  0  0  0  0  0  0  0  0  0  0  0
   -4.1070   -2.0200    0.1400 C   0  0  0  0  0  0  0  0  0  0  0  0
   -5.4770   -1.9900    0.0770 C   0  0  0  0  0  0  0  0  0  0  0  0
   -6.1000   -0.7690   -0.0160 C   0  0  0  0  0  0  0  0  0  0  0  0
   -5.3930    0.4110   -0.0490 C   0  0  0  0  0  0  0  0  0  0  0  0
   -6.0620    1.7100   -0.1470 C   0  0  0  0  0  0  0  0  0  0  0  0
   -7.3230    1.7070   -0.1430 O   0  0  0  0  0  0  0  0  0  0  0  0
   -5.4200    2.9480   -0.2450 N   0  0  0  0  0  0  0  0  0  0  0  0
   -6.1340    4.2190   -0.3410 C   0  0  0  0  0  0  0  0  0  0  0  0
   -3.9980    0.3130    0.0180 C   0  0  0  0  0  0  0  0  0  0  0  0
   -3.3150   -0.8600    0.1120 C   0  0  0  0  0  0  0  0  0  0  0  0
   -1.9180   -1.0280    0.1840 N   0  0  0  0  0  0  0  0  0  0  0  0
   -0.9340   -0.0350    0.1710 C   0  0  0  0  0  0  0  0  0  0  0  0
   -1.2780    1.1640    0.0850 O   0  0  0  0  0  0  0  0  0  0  0  0
    0.5190   -0.3060    0.2520 C   0  0  0  0  0  0  0  0  0  0  0  0
    0.9830   -1.5640    0.5700 C   0  0  0  0  0  0  0  0  0  0  0  0
    2.3660   -1.7290    0.6150 C   0  0  0  0  0  0  0  0  0  0  0  0
    3.2010   -0.7140    0.3620 N   0  0  0  0  0  0  0  0  0  0  0  0
    2.7980    0.5220    0.0490 C   0  0  0  0  0  0  0  0  0  0  0  0
    3.6720    1.5210   -0.2010 O   0  0  0  0  0  0  0  0  0  0  0  0
    5.0240    1.5650   -0.2110 C   0  0  0  0  0  0  0  0  0  0  0  0
    5.6390    2.7890   -0.5190 C   0  0  0  0  0  0  0  0  0  0  0  0
    6.9960    2.9370   -0.5550 C   0  0  0  0  0  0  0  0  0  0  0  0
    7.8680    1.8650   -0.2850 C   0  0  0  0  0  0  0  0  0  0  0  0
    9.2070    2.1060   -0.3450 O   0  0  0  0  0  0  0  0  0  0  0  0
   10.3200    1.3440   -0.1520 C   0  0  2  0  0  0  0  0  0  0  0  0
   11.0230    1.8900    0.9400 F   0  0  0  0  0  0  0  0  0  0  0  0
   11.1600    1.2890   -1.2590 F   0  0  0  0  0  0  0  0  0  0  0  0
    7.2770    0.6670    0.0170 C   0  0  0  0  0  0  0  0  0  0  0  0
    8.0380   -0.4090    0.2880 F   0  0  0  0  0  0  0  0  0  0  0  0
    5.8820    0.5240    0.0520 C   0  0  0  0  0  0  0  0  0  0  0  0
    1.4220    0.7090   -0.0020 C   0  0  0  0  0  0  0  0  0  0  0  0
  1  2  1  0
  2  3  1  0
  3  4  1  0
  4  5  2  0
  4 13  1  0
  5  6  1  0
  6  7  2  0
  7  8  1  0
  7 12  1  0
  8  9  2  0
  8 10  1  0
 10 11  1  0
 12 13  2  0
 13 14  1  0
 14 15  1  0
 15 16  2  0
 15 17  1  0
 17 18  2  0
 17 34  1  0
 18 19  1  0
 19 20  2  0
 20 21  1  0
 21 22  1  0
 21 34  2  0
 22 23  1  0
 23 24  2  0
 23 33  1  0
 24 25  1  0
 25 26  2  0
 26 27  1  0
 26 31  1  0
 27 28  1  0
 28 29  1  1
 28 30  1  0
 31 32  1  0
 31 33  2  0
M  END
