
     RDKit          3D

 33 35  0  0  0  0  0  0  0  0999 V2000
   -3.8000    3.7810    1.1680 C   0  0  0  0  0  0  0  0  0  0  0  0
   -4.9010    2.8940    1.2830 O   0  0  0  0  0  0  0  0  0  0  0  0
   -4.8150    1.5510    0.9410 C   0  0  0  0  0  0  0  0  0  0  0  0
   -3.6480    0.9940    0.4530 C   0  0  0  0  0  0  0  0  0  0  0  0
   -3.4940   -0.3190    0.0990 C   0  0  0  0  0  0  0  0  0  0  0  0
   -2.3190   -0.9450   -0.3810 N   0  0  0  0  0  0  0  0  0  0  0  0
   -1.0090   -0.4410   -0.2380 C   0  0  0  0  0  0  0  0  0  0  0  0
   -0.8380    0.6650    0.3880 O   0  0  0  0  0  0  0  0  0  0  0  0
    0.1010   -1.1310   -0.7700 N   0  0  0  0  0  0  0  0  0  0  0  0
   -0.0950   -2.3410   -1.5260 C   0  0  0  0  0  0  0  0  0  0  0  0
   -0.1010   -3.5500   -0.6470 C   0  0  0  0  0  0  0  0  0  0  0  0
   -0.3150   -4.8190   -1.3940 C   0  0  0  0  0  0  0  0  0  0  0  0
   -0.4770   -5.7700   -1.9780 N   0  0  0  0  0  0  0  0  0  0  0  0
    1.4330   -0.6800   -0.6220 C   0  0  0  0  0  0  0  0  0  0  0  0
    1.9810   -0.3870    0.5800 C   0  0  0  0  0  0  0  0  0  0  0  0
    3.3020    0.0400    0.7670 C   0  0  0  0  0  0  0  0  0  0  0  0
    4.1110    0.1760   -0.3600 C   0  0  0  0  0  0  0  0  0  0  0  0
    5.4510    0.7410   -0.2820 C   0  0  0  0  0  0  0  0  0  0  0  0
    6.4660    0.1700   -1.2320 C   0  0  0  0  0  0  0  0  0  0  0  0
    6.3800   -0.8010   -1.8710 C   0  0  0  0  0  0  0  0  0  0  0  0
    6.6850   -1.7750   -2.7390 F   0  0  0  0  0  0  0  0  0  0  0  0
    5.2730   -1.6400   -1.0970 F   0  0  0  0  0  0  0  0  0  0  0  0
    5.7530    1.7650    0.4610 C   0  0  0  0  0  0  0  0  0  0  0  0
    4.8520    2.5350    1.3220 C   0  0  0  0  0  0  0  0  0  0  0  0
    5.2770    2.4690    2.6300 O   0  0  0  0  0  0  0  0  0  0  0  0
    3.5410   -0.1210   -1.5990 C   0  0  0  0  0  0  0  0  0  0  0  0
    2.2440   -0.5400   -1.7680 C   0  0  0  0  0  0  0  0  0  0  0  0
   -4.6530   -1.0990    0.2710 C   0  0  0  0  0  0  0  0  0  0  0  0
   -5.8350   -0.6000    0.7500 C   0  0  0  0  0  0  0  0  0  0  0  0
   -5.9250    0.7580    1.0950 C   0  0  0  0  0  0  0  0  0  0  0  0
   -7.2030    1.0230    1.5480 O   0  0  0  0  0  0  0  0  0  0  0  0
   -7.9180   -0.1780    1.6400 C   0  0  0  0  0  0  0  0  0  0  0  0
   -7.1050   -1.1300    1.0170 O   0  0  0  0  0  0  0  0  0  0  0  0
  1  2  1  0
  2  3  1  0
  3  4  2  0
  3 30  1  0
  4  5  1  0
  5  6  1  0
  5 28  2  0
  6  7  1  0
  7  8  2  0
  7  9  1  0
  9 10  1  0
  9 14  1  0
 10 11  1  0
 11 12  1  0
 12 13  3  0
 14 15  2  0
 14 27  1  0
 15 16  1  0
 16 17  2  0
 17 18  1  0
 17 26  1  0
 18 19  1  0
 18 23  2  3
 19 20  2  3
 20 21  1  0
 20 22  1  0
 23 24  1  0
 24 25  1  0
 26 27  2  0
 28 29  1  0
 29 30  2  0
 29 33  1  0
 30 31  1  0
 31 32  1  0
 32 33  1  0
M  END
