
     RDKit          3D

 34 36  0  0  0  0  0  0  0  0999 V2000
    9.6140   -0.3380    0.0240 C   0  0  0  0  0  0  0  0  0  0  0  0
    8.9510    0.9790    0.3120 C   0  0  0  0  0  0  0  0  0  0  0  0
    7.5510    0.8470    0.6380 N   0  0  0  0  0  0  0  0  0  0  0  0
    6.6680    0.3190   -0.3420 C   0  0  0  0  0  0  0  0  0  0  0  0
    7.1110    0.0100   -1.6080 C   0  0  0  0  0  0  0  0  0  0  0  0
    6.1600   -0.5000   -2.4640 C   0  0  0  0  0  0  0  0  0  0  0  0
    6.6200   -0.8030   -3.7270 F   0  0  0  0  0  0  0  0  0  0  0  0
    4.8580   -0.7000   -2.1210 C   0  0  0  0  0  0  0  0  0  0  0  0
    4.4260   -0.3800   -0.8310 C   0  0  0  0  0  0  0  0  0  0  0  0
    3.0700   -0.6100   -0.4840 N   0  0  0  0  0  0  0  0  0  0  0  0
    2.4350   -0.0730    0.6530 C   0  0  0  0  0  0  0  0  0  0  0  0
    2.9890    0.6700    1.4810 O   0  0  0  0  0  0  0  0  0  0  0  0
    1.0110   -0.4400    0.8410 C   0  0  0  0  0  0  0  0  0  0  0  0
    0.2770    0.0200    1.9140 C   0  0  0  0  0  0  0  0  0  0  0  0
   -1.0500   -0.3180    2.0950 C   0  0  0  0  0  0  0  0  0  0  0  0
   -1.6690   -1.1410    1.1790 C   0  0  0  0  0  0  0  0  0  0  0  0
   -3.0160   -1.5090    1.3260 O   0  0  0  0  0  0  0  0  0  0  0  0
   -3.9630   -0.7040    0.7460 C   0  0  0  0  0  0  0  0  0  0  0  0
   -3.6340    0.4240    0.0420 C   0  0  0  0  0  0  0  0  0  0  0  0
   -4.6420    1.2060   -0.5270 C   0  0  0  0  0  0  0  0  0  0  0  0
   -5.9530    0.8710   -0.3980 C   0  0  0  0  0  0  0  0  0  0  0  0
   -7.0400    1.6660   -0.9810 C   0  0  0  0  0  0  0  0  0  0  0  0
   -6.7300    2.7050   -1.6280 O   0  0  0  0  0  0  0  0  0  0  0  0
   -8.3710    1.3080   -0.8390 O   0  0  0  0  0  0  0  0  0  0  0  0
   -9.3400    2.1530   -1.4460 C   0  0  0  0  0  0  0  0  0  0  0  0
   -6.3230   -0.2720    0.3120 C   0  0  0  0  0  0  0  0  0  0  0  0
   -7.6320   -0.6040    0.4390 O   0  0  0  0  0  0  0  0  0  0  0  0
   -8.1480   -1.6930    1.1040 C   0  0  1  0  0  0  0  0  0  0  0  0
   -9.0580   -1.3190    2.0950 F   0  0  0  0  0  0  0  0  0  0  0  0
   -8.8380   -2.4500    0.1320 F   0  0  0  0  0  0  0  0  0  0  0  0
   -5.3090   -1.0230    0.8620 C   0  0  0  0  0  0  0  0  0  0  0  0
   -0.9190   -1.5900    0.1150 C   0  0  0  0  0  0  0  0  0  0  0  0
    0.3680   -1.2350   -0.0210 N   0  0  0  0  0  0  0  0  0  0  0  0
    5.3410    0.1250    0.0410 C   0  0  0  0  0  0  0  0  0  0  0  0
  1  2  1  0
  2  3  1  0
  3  4  1  0
  4  5  2  0
  4 34  1  0
  5  6  1  0
  6  7  1  0
  6  8  2  0
  8  9  1  0
  9 10  1  0
  9 34  2  0
 10 11  1  0
 11 12  2  0
 11 13  1  0
 13 14  2  0
 13 33  1  0
 14 15  1  0
 15 16  2  0
 16 17  1  0
 16 32  1  0
 17 18  1  0
 18 19  2  0
 18 31  1  0
 19 20  1  0
 20 21  2  0
 21 22  1  0
 21 26  1  0
 22 23  2  0
 22 24  1  0
 24 25  1  0
 26 27  1  0
 26 31  2  0
 27 28  1  0
 28 29  1  1
 28 30  1  0
 32 33  2  0
M  END
