
     RDKit          3D

 34 36  0  0  0  0  0  0  0  0999 V2000
   -4.4150    2.4440   -0.8620 C   0  0  0  0  0  0  0  0  0  0  0  0
   -4.5190    1.2540    0.0310 C   0  0  0  0  0  0  0  0  0  0  0  0
   -3.6240    0.9340    0.9670 O   0  0  0  0  0  0  0  0  0  0  0  0
   -3.9790   -0.1610    1.5920 C   0  0  0  0  0  0  0  0  0  0  0  0
   -3.2770   -0.8320    2.6710 C   0  0  0  0  0  0  0  0  0  0  0  0
   -1.9850   -1.0030    2.7620 C   0  0  0  0  0  0  0  0  0  0  0  0
   -1.5100   -1.6610    3.8570 F   0  0  0  0  0  0  0  0  0  0  0  0
   -1.0880   -0.5350    1.7480 C   0  0  0  0  0  0  0  0  0  0  0  0
    0.2110   -0.6250    1.6840 C   0  0  0  0  0  0  0  0  0  0  0  0
    1.0590   -1.2440    2.6620 C   0  0  0  0  0  0  0  0  0  0  0  0
    2.3560   -1.2940    2.5440 C   0  0  0  0  0  0  0  0  0  0  0  0
    3.1390   -0.7590    1.4640 C   0  0  0  0  0  0  0  0  0  0  0  0
    4.5490   -0.8460    1.3520 C   0  0  0  0  0  0  0  0  0  0  0  0
    4.9430   -0.2240    0.1970 C   0  0  0  0  0  0  0  0  0  0  0  0
    6.2690   -0.0500   -0.3830 C   0  0  0  0  0  0  0  0  0  0  0  0
    6.3850    0.6910   -1.3790 O   0  0  0  0  0  0  0  0  0  0  0  0
    7.4160   -0.6910    0.1420 N   0  0  0  0  0  0  0  0  0  0  0  0
    8.7480   -0.5790   -0.3440 C   0  0  0  0  0  0  0  0  0  0  0  0
    9.7430   -1.2480    0.2440 C   0  0  0  0  0  0  0  0  0  0  0  0
    9.6350   -2.0900    1.3350 F   0  0  0  0  0  0  0  0  0  0  0  0
   10.9920   -0.9410   -0.4600 C   0  0  0  0  0  0  0  0  0  0  0  0
   10.6140   -0.0120   -1.5260 C   0  0  0  0  0  0  0  0  0  0  0  0
    9.3240    0.1730   -1.4320 C   0  0  0  0  0  0  0  0  0  0  0  0
    8.6140    0.9880   -2.2700 F   0  0  0  0  0  0  0  0  0  0  0  0
    3.8060    0.2160   -0.3570 N   0  0  0  0  0  0  0  0  0  0  0  0
    2.7950   -0.1040    0.3880 O   0  0  0  0  0  0  0  0  0  0  0  0
   -5.1690   -0.5780    1.0340 C   0  0  0  0  0  0  0  0  0  0  0  0
   -5.5260    0.3360    0.0190 C   0  0  0  0  0  0  0  0  0  0  0  0
   -6.7330    0.2150   -0.7850 C   0  0  0  0  0  0  0  0  0  0  0  0
   -7.4980   -0.7930   -0.5480 O   0  0  0  0  0  0  0  0  0  0  0  0
   -7.1630    1.0880   -1.8040 N   0  0  0  0  0  0  0  0  0  0  0  0
   -8.4150    0.8220   -2.5230 C   0  0  0  0  0  0  0  0  0  0  0  0
   -9.6080    0.8130   -1.6130 C   0  0  0  0  0  0  0  0  0  0  0  0
   -9.7250    2.0740   -0.9850 O   0  0  0  0  0  0  0  0  0  0  0  0
  1  2  1  0
  2  3  1  0
  2 28  2  0
  3  4  1  0
  4  5  1  0
  4 27  2  0
  5  6  2  3
  6  7  1  0
  6  8  1  0
  8  9  2  3
  9 10  1  0
 10 11  2  3
 11 12  1  0
 12 13  2  0
 12 26  1  0
 13 14  1  0
 14 15  1  0
 14 25  2  0
 15 16  2  0
 15 17  1  0
 17 18  1  0
 18 19  2  0
 18 23  1  0
 19 20  1  0
 19 21  1  0
 21 22  1  0
 22 23  2  0
 23 24  1  0
 25 26  1  0
 27 28  1  0
 28 29  1  0
 29 30  2  0
 29 31  1  0
 31 32  1  0
 32 33  1  0
 33 34  1  0
M  END
