
     RDKit          3D

 34 36  0  0  0  0  0  0  0  0999 V2000
   -1.6980   -4.9800   -0.8450 C   0  0  0  0  0  0  0  0  0  0  0  0
   -2.8130   -4.2490   -0.3820 O   0  0  0  0  0  0  0  0  0  0  0  0
   -2.7890   -2.8780   -0.1890 C   0  0  0  0  0  0  0  0  0  0  0  0
   -1.6270   -2.1660   -0.4620 C   0  0  0  0  0  0  0  0  0  0  0  0
   -1.4980   -0.8000   -0.3040 C   0  0  0  0  0  0  0  0  0  0  0  0
   -0.2720   -0.1360   -0.5130 N   0  0  0  0  0  0  0  0  0  0  0  0
    0.8520   -0.6920   -1.2170 C   0  0  0  0  0  0  0  0  0  0  0  0
    0.8390   -1.8200   -1.7280 O   0  0  0  0  0  0  0  0  0  0  0  0
    2.0580    0.0570   -1.3560 N   0  0  0  0  0  0  0  0  0  0  0  0
    3.2400   -0.4200   -2.0400 C   0  0  0  0  0  0  0  0  0  0  0  0
    3.7290   -1.6540   -1.3200 C   0  0  0  0  0  0  0  0  0  0  0  0
    4.0330   -1.2800    0.0310 O   0  0  0  0  0  0  0  0  0  0  0  0
    5.0190   -0.3120    0.1610 C   0  0  0  0  0  0  0  0  0  0  0  0
    6.2150   -0.5890   -0.3200 C   0  0  0  0  0  0  0  0  0  0  0  0
    7.3840    0.3170   -0.2720 C   0  0  1  0  0  0  0  0  0  0  0  0
    7.8050    0.5710   -1.5640 F   0  0  0  0  0  0  0  0  0  0  0  0
    7.0460    1.5130    0.3580 O   0  0  0  0  0  0  0  0  0  0  0  0
    5.8220    1.8660    0.8790 C   0  0  0  0  0  0  0  0  0  0  0  0
    4.8270    0.9850    0.7890 C   0  0  0  0  0  0  0  0  0  0  0  0
    3.6210    1.2970    1.2880 F   0  0  0  0  0  0  0  0  0  0  0  0
   -2.5960   -0.0650    0.1580 C   0  0  0  0  0  0  0  0  0  0  0  0
   -2.6100    1.3720    0.2150 C   0  0  0  0  0  0  0  0  0  0  0  0
   -1.7460    2.1030   -0.3210 O   0  0  0  0  0  0  0  0  0  0  0  0
   -3.6630    2.0980    0.9280 C   0  0  0  0  0  0  0  0  0  0  0  0
   -4.2150    1.6170    2.0890 C   0  0  0  0  0  0  0  0  0  0  0  0
   -5.2420    2.3010    2.6870 C   0  0  0  0  0  0  0  0  0  0  0  0
   -5.7100    3.4650    2.1220 C   0  0  0  0  0  0  0  0  0  0  0  0
   -5.1450    3.9420    0.9520 C   0  0  0  0  0  0  0  0  0  0  0  0
   -5.6440    5.1650    0.3590 C   0  0  0  0  0  0  0  0  0  0  0  0
   -6.0530    6.1350   -0.1060 N   0  0  0  0  0  0  0  0  0  0  0  0
   -4.1270    3.2800    0.3420 C   0  0  0  0  0  0  0  0  0  0  0  0
   -3.7650   -0.7910    0.4310 C   0  0  0  0  0  0  0  0  0  0  0  0
   -3.8520   -2.1570    0.2620 C   0  0  0  0  0  0  0  0  0  0  0  0
   -5.0090   -2.8160    0.5440 F   0  0  0  0  0  0  0  0  0  0  0  0
  1  2  1  0
  2  3  1  0
  3  4  2  0
  3 33  1  0
  4  5  1  0
  5  6  1  0
  5 21  2  0
  6  7  1  0
  7  8  2  0
  7  9  1  0
  9 10  1  0
 10 11  1  0
 11 12  1  0
 12 13  1  0
 13 14  2  0
 13 19  1  0
 14 15  1  0
 15 16  1  6
 15 17  1  0
 17 18  1  0
 18 19  2  0
 19 20  1  0
 21 22  1  0
 21 32  1  0
 22 23  2  0
 22 24  1  0
 24 25  2  0
 24 31  1  0
 25 26  1  0
 26 27  2  0
 27 28  1  0
 28 29  1  0
 28 31  2  0
 29 30  3  0
 32 33  2  0
 33 34  1  0
M  END
