
     RDKit          3D

 34 38  0  0  0  0  0  0  0  0999 V2000
   -1.7480   -0.2740    1.7070 O   0  0  0  0  0  0  0  0  0  0  0  0
   -1.5710   -0.1380    0.4450 C   0  0  0  0  0  0  0  0  0  0  0  0
   -2.4660    0.8560   -0.2000 C   0  0  1  0  0  0  0  0  0  0  0  0
   -3.4010    0.2570   -1.2040 C   0  0  0  0  0  0  0  0  0  0  0  0
   -4.6320   -0.3790   -0.5890 C   0  0  0  0  0  0  0  0  0  0  0  0
   -5.2300    0.6090    0.3010 N   0  0  0  0  0  0  0  0  0  0  0  0
   -6.5370    1.0940    0.1490 C   0  0  0  0  0  0  0  0  0  0  0  0
   -6.9440    2.2960    0.6720 C   0  0  0  0  0  0  0  0  0  0  0  0
   -8.2560    2.7480    0.5190 C   0  0  0  0  0  0  0  0  0  0  0  0
   -9.1250    1.9980   -0.1470 N   0  0  0  0  0  0  0  0  0  0  0  0
   -8.7840    0.8200   -0.6780 C   0  0  0  0  0  0  0  0  0  0  0  0
   -7.4960    0.3560   -0.5380 C   0  0  0  0  0  0  0  0  0  0  0  0
   -4.3930    1.0530    1.3860 C   0  0  0  0  0  0  0  0  0  0  0  0
   -3.1790    1.7380    0.8030 C   0  0  0  0  0  0  0  0  0  0  0  0
   -0.6020   -0.8850   -0.2280 N   0  0  0  0  0  0  0  0  0  0  0  0
    0.2110   -1.8370    0.5470 C   0  0  0  0  0  0  0  0  0  0  0  0
    1.6140   -1.2330    0.4970 C   0  0  0  0  0  0  0  0  0  0  0  0
    2.0580   -0.8990   -0.8100 N   0  0  0  0  0  0  0  0  0  0  0  0
    3.5220   -1.7540   -1.1330 S   0  0  2  0  0  0  0  0  0  0  0  0
    3.9250   -1.5650   -2.5620 O   0  0  0  0  0  0  0  0  0  0  0  0
    3.2240   -3.2220   -0.9190 O   0  0  0  0  0  0  0  0  0  0  0  0
    4.8090   -1.3270   -0.0330 C   0  0  0  0  0  0  0  0  0  0  0  0
    5.0650   -2.0090    1.1350 C   0  0  0  0  0  0  0  0  0  0  0  0
    6.1030   -1.5850    1.9240 C   0  0  0  0  0  0  0  0  0  0  0  0
    6.9000   -0.5030    1.5930 C   0  0  0  0  0  0  0  0  0  0  0  0
    7.9370   -0.1170    2.4240 C   0  0  0  0  0  0  0  0  0  0  0  0
    8.7090    0.9500    2.0760 C   0  0  0  0  0  0  0  0  0  0  0  0
   10.0240    1.4130    3.1610 Cl  0  0  0  0  0  0  0  0  0  0  0  0
    8.4610    1.6480    0.8990 C   0  0  0  0  0  0  0  0  0  0  0  0
    7.4220    1.2410    0.0920 C   0  0  0  0  0  0  0  0  0  0  0  0
    6.6290    0.1620    0.4270 C   0  0  0  0  0  0  0  0  0  0  0  0
    5.5830   -0.2530   -0.3840 C   0  0  0  0  0  0  0  0  0  0  0  0
    1.1650   -1.2060   -1.8880 C   0  0  0  0  0  0  0  0  0  0  0  0
   -0.2770   -0.8410   -1.6290 C   0  0  0  0  0  0  0  0  0  0  0  0
  1  2  2  0
  3  2  1  1
  2 15  1  0
  3  4  1  0
  3 14  1  0
  4  5  1  0
  5  6  1  0
  6  7  1  0
  6 13  1  0
  7  8  2  0
  7 12  1  0
  8  9  1  0
  9 10  2  0
 10 11  1  0
 11 12  2  0
 13 14  1  0
 15 16  1  0
 15 34  1  0
 16 17  1  0
 17 18  1  0
 19 18  1  1
 18 33  1  0
 19 20  2  0
 19 21  2  0
 19 22  1  0
 22 23  2  0
 22 32  1  0
 23 24  1  0
 24 25  2  0
 25 26  1  0
 25 31  1  0
 26 27  2  0
 27 28  1  0
 27 29  1  0
 29 30  2  0
 30 31  1  0
 31 32  2  0
 33 34  1  0
M  END
