
     RDKit          3D

 34 36  0  0  0  0  0  0  0  0999 V2000
   -1.4560   -4.0070    0.3430 C   0  0  0  0  0  0  0  0  0  0  0  0
   -0.9150   -3.0440    1.3530 C   0  0  0  0  0  0  0  0  0  0  0  0
   -1.0940   -1.7030    1.0640 O   0  0  0  0  0  0  0  0  0  0  0  0
   -2.2640   -1.0280    0.8970 C   0  0  0  0  0  0  0  0  0  0  0  0
   -3.4460   -1.7180    1.0280 C   0  0  0  0  0  0  0  0  0  0  0  0
   -4.6230   -1.0230    0.8570 C   0  0  0  0  0  0  0  0  0  0  0  0
   -4.6500    0.3150    0.5650 C   0  0  0  0  0  0  0  0  0  0  0  0
   -5.8870    1.0620    0.3790 C   0  0  0  0  0  0  0  0  0  0  0  0
   -5.8150    2.3070    0.2380 O   0  0  0  0  0  0  0  0  0  0  0  0
   -7.1620    0.4690    0.3470 N   0  0  0  0  0  0  0  0  0  0  0  0
   -8.3860    1.2590    0.1570 C   0  0  0  0  0  0  0  0  0  0  0  0
   -3.4160    0.9730    0.4420 C   0  0  0  0  0  0  0  0  0  0  0  0
   -2.2160    0.3420    0.5990 C   0  0  0  0  0  0  0  0  0  0  0  0
   -0.9560    0.9580    0.4850 N   0  0  0  0  0  0  0  0  0  0  0  0
   -0.6760    2.3000    0.1850 C   0  0  0  0  0  0  0  0  0  0  0  0
   -1.6140    3.0820   -0.0150 O   0  0  0  0  0  0  0  0  0  0  0  0
    0.6970    2.8300    0.0940 C   0  0  0  0  0  0  0  0  0  0  0  0
    0.9300    4.0740   -0.4400 C   0  0  0  0  0  0  0  0  0  0  0  0
    2.2230    4.5470   -0.5080 C   0  0  0  0  0  0  0  0  0  0  0  0
    3.2750    3.8310   -0.0690 N   0  0  0  0  0  0  0  0  0  0  0  0
    3.0620    2.6180    0.4530 C   0  0  0  0  0  0  0  0  0  0  0  0
    4.1580    1.8940    0.9010 O   0  0  0  0  0  0  0  0  0  0  0  0
    4.7760    0.9470    0.0760 C   0  0  0  0  0  0  0  0  0  0  0  0
    5.8160    1.2990   -0.7640 C   0  0  0  0  0  0  0  0  0  0  0  0
    6.3710    0.3220   -1.5410 C   0  0  0  0  0  0  0  0  0  0  0  0
    5.9520   -1.0100   -1.5390 C   0  0  0  0  0  0  0  0  0  0  0  0
    6.6170   -1.8510   -2.3760 O   0  0  0  0  0  0  0  0  0  0  0  0
    6.4760   -3.2060   -2.6250 C   0  0  2  0  0  0  0  0  0  0  0  0
    7.6870   -3.8550   -2.4070 F   0  0  0  0  0  0  0  0  0  0  0  0
    6.1040   -3.3310   -3.9670 F   0  0  0  0  0  0  0  0  0  0  0  0
    4.9180   -1.3180   -0.6920 C   0  0  0  0  0  0  0  0  0  0  0  0
    4.4610   -2.5870   -0.6400 F   0  0  0  0  0  0  0  0  0  0  0  0
    4.3150   -0.3510    0.1260 C   0  0  0  0  0  0  0  0  0  0  0  0
    1.7600    2.1110    0.5360 C   0  0  0  0  0  0  0  0  0  0  0  0
  1  2  1  0
  2  3  1  0
  3  4  1  0
  4  5  2  0
  4 13  1  0
  5  6  1  0
  6  7  2  0
  7  8  1  0
  7 12  1  0
  8  9  2  0
  8 10  1  0
 10 11  1  0
 12 13  2  0
 13 14  1  0
 14 15  1  0
 15 16  2  0
 15 17  1  0
 17 18  2  0
 17 34  1  0
 18 19  1  0
 19 20  2  0
 20 21  1  0
 21 22  1  0
 21 34  2  0
 22 23  1  0
 23 24  2  0
 23 33  1  0
 24 25  1  0
 25 26  2  0
 26 27  1  0
 26 31  1  0
 27 28  1  0
 28 29  1  6
 28 30  1  0
 31 32  1  0
 31 33  2  0
M  END
