
     RDKit          3D

 34 36  0  0  0  0  0  0  0  0999 V2000
    5.9580    3.5970    0.6310 C   0  0  0  0  0  0  0  0  0  0  0  0
    6.3120    2.3710    0.0610 O   0  0  0  0  0  0  0  0  0  0  0  0
    5.4550    1.3060    0.1270 C   0  0  0  0  0  0  0  0  0  0  0  0
    4.2330    1.4250    0.7540 C   0  0  0  0  0  0  0  0  0  0  0  0
    3.3680    0.3720    0.8290 C   0  0  0  0  0  0  0  0  0  0  0  0
    2.1520    0.4960    1.4550 O   0  0  0  0  0  0  0  0  0  0  0  0
    1.7080    1.6990    2.0610 C   0  0  0  0  0  0  0  0  0  0  0  0
    3.7120   -0.8400    0.2680 C   0  0  0  0  0  0  0  0  0  0  0  0
    4.9270   -0.9820   -0.3640 C   0  0  0  0  0  0  0  0  0  0  0  0
    5.7950    0.0840   -0.4350 C   0  0  0  0  0  0  0  0  0  0  0  0
    7.0200   -0.0480   -1.0680 O   0  0  0  0  0  0  0  0  0  0  0  0
    5.3550   -2.2680   -0.9890 C   0  0  0  0  0  0  0  0  0  0  0  0
    4.2670   -3.2930   -0.9610 C   0  0  0  0  0  0  0  0  0  0  0  0
    3.5490   -3.2430    0.3770 C   0  0  0  0  0  0  0  0  0  0  0  0
    2.7270   -1.9710    0.3750 C   0  0  2  0  0  0  0  0  0  0  0  0
    1.9010   -1.8820   -0.7620 O   0  0  0  0  0  0  0  0  0  0  0  0
    0.5230   -1.7370   -0.6540 C   0  0  0  0  0  0  0  0  0  0  0  0
    0.0430   -1.6880    0.5000 O   0  0  0  0  0  0  0  0  0  0  0  0
   -0.2990   -1.6470   -1.8190 N   0  0  0  0  0  0  0  0  0  0  0  0
   -1.7220   -1.4970   -1.6630 C   0  0  0  0  0  0  0  0  0  0  0  0
   -2.0190   -0.2480   -0.9100 C   0  0  0  0  0  0  0  0  0  0  0  0
   -1.0970    0.5980   -0.4530 N   0  0  0  0  0  0  0  0  0  0  0  0
   -1.6970    1.6050    0.1710 C   0  0  0  0  0  0  0  0  0  0  0  0
   -3.0420    1.3620    0.0910 N   0  0  0  0  0  0  0  0  0  0  0  0
   -3.2950    0.2340   -0.5650 C   0  0  0  0  0  0  0  0  0  0  0  0
   -4.5240   -0.4470   -0.9100 C   0  0  0  0  0  0  0  0  0  0  0  0
   -4.3430   -1.6640   -1.6390 F   0  0  0  0  0  0  0  0  0  0  0  0
   -5.7570   -0.1570   -0.6800 C   0  0  0  0  0  0  0  0  0  0  0  0
   -6.3390    0.9530    0.0050 C   0  0  0  0  0  0  0  0  0  0  0  0
   -7.6890    1.0390    0.1200 C   0  0  0  0  0  0  0  0  0  0  0  0
   -8.5160   -0.0260   -0.4720 C   0  0  0  0  0  0  0  0  0  0  0  0
   -8.2990    2.1750    0.8210 C   0  0  1  0  0  0  0  0  0  0  0  0
   -9.1200    2.8310   -0.0860 F   0  0  0  0  0  0  0  0  0  0  0  0
   -9.1190    1.6480    1.8260 F   0  0  0  0  0  0  0  0  0  0  0  0
  1  2  1  0
  2  3  1  0
  3  4  2  0
  3 10  1  0
  4  5  1  0
  5  6  1  0
  5  8  2  0
  6  7  1  0
  8  9  1  0
  8 15  1  0
  9 10  2  0
  9 12  1  0
 10 11  1  0
 12 13  1  0
 13 14  1  0
 14 15  1  0
 15 16  1  6
 16 17  1  0
 17 18  2  0
 17 19  1  0
 19 20  1  0
 20 21  1  0
 21 22  1  0
 21 25  2  0
 22 23  2  0
 23 24  1  0
 24 25  1  0
 25 26  1  0
 26 27  1  0
 26 28  2  3
 28 29  1  0
 29 30  2  3
 30 31  1  0
 30 32  1  0
 32 33  1  6
 32 34  1  0
M  END
