
     RDKit          3D

 34 36  0  0  0  0  0  0  0  0999 V2000
   -4.8730   -2.4810   -2.4990 C   0  0  0  0  0  0  0  0  0  0  0  0
   -3.5120   -1.9820   -2.2280 C   0  0  0  0  0  0  0  0  0  0  0  0
   -2.3880   -2.4140   -2.8820 N   0  0  0  0  0  0  0  0  0  0  0  0
   -1.3250   -1.7600   -2.4350 C   0  0  0  0  0  0  0  0  0  0  0  0
   -1.7560   -0.8860   -1.4740 C   0  0  0  0  0  0  0  0  0  0  0  0
   -1.0680    0.0230   -0.7160 C   0  0  0  0  0  0  0  0  0  0  0  0
    0.3890    0.1910   -0.8330 C   0  0  0  0  0  0  0  0  0  0  0  0
    0.9590    1.0510   -0.1010 O   0  0  0  0  0  0  0  0  0  0  0  0
    1.1690   -0.5260   -1.6840 O   0  0  0  0  0  0  0  0  0  0  0  0
    2.5690   -0.3720   -1.8050 C   0  0  0  0  0  0  0  0  0  0  0  0
    3.2700   -0.6450   -0.5350 C   0  0  0  0  0  0  0  0  0  0  0  0
    3.1270   -1.9810    0.0680 C   0  0  0  0  0  0  0  0  0  0  0  0
    3.6980   -2.2780    1.1490 O   0  0  0  0  0  0  0  0  0  0  0  0
    4.0110    0.2880    0.0520 C   0  0  0  0  0  0  0  0  0  0  0  0
    4.6890    0.0380    1.2730 N   0  0  0  0  0  0  0  0  0  0  0  0
    6.1080    0.1060    1.3260 C   0  0  0  0  0  0  0  0  0  0  0  0
    6.8210   -0.1260    2.4780 C   0  0  0  0  0  0  0  0  0  0  0  0
    8.2010   -0.0580    2.5210 C   0  0  0  0  0  0  0  0  0  0  0  0
    8.8930    0.2520    1.3740 C   0  0  0  0  0  0  0  0  0  0  0  0
   10.2470    0.3210    1.4080 F   0  0  0  0  0  0  0  0  0  0  0  0
    8.1990    0.4870    0.2130 C   0  0  0  0  0  0  0  0  0  0  0  0
    6.8230    0.4160    0.1870 C   0  0  0  0  0  0  0  0  0  0  0  0
   -1.7840    0.7860    0.1700 C   0  0  0  0  0  0  0  0  0  0  0  0
   -3.1630    0.6680    0.3240 C   0  0  0  0  0  0  0  0  0  0  0  0
   -3.8780    1.5300    1.2160 C   0  0  0  0  0  0  0  0  0  0  0  0
   -3.1630    2.2140    2.0440 O   0  0  0  0  0  0  0  0  0  0  0  0
   -5.2240    1.7510    1.3330 O   0  0  0  0  0  0  0  0  0  0  0  0
   -5.7920    2.6460    2.2710 C   0  0  0  0  0  0  0  0  0  0  0  0
   -7.3090    2.6170    2.0930 C   0  0  1  0  0  0  0  0  0  0  0  0
   -7.7950    1.3440    2.3100 F   0  0  0  0  0  0  0  0  0  0  0  0
   -7.8730    3.4430    3.0250 F   0  0  0  0  0  0  0  0  0  0  0  0
   -3.7930   -0.2640   -0.4640 C   0  0  0  0  0  0  0  0  0  0  0  0
   -5.2470   -0.5280   -0.3340 C   0  0  0  0  0  0  0  0  0  0  0  0
   -3.1140   -1.0480   -1.3680 N   0  0  0  0  0  0  0  0  0  0  0  0
  1  2  1  0
  2  3  2  0
  2 34  1  0
  3  4  1  0
  4  5  2  0
  5  6  1  0
  5 34  1  0
  6  7  1  0
  6 23  2  0
  7  8  2  0
  7  9  1  0
  9 10  1  0
 10 11  1  0
 11 12  1  0
 11 14  2  3
 12 13  2  0
 14 15  1  0
 15 16  1  0
 16 17  2  0
 16 22  1  0
 17 18  1  0
 18 19  2  0
 19 20  1  0
 19 21  1  0
 21 22  2  0
 23 24  1  0
 24 25  1  0
 24 32  2  0
 25 26  2  0
 25 27  1  0
 27 28  1  0
 28 29  1  0
 29 30  1  1
 29 31  1  0
 32 33  1  0
 32 34  1  0
M  END
