
     RDKit          3D

 20 20  0  0  0  0  0  0  0  0999 V2000
    2.8970    0.6550    2.9670 C   0  0  0  0  0  0  0  0  0  0  0  0
    3.1190    0.7050    1.6350 C   0  0  0  0  0  0  0  0  0  0  0  0
    4.5080    0.4870    1.1920 C   0  0  0  0  0  0  0  0  0  0  0  0
    4.7080   -0.7560    0.3720 C   0  0  0  0  0  0  0  0  0  0  0  0
    1.9710    1.0060    0.7580 C   0  0  0  0  0  0  0  0  0  0  0  0
    1.6970   -0.0910   -0.1990 C   0  0  0  0  0  0  0  0  0  0  0  0
    0.5020    0.1900   -1.0930 C   0  0  2  0  0  0  0  0  0  0  0  0
    0.6910    1.4310   -1.9160 C   0  0  0  0  0  0  0  0  0  0  0  0
    1.9150    1.3230   -2.8320 C   0  0  0  0  0  0  0  0  0  0  0  0
    2.0080    2.5270   -3.5610 O   0  0  0  0  0  0  0  0  0  0  0  0
   -0.5980    0.3960   -0.2510 O   0  0  0  0  0  0  0  0  0  0  0  0
   -1.7570   -0.3160   -0.1850 C   0  0  0  0  0  0  0  0  0  0  0  0
   -2.0630   -1.4070   -0.9650 C   0  0  0  0  0  0  0  0  0  0  0  0
   -3.2760   -2.0960   -0.8450 C   0  0  0  0  0  0  0  0  0  0  0  0
   -3.5450   -3.2690   -1.7200 C   0  0  0  0  0  0  0  0  0  0  0  0
   -4.1740   -1.6400    0.0960 C   0  0  0  0  0  0  0  0  0  0  0  0
   -3.9110   -0.5500    0.9000 C   0  0  0  0  0  0  0  0  0  0  0  0
   -4.9300   -0.1120    1.8990 C   0  0  0  0  0  0  0  0  0  0  0  0
   -2.7040    0.0980    0.7490 C   0  0  0  0  0  0  0  0  0  0  0  0
   -2.4260    1.2540    1.6030 C   0  0  0  0  0  0  0  0  0  0  0  0
  1  2  2  0
  2  3  1  0
  2  5  1  0
  3  4  1  0
  5  6  1  0
  7  6  1  1
  7  8  1  0
  7 11  1  0
  8  9  1  0
  9 10  1  0
 11 12  1  0
 12 13  2  0
 12 19  1  0
 13 14  1  0
 14 15  1  0
 14 16  2  0
 16 17  1  0
 17 18  1  0
 17 19  2  0
 19 20  1  0
M  END
