
     RDKit          3D

  8  7  0  0  0  0  0  0  0  0999 V2000
   -0.1260    1.5370   -0.0960 C   0  0  0  0  0  0  0  0  0  0  0  0
   -0.7390    0.1610   -0.7070 S   0  0  0  0  0  0  0  0  0  0  0  0
   -0.0470   -0.4320   -2.2410 O   0  0  0  0  0  0  0  0  0  0  0  0
   -2.0700   -0.6370   -0.1440 C   0  0  0  0  0  0  0  0  0  0  0  0
   -3.2760    0.1010    0.0080 O   0  0  0  0  0  0  0  0  0  0  0  0
    0.3430   -0.8680   -0.0770 C   0  0  0  0  0  0  0  0  0  0  0  0
    1.8260   -0.7370   -0.3730 C   0  0  0  0  0  0  0  0  0  0  0  0
    2.4220    0.4880    0.0220 N   0  0  0  0  0  0  0  0  0  0  0  0
  1  2  1  0
  2  3  2  0
  2  4  1  0
  2  6  1  0
  4  5  1  0
  6  7  1  0
  7  8  1  0
M  END
