
     RDKit          3D

 20 20  0  0  0  0  0  0  0  0999 V2000
    5.9920    1.9300    0.5730 C   0  0  0  0  0  0  0  0  0  0  0  0
    5.7850    0.9660   -0.5660 C   0  0  0  0  0  0  0  0  0  0  0  0
    4.4920    0.1710   -0.3970 C   0  0  2  0  0  0  0  0  0  0  0  0
    4.5970   -0.6000    0.9020 C   0  0  0  0  0  0  0  0  0  0  0  0
    4.4550   -0.8130   -1.5240 C   0  0  0  0  0  0  0  0  0  0  0  0
    3.3220    1.0630   -0.3110 C   0  0  0  0  0  0  0  0  0  0  0  0
    2.0560    0.7300   -0.2590 C   0  0  0  0  0  0  0  0  0  0  0  0
    1.4870   -0.6160   -0.2740 C   0  0  0  0  0  0  0  0  0  0  0  0
    0.6840   -0.9520    0.9120 C   0  0  0  0  0  0  0  0  0  0  0  0
    1.3490   -1.3690    1.8860 O   0  0  0  0  0  0  0  0  0  0  0  0
   -0.7810   -0.8470    1.0600 C   0  0  0  0  0  0  0  0  0  0  0  0
   -1.5420   -0.4360   -0.1340 C   0  0  1  0  0  0  0  0  0  0  0  0
   -1.3550   -1.3540   -1.1620 O   0  0  0  0  0  0  0  0  0  0  0  0
   -3.0140   -0.2180    0.1130 C   0  0  1  0  0  0  0  0  0  0  0  0
   -3.6370    0.1920   -1.1860 C   0  0  0  0  0  0  0  0  0  0  0  0
   -4.9220    0.9220   -1.0570 C   0  0  0  0  0  0  0  0  0  0  0  0
   -5.2670    1.3460    0.3390 C   0  0  0  0  0  0  0  0  0  0  0  0
   -5.4650    0.2240    1.2980 C   0  0  0  0  0  0  0  0  0  0  0  0
   -5.1850   -1.1360    0.7120 C   0  0  0  0  0  0  0  0  0  0  0  0
   -3.6820   -1.4230    0.7260 C   0  0  0  0  0  0  0  0  0  0  0  0
  1  2  1  0
  2  3  1  0
  3  4  1  1
  3  5  1  0
  3  6  1  0
  6  7  2  3
  7  8  1  0
  8  9  1  0
  9 10  2  0
  9 11  1  0
 11 12  1  0
 12 13  1  6
 12 14  1  0
 14 15  1  6
 14 20  1  0
 15 16  1  0
 16 17  1  0
 17 18  1  0
 18 19  1  0
 19 20  1  0
M  END
