
     RDKit          3D

  8  7  0  0  0  0  0  0  0  0999 V2000
    3.6860   -0.7470    0.5020 C   0  0  0  0  0  0  0  0  0  0  0  0
    1.9050   -0.7540    0.8210 S   0  0  0  0  0  0  0  0  0  0  0  0
    1.1290    0.6420   -0.0010 C   0  0  0  0  0  0  0  0  0  0  0  0
   -0.1770    0.3070   -0.5490 C   0  0  2  0  0  0  0  0  0  0  0  0
   -0.8430    1.4230   -1.0950 O   0  0  0  0  0  0  0  0  0  0  0  0
   -1.1920   -0.5230    0.1330 C   0  0  0  0  0  0  0  0  0  0  0  0
   -2.0820    0.3800    0.8170 O   0  0  0  0  0  0  0  0  0  0  0  0
   -3.2840    0.0110    0.2310 N   0  0  0  0  0  0  0  0  0  0  0  0
  1  2  1  0
  2  3  1  0
  3  4  1  0
  4  5  1  1
  4  6  1  0
  6  7  1  0
  7  8  1  0
M  CHG  1   8   1
M  END
