
     RDKit          3D

 20 20  0  0  0  0  0  0  0  0999 V2000
    3.2000   -0.5000    0.6860 C   0  0  0  0  0  0  0  0  0  0  0  0
    2.3340   -1.1280    1.7300 C   0  0  2  0  0  0  0  0  0  0  0  0
    2.7020   -2.5630    1.9990 C   0  0  0  0  0  0  0  0  0  0  0  0
    0.8570   -1.0460    1.2590 C   0  0  0  0  0  0  0  0  0  0  0  0
    0.4930    0.3720    1.0910 C   0  0  0  0  0  0  0  0  0  0  0  0
    1.1640    1.1310    1.9200 O   0  0  0  0  0  0  0  0  0  0  0  0
   -0.4000    1.0310    0.2100 C   0  0  0  0  0  0  0  0  0  0  0  0
   -1.3840    0.3300   -0.6570 C   0  0  0  0  0  0  0  0  0  0  0  0
   -2.0160   -0.7800   -0.4570 C   0  0  0  0  0  0  0  0  0  0  0  0
   -2.0290   -1.7410    0.6700 C   0  0  1  0  0  0  0  0  0  0  0  0
   -3.5840   -2.0030    0.9370 C   0  0  0  0  0  0  0  0  0  0  0  0
   -1.5200   -3.0750    0.2430 C   0  0  0  0  0  0  0  0  0  0  0  0
   -2.9050   -1.0600   -1.6780 C   0  0  0  0  0  0  0  0  0  0  0  0
   -2.0400   -0.4720   -2.7580 C   0  0  0  0  0  0  0  0  0  0  0  0
   -1.7120    0.8630   -2.0660 C   0  0  0  0  0  0  0  0  0  0  0  0
   -0.0640    2.2680   -0.1740 C   0  0  0  0  0  0  0  0  0  0  0  0
   -1.1180    2.7830   -1.0550 O   0  0  0  0  0  0  0  0  0  0  0  0
    0.9610    3.2220   -0.0180 C   0  0  1  0  0  0  0  0  0  0  0  0
    2.2090    3.1440    0.7340 C   0  0  0  0  0  0  0  0  0  0  0  0
    1.4400    3.5300   -1.5020 C   0  0  0  0  0  0  0  0  0  0  0  0
  2  1  1  6
  2  3  1  0
  2  4  1  0
  4  5  1  0
  5  6  2  0
  5  7  1  0
  7  8  1  0
  7 16  2  3
  8  9  2  0
  8 15  1  0
  9 10  1  0
  9 13  1  0
 10 11  1  6
 10 12  1  0
 13 14  1  0
 14 15  1  0
 16 17  1  0
 16 18  1  0
 18 19  1  1
 18 20  1  0
M  END
