
     RDKit          3D

 36 38  0  0  0  0  0  0  0  0999 V2000
    8.0930   -3.6760    1.5920 C   0  0  0  0  0  0  0  0  0  0  0  0
    7.2990   -3.4080    0.4510 O   0  0  0  0  0  0  0  0  0  0  0  0
    6.1780   -2.5880    0.4930 C   0  0  0  0  0  0  0  0  0  0  0  0
    5.7260   -1.9630    1.6120 C   0  0  0  0  0  0  0  0  0  0  0  0
    4.6030   -1.1480    1.6310 C   0  0  0  0  0  0  0  0  0  0  0  0
    3.9180   -0.9720    0.4400 C   0  0  0  0  0  0  0  0  0  0  0  0
    2.8020   -0.1830    0.3820 O   0  0  0  0  0  0  0  0  0  0  0  0
    2.2670    0.5020    1.5010 C   0  0  0  0  0  0  0  0  0  0  0  0
    1.0120    1.2870    1.0560 C   0  0  2  0  0  0  0  0  0  0  0  0
    0.0670    0.1820    0.5530 C   0  0  0  0  0  0  0  0  0  0  0  0
   -1.1990    0.7500    0.0840 C   0  0  0  0  0  0  0  0  0  0  0  0
   -1.3870    1.9870    0.1280 O   0  0  0  0  0  0  0  0  0  0  0  0
   -2.2060   -0.1110   -0.4200 N   0  0  0  0  0  0  0  0  0  0  0  0
   -3.4630    0.4460   -0.8850 C   0  0  0  0  0  0  0  0  0  0  0  0
   -4.6240   -0.2180   -0.1500 C   0  0  1  0  0  0  0  0  0  0  0  0
   -5.8850    0.3350   -0.7290 C   0  0  0  0  0  0  0  0  0  0  0  0
   -7.1360   -0.2150   -0.1150 C   0  0  0  0  0  0  0  0  0  0  0  0
   -7.2250    0.0590    1.3680 C   0  0  0  0  0  0  0  0  0  0  0  0
   -7.2090    1.4200    1.5540 F   0  0  0  0  0  0  0  0  0  0  0  0
   -4.5160   -1.6950   -0.1590 C   0  0  0  0  0  0  0  0  0  0  0  0
   -3.2880   -2.2420   -0.8540 C   0  0  1  0  0  0  0  0  0  0  0  0
   -3.5050   -2.3400   -2.3120 C   0  0  0  0  0  0  0  0  0  0  0  0
   -2.5240   -2.8070   -3.2170 N   0  0  0  0  0  0  0  0  0  0  0  0
   -4.6180   -1.9910   -2.7690 O   0  0  0  0  0  0  0  0  0  0  0  0
   -2.0330   -1.5290   -0.4890 C   0  0  0  0  0  0  0  0  0  0  0  0
    1.2910    2.1970    0.0940 O   0  0  0  0  0  0  0  0  0  0  0  0
    1.1830    3.5360   -0.0350 C   0  0  0  0  0  0  0  0  0  0  0  0
    1.6110    4.0850   -1.2730 C   0  0  0  0  0  0  0  0  0  0  0  0
    1.5410    5.4200   -1.4960 C   0  0  0  0  0  0  0  0  0  0  0  0
    1.0460    6.2520   -0.5040 C   0  0  0  0  0  0  0  0  0  0  0  0
    0.6300    5.7210    0.6970 C   0  0  0  0  0  0  0  0  0  0  0  0
    0.6950    4.3400    0.9460 C   0  0  0  0  0  0  0  0  0  0  0  0
    0.2400    3.8870    2.2240 N   0  0  0  0  0  0  0  0  0  0  0  0
    4.3540   -1.5940   -0.7110 C   0  0  0  0  0  0  0  0  0  0  0  0
    5.4890   -2.4070   -0.6940 C   0  0  0  0  0  0  0  0  0  0  0  0
    5.9180   -3.0500   -1.9430 C   0  0  0  0  0  0  0  0  0  0  0  0
  1  2  1  0
  2  3  1  0
  3  4  2  0
  3 35  1  0
  4  5  1  0
  5  6  2  0
  6  7  1  0
  6 34  1  0
  7  8  1  0
  9  8  1  6
  9 10  1  0
  9 26  1  0
 10 11  1  0
 11 12  2  0
 11 13  1  0
 13 14  1  0
 13 25  1  0
 14 15  1  0
 15 16  1  6
 15 20  1  0
 16 17  1  0
 17 18  1  0
 18 19  1  0
 20 21  1  0
 21 22  1  6
 21 25  1  0
 22 23  1  0
 22 24  2  0
 26 27  1  0
 27 28  2  0
 27 32  1  0
 28 29  1  0
 29 30  2  0
 30 31  1  0
 31 32  2  0
 32 33  1  0
 34 35  2  0
 35 36  1  0
M  END
