
     RDKit          3D

 36 38  0  0  0  0  0  0  0  0999 V2000
   -1.3860   -5.1370    0.7010 C   0  0  0  0  0  0  0  0  0  0  0  0
   -2.3110   -3.9700    0.5690 C   0  0  1  0  0  0  0  0  0  0  0  0
   -3.3610   -3.9460    1.6710 C   0  0  0  0  0  0  0  0  0  0  0  0
   -4.2640   -2.7990    1.4230 C   0  0  2  0  0  0  0  0  0  0  0  0
   -5.3260   -3.2540    0.5390 N   0  0  0  0  0  0  0  0  0  0  0  0
   -3.6360   -1.5600    0.9500 C   0  0  0  0  0  0  0  0  0  0  0  0
   -2.3290   -1.4330    0.6300 C   0  0  0  0  0  0  0  0  0  0  0  0
   -1.8260   -0.1910    0.1830 C   0  0  0  0  0  0  0  0  0  0  0  0
   -0.6930    0.2940   -0.1850 C   0  0  0  0  0  0  0  0  0  0  0  0
    0.5230   -0.4730   -0.2150 N   0  0  0  0  0  0  0  0  0  0  0  0
    1.1710   -0.7960   -1.4270 C   0  0  0  0  0  0  0  0  0  0  0  0
    0.5960   -0.3510   -2.4980 O   0  0  0  0  0  0  0  0  0  0  0  0
    2.3790   -1.5720   -1.5790 C   0  0  0  0  0  0  0  0  0  0  0  0
    2.3280   -2.6330   -2.5390 C   0  0  0  0  0  0  0  0  0  0  0  0
    3.3710   -3.5040   -2.6540 C   0  0  0  0  0  0  0  0  0  0  0  0
    4.4900   -3.3980   -1.8640 C   0  0  0  0  0  0  0  0  0  0  0  0
    4.5160   -2.3710   -0.9530 C   0  0  0  0  0  0  0  0  0  0  0  0
    3.4670   -1.4420   -0.7960 C   0  0  0  0  0  0  0  0  0  0  0  0
    3.6700   -0.3290    0.0870 C   0  0  0  0  0  0  0  0  0  0  0  0
    2.8920    0.6370    0.1260 O   0  0  0  0  0  0  0  0  0  0  0  0
    4.8810   -0.3650    0.9880 C   0  0  0  0  0  0  0  0  0  0  0  0
    4.9070    0.8450    1.8550 C   0  0  0  0  0  0  0  0  0  0  0  0
    4.3500    1.0040    3.0900 C   0  0  0  0  0  0  0  0  0  0  0  0
    4.6470    2.3050    3.4840 C   0  0  0  0  0  0  0  0  0  0  0  0
    5.3690    2.8520    2.4550 C   0  0  0  0  0  0  0  0  0  0  0  0
    5.5050    1.9580    1.5020 O   0  0  0  0  0  0  0  0  0  0  0  0
   -0.5600    1.7020   -0.6310 C   0  0  0  0  0  0  0  0  0  0  0  0
    0.5780    2.1400   -0.9900 O   0  0  0  0  0  0  0  0  0  0  0  0
   -1.6050    2.6350   -0.6990 N   0  0  0  0  0  0  0  0  0  0  0  0
   -1.3650    4.0150   -1.1580 C   0  0  0  0  0  0  0  0  0  0  0  0
   -2.6430    4.8110   -1.1390 C   0  0  0  0  0  0  0  0  0  0  0  0
   -2.3280    6.1970   -1.6140 C   0  0  0  0  0  0  0  0  0  0  0  0
   -3.5600    7.0850   -1.6320 C   0  0  0  0  0  0  0  0  0  0  0  0
   -4.5110    6.5560   -2.4730 F   0  0  0  0  0  0  0  0  0  0  0  0
   -1.5760   -2.6480    0.7570 C   0  0  0  0  0  0  0  0  0  0  0  0
   -0.3880   -2.7160    1.0060 O   0  0  0  0  0  0  0  0  0  0  0  0
  2  1  1  1
  2  3  1  0
  2 35  1  0
  3  4  1  0
  4  5  1  6
  4  6  1  0
  6  7  2  0
  7  8  1  0
  7 35  1  0
  8  9  2  3
  9 10  1  0
  9 27  1  0
 10 11  1  0
 11 12  2  0
 11 13  1  0
 13 14  2  0
 13 18  1  0
 14 15  1  0
 15 16  2  0
 16 17  1  0
 17 18  2  0
 18 19  1  0
 19 20  2  0
 19 21  1  0
 21 22  1  0
 22 23  2  0
 22 26  1  0
 23 24  1  0
 24 25  2  0
 25 26  1  0
 27 28  2  0
 27 29  1  0
 29 30  1  0
 30 31  1  0
 31 32  1  0
 32 33  1  0
 33 34  1  0
 35 36  2  0
M  END
