
     RDKit          3D

 37 38  0  0  0  0  0  0  0  0999 V2000
   -9.6740    2.0150    1.6810 C   0  0  0  0  0  0  0  0  0  0  0  0
   -9.3740    1.0410    0.6900 O   0  0  0  0  0  0  0  0  0  0  0  0
   -8.1160    0.8690    0.2240 C   0  0  0  0  0  0  0  0  0  0  0  0
   -7.2120    1.6040    0.7000 O   0  0  0  0  0  0  0  0  0  0  0  0
   -7.7640   -0.1060   -0.7830 C   0  0  0  0  0  0  0  0  0  0  0  0
   -8.7150   -0.9210   -1.3250 C   0  0  0  0  0  0  0  0  0  0  0  0
  -10.0450   -0.9460   -1.0240 O   0  0  0  0  0  0  0  0  0  0  0  0
   -8.2930   -1.8370   -2.2990 C   0  0  0  0  0  0  0  0  0  0  0  0
   -7.0000   -1.9420   -2.7150 C   0  0  0  0  0  0  0  0  0  0  0  0
   -6.0350   -1.0990   -2.1520 C   0  0  0  0  0  0  0  0  0  0  0  0
   -6.4110   -0.1980   -1.2020 C   0  0  0  0  0  0  0  0  0  0  0  0
   -5.5410    0.6500   -0.6130 O   0  0  0  0  0  0  0  0  0  0  0  0
   -4.1920    0.8630   -0.7110 C   0  0  0  0  0  0  0  0  0  0  0  0
   -3.3570   -0.2860   -0.2550 C   0  0  0  0  0  0  0  0  0  0  0  0
   -1.8580    0.0280   -0.4020 C   0  0  0  0  0  0  0  0  0  0  0  0
   -1.1100   -1.1950    0.0780 C   0  0  0  0  0  0  0  0  0  0  0  0
    0.3020   -0.9410   -0.0430 N   0  0  0  0  0  0  0  0  0  0  0  0
    0.9540    0.0910    0.6420 C   0  0  0  0  0  0  0  0  0  0  0  0
    0.2990    0.8420    1.4080 O   0  0  0  0  0  0  0  0  0  0  0  0
    2.4170    0.3590    0.5110 C   0  0  2  0  0  0  0  0  0  0  0  0
    3.1560   -0.9160    0.7780 C   0  0  0  0  0  0  0  0  0  0  0  0
    4.6240   -0.7780    0.6790 C   0  0  0  0  0  0  0  0  0  0  0  0
    5.3270   -0.9600   -0.4900 C   0  0  0  0  0  0  0  0  0  0  0  0
    6.7100   -0.8170   -0.5280 C   0  0  0  0  0  0  0  0  0  0  0  0
    7.4490   -0.4880    0.5890 C   0  0  0  0  0  0  0  0  0  0  0  0
    8.8260   -0.3420    0.5730 O   0  0  0  0  0  0  0  0  0  0  0  0
    9.6540   -0.5100   -0.5250 C   0  0  0  0  0  0  0  0  0  0  0  0
    9.6410   -1.8680   -1.1080 C   0  0  0  0  0  0  0  0  0  0  0  0
   10.3500   -2.0440   -2.1430 O   0  0  0  0  0  0  0  0  0  0  0  0
    8.8890   -2.8520   -0.5290 O   0  0  0  0  0  0  0  0  0  0  0  0
    6.7170   -0.3080    1.7600 C   0  0  0  0  0  0  0  0  0  0  0  0
    7.4700    0.0250    2.8910 O   0  0  0  0  0  0  0  0  0  0  0  0
    5.3450   -0.4480    1.8070 C   0  0  0  0  0  0  0  0  0  0  0  0
    2.7670    1.4620    1.3310 N   0  0  0  0  0  0  0  0  0  0  0  0
    3.2510    2.7060    0.8620 C   0  0  0  0  0  0  0  0  0  0  0  0
    3.5980    3.8230    1.8060 C   0  0  0  0  0  0  0  0  0  0  0  0
    3.3830    2.8480   -0.3900 O   0  0  0  0  0  0  0  0  0  0  0  0
  1  2  1  0
  2  3  1  0
  3  4  2  0
  3  5  1  0
  5  6  2  0
  5 11  1  0
  6  7  1  0
  6  8  1  0
  8  9  2  0
  9 10  1  0
 10 11  2  0
 11 12  1  0
 12 13  1  0
 13 14  1  0
 14 15  1  0
 15 16  1  0
 16 17  1  0
 17 18  1  0
 18 19  2  0
 18 20  1  0
 20 21  1  1
 20 34  1  0
 21 22  1  0
 22 23  2  0
 22 33  1  0
 23 24  1  0
 24 25  2  0
 25 26  1  0
 25 31  1  0
 26 27  1  0
 27 28  1  0
 28 29  2  0
 28 30  1  0
 31 32  1  0
 31 33  2  0
 34 35  1  0
 35 36  1  0
 35 37  2  0
M  END
