
     RDKit          3D

 14 13  0  0  0  0  0  0  0  0999 V2000
   -2.8680    2.1610   -0.3650 C   0  0  0  0  0  0  0  0  0  0  0  0
   -2.9030    1.0480    0.2980 C   0  0  0  0  0  0  0  0  0  0  0  0
   -3.9670    0.7720    1.2340 N   0  0  0  0  0  0  0  0  0  0  0  0
   -1.8770   -0.0550    0.1790 C   0  0  0  0  0  0  0  0  0  0  0  0
   -0.8610    0.3580   -0.8100 C   0  0  0  0  0  0  0  0  0  0  0  0
    0.2750   -0.5460   -1.0850 C   0  0  2  0  0  0  0  0  0  0  0  0
   -0.0310   -1.9120   -1.6100 C   0  0  0  0  0  0  0  0  0  0  0  0
   -0.8510   -2.8100   -0.7720 C   0  0  0  0  0  0  0  0  0  0  0  0
    1.1660   -0.7120    0.0430 N   0  0  0  0  0  0  0  0  0  0  0  0
    1.8220    0.4810    0.4710 C   0  0  2  0  0  0  0  0  0  0  0  0
    2.7330    1.1110   -0.5270 C   0  0  0  0  0  0  0  0  0  0  0  0
    3.7480    0.2050   -0.8720 O   0  0  0  0  0  0  0  0  0  0  0  0
    2.7000    0.0690    1.6570 C   0  0  0  0  0  0  0  0  0  0  0  0
    3.3980    1.1600    2.1670 O   0  0  0  0  0  0  0  0  0  0  0  0
  1  2  2  0
  2  3  1  0
  2  4  1  0
  4  5  1  0
  6  5  1  1
  6  7  1  0
  6  9  1  0
  7  8  1  0
  9 10  1  0
 10 11  1  6
 10 13  1  0
 11 12  1  0
 13 14  1  0
M  END
