
     RDKit          3D

 14 14  0  0  0  0  0  0  0  0999 V2000
    5.5820    0.2200    0.0310 N   0  0  0  0  0  0  0  0  0  0  0  0
    4.2500    0.6540   -0.1350 C   0  0  0  0  0  0  0  0  0  0  0  0
    4.0210    1.6490   -0.8510 O   0  0  0  0  0  0  0  0  0  0  0  0
    3.1350   -0.0450    0.5200 C   0  0  0  0  0  0  0  0  0  0  0  0
    1.7930    0.5800    0.2130 C   0  0  0  0  0  0  0  0  0  0  0  0
    0.7370   -0.2270    0.9410 C   0  0  2  0  0  0  0  0  0  0  0  0
    0.7780   -1.5220    0.4980 O   0  0  0  0  0  0  0  0  0  0  0  0
   -0.5990    0.4160    0.9430 C   0  0  0  0  0  0  0  0  0  0  0  0
   -1.2390    0.6840   -0.3540 C   0  0  1  0  0  0  0  0  0  0  0  0
   -1.5100   -0.4760   -1.2340 C   0  0  0  0  0  0  0  0  0  0  0  0
   -2.4290   -1.4690   -0.5520 C   0  0  0  0  0  0  0  0  0  0  0  0
   -3.7290   -0.7600   -0.2920 C   0  0  0  0  0  0  0  0  0  0  0  0
   -3.6360    0.6990   -0.6150 C   0  0  0  0  0  0  0  0  0  0  0  0
   -2.4950    1.3620   -0.0900 N   0  0  0  0  0  0  0  0  0  0  0  0
  1  2  1  0
  2  3  2  0
  2  4  1  0
  4  5  1  0
  5  6  1  0
  6  7  1  6
  6  8  1  0
  9  8  1  1
  9 10  1  0
  9 14  1  0
 10 11  1  0
 11 12  1  0
 12 13  1  0
 13 14  1  0
M  END
