
     RDKit          3D

 14 13  0  0  0  0  0  0  0  0999 V2000
   -1.2300   -2.1110   -0.3270 C   0  0  0  0  0  0  0  0  0  0  0  0
   -0.7450   -0.6760   -0.1980 C   0  0  1  0  0  0  0  0  0  0  0  0
    0.5740   -0.4690   -0.7760 C   0  0  0  0  0  0  0  0  0  0  0  0
    1.5590   -0.0000    0.0110 C   0  0  0  0  0  0  0  0  0  0  0  0
    2.8600    0.1970   -0.5850 C   0  0  0  0  0  0  0  0  0  0  0  0
    3.0110   -0.1230   -1.9810 N   0  0  0  0  0  0  0  0  0  0  0  0
    3.9220    0.6420    0.0280 C   0  0  0  0  0  0  0  0  0  0  0  0
    3.9990    1.0180    1.4070 C   0  0  0  0  0  0  0  0  0  0  0  0
    3.0220    0.9590    2.1990 N   0  0  0  0  0  0  0  0  0  0  0  0
    5.2270    1.4800    1.9150 O   0  0  0  0  0  0  0  0  0  0  0  0
   -1.8100    0.1750   -0.9070 C   0  0  0  0  0  0  0  0  0  0  0  0
   -3.0930   -0.0960   -0.1550 C   0  0  0  0  0  0  0  0  0  0  0  0
   -4.2590    0.6730   -0.7290 C   0  0  0  0  0  0  0  0  0  0  0  0
   -5.3790    0.3300    0.0590 O   0  0  0  0  0  0  0  0  0  0  0  0
  2  1  1  6
  2  3  1  0
  2 11  1  0
  3  4  2  3
  4  5  1  0
  5  6  1  0
  5  7  2  3
  7  8  1  0
  8  9  2  0
  8 10  1  0
 11 12  1  0
 12 13  1  0
 13 14  1  0
M  END
