
     RDKit          3D

 14 13  0  0  0  0  0  0  0  0999 V2000
    3.0610    0.1730   -2.1470 C   0  0  0  0  0  0  0  0  0  0  0  0
    2.1740   -0.1990   -1.1930 C   0  0  0  0  0  0  0  0  0  0  0  0
    2.7460   -0.2190    0.1760 C   0  0  0  0  0  0  0  0  0  0  0  0
    4.1240    0.1760    0.1180 O   0  0  0  0  0  0  0  0  0  0  0  0
    0.8330   -0.5330   -1.5840 C   0  0  0  0  0  0  0  0  0  0  0  0
    0.5770   -0.4390   -3.0280 N   0  0  0  0  0  0  0  0  0  0  0  0
   -0.1500   -0.8940   -0.8800 C   0  0  0  0  0  0  0  0  0  0  0  0
   -0.3190   -1.1070    0.5590 C   0  0  0  0  0  0  0  0  0  0  0  0
   -1.3310   -0.2910    1.1450 N   0  0  0  0  0  0  0  0  0  0  0  0
   -2.6710   -0.5300    0.8050 C   0  0  0  0  0  0  0  0  0  0  0  0
   -3.2440   -1.8270    1.3050 C   0  0  0  0  0  0  0  0  0  0  0  0
   -0.9610    0.9550    1.6850 C   0  0  0  0  0  0  0  0  0  0  0  0
   -0.5240    2.0040    0.7110 C   0  0  0  0  0  0  0  0  0  0  0  0
   -0.2090    3.1480    1.4710 O   0  0  0  0  0  0  0  0  0  0  0  0
  1  2  2  0
  2  3  1  0
  2  5  1  0
  3  4  1  0
  5  6  1  0
  5  7  2  3
  7  8  1  0
  8  9  1  0
  9 10  1  0
  9 12  1  0
 10 11  1  0
 12 13  1  0
 13 14  1  0
M  END
