
     RDKit          3D

 22 22  0  0  0  0  0  0  0  0999 V2000
    3.1270    1.2190   -1.9500 O   0  0  0  0  0  0  0  0  0  0  0  0
    3.4300    0.3850   -1.0440 C   0  0  0  0  0  0  0  0  0  0  0  0
    2.5390   -0.5010   -0.4930 O   0  0  0  0  0  0  0  0  0  0  0  0
    1.1740   -0.4760   -0.9800 C   0  0  1  0  0  0  0  0  0  0  0  0
    1.0300   -1.7460   -1.5730 O   0  0  0  0  0  0  0  0  0  0  0  0
    0.2270   -0.2360    0.1150 C   0  0  0  0  0  0  0  0  0  0  0  0
   -1.2160   -0.1920   -0.0400 C   0  0  2  0  0  0  0  0  0  0  0  0
   -1.9410    0.7860   -0.8510 C   0  0  0  0  0  0  0  0  0  0  0  0
   -1.8370    0.9910   -2.2810 C   0  0  2  0  0  0  0  0  0  0  0  0
   -0.6470    1.3790   -2.8360 O   0  0  0  0  0  0  0  0  0  0  0  0
   -2.7330    2.0710   -2.5960 O   0  0  0  0  0  0  0  0  0  0  0  0
   -1.9020   -0.0830    1.3640 C   0  0  0  0  0  0  0  0  0  0  0  0
   -3.0560   -1.0440    1.3220 C   0  0  2  0  0  0  0  0  0  0  0  0
   -4.1060   -0.7440    2.3630 C   0  0  0  0  0  0  0  0  0  0  0  0
   -4.6840    0.4900    2.1990 O   0  0  0  0  0  0  0  0  0  0  0  0
   -2.5150   -2.3080    1.5500 O   0  0  0  0  0  0  0  0  0  0  0  0
   -1.5130   -2.4420    0.5550 C   0  0  0  0  0  0  0  0  0  0  0  0
   -1.6180   -1.5170   -0.4460 O   0  0  0  0  0  0  0  0  0  0  0  0
    4.8590    0.4150   -0.5880 C   0  0  1  0  0  0  0  0  0  0  0  0
    5.6030    1.3790   -1.2630 O   0  0  0  0  0  0  0  0  0  0  0  0
    4.8380    0.8400    0.8760 C   0  0  0  0  0  0  0  0  0  0  0  0
    4.1000   -0.1070    1.5800 O   0  0  0  0  0  0  0  0  0  0  0  0
  1  2  2  0
  2  3  1  0
  2 19  1  0
  3  4  1  0
  4  5  1  1
  4  6  1  0
  7  6  1  1
  7  8  1  0
  7 12  1  0
  7 18  1  0
  8  9  1  0
  9 10  1  1
  9 11  1  0
 12 13  1  0
 13 14  1  1
 13 16  1  0
 14 15  1  0
 16 17  1  0
 17 18  1  0
 19 20  1  6
 19 21  1  0
 21 22  1  0
M  END
