
     RDKit          3D

 12 12  0  0  0  0  0  0  0  0999 V2000
   -1.8340    2.5510   -0.2340 C   0  0  0  0  0  0  0  0  0  0  0  0
   -0.9460    1.5160   -0.5540 O   0  0  0  0  0  0  0  0  0  0  0  0
   -1.2730    0.1990   -0.2800 C   0  0  0  0  0  0  0  0  0  0  0  0
   -2.4420   -0.0500    0.2900 N   0  0  0  0  0  0  0  0  0  0  0  0
   -2.8160   -1.2970    0.5750 C   0  0  0  0  0  0  0  0  0  0  0  0
   -1.9720   -2.3330    0.2710 C   0  0  0  0  0  0  0  0  0  0  0  0
   -0.7820   -2.0680   -0.3100 N   0  0  0  0  0  0  0  0  0  0  0  0
   -0.3940   -0.8120   -0.6020 C   0  0  0  0  0  0  0  0  0  0  0  0
    0.8920   -0.4940   -1.1980 C   0  0  0  0  0  0  0  0  0  0  0  0
    1.9790   -0.0710   -0.2760 C   0  0  2  0  0  0  0  0  0  0  0  0
    2.2800   -1.1700    0.7300 C   0  0  0  0  0  0  0  0  0  0  0  0
    1.8150    1.2340    0.4080 C   0  0  0  0  0  0  0  0  0  0  0  0
  1  2  1  0
  2  3  1  0
  3  4  2  0
  3  8  1  0
  4  5  1  0
  5  6  2  0
  6  7  1  0
  7  8  2  0
  8  9  1  0
  9 10  1  0
 10 11  1  1
 10 12  1  0
M  END
