
     RDKit          3D

 11 11  0  0  0  0  0  0  0  0999 V2000
   -1.8910   -1.2510    0.7710 C   0  0  0  0  0  0  0  0  0  0  0  0
   -0.9590   -0.1440    1.1930 C   0  0  2  0  0  0  0  0  0  0  0  0
   -1.7070    1.1310    1.5210 C   0  0  0  0  0  0  0  0  0  0  0  0
    0.0530    0.1570    0.2470 N   0  0  0  0  0  0  0  0  0  0  0  0
   -0.3950    0.6400   -1.0230 C   0  0  0  0  0  0  0  0  0  0  0  0
    0.8060    1.2660   -1.7130 C   0  0  0  0  0  0  0  0  0  0  0  0
    1.9420    0.5220   -1.6890 O   0  0  0  0  0  0  0  0  0  0  0  0
    2.2250   -0.1840   -0.5600 C   0  0  2  0  0  0  0  0  0  0  0  0
    3.3570   -1.0610   -0.7040 C   0  0  0  0  0  0  0  0  0  0  0  0
    4.2570   -1.7690   -0.8110 N   0  0  0  0  0  0  0  0  0  0  0  0
    0.9890   -0.9090   -0.0080 C   0  0  0  0  0  0  0  0  0  0  0  0
  2  1  1  6
  2  3  1  0
  2  4  1  0
  4  5  1  0
  4 11  1  0
  5  6  1  0
  6  7  1  0
  7  8  1  0
  8  9  1  6
  8 11  1  0
  9 10  3  0
M  END
