
     RDKit          3D

 11 11  0  0  0  0  0  0  0  0999 V2000
   -1.3440   -0.2670    2.5430 C   0  0  0  0  0  0  0  0  0  0  0  0
   -1.7570   -0.2580    1.3010 C   0  0  0  0  0  0  0  0  0  0  0  0
   -0.9260   -0.1170    0.1390 C   0  0  0  0  0  0  0  0  0  0  0  0
   -1.5160   -0.1300   -1.0610 C   0  0  0  0  0  0  0  0  0  0  0  0
   -2.9780   -0.2840   -1.1880 C   0  0  0  0  0  0  0  0  0  0  0  0
    0.5200    0.0390    0.2310 C   0  0  0  0  0  0  0  0  0  0  0  0
    1.3690    0.1840   -0.8360 N   0  0  0  0  0  0  0  0  0  0  0  0
    2.5970    0.2970   -0.3550 C   0  0  0  0  0  0  0  0  0  0  0  0
    3.9050    0.4750   -1.0320 C   0  0  0  0  0  0  0  0  0  0  0  0
    2.4750    0.2190    0.9780 N   0  0  0  0  0  0  0  0  0  0  0  0
    1.2540    0.0690    1.2840 O   0  0  0  0  0  0  0  0  0  0  0  0
  1  2  2  0
  2  3  1  0
  3  4  2  3
  3  6  1  0
  4  5  1  0
  6  7  2  0
  6 11  1  0
  7  8  1  0
  8  9  1  0
  8 10  2  0
 10 11  1  0
M  END
