
     RDKit          3D

 11 11  0  0  0  0  0  0  0  0999 V2000
    4.2780   -1.1950    0.1730 C   0  0  0  0  0  0  0  0  0  0  0  0
    2.8940   -0.9030    0.4690 N   0  0  0  0  0  0  0  0  0  0  0  0
    2.1590   -0.4420   -0.4330 N   0  0  0  0  0  0  0  0  0  0  0  0
    0.7980   -0.1110   -0.2920 C   0  0  0  0  0  0  0  0  0  0  0  0
   -0.2000   -0.9700   -0.2260 C   0  0  0  0  0  0  0  0  0  0  0  0
   -1.4480   -0.2670   -0.0830 C   0  0  0  0  0  0  0  0  0  0  0  0
   -2.8030   -0.8940    0.0250 C   0  0  0  0  0  0  0  0  0  0  0  0
   -1.2440    1.0390   -0.0580 C   0  0  0  0  0  0  0  0  0  0  0  0
   -2.2910    2.0880    0.0780 C   0  0  0  0  0  0  0  0  0  0  0  0
    0.2040    1.2140   -0.1900 C   0  0  0  0  0  0  0  0  0  0  0  0
    0.7770    2.3350   -0.2060 O   0  0  0  0  0  0  0  0  0  0  0  0
  1  2  1  0
  2  3  2  3
  3  4  1  0
  4  5  2  0
  4 10  1  0
  5  6  1  0
  6  7  1  0
  6  8  2  0
  8  9  1  0
  8 10  1  0
 10 11  2  0
M  END
