
     RDKit          3D

 11 11  0  0  0  0  0  0  0  0999 V2000
   -3.5120    1.2120   -0.0160 C   0  0  0  0  0  0  0  0  0  0  0  0
   -2.3290    0.7180   -0.0750 N   0  0  0  0  0  0  0  0  0  0  0  0
   -2.0650   -0.6260    0.2520 C   0  0  0  0  0  0  0  0  0  0  0  0
   -2.7760   -1.2250    1.1810 C   0  0  0  0  0  0  0  0  0  0  0  0
   -0.9690   -1.3810   -0.4550 C   0  0  0  0  0  0  0  0  0  0  0  0
    0.2660   -0.8100   -0.2900 N   0  0  0  0  0  0  0  0  0  0  0  0
    0.9920   -0.7440    0.9040 C   0  0  0  0  0  0  0  0  0  0  0  0
    1.6800    0.4910    0.2940 C   0  0  1  0  0  0  0  0  0  0  0  0
    2.9760    0.1740   -0.0460 O   0  0  0  0  0  0  0  0  0  0  0  0
    3.9110    1.0770    0.4240 C   0  0  0  0  0  0  0  0  0  0  0  0
    0.7390    0.3500   -0.8900 C   0  0  0  0  0  0  0  0  0  0  0  0
  1  2  2  0
  2  3  1  0
  3  4  2  0
  3  5  1  0
  5  6  1  0
  6  7  1  0
  6 11  1  0
  7  8  1  0
  8  9  1  6
  8 11  1  0
  9 10  1  0
M  END
