
     RDKit          3D

 14 15  0  0  0  0  0  0  0  0999 V2000
    1.8350   -1.6960    0.0340 C   0  0  0  0  0  0  0  0  0  0  0  0
    1.1720   -0.8850    1.1130 C   0  0  0  0  0  0  0  0  0  0  0  0
    0.9660    0.4770    0.7020 N   0  0  0  0  0  0  0  0  0  0  0  0
    1.8820    1.4620    0.9800 C   0  0  0  0  0  0  0  0  0  0  0  0
    3.1110    1.3060    1.6630 N   0  0  0  0  0  0  0  0  0  0  0  0
    1.3750    2.5830    0.4760 N   0  0  0  0  0  0  0  0  0  0  0  0
    0.2330    2.3040   -0.0700 N   0  0  0  0  0  0  0  0  0  0  0  0
   -0.0720    0.9720    0.0460 C   0  0  0  0  0  0  0  0  0  0  0  0
   -1.2770    0.3790   -0.5330 C   0  0  0  0  0  0  0  0  0  0  0  0
   -1.6080   -0.8820   -0.6500 C   0  0  0  0  0  0  0  0  0  0  0  0
   -2.9370   -0.9580   -1.3080 C   0  0  0  0  0  0  0  0  0  0  0  0
   -3.3270    0.4180   -1.5520 C   0  0  0  0  0  0  0  0  0  0  0  0
   -2.3770    1.1970   -1.1090 C   0  0  0  0  0  0  0  0  0  0  0  0
   -2.4350    2.9510   -1.2010 Cl  0  0  0  0  0  0  0  0  0  0  0  0
  1  2  1  0
  2  3  1  0
  3  4  1  0
  3  8  1  0
  4  5  1  0
  4  6  2  0
  6  7  1  0
  7  8  2  0
  8  9  1  0
  9 10  2  0
  9 13  1  0
 10 11  1  0
 11 12  1  0
 12 13  2  0
 13 14  1  0
M  END
