
     RDKit          3D

 25 28  0  0  0  0  0  0  0  0999 V2000
   -6.6190    1.3590   -0.3230 C   0  0  0  0  0  0  0  0  0  0  0  0
   -5.4040    0.4940   -0.4250 C   0  0  1  0  0  0  0  0  0  0  0  0
   -4.1080    1.3030   -0.5640 C   0  0  0  0  0  0  0  0  0  0  0  0
   -3.1210    0.6210    0.3990 C   0  0  0  0  0  0  0  0  0  0  0  0
   -3.7300   -0.6560    0.5960 N   0  0  0  0  0  0  0  0  0  0  0  0
   -3.1040   -1.5590    1.4680 C   0  0  1  0  0  0  0  0  0  0  0  0
   -2.8250   -2.9850    0.9400 C   0  0  0  0  0  0  0  0  0  0  0  0
   -1.7160   -1.9940    1.1020 C   0  0  1  0  0  0  0  0  0  0  0  0
   -1.1390   -1.5280   -0.1400 N   0  0  0  0  0  0  0  0  0  0  0  0
    0.2160   -1.0200   -0.1360 C   0  0  0  0  0  0  0  0  0  0  0  0
    0.8690   -0.9900    0.9640 O   0  0  0  0  0  0  0  0  0  0  0  0
    0.7740   -0.5540   -1.4020 C   0  0  0  0  0  0  0  0  0  0  0  0
    1.6580    0.6020   -1.4500 C   0  0  0  0  0  0  0  0  0  0  0  0
    2.8870    0.6880   -0.7470 N   0  0  0  0  0  0  0  0  0  0  0  0
    4.1210    0.3750   -1.1900 N   0  0  0  0  0  0  0  0  0  0  0  0
    5.0190    0.6790   -0.2610 C   0  0  0  0  0  0  0  0  0  0  0  0
    6.4850    0.5550   -0.3000 C   0  0  0  0  0  0  0  0  0  0  0  0
    7.3370    0.1290   -1.2320 C   0  0  0  0  0  0  0  0  0  0  0  0
    8.6530    0.1430   -0.9760 C   0  0  0  0  0  0  0  0  0  0  0  0
    9.1090    0.5880    0.2180 C   0  0  0  0  0  0  0  0  0  0  0  0
    7.5420    1.0410    1.0970 S   0  0  0  0  0  0  0  0  0  0  0  0
    4.3600    1.1920    0.7880 N   0  0  0  0  0  0  0  0  0  0  0  0
    3.0630    1.1960    0.4870 C   0  0  0  0  0  0  0  0  0  0  0  0
    2.1890    1.6340    1.2970 O   0  0  0  0  0  0  0  0  0  0  0  0
   -5.1160   -0.3270    0.8290 C   0  0  0  0  0  0  0  0  0  0  0  0
  2  1  1  1
  2  3  1  0
  2 25  1  0
  3  4  1  0
  4  5  1  0
  6  5  1  6
  5 25  1  0
  6  7  1  0
  6  8  1  0
  7  8  1  0
  8  9  1  6
  9 10  1  0
 10 11  2  0
 10 12  1  0
 12 13  1  0
 13 14  1  0
 14 15  1  0
 14 23  1  0
 15 16  2  0
 16 17  1  0
 16 22  1  0
 17 18  2  0
 17 21  1  0
 18 19  1  0
 19 20  2  0
 20 21  1  0
 22 23  1  0
 23 24  2  0
M  END
