
     RDKit          3D

 25 28  0  0  0  0  0  0  0  0999 V2000
   -4.1910    1.8520   -1.5840 C   0  0  0  0  0  0  0  0  0  0  0  0
   -3.8520    1.3110   -0.4270 C   0  0  0  0  0  0  0  0  0  0  0  0
   -2.6030    1.6570    0.3390 C   0  0  0  0  0  0  0  0  0  0  0  0
   -2.6470    0.6780    1.5160 C   0  0  2  0  0  0  0  0  0  0  0  0
   -2.0160   -0.5330    1.0670 N   0  0  0  0  0  0  0  0  0  0  0  0
   -0.6540   -0.5330    0.6900 C   0  0  0  0  0  0  0  0  0  0  0  0
   -0.0320   -1.6690    0.2570 N   0  0  0  0  0  0  0  0  0  0  0  0
    1.2240   -1.7170   -0.0980 N   0  0  0  0  0  0  0  0  0  0  0  0
    1.9770   -0.6230   -0.0510 N   0  0  0  0  0  0  0  0  0  0  0  0
    3.3390   -0.6180   -0.4230 C   0  0  0  0  0  0  0  0  0  0  0  0
    4.2740   -0.1530    0.4640 C   0  0  0  0  0  0  0  0  0  0  0  0
    5.6270   -0.1420    0.1100 C   0  0  0  0  0  0  0  0  0  0  0  0
    6.0270   -0.5960   -1.1260 C   0  0  0  0  0  0  0  0  0  0  0  0
    7.4440   -0.5800   -1.4850 C   0  0  0  0  0  0  0  0  0  0  0  0
    8.2900   -0.1530   -0.6660 O   0  0  0  0  0  0  0  0  0  0  0  0
    5.0750   -1.0590   -2.0040 C   0  0  0  0  0  0  0  0  0  0  0  0
    3.7520   -1.0660   -1.6490 C   0  0  0  0  0  0  0  0  0  0  0  0
    1.4290    0.5420    0.3680 C   0  0  0  0  0  0  0  0  0  0  0  0
    2.1520    1.5700    0.4080 O   0  0  0  0  0  0  0  0  0  0  0  0
    0.1330    0.5540    0.7260 N   0  0  0  0  0  0  0  0  0  0  0  0
   -4.1580    0.4610    1.7150 C   0  0  2  0  0  0  0  0  0  0  0  0
   -4.4230   -0.7210    2.5680 C   0  0  0  0  0  0  0  0  0  0  0  0
   -5.8340   -1.4500    1.6330 S   0  0  0  0  0  0  0  0  0  0  0  0
   -5.4590   -0.6500    0.0840 C   0  0  0  0  0  0  0  0  0  0  0  0
   -4.5900    0.2820    0.3500 C   0  0  0  0  0  0  0  0  0  0  0  0
  1  2  2  0
  2  3  1  0
  2 25  1  0
  3  4  1  0
  4  5  1  6
  4 21  1  0
  5  6  1  0
  6  7  1  0
  6 20  2  0
  7  8  2  0
  8  9  1  0
  9 10  1  0
  9 18  1  0
 10 11  2  0
 10 17  1  0
 11 12  1  0
 12 13  2  0
 13 14  1  0
 13 16  1  0
 14 15  2  0
 16 17  2  0
 18 19  2  0
 18 20  1  0
 21 22  1  1
 21 25  1  0
 22 23  1  0
 23 24  1  0
 24 25  2  0
M  END
