
     RDKit          3D

 25 29  0  0  0  0  0  0  0  0999 V2000
    7.3630    1.1740    1.4850 C   0  0  0  0  0  0  0  0  0  0  0  0
    6.4390   -0.0280    1.5030 C   0  0  0  0  0  0  0  0  0  0  0  0
    5.2850    0.3130    0.7570 O   0  0  0  0  0  0  0  0  0  0  0  0
    4.2480   -0.5990    0.5960 C   0  0  0  0  0  0  0  0  0  0  0  0
    4.4000   -1.7120    1.1390 O   0  0  0  0  0  0  0  0  0  0  0  0
    3.0580   -0.2550   -0.1710 C   0  0  0  0  0  0  0  0  0  0  0  0
    1.9340   -0.8920   -0.4920 C   0  0  0  0  0  0  0  0  0  0  0  0
    0.9810   -0.3050   -1.2360 C   0  0  0  0  0  0  0  0  0  0  0  0
    1.2400    1.0040   -1.6460 C   0  0  0  0  0  0  0  0  0  0  0  0
    2.7940    1.3740   -0.9880 S   0  0  0  0  0  0  0  0  0  0  0  0
    0.2750    1.7930   -2.4640 C   0  0  0  0  0  0  0  0  0  0  0  0
   -1.0600    1.5660   -1.8830 C   0  0  0  0  0  0  0  0  0  0  0  0
   -2.0500    2.4060   -1.6690 N   0  0  0  0  0  0  0  0  0  0  0  0
   -3.1760    2.0380   -1.1020 N   0  0  0  0  0  0  0  0  0  0  0  0
   -3.4180    0.7310   -0.6780 C   0  0  0  0  0  0  0  0  0  0  0  0
   -4.5670    0.4570   -0.1490 C   0  0  0  0  0  0  0  0  0  0  0  0
   -5.7230    1.3480    0.1050 N   0  0  0  0  0  0  0  0  0  0  0  0
   -6.0840    0.4560    1.1980 C   0  0  0  0  0  0  0  0  0  0  0  0
   -5.4220   -0.5370    0.3290 N   0  0  0  0  0  0  0  0  0  0  0  0
   -2.4230   -0.1930   -0.8670 C   0  0  0  0  0  0  0  0  0  0  0  0
   -1.3000    0.2720   -1.4640 C   0  0  0  0  0  0  0  0  0  0  0  0
   -0.3430   -0.8160   -1.7310 C   0  0  2  0  0  0  0  0  0  0  0  0
   -0.9200   -1.8870   -1.0360 N   0  0  0  0  0  0  0  0  0  0  0  0
   -2.1850   -1.4280   -0.5040 C   0  0  0  0  0  0  0  0  0  0  0  0
   -3.0530   -2.2390    0.3940 C   0  0  0  0  0  0  0  0  0  0  0  0
  1  2  1  0
  2  3  1  0
  3  4  1  0
  4  5  2  0
  4  6  1  0
  6  7  2  0
  6 10  1  0
  7  8  1  0
  8  9  2  0
  8 22  1  0
  9 10  1  0
  9 11  1  0
 11 12  1  0
 12 13  1  0
 12 21  2  0
 13 14  2  0
 14 15  1  0
 15 16  2  3
 15 20  1  0
 16 17  1  0
 16 19  1  0
 17 18  1  0
 18 19  1  0
 20 21  1  0
 20 24  2  0
 21 22  1  0
 22 23  1  1
 23 24  1  0
 24 25  1  0
M  END
