
     RDKit          3D

 25 28  0  0  0  0  0  0  0  0999 V2000
    5.3920   -0.8980    1.7960 C   0  0  0  0  0  0  0  0  0  0  0  0
    4.1880   -1.1890    1.0200 N   0  0  0  0  0  0  0  0  0  0  0  0
    3.3690   -2.2010    1.3300 N   0  0  0  0  0  0  0  0  0  0  0  0
    2.3180   -2.2180    0.4490 C   0  0  0  0  0  0  0  0  0  0  0  0
    2.5110   -1.1680   -0.4420 C   0  0  0  0  0  0  0  0  0  0  0  0
    3.6760   -0.5610   -0.0520 C   0  0  0  0  0  0  0  0  0  0  0  0
    4.1620    0.5530   -0.8150 N   0  0  0  0  0  0  0  0  0  0  0  0
    3.4220    0.9830   -1.9350 C   0  0  0  0  0  0  0  0  0  0  0  0
    3.4730    2.1930   -2.3020 O   0  0  0  0  0  0  0  0  0  0  0  0
    2.5870   -0.0480   -2.6380 C   0  0  0  0  0  0  0  0  0  0  0  0
    1.7250   -0.6430   -1.5620 C   0  0  2  0  0  0  0  0  0  0  0  0
    0.9120    0.5270   -1.0270 C   0  0  0  0  0  0  0  0  0  0  0  0
    1.5200    1.5820   -0.6810 O   0  0  0  0  0  0  0  0  0  0  0  0
   -0.4950    0.4730   -0.8970 N   0  0  0  0  0  0  0  0  0  0  0  0
   -1.3510    1.4800   -0.3870 C   0  0  0  0  0  0  0  0  0  0  0  0
   -0.9640    2.7890   -0.1970 C   0  0  0  0  0  0  0  0  0  0  0  0
   -1.8350    3.6720    0.4420 C   0  0  0  0  0  0  0  0  0  0  0  0
   -3.0540    3.2040    0.8680 C   0  0  0  0  0  0  0  0  0  0  0  0
   -3.4120    1.9050    0.6630 N   0  0  0  0  0  0  0  0  0  0  0  0
   -2.5950    1.0250    0.0410 C   0  0  0  0  0  0  0  0  0  0  0  0
   -3.0440   -0.3180   -0.3330 C   0  0  1  0  0  0  0  0  0  0  0  0
   -3.1140   -1.2310    0.8610 C   0  0  0  0  0  0  0  0  0  0  0  0
   -4.2440   -2.2120    0.6550 C   0  0  0  0  0  0  0  0  0  0  0  0
   -5.4860   -1.3000    0.6760 C   0  0  0  0  0  0  0  0  0  0  0  0
   -4.9360   -0.0990   -0.6020 S   0  0  0  0  0  0  0  0  0  0  0  0
  1  2  1  0
  2  3  1  0
  2  6  1  0
  3  4  2  0
  4  5  1  0
  5  6  2  0
  5 11  1  0
  6  7  1  0
  7  8  1  0
  8  9  2  0
  8 10  1  0
 10 11  1  0
 11 12  1  1
 12 13  2  0
 12 14  1  0
 14 15  1  0
 15 16  2  0
 15 20  1  0
 16 17  1  0
 17 18  2  0
 18 19  1  0
 19 20  2  0
 21 20  1  1
 21 22  1  0
 21 25  1  0
 22 23  1  0
 23 24  1  0
 24 25  1  0
M  END
