
     RDKit          3D

 24 25  0  0  0  0  0  0  0  0999 V2000
   -5.5380    0.3920   -0.1930 C   0  0  0  0  0  0  0  0  0  0  0  0
   -4.6450    0.3380    0.7360 C   0  0  0  0  0  0  0  0  0  0  0  0
   -4.7690    1.2260    1.9540 C   0  0  0  0  0  0  0  0  0  0  0  0
   -3.3890    1.9040    2.0800 C   0  0  0  0  0  0  0  0  0  0  0  0
   -2.3880    0.8270    2.3570 C   0  0  0  0  0  0  0  0  0  0  0  0
   -2.2640   -0.0520    1.2260 N   0  0  0  0  0  0  0  0  0  0  0  0
   -0.9920   -0.4620    0.6480 C   0  0  0  0  0  0  0  0  0  0  0  0
   -0.2850    0.6620    0.0050 C   0  0  0  0  0  0  0  0  0  0  0  0
   -0.8460    1.7810    0.0290 O   0  0  0  0  0  0  0  0  0  0  0  0
    0.9630    0.4880   -0.6060 N   0  0  0  0  0  0  0  0  0  0  0  0
    1.7230    1.6050   -1.2300 C   0  0  0  0  0  0  0  0  0  0  0  0
    3.0860    1.2180   -0.7270 C   0  0  0  0  0  0  0  0  0  0  0  0
    4.0150    2.0330   -0.2720 C   0  0  0  0  0  0  0  0  0  0  0  0
    5.3080    1.5360    0.1920 C   0  0  0  0  0  0  0  0  0  0  0  0
    6.2260    2.3540    0.6440 C   0  0  0  0  0  0  0  0  0  0  0  0
    7.5170    1.8110    1.1030 C   0  0  0  0  0  0  0  0  0  0  0  0
    3.0900   -0.2300   -0.8740 C   0  0  0  0  0  0  0  0  0  0  0  0
    1.8030   -0.6390   -0.8000 C   0  0  0  0  0  0  0  0  0  0  0  0
    1.3420   -2.0340   -0.8950 C   0  0  0  0  0  0  0  0  0  0  0  0
    0.4700   -2.2310   -2.0280 N   0  0  0  0  0  0  0  0  0  0  0  0
    1.2150   -2.7130   -3.1610 C   0  0  0  0  0  0  0  0  0  0  0  0
   -3.4870   -0.5570    0.6710 C   0  0  0  0  0  0  0  0  0  0  0  0
   -3.5810   -1.7680    0.1710 C   0  0  0  0  0  0  0  0  0  0  0  0
   -4.7950   -2.4010   -0.3760 C   0  0  0  0  0  0  0  0  0  0  0  0
  1  2  2  0
  2  3  1  0
  2 22  1  0
  3  4  1  0
  4  5  1  0
  5  6  1  0
  6  7  1  0
  6 22  1  0
  7  8  1  0
  8  9  2  0
  8 10  1  0
 10 11  1  0
 10 18  1  0
 11 12  1  0
 12 13  2  3
 12 17  1  0
 13 14  1  0
 14 15  2  3
 15 16  1  0
 17 18  2  0
 18 19  1  0
 19 20  1  0
 20 21  1  0
 22 23  2  3
 23 24  1  0
M  CHG  1  20   1
M  END
