
     RDKit          3D

 30 31  0  0  0  0  0  0  0  0999 V2000
    7.8960   -1.3840    1.4970 O   0  0  0  0  0  0  0  0  0  0  0  0
    7.4850   -2.0020    0.1230 P   0  0  0  0  0  0  0  0  0  0  0  0
    6.2470   -1.1650   -0.8670 N   0  0  0  0  0  0  0  0  0  0  0  0
    5.3890   -0.1630   -0.3520 C   0  0  0  0  0  0  0  0  0  0  0  0
    5.5120    0.1460    0.8590 O   0  0  0  0  0  0  0  0  0  0  0  0
    4.3730    0.5220   -1.1690 C   0  0  1  0  0  0  0  0  0  0  0  0
    3.6240    1.4640   -0.4310 O   0  0  0  0  0  0  0  0  0  0  0  0
    2.2780    1.5340   -0.4040 N   0  0  0  0  0  0  0  0  0  0  0  0
    1.4790    0.7550    0.1970 C   0  0  0  0  0  0  0  0  0  0  0  0
    1.8420   -0.3010    0.9300 N   0  0  0  0  0  0  0  0  0  0  0  0
    0.9230   -1.0830    1.5400 C   0  0  0  0  0  0  0  0  0  0  0  0
    1.3490   -2.0710    2.2210 O   0  0  0  0  0  0  0  0  0  0  0  0
   -0.4020   -0.8730    1.4650 N   0  0  0  0  0  0  0  0  0  0  0  0
   -0.8110    0.1850    0.7330 C   0  0  0  0  0  0  0  0  0  0  0  0
    0.1040    0.9970    0.1020 C   0  0  0  0  0  0  0  0  0  0  0  0
   -0.6290    1.9540   -0.5400 O   0  0  0  0  0  0  0  0  0  0  0  0
   -1.9240    1.8870   -0.1980 O   0  0  0  0  0  0  0  0  0  0  0  0
   -2.1000    0.7130    0.4290 N   0  0  0  0  0  0  0  0  0  0  0  0
   -3.3540    0.1210    0.7260 C   0  0  0  0  0  0  0  0  0  0  0  0
   -3.3820   -0.9850    1.3190 O   0  0  0  0  0  0  0  0  0  0  0  0
   -4.6360    0.7680    0.3590 C   0  0  1  0  0  0  0  0  0  0  0  0
   -5.7960   -0.0670    0.7870 C   0  0  0  0  0  0  0  0  0  0  0  0
   -5.8080   -1.7460    0.0200 P   0  0  0  0  0  0  0  0  0  0  0  0
   -5.1110   -1.7260   -1.5690 O   0  0  0  0  0  0  0  0  0  0  0  0
   -7.3870   -2.4510    0.0250 O   0  0  0  0  0  0  0  0  0  0  0  0
   -4.7180    2.3700    1.3350 P   0  0  0  0  0  0  0  0  0  0  0  0
   -4.4790    2.2440    2.8840 O   0  0  0  0  0  0  0  0  0  0  0  0
    5.0580    1.2020   -2.3270 C   0  0  0  0  0  0  0  0  0  0  0  0
    5.7790    0.5520   -3.1200 O   0  0  0  0  0  0  0  0  0  0  0  0
    4.8820    2.5570   -2.5070 O   0  0  0  0  0  0  0  0  0  0  0  0
  1  2  2  0
  2  3  1  0
  3  4  1  0
  4  5  2  0
  4  6  1  0
  6  7  1  1
  6 28  1  0
  7  8  1  0
  8  9  2  3
  9 10  1  0
  9 15  1  0
 10 11  1  0
 11 12  2  0
 11 13  1  0
 13 14  1  0
 14 15  2  0
 14 18  1  0
 15 16  1  0
 16 17  1  0
 17 18  1  0
 18 19  1  0
 19 20  2  0
 19 21  1  0
 21 22  1  1
 21 26  1  0
 22 23  1  0
 23 24  1  0
 23 25  1  0
 26 27  2  0
 28 29  2  0
 28 30  1  0
M  END
