
     RDKit          3D

 31 33  0  0  0  0  0  0  0  0999 V2000
   -5.4710    1.1300    1.7960 O   0  0  0  0  0  0  0  0  0  0  0  0
   -4.6700    1.3140    0.8240 C   0  0  0  0  0  0  0  0  0  0  0  0
   -3.3080    1.5850    1.0510 O   0  0  0  0  0  0  0  0  0  0  0  0
   -2.4220    1.1910   -0.0140 C   0  0  1  0  0  0  0  0  0  0  0  0
   -2.1660    2.3340   -0.9170 C   0  0  0  0  0  0  0  0  0  0  0  0
   -1.4340    2.2420   -1.9150 O   0  0  0  0  0  0  0  0  0  0  0  0
   -2.7660    3.5460   -0.6340 O   0  0  0  0  0  0  0  0  0  0  0  0
   -1.1850    0.5840    0.5080 C   0  0  0  0  0  0  0  0  0  0  0  0
   -0.1560    1.1920    1.0420 N   0  0  0  0  0  0  0  0  0  0  0  0
    0.9240    0.4610    1.4780 O   0  0  0  0  0  0  0  0  0  0  0  0
    2.5380    0.7030    0.8230 P   0  0  0  0  0  0  0  0  0  0  0  0
    2.8700    2.4000    0.5980 O   0  0  0  0  0  0  0  0  0  0  0  0
    2.7470   -0.1210   -0.6690 O   0  0  0  0  0  0  0  0  0  0  0  0
    3.9860   -1.3050   -0.6610 P   0  0  0  0  0  0  0  0  0  0  0  0
    3.5800   -2.7410    0.1870 O   0  0  0  0  0  0  0  0  0  0  0  0
    5.5700   -0.6530   -0.2170 N   0  0  0  0  0  0  0  0  0  0  0  0
    6.1340    0.5930   -0.6990 C   0  0  0  0  0  0  0  0  0  0  0  0
    7.3940    0.8280    0.1110 C   0  0  0  0  0  0  0  0  0  0  0  0
    7.3490   -0.1790    1.0970 O   0  0  0  0  0  0  0  0  0  0  0  0
    6.5360   -1.1970    0.6490 C   0  0  0  0  0  0  0  0  0  0  0  0
    6.6460   -2.4220    0.9700 O   0  0  0  0  0  0  0  0  0  0  0  0
   -1.3160   -0.8170    0.3260 N   0  0  0  0  0  0  0  0  0  0  0  0
   -2.3840   -1.0870   -0.3370 C   0  0  0  0  0  0  0  0  0  0  0  0
   -2.7660   -2.4420   -0.6660 N   0  0  0  0  0  0  0  0  0  0  0  0
   -2.3610   -3.8330    0.3900 P   0  0  0  0  0  0  0  0  0  0  0  0
   -3.5130   -5.0970    0.0180 O   0  0  0  0  0  0  0  0  0  0  0  0
   -2.6580   -3.3820    2.0370 O   0  0  0  0  0  0  0  0  0  0  0  0
   -3.0790    0.0970   -0.6660 N   0  0  0  0  0  0  0  0  0  0  0  0
   -4.2460    0.4020   -1.4690 C   0  0  0  0  0  0  0  0  0  0  0  0
   -5.1470    1.2490   -0.5720 C   0  0  1  0  0  0  0  0  0  0  0  0
   -6.4520    0.7340   -0.6170 O   0  0  0  0  0  0  0  0  0  0  0  0
  1  2  2  0
  2  3  1  0
  2 30  1  0
  3  4  1  0
  4  5  1  6
  4  8  1  0
  4 28  1  0
  5  6  2  0
  5  7  1  0
  8  9  2  3
  8 22  1  0
  9 10  1  0
 10 11  1  0
 11 12  1  0
 11 13  1  0
 13 14  1  0
 14 15  1  0
 14 16  1  0
 16 17  1  0
 16 20  1  0
 17 18  1  0
 18 19  1  0
 19 20  1  0
 20 21  2  0
 22 23  2  0
 23 24  1  0
 23 28  1  0
 24 25  1  0
 25 26  1  0
 25 27  1  0
 28 29  1  0
 29 30  1  0
 30 31  1  1
M  END
