
     RDKit          3D

 30 31  0  0  0  0  0  0  0  0999 V2000
   -3.5160    0.1250   -4.7090 O   0  0  0  0  0  0  0  0  0  0  0  0
   -3.6600   -0.7980   -3.4280 P   0  0  0  0  0  0  0  0  0  0  0  0
   -2.3430   -0.6090   -2.1640 N   0  0  0  0  0  0  0  0  0  0  0  0
   -2.3180    0.5840   -1.4030 C   0  0  0  0  0  0  0  0  0  0  0  0
   -3.2040    1.4450   -1.6350 O   0  0  0  0  0  0  0  0  0  0  0  0
   -1.2750    0.8280   -0.3180 C   0  0  1  0  0  0  0  0  0  0  0  0
   -2.0290    2.0430    0.4790 C   0  0  0  0  0  0  0  0  0  0  0  0
   -3.2730    1.6410    0.2750 O   0  0  0  0  0  0  0  0  0  0  0  0
   -4.4550    0.9750    1.0950 P   0  0  0  0  0  0  0  0  0  0  0  0
   -5.5010   -0.0620    0.0130 O   0  0  0  0  0  0  0  0  0  0  0  0
   -4.6700    0.5910    2.6750 O   0  0  0  0  0  0  0  0  0  0  0  0
   -1.4370   -0.2300    0.7520 N   0  0  0  0  0  0  0  0  0  0  0  0
   -0.0370   -0.4040    1.1340 C   0  0  0  0  0  0  0  0  0  0  0  0
    0.2480   -1.0880    2.1650 O   0  0  0  0  0  0  0  0  0  0  0  0
    0.7680    0.3050    0.1560 C   0  0  1  0  0  0  0  0  0  0  0  0
    1.7900    1.2700    0.7210 C   0  0  0  0  0  0  0  0  0  0  0  0
    2.3800    0.5490    1.7690 O   0  0  0  0  0  0  0  0  0  0  0  0
    3.4850    0.9910    2.5390 C   0  0  0  0  0  0  0  0  0  0  0  0
    3.9840    2.0730    2.2270 O   0  0  0  0  0  0  0  0  0  0  0  0
    3.9080    0.1580    3.5920 O   0  0  0  0  0  0  0  0  0  0  0  0
    5.3390    0.7540    4.5130 P   0  0  0  0  0  0  0  0  0  0  0  0
    5.5910    2.2660    4.6240 O   0  0  0  0  0  0  0  0  0  0  0  0
    1.5640   -0.7910   -0.5570 C   0  0  0  0  0  0  0  0  0  0  0  0
    2.7280   -1.1520   -0.1270 N   0  0  0  0  0  0  0  0  0  0  0  0
    3.4090   -2.2140   -0.8110 C   0  0  0  0  0  0  0  0  0  0  0  0
    4.5940   -2.5790   -0.5050 O   0  0  0  0  0  0  0  0  0  0  0  0
    2.7630   -2.8720   -1.9000 N   0  0  0  0  0  0  0  0  0  0  0  0
    1.7020   -2.2310   -2.6200 C   0  0  0  0  0  0  0  0  0  0  0  0
    1.0470   -1.2270   -1.8040 N   0  0  0  0  0  0  0  0  0  0  0  0
   -0.0850    0.9400   -0.7170 O   0  0  0  0  0  0  0  0  0  0  0  0
  1  2  2  0
  2  3  1  0
  3  4  1  0
  4  5  2  0
  4  6  1  0
  6  7  1  1
  6 12  1  0
  6 30  1  0
  7  8  1  0
  8  9  1  0
  9 10  1  0
  9 11  1  0
 12 13  1  0
 13 14  2  0
 13 15  1  0
 15 16  1  1
 15 23  1  0
 15 30  1  0
 16 17  1  0
 17 18  1  0
 18 19  2  0
 18 20  1  0
 20 21  1  0
 21 22  2  0
 23 24  2  0
 23 29  1  0
 24 25  1  0
 25 26  2  0
 25 27  1  0
 27 28  1  0
 28 29  1  0
M  END
