
     RDKit          3D

 30 31  0  0  0  0  0  0  0  0999 V2000
    7.4460    0.5120   -0.5240 O   0  0  0  0  0  0  0  0  0  0  0  0
    7.5160    1.5140    0.2160 C   0  0  0  0  0  0  0  0  0  0  0  0
    8.7570    1.8460    0.7370 O   0  0  0  0  0  0  0  0  0  0  0  0
    6.3390    2.2780    0.5020 N   0  0  0  0  0  0  0  0  0  0  0  0
    5.0650    1.9490   -0.0240 C   0  0  0  0  0  0  0  0  0  0  0  0
    4.9790    0.9420   -0.7720 O   0  0  0  0  0  0  0  0  0  0  0  0
    3.8500    2.7490    0.2790 C   0  0  0  0  0  0  0  0  0  0  0  0
    2.7050    2.2520   -0.3390 O   0  0  0  0  0  0  0  0  0  0  0  0
    2.1750    0.9990   -0.1520 C   0  0  0  0  0  0  0  0  0  0  0  0
    2.7430    0.2140    0.6320 O   0  0  0  0  0  0  0  0  0  0  0  0
    0.9920    0.5320   -0.8120 N   0  0  0  0  0  0  0  0  0  0  0  0
    0.4780   -0.8170   -0.5680 C   0  0  2  0  0  0  0  0  0  0  0  0
    1.8340   -1.9880   -1.0220 P   0  0  0  0  0  0  0  0  0  0  0  0
    2.2450   -1.9100   -2.6930 O   0  0  0  0  0  0  0  0  0  0  0  0
    1.6110   -3.5650   -0.4300 O   0  0  0  0  0  0  0  0  0  0  0  0
   -0.7480   -0.9900   -1.3980 C   0  0  0  0  0  0  0  0  0  0  0  0
   -1.9530   -1.2750   -0.6460 N   0  0  0  0  0  0  0  0  0  0  0  0
   -3.2510   -0.7800   -1.1040 C   0  0  0  0  0  0  0  0  0  0  0  0
   -4.3240   -1.2310   -0.1530 C   0  0  1  0  0  0  0  0  0  0  0  0
   -5.5890   -1.1870   -0.7270 O   0  0  0  0  0  0  0  0  0  0  0  0
   -6.6080   -0.2310    0.2850 P   0  0  0  0  0  0  0  0  0  0  0  0
   -6.9130   -1.0730    1.7820 O   0  0  0  0  0  0  0  0  0  0  0  0
   -5.5830    1.6600    0.7790 P   0  0  0  0  0  0  0  0  0  0  0  0
   -6.5980    2.6820    1.7280 O   0  0  0  0  0  0  0  0  0  0  0  0
   -5.1950    2.5190   -0.6860 O   0  0  0  0  0  0  0  0  0  0  0  0
   -4.0200   -2.5860    0.2100 O   0  0  0  0  0  0  0  0  0  0  0  0
   -2.8620   -2.7050    0.9810 N   0  0  0  0  0  0  0  0  0  0  0  0
   -1.8410   -2.0440    0.5390 C   0  0  0  0  0  0  0  0  0  0  0  0
   -0.5280   -2.0540    1.2320 C   0  0  0  0  0  0  0  0  0  0  0  0
    0.2690   -0.9110    0.8550 N   0  0  0  0  0  0  0  0  0  0  0  0
  1  2  2  0
  2  3  1  0
  2  4  1  0
  4  5  1  0
  5  6  2  0
  5  7  1  0
  7  8  1  0
  8  9  1  0
  9 10  2  0
  9 11  1  0
 12 11  1  1
 12 13  1  0
 12 16  1  0
 12 30  1  0
 13 14  1  0
 13 15  1  0
 16 17  1  0
 17 18  1  0
 17 28  1  0
 18 19  1  0
 19 20  1  6
 19 26  1  0
 20 21  1  0
 21 22  1  0
 21 23  1  0
 23 24  1  0
 23 25  1  0
 26 27  1  0
 27 28  2  0
 28 29  1  0
 29 30  1  0
M  END
