
     RDKit          3D

 31 33  0  0  0  0  0  0  0  0999 V2000
   -6.9540   -0.7300    1.8910 N   0  0  0  0  0  0  0  0  0  0  0  0
   -5.5650   -0.6690    1.5930 C   0  0  0  0  0  0  0  0  0  0  0  0
   -4.6070   -0.7010    2.5270 N   0  0  0  0  0  0  0  0  0  0  0  0
   -3.2980   -0.6400    2.2000 C   0  0  0  0  0  0  0  0  0  0  0  0
   -2.8780   -0.5450    0.9290 N   0  0  0  0  0  0  0  0  0  0  0  0
   -3.8010   -0.5080   -0.0580 C   0  0  0  0  0  0  0  0  0  0  0  0
   -5.1320   -0.5700    0.2730 C   0  0  0  0  0  0  0  0  0  0  0  0
   -5.8280   -0.5150   -0.8850 N   0  0  0  0  0  0  0  0  0  0  0  0
   -4.9380   -0.4230   -1.8800 C   0  0  0  0  0  0  0  0  0  0  0  0
   -3.6930   -0.4160   -1.4120 N   0  0  0  0  0  0  0  0  0  0  0  0
   -2.4330   -0.3300   -2.1490 C   0  0  2  0  0  0  0  0  0  0  0  0
   -1.3710   -0.5660   -1.3240 O   0  0  0  0  0  0  0  0  0  0  0  0
   -0.4380    0.4430   -1.4980 C   0  0  2  0  0  0  0  0  0  0  0  0
    0.5170    0.5700   -0.3580 C   0  0  0  0  0  0  0  0  0  0  0  0
    1.2010   -0.6130   -0.2140 O   0  0  0  0  0  0  0  0  0  0  0  0
    2.3170   -0.5950    1.0490 P   0  0  1  0  0  0  0  0  0  0  0  0
    2.4650    0.7530    1.6710 O   0  0  0  0  0  0  0  0  0  0  0  0
    1.8750   -1.7750    2.1730 O   0  0  0  0  0  0  0  0  0  0  0  0
    3.8160   -1.0890    0.3930 O   0  0  0  0  0  0  0  0  0  0  0  0
    5.1080   -0.4140    1.2210 P   0  0  2  0  0  0  0  0  0  0  0  0
    6.0740   -1.4840    1.7150 O   0  0  0  0  0  0  0  0  0  0  0  0
    4.5160    0.4890    2.5190 O   0  0  0  0  0  0  0  0  0  0  0  0
    6.0140    0.6400    0.2370 O   0  0  0  0  0  0  0  0  0  0  0  0
    7.6310    0.5980    0.7730 P   0  0  1  0  0  0  0  0  0  0  0  0
    8.5160    1.3520   -0.1810 O   0  0  0  0  0  0  0  0  0  0  0  0
    7.7760    1.2780    2.2980 O   0  0  0  0  0  0  0  0  0  0  0  0
    8.1950   -1.0140    0.8220 O   0  0  0  0  0  0  0  0  0  0  0  0
   -1.3320    1.6590   -1.6670 C   0  0  1  0  0  0  0  0  0  0  0  0
   -0.6420    2.7460   -2.1750 O   0  0  0  0  0  0  0  0  0  0  0  0
   -2.3340    1.0940   -2.6530 C   0  0  1  0  0  0  0  0  0  0  0  0
   -1.7560    1.1040   -3.9060 O   0  0  0  0  0  0  0  0  0  0  0  0
  1  2  1  0
  2  3  2  0
  2  7  1  0
  3  4  1  0
  4  5  2  0
  5  6  1  0
  6  7  2  0
  6 10  1  0
  7  8  1  0
  8  9  2  0
  9 10  1  0
 11 10  1  1
 11 12  1  0
 11 30  1  0
 12 13  1  0
 13 14  1  1
 13 28  1  0
 14 15  1  0
 15 16  1  0
 16 17  2  0
 16 18  1  1
 16 19  1  0
 19 20  1  0
 20 21  2  0
 20 22  1  1
 20 23  1  0
 23 24  1  0
 24 25  2  0
 24 26  1  1
 24 27  1  0
 28 29  1  6
 28 30  1  0
 30 31  1  6
M  END
