
     RDKit          3D

 30 32  0  0  0  0  0  0  0  0999 V2000
    0.9510    2.9310   -0.1050 C   0  0  0  0  0  0  0  0  0  0  0  0
    1.2630    1.4780    0.0870 C   0  0  1  0  0  0  0  0  0  0  0  0
    0.3090    0.7700    0.8140 O   0  0  0  0  0  0  0  0  0  0  0  0
   -1.0140    0.6030    0.4920 C   0  0  0  0  0  0  0  0  0  0  0  0
   -1.4190    1.1420   -0.5690 O   0  0  0  0  0  0  0  0  0  0  0  0
   -1.9790   -0.1690    1.3180 C   0  0  0  0  0  0  0  0  0  0  0  0
   -3.2900   -0.1930    0.7680 N   0  0  0  0  0  0  0  0  0  0  0  0
   -4.3190    0.7450    1.0300 C   0  0  0  0  0  0  0  0  0  0  0  0
   -4.2520    1.7480    1.7830 O   0  0  0  0  0  0  0  0  0  0  0  0
   -5.4600    0.3170    0.2570 N   0  0  0  0  0  0  0  0  0  0  0  0
   -5.1650   -0.8160   -0.4440 N   0  0  0  0  0  0  0  0  0  0  0  0
   -3.8220   -1.1490   -0.1400 C   0  0  0  0  0  0  0  0  0  0  0  0
   -3.2580   -2.1650   -0.6470 N   0  0  0  0  0  0  0  0  0  0  0  0
   -3.7740   -3.1040   -1.5370 C   0  0  0  0  0  0  0  0  0  0  0  0
   -2.9880   -4.0460   -1.9000 O   0  0  0  0  0  0  0  0  0  0  0  0
   -5.0520   -3.1320   -2.0760 O   0  0  0  0  0  0  0  0  0  0  0  0
   -6.1160   -1.8280   -1.5630 P   0  0  0  0  0  0  0  0  0  0  0  0
   -6.5000   -0.8880   -2.9650 O   0  0  0  0  0  0  0  0  0  0  0  0
    1.5610    0.8940   -1.2390 C   0  0  0  0  0  0  0  0  0  0  0  0
    0.8220    0.2790   -2.0480 O   0  0  0  0  0  0  0  0  0  0  0  0
    2.9370    1.1570   -1.4870 N   0  0  0  0  0  0  0  0  0  0  0  0
    3.5670    1.7010   -0.2890 C   0  0  0  0  0  0  0  0  0  0  0  0
    2.6020    1.2760    0.7980 C   0  0  1  0  0  0  0  0  0  0  0  0
    2.7060    2.0220    1.9440 O   0  0  0  0  0  0  0  0  0  0  0  0
    2.7230   -0.0870    0.9910 O   0  0  0  0  0  0  0  0  0  0  0  0
    4.1630   -0.5600    1.7790 P   0  0  0  0  0  0  0  0  0  0  0  0
    3.7990   -1.9890    2.7310 O   0  0  0  0  0  0  0  0  0  0  0  0
    5.6270   -1.1760    0.2430 P   0  0  0  0  0  0  0  0  0  0  0  0
    4.8540   -1.3400   -1.3140 O   0  0  0  0  0  0  0  0  0  0  0  0
    6.3280   -2.7090    0.6330 O   0  0  0  0  0  0  0  0  0  0  0  0
  2  1  1  6
  2  3  1  0
  2 19  1  0
  2 23  1  0
  3  4  1  0
  4  5  2  0
  4  6  1  0
  6  7  1  0
  7  8  1  0
  7 12  1  0
  8  9  2  0
  8 10  1  0
 10 11  1  0
 11 12  1  0
 11 17  1  0
 12 13  2  0
 13 14  1  0
 14 15  2  0
 14 16  1  0
 16 17  1  0
 17 18  1  0
 19 20  2  0
 19 21  1  0
 21 22  1  0
 22 23  1  0
 23 24  1  1
 23 25  1  0
 25 26  1  0
 26 27  1  0
 26 28  1  0
 28 29  1  0
 28 30  1  0
M  END
