
     RDKit          3D

 30 31  0  0  0  0  0  0  0  0999 V2000
   -6.2850   -2.1880   -0.7000 O   0  0  0  0  0  0  0  0  0  0  0  0
   -5.1270   -2.1570   -1.6940 P   0  0  0  0  0  0  0  0  0  0  0  0
   -3.5810   -1.4840   -1.4230 O   0  0  0  0  0  0  0  0  0  0  0  0
   -3.2430   -1.3720   -0.0500 C   0  0  1  0  0  0  0  0  0  0  0  0
   -4.2230   -0.5150    0.5870 N   0  0  0  0  0  0  0  0  0  0  0  0
   -4.2880    0.8320    0.1620 C   0  0  0  0  0  0  0  0  0  0  0  0
   -3.4940    1.2450   -0.7540 O   0  0  0  0  0  0  0  0  0  0  0  0
   -5.1770    1.7870    0.6800 N   0  0  0  0  0  0  0  0  0  0  0  0
   -5.2300    3.4930    0.1360 P   0  0  0  0  0  0  0  0  0  0  0  0
   -5.1270    4.5270    1.5390 O   0  0  0  0  0  0  0  0  0  0  0  0
   -3.9370    3.8360   -0.9710 O   0  0  0  0  0  0  0  0  0  0  0  0
   -3.2020   -2.7610    0.4810 C   0  0  0  0  0  0  0  0  0  0  0  0
   -2.5090   -2.9550    1.6320 O   0  0  0  0  0  0  0  0  0  0  0  0
   -1.3660   -2.2300    1.8240 C   0  0  0  0  0  0  0  0  0  0  0  0
   -1.0600   -1.1870    0.8140 C   0  0  1  0  0  0  0  0  0  0  0  0
    0.1870   -1.5300    0.0240 C   0  0  0  0  0  0  0  0  0  0  0  0
    1.0440   -0.6560   -0.1960 N   0  0  0  0  0  0  0  0  0  0  0  0
    2.2560   -0.7980   -0.9150 C   0  0  1  0  0  0  0  0  0  0  0  0
    3.3630   -0.2950   -0.2170 O   0  0  0  0  0  0  0  0  0  0  0  0
    3.9700    0.7740   -0.9000 C   0  0  0  0  0  0  0  0  0  0  0  0
    5.1160    1.2290   -0.0440 C   0  0  0  0  0  0  0  0  0  0  0  0
    5.8140    2.2980   -0.5990 O   0  0  0  0  0  0  0  0  0  0  0  0
    7.1160    2.8320    0.3640 P   0  0  0  0  0  0  0  0  0  0  0  0
    8.6340    2.1650   -0.1210 O   0  0  0  0  0  0  0  0  0  0  0  0
    7.1880    4.5310    0.5940 O   0  0  0  0  0  0  0  0  0  0  0  0
    2.4550   -2.1560   -1.4260 C   0  0  0  0  0  0  0  0  0  0  0  0
    3.5050   -2.4190   -2.0880 O   0  0  0  0  0  0  0  0  0  0  0  0
    1.5170   -3.1760   -1.2070 N   0  0  0  0  0  0  0  0  0  0  0  0
    0.3710   -2.8480   -0.4700 N   0  0  0  0  0  0  0  0  0  0  0  0
   -2.0470   -0.7600    0.0010 O   0  0  0  0  0  0  0  0  0  0  0  0
  1  2  2  0
  2  3  1  0
  3  4  1  0
  4  5  1  1
  4 12  1  0
  4 30  1  0
  5  6  1  0
  6  7  2  0
  6  8  1  0
  8  9  1  0
  9 10  1  0
  9 11  1  0
 12 13  1  0
 13 14  1  0
 14 15  1  0
 15 16  1  6
 15 30  1  0
 16 17  2  0
 16 29  1  0
 17 18  1  0
 18 19  1  1
 18 26  1  0
 19 20  1  0
 20 21  1  0
 21 22  1  0
 22 23  1  0
 23 24  1  0
 23 25  1  0
 26 27  2  0
 26 28  1  0
 28 29  1  0
M  END
