
     RDKit          3D

 30 31  0  0  0  0  0  0  0  0999 V2000
    4.8960    1.3540    0.4200 N   0  0  0  0  0  0  0  0  0  0  0  0
    5.6070    0.2990    0.5810 C   0  0  0  0  0  0  0  0  0  0  0  0
    4.9710   -0.8890    1.0240 N   0  0  0  0  0  0  0  0  0  0  0  0
    3.6080   -1.0260    0.8970 O   0  0  0  0  0  0  0  0  0  0  0  0
    2.9760   -0.8870   -0.3540 C   0  0  0  0  0  0  0  0  0  0  0  0
    3.7440   -0.6330   -1.3200 O   0  0  0  0  0  0  0  0  0  0  0  0
    1.5170   -1.0300   -0.5120 C   0  0  1  0  0  0  0  0  0  0  0  0
    1.0380   -2.4110   -0.0830 C   0  0  0  0  0  0  0  0  0  0  0  0
   -0.2860   -2.3170    0.3060 O   0  0  0  0  0  0  0  0  0  0  0  0
   -0.3010   -1.6750    1.5520 C   0  0  0  0  0  0  0  0  0  0  0  0
    0.5970   -0.6170    1.5940 O   0  0  0  0  0  0  0  0  0  0  0  0
    0.7370   -0.0300    0.3170 C   0  0  2  0  0  0  0  0  0  0  0  0
   -0.6410    0.1110   -0.2210 C   0  0  0  0  0  0  0  0  0  0  0  0
   -1.1000   -0.1850   -1.4580 N   0  0  0  0  0  0  0  0  0  0  0  0
   -2.3760    0.0830   -1.5340 O   0  0  0  0  0  0  0  0  0  0  0  0
   -2.7900    0.5470   -0.3960 C   0  0  0  0  0  0  0  0  0  0  0  0
   -4.1650    0.9670   -0.0710 C   0  0  1  0  0  0  0  0  0  0  0  0
   -4.6260    2.1080   -0.9570 C   0  0  0  0  0  0  0  0  0  0  0  0
   -4.6110    1.7500   -2.3030 O   0  0  0  0  0  0  0  0  0  0  0  0
   -5.0210    2.7920   -2.9900 O   0  0  0  0  0  0  0  0  0  0  0  0
   -5.3320   -0.4830   -0.2260 P   0  0  0  0  0  0  0  0  0  0  0  0
   -4.4870   -1.8750    0.4080 O   0  0  0  0  0  0  0  0  0  0  0  0
   -7.0450   -0.0920    1.1020 P   0  0  0  0  0  0  0  0  0  0  0  0
   -8.2130    0.9330    0.3570 O   0  0  0  0  0  0  0  0  0  0  0  0
   -7.7650   -1.6070    1.5460 O   0  0  0  0  0  0  0  0  0  0  0  0
   -1.7380    0.5750    0.4340 N   0  0  0  0  0  0  0  0  0  0  0  0
    7.0220    0.3070    0.3200 N   0  0  0  0  0  0  0  0  0  0  0  0
    7.7520    1.6640   -0.6090 P   0  0  0  0  0  0  0  0  0  0  0  0
    8.4530    1.0250   -2.0620 O   0  0  0  0  0  0  0  0  0  0  0  0
    8.9680    2.4020    0.3800 O   0  0  0  0  0  0  0  0  0  0  0  0
  1  2  2  0
  2  3  1  0
  2 27  1  0
  3  4  1  0
  4  5  1  0
  5  6  2  0
  7  5  1  1
  7  8  1  0
  7 12  1  0
  8  9  1  0
  9 10  1  0
 10 11  1  0
 11 12  1  0
 12 13  1  6
 13 14  2  0
 13 26  1  0
 14 15  1  0
 15 16  1  0
 16 17  1  0
 16 26  2  0
 17 18  1  6
 17 21  1  0
 18 19  1  0
 19 20  1  0
 21 22  1  0
 21 23  1  0
 23 24  1  0
 23 25  1  0
 27 28  1  0
 28 29  1  0
 28 30  1  0
M  END
