
     RDKit          3D

 29 30  0  0  0  0  0  0  0  0999 V2000
   -4.6090    1.0420   -0.6650 C   0  0  0  0  0  0  0  0  0  0  0  0
   -3.7010    0.0470   -0.9930 O   0  0  0  0  0  0  0  0  0  0  0  0
   -2.8300   -0.5930   -0.0790 C   0  0  0  0  0  0  0  0  0  0  0  0
   -3.0000   -1.8590    0.2760 C   0  0  0  0  0  0  0  0  0  0  0  0
   -4.2100   -2.4900   -0.4030 C   0  0  0  0  0  0  0  0  0  0  0  0
   -4.8680   -1.6190   -1.2310 O   0  0  0  0  0  0  0  0  0  0  0  0
   -2.2500   -2.6650    1.1960 C   0  0  0  0  0  0  0  0  0  0  0  0
   -1.0220   -3.2160    1.1070 C   0  0  0  0  0  0  0  0  0  0  0  0
   -0.6010   -4.0150    2.3310 C   0  0  0  0  0  0  0  0  0  0  0  0
   -0.1330   -3.1950   -0.0180 C   0  0  0  0  0  0  0  0  0  0  0  0
    0.7860   -2.3180   -0.4410 C   0  0  0  0  0  0  0  0  0  0  0  0
    1.5340   -2.6160   -1.6840 C   0  0  0  0  0  0  0  0  0  0  0  0
    2.4370   -1.8780   -2.2210 C   0  0  0  0  0  0  0  0  0  0  0  0
    3.0150   -0.5900   -1.8500 C   0  0  0  0  0  0  0  0  0  0  0  0
    2.7620    0.3200   -2.9280 O   0  0  0  0  0  0  0  0  0  0  0  0
    3.2560    1.6470   -2.7910 C   0  0  0  0  0  0  0  0  0  0  0  0
    4.4620    2.0870   -2.8500 C   0  0  0  0  0  0  0  0  0  0  0  0
    4.2050    3.4780   -2.6290 C   0  0  0  0  0  0  0  0  0  0  0  0
    2.4290    3.1880   -2.4920 P   0  0  0  0  0  0  0  0  0  0  0  0
    1.1010   -1.1380    0.2110 O   0  0  0  0  0  0  0  0  0  0  0  0
    1.4120   -1.0510    1.6110 C   0  0  0  0  0  0  0  0  0  0  0  0
    1.9590    0.2920    1.9960 C   0  0  0  0  0  0  0  0  0  0  0  0
    0.9000    1.2330    2.3060 N   0  0  0  0  0  0  0  0  0  0  0  0
    1.0350    1.8280    3.6130 C   0  0  0  0  0  0  0  0  0  0  0  0
    0.8380    2.2840    1.3050 C   0  0  0  0  0  0  0  0  0  0  0  0
   -0.4320    3.0580    1.3730 C   0  0  0  0  0  0  0  0  0  0  0  0
   -1.4390    2.6060    0.3210 C   0  0  0  0  0  0  0  0  0  0  0  0
   -2.2190    1.5660    0.7520 O   0  0  0  0  0  0  0  0  0  0  0  0
   -1.7510    0.2990    0.4130 C   0  0  0  0  0  0  0  0  0  0  0  0
  1  2  1  0
  2  3  1  0
  3  4  2  0
  3 29  1  0
  4  5  1  0
  4  7  1  0
  5  6  1  0
  7  8  2  0
  8  9  1  0
  8 10  1  0
 10 11  2  0
 11 12  1  0
 11 20  1  0
 12 13  2  3
 13 14  1  0
 14 15  1  0
 15 16  1  0
 16 17  2  0
 16 19  1  0
 17 18  1  0
 18 19  1  0
 20 21  1  0
 21 22  1  0
 22 23  1  0
 23 24  1  0
 23 25  1  0
 25 26  1  0
 26 27  1  0
 27 28  1  0
 28 29  1  0
M  END
