
     RDKit          3D

 29 31  0  0  0  0  0  0  0  0999 V2000
   -5.9600    0.1270    2.2880 C   0  0  0  0  0  0  0  0  0  0  0  0
   -5.0030    0.9130    1.6350 O   0  0  0  0  0  0  0  0  0  0  0  0
   -3.7330    0.4880    1.8540 C   0  0  0  0  0  0  0  0  0  0  0  0
   -2.5940    1.1530    1.2690 C   0  0  0  0  0  0  0  0  0  0  0  0
   -2.3150    1.3510   -0.1610 C   0  0  2  0  0  0  0  0  0  0  0  0
   -3.3010    2.1150   -0.9710 C   0  0  0  0  0  0  0  0  0  0  0  0
   -4.9900    1.4960   -1.1460 P   0  0  0  0  0  0  0  0  0  0  0  0
   -6.1920    2.4630   -1.1090 O   0  0  0  0  0  0  0  0  0  0  0  0
   -1.6530    0.2060   -0.8240 C   0  0  1  0  0  0  0  0  0  0  0  0
   -2.3140   -1.1070   -0.9240 C   0  0  0  0  0  0  0  0  0  0  0  0
   -2.9920   -1.1690   -2.2740 C   0  0  0  0  0  0  0  0  0  0  0  0
   -2.6410   -0.4820   -3.3250 C   0  0  0  0  0  0  0  0  0  0  0  0
   -1.5090    0.4300   -3.2280 C   0  0  0  0  0  0  0  0  0  0  0  0
   -1.1220    1.1260   -4.2250 O   0  0  0  0  0  0  0  0  0  0  0  0
   -0.8330    0.5250   -1.9660 N   0  0  0  0  0  0  0  0  0  0  0  0
    0.5140    0.8950   -1.9560 C   0  0  0  0  0  0  0  0  0  0  0  0
    1.1240    1.1640   -3.0170 O   0  0  0  0  0  0  0  0  0  0  0  0
    1.3160    0.9960   -0.7150 C   0  0  0  0  0  0  0  0  0  0  0  0
    2.7770    1.2860   -0.9600 C   0  0  0  0  0  0  0  0  0  0  0  0
    3.4550    0.2180   -1.7760 C   0  0  0  0  0  0  0  0  0  0  0  0
    3.3770   -1.1360   -1.1150 C   0  0  0  0  0  0  0  0  0  0  0  0
    4.0300   -1.1740    0.2120 C   0  0  0  0  0  0  0  0  0  0  0  0
    3.3970   -1.3900    1.3470 C   0  0  0  0  0  0  0  0  0  0  0  0
    2.1320   -1.6430    1.9070 O   0  0  0  0  0  0  0  0  0  0  0  0
    2.2110   -1.7720    3.2920 C   0  0  0  0  0  0  0  0  0  0  0  0
    3.6660   -1.5830    3.5880 C   0  0  0  0  0  0  0  0  0  0  0  0
    4.3090   -1.3660    2.4530 C   0  0  0  0  0  0  0  0  0  0  0  0
    5.6570   -1.1070    1.9390 C   0  0  0  0  0  0  0  0  0  0  0  0
    5.4820   -0.9930    0.4440 C   0  0  0  0  0  0  0  0  0  0  0  0
  1  2  1  0
  2  3  1  0
  3  4  1  0
  5  4  1  1
  5  6  1  0
  5  9  1  0
  6  7  1  0
  7  8  2  0
  9 10  1  6
  9 15  1  0
 10 11  1  0
 11 12  2  0
 12 13  1  0
 13 14  2  0
 13 15  1  0
 15 16  1  0
 16 17  2  0
 16 18  1  0
 18 19  1  0
 19 20  1  0
 20 21  1  0
 21 22  1  0
 22 23  2  0
 22 29  1  0
 23 24  1  0
 23 27  1  0
 24 25  1  0
 25 26  1  0
 26 27  2  0
 27 28  1  0
 28 29  1  0
M  END
