
     RDKit          3D

 29 30  0  0  0  0  0  0  0  0999 V2000
   -5.8160   -1.0440   -1.5910 C   0  0  0  0  0  0  0  0  0  0  0  0
   -4.7690   -2.1230   -1.8290 C   0  0  0  0  0  0  0  0  0  0  0  0
   -3.4310   -1.6030   -1.4920 C   0  0  0  0  0  0  0  0  0  0  0  0
   -2.7130   -2.1770   -0.5600 C   0  0  0  0  0  0  0  0  0  0  0  0
   -1.3800   -1.7450   -0.1460 C   0  0  0  0  0  0  0  0  0  0  0  0
   -0.5850   -2.4960    0.7110 C   0  0  0  0  0  0  0  0  0  0  0  0
   -1.0670   -4.0920    1.4810 P   0  0  0  0  0  0  0  0  0  0  0  0
   -2.7450   -3.9910    2.2690 C   0  0  0  0  0  0  0  0  0  0  0  0
    0.0980   -4.6000    2.7210 N   0  0  0  0  0  0  0  0  0  0  0  0
    0.5380   -1.8900    0.8730 O   0  0  0  0  0  0  0  0  0  0  0  0
    0.5800   -0.7500    0.1790 C   0  0  0  0  0  0  0  0  0  0  0  0
    1.7460    0.1280    0.1840 C   0  0  0  0  0  0  0  0  0  0  0  0
    2.7900   -0.1690    0.9150 C   0  0  0  0  0  0  0  0  0  0  0  0
    3.9860    0.7220    0.9280 C   0  0  2  0  0  0  0  0  0  0  0  0
    4.0700    1.4440   -0.2600 O   0  0  0  0  0  0  0  0  0  0  0  0
    5.2980    1.8720   -0.7350 C   0  0  0  0  0  0  0  0  0  0  0  0
    5.5140    3.1340   -1.4880 C   0  0  0  0  0  0  0  0  0  0  0  0
    6.3370    1.0620   -0.4760 C   0  0  0  0  0  0  0  0  0  0  0  0
    6.0230   -0.1740    0.2800 C   0  0  1  0  0  0  0  0  0  0  0  0
    7.5900   -0.8340    1.0770 P   0  0  0  0  0  0  0  0  0  0  0  0
    5.1220    0.0500    1.3060 O   0  0  0  0  0  0  0  0  0  0  0  0
   -0.6320   -0.6360   -0.4740 C   0  0  0  0  0  0  0  0  0  0  0  0
   -1.0540    0.3840   -1.2950 O   0  0  0  0  0  0  0  0  0  0  0  0
   -1.6460    1.6060   -0.8420 C   0  0  2  0  0  0  0  0  0  0  0  0
   -1.9750    2.3100   -2.2170 C   0  0  0  0  0  0  0  0  0  0  0  0
   -0.6570    2.5380   -0.2260 C   0  0  0  0  0  0  0  0  0  0  0  0
   -2.9200    1.4930   -0.1470 C   0  0  0  0  0  0  0  0  0  0  0  0
   -3.5030    2.5600    0.4250 O   0  0  0  0  0  0  0  0  0  0  0  0
   -3.0790    3.2040    1.5040 C   0  0  0  0  0  0  0  0  0  0  0  0
  1  2  1  0
  2  3  1  0
  3  4  2  3
  4  5  1  0
  5  6  2  0
  5 22  1  0
  6  7  1  0
  6 10  1  0
  7  8  1  0
  7  9  1  0
 10 11  1  0
 11 12  1  0
 11 22  2  0
 12 13  2  3
 14 13  1  6
 14 15  1  0
 14 21  1  0
 15 16  1  0
 16 17  1  0
 16 18  2  0
 18 19  1  0
 19 20  1  1
 19 21  1  0
 22 23  1  0
 23 24  1  0
 24 25  1  6
 24 26  1  0
 24 27  1  0
 27 28  1  0
 28 29  1  0
M  END
