
     RDKit          3D

 28 29  0  0  0  0  0  0  0  0999 V2000
   -6.9160   -3.2100    2.6180 C   0  0  0  0  0  0  0  0  0  0  0  0
   -6.0920   -2.1480    2.3130 C   0  0  0  0  0  0  0  0  0  0  0  0
   -6.5150   -0.8850    2.9220 C   0  0  0  0  0  0  0  0  0  0  0  0
   -5.0000   -2.4830    1.4780 C   0  0  0  0  0  0  0  0  0  0  0  0
   -3.9880   -1.8610    0.9320 C   0  0  0  0  0  0  0  0  0  0  0  0
   -3.6550   -0.4560    1.0440 C   0  0  0  0  0  0  0  0  0  0  0  0
   -4.3550    0.3130    1.7130 O   0  0  0  0  0  0  0  0  0  0  0  0
   -2.4620    0.0850    0.3550 C   0  0  0  0  0  0  0  0  0  0  0  0
   -1.6590   -0.6510   -0.3760 C   0  0  0  0  0  0  0  0  0  0  0  0
   -0.5220   -0.1030   -1.0250 N   0  0  0  0  0  0  0  0  0  0  0  0
    0.7570   -0.5870   -0.6920 C   0  0  0  0  0  0  0  0  0  0  0  0
    0.9220   -1.4910    0.1690 O   0  0  0  0  0  0  0  0  0  0  0  0
    1.9780   -0.0510   -1.3420 C   0  0  0  0  0  0  0  0  0  0  0  0
    1.8890    0.8360   -2.2150 O   0  0  0  0  0  0  0  0  0  0  0  0
    3.2520   -0.5390   -0.9780 N   0  0  0  0  0  0  0  0  0  0  0  0
    4.5080   -0.1150   -1.4800 C   0  0  0  0  0  0  0  0  0  0  0  0
    4.9160    1.2430   -1.0950 C   0  0  0  0  0  0  0  0  0  0  0  0
    4.1050    2.4240   -1.4180 C   0  0  0  0  0  0  0  0  0  0  0  0
    4.8600    3.7070   -0.9470 C   0  0  2  0  0  0  0  0  0  0  0  0
    5.1010    3.6910    0.5260 C   0  0  0  0  0  0  0  0  0  0  0  0
    4.5970    5.0540    0.9550 C   0  0  0  0  0  0  0  0  0  0  0  0
    4.4700    5.8060   -0.3490 C   0  0  0  0  0  0  0  0  0  0  0  0
    4.0590    4.7960   -1.2280 O   0  0  0  0  0  0  0  0  0  0  0  0
   -1.9980   -2.0610   -0.4850 C   0  0  0  0  0  0  0  0  0  0  0  0
   -3.0280   -2.6300    0.0840 C   0  0  0  0  0  0  0  0  0  0  0  0
   -3.2560   -4.0850   -0.1190 C   0  0  0  0  0  0  0  0  0  0  0  0
   -1.9760   -4.7870   -1.1900 S   0  0  0  0  0  0  0  0  0  0  0  0
   -2.0550   -4.1610   -2.8800 C   0  0  0  0  0  0  0  0  0  0  0  0
  1  2  2  0
  2  3  1  0
  2  4  1  0
  4  5  2  3
  5  6  1  0
  5 25  1  0
  6  7  2  0
  6  8  1  0
  8  9  2  0
  9 10  1  0
  9 24  1  0
 10 11  1  0
 11 12  2  0
 11 13  1  0
 13 14  2  0
 13 15  1  0
 15 16  1  0
 16 17  1  0
 17 18  1  0
 19 18  1  1
 19 20  1  0
 19 23  1  0
 20 21  1  0
 21 22  1  0
 22 23  1  0
 24 25  2  0
 25 26  1  0
 26 27  1  0
 27 28  1  0
M  END
