
     RDKit          3D

 27 28  0  0  0  0  0  0  0  0999 V2000
    6.7650    3.1800    2.4530 C   0  0  0  0  0  0  0  0  0  0  0  0
    6.5270    1.7830    2.4650 O   0  0  0  0  0  0  0  0  0  0  0  0
    5.3530    1.2140    2.0360 C   0  0  0  0  0  0  0  0  0  0  0  0
    4.4390    1.9620    1.6100 O   0  0  0  0  0  0  0  0  0  0  0  0
    5.0790   -0.2540    2.0390 C   0  0  1  0  0  0  0  0  0  0  0  0
    3.7540   -0.5720    1.5150 C   0  0  0  0  0  0  0  0  0  0  0  0
    3.3960   -1.3360    0.5220 C   0  0  0  0  0  0  0  0  0  0  0  0
    1.9870   -1.4700    0.2200 N   0  0  0  0  0  0  0  0  0  0  0  0
    1.5130   -1.0600   -1.0900 C   0  0  0  0  0  0  0  0  0  0  0  0
    2.3740   -0.6140   -1.8600 O   0  0  0  0  0  0  0  0  0  0  0  0
    0.1320   -1.1730   -1.4530 C   0  0  0  0  0  0  0  0  0  0  0  0
   -0.3790   -0.8330   -2.5900 C   0  0  0  0  0  0  0  0  0  0  0  0
    0.3160   -0.2660   -3.7430 C   0  0  0  0  0  0  0  0  0  0  0  0
    0.1400   -1.1480   -4.8450 O   0  0  0  0  0  0  0  0  0  0  0  0
   -1.8070   -1.0320   -2.7920 N   0  0  0  0  0  0  0  0  0  0  0  0
   -2.7900   -0.0430   -2.4760 C   0  0  0  0  0  0  0  0  0  0  0  0
   -2.9490    0.1580   -0.9550 C   0  0  2  0  0  0  0  0  0  0  0  0
   -3.3880   -1.0990   -0.2980 C   0  0  0  0  0  0  0  0  0  0  0  0
   -3.0070   -1.1680    1.1330 C   0  0  0  0  0  0  0  0  0  0  0  0
   -2.8020    0.1240    1.8440 C   0  0  0  0  0  0  0  0  0  0  0  0
   -4.0480    0.6700    2.5140 C   0  0  0  0  0  0  0  0  0  0  0  0
   -4.6190    1.7580    1.6080 C   0  0  0  0  0  0  0  0  0  0  0  0
   -4.9660    1.1250    0.2540 C   0  0  0  0  0  0  0  0  0  0  0  0
   -3.8910    1.2870   -0.7510 C   0  0  0  0  0  0  0  0  0  0  0  0
    4.3210   -2.0890   -0.3240 C   0  0  0  0  0  0  0  0  0  0  0  0
    5.6160   -2.0650   -0.1590 C   0  0  0  0  0  0  0  0  0  0  0  0
    6.3560   -1.1100    1.1120 S   0  0  0  0  0  0  0  0  0  0  0  0
  1  2  1  0
  2  3  1  0
  3  4  2  0
  5  3  1  6
  5  6  1  0
  5 27  1  0
  6  7  2  0
  7  8  1  0
  7 25  1  0
  8  9  1  0
  9 10  2  0
  9 11  1  0
 11 12  2  3
 12 13  1  0
 12 15  1  0
 13 14  1  0
 15 16  1  0
 17 16  1  6
 17 18  1  0
 17 24  1  0
 18 19  1  0
 19 20  1  0
 20 21  1  0
 21 22  1  0
 22 23  1  0
 23 24  1  0
 25 26  2  0
 26 27  1  0
M  END
