
     RDKit          3D

 28 29  0  0  0  0  0  0  0  0999 V2000
    8.2260    0.2850    2.6730 C   0  0  0  0  0  0  0  0  0  0  0  0
    6.8140    0.7570    2.3130 C   0  0  0  0  0  0  0  0  0  0  0  0
    6.6050    0.6580    0.8170 C   0  0  2  0  0  0  0  0  0  0  0  0
    7.6270    1.5340    0.1320 C   0  0  0  0  0  0  0  0  0  0  0  0
    5.2480    1.0530    0.5440 N   0  0  0  0  0  0  0  0  0  0  0  0
    4.2960    0.1890   -0.0670 C   0  0  0  0  0  0  0  0  0  0  0  0
    4.6300   -0.9600   -0.3880 O   0  0  0  0  0  0  0  0  0  0  0  0
    3.0000    0.5950   -0.3170 O   0  0  0  0  0  0  0  0  0  0  0  0
    2.0750   -0.2500   -0.9130 C   0  0  0  0  0  0  0  0  0  0  0  0
    1.2870   -1.0590   -0.2290 C   0  0  0  0  0  0  0  0  0  0  0  0
    0.3410   -1.9110   -1.0020 C   0  0  1  0  0  0  0  0  0  0  0  0
   -0.5560   -2.6510   -0.0710 C   0  0  0  0  0  0  0  0  0  0  0  0
   -1.5150   -3.4390   -0.6310 O   0  0  0  0  0  0  0  0  0  0  0  0
   -2.4420   -2.8540   -1.4330 C   0  0  0  0  0  0  0  0  0  0  0  0
   -3.2250   -1.8380   -0.7290 C   0  0  0  0  0  0  0  0  0  0  0  0
   -3.5460   -1.6370    0.5650 C   0  0  0  0  0  0  0  0  0  0  0  0
   -4.3020   -0.5710    0.8910 C   0  0  0  0  0  0  0  0  0  0  0  0
   -4.7030   -0.2820    2.3370 C   0  0  0  0  0  0  0  0  0  0  0  0
   -4.2090   -1.2120    3.2100 O   0  0  0  0  0  0  0  0  0  0  0  0
   -4.7180    0.2640   -0.0820 C   0  0  0  0  0  0  0  0  0  0  0  0
   -5.5300    1.4960   -0.1330 C   0  0  2  0  0  0  0  0  0  0  0  0
   -6.9300    1.2780    0.3980 C   0  0  0  0  0  0  0  0  0  0  0  0
   -5.6580    1.9820   -1.5490 C   0  0  0  0  0  0  0  0  0  0  0  0
   -4.7910    2.5530    0.6540 C   0  0  0  0  0  0  0  0  0  0  0  0
   -4.0000   -0.4970   -1.5450 S   0  0  0  0  0  0  0  0  0  0  0  0
   -0.3740   -0.9920   -1.8670 N   0  0  0  0  0  0  0  0  0  0  0  0
    0.4870   -0.3190   -2.7840 C   0  0  0  0  0  0  0  0  0  0  0  0
    1.9340   -0.2760   -2.3920 C   0  0  0  0  0  0  0  0  0  0  0  0
  1  2  1  0
  2  3  1  0
  3  4  1  6
  3  5  1  0
  5  6  1  0
  6  7  2  0
  6  8  1  0
  8  9  1  0
  9 10  2  0
  9 28  1  0
 10 11  1  0
 11 12  1  1
 11 26  1  0
 12 13  1  0
 13 14  1  0
 14 15  1  0
 15 16  2  0
 15 25  1  0
 16 17  1  0
 17 18  1  0
 17 20  2  0
 18 19  1  0
 20 21  1  0
 20 25  1  0
 21 22  1  1
 21 23  1  0
 21 24  1  0
 26 27  1  0
 27 28  1  0
M  END
