
     RDKit          3D

 28 29  0  0  0  0  0  0  0  0999 V2000
   -5.3200    4.7570    1.2310 C   0  0  0  0  0  0  0  0  0  0  0  0
   -6.1190    3.1240    1.1180 S   0  0  0  0  0  0  0  0  0  0  0  0
   -4.8930    1.8630    0.6610 C   0  0  0  0  0  0  0  0  0  0  0  0
   -4.3650    2.0740   -0.7380 C   0  0  0  0  0  0  0  0  0  0  0  0
   -3.3730    1.0470   -1.0020 N   0  0  0  0  0  0  0  0  0  0  0  0
   -2.0050    1.2450   -0.6770 C   0  0  0  0  0  0  0  0  0  0  0  0
   -1.4470    2.1900   -0.1100 O   0  0  0  0  0  0  0  0  0  0  0  0
   -1.2680    0.0100   -1.1750 C   0  0  1  0  0  0  0  0  0  0  0  0
   -0.0970   -0.0880   -0.4710 N   0  0  0  0  0  0  0  0  0  0  0  0
    0.7230   -1.1850   -0.3200 C   0  0  0  0  0  0  0  0  0  0  0  0
    1.9640   -0.7320    0.4250 C   0  0  0  0  0  0  0  0  0  0  0  0
    1.8760   -0.5490    1.7760 C   0  0  0  0  0  0  0  0  0  0  0  0
    2.9840   -0.1020    2.5140 C   0  0  0  0  0  0  0  0  0  0  0  0
    2.8970    0.0840    3.8780 O   0  0  0  0  0  0  0  0  0  0  0  0
    4.1420    0.1350    1.7990 C   0  0  0  0  0  0  0  0  0  0  0  0
    4.2000   -0.0580    0.4410 C   0  0  0  0  0  0  0  0  0  0  0  0
    5.4920    0.2320   -0.2430 C   0  0  2  0  0  0  0  0  0  0  0  0
    5.4270   -0.1010   -1.7110 C   0  0  0  0  0  0  0  0  0  0  0  0
    6.5790   -0.5210    0.4480 C   0  0  0  0  0  0  0  0  0  0  0  0
    5.7280    1.7290   -0.0970 C   0  0  0  0  0  0  0  0  0  0  0  0
    3.1000   -0.5010   -0.2850 C   0  0  0  0  0  0  0  0  0  0  0  0
   -2.3250   -1.0320   -1.1490 C   0  0  1  0  0  0  0  0  0  0  0  0
   -2.6960   -1.6250    0.1490 C   0  0  0  0  0  0  0  0  0  0  0  0
   -3.7870   -2.6490   -0.0030 C   0  0  0  0  0  0  0  0  0  0  0  0
   -3.4760   -3.8360   -0.8350 C   0  0  0  0  0  0  0  0  0  0  0  0
   -3.1830   -3.6460   -2.1580 O   0  0  0  0  0  0  0  0  0  0  0  0
   -3.5380   -0.2320   -1.5980 C   0  0  0  0  0  0  0  0  0  0  0  0
   -4.4860   -0.6000   -2.3280 O   0  0  0  0  0  0  0  0  0  0  0  0
  1  2  1  0
  2  3  1  0
  3  4  1  0
  4  5  1  0
  5  6  1  0
  5 27  1  0
  6  7  2  0
  6  8  1  0
  8  9  1  1
  8 22  1  0
  9 10  1  0
 10 11  1  0
 11 12  2  0
 11 21  1  0
 12 13  1  0
 13 14  1  0
 13 15  2  0
 15 16  1  0
 16 17  1  0
 16 21  2  0
 17 18  1  6
 17 19  1  0
 17 20  1  0
 22 23  1  1
 22 27  1  0
 23 24  1  0
 24 25  1  0
 25 26  1  0
 27 28  2  0
M  END
