
     RDKit          3D

 28 29  0  0  0  0  0  0  0  0999 V2000
   -6.2420   -2.7240    2.3250 C   0  0  0  0  0  0  0  0  0  0  0  0
   -5.3730   -2.7560    1.0780 C   0  0  0  0  0  0  0  0  0  0  0  0
   -4.9120   -1.3510    0.8340 C   0  0  1  0  0  0  0  0  0  0  0  0
   -4.0970   -1.2890   -0.2720 O   0  0  0  0  0  0  0  0  0  0  0  0
   -2.8330   -0.7440   -0.3820 C   0  0  0  0  0  0  0  0  0  0  0  0
   -2.1650   -0.8000   -1.6090 C   0  0  0  0  0  0  0  0  0  0  0  0
   -0.9320   -0.2730   -1.7460 C   0  0  0  0  0  0  0  0  0  0  0  0
   -0.2980    0.3390   -0.6620 C   0  0  0  0  0  0  0  0  0  0  0  0
    0.9730    0.9040   -0.9070 N   0  0  0  0  0  0  0  0  0  0  0  0
    1.8820    1.1630    0.1310 C   0  0  0  0  0  0  0  0  0  0  0  0
    1.6490    0.9070    1.3200 O   0  0  0  0  0  0  0  0  0  0  0  0
    3.1970    1.7910   -0.1990 C   0  0  0  0  0  0  0  0  0  0  0  0
    3.7450    2.4090    1.0880 C   0  0  2  0  0  0  0  0  0  0  0  0
    2.9460    3.3640    1.6300 O   0  0  0  0  0  0  0  0  0  0  0  0
    5.1140    3.0030    0.7160 C   0  0  0  0  0  0  0  0  0  0  0  0
    5.9500    1.8100    0.2320 C   0  0  0  0  0  0  0  0  0  0  0  0
    6.5730    0.9080   -0.1430 C   0  0  0  0  0  0  0  0  0  0  0  0
    7.3590   -0.2420   -0.5970 C   0  0  0  0  0  0  0  0  0  0  0  0
    8.5920   -0.6620   -0.3730 C   0  0  0  0  0  0  0  0  0  0  0  0
    9.0560   -1.7740   -0.9670 C   0  0  0  0  0  0  0  0  0  0  0  0
    8.2090   -2.4420   -1.8040 C   0  0  0  0  0  0  0  0  0  0  0  0
    6.7030   -1.4300   -1.7200 S   0  0  0  0  0  0  0  0  0  0  0  0
   -0.9650    0.3820    0.5200 C   0  0  0  0  0  0  0  0  0  0  0  0
   -2.2460   -0.1520    0.7070 C   0  0  0  0  0  0  0  0  0  0  0  0
   -6.1400   -0.5090    0.6030 C   0  0  0  0  0  0  0  0  0  0  0  0
   -7.1350   -0.4860    1.2860 O   0  0  0  0  0  0  0  0  0  0  0  0
   -6.1320    0.3640   -0.5630 N   0  0  0  0  0  0  0  0  0  0  0  0
   -7.2920    1.1790   -0.8150 C   0  0  0  0  0  0  0  0  0  0  0  0
  1  2  1  0
  3  2  1  6
  3  4  1  0
  3 25  1  0
  4  5  1  0
  5  6  2  0
  5 24  1  0
  6  7  1  0
  7  8  2  0
  8  9  1  0
  8 23  1  0
  9 10  1  0
 10 11  2  0
 10 12  1  0
 12 13  1  0
 13 14  1  6
 13 15  1  0
 15 16  1  0
 16 17  3  0
 17 18  1  0
 18 19  2  0
 18 22  1  0
 19 20  1  0
 20 21  2  0
 21 22  1  0
 23 24  2  0
 25 26  2  0
 25 27  1  0
 27 28  1  0
M  END
