
     RDKit          3D

 28 29  0  0  0  0  0  0  0  0999 V2000
    4.4300    3.0860   -1.4910 C   0  0  0  0  0  0  0  0  0  0  0  0
    4.2010    1.5670   -1.4480 C   0  0  2  0  0  0  0  0  0  0  0  0
    3.3800    1.3200   -0.2880 N   0  0  0  0  0  0  0  0  0  0  0  0
    2.0490    0.8190   -0.3780 C   0  0  0  0  0  0  0  0  0  0  0  0
    1.6550    0.6070   -1.5770 O   0  0  0  0  0  0  0  0  0  0  0  0
    1.1890    0.5660    0.7800 C   0  0  2  0  0  0  0  0  0  0  0  0
    1.7530   -0.4050    1.7900 C   0  0  0  0  0  0  0  0  0  0  0  0
    2.0200   -1.7470    1.2810 C   0  0  0  0  0  0  0  0  0  0  0  0
    1.0600   -2.7340    1.3010 C   0  0  0  0  0  0  0  0  0  0  0  0
    1.3100   -4.0140    0.8220 C   0  0  0  0  0  0  0  0  0  0  0  0
    2.5470   -4.3380    0.3050 C   0  0  0  0  0  0  0  0  0  0  0  0
    3.5170   -3.3540    0.2810 C   0  0  0  0  0  0  0  0  0  0  0  0
    3.2530   -2.0690    0.7660 C   0  0  0  0  0  0  0  0  0  0  0  0
   -0.1490    0.1170    0.3510 N   0  0  0  0  0  0  0  0  0  0  0  0
   -1.3210    0.8370    0.6250 C   0  0  0  0  0  0  0  0  0  0  0  0
   -1.2170    1.9120    1.2660 O   0  0  0  0  0  0  0  0  0  0  0  0
   -2.6350    0.3220    0.1610 C   0  0  2  0  0  0  0  0  0  0  0  0
   -2.6620    0.1620   -1.6520 S   0  0  0  0  0  0  0  0  0  0  0  0
   -3.7510    1.3080    0.5160 C   0  0  0  0  0  0  0  0  0  0  0  0
   -5.0580    0.8010    0.0570 C   0  0  0  0  0  0  0  0  0  0  0  0
   -5.8400    0.0070    0.8840 C   0  0  0  0  0  0  0  0  0  0  0  0
   -7.0580   -0.4800    0.4870 C   0  0  0  0  0  0  0  0  0  0  0  0
   -7.5600   -0.1890   -0.7780 C   0  0  0  0  0  0  0  0  0  0  0  0
   -6.7900    0.6000   -1.6080 C   0  0  0  0  0  0  0  0  0  0  0  0
   -5.5600    1.0810   -1.1870 C   0  0  0  0  0  0  0  0  0  0  0  0
    5.5400    0.9630   -1.3070 C   0  0  0  0  0  0  0  0  0  0  0  0
    5.9090    0.3390   -0.3010 O   0  0  0  0  0  0  0  0  0  0  0  0
    6.4860    1.0750   -2.3410 O   0  0  0  0  0  0  0  0  0  0  0  0
  2  1  1  1
  2  3  1  0
  2 26  1  0
  3  4  1  0
  4  5  2  0
  4  6  1  0
  6  7  1  1
  6 14  1  0
  7  8  1  0
  8  9  2  0
  8 13  1  0
  9 10  1  0
 10 11  2  0
 11 12  1  0
 12 13  2  0
 14 15  1  0
 15 16  2  0
 15 17  1  0
 17 18  1  6
 17 19  1  0
 19 20  1  0
 20 21  2  0
 20 25  1  0
 21 22  1  0
 22 23  2  0
 23 24  1  0
 24 25  2  0
 26 27  2  0
 26 28  1  0
M  END
