
     RDKit          3D

 18 19  0  0  0  0  0  0  0  0999 V2000
   -3.6030    2.6320   -0.2290 C   0  0  0  0  0  0  0  0  0  0  0  0
   -2.4510    3.1280    0.0860 C   0  0  0  0  0  0  0  0  0  0  0  0
   -1.2950    2.3310    0.4010 C   0  0  0  0  0  0  0  0  0  0  0  0
   -0.1420    2.9330    0.7520 C   0  0  0  0  0  0  0  0  0  0  0  0
    1.1040    2.3090    1.1030 C   0  0  0  0  0  0  0  0  0  0  0  0
    1.9150    1.5560    0.4100 C   0  0  0  0  0  0  0  0  0  0  0  0
    1.8270    1.0880   -0.9780 C   0  0  0  0  0  0  0  0  0  0  0  0
    2.6440   -0.1770   -1.1410 C   0  0  0  0  0  0  0  0  0  0  0  0
    1.9220   -1.3850   -0.8590 N   0  0  0  0  0  0  0  0  0  0  0  0
    1.8150   -1.6480    0.5730 C   0  0  0  0  0  0  0  0  0  0  0  0
    0.8890   -2.8100    0.8620 C   0  0  0  0  0  0  0  0  0  0  0  0
   -0.4020   -2.3290    1.5290 C   0  0  0  0  0  0  0  0  0  0  0  0
   -0.9610   -1.1700    0.7780 C   0  0  0  0  0  0  0  0  0  0  0  0
   -0.8000    0.0860    1.1370 N   0  0  0  0  0  0  0  0  0  0  0  0
   -1.3590    0.9120    0.2820 N   0  0  0  0  0  0  0  0  0  0  0  0
   -1.9110    0.1340   -0.6790 C   0  0  0  0  0  0  0  0  0  0  0  0
   -1.6780   -1.1930   -0.3950 C   0  0  0  0  0  0  0  0  0  0  0  0
   -2.0930   -2.3240   -1.1550 N   0  0  0  0  0  0  0  0  0  0  0  0
  1  2  2  0
  2  3  1  0
  3  4  2  0
  3 15  1  0
  4  5  1  0
  5  6  2  0
  6  7  1  0
  7  8  1  0
  8  9  1  0
  9 10  1  0
 10 11  1  0
 11 12  1  0
 12 13  1  0
 13 14  2  0
 13 17  1  0
 14 15  1  0
 15 16  1  0
 16 17  2  0
 17 18  1  0
M  CHG  1   9   1
M  END
