
     RDKit          3D

 17 19  0  0  0  0  0  0  0  0999 V2000
   -2.4240    2.3250   -2.0660 C   0  0  0  0  0  0  0  0  0  0  0  0
   -1.2640    2.1430   -1.5850 N   0  0  0  0  0  0  0  0  0  0  0  0
   -0.9020    1.0660   -0.6520 C   0  0  0  0  0  0  0  0  0  0  0  0
    0.3210    0.9920   -0.2450 C   0  0  0  0  0  0  0  0  0  0  0  0
    1.1760    0.2200    0.5990 C   0  0  0  0  0  0  0  0  0  0  0  0
    2.2330   -0.4400   -0.3350 C   0  0  0  0  0  0  0  0  0  0  0  0
    3.1450   -1.2420    0.4140 N   0  0  0  0  0  0  0  0  0  0  0  0
    4.4310   -0.6490    0.6300 C   0  0  2  0  0  0  0  0  0  0  0  0
    4.7000    0.7840    0.4930 C   0  0  0  0  0  0  0  0  0  0  0  0
    5.2760   -0.2350   -0.5400 C   0  0  0  0  0  0  0  0  0  0  0  0
   -1.9800    0.1950   -0.3040 C   0  0  0  0  0  0  0  0  0  0  0  0
   -3.2350    0.3610   -0.8000 C   0  0  0  0  0  0  0  0  0  0  0  0
   -4.2600   -0.6010   -0.3650 C   0  0  0  0  0  0  0  0  0  0  0  0
   -4.2550   -0.6130    1.1580 C   0  0  0  0  0  0  0  0  0  0  0  0
   -2.8810   -0.8070    1.7010 C   0  0  0  0  0  0  0  0  0  0  0  0
   -1.8420   -0.9640    0.5900 C   0  0  0  0  0  0  0  0  0  0  0  0
   -3.4740    1.4240   -1.6850 N   0  0  0  0  0  0  0  0  0  0  0  0
  1  2  2  0
  1 17  1  0
  2  3  1  0
  3  4  2  3
  3 11  1  0
  4  5  1  0
  5  6  1  0
  6  7  1  0
  8  7  1  6
  8  9  1  0
  8 10  1  0
  9 10  1  0
 11 12  2  0
 11 16  1  0
 12 13  1  0
 12 17  1  0
 13 14  1  0
 14 15  1  0
 15 16  1  0
M  CHG  1   7   1
M  END
