
     RDKit          3D

 17 19  0  0  0  0  0  0  0  0999 V2000
   -2.0300   -2.1070    0.9370 C   0  0  0  0  0  0  0  0  0  0  0  0
   -2.1020   -1.0410   -0.1650 C   0  0  2  0  0  0  0  0  0  0  0  0
   -3.4380   -1.2420   -0.8810 C   0  0  0  0  0  0  0  0  0  0  0  0
   -0.9490   -1.3460   -1.0880 C   0  0  0  0  0  0  0  0  0  0  0  0
    0.2840   -0.7090   -0.5640 C   0  0  0  0  0  0  0  0  0  0  0  0
    1.4680   -1.3640   -0.4360 N   0  0  0  0  0  0  0  0  0  0  0  0
    2.5310   -0.6770    0.0520 C   0  0  0  0  0  0  0  0  0  0  0  0
    3.8550   -1.3250    0.2190 C   0  0  0  0  0  0  0  0  0  0  0  0
    4.6460   -1.1670   -1.0080 N   0  0  0  0  0  0  0  0  0  0  0  0
    2.4220    0.6170    0.4020 N   0  0  0  0  0  0  0  0  0  0  0  0
    1.2390    1.2910    0.2800 C   0  0  0  0  0  0  0  0  0  0  0  0
    0.1550    0.6170   -0.2100 C   0  0  0  0  0  0  0  0  0  0  0  0
   -1.1790    1.2280   -0.3840 C   0  0  2  0  0  0  0  0  0  0  0  0
   -1.2620    2.6590    0.0460 C   0  0  0  0  0  0  0  0  0  0  0  0
    0.0310    3.3990    0.0660 C   0  0  0  0  0  0  0  0  0  0  0  0
    1.1120    2.6550    0.6430 N   0  0  0  0  0  0  0  0  0  0  0  0
   -2.1230    0.3350    0.3950 C   0  0  0  0  0  0  0  0  0  0  0  0
  2  1  1  1
  2  3  1  0
  2  4  1  0
  2 17  1  0
  4  5  1  0
  5  6  2  0
  5 12  1  0
  6  7  1  0
  7  8  1  0
  7 10  2  0
  8  9  1  0
 10 11  1  0
 11 12  2  0
 11 16  1  0
 12 13  1  0
 13 14  1  1
 13 17  1  0
 14 15  1  0
 15 16  1  0
M  CHG  1   9   1
M  END
