
     RDKit          3D

 17 18  0  0  0  0  0  0  0  0999 V2000
    6.4720    1.5370   -0.2760 C   0  0  0  0  0  0  0  0  0  0  0  0
    5.7050    0.5660    0.4690 N   0  0  0  0  0  0  0  0  0  0  0  0
    4.3010    0.6080    0.4670 C   0  0  0  0  0  0  0  0  0  0  0  0
    3.5940   -0.4040    0.0420 C   0  0  0  0  0  0  0  0  0  0  0  0
    2.1220   -0.3930    0.0270 C   0  0  0  0  0  0  0  0  0  0  0  0
    1.3720    0.5860    0.4180 N   0  0  0  0  0  0  0  0  0  0  0  0
   -0.0050    0.2460    0.2600 C   0  0  0  0  0  0  0  0  0  0  0  0
   -1.1550    0.7110    0.6920 C   0  0  0  0  0  0  0  0  0  0  0  0
   -2.4650    0.1070    0.3310 C   0  0  1  0  0  0  0  0  0  0  0  0
   -2.9580    0.5520   -1.0220 C   0  0  2  0  0  0  0  0  0  0  0  0
   -3.1420    2.0290   -1.0970 C   0  0  0  0  0  0  0  0  0  0  0  0
   -4.3160   -0.1250   -1.2250 C   0  0  0  0  0  0  0  0  0  0  0  0
   -2.2310   -1.3770    0.3370 C   0  0  0  0  0  0  0  0  0  0  0  0
   -3.3000   -2.2710    0.8570 C   0  0  0  0  0  0  0  0  0  0  0  0
   -1.0750   -1.8390   -0.1230 C   0  0  0  0  0  0  0  0  0  0  0  0
   -0.0020   -0.9540   -0.6440 C   0  0  2  0  0  0  0  0  0  0  0  0
    1.3340   -1.4740   -0.4300 N   0  0  0  0  0  0  0  0  0  0  0  0
  1  2  1  0
  2  3  1  0
  3  4  2  3
  4  5  1  0
  5  6  2  0
  5 17  1  0
  6  7  1  0
  7  8  2  0
  7 16  1  0
  9  8  1  6
  9 10  1  0
  9 13  1  0
 10 11  1  1
 10 12  1  0
 13 14  1  0
 13 15  2  0
 15 16  1  0
 16 17  1  1
M  CHG  1   6   1
M  END
