
     RDKit          3D

 18 19  0  0  0  0  0  0  0  0999 V2000
   -1.8650   -3.0620    0.4670 C   0  0  0  0  0  0  0  0  0  0  0  0
   -2.5700   -1.7440    0.6570 C   0  0  0  0  0  0  0  0  0  0  0  0
   -2.4360   -0.9230   -0.6080 C   0  0  2  0  0  0  0  0  0  0  0  0
   -1.0050   -0.6590   -0.9270 C   0  0  0  0  0  0  0  0  0  0  0  0
   -0.4100    0.4040   -0.1240 C   0  0  0  0  0  0  0  0  0  0  0  0
    1.0410    0.4170    0.1000 C   0  0  0  0  0  0  0  0  0  0  0  0
    1.7400   -0.5220   -0.4260 N   0  0  0  0  0  0  0  0  0  0  0  0
    3.1670   -0.5120   -0.2070 C   0  0  0  0  0  0  0  0  0  0  0  0
    4.0580   -0.3220   -1.1660 C   0  0  0  0  0  0  0  0  0  0  0  0
    5.4070   -0.3770   -0.5780 C   0  0  0  0  0  0  0  0  0  0  0  0
    6.5150    0.0220   -1.0740 N   0  0  0  0  0  0  0  0  0  0  0  0
    5.2060   -1.0110    0.7500 C   0  0  0  0  0  0  0  0  0  0  0  0
    3.8180   -0.6980    1.0310 N   0  0  0  0  0  0  0  0  0  0  0  0
   -1.1390    1.3530    0.4030 C   0  0  0  0  0  0  0  0  0  0  0  0
   -2.5320    1.3800    0.2110 N   0  0  0  0  0  0  0  0  0  0  0  0
   -3.3170    2.4690    0.7570 C   0  0  0  0  0  0  0  0  0  0  0  0
   -3.8910    3.3480   -0.3350 C   0  0  0  0  0  0  0  0  0  0  0  0
   -3.2530    0.3530   -0.5200 C   0  0  0  0  0  0  0  0  0  0  0  0
  1  2  1  0
  3  2  1  1
  3  4  1  0
  3 18  1  0
  4  5  1  0
  5  6  1  0
  5 14  2  0
  6  7  2  3
  7  8  1  0
  8  9  2  0
  8 13  1  0
  9 10  1  0
 10 11  2  0
 10 12  1  0
 12 13  1  0
 14 15  1  0
 15 16  1  0
 15 18  1  0
 16 17  1  0
M  CHG  1  11   1
M  END
