
     RDKit          3D

 18 20  0  0  0  0  0  0  0  0999 V2000
   -3.6660   -1.2490    0.1860 C   0  0  0  0  0  0  0  0  0  0  0  0
   -2.6510   -1.0210    1.2630 C   0  0  0  0  0  0  0  0  0  0  0  0
   -1.2770   -0.7550    0.7730 C   0  0  1  0  0  0  0  0  0  0  0  0
   -0.7600   -1.9010   -0.0400 C   0  0  0  0  0  0  0  0  0  0  0  0
    0.7070   -1.6960   -0.1610 C   0  0  0  0  0  0  0  0  0  0  0  0
    1.7480   -2.5290   -0.3320 N   0  0  0  0  0  0  0  0  0  0  0  0
    2.8960   -1.8280   -0.3800 C   0  0  0  0  0  0  0  0  0  0  0  0
    4.2050   -2.3730   -0.5520 N   0  0  0  0  0  0  0  0  0  0  0  0
    2.5640   -0.5290   -0.2370 N   0  0  0  0  0  0  0  0  0  0  0  0
    3.5400    0.5280   -0.2390 C   0  0  0  0  0  0  0  0  0  0  0  0
    4.0920    0.8730    1.0920 C   0  0  0  0  0  0  0  0  0  0  0  0
    1.2220   -0.4370   -0.1020 C   0  0  0  0  0  0  0  0  0  0  0  0
    0.4370    0.8050    0.0790 C   0  0  0  0  0  0  0  0  0  0  0  0
   -1.0670    0.5060    0.0320 C   0  0  1  0  0  0  0  0  0  0  0  0
   -1.4690    0.5150   -1.3970 C   0  0  0  0  0  0  0  0  0  0  0  0
   -2.2620    1.8170   -1.5800 C   0  0  0  0  0  0  0  0  0  0  0  0
   -1.7690    2.6500   -0.4940 N   0  0  0  0  0  0  0  0  0  0  0  0
   -1.7810    1.6950    0.6110 C   0  0  0  0  0  0  0  0  0  0  0  0
  1  2  1  0
  3  2  1  6
  3  4  1  0
  3 14  1  0
  4  5  1  0
  5  6  1  0
  5 12  2  0
  6  7  2  0
  7  8  1  0
  7  9  1  0
  9 10  1  0
  9 12  1  0
 10 11  1  0
 12 13  1  0
 14 13  1  6
 14 15  1  0
 14 18  1  0
 15 16  1  0
 16 17  1  0
 17 18  1  0
M  CHG  1  17   1
M  END
