
     RDKit          3D

 18 20  0  0  0  0  0  0  0  0999 V2000
   -2.2710   -0.6560   -1.5190 C   0  0  0  0  0  0  0  0  0  0  0  0
   -2.0460   -0.5720   -0.0310 C   0  0  1  0  0  0  0  0  0  0  0  0
   -2.7050   -1.8000    0.5970 C   0  0  0  0  0  0  0  0  0  0  0  0
   -0.6170   -0.5830    0.3580 C   0  0  0  0  0  0  0  0  0  0  0  0
    0.1710    0.6430    0.0620 C   0  0  1  0  0  0  0  0  0  0  0  0
    0.8990    0.5630   -1.2740 C   0  0  0  0  0  0  0  0  0  0  0  0
    1.8270   -0.5250   -1.3530 N   0  0  0  0  0  0  0  0  0  0  0  0
    3.0110   -0.5170   -0.5770 C   0  0  0  0  0  0  0  0  0  0  0  0
    3.8450   -1.5490   -0.4820 C   0  0  0  0  0  0  0  0  0  0  0  0
    4.9350   -1.2570    0.3570 N   0  0  0  0  0  0  0  0  0  0  0  0
    4.7290    0.0690    0.7980 C   0  0  0  0  0  0  0  0  0  0  0  0
    3.5980    0.5230    0.2570 C   0  0  0  0  0  0  0  0  0  0  0  0
   -0.5970    1.9250    0.1290 C   0  0  0  0  0  0  0  0  0  0  0  0
   -1.9570    1.7990    0.5370 N   0  0  0  0  0  0  0  0  0  0  0  0
   -2.7450    2.7640    1.0290 N   0  0  0  0  0  0  0  0  0  0  0  0
   -3.9370    2.2500    1.2790 C   0  0  0  0  0  0  0  0  0  0  0  0
   -3.9540    0.9290    0.9530 C   0  0  0  0  0  0  0  0  0  0  0  0
   -2.6700    0.6670    0.4790 C   0  0  0  0  0  0  0  0  0  0  0  0
  2  1  1  6
  2  3  1  0
  2  4  1  0
  2 18  1  0
  4  5  1  0
  5  6  1  6
  5 13  1  0
  6  7  1  0
  7  8  1  0
  8  9  2  0
  8 12  1  0
  9 10  1  0
 10 11  1  0
 11 12  2  0
 13 14  1  0
 14 15  1  0
 14 18  1  0
 15 16  2  0
 16 17  1  0
 17 18  2  0
M  CHG  1  10   1
M  END
