
     RDKit          3D

 18 18  0  0  0  0  0  0  0  0999 V2000
    3.8560    1.7190   -1.3550 C   0  0  0  0  0  0  0  0  0  0  0  0
    3.0590    0.6810   -1.8110 O   0  0  0  0  0  0  0  0  0  0  0  0
    3.3710   -0.5020   -1.1560 C   0  0  0  0  0  0  0  0  0  0  0  0
    3.1900   -0.4100    0.3420 C   0  0  0  0  0  0  0  0  0  0  0  0
    1.5600    0.0080    0.8630 S   0  0  0  0  0  0  0  0  0  0  0  0
    0.3150   -1.2270    0.7480 C   0  0  0  0  0  0  0  0  0  0  0  0
   -0.9950   -0.8980    1.0200 C   0  0  0  0  0  0  0  0  0  0  0  0
   -1.4850    0.4830    1.2040 C   0  0  0  0  0  0  0  0  0  0  0  0
   -1.9890    1.1860    0.0040 C   0  0  2  0  0  0  0  0  0  0  0  0
   -3.1830    0.4070   -0.6120 C   0  0  0  0  0  0  0  0  0  0  0  0
   -1.0610    1.6210   -1.0560 C   0  0  0  0  0  0  0  0  0  0  0  0
   -2.6670    2.4760    0.5350 C   0  0  0  0  0  0  0  0  0  0  0  0
   -1.8950   -1.9260    1.0370 N   0  0  0  0  0  0  0  0  0  0  0  0
   -1.5470   -3.1990    0.8010 C   0  0  0  0  0  0  0  0  0  0  0  0
   -2.3860   -4.1380    0.8190 O   0  0  0  0  0  0  0  0  0  0  0  0
   -0.2720   -3.5260    0.5320 N   0  0  0  0  0  0  0  0  0  0  0  0
    0.6680   -2.5650    0.5020 C   0  0  0  0  0  0  0  0  0  0  0  0
    1.8690   -2.8910    0.2520 O   0  0  0  0  0  0  0  0  0  0  0  0
  1  2  1  0
  2  3  1  0
  3  4  1  0
  4  5  1  0
  5  6  1  0
  6  7  2  0
  6 17  1  0
  7  8  1  0
  7 13  1  0
  8  9  1  0
  9 10  1  6
  9 11  1  0
  9 12  1  0
 13 14  1  0
 14 15  2  0
 14 16  1  0
 16 17  1  0
 17 18  2  0
M  END
