
     RDKit          3D

 19 20  0  0  0  0  0  0  0  0999 V2000
    4.6720    0.8380    0.2310 C   0  0  0  0  0  0  0  0  0  0  0  0
    3.3540    0.1260    0.0930 C   0  0  1  0  0  0  0  0  0  0  0  0
    3.1760   -0.4550   -1.1480 O   0  0  0  0  0  0  0  0  0  0  0  0
    1.8210   -0.7200   -1.3070 C   0  0  0  0  0  0  0  0  0  0  0  0
    1.2430   -1.5760   -0.2290 C   0  0  2  0  0  0  0  0  0  0  0  0
    0.0490   -0.9040    0.4290 C   0  0  0  0  0  0  0  0  0  0  0  0
    0.0190   -0.7560    1.6640 O   0  0  0  0  0  0  0  0  0  0  0  0
   -1.0290   -0.4470   -0.3620 N   0  0  0  0  0  0  0  0  0  0  0  0
   -2.1890    0.1840    0.0820 C   0  0  0  0  0  0  0  0  0  0  0  0
   -2.4780    0.4690    1.3760 C   0  0  0  0  0  0  0  0  0  0  0  0
   -3.6810    1.1130    1.7350 C   0  0  0  0  0  0  0  0  0  0  0  0
   -3.9070    1.3570    2.9400 O   0  0  0  0  0  0  0  0  0  0  0  0
   -4.5670    1.4580    0.7990 N   0  0  0  0  0  0  0  0  0  0  0  0
   -4.3240    1.1960   -0.4910 C   0  0  0  0  0  0  0  0  0  0  0  0
   -3.1460    0.5640   -0.8580 C   0  0  0  0  0  0  0  0  0  0  0  0
   -2.9080    0.2970   -2.2240 N   0  0  0  0  0  0  0  0  0  0  0  0
    2.1990   -1.9480    0.7780 N   0  0  0  0  0  0  0  0  0  0  0  0
    3.2140   -0.9750    1.1040 C   0  0  0  0  0  0  0  0  0  0  0  0
    3.9000   -1.0560    2.1310 O   0  0  0  0  0  0  0  0  0  0  0  0
  2  1  1  6
  2  3  1  0
  2 18  1  0
  3  4  1  0
  4  5  1  0
  5  6  1  1
  5 17  1  0
  6  7  2  0
  6  8  1  0
  8  9  1  0
  9 10  2  0
  9 15  1  0
 10 11  1  0
 11 12  2  0
 11 13  1  0
 13 14  1  0
 14 15  2  0
 15 16  1  0
 17 18  1  0
 18 19  2  0
M  END
