
     RDKit          3D

 19 20  0  0  0  0  0  0  0  0999 V2000
   -3.1330   -1.2080    1.3050 C   0  0  0  0  0  0  0  0  0  0  0  0
   -1.9240   -0.7080    0.4430 C   0  0  1  0  0  0  0  0  0  0  0  0
   -1.9170   -1.5500   -0.7310 N   0  0  0  0  0  0  0  0  0  0  0  0
   -0.9490   -1.4080   -1.7520 C   0  0  0  0  0  0  0  0  0  0  0  0
   -1.4220   -1.4010   -2.9560 O   0  0  0  0  0  0  0  0  0  0  0  0
    0.5080   -1.2750   -1.5280 C   0  0  0  0  0  0  0  0  0  0  0  0
    0.7280   -1.1970   -0.1790 O   0  0  0  0  0  0  0  0  0  0  0  0
    1.7210   -0.6240    0.5930 C   0  0  0  0  0  0  0  0  0  0  0  0
    2.3300   -1.1600    1.6450 C   0  0  0  0  0  0  0  0  0  0  0  0
    3.3060   -0.1670    2.1200 C   0  0  0  0  0  0  0  0  0  0  0  0
    3.1510    0.9450    1.2120 C   0  0  0  0  0  0  0  0  0  0  0  0
    2.2020    0.7120    0.2730 C   0  0  0  0  0  0  0  0  0  0  0  0
    1.7610    1.5600   -0.7860 N   0  0  0  0  0  0  0  0  0  0  0  0
    0.4950    2.1030   -1.0730 C   0  0  0  0  0  0  0  0  0  0  0  0
    0.3740    2.2620   -2.3790 O   0  0  0  0  0  0  0  0  0  0  0  0
   -0.6310    2.5080   -0.3530 N   0  0  0  0  0  0  0  0  0  0  0  0
   -1.7420    1.9080    0.2240 N   0  0  0  0  0  0  0  0  0  0  0  0
   -2.3590    0.6560    0.0530 C   0  0  0  0  0  0  0  0  0  0  0  0
   -3.5180    0.5610   -0.5370 O   0  0  0  0  0  0  0  0  0  0  0  0
  2  1  1  1
  2  3  1  0
  2 18  1  0
  3  4  1  0
  4  5  2  0
  4  6  1  0
  6  7  1  0
  7  8  1  0
  8  9  2  0
  8 12  1  0
  9 10  1  0
 10 11  1  0
 11 12  2  0
 12 13  1  0
 13 14  1  0
 14 15  2  0
 14 16  1  0
 16 17  1  0
 17 18  1  0
 18 19  2  0
M  END
