
     RDKit          3D

 18 18  0  0  0  0  0  0  0  0999 V2000
   -1.9190    1.7620   -0.3790 C   0  0  0  0  0  0  0  0  0  0  0  0
   -2.5730    0.4960   -0.0040 C   0  0  1  0  0  0  0  0  0  0  0  0
   -2.0130   -0.7900   -0.4710 C   0  0  0  0  0  0  0  0  0  0  0  0
   -0.7330   -1.1860   -0.1450 N   0  0  0  0  0  0  0  0  0  0  0  0
    0.4870   -0.4840   -0.6480 C   0  0  0  0  0  0  0  0  0  0  0  0
    0.2940    0.4190   -1.3850 O   0  0  0  0  0  0  0  0  0  0  0  0
    1.6100   -1.1030   -0.0910 N   0  0  0  0  0  0  0  0  0  0  0  0
    2.8030   -0.0390   -0.8150 C   0  0  0  0  0  0  0  0  0  0  0  0
    2.3380    0.7990   -1.4550 O   0  0  0  0  0  0  0  0  0  0  0  0
    4.1270   -0.4690   -0.4360 C   0  0  0  0  0  0  0  0  0  0  0  0
    5.2320    0.4070   -0.9650 C   0  0  0  0  0  0  0  0  0  0  0  0
    6.5590   -0.1240   -0.5510 C   0  0  0  0  0  0  0  0  0  0  0  0
    7.0200   -1.3490   -1.0060 O   0  0  0  0  0  0  0  0  0  0  0  0
    7.4940    0.7370    0.4570 S   0  0  0  0  0  0  0  0  0  0  0  0
   -2.8550    0.5030    1.4920 C   0  0  0  0  0  0  0  0  0  0  0  0
   -4.1550   -0.1730    1.7140 C   0  0  0  0  0  0  0  0  0  0  0  0
   -4.8390   -0.2120    0.3770 C   0  0  0  0  0  0  0  0  0  0  0  0
   -3.9980    0.5520   -0.6040 C   0  0  0  0  0  0  0  0  0  0  0  0
  2  1  1  1
  2  3  1  0
  2 15  1  0
  2 18  1  0
  3  4  1  0
  4  5  1  0
  5  6  2  0
  5  7  1  0
  7  8  1  0
  8  9  2  0
  8 10  1  0
 10 11  1  0
 11 12  1  0
 12 13  1  0
 12 14  2  0
 15 16  1  0
 16 17  1  0
 17 18  1  0
M  END
