
     RDKit          3D

 14 14  0  0  0  0  0  0  0  0999 V2000
   -3.3000   -0.0790    0.7200 C   0  0  0  0  0  0  0  0  0  0  0  0
   -2.6060    0.6490   -0.4160 C   0  0  1  0  0  0  0  0  0  0  0  0
   -2.5490    2.0080   -0.0830 O   0  0  0  0  0  0  0  0  0  0  0  0
   -1.2180    0.0870   -0.6150 C   0  0  2  0  0  0  0  0  0  0  0  0
   -1.2830   -1.2400   -0.9390 O   0  0  0  0  0  0  0  0  0  0  0  0
   -0.3810    0.3820    0.5960 C   0  0  0  0  0  0  0  0  0  0  0  0
    0.9600   -0.1390    0.4500 N   0  0  0  0  0  0  0  0  0  0  0  0
    1.4050   -1.3350    0.8000 N   0  0  0  0  0  0  0  0  0  0  0  0
    2.7110   -1.4010    0.4860 C   0  0  0  0  0  0  0  0  0  0  0  0
    3.4660   -2.3950    0.6760 O   0  0  0  0  0  0  0  0  0  0  0  0
    3.1120   -0.2250   -0.0760 N   0  0  0  0  0  0  0  0  0  0  0  0
    4.3910    0.0910   -0.5310 N   0  0  0  0  0  0  0  0  0  0  0  0
    1.9970    0.5350   -0.0810 C   0  0  0  0  0  0  0  0  0  0  0  0
    1.9500    1.7090   -0.5260 O   0  0  0  0  0  0  0  0  0  0  0  0
  2  1  1  1
  2  3  1  0
  2  4  1  0
  4  5  1  1
  4  6  1  0
  6  7  1  0
  7  8  1  0
  7 13  1  0
  8  9  1  0
  9 10  2  0
  9 11  1  0
 11 12  1  0
 11 13  1  0
 13 14  2  0
M  END
