
     RDKit          3D

 14 15  0  0  0  0  0  0  0  0999 V2000
   -1.5290    1.9980   -0.6060 N   0  0  0  0  0  0  0  0  0  0  0  0
   -1.2550    0.6100   -0.2730 C   0  0  0  0  0  0  0  0  0  0  0  0
   -0.0860    0.2450    0.1530 C   0  0  0  0  0  0  0  0  0  0  0  0
    0.9310    1.3150    0.2660 C   0  0  0  0  0  0  0  0  0  0  0  0
    0.5580    2.5110    0.3140 O   0  0  0  0  0  0  0  0  0  0  0  0
    2.2920    0.8960    0.3130 N   0  0  0  0  0  0  0  0  0  0  0  0
    2.6430   -0.4740    0.2550 N   0  0  0  0  0  0  0  0  0  0  0  0
    1.6380   -1.4640    0.1500 C   0  0  0  0  0  0  0  0  0  0  0  0
    1.9050   -2.5910   -0.2740 O   0  0  0  0  0  0  0  0  0  0  0  0
    0.2470   -1.1280    0.5590 C   0  0  2  0  0  0  0  0  0  0  0  0
   -0.7130   -2.0420    0.2010 O   0  0  0  0  0  0  0  0  0  0  0  0
   -1.9640   -1.6870   -0.2380 C   0  0  0  0  0  0  0  0  0  0  0  0
   -2.8560   -2.5620   -0.4210 O   0  0  0  0  0  0  0  0  0  0  0  0
   -2.2980   -0.3310   -0.5010 N   0  0  0  0  0  0  0  0  0  0  0  0
  1  2  1  0
  2  3  2  0
  2 14  1  0
  3  4  1  0
  3 10  1  0
  4  5  2  0
  4  6  1  0
  6  7  1  0
  7  8  1  0
  8  9  2  0
  8 10  1  0
 10 11  1  6
 11 12  1  0
 12 13  2  0
 12 14  1  0
M  END
