
     RDKit          3D

 14 14  0  0  0  0  0  0  0  0999 V2000
    4.6530    0.3260   -0.1320 N   0  0  0  0  0  0  0  0  0  0  0  0
    3.3260    0.0800    0.2760 C   0  0  0  0  0  0  0  0  0  0  0  0
    3.1300   -0.3390    1.4400 O   0  0  0  0  0  0  0  0  0  0  0  0
    2.1800    0.2900   -0.5890 C   0  0  0  0  0  0  0  0  0  0  0  0
    2.4170    0.7180   -1.7700 O   0  0  0  0  0  0  0  0  0  0  0  0
    0.8440    0.0400   -0.1730 N   0  0  0  0  0  0  0  0  0  0  0  0
   -0.2070    0.2870   -1.1230 C   0  0  0  0  0  0  0  0  0  0  0  0
   -1.5740   -0.0070   -0.5860 C   0  0  2  0  0  0  0  0  0  0  0  0
   -1.9490    0.8420    0.5180 N   0  0  0  0  0  0  0  0  0  0  0  0
   -3.1750    0.5190    1.1660 C   0  0  0  0  0  0  0  0  0  0  0  0
   -3.8340    1.3850    1.7960 O   0  0  0  0  0  0  0  0  0  0  0  0
   -3.6470   -0.8570    1.0770 C   0  0  0  0  0  0  0  0  0  0  0  0
   -2.9260   -1.6930    0.4180 N   0  0  0  0  0  0  0  0  0  0  0  0
   -1.7520   -1.3300   -0.1870 O   0  0  0  0  0  0  0  0  0  0  0  0
  1  2  1  0
  2  3  2  0
  2  4  1  0
  4  5  2  0
  4  6  1  0
  6  7  1  0
  8  7  1  1
  8  9  1  0
  8 14  1  0
  9 10  1  0
 10 11  2  0
 10 12  1  0
 12 13  2  0
 13 14  1  0
M  END
