
     RDKit          3D

 21 20  0  0  0  0  0  0  0  0999 V2000
   -0.7610   -3.2450   -0.8720 O   0  0  0  0  0  0  0  0  0  0  0  0
   -0.9980   -2.2790   -0.0520 C   0  0  0  0  0  0  0  0  0  0  0  0
   -1.1370   -2.7070    1.2470 O   0  0  0  0  0  0  0  0  0  0  0  0
   -1.0300   -0.8830   -0.5270 C   0  0  1  0  0  0  0  0  0  0  0  0
   -0.9050   -0.8060   -1.8950 O   0  0  0  0  0  0  0  0  0  0  0  0
   -2.3370   -0.2520   -0.1450 C   0  0  0  0  0  0  0  0  0  0  0  0
   -2.4460    1.0660   -0.5240 O   0  0  0  0  0  0  0  0  0  0  0  0
   -3.9370    1.7050   -0.0400 P   0  0  1  0  0  0  0  0  0  0  0  0
   -4.7330    2.1500   -1.2580 O   0  0  0  0  0  0  0  0  0  0  0  0
   -4.8360    0.5600    0.8950 O   0  0  0  0  0  0  0  0  0  0  0  0
   -3.7100    3.0220    0.9640 O   0  0  0  0  0  0  0  0  0  0  0  0
    0.1160   -0.1470    0.0940 C   0  0  2  0  0  0  0  0  0  0  0  0
    0.0120    1.2520   -0.2360 O   0  0  0  0  0  0  0  0  0  0  0  0
    1.4150   -0.7270   -0.2620 C   0  0  2  0  0  0  0  0  0  0  0  0
    1.5180   -2.1340   -0.2260 O   0  0  0  0  0  0  0  0  0  0  0  0
    2.4940   -0.3870    0.8150 C   0  0  0  0  0  0  0  0  0  0  0  0
    2.5350    1.0070    0.8980 O   0  0  0  0  0  0  0  0  0  0  0  0
    4.2190    1.3580    0.5380 P   0  0  1  0  0  0  0  0  0  0  0  0
    5.0520    1.2340    1.6810 O   0  0  0  0  0  0  0  0  0  0  0  0
    4.6490    0.2990   -0.7240 O   0  0  0  0  0  0  0  0  0  0  0  0
    4.1530    2.9150   -0.1790 O   0  0  0  0  0  0  0  0  0  0  0  0
  1  2  2  0
  2  3  1  0
  2  4  1  0
  4  5  1  6
  4  6  1  0
  4 12  1  0
  6  7  1  0
  7  8  1  0
  8  9  2  0
  8 10  1  1
  8 11  1  0
 12 13  1  6
 12 14  1  0
 14 15  1  1
 14 16  1  0
 16 17  1  0
 17 18  1  0
 18 19  2  0
 18 20  1  6
 18 21  1  0
M  END
