
     RDKit          3D

 24 25  0  0  0  0  0  0  0  0999 V2000
    7.8610    1.0810    1.4400 N   0  0  0  0  0  0  0  0  0  0  0  0
    7.2150    0.6410    0.2530 C   0  0  0  0  0  0  0  0  0  0  0  0
    5.9160    0.2600    0.0970 N   0  0  0  0  0  0  0  0  0  0  0  0
    5.7010   -0.0880   -1.1910 C   0  0  0  0  0  0  0  0  0  0  0  0
    4.4760   -0.5470   -1.7810 N   0  0  0  0  0  0  0  0  0  0  0  0
    3.2890   -0.6920   -1.0300 C   0  0  0  0  0  0  0  0  0  0  0  0
    3.3220   -0.4070    0.1900 O   0  0  0  0  0  0  0  0  0  0  0  0
    2.0890   -1.1380   -1.5910 O   0  0  0  0  0  0  0  0  0  0  0  0
    0.9560   -1.2720   -0.8530 O   0  0  0  0  0  0  0  0  0  0  0  0
    0.0820   -0.2230   -0.6090 C   0  0  0  0  0  0  0  0  0  0  0  0
    0.3640    0.8970   -1.0990 O   0  0  0  0  0  0  0  0  0  0  0  0
   -1.0990   -0.3730    0.1640 N   0  0  0  0  0  0  0  0  0  0  0  0
   -1.4700   -1.6620    0.7570 C   0  0  0  0  0  0  0  0  0  0  0  0
   -2.8100   -2.0380    0.1780 C   0  0  0  0  0  0  0  0  0  0  0  0
   -3.1890   -3.2250    0.1410 O   0  0  0  0  0  0  0  0  0  0  0  0
   -3.6580   -1.0150   -0.3350 N   0  0  0  0  0  0  0  0  0  0  0  0
   -3.3900    0.3050    0.1000 C   0  0  0  0  0  0  0  0  0  0  0  0
   -4.3260    1.2070    0.2810 C   0  0  0  0  0  0  0  0  0  0  0  0
   -5.7430    0.9010    0.0390 C   0  0  0  0  0  0  0  0  0  0  0  0
   -6.4380    1.0950    1.2370 O   0  0  0  0  0  0  0  0  0  0  0  0
   -7.7130    0.8310    1.0660 O   0  0  0  0  0  0  0  0  0  0  0  0
   -1.9760    0.7440    0.3900 C   0  0  0  0  0  0  0  0  0  0  0  0
    6.8870    0.0900   -1.7980 N   0  0  0  0  0  0  0  0  0  0  0  0
    7.7510    0.5140   -0.9360 O   0  0  0  0  0  0  0  0  0  0  0  0
  1  2  1  0
  2  3  2  0
  2 24  1  0
  3  4  1  0
  4  5  1  0
  4 23  2  0
  5  6  1  0
  6  7  2  0
  6  8  1  0
  8  9  1  0
  9 10  1  0
 10 11  2  0
 10 12  1  0
 12 13  1  0
 12 22  1  0
 13 14  1  0
 14 15  2  0
 14 16  1  0
 16 17  1  0
 17 18  2  3
 17 22  1  0
 18 19  1  0
 19 20  1  0
 20 21  1  0
 23 24  1  0
M  END
