
     RDKit          3D

 24 25  0  0  0  0  0  0  0  0999 V2000
   -0.2120   -2.6880    2.7370 O   0  0  0  0  0  0  0  0  0  0  0  0
   -0.7440   -2.2490    1.6280 C   0  0  0  0  0  0  0  0  0  0  0  0
   -2.0650   -2.6000    1.3080 N   0  0  0  0  0  0  0  0  0  0  0  0
   -3.1920   -1.8330    1.0320 C   0  0  0  0  0  0  0  0  0  0  0  0
   -4.3790   -2.4360    1.1700 O   0  0  0  0  0  0  0  0  0  0  0  0
   -3.3050   -0.4650    0.6130 N   0  0  0  0  0  0  0  0  0  0  0  0
   -4.2300    0.5190    1.0570 C   0  0  0  0  0  0  0  0  0  0  0  0
   -4.9530    0.4880    2.1010 O   0  0  0  0  0  0  0  0  0  0  0  0
   -4.2240    1.6350    0.0990 N   0  0  0  0  0  0  0  0  0  0  0  0
   -3.6150    1.0380   -1.0820 C   0  0  0  0  0  0  0  0  0  0  0  0
   -2.5110    0.2080   -0.3650 C   0  0  1  0  0  0  0  0  0  0  0  0
   -1.5510    1.2630    0.1800 C   0  0  0  0  0  0  0  0  0  0  0  0
   -0.5860    1.5220   -0.8700 N   0  0  0  0  0  0  0  0  0  0  0  0
    0.8450    1.6780   -0.7080 C   0  0  0  0  0  0  0  0  0  0  0  0
    1.3240    2.8180   -1.0570 O   0  0  0  0  0  0  0  0  0  0  0  0
    1.6890    0.6710   -0.2100 N   0  0  0  0  0  0  0  0  0  0  0  0
    2.7590    1.0270    0.7210 C   0  0  0  0  0  0  0  0  0  0  0  0
    4.0560    0.8610   -0.1170 C   0  0  0  0  0  0  0  0  0  0  0  0
    5.0410    0.9020    0.9140 O   0  0  0  0  0  0  0  0  0  0  0  0
    5.6860   -0.2570    0.9170 O   0  0  0  0  0  0  0  0  0  0  0  0
    6.0560   -0.7680   -0.1860 O   0  0  0  0  0  0  0  0  0  0  0  0
    1.7770   -0.7220   -0.5830 C   0  0  0  0  0  0  0  0  0  0  0  0
    0.5130   -1.5290   -0.4190 C   0  0  0  0  0  0  0  0  0  0  0  0
    0.1170   -1.4540    0.9050 O   0  0  0  0  0  0  0  0  0  0  0  0
  1  2  2  0
  2  3  1  0
  2 24  1  0
  3  4  1  0
  4  5  2  0
  4  6  1  0
  6  7  1  0
  6 11  1  0
  7  8  2  0
  7  9  1  0
  9 10  1  0
 11 10  1  6
 11 12  1  0
 12 13  1  0
 13 14  1  0
 14 15  2  0
 14 16  1  0
 16 17  1  0
 16 22  1  0
 17 18  1  0
 18 19  1  0
 19 20  1  0
 20 21  1  0
 22 23  1  0
 23 24  1  0
M  END
