
     RDKit          3D

 24 25  0  0  0  0  0  0  0  0999 V2000
   -3.1220   -3.2810   -1.5740 N   0  0  0  0  0  0  0  0  0  0  0  0
   -3.5180   -2.3190   -0.5640 C   0  0  1  0  0  0  0  0  0  0  0  0
   -4.9090   -2.2320   -0.5820 O   0  0  0  0  0  0  0  0  0  0  0  0
   -3.1310   -2.6800    0.7040 O   0  0  0  0  0  0  0  0  0  0  0  0
   -2.6030   -1.5000    1.2620 C   0  0  0  0  0  0  0  0  0  0  0  0
   -1.8000   -1.0330    0.0300 C   0  0  2  0  0  0  0  0  0  0  0  0
   -1.3320    0.3310    0.1670 C   0  0  0  0  0  0  0  0  0  0  0  0
   -2.0090    1.2630   -0.3440 O   0  0  0  0  0  0  0  0  0  0  0  0
   -0.1450    0.6550    0.8490 N   0  0  0  0  0  0  0  0  0  0  0  0
    0.7260   -0.3180    1.4360 C   0  0  0  0  0  0  0  0  0  0  0  0
    1.7830   -0.8200    0.4930 C   0  0  0  0  0  0  0  0  0  0  0  0
    2.6120   -1.6830    0.9450 O   0  0  0  0  0  0  0  0  0  0  0  0
    1.8820   -0.3770   -0.8460 N   0  0  0  0  0  0  0  0  0  0  0  0
    2.9100   -0.8730   -1.7300 C   0  0  0  0  0  0  0  0  0  0  0  0
    4.2660   -0.5310   -1.1660 C   0  0  0  0  0  0  0  0  0  0  0  0
    4.3850    0.8610   -1.0440 O   0  0  0  0  0  0  0  0  0  0  0  0
    5.5780    1.1280   -0.5500 O   0  0  0  0  0  0  0  0  0  0  0  0
    0.2600    2.0660    1.0250 C   0  0  1  0  0  0  0  0  0  0  0  0
    0.2160    2.8690   -0.2150 C   0  0  0  0  0  0  0  0  0  0  0  0
   -0.7190    3.9570   -0.0130 N   0  0  0  0  0  0  0  0  0  0  0  0
   -1.5630    3.5160    1.0210 N   0  0  0  0  0  0  0  0  0  0  0  0
   -0.8370    2.6510    1.8780 C   0  0  0  0  0  0  0  0  0  0  0  0
   -1.0560    2.4100    3.1070 O   0  0  0  0  0  0  0  0  0  0  0  0
   -2.9010   -1.1170   -0.8780 O   0  0  0  0  0  0  0  0  0  0  0  0
  2  1  1  6
  2  3  1  0
  2  4  1  0
  2 24  1  0
  4  5  1  0
  5  6  1  0
  6  7  1  1
  6 24  1  0
  7  8  2  0
  7  9  1  0
  9 10  1  0
 18  9  1  6
 10 11  1  0
 11 12  2  0
 11 13  1  0
 13 14  1  0
 14 15  1  0
 15 16  1  0
 16 17  1  0
 18 19  1  0
 18 22  1  0
 19 20  1  0
 20 21  1  0
 21 22  1  0
 22 23  2  0
M  END
