
     RDKit          3D

 24 25  0  0  0  0  0  0  0  0999 V2000
    6.9560    0.4460    1.0480 O   0  0  0  0  0  0  0  0  0  0  0  0
    6.5140   -0.3320    0.1760 C   0  0  0  0  0  0  0  0  0  0  0  0
    7.3860   -0.7870   -0.8240 N   0  0  0  0  0  0  0  0  0  0  0  0
    8.7430   -0.4060   -0.8950 N   0  0  0  0  0  0  0  0  0  0  0  0
    8.7300    0.9420   -1.0930 O   0  0  0  0  0  0  0  0  0  0  0  0
    5.1640   -0.6940    0.2680 O   0  0  0  0  0  0  0  0  0  0  0  0
    4.3580   -0.1720    1.3370 C   0  0  0  0  0  0  0  0  0  0  0  0
    2.9750   -0.6500    1.2770 C   0  0  0  0  0  0  0  0  0  0  0  0
    2.4610   -1.8530    1.5830 N   0  0  0  0  0  0  0  0  0  0  0  0
    1.1300   -1.7880    1.3710 C   0  0  0  0  0  0  0  0  0  0  0  0
    0.8310   -0.5540    0.9390 N   0  0  0  0  0  0  0  0  0  0  0  0
   -0.4650   -0.0170    0.5890 C   0  0  0  0  0  0  0  0  0  0  0  0
   -0.6920   -0.2630   -0.8860 C   0  0  0  0  0  0  0  0  0  0  0  0
   -1.9790    0.2880   -1.2460 N   0  0  0  0  0  0  0  0  0  0  0  0
   -3.1500   -0.2140   -0.6460 C   0  0  0  0  0  0  0  0  0  0  0  0
   -3.1730   -1.1370    0.1960 O   0  0  0  0  0  0  0  0  0  0  0  0
   -4.3860    0.3470   -1.0060 O   0  0  0  0  0  0  0  0  0  0  0  0
   -5.5980   -0.1120   -0.4480 C   0  0  1  0  0  0  0  0  0  0  0  0
   -6.2550    1.0370    0.2880 C   0  0  0  0  0  0  0  0  0  0  0  0
   -7.5450    1.4820   -0.3110 C   0  0  0  0  0  0  0  0  0  0  0  0
   -7.8090    0.9710   -1.5580 O   0  0  0  0  0  0  0  0  0  0  0  0
   -6.7490    0.5050   -2.1680 O   0  0  0  0  0  0  0  0  0  0  0  0
   -6.3740   -0.5820   -1.4850 O   0  0  0  0  0  0  0  0  0  0  0  0
    1.9520    0.1290    0.8840 N   0  0  0  0  0  0  0  0  0  0  0  0
  1  2  2  0
  2  3  1  0
  2  6  1  0
  3  4  1  0
  4  5  1  0
  6  7  1  0
  7  8  1  0
  8  9  1  0
  8 24  2  0
  9 10  2  0
 10 11  1  0
 11 12  1  0
 11 24  1  0
 12 13  1  0
 13 14  1  0
 14 15  1  0
 15 16  2  0
 15 17  1  0
 18 17  1  6
 18 19  1  0
 18 23  1  0
 19 20  1  0
 20 21  1  0
 21 22  1  0
 22 23  1  0
M  END
