
     RDKit          3D

 21 22  0  0  0  0  0  0  0  0999 V2000
    7.2760    0.8720   -0.0880 C   0  0  0  0  0  0  0  0  0  0  0  0
    6.4130    0.1530   -1.1020 C   0  0  0  0  0  0  0  0  0  0  0  0
    5.2450   -0.4110   -0.3910 C   0  0  0  0  0  0  0  0  0  0  0  0
    4.0350   -0.0260   -0.7470 C   0  0  0  0  0  0  0  0  0  0  0  0
    2.8810   -0.5540   -0.0790 C   0  0  0  0  0  0  0  0  0  0  0  0
    1.6190   -0.2630   -0.3280 C   0  0  0  0  0  0  0  0  0  0  0  0
    1.2870    0.6930   -1.3890 C   0  0  0  0  0  0  0  0  0  0  0  0
   -0.0190    0.4890   -2.0910 C   0  0  0  0  0  0  0  0  0  0  0  0
   -1.0010   -0.3680   -1.3310 C   0  0  0  0  0  0  0  0  0  0  0  0
   -0.7170   -0.1410    0.1300 C   0  0  1  0  0  0  0  0  0  0  0  0
   -1.8850   -0.2230    0.9850 C   0  0  0  0  0  0  0  0  0  0  0  0
   -3.0360    0.6440    0.9480 C   0  0  1  0  0  0  0  0  0  0  0  0
   -4.0360    0.1530    2.0040 C   0  0  0  0  0  0  0  0  0  0  0  0
   -2.5480    1.9910    1.6590 C   0  0  0  0  0  0  0  0  0  0  0  0
   -3.7620    1.1240   -0.2050 C   0  0  1  0  0  0  0  0  0  0  0  0
   -3.2300    1.9220   -1.2120 O   0  0  0  0  0  0  0  0  0  0  0  0
   -4.8270    0.1640   -0.8410 C   0  0  0  0  0  0  0  0  0  0  0  0
   -5.2810    1.3260   -0.0610 C   0  0  0  0  0  0  0  0  0  0  0  0
    0.5140   -0.8910    0.4740 C   0  0  1  0  0  0  0  0  0  0  0  0
    0.5820   -2.3430    0.2510 C   0  0  0  0  0  0  0  0  0  0  0  0
   -0.4280   -3.1920    0.9510 C   0  0  0  0  0  0  0  0  0  0  0  0
  1  2  1  0
  2  3  1  0
  3  4  2  3
  4  5  1  0
  5  6  2  3
  6  7  1  0
  6 19  1  0
  7  8  1  0
  8  9  1  0
  9 10  1  0
 10 11  1  1
 10 19  1  0
 11 12  1  0
 12 13  1  1
 12 14  1  0
 12 15  1  0
 15 16  1  6
 15 17  1  0
 15 18  1  0
 17 18  1  0
 19 20  1  6
 20 21  1  0
M  END
