
     RDKit          3D

 34 37  0  0  0  0  0  0  0  0999 V2000
  -10.2040    1.5200   -2.3460 C   0  0  0  0  0  0  0  0  0  0  0  0
   -9.0480    1.2240   -1.4760 C   0  0  0  0  0  0  0  0  0  0  0  0
   -8.0170    0.4900   -1.9760 C   0  0  0  0  0  0  0  0  0  0  0  0
   -6.9180    0.2030   -1.1610 C   0  0  0  0  0  0  0  0  0  0  0  0
   -6.8080    0.6200    0.1310 C   0  0  0  0  0  0  0  0  0  0  0  0
   -5.7330    0.3670    1.0200 N   0  0  0  0  0  0  0  0  0  0  0  0
   -4.6120   -0.4310    0.7540 C   0  0  0  0  0  0  0  0  0  0  0  0
   -4.5000   -1.0040   -0.3630 O   0  0  0  0  0  0  0  0  0  0  0  0
   -3.5230   -0.6460    1.7370 C   0  0  0  0  0  0  0  0  0  0  0  0
   -3.5010   -0.0010    2.9290 C   0  0  0  0  0  0  0  0  0  0  0  0
   -2.4540   -0.2450    3.8110 C   0  0  0  0  0  0  0  0  0  0  0  0
   -1.4680   -1.1010    3.5130 N   0  0  0  0  0  0  0  0  0  0  0  0
   -1.4960   -1.7360    2.3340 C   0  0  0  0  0  0  0  0  0  0  0  0
   -0.3940   -2.6940    1.9970 C   0  0  0  0  0  0  0  0  0  0  0  0
    0.6720   -1.9340    1.3050 C   0  0  0  0  0  0  0  0  0  0  0  0
    1.6990   -1.3500    1.9760 C   0  0  0  0  0  0  0  0  0  0  0  0
    2.7120   -0.6280    1.3230 C   0  0  0  0  0  0  0  0  0  0  0  0
    2.6760   -0.5000   -0.0390 C   0  0  0  0  0  0  0  0  0  0  0  0
    3.7320    0.2570   -0.8160 C   0  0  1  0  0  0  0  0  0  0  0  0
    3.4910   -0.0230   -2.1500 O   0  0  0  0  0  0  0  0  0  0  0  0
    3.5530    1.7340   -0.6000 C   0  0  0  0  0  0  0  0  0  0  0  0
    4.4660    2.4470   -1.4620 N   0  0  0  0  0  0  0  0  0  0  0  0
    5.0980   -0.1330   -0.3630 C   0  0  0  0  0  0  0  0  0  0  0  0
    5.4450    0.1960    0.7890 O   0  0  0  0  0  0  0  0  0  0  0  0
    5.9840   -0.8510   -1.1820 N   0  0  0  0  0  0  0  0  0  0  0  0
    7.2960   -1.2880   -0.8780 C   0  0  0  0  0  0  0  0  0  0  0  0
    8.3900   -0.3470   -0.6270 C   0  0  2  0  0  0  0  0  0  0  0  0
    8.5300    0.6760    0.3990 C   0  0  0  0  0  0  0  0  0  0  0  0
    8.0560    1.1260   -0.9110 C   0  0  0  0  0  0  0  0  0  0  0  0
    1.6210   -1.1010   -0.7110 C   0  0  0  0  0  0  0  0  0  0  0  0
    0.6370   -1.8040   -0.0560 C   0  0  0  0  0  0  0  0  0  0  0  0
   -2.5070   -1.5270    1.4320 C   0  0  0  0  0  0  0  0  0  0  0  0
   -7.8940    1.3750    0.6080 C   0  0  0  0  0  0  0  0  0  0  0  0
   -8.9810    1.6710   -0.1640 C   0  0  0  0  0  0  0  0  0  0  0  0
  1  2  1  0
  2  3  2  0
  2 34  1  0
  3  4  1  0
  4  5  2  0
  5  6  1  0
  5 33  1  0
  6  7  1  0
  7  8  2  0
  7  9  1  0
  9 10  2  0
  9 32  1  0
 10 11  1  0
 11 12  2  0
 12 13  1  0
 13 14  1  0
 13 32  2  0
 14 15  1  0
 15 16  2  0
 15 31  1  0
 16 17  1  0
 17 18  2  0
 18 19  1  0
 18 30  1  0
 19 20  1  6
 19 21  1  0
 19 23  1  0
 21 22  1  0
 23 24  2  0
 23 25  1  0
 25 26  1  0
 27 26  1  1
 27 28  1  0
 27 29  1  0
 28 29  1  0
 30 31  2  0
 33 34  2  0
M  CHG  2  12   1  22   1
M  END
