
     RDKit          3D

 35 38  0  0  0  0  0  0  0  0999 V2000
   -5.1800    1.0240   -2.4500 C   0  0  0  0  0  0  0  0  0  0  0  0
   -6.0260    1.4390   -1.4190 O   0  0  0  0  0  0  0  0  0  0  0  0
   -5.2770    1.8140   -0.2880 C   0  0  1  0  0  0  0  0  0  0  0  0
   -5.4960    3.3110   -0.0940 C   0  0  0  0  0  0  0  0  0  0  0  0
   -5.8020    1.0470    0.8960 C   0  0  0  0  0  0  0  0  0  0  0  0
   -5.7400   -0.3140    0.8460 O   0  0  0  0  0  0  0  0  0  0  0  0
   -4.7150   -1.1900    0.7730 C   0  0  0  0  0  0  0  0  0  0  0  0
   -3.3800   -0.8540    0.7480 C   0  0  0  0  0  0  0  0  0  0  0  0
   -2.3380   -1.7530    0.6730 C   0  0  0  0  0  0  0  0  0  0  0  0
   -0.9450   -1.3250    0.6290 C   0  0  0  0  0  0  0  0  0  0  0  0
   -0.1780   -1.6270    1.5620 O   0  0  0  0  0  0  0  0  0  0  0  0
   -0.4290   -0.5810   -0.4360 N   0  0  0  0  0  0  0  0  0  0  0  0
    1.0210   -0.1950   -0.3960 C   0  0  0  0  0  0  0  0  0  0  0  0
    1.9790   -0.2450    0.2260 N   0  0  0  0  0  0  0  0  0  0  0  0
    3.1990    0.2070   -0.0700 C   0  0  0  0  0  0  0  0  0  0  0  0
    4.3630    0.0730    0.8810 C   0  0  0  0  0  0  0  0  0  0  0  0
    3.9420   -0.7890    2.3670 S   0  0  2  0  0  0  0  0  0  0  0  0
    3.3700   -2.4280    2.1020 C   0  0  0  0  0  0  0  0  0  0  0  0
    2.9420    0.0490    3.1330 O   0  0  0  0  0  0  0  0  0  0  0  0
    5.1920   -0.8360    3.2090 O   0  0  0  0  0  0  0  0  0  0  0  0
    3.3300    0.8010   -1.2550 C   0  0  0  0  0  0  0  0  0  0  0  0
    4.3270    1.4240   -2.1150 C   0  0  0  0  0  0  0  0  0  0  0  0
    5.6290    1.7490   -1.5680 C   0  0  0  0  0  0  0  0  0  0  0  0
    6.7020    1.0880   -2.0010 C   0  0  0  0  0  0  0  0  0  0  0  0
    8.0480    1.3570   -1.5000 C   0  0  0  0  0  0  0  0  0  0  0  0
    8.1290    2.4270   -0.5960 O   0  0  0  0  0  0  0  0  0  0  0  0
    7.0430    3.1280   -0.1290 C   0  0  0  0  0  0  0  0  0  0  0  0
    5.8530    2.8060   -0.5920 C   0  0  0  0  0  0  0  0  0  0  0  0
    1.6770    0.6980   -1.9240 S   0  0  0  0  0  0  0  0  0  0  0  0
   -2.6720   -3.1040    0.6190 C   0  0  0  0  0  0  0  0  0  0  0  0
   -4.0030   -3.4560    0.6430 C   0  0  0  0  0  0  0  0  0  0  0  0
   -5.0300   -2.5620    0.7170 C   0  0  0  0  0  0  0  0  0  0  0  0
   -6.2580   -3.2080    0.7220 O   0  0  0  0  0  0  0  0  0  0  0  0
   -5.9920   -4.5740    0.5160 C   0  0  0  0  0  0  0  0  0  0  0  0
   -4.5880   -4.7240    0.6010 O   0  0  0  0  0  0  0  0  0  0  0  0
  1  2  1  0
  2  3  1  0
  3  4  1  1
  3  5  1  0
  5  6  1  0
  6  7  1  0
  7  8  2  0
  7 32  1  0
  8  9  1  0
  9 10  1  0
  9 30  2  0
 10 11  2  0
 10 12  1  0
 12 13  1  0
 13 14  2  0
 13 29  1  0
 14 15  1  0
 15 16  1  0
 15 21  2  0
 16 17  1  0
 17 18  1  6
 17 19  2  0
 17 20  2  0
 21 22  1  0
 21 29  1  0
 22 23  1  0
 23 24  2  0
 23 28  1  0
 24 25  1  0
 25 26  1  0
 26 27  1  0
 27 28  2  0
 30 31  1  0
 31 32  2  0
 31 35  1  0
 32 33  1  0
 33 34  1  0
 34 35  1  0
M  END
