
     RDKit          3D

 34 36  0  0  0  0  0  0  0  0999 V2000
    7.9680    2.0220   -2.0330 C   0  0  0  0  0  0  0  0  0  0  0  0
    7.9660    0.9070   -1.0190 C   0  0  1  0  0  0  0  0  0  0  0  0
    8.6070    1.4350    0.2560 C   0  0  0  0  0  0  0  0  0  0  0  0
    9.9530    1.8700    0.0500 N   0  0  0  0  0  0  0  0  0  0  0  0
    6.5880    0.4530   -0.6910 C   0  0  0  0  0  0  0  0  0  0  0  0
    5.6140    1.3130   -0.2410 C   0  0  0  0  0  0  0  0  0  0  0  0
    4.3160    0.8930    0.0700 C   0  0  0  0  0  0  0  0  0  0  0  0
    3.9930   -0.4140   -0.0770 C   0  0  0  0  0  0  0  0  0  0  0  0
    2.7370   -1.0010    0.1880 N   0  0  0  0  0  0  0  0  0  0  0  0
    1.5650   -0.3540    0.6300 C   0  0  0  0  0  0  0  0  0  0  0  0
    1.6060    0.8880    0.8210 O   0  0  0  0  0  0  0  0  0  0  0  0
    0.3180   -1.1010    0.8640 C   0  0  0  0  0  0  0  0  0  0  0  0
   -0.7220   -0.4890    1.5550 C   0  0  0  0  0  0  0  0  0  0  0  0
   -1.9170   -1.1260    1.8040 C   0  0  0  0  0  0  0  0  0  0  0  0
   -2.1390   -2.4220    1.3710 C   0  0  0  0  0  0  0  0  0  0  0  0
   -3.4200   -3.1280    1.6290 C   0  0  1  0  0  0  0  0  0  0  0  0
   -3.8680   -2.8800    2.9250 O   0  0  0  0  0  0  0  0  0  0  0  0
   -4.5050   -2.8350    0.6500 C   0  0  0  0  0  0  0  0  0  0  0  0
   -4.9720   -1.4710    0.6570 N   0  0  0  0  0  0  0  0  0  0  0  0
   -6.0380   -1.0980    1.5500 C   0  0  0  0  0  0  0  0  0  0  0  0
   -4.3720   -0.5320   -0.2150 C   0  0  0  0  0  0  0  0  0  0  0  0
   -3.4460   -0.8490   -1.0040 O   0  0  0  0  0  0  0  0  0  0  0  0
   -4.8000    0.8560   -0.2420 C   0  0  0  0  0  0  0  0  0  0  0  0
   -4.1800    1.7540    0.5950 C   0  0  0  0  0  0  0  0  0  0  0  0
   -4.5730    3.0820    0.5840 C   0  0  0  0  0  0  0  0  0  0  0  0
   -5.5880    3.4410   -0.2840 C   0  0  0  0  0  0  0  0  0  0  0  0
   -6.2100    2.5350   -1.1250 C   0  0  0  0  0  0  0  0  0  0  0  0
   -5.8090    1.2140   -1.1050 C   0  0  0  0  0  0  0  0  0  0  0  0
   -6.4190    0.1850   -1.9690 C   0  0  0  0  0  0  0  0  0  0  0  0
   -7.4540    0.6930   -2.8160 N   0  0  0  0  0  0  0  0  0  0  0  0
   -1.1140   -3.0370    0.6860 C   0  0  0  0  0  0  0  0  0  0  0  0
    0.1000   -2.3820    0.4360 C   0  0  0  0  0  0  0  0  0  0  0  0
    4.9900   -1.2780   -0.5350 C   0  0  0  0  0  0  0  0  0  0  0  0
    6.2690   -0.8780   -0.8440 C   0  0  0  0  0  0  0  0  0  0  0  0
  2  1  1  6
  2  3  1  0
  2  5  1  0
  3  4  1  0
  5  6  2  0
  5 34  1  0
  6  7  1  0
  7  8  2  0
  8  9  1  0
  8 33  1  0
  9 10  1  0
 10 11  2  0
 10 12  1  0
 12 13  2  0
 12 32  1  0
 13 14  1  0
 14 15  2  0
 15 16  1  0
 15 31  1  0
 16 17  1  1
 16 18  1  0
 18 19  1  0
 19 20  1  0
 19 21  1  0
 21 22  2  0
 21 23  1  0
 23 24  2  0
 23 28  1  0
 24 25  1  0
 25 26  2  0
 26 27  1  0
 27 28  2  0
 28 29  1  0
 29 30  1  0
 31 32  2  0
 33 34  2  0
M  CHG  2   4   1  30   1
M  END
