
     RDKit          3D

 41 46  0  0  0  0  0  0  0  0999 V2000
   -5.9490    1.5520   -1.8860 C   0  0  0  0  0  0  0  0  0  0  0  0
   -5.7300    0.4040   -0.8960 C   0  0  2  0  0  0  0  0  0  0  0  0
   -6.3090    0.8280    0.3650 N   0  0  0  0  0  0  0  0  0  0  0  0
   -6.1120   -0.2450    1.3190 C   0  0  0  0  0  0  0  0  0  0  0  0
   -7.1690   -1.3330    1.0130 C   0  0  0  0  0  0  0  0  0  0  0  0
   -6.9640   -2.4050    0.2590 C   0  0  0  0  0  0  0  0  0  0  0  0
   -7.9240   -3.3210    0.0250 C   0  0  0  0  0  0  0  0  0  0  0  0
   -9.3310   -2.6240    0.9740 S   0  0  0  0  0  0  0  0  0  0  0  0
   -8.4460   -1.1580    1.5850 C   0  0  0  0  0  0  0  0  0  0  0  0
   -4.2900    0.1720   -0.8150 C   0  0  0  0  0  0  0  0  0  0  0  0
   -3.7550   -0.9640   -1.3850 C   0  0  0  0  0  0  0  0  0  0  0  0
   -2.3810   -1.2300   -1.3360 C   0  0  0  0  0  0  0  0  0  0  0  0
   -1.5750   -0.2990   -0.6850 C   0  0  0  0  0  0  0  0  0  0  0  0
   -0.1390   -0.5190   -0.6010 C   0  0  0  0  0  0  0  0  0  0  0  0
    0.7740    0.4700   -0.8560 C   0  0  0  0  0  0  0  0  0  0  0  0
    2.1130    0.2200   -0.7650 C   0  0  0  0  0  0  0  0  0  0  0  0
    2.5590   -1.0450   -0.4100 C   0  0  0  0  0  0  0  0  0  0  0  0
    3.9480   -1.2540   -0.3490 N   0  0  0  0  0  0  0  0  0  0  0  0
    4.5430   -2.3340    0.3460 C   0  0  0  0  0  0  0  0  0  0  0  0
    3.9170   -3.2040    0.9760 O   0  0  0  0  0  0  0  0  0  0  0  0
    5.9940   -2.4470    0.3300 C   0  0  0  0  0  0  0  0  0  0  0  0
    6.5660   -3.6760    0.4000 C   0  0  0  0  0  0  0  0  0  0  0  0
    7.9000   -3.7200    0.4110 N   0  0  0  0  0  0  0  0  0  0  0  0
    8.6460   -2.5260    0.3510 C   0  0  0  0  0  0  0  0  0  0  0  0
    8.1130   -1.3320    0.2830 C   0  0  0  0  0  0  0  0  0  0  0  0
    6.6970   -1.3080    0.2720 C   0  0  0  0  0  0  0  0  0  0  0  0
    9.5490   -0.3730    0.2490 S   0  0  0  0  0  0  0  0  0  0  0  0
    9.1940    0.5450    1.6570 C   0  0  0  0  0  0  0  0  0  0  0  0
    9.1880    0.4380   -1.2000 C   0  0  0  0  0  0  0  0  0  0  0  0
    9.8420   -1.9670    0.3290 N   0  0  0  0  0  0  0  0  0  0  0  0
    1.6750   -2.0440   -0.1520 C   0  0  0  0  0  0  0  0  0  0  0  0
    0.3080   -1.7800   -0.2480 C   0  0  0  0  0  0  0  0  0  0  0  0
   -2.0930    0.8370   -0.1120 C   0  0  0  0  0  0  0  0  0  0  0  0
   -1.2240    1.7120    0.5150 O   0  0  0  0  0  0  0  0  0  0  0  0
   -1.7380    2.8820    1.1080 C   0  0  0  0  0  0  0  0  0  0  0  0
   -2.5230    2.9560    2.1690 C   0  0  0  0  0  0  0  0  0  0  0  0
   -2.8630    4.3630    2.5030 C   0  0  0  0  0  0  0  0  0  0  0  0
   -2.1950    5.1590    1.5220 N   0  0  0  0  0  0  0  0  0  0  0  0
   -1.5120    4.2530    0.6750 C   0  0  0  0  0  0  0  0  0  0  0  0
   -0.8140    4.6150   -0.3080 O   0  0  0  0  0  0  0  0  0  0  0  0
   -3.4490    1.0860   -0.1700 C   0  0  0  0  0  0  0  0  0  0  0  0
  2  1  1  6
  2  3  1  0
  2 10  1  0
  3  4  1  0
  4  5  1  0
  5  6  1  0
  5  9  2  0
  6  7  2  0
  7  8  1  0
  8  9  1  0
 10 11  2  0
 10 41  1  0
 11 12  1  0
 12 13  2  0
 13 14  1  0
 13 33  1  0
 14 15  2  0
 14 32  1  0
 15 16  1  0
 16 17  2  0
 17 18  1  0
 17 31  1  0
 18 19  1  0
 19 20  2  0
 19 21  1  0
 21 22  2  0
 21 26  1  0
 22 23  1  0
 23 24  2  0
 24 25  1  0
 24 30  1  0
 25 26  2  0
 25 27  1  0
 27 28  1  0
 27 29  1  0
 27 30  2  0
 31 32  2  0
 33 34  1  0
 33 41  2  0
 34 35  1  0
 35 36  2  0
 35 39  1  0
 36 37  1  0
 37 38  1  0
 38 39  1  0
 39 40  2  0
M  CHG  1   3   1
M  END
