
     RDKit          3D

 41 45  0  0  0  0  0  0  0  0999 V2000
   -1.6640    0.5080    6.2610 C   0  0  0  0  0  0  0  0  0  0  0  0
   -1.9770    0.9470    4.8760 C   0  0  0  0  0  0  0  0  0  0  0  0
   -3.2510    1.0340    4.3720 C   0  0  0  0  0  0  0  0  0  0  0  0
   -3.4530    1.4470    3.0870 C   0  0  0  0  0  0  0  0  0  0  0  0
   -2.3950    1.7950    2.2360 C   0  0  0  0  0  0  0  0  0  0  0  0
   -1.0920    1.7140    2.7260 C   0  0  0  0  0  0  0  0  0  0  0  0
   -0.9160    1.2900    4.0400 C   0  0  0  0  0  0  0  0  0  0  0  0
   -0.0060    2.0640    1.8820 N   0  0  0  0  0  0  0  0  0  0  0  0
    1.3570    1.9950    2.3760 C   0  0  0  0  0  0  0  0  0  0  0  0
    2.0040    0.7000    2.1330 C   0  0  0  0  0  0  0  0  0  0  0  0
    1.3320   -0.4090    2.7210 O   0  0  0  0  0  0  0  0  0  0  0  0
    3.1130    0.4580    1.4440 C   0  0  0  0  0  0  0  0  0  0  0  0
    3.8890    1.4660    0.7990 C   0  0  0  0  0  0  0  0  0  0  0  0
    4.9520    1.4330    0.0960 C   0  0  0  0  0  0  0  0  0  0  0  0
    5.7980    0.3540   -0.3390 C   0  0  0  0  0  0  0  0  0  0  0  0
    5.4830   -0.9720   -0.3050 C   0  0  0  0  0  0  0  0  0  0  0  0
    6.3900   -1.9590   -0.6810 C   0  0  0  0  0  0  0  0  0  0  0  0
    7.6580   -1.6620   -1.1110 C   0  0  0  0  0  0  0  0  0  0  0  0
    8.6320   -2.7140   -1.5130 C   0  0  0  0  0  0  0  0  0  0  0  0
    8.4480   -2.9980   -2.9300 N   0  0  0  0  0  0  0  0  0  0  0  0
    7.9800   -0.3250   -1.1500 C   0  0  0  0  0  0  0  0  0  0  0  0
    7.1060    0.6510   -0.7850 C   0  0  0  0  0  0  0  0  0  0  0  0
   -0.3000    2.4880    0.5580 C   0  0  0  0  0  0  0  0  0  0  0  0
    0.6140    2.9850   -0.1270 O   0  0  0  0  0  0  0  0  0  0  0  0
   -1.6510    2.3590   -0.0290 C   0  0  1  0  0  0  0  0  0  0  0  0
   -1.7520    1.1850   -0.9730 C   0  0  0  0  0  0  0  0  0  0  0  0
   -3.0430    1.1210   -1.6140 N   0  0  0  0  0  0  0  0  0  0  0  0
   -3.4100    0.1180   -2.5430 C   0  0  0  0  0  0  0  0  0  0  0  0
   -2.4710   -0.8430   -2.8410 C   0  0  0  0  0  0  0  0  0  0  0  0
   -2.7740   -1.8380   -3.7340 C   0  0  0  0  0  0  0  0  0  0  0  0
   -4.0060   -1.8770   -4.3300 C   0  0  0  0  0  0  0  0  0  0  0  0
   -4.9020   -0.9250   -4.0190 N   0  0  0  0  0  0  0  0  0  0  0  0
   -4.6350    0.0620   -3.1480 C   0  0  0  0  0  0  0  0  0  0  0  0
   -5.8650    1.2820   -2.7920 S   0  0  0  0  0  0  0  0  0  0  0  0
   -6.9260    0.8290   -1.3950 C   0  0  0  0  0  0  0  0  0  0  0  0
   -7.7610   -0.3530   -1.7090 C   0  0  0  0  0  0  0  0  0  0  0  0
   -8.8260   -0.6860   -2.1730 N   0  0  0  0  0  0  0  0  0  0  0  0
   -9.2770   -1.9080   -2.3080 C   0  0  0  0  0  0  0  0  0  0  0  0
   -8.5220   -2.9330   -1.9070 C   0  0  0  0  0  0  0  0  0  0  0  0
   -7.0380   -1.9730   -1.2880 S   0  0  0  0  0  0  0  0  0  0  0  0
   -2.6410    2.2050    0.9530 O   0  0  0  0  0  0  0  0  0  0  0  0
  1  2  1  0
  2  3  2  0
  2  7  1  0
  3  4  1  0
  4  5  2  0
  5  6  1  0
  5 41  1  0
  6  7  2  0
  6  8  1  0
  8  9  1  0
  8 23  1  0
  9 10  1  0
 10 11  1  0
 10 12  2  3
 12 13  1  0
 13 14  2  3
 14 15  1  0
 15 16  2  0
 15 22  1  0
 16 17  1  0
 17 18  2  0
 18 19  1  0
 18 21  1  0
 19 20  1  0
 21 22  2  0
 23 24  2  0
 23 25  1  0
 25 26  1  6
 25 41  1  0
 26 27  1  0
 27 28  1  0
 28 29  2  0
 28 33  1  0
 29 30  1  0
 30 31  2  0
 31 32  1  0
 32 33  2  0
 33 34  1  0
 34 35  1  0
 35 36  1  0
 36 37  2  0
 36 40  1  0
 37 38  1  0
 38 39  2  0
 39 40  1  0
M  CHG  1  20   1
M  END
