
     RDKit          3D

 41 46  0  0  0  0  0  0  0  0999 V2000
   -3.0180    1.1580   -3.9460 C   0  0  0  0  0  0  0  0  0  0  0  0
   -2.7370    1.3600   -2.5820 O   0  0  0  0  0  0  0  0  0  0  0  0
   -1.4680    1.0030   -2.1150 C   0  0  0  0  0  0  0  0  0  0  0  0
   -0.5110    0.4690   -2.9510 C   0  0  0  0  0  0  0  0  0  0  0  0
    0.7240    0.1280   -2.4690 C   0  0  0  0  0  0  0  0  0  0  0  0
    0.9840    0.3360   -1.1150 C   0  0  0  0  0  0  0  0  0  0  0  0
    2.2990   -0.0290   -0.6070 C   0  0  0  0  0  0  0  0  0  0  0  0
    2.9980   -1.0800   -1.1520 C   0  0  0  0  0  0  0  0  0  0  0  0
    4.2450   -1.4080   -0.6510 C   0  0  0  0  0  0  0  0  0  0  0  0
    4.7850   -0.6800    0.3920 C   0  0  0  0  0  0  0  0  0  0  0  0
    6.1170   -1.0490    0.9040 C   0  0  0  0  0  0  0  0  0  0  0  0
    7.1760   -0.2870    0.3090 N   0  0  0  0  0  0  0  0  0  0  0  0
    8.5190   -0.5090    0.6590 C   0  0  0  0  0  0  0  0  0  0  0  0
    8.8020   -1.6890    1.7730 S   0  0  0  0  0  0  0  0  0  0  0  0
    9.6080    0.2220    0.1100 N   0  0  0  0  0  0  0  0  0  0  0  0
    9.3910    1.2410   -0.8200 C   0  0  0  0  0  0  0  0  0  0  0  0
    8.5800    2.1880   -0.5290 N   0  0  0  0  0  0  0  0  0  0  0  0
    4.0860    0.3680    0.9340 C   0  0  0  0  0  0  0  0  0  0  0  0
    2.8440    0.6850    0.4260 C   0  0  0  0  0  0  0  0  0  0  0  0
    0.0110    0.8730   -0.2990 C   0  0  0  0  0  0  0  0  0  0  0  0
   -1.2350    1.2200   -0.7690 C   0  0  0  0  0  0  0  0  0  0  0  0
   -2.1830    1.7430    0.0280 O   0  0  0  0  0  0  0  0  0  0  0  0
   -2.2790    2.0520    1.3430 C   0  0  0  0  0  0  0  0  0  0  0  0
   -2.2290    1.0560    2.3880 C   0  0  0  0  0  0  0  0  0  0  0  0
   -2.1280    1.5000    3.6160 O   0  0  0  0  0  0  0  0  0  0  0  0
   -2.2710   -0.3170    2.2790 N   0  0  0  0  0  0  0  0  0  0  0  0
   -1.9010   -1.1410    3.4480 C   0  0  0  0  0  0  0  0  0  0  0  0
   -0.9880   -2.2490    3.0610 C   0  0  0  0  0  0  0  0  0  0  0  0
   -0.4380   -2.0930    1.6540 C   0  0  0  0  0  0  0  0  0  0  0  0
   -1.5730   -1.9120    0.6810 C   0  0  0  0  0  0  0  0  0  0  0  0
   -2.0560   -2.5150   -0.8330 S   0  0  0  0  0  0  0  0  0  0  0  0
   -3.6240   -1.5840   -0.9460 C   0  0  0  0  0  0  0  0  0  0  0  0
   -4.5230   -1.5990   -1.8930 N   0  0  0  0  0  0  0  0  0  0  0  0
   -5.6170   -0.8610   -1.7740 C   0  0  0  0  0  0  0  0  0  0  0  0
   -5.7370   -0.1180   -0.6370 C   0  0  0  0  0  0  0  0  0  0  0  0
   -4.7950   -0.0810    0.3950 C   0  0  0  0  0  0  0  0  0  0  0  0
   -3.6290   -0.8680    0.2450 C   0  0  0  0  0  0  0  0  0  0  0  0
   -2.5940   -1.0230    1.0690 C   0  0  0  0  0  0  0  0  0  0  0  0
   -5.3740    0.7190    1.4540 C   0  0  0  0  0  0  0  0  0  0  0  0
   -6.1120    1.7930    0.5980 C   0  0  0  0  0  0  0  0  0  0  0  0
   -6.8800    0.7980   -0.2860 C   0  0  0  0  0  0  0  0  0  0  0  0
  1  2  1  0
  2  3  1  0
  3  4  2  0
  3 21  1  0
  4  5  1  0
  5  6  2  0
  6  7  1  0
  6 20  1  0
  7  8  2  0
  7 19  1  0
  8  9  1  0
  9 10  2  0
 10 11  1  0
 10 18  1  0
 11 12  1  0
 12 13  1  0
 13 14  2  0
 13 15  1  0
 15 16  1  0
 16 17  2  0
 18 19  2  0
 20 21  2  0
 21 22  1  0
 22 23  1  0
 23 24  1  0
 24 25  2  0
 24 26  1  0
 26 27  1  0
 26 38  1  0
 27 28  1  0
 28 29  1  0
 29 30  1  0
 30 31  1  0
 30 38  2  0
 31 32  1  0
 32 33  2  0
 32 37  1  0
 33 34  1  0
 34 35  2  0
 35 36  1  0
 35 41  1  0
 36 37  2  0
 36 39  1  0
 37 38  1  0
 39 40  1  0
 40 41  1  0
M  CHG  1  33   1
M  END
