
     RDKit          3D

 40 45  0  0  0  0  0  0  0  0999 V2000
   -8.0850    3.5180    0.6760 N   0  0  0  0  0  0  0  0  0  0  0  0
   -7.4170    2.5870   -0.2140 C   0  0  0  0  0  0  0  0  0  0  0  0
   -7.1660    1.2880    0.4970 C   0  0  0  0  0  0  0  0  0  0  0  0
   -7.5520    1.1040    1.8020 C   0  0  0  0  0  0  0  0  0  0  0  0
   -7.3040   -0.1160    2.4320 C   0  0  0  0  0  0  0  0  0  0  0  0
   -6.6750   -1.1340    1.7530 C   0  0  0  0  0  0  0  0  0  0  0  0
   -6.3150   -0.9100    0.4740 N   0  0  0  0  0  0  0  0  0  0  0  0
   -6.5410    0.2580   -0.1610 C   0  0  0  0  0  0  0  0  0  0  0  0
   -6.1410    0.4250   -1.4890 O   0  0  0  0  0  0  0  0  0  0  0  0
   -5.5090   -0.6090   -2.1600 C   0  0  0  0  0  0  0  0  0  0  0  0
   -6.0350   -1.1670   -3.3060 C   0  0  0  0  0  0  0  0  0  0  0  0
   -5.3860   -2.1990   -3.9590 C   0  0  0  0  0  0  0  0  0  0  0  0
   -4.1840   -2.6870   -3.4600 C   0  0  0  0  0  0  0  0  0  0  0  0
   -3.6650   -2.1260   -2.3150 C   0  0  0  0  0  0  0  0  0  0  0  0
   -4.3200   -1.0880   -1.6600 C   0  0  0  0  0  0  0  0  0  0  0  0
   -3.8010   -0.5180   -0.5060 O   0  0  0  0  0  0  0  0  0  0  0  0
   -2.6060   -0.9700    0.0310 C   0  0  0  0  0  0  0  0  0  0  0  0
   -2.6530   -1.9900    0.9520 C   0  0  0  0  0  0  0  0  0  0  0  0
   -1.4640   -2.4390    1.4860 C   0  0  0  0  0  0  0  0  0  0  0  0
   -0.2640   -1.8600    1.0880 C   0  0  0  0  0  0  0  0  0  0  0  0
   -0.2160   -0.8300    0.1580 C   0  0  0  0  0  0  0  0  0  0  0  0
    1.0210   -0.2190   -0.2640 C   0  0  0  0  0  0  0  0  0  0  0  0
    1.1600    0.7650   -1.1430 N   0  0  0  0  0  0  0  0  0  0  0  0
    2.4640    1.0510   -1.2630 N   0  0  0  0  0  0  0  0  0  0  0  0
    3.1680    0.2450   -0.4550 C   0  0  0  0  0  0  0  0  0  0  0  0
    4.6270    0.2920   -0.3410 C   0  0  0  0  0  0  0  0  0  0  0  0
    5.2010   -0.5550    0.4900 C   0  0  0  0  0  0  0  0  0  0  0  0
    6.5810   -0.8190    0.8780 C   0  0  0  0  0  0  0  0  0  0  0  0
    6.6630   -1.8660    1.7970 C   0  0  0  0  0  0  0  0  0  0  0  0
    7.8730   -2.2860    2.3020 C   0  0  0  0  0  0  0  0  0  0  0  0
    9.0170   -1.6690    1.8990 C   0  0  0  0  0  0  0  0  0  0  0  0
    8.9350   -0.6420    0.9970 C   0  0  0  0  0  0  0  0  0  0  0  0
    7.7280   -0.1820    0.4580 C   0  0  0  0  0  0  0  0  0  0  0  0
    7.9700    0.9200   -0.4720 C   0  0  0  0  0  0  0  0  0  0  0  0
    6.9540    2.0130   -0.4660 C   0  0  1  0  0  0  0  0  0  0  0  0
    7.5630    3.2330   -1.1360 C   0  0  0  0  0  0  0  0  0  0  0  0
    8.6960    3.6270   -0.4270 O   0  0  0  0  0  0  0  0  0  0  0  0
    5.4560    1.5050   -1.3540 S   0  0  0  0  0  0  0  0  0  0  0  0
    2.2830   -0.5320    0.1550 N   0  0  0  0  0  0  0  0  0  0  0  0
   -1.4110   -0.3930   -0.3660 C   0  0  0  0  0  0  0  0  0  0  0  0
  1  2  1  0
  2  3  1  0
  3  4  2  0
  3  8  1  0
  4  5  1  0
  5  6  2  0
  6  7  1  0
  7  8  2  0
  8  9  1  0
  9 10  1  0
 10 11  2  0
 10 15  1  0
 11 12  1  0
 12 13  2  0
 13 14  1  0
 14 15  2  0
 15 16  1  0
 16 17  1  0
 17 18  2  0
 17 40  1  0
 18 19  1  0
 19 20  2  0
 20 21  1  0
 21 22  1  0
 21 40  2  0
 22 23  2  0
 22 39  1  0
 23 24  1  0
 24 25  1  0
 25 26  1  0
 25 39  2  0
 26 27  2  0
 26 38  1  0
 27 28  1  0
 28 29  2  0
 28 33  1  0
 29 30  1  0
 30 31  2  0
 31 32  1  0
 32 33  2  0
 33 34  1  0
 34 35  1  0
 35 36  1  6
 35 38  1  0
 36 37  1  0
M  CHG  1   1   1
M  END
