
     RDKit          3D

 35 39  0  0  0  0  0  0  0  0999 V2000
   -9.8060    1.7570   -1.4370 C   0  0  0  0  0  0  0  0  0  0  0  0
   -8.5390    1.2880   -1.0270 O   0  0  0  0  0  0  0  0  0  0  0  0
   -8.2320    1.0840    0.3120 C   0  0  0  0  0  0  0  0  0  0  0  0
   -9.1950    1.3500    1.2570 C   0  0  0  0  0  0  0  0  0  0  0  0
   -8.9190    1.1580    2.5860 C   0  0  0  0  0  0  0  0  0  0  0  0
   -7.6830    0.7030    2.9410 C   0  0  0  0  0  0  0  0  0  0  0  0
   -6.6960    0.4300    1.9860 C   0  0  0  0  0  0  0  0  0  0  0  0
   -6.9490    0.6140    0.6590 C   0  0  0  0  0  0  0  0  0  0  0  0
   -6.0600    0.3850   -0.3950 N   0  0  0  0  0  0  0  0  0  0  0  0
   -4.7180   -0.1040   -0.2480 C   0  0  0  0  0  0  0  0  0  0  0  0
   -4.2870   -0.3520    0.8800 O   0  0  0  0  0  0  0  0  0  0  0  0
   -3.9420   -0.2750   -1.4800 C   0  0  0  0  0  0  0  0  0  0  0  0
   -2.5960   -0.7950   -1.2600 C   0  0  0  0  0  0  0  0  0  0  0  0
   -1.9630   -1.1350   -0.1700 C   0  0  0  0  0  0  0  0  0  0  0  0
   -0.5940   -1.6100   -0.4980 C   0  0  0  0  0  0  0  0  0  0  0  0
    0.4000   -2.0700    0.4170 N   0  0  0  0  0  0  0  0  0  0  0  0
    1.7920   -2.2030    0.0500 C   0  0  0  0  0  0  0  0  0  0  0  0
    2.3810   -0.8030   -0.1780 C   0  0  1  0  0  0  0  0  0  0  0  0
    2.2670    0.0050    1.0830 C   0  0  0  0  0  0  0  0  0  0  0  0
    2.6790    1.4300    0.7470 C   0  0  0  0  0  0  0  0  0  0  0  0
    3.6000    1.3850   -0.4390 C   0  0  0  0  0  0  0  0  0  0  0  0
    4.5340    0.2530   -0.3360 N   0  0  0  0  0  0  0  0  0  0  0  0
    5.8680    0.5030   -0.0370 C   0  0  0  0  0  0  0  0  0  0  0  0
    6.2360    1.7100    0.5620 C   0  0  0  0  0  0  0  0  0  0  0  0
    7.5350    2.0030    0.9120 C   0  0  0  0  0  0  0  0  0  0  0  0
    8.5050    1.0710    0.6620 C   0  0  0  0  0  0  0  0  0  0  0  0
    8.1590   -0.1240    0.0720 C   0  0  0  0  0  0  0  0  0  0  0  0
    6.8490   -0.4480   -0.2940 C   0  0  0  0  0  0  0  0  0  0  0  0
    6.8500   -1.6440   -0.8440 C   0  0  0  0  0  0  0  0  0  0  0  0
    8.2230   -2.2060   -0.8480 C   0  0  0  0  0  0  0  0  0  0  0  0
    8.9900   -1.1180   -0.2350 C   0  0  0  0  0  0  0  0  0  0  0  0
    3.8700   -1.0110   -0.5410 C   0  0  0  0  0  0  0  0  0  0  0  0
   -0.4350   -1.5470   -1.7570 N   0  0  0  0  0  0  0  0  0  0  0  0
   -1.6070   -1.0550   -2.3510 C   0  0  0  0  0  0  0  0  0  0  0  0
   -1.8800   -0.8370   -3.5590 O   0  0  0  0  0  0  0  0  0  0  0  0
  1  2  1  0
  2  3  1  0
  3  4  2  0
  3  8  1  0
  4  5  1  0
  5  6  2  0
  6  7  1  0
  7  8  2  0
  8  9  1  0
  9 10  1  0
 10 11  2  0
 10 12  1  0
 12 13  1  0
 13 14  2  0
 13 34  1  0
 14 15  1  0
 15 16  1  0
 15 33  2  0
 16 17  1  0
 18 17  1  1
 18 19  1  0
 18 32  1  0
 19 20  1  0
 20 21  1  0
 21 22  1  0
 22 23  1  0
 22 32  1  0
 23 24  2  0
 23 28  1  0
 24 25  1  0
 25 26  2  0
 26 27  1  0
 27 28  1  0
 27 31  2  0
 28 29  2  0
 29 30  1  0
 30 31  1  0
 33 34  1  0
 34 35  2  0
M  END
