
     RDKit          3D

 35 38  0  0  0  0  0  0  0  0999 V2000
   -2.6460    1.8310    1.0410 O   0  0  0  0  0  0  0  0  0  0  0  0
   -3.4350    1.0470    0.4490 C   0  0  0  0  0  0  0  0  0  0  0  0
   -3.4210   -0.3210    0.8350 N   0  0  0  0  0  0  0  0  0  0  0  0
   -2.5430   -0.8290    1.8710 C   0  0  1  0  0  0  0  0  0  0  0  0
   -3.3760   -1.4490    2.9850 C   0  0  0  0  0  0  0  0  0  0  0  0
   -4.5980   -2.0020    2.4570 N   0  0  0  0  0  0  0  0  0  0  0  0
   -4.4350   -3.2500    1.7830 C   0  0  0  0  0  0  0  0  0  0  0  0
   -3.0410   -3.7480    1.7010 C   0  0  0  0  0  0  0  0  0  0  0  0
   -2.2520   -2.9480    0.6730 C   0  0  0  0  0  0  0  0  0  0  0  0
   -1.5520   -1.8390    1.4160 C   0  0  1  0  0  0  0  0  0  0  0  0
   -0.4640   -1.3040    0.6850 O   0  0  0  0  0  0  0  0  0  0  0  0
    0.8380   -1.4210    1.1420 C   0  0  0  0  0  0  0  0  0  0  0  0
    0.9840   -2.0380    2.2500 O   0  0  0  0  0  0  0  0  0  0  0  0
    1.9800   -0.8840    0.4210 C   0  0  0  0  0  0  0  0  0  0  0  0
    1.8460   -0.2080   -0.7690 C   0  0  0  0  0  0  0  0  0  0  0  0
    2.9190    0.3030   -1.4600 C   0  0  0  0  0  0  0  0  0  0  0  0
    4.2060    0.1340   -0.9400 C   0  0  0  0  0  0  0  0  0  0  0  0
    5.3230    0.6540   -1.7310 C   0  0  0  0  0  0  0  0  0  0  0  0
    5.2180    0.5800   -2.9970 O   0  0  0  0  0  0  0  0  0  0  0  0
    6.5070    1.2310   -1.1580 C   0  0  0  0  0  0  0  0  0  0  0  0
    6.4920    1.6560    0.1780 C   0  0  0  0  0  0  0  0  0  0  0  0
    7.6030    2.2510    0.6910 C   0  0  0  0  0  0  0  0  0  0  0  0
    8.7380    2.4570   -0.0350 C   0  0  0  0  0  0  0  0  0  0  0  0
    8.7610    2.0470   -1.3370 C   0  0  0  0  0  0  0  0  0  0  0  0
    7.6440    1.4290   -1.9100 C   0  0  0  0  0  0  0  0  0  0  0  0
    7.7770    1.0580   -3.2160 O   0  0  0  0  0  0  0  0  0  0  0  0
    4.3670   -0.5270    0.2260 C   0  0  0  0  0  0  0  0  0  0  0  0
    3.2540   -1.0390    0.9130 C   0  0  0  0  0  0  0  0  0  0  0  0
   -4.3060    1.5900   -0.5870 C   0  0  0  0  0  0  0  0  0  0  0  0
   -5.1990    0.8320   -1.3100 C   0  0  0  0  0  0  0  0  0  0  0  0
   -6.0200    1.3890   -2.2960 C   0  0  0  0  0  0  0  0  0  0  0  0
   -5.9640    2.7350   -2.5830 C   0  0  0  0  0  0  0  0  0  0  0  0
   -6.7730    3.3140   -3.5620 O   0  0  0  0  0  0  0  0  0  0  0  0
   -5.0700    3.4960   -1.8600 C   0  0  0  0  0  0  0  0  0  0  0  0
   -4.2600    2.9520   -0.8880 C   0  0  0  0  0  0  0  0  0  0  0  0
  1  2  2  0
  2  3  1  0
  2 29  1  0
  4  3  1  6
  4  5  1  0
  4 10  1  0
  5  6  1  0
  6  7  1  0
  7  8  1  0
  8  9  1  0
  9 10  1  0
 10 11  1  6
 11 12  1  0
 12 13  2  0
 12 14  1  0
 14 15  2  0
 14 28  1  0
 15 16  1  0
 16 17  2  0
 17 18  1  0
 17 27  1  0
 18 19  2  0
 18 20  1  0
 20 21  2  0
 20 25  1  0
 21 22  1  0
 22 23  2  0
 23 24  1  0
 24 25  2  0
 25 26  1  0
 27 28  2  0
 29 30  2  0
 29 35  1  0
 30 31  1  0
 31 32  2  0
 32 33  1  0
 32 34  1  0
 34 35  2  0
M  END
