
     RDKit          3D

 35 38  0  0  0  0  0  0  0  0999 V2000
   -6.8010   -1.6190    1.5000 C   0  0  0  0  0  0  0  0  0  0  0  0
   -7.3040   -0.6440    0.5270 C   0  0  0  0  0  0  0  0  0  0  0  0
   -8.6410   -0.6630    0.2110 C   0  0  0  0  0  0  0  0  0  0  0  0
   -9.4840   -1.5770    0.7960 F   0  0  0  0  0  0  0  0  0  0  0  0
   -9.1060    0.2540   -0.7020 C   0  0  0  0  0  0  0  0  0  0  0  0
   -8.2810    1.1870   -1.3090 C   0  0  0  0  0  0  0  0  0  0  0  0
   -6.9490    1.1770   -0.9680 C   0  0  0  0  0  0  0  0  0  0  0  0
   -5.8900    2.3480   -1.7240 Cl  0  0  0  0  0  0  0  0  0  0  0  0
   -6.4650    0.2580   -0.0490 C   0  0  0  0  0  0  0  0  0  0  0  0
   -5.1070    0.3240    0.2320 O   0  0  0  0  0  0  0  0  0  0  0  0
   -4.2600   -0.4800   -0.6010 C   0  0  0  0  0  0  0  0  0  0  0  0
   -2.8360   -0.3400   -0.2230 C   0  0  0  0  0  0  0  0  0  0  0  0
   -2.3170   -1.2060    0.7250 C   0  0  0  0  0  0  0  0  0  0  0  0
   -1.0150   -1.0590    1.0550 C   0  0  0  0  0  0  0  0  0  0  0  0
   -0.5290   -1.8520    1.9260 O   0  0  0  0  0  0  0  0  0  0  0  0
   -0.1690   -0.1090    0.5140 N   0  0  0  0  0  0  0  0  0  0  0  0
   -0.6950    0.6930   -0.3800 C   0  0  0  0  0  0  0  0  0  0  0  0
   -2.0200    0.5860   -0.7530 N   0  0  0  0  0  0  0  0  0  0  0  0
    0.2950    1.9420   -1.1460 S   0  0  0  0  0  0  0  0  0  0  0  0
    1.8060    2.0270   -0.1730 C   0  0  0  0  0  0  0  0  0  0  0  0
    2.1880    0.5500    0.1050 C   0  0  1  0  0  0  0  0  0  0  0  0
    3.5030    0.5830    0.4140 O   0  0  0  0  0  0  0  0  0  0  0  0
    4.5880    0.1720   -0.3190 C   0  0  0  0  0  0  0  0  0  0  0  0
    4.2270   -0.2910   -1.4270 O   0  0  0  0  0  0  0  0  0  0  0  0
    5.9620    0.2410    0.0820 C   0  0  0  0  0  0  0  0  0  0  0  0
    6.3070    0.7570    1.3050 C   0  0  0  0  0  0  0  0  0  0  0  0
    7.6580    0.8110    1.6680 C   0  0  0  0  0  0  0  0  0  0  0  0
    8.6370    0.3540    0.8130 C   0  0  0  0  0  0  0  0  0  0  0  0
    9.9640    0.4060    1.1680 F   0  0  0  0  0  0  0  0  0  0  0  0
    8.2890   -0.1640   -0.4150 C   0  0  0  0  0  0  0  0  0  0  0  0
    9.2950   -0.6720   -1.3820 C   0  0  1  0  0  0  0  0  0  0  0  0
    9.0010   -2.0170   -1.6280 F   0  0  0  0  0  0  0  0  0  0  0  0
    9.2720    0.0090   -2.5760 F   0  0  0  0  0  0  0  0  0  0  0  0
    6.9420   -0.2130   -0.7660 C   0  0  0  0  0  0  0  0  0  0  0  0
    1.1990   -0.0820    0.9780 C   0  0  0  0  0  0  0  0  0  0  0  0
  1  2  1  0
  2  3  2  0
  2  9  1  0
  3  4  1  0
  3  5  1  0
  5  6  2  0
  6  7  1  0
  7  8  1  0
  7  9  2  0
  9 10  1  0
 10 11  1  0
 11 12  1  0
 12 13  2  0
 12 18  1  0
 13 14  1  0
 14 15  2  0
 14 16  1  0
 16 17  1  0
 16 35  1  0
 17 18  2  0
 17 19  1  0
 19 20  1  0
 20 21  1  0
 21 22  1  1
 21 35  1  0
 22 23  1  0
 23 24  2  0
 23 25  1  0
 25 26  2  0
 25 34  1  0
 26 27  1  0
 27 28  2  0
 28 29  1  0
 28 30  1  0
 30 31  1  0
 30 34  2  0
 31 32  1  6
 31 33  1  0
M  END
