
     RDKit          3D

 35 38  0  0  0  0  0  0  0  0999 V2000
    3.4560   -0.3620    1.5050 O   0  0  0  0  0  0  0  0  0  0  0  0
    3.3830   -0.5740    0.2860 C   0  0  0  0  0  0  0  0  0  0  0  0
    4.4530   -0.2670   -0.5620 N   0  0  0  0  0  0  0  0  0  0  0  0
    5.7180    0.3030   -0.1660 C   0  0  0  0  0  0  0  0  0  0  0  0
    6.0300    0.6190    1.1270 C   0  0  0  0  0  0  0  0  0  0  0  0
    7.2790    1.1670    1.4190 C   0  0  0  0  0  0  0  0  0  0  0  0
    8.2020    1.3970    0.4380 C   0  0  0  0  0  0  0  0  0  0  0  0
    9.4340    1.9310    0.6810 F   0  0  0  0  0  0  0  0  0  0  0  0
    7.8830    1.0770   -0.8610 C   0  0  0  0  0  0  0  0  0  0  0  0
    6.6710    0.5470   -1.1330 C   0  0  0  0  0  0  0  0  0  0  0  0
    6.3790    0.2410   -2.4140 F   0  0  0  0  0  0  0  0  0  0  0  0
    2.1420   -1.1570   -0.2470 C   0  0  0  0  0  0  0  0  0  0  0  0
    1.9940   -1.6440   -1.5190 C   0  0  0  0  0  0  0  0  0  0  0  0
    0.7920   -2.1790   -1.9690 C   0  0  0  0  0  0  0  0  0  0  0  0
    0.6930   -2.6480   -3.2330 F   0  0  0  0  0  0  0  0  0  0  0  0
   -0.2960   -2.2310   -1.1300 C   0  0  0  0  0  0  0  0  0  0  0  0
   -0.1690   -1.7460    0.1530 C   0  0  0  0  0  0  0  0  0  0  0  0
   -1.5750   -1.8260    1.1990 S   0  0  2  0  0  0  0  0  0  0  0  0
   -1.0720   -1.8990    2.6210 O   0  0  0  0  0  0  0  0  0  0  0  0
   -2.4060   -3.0290    0.9390 O   0  0  0  0  0  0  0  0  0  0  0  0
   -2.5300   -0.3950    1.0720 N   0  0  0  0  0  0  0  0  0  0  0  0
   -1.7820    0.7550    1.4790 C   0  0  0  0  0  0  0  0  0  0  0  0
   -2.5680    1.9960    1.0470 C   0  0  0  0  0  0  0  0  0  0  0  0
   -2.7240    2.0490   -0.3160 O   0  0  0  0  0  0  0  0  0  0  0  0
   -2.4380    0.8580   -0.9680 C   0  0  0  0  0  0  0  0  0  0  0  0
   -3.1230   -0.2650   -0.2460 C   0  0  2  0  0  0  0  0  0  0  0  0
   -4.5600    0.0310   -0.0860 C   0  0  0  0  0  0  0  0  0  0  0  0
   -5.2960   -0.6750    0.8290 C   0  0  0  0  0  0  0  0  0  0  0  0
   -6.6540   -0.3920    0.9750 C   0  0  0  0  0  0  0  0  0  0  0  0
   -7.3800   -1.0960    1.8840 F   0  0  0  0  0  0  0  0  0  0  0  0
   -7.2770    0.5710    0.2320 C   0  0  0  0  0  0  0  0  0  0  0  0
   -6.5250    1.2800   -0.6900 C   0  0  0  0  0  0  0  0  0  0  0  0
   -7.3070    2.5120   -1.6460 Cl  0  0  0  0  0  0  0  0  0  0  0  0
   -5.1680    1.0000   -0.8390 C   0  0  0  0  0  0  0  0  0  0  0  0
    1.0300   -1.2230    0.5720 C   0  0  0  0  0  0  0  0  0  0  0  0
  1  2  2  0
  2  3  1  0
  2 12  1  0
  3  4  1  0
  4  5  2  0
  4 10  1  0
  5  6  1  0
  6  7  2  0
  7  8  1  0
  7  9  1  0
  9 10  2  0
 10 11  1  0
 12 13  2  0
 12 35  1  0
 13 14  1  0
 14 15  1  0
 14 16  2  0
 16 17  1  0
 17 18  1  0
 17 35  2  0
 18 19  2  0
 18 20  2  0
 18 21  1  1
 21 22  1  0
 21 26  1  0
 22 23  1  0
 23 24  1  0
 24 25  1  0
 25 26  1  0
 26 27  1  1
 27 28  2  0
 27 34  1  0
 28 29  1  0
 29 30  1  0
 29 31  2  0
 31 32  1  0
 32 33  1  0
 32 34  2  0
M  END
