
     RDKit          3D

 34 37  0  0  0  0  0  0  0  0999 V2000
   -4.0990   -1.9020   -1.6700 C   0  0  0  0  0  0  0  0  0  0  0  0
   -3.6770   -1.0270   -0.5390 C   0  0  0  0  0  0  0  0  0  0  0  0
   -2.6450   -1.3210    0.2700 N   0  0  0  0  0  0  0  0  0  0  0  0
   -2.2980   -0.5050    1.2740 C   0  0  0  0  0  0  0  0  0  0  0  0
   -0.9330   -0.8650    2.3710 S   0  0  0  0  0  0  0  0  0  0  0  0
    0.5390   -0.1720    1.6640 C   0  0  0  0  0  0  0  0  0  0  0  0
    1.3200   -0.9320    0.8250 C   0  0  0  0  0  0  0  0  0  0  0  0
    2.4850   -0.4140    0.2570 C   0  0  0  0  0  0  0  0  0  0  0  0
    2.8150    0.8840    0.5720 C   0  0  0  0  0  0  0  0  0  0  0  0
    4.0160    1.4670   -0.0110 C   0  0  0  0  0  0  0  0  0  0  0  0
    3.9710    2.6830   -0.3200 O   0  0  0  0  0  0  0  0  0  0  0  0
    5.1930    0.6710   -0.2150 C   0  0  0  0  0  0  0  0  0  0  0  0
    5.4320   -0.4900    0.4910 C   0  0  0  0  0  0  0  0  0  0  0  0
    6.5730   -1.2560    0.2810 C   0  0  0  0  0  0  0  0  0  0  0  0
    7.4700   -0.8170   -0.6650 C   0  0  0  0  0  0  0  0  0  0  0  0
    7.2460    0.3330   -1.3730 C   0  0  0  0  0  0  0  0  0  0  0  0
    6.1070    1.0870   -1.1550 C   0  0  0  0  0  0  0  0  0  0  0  0
    8.3140    0.5060   -2.2370 O   0  0  0  0  0  0  0  0  0  0  0  0
    9.3920   -0.2820   -1.7290 C   0  0  0  0  0  0  0  0  0  0  0  0
    8.6780   -1.3360   -1.1040 O   0  0  0  0  0  0  0  0  0  0  0  0
    2.0400    1.6640    1.4140 C   0  0  0  0  0  0  0  0  0  0  0  0
    2.4360    2.9340    1.6700 F   0  0  0  0  0  0  0  0  0  0  0  0
    0.8890    1.1260    1.9650 C   0  0  0  0  0  0  0  0  0  0  0  0
   -3.0050    0.6180    1.4560 N   0  0  0  0  0  0  0  0  0  0  0  0
   -4.0440    0.9490    0.6660 C   0  0  0  0  0  0  0  0  0  0  0  0
   -4.6740    2.0420    0.8910 O   0  0  0  0  0  0  0  0  0  0  0  0
   -4.4280    0.1410   -0.3660 C   0  0  0  0  0  0  0  0  0  0  0  0
   -5.5140    0.4750   -1.2760 C   0  0  0  0  0  0  0  0  0  0  0  0
   -6.7590    0.6140   -0.9190 C   0  0  0  0  0  0  0  0  0  0  0  0
   -7.9610    1.0340   -2.1510 Cl  0  0  0  0  0  0  0  0  0  0  0  0
   -7.2720    0.4020    0.4440 C   0  0  1  0  0  0  0  0  0  0  0  0
   -8.5160   -0.5020    0.2580 C   0  0  0  0  0  0  0  0  0  0  0  0
   -6.3960   -0.2720    1.2790 F   0  0  0  0  0  0  0  0  0  0  0  0
   -7.6520    1.5800    1.0330 F   0  0  0  0  0  0  0  0  0  0  0  0
  1  2  1  0
  2  3  1  0
  2 27  2  0
  3  4  2  0
  4  5  1  0
  4 24  1  0
  5  6  1  0
  6  7  2  0
  6 23  1  0
  7  8  1  0
  8  9  2  0
  9 10  1  0
  9 21  1  0
 10 11  2  0
 10 12  1  0
 12 13  2  0
 12 17  1  0
 13 14  1  0
 14 15  2  0
 15 16  1  0
 15 20  1  0
 16 17  2  0
 16 18  1  0
 18 19  1  0
 19 20  1  0
 21 22  1  0
 21 23  2  0
 24 25  1  0
 25 26  2  0
 25 27  1  0
 27 28  1  0
 28 29  2  3
 29 30  1  0
 29 31  1  0
 31 32  1  6
 31 33  1  0
 31 34  1  0
M  END
