
     RDKit          3D

 37 43  0  0  0  0  0  0  0  0999 V2000
    8.9380    2.7800    0.1980 C   0  0  0  0  0  0  0  0  0  0  0  0
    8.9020    1.2940   -0.0480 C   0  0  0  0  0  0  0  0  0  0  0  0
    9.9850    0.4560   -0.2130 C   0  0  0  0  0  0  0  0  0  0  0  0
    9.4880   -0.8290   -0.4190 C   0  0  0  0  0  0  0  0  0  0  0  0
   10.3600   -2.0170   -0.6350 C   0  0  0  0  0  0  0  0  0  0  0  0
    8.1450   -0.7940   -0.3830 N   0  0  0  0  0  0  0  0  0  0  0  0
    7.0630   -1.5530   -0.4870 N   0  0  0  0  0  0  0  0  0  0  0  0
    5.9380   -0.8000   -0.3350 C   0  0  0  0  0  0  0  0  0  0  0  0
    4.6230   -1.0670   -0.3490 N   0  0  0  0  0  0  0  0  0  0  0  0
    3.7330   -0.0990   -0.1640 C   0  0  0  0  0  0  0  0  0  0  0  0
    2.3020   -0.3450   -0.1820 N   0  0  0  0  0  0  0  0  0  0  0  0
    1.9210   -1.6820   -0.5370 C   0  0  0  0  0  0  0  0  0  0  0  0
    0.4120   -1.8540   -0.6140 C   0  0  0  0  0  0  0  0  0  0  0  0
   -0.1440   -1.0600    0.5510 C   0  0  2  0  0  0  0  0  0  0  0  0
   -1.5500   -1.4410    0.8940 C   0  0  0  0  0  0  0  0  0  0  0  0
   -2.5300   -0.4140    0.7030 N   0  0  2  0  0  0  0  0  0  0  0  0
   -3.1570   -0.5560   -0.6150 C   0  0  0  0  0  0  0  0  0  0  0  0
   -4.4090    0.2310   -0.7370 C   0  0  0  0  0  0  0  0  0  0  0  0
   -4.4040    1.4420   -1.3940 C   0  0  0  0  0  0  0  0  0  0  0  0
   -5.5500    2.2110   -1.5340 C   0  0  0  0  0  0  0  0  0  0  0  0
   -6.7380    1.7600   -1.0030 C   0  0  0  0  0  0  0  0  0  0  0  0
   -6.7930    0.5430   -0.3300 C   0  0  0  0  0  0  0  0  0  0  0  0
   -8.0430    0.1110    0.1980 N   0  0  0  0  0  0  0  0  0  0  0  0
   -8.8800    0.7260    1.2100 C   0  0  0  0  0  0  0  0  0  0  0  0
  -10.2100    0.0080    1.0950 C   0  0  0  0  0  0  0  0  0  0  0  0
   -9.8620   -1.3880    0.5650 C   0  0  0  0  0  0  0  0  0  0  0  0
   -8.6750   -1.0870   -0.2510 C   0  0  0  0  0  0  0  0  0  0  0  0
   -8.2890   -1.8120   -1.2180 O   0  0  0  0  0  0  0  0  0  0  0  0
   -5.6200   -0.1920   -0.2140 C   0  0  0  0  0  0  0  0  0  0  0  0
   -2.1690    0.9110    1.0420 C   0  0  0  0  0  0  0  0  0  0  0  0
   -0.7050    1.1390    1.3450 C   0  0  0  0  0  0  0  0  0  0  0  0
    0.0470    0.3800    0.2600 C   0  0  1  0  0  0  0  0  0  0  0  0
    1.4630    0.7620    0.1510 C   0  0  0  0  0  0  0  0  0  0  0  0
    4.1810    1.1400    0.0350 N   0  0  0  0  0  0  0  0  0  0  0  0
    5.4700    1.4590    0.0580 C   0  0  0  0  0  0  0  0  0  0  0  0
    6.4180    0.4750   -0.1310 C   0  0  0  0  0  0  0  0  0  0  0  0
    7.7960    0.4920   -0.1590 C   0  0  0  0  0  0  0  0  0  0  0  0
  1  2  1  0
  2  3  1  0
  2 37  2  0
  3  4  2  0
  4  5  1  0
  4  6  1  0
  6  7  1  0
  6 37  1  0
  7  8  1  0
  8  9  2  0
  8 36  1  0
  9 10  1  0
 10 11  1  0
 10 34  2  0
 11 12  1  0
 11 33  1  0
 12 13  1  0
 14 13  1  6
 14 15  1  0
 14 32  1  0
 15 16  1  0
 16 17  1  6
 16 30  1  0
 17 18  1  0
 18 19  2  0
 18 29  1  0
 19 20  1  0
 20 21  2  0
 21 22  1  0
 22 23  1  0
 22 29  2  0
 23 24  1  0
 23 27  1  0
 24 25  1  0
 25 26  1  0
 26 27  1  0
 27 28  2  0
 30 31  1  0
 32 31  1  1
 32 33  1  0
 34 35  1  0
 35 36  2  0
 36 37  1  0
M  CHG  1  16   1
M  END
