
     RDKit          3D

 38 43  0  0  0  0  0  0  0  0999 V2000
    2.3830   -2.5460    0.6010 O   0  0  0  0  0  0  0  0  0  0  0  0
    1.8450   -1.4040    0.4840 C   0  0  0  0  0  0  0  0  0  0  0  0
    2.5750   -0.2720    0.7050 C   0  0  0  0  0  0  0  0  0  0  0  0
    3.9730   -0.2810    1.0770 C   0  0  0  0  0  0  0  0  0  0  0  0
    4.4790   -1.1320    2.0390 C   0  0  0  0  0  0  0  0  0  0  0  0
    5.8170   -1.1120    2.3640 C   0  0  0  0  0  0  0  0  0  0  0  0
    6.7060   -0.2290    1.7310 C   0  0  0  0  0  0  0  0  0  0  0  0
    8.0130   -0.2470    2.0890 F   0  0  0  0  0  0  0  0  0  0  0  0
    6.2150    0.6190    0.7770 C   0  0  0  0  0  0  0  0  0  0  0  0
    7.0520    1.5880    0.0580 C   0  0  0  0  0  0  0  0  0  0  0  0
    8.3920    1.7420    0.1910 C   0  0  0  0  0  0  0  0  0  0  0  0
    9.0750    2.7060   -0.5610 C   0  0  0  0  0  0  0  0  0  0  0  0
    8.4050    3.4980   -1.4320 C   0  0  0  0  0  0  0  0  0  0  0  0
    7.0370    3.3340   -1.5620 C   0  0  0  0  0  0  0  0  0  0  0  0
    6.4250    2.4120   -0.8340 N   0  0  0  0  0  0  0  0  0  0  0  0
    4.8490    0.5720    0.4710 C   0  0  0  0  0  0  0  0  0  0  0  0
    1.9670    0.9220    0.5700 N   0  0  0  0  0  0  0  0  0  0  0  0
    0.7200    0.9270    0.2380 N   0  0  0  0  0  0  0  0  0  0  0  0
   -0.0720   -0.1750    0.0020 C   0  0  0  0  0  0  0  0  0  0  0  0
   -1.4600    0.1040   -0.3590 C   0  0  1  0  0  0  0  0  0  0  0  0
   -2.0280   -0.4680   -1.5980 C   0  0  0  0  0  0  0  0  0  0  0  0
   -3.1680   -1.4570   -1.3970 C   0  0  0  0  0  0  0  0  0  0  0  0
   -4.2080   -0.9460   -0.4450 C   0  0  0  0  0  0  0  0  0  0  0  0
   -3.7670    0.0910    0.4020 N   0  0  0  0  0  0  0  0  0  0  0  0
   -4.5280    1.2560    0.5010 C   0  0  1  0  0  0  0  0  0  0  0  0
   -4.6830    2.0500   -0.7690 C   0  0  0  0  0  0  0  0  0  0  0  0
   -5.5140    3.2830   -0.4800 C   0  0  0  0  0  0  0  0  0  0  0  0
   -6.7510    2.9790    0.2050 N   0  0  0  0  0  0  0  0  0  0  0  0
   -6.9930    1.5510    0.1300 C   0  0  0  0  0  0  0  0  0  0  0  0
   -5.9400    0.8760    0.9590 C   0  0  0  0  0  0  0  0  0  0  0  0
   -2.4270    0.0680    0.8350 C   0  0  0  0  0  0  0  0  0  0  0  0
    0.5370   -1.3330    0.1370 N   0  0  0  0  0  0  0  0  0  0  0  0
   -0.1770   -2.5450   -0.0890 C   0  0  0  0  0  0  0  0  0  0  0  0
   -0.0810   -3.1380   -1.3110 C   0  0  0  0  0  0  0  0  0  0  0  0
   -0.7220   -4.3240   -1.5480 C   0  0  0  0  0  0  0  0  0  0  0  0
   -1.4600   -4.9430   -0.6020 N   0  0  0  0  0  0  0  0  0  0  0  0
   -1.5470   -4.3460    0.6040 C   0  0  0  0  0  0  0  0  0  0  0  0
   -0.9170   -3.1600    0.8710 C   0  0  0  0  0  0  0  0  0  0  0  0
  1  2  2  0
  2  3  1  0
  2 32  1  0
  3  4  1  0
  3 17  2  0
  4  5  2  0
  4 16  1  0
  5  6  1  0
  6  7  2  0
  7  8  1  0
  7  9  1  0
  9 10  1  0
  9 16  2  0
 10 11  2  0
 10 15  1  0
 11 12  1  0
 12 13  2  0
 13 14  1  0
 14 15  2  0
 17 18  1  0
 18 19  2  0
 20 19  1  1
 19 32  1  0
 20 21  1  0
 20 31  1  0
 21 22  1  0
 22 23  1  0
 23 24  1  0
 25 24  1  6
 24 31  1  0
 25 26  1  0
 25 30  1  0
 26 27  1  0
 27 28  1  0
 28 29  1  0
 29 30  1  0
 32 33  1  0
 33 34  2  0
 33 38  1  0
 34 35  1  0
 35 36  2  0
 36 37  1  0
 37 38  2  0
M  CHG  1  36   1
M  END
