
     RDKit          3D

 38 42  0  0  0  0  0  0  0  0999 V2000
   11.6040   -1.3520   -0.7150 C   0  0  0  0  0  0  0  0  0  0  0  0
   10.9750   -1.0660    0.5580 N   0  0  0  0  0  0  0  0  0  0  0  0
   11.8110   -0.5070    1.6100 C   0  0  0  0  0  0  0  0  0  0  0  0
    9.5960   -1.3070    0.8140 C   0  0  0  0  0  0  0  0  0  0  0  0
    9.2340   -2.2580    1.7750 C   0  0  0  0  0  0  0  0  0  0  0  0
    7.9200   -2.5400    2.0540 C   0  0  0  0  0  0  0  0  0  0  0  0
    6.9200   -1.8650    1.3660 C   0  0  0  0  0  0  0  0  0  0  0  0
    7.2260   -0.9180    0.4110 C   0  0  0  0  0  0  0  0  0  0  0  0
    6.2200   -0.2360   -0.2910 C   0  0  0  0  0  0  0  0  0  0  0  0
    4.6000   -0.6560    0.1110 S   0  0  2  0  0  0  0  0  0  0  0  0
    4.3650   -0.4420    1.5970 O   0  0  0  0  0  0  0  0  0  0  0  0
    4.3380   -2.0760   -0.2810 O   0  0  0  0  0  0  0  0  0  0  0  0
    3.4050    0.3260   -0.7030 N   0  0  0  0  0  0  0  0  0  0  0  0
    3.5020    1.6910   -0.3320 C   0  0  0  0  0  0  0  0  0  0  0  0
    2.5530    2.5910   -1.0110 C   0  0  0  0  0  0  0  0  0  0  0  0
    1.0920    2.4150   -0.8920 C   0  0  0  0  0  0  0  0  0  0  0  0
    0.4360    1.2310   -1.4550 C   0  0  0  0  0  0  0  0  0  0  0  0
   -1.0900    1.3240   -1.2490 C   0  0  0  0  0  0  0  0  0  0  0  0
   -1.4490    1.3970    0.1880 C   0  0  0  0  0  0  0  0  0  0  0  0
   -2.9540    1.4420    0.4120 C   0  0  0  0  0  0  0  0  0  0  0  0
   -3.6440    0.2350   -0.1270 C   0  0  0  0  0  0  0  0  0  0  0  0
   -5.0710    0.3650    0.1390 N   0  0  0  0  0  0  0  0  0  0  0  0
   -5.9930   -0.6570   -0.2690 C   0  0  0  0  0  0  0  0  0  0  0  0
   -5.4710   -1.6420   -0.8600 O   0  0  0  0  0  0  0  0  0  0  0  0
   -7.4400   -0.5760   -0.0250 C   0  0  2  0  0  0  0  0  0  0  0  0
   -8.0630    0.6440   -0.6710 C   0  0  0  0  0  0  0  0  0  0  0  0
   -9.5430    0.6200   -0.4160 C   0  0  1  0  0  0  0  0  0  0  0  0
  -10.2020   -0.6130   -0.9490 C   0  0  0  0  0  0  0  0  0  0  0  0
   -9.5830   -1.8200   -0.3040 C   0  0  2  0  0  0  0  0  0  0  0  0
   -9.7240   -1.8120    1.1940 C   0  0  0  0  0  0  0  0  0  0  0  0
   -9.1890   -0.5170    1.7240 C   0  0  2  0  0  0  0  0  0  0  0  0
   -9.8350    0.6840    1.0770 C   0  0  0  0  0  0  0  0  0  0  0  0
   -7.7140   -0.4650    1.4660 C   0  0  0  0  0  0  0  0  0  0  0  0
   -8.0930   -1.7920   -0.6210 C   0  0  0  0  0  0  0  0  0  0  0  0
    6.6050    0.6890   -1.2370 C   0  0  0  0  0  0  0  0  0  0  0  0
    7.9540    0.9330   -1.4780 C   0  0  0  0  0  0  0  0  0  0  0  0
    8.9490    0.2740   -0.7960 C   0  0  0  0  0  0  0  0  0  0  0  0
    8.5660   -0.6640    0.1590 C   0  0  0  0  0  0  0  0  0  0  0  0
  1  2  1  0
  2  3  1  0
  2  4  1  0
  4  5  2  0
  4 38  1  0
  5  6  1  0
  6  7  2  0
  7  8  1  0
  8  9  2  0
  8 38  1  0
  9 10  1  0
  9 35  1  0
 10 11  2  0
 10 12  2  0
 10 13  1  6
 13 14  1  0
 14 15  1  0
 15 16  1  0
 16 17  1  0
 17 18  1  0
 18 19  1  0
 19 20  1  0
 20 21  1  0
 21 22  1  0
 22 23  1  0
 23 24  2  0
 25 23  1  1
 25 26  1  0
 25 33  1  0
 25 34  1  0
 27 26  1  1
 27 28  1  0
 27 32  1  0
 28 29  1  0
 29 30  1  1
 29 34  1  0
 31 30  1  6
 31 32  1  0
 31 33  1  0
 35 36  2  0
 36 37  1  0
 37 38  2  0
M  END
