
     RDKit          3D

 38 41  0  0  0  0  0  0  0  0999 V2000
   -8.0100   -0.0950   -4.2510 C   0  0  0  0  0  0  0  0  0  0  0  0
   -7.8790   -1.0840   -3.1270 C   0  0  0  0  0  0  0  0  0  0  0  0
   -6.7050   -0.5120   -1.8810 S   0  0  0  0  0  0  0  0  0  0  0  0
   -6.3550   -1.5920   -0.9060 O   0  0  0  0  0  0  0  0  0  0  0  0
   -7.2040    1.0330   -1.1710 C   0  0  0  0  0  0  0  0  0  0  0  0
   -6.3080    1.5970   -0.1390 C   0  0  0  0  0  0  0  0  0  0  0  0
   -6.1010    0.7510    1.0940 C   0  0  2  0  0  0  0  0  0  0  0  0
   -7.3680    0.4710    1.8230 C   0  0  0  0  0  0  0  0  0  0  0  0
   -7.0690   -0.6410    2.8260 C   0  0  0  0  0  0  0  0  0  0  0  0
   -5.9920   -0.1850    3.7940 C   0  0  0  0  0  0  0  0  0  0  0  0
   -5.5410    1.2220    3.4420 C   0  0  0  0  0  0  0  0  0  0  0  0
   -5.1110    1.3910    2.0310 C   0  0  1  0  0  0  0  0  0  0  0  0
   -3.7840    0.7760    1.8900 N   0  0  0  0  0  0  0  0  0  0  0  0
   -2.6640    1.4660    1.3960 C   0  0  0  0  0  0  0  0  0  0  0  0
   -2.8140    2.6660    1.0610 O   0  0  0  0  0  0  0  0  0  0  0  0
   -1.3390    0.8430    1.2570 C   0  0  0  0  0  0  0  0  0  0  0  0
   -0.9700   -0.4410    1.5980 C   0  0  0  0  0  0  0  0  0  0  0  0
    0.3660   -0.6060    1.2990 C   0  0  0  0  0  0  0  0  0  0  0  0
    1.2090   -1.8310    1.4980 C   0  0  0  0  0  0  0  0  0  0  0  0
    2.4520   -1.7100    0.7280 N   0  0  0  0  0  0  0  0  0  0  0  0
    2.4700   -1.9010   -0.6750 C   0  0  0  0  0  0  0  0  0  0  0  0
    1.3560   -2.1770   -1.2100 O   0  0  0  0  0  0  0  0  0  0  0  0
    3.6810   -1.7940   -1.4910 C   0  0  0  0  0  0  0  0  0  0  0  0
    3.7250   -1.9820   -2.8600 C   0  0  0  0  0  0  0  0  0  0  0  0
    5.0280   -1.8000   -3.2700 C   0  0  0  0  0  0  0  0  0  0  0  0
    5.7440   -1.5030   -2.1230 C   0  0  0  0  0  0  0  0  0  0  0  0
    7.1930   -1.2310   -2.0940 C   0  0  0  0  0  0  0  0  0  0  0  0
    7.8990   -1.2390   -3.1040 O   0  0  0  0  0  0  0  0  0  0  0  0
    7.7750   -0.9490   -0.8310 N   0  0  0  0  0  0  0  0  0  0  0  0
    9.1860   -0.6710   -0.7280 C   0  0  0  0  0  0  0  0  0  0  0  0
    9.5960    0.5450   -1.5340 C   0  0  2  0  0  0  0  0  0  0  0  0
   11.0300    0.8600   -1.1970 C   0  0  0  0  0  0  0  0  0  0  0  0
   10.9080    1.6980    0.0560 C   0  0  0  0  0  0  0  0  0  0  0  0
    9.4210    1.9720    0.1440 C   0  0  0  0  0  0  0  0  0  0  0  0
    8.9260    1.6880   -1.1080 O   0  0  0  0  0  0  0  0  0  0  0  0
    4.9040   -1.5180   -1.1390 O   0  0  0  0  0  0  0  0  0  0  0  0
    0.7590    0.6130    0.7780 C   0  0  0  0  0  0  0  0  0  0  0  0
   -0.2680    1.4110    0.7790 O   0  0  0  0  0  0  0  0  0  0  0  0
  1  2  1  0
  3  2  1  1
  3  4  2  0
  3  5  1  0
  5  6  1  0
  7  6  1  6
  7  8  1  0
  7 12  1  0
  8  9  1  0
  9 10  1  0
 10 11  1  0
 11 12  1  0
 12 13  1  1
 13 14  1  0
 14 15  2  0
 14 16  1  0
 16 17  2  0
 16 38  1  0
 17 18  1  0
 18 19  1  0
 18 37  2  0
 19 20  1  0
 20 21  1  0
 21 22  2  0
 21 23  1  0
 23 24  2  0
 23 36  1  0
 24 25  1  0
 25 26  2  0
 26 27  1  0
 26 36  1  0
 27 28  2  0
 27 29  1  0
 29 30  1  0
 31 30  1  1
 31 32  1  0
 31 35  1  0
 32 33  1  0
 33 34  1  0
 34 35  1  0
 37 38  1  0
M  END
