
     RDKit          3D

 38 43  0  0  0  0  0  0  0  0999 V2000
    8.0180    1.8430    1.0310 C   0  0  0  0  0  0  0  0  0  0  0  0
    6.9130    1.1590    1.1980 C   0  0  0  0  0  0  0  0  0  0  0  0
    6.7270    0.2730    2.3080 N   0  0  0  0  0  0  0  0  0  0  0  0
    5.5220   -0.3700    2.1480 C   0  0  0  0  0  0  0  0  0  0  0  0
    4.7990    0.0810    1.0880 C   0  0  0  0  0  0  0  0  0  0  0  0
    3.5280   -0.4780    0.7860 C   0  0  0  0  0  0  0  0  0  0  0  0
    3.2500   -1.5930    1.5260 O   0  0  0  0  0  0  0  0  0  0  0  0
    2.4400   -0.2500   -0.0360 N   0  0  0  0  0  0  0  0  0  0  0  0
    2.1370    0.9020   -0.7900 C   0  0  0  0  0  0  0  0  0  0  0  0
    0.6280    1.2690   -0.7960 C   0  0  0  0  0  0  0  0  0  0  0  0
   -0.1110    0.0400   -1.1240 C   0  0  2  0  0  0  0  0  0  0  0  0
   -1.6250    0.1610   -1.0530 C   0  0  2  0  0  0  0  0  0  0  0  0
   -2.0680    1.0150    0.0510 C   0  0  0  0  0  0  0  0  0  0  0  0
   -3.4910    1.2550    0.2050 N   0  0  0  0  0  0  0  0  0  0  0  0
   -4.4310    0.2820    0.5990 C   0  0  0  0  0  0  0  0  0  0  0  0
   -5.7970    0.7800    0.7730 C   0  0  0  0  0  0  0  0  0  0  0  0
   -6.1280    2.0220    0.5420 C   0  0  0  0  0  0  0  0  0  0  0  0
   -5.1430    2.9950    0.1020 C   0  0  0  0  0  0  0  0  0  0  0  0
   -3.9010    2.6150   -0.0560 C   0  0  0  0  0  0  0  0  0  0  0  0
   -2.8630    3.6170   -0.5230 C   0  0  0  0  0  0  0  0  0  0  0  0
   -3.5720    4.9390   -0.7550 C   0  0  0  0  0  0  0  0  0  0  0  0
   -1.9300   -1.3020   -0.8390 C   0  0  0  0  0  0  0  0  0  0  0  0
   -2.8100   -2.2910   -1.0380 N   0  0  0  0  0  0  0  0  0  0  0  0
   -2.3300   -3.4340   -0.5210 C   0  0  0  0  0  0  0  0  0  0  0  0
   -3.0730   -4.6990   -0.5830 C   0  0  0  0  0  0  0  0  0  0  0  0
   -2.5070   -5.8210   -0.0340 C   0  0  0  0  0  0  0  0  0  0  0  0
   -3.2050   -7.0050   -0.0920 C   0  0  0  0  0  0  0  0  0  0  0  0
   -4.4440   -7.0400   -0.6940 C   0  0  0  0  0  0  0  0  0  0  0  0
   -4.9970   -5.9320   -1.2340 N   0  0  0  0  0  0  0  0  0  0  0  0
   -4.3080   -4.8010   -1.1670 C   0  0  0  0  0  0  0  0  0  0  0  0
   -4.8770   -3.6820   -1.7170 F   0  0  0  0  0  0  0  0  0  0  0  0
   -1.1470   -3.1670    0.0030 N   0  0  0  0  0  0  0  0  0  0  0  0
   -0.9030   -1.8770   -0.1890 N   0  0  0  0  0  0  0  0  0  0  0  0
    0.1350   -0.9000    0.0670 C   0  0  1  0  0  0  0  0  0  0  0  0
    1.5020   -1.4350   -0.1670 C   0  0  0  0  0  0  0  0  0  0  0  0
    5.6630    1.0590    0.4400 C   0  0  0  0  0  0  0  0  0  0  0  0
    5.4290    1.7080   -0.6660 C   0  0  0  0  0  0  0  0  0  0  0  0
    6.3830    2.6370   -1.3060 C   0  0  0  0  0  0  0  0  0  0  0  0
  1  2  2  0
  2  3  1  0
  2 36  1  0
  3  4  1  0
  4  5  2  0
  5  6  1  0
  5 36  1  0
  6  7  2  0
  6  8  1  0
  8  9  1  0
  8 35  1  0
  9 10  1  0
 11 10  1  1
 11 12  1  0
 11 34  1  0
 12 13  1  1
 12 22  1  0
 13 14  1  0
 14 15  1  0
 14 19  1  0
 15 16  1  0
 16 17  2  0
 17 18  1  0
 18 19  2  0
 19 20  1  0
 20 21  1  0
 22 23  2  0
 22 33  1  0
 23 24  1  0
 24 25  1  0
 24 32  2  0
 25 26  2  0
 25 30  1  0
 26 27  1  0
 27 28  2  0
 28 29  1  0
 29 30  2  0
 30 31  1  0
 32 33  1  0
 33 34  1  0
 34 35  1  6
 36 37  2  3
 37 38  1  0
M  CHG  1   3   1
M  END
