
     RDKit          3D

 31 34  0  0  0  0  0  0  0  0999 V2000
    0.9480    0.9360    4.3420 O   0  0  0  0  0  0  0  0  0  0  0  0
    1.0020   -0.1700    3.2870 S   0  0  1  0  0  0  0  0  0  0  0  0
    1.3040   -1.4830    3.9620 O   0  0  0  0  0  0  0  0  0  0  0  0
   -0.5190   -0.1710    2.5150 N   0  0  0  0  0  0  0  0  0  0  0  0
   -0.7860   -1.0560    1.4490 C   0  0  0  0  0  0  0  0  0  0  0  0
   -0.0330   -2.1980    1.3170 C   0  0  0  0  0  0  0  0  0  0  0  0
   -0.2990   -3.0880    0.2660 C   0  0  0  0  0  0  0  0  0  0  0  0
   -1.3030   -2.8270   -0.6300 C   0  0  0  0  0  0  0  0  0  0  0  0
   -1.6530   -3.9400   -1.9650 Cl  0  0  0  0  0  0  0  0  0  0  0  0
   -2.0380   -1.6700   -0.4660 C   0  0  0  0  0  0  0  0  0  0  0  0
   -1.8090   -0.7870    0.5400 C   0  0  0  0  0  0  0  0  0  0  0  0
   -2.5290    0.3430    0.7020 O   0  0  0  0  0  0  0  0  0  0  0  0
   -3.5860    0.8360    0.0050 C   0  0  0  0  0  0  0  0  0  0  0  0
   -3.4740    2.0610   -0.6660 C   0  0  0  0  0  0  0  0  0  0  0  0
   -4.5330    2.5800   -1.3780 C   0  0  0  0  0  0  0  0  0  0  0  0
   -5.7470    1.9330   -1.4680 C   0  0  0  0  0  0  0  0  0  0  0  0
   -5.8760    0.7270   -0.8140 C   0  0  0  0  0  0  0  0  0  0  0  0
   -4.8030    0.2010   -0.0920 C   0  0  0  0  0  0  0  0  0  0  0  0
   -5.0130   -1.3170    0.7410 Cl  0  0  0  0  0  0  0  0  0  0  0  0
    2.2170    0.2550    2.1030 C   0  0  0  0  0  0  0  0  0  0  0  0
    2.9830    1.3750    2.3350 C   0  0  0  0  0  0  0  0  0  0  0  0
    3.9340    1.7230    1.4280 C   0  0  0  0  0  0  0  0  0  0  0  0
    4.1180    0.9570    0.2990 C   0  0  0  0  0  0  0  0  0  0  0  0
    5.0690    1.2680   -0.6490 C   0  0  0  0  0  0  0  0  0  0  0  0
    5.2120    0.4710   -1.7570 C   0  0  0  0  0  0  0  0  0  0  0  0
    6.4270    0.8950   -2.9380 Cl  0  0  0  0  0  0  0  0  0  0  0  0
    4.4320   -0.6420   -1.9610 C   0  0  0  0  0  0  0  0  0  0  0  0
    4.6430   -1.6470   -3.3980 Cl  0  0  0  0  0  0  0  0  0  0  0  0
    3.4670   -0.9830   -1.0270 C   0  0  0  0  0  0  0  0  0  0  0  0
    3.3330   -0.1660    0.0910 C   0  0  0  0  0  0  0  0  0  0  0  0
    2.4040   -0.4850    1.0010 N   0  0  0  0  0  0  0  0  0  0  0  0
  1  2  2  0
  2  3  2  0
  2  4  1  6
  2 20  1  0
  4  5  1  0
  5  6  2  0
  5 11  1  0
  6  7  1  0
  7  8  2  0
  8  9  1  0
  8 10  1  0
 10 11  2  0
 11 12  1  0
 12 13  1  0
 13 14  2  0
 13 18  1  0
 14 15  1  0
 15 16  2  0
 16 17  1  0
 17 18  2  0
 18 19  1  0
 20 21  2  0
 20 31  1  0
 21 22  1  0
 22 23  2  0
 23 24  1  0
 23 30  1  0
 24 25  2  0
 25 26  1  0
 25 27  1  0
 27 28  1  0
 27 29  2  0
 29 30  1  0
 30 31  2  0
M  END
