
     RDKit          3D

 31 34  0  0  0  0  0  0  0  0999 V2000
   -0.8260    1.8580    0.6490 O   0  0  0  0  0  0  0  0  0  0  0  0
   -0.3660    0.7580    0.3130 C   0  0  0  0  0  0  0  0  0  0  0  0
    1.1380    0.5530    0.2560 C   0  0  0  0  0  0  0  0  0  0  0  0
    1.4590   -1.1510   -0.2660 S   0  0  0  0  0  0  0  0  0  0  0  0
    3.2310   -1.3880   -0.3320 C   0  0  0  0  0  0  0  0  0  0  0  0
    3.7950   -2.5520   -0.6880 N   0  0  0  0  0  0  0  0  0  0  0  0
    5.1610   -2.3930   -0.6340 C   0  0  0  0  0  0  0  0  0  0  0  0
    5.3790   -1.1120   -0.2400 C   0  0  0  0  0  0  0  0  0  0  0  0
    6.6510   -0.4470   -0.0300 C   0  0  0  0  0  0  0  0  0  0  0  0
    6.6580    0.8940    0.3810 C   0  0  0  0  0  0  0  0  0  0  0  0
    7.7980    1.6110    0.6060 C   0  0  0  0  0  0  0  0  0  0  0  0
    9.0220    1.0140    0.4270 C   0  0  0  0  0  0  0  0  0  0  0  0
    9.0700   -0.2950    0.0250 C   0  0  0  0  0  0  0  0  0  0  0  0
    7.8780   -1.0190   -0.2020 C   0  0  0  0  0  0  0  0  0  0  0  0
    8.0480   -2.6640   -0.7060 Cl  0  0  0  0  0  0  0  0  0  0  0  0
    4.1800   -0.5500   -0.0720 O   0  0  0  0  0  0  0  0  0  0  0  0
   -1.2370   -0.2980   -0.0140 N   0  0  0  0  0  0  0  0  0  0  0  0
   -2.6470   -0.2710   -0.0120 C   0  0  0  0  0  0  0  0  0  0  0  0
   -3.4300    0.8070    0.3170 C   0  0  0  0  0  0  0  0  0  0  0  0
   -4.8270    0.7440    0.2920 C   0  0  0  0  0  0  0  0  0  0  0  0
   -5.4790   -0.4050   -0.0630 C   0  0  0  0  0  0  0  0  0  0  0  0
   -4.6840   -1.4820   -0.3910 C   0  0  0  0  0  0  0  0  0  0  0  0
   -3.3160   -1.4320   -0.3710 C   0  0  0  0  0  0  0  0  0  0  0  0
   -2.4070   -2.8650   -0.8070 Cl  0  0  0  0  0  0  0  0  0  0  0  0
   -6.9720   -0.5260   -0.1060 C   0  0  0  0  0  0  0  0  0  0  0  0
   -7.5780    0.8310   -0.0990 C   0  0  0  0  0  0  0  0  0  0  0  0
   -8.6420    1.1480   -0.8240 C   0  0  0  0  0  0  0  0  0  0  0  0
   -9.3300    2.7430   -0.7960 Cl  0  0  0  0  0  0  0  0  0  0  0  0
   -9.4140   -0.0560   -1.8620 Cl  0  0  0  0  0  0  0  0  0  0  0  0
   -6.9580    1.8730    0.7620 C   0  0  0  0  0  0  0  0  0  0  0  0
   -5.5530    1.8730    0.6360 O   0  0  0  0  0  0  0  0  0  0  0  0
  1  2  2  0
  2  3  1  0
  2 17  1  0
  3  4  1  0
  4  5  1  0
  5  6  2  0
  5 16  1  0
  6  7  1  0
  7  8  2  0
  8  9  1  0
  8 16  1  0
  9 10  2  0
  9 14  1  0
 10 11  1  0
 11 12  2  0
 12 13  1  0
 13 14  2  0
 14 15  1  0
 17 18  1  0
 18 19  2  0
 18 23  1  0
 19 20  1  0
 20 21  2  0
 20 31  1  0
 21 22  1  0
 21 25  1  0
 22 23  2  0
 23 24  1  0
 25 26  1  0
 26 27  2  3
 26 30  1  0
 27 28  1  0
 27 29  1  0
 30 31  1  0
M  END
