
     RDKit          3D

 31 34  0  0  0  0  0  0  0  0999 V2000
    5.7620   -1.3290   -2.6380 C   0  0  0  0  0  0  0  0  0  0  0  0
    5.7940   -0.2160   -1.6520 C   0  0  0  0  0  0  0  0  0  0  0  0
    6.7430    0.7040   -1.7240 N   0  0  0  0  0  0  0  0  0  0  0  0
    6.8270    1.7350   -0.8630 C   0  0  0  0  0  0  0  0  0  0  0  0
    7.7340    2.5950   -0.9490 O   0  0  0  0  0  0  0  0  0  0  0  0
    5.8720    1.8100    0.1240 C   0  0  0  0  0  0  0  0  0  0  0  0
    4.8510    0.8700    0.2470 C   0  0  0  0  0  0  0  0  0  0  0  0
    3.9620    1.0260    1.2440 O   0  0  0  0  0  0  0  0  0  0  0  0
    2.5510    1.1920    1.0870 C   0  0  0  0  0  0  0  0  0  0  0  0
    2.0420    2.4430    0.6570 C   0  0  0  0  0  0  0  0  0  0  0  0
    0.2720    2.1070    0.6340 S   0  0  0  0  0  0  0  0  0  0  0  0
    0.3390    0.4000    1.1760 C   0  0  0  0  0  0  0  0  0  0  0  0
   -0.7640   -0.4780    1.3740 C   0  0  0  0  0  0  0  0  0  0  0  0
   -0.5040   -1.6510    1.7770 O   0  0  0  0  0  0  0  0  0  0  0  0
   -2.0970   -0.0780    1.1370 N   0  0  0  0  0  0  0  0  0  0  0  0
   -2.6090    1.1690    0.6010 C   0  0  0  0  0  0  0  0  0  0  0  0
   -3.9580    0.7740    0.0680 C   0  0  1  0  0  0  0  0  0  0  0  0
   -3.8240    0.5860   -1.4240 C   0  0  0  0  0  0  0  0  0  0  0  0
   -5.1150    0.1850   -2.0850 C   0  0  0  0  0  0  0  0  0  0  0  0
   -4.9140   -0.0180   -3.8420 Cl  0  0  0  0  0  0  0  0  0  0  0  0
   -4.3180   -0.4250    0.7920 C   0  0  0  0  0  0  0  0  0  0  0  0
   -5.5150   -1.1060    0.9470 C   0  0  0  0  0  0  0  0  0  0  0  0
   -5.6540   -2.2580    1.6880 C   0  0  0  0  0  0  0  0  0  0  0  0
   -7.2040   -3.0820    1.8510 Cl  0  0  0  0  0  0  0  0  0  0  0  0
   -4.5130   -2.7520    2.3080 C   0  0  0  0  0  0  0  0  0  0  0  0
   -4.6980   -4.2230    3.2510 Cl  0  0  0  0  0  0  0  0  0  0  0  0
   -3.2960   -2.1140    2.1860 C   0  0  0  0  0  0  0  0  0  0  0  0
   -3.2170   -0.9420    1.4180 C   0  0  0  0  0  0  0  0  0  0  0  0
    1.7000    0.2150    1.3330 C   0  0  0  0  0  0  0  0  0  0  0  0
    4.8140   -0.1510   -0.6510 C   0  0  0  0  0  0  0  0  0  0  0  0
    3.6140   -1.4090   -0.6500 Cl  0  0  0  0  0  0  0  0  0  0  0  0
  1  2  1  0
  2  3  1  0
  2 30  2  0
  3  4  1  0
  4  5  2  0
  4  6  1  0
  6  7  2  0
  7  8  1  0
  7 30  1  0
  8  9  1  0
  9 10  2  0
  9 29  1  0
 10 11  1  0
 11 12  1  0
 12 13  1  0
 12 29  2  0
 13 14  2  0
 13 15  1  0
 15 16  1  0
 15 28  1  0
 16 17  1  0
 17 18  1  6
 17 21  1  0
 18 19  1  0
 19 20  1  0
 21 22  2  0
 21 28  1  0
 22 23  1  0
 23 24  1  0
 23 25  2  0
 25 26  1  0
 25 27  1  0
 27 28  2  0
 30 31  1  0
M  END
