
     RDKit          3D

 31 34  0  0  0  0  0  0  0  0999 V2000
   -4.7030   -2.5880   -1.5770 C   0  0  0  0  0  0  0  0  0  0  0  0
   -4.5750   -1.2190   -1.1070 C   0  0  0  0  0  0  0  0  0  0  0  0
   -3.6770   -0.4970   -0.5220 C   0  0  0  0  0  0  0  0  0  0  0  0
   -3.8890    0.9420   -0.1700 C   0  0  0  0  0  0  0  0  0  0  0  0
   -4.9990    1.7480   -0.3750 C   0  0  0  0  0  0  0  0  0  0  0  0
   -4.9390    3.0540    0.0480 C   0  0  0  0  0  0  0  0  0  0  0  0
   -6.3110    4.1370   -0.1790 Cl  0  0  0  0  0  0  0  0  0  0  0  0
   -3.8030    3.5310    0.6540 C   0  0  0  0  0  0  0  0  0  0  0  0
   -3.7440    5.2110    1.1910 Cl  0  0  0  0  0  0  0  0  0  0  0  0
   -2.7130    2.7310    0.8530 C   0  0  0  0  0  0  0  0  0  0  0  0
   -2.7680    1.4160    0.4300 C   0  0  0  0  0  0  0  0  0  0  0  0
   -1.7770    0.3510    0.5080 C   0  0  0  0  0  0  0  0  0  0  0  0
   -0.5250    0.3610    1.0190 N   0  0  0  0  0  0  0  0  0  0  0  0
    0.2330   -0.7410    0.9910 C   0  0  0  0  0  0  0  0  0  0  0  0
    1.5930   -0.7700    1.5340 C   0  0  0  0  0  0  0  0  0  0  0  0
    2.0450    0.2870    2.0400 O   0  0  0  0  0  0  0  0  0  0  0  0
    2.3850   -1.8910    1.5140 O   0  0  0  0  0  0  0  0  0  0  0  0
    3.6970   -1.9650    2.0170 C   0  0  0  0  0  0  0  0  0  0  0  0
    4.6520   -1.0560    1.2700 C   0  0  0  0  0  0  0  0  0  0  0  0
    5.8310   -0.9370    1.6900 O   0  0  0  0  0  0  0  0  0  0  0  0
    4.2480   -0.3560    0.1290 N   0  0  0  0  0  0  0  0  0  0  0  0
    5.1740    0.5320   -0.5810 C   0  0  0  0  0  0  0  0  0  0  0  0
    5.0050    0.8690   -1.8630 C   0  0  0  0  0  0  0  0  0  0  0  0
    5.8370    1.7020   -2.5130 C   0  0  0  0  0  0  0  0  0  0  0  0
    7.0570    2.1120   -1.1920 S   0  0  0  0  0  0  0  0  0  0  0  0
    6.2690    1.0890    0.0800 C   0  0  0  0  0  0  0  0  0  0  0  0
   -0.2560   -1.8940    0.4410 C   0  0  0  0  0  0  0  0  0  0  0  0
    0.7440   -3.3470    0.4040 Cl  0  0  0  0  0  0  0  0  0  0  0  0
   -1.5340   -1.9280   -0.0880 C   0  0  0  0  0  0  0  0  0  0  0  0
   -2.0800   -3.4250   -0.7670 Cl  0  0  0  0  0  0  0  0  0  0  0  0
   -2.3070   -0.7930   -0.0560 C   0  0  0  0  0  0  0  0  0  0  0  0
  1  2  1  0
  2  3  2  3
  3  4  1  0
  3 31  1  0
  4  5  2  0
  4 11  1  0
  5  6  1  0
  6  7  1  0
  6  8  2  0
  8  9  1  0
  8 10  1  0
 10 11  2  0
 11 12  1  0
 12 13  2  0
 12 31  1  0
 13 14  1  0
 14 15  1  0
 14 27  2  0
 15 16  2  0
 15 17  1  0
 17 18  1  0
 18 19  1  0
 19 20  2  0
 19 21  1  0
 21 22  1  0
 22 23  1  0
 22 26  2  0
 23 24  2  0
 24 25  1  0
 25 26  1  0
 27 28  1  0
 27 29  1  0
 29 30  1  0
 29 31  2  0
M  END
