
     RDKit          3D

 30 32  0  0  0  0  0  0  0  0999 V2000
   -6.8740   -1.6300   -0.0130 C   0  0  0  0  0  0  0  0  0  0  0  0
   -5.8290   -2.3810   -0.1340 C   0  0  0  0  0  0  0  0  0  0  0  0
   -4.4630   -2.1410    0.2960 C   0  0  0  0  0  0  0  0  0  0  0  0
   -3.5890   -3.1000    0.0340 C   0  0  0  0  0  0  0  0  0  0  0  0
   -4.0820   -0.9240    0.9750 C   0  0  0  0  0  0  0  0  0  0  0  0
   -4.9540   -0.0530    1.1960 O   0  0  0  0  0  0  0  0  0  0  0  0
   -2.7670   -0.6210    1.4260 N   0  0  0  0  0  0  0  0  0  0  0  0
   -2.3290    0.5550    2.0900 C   0  0  0  0  0  0  0  0  0  0  0  0
   -2.4520    1.8480    1.3430 C   0  0  1  0  0  0  0  0  0  0  0  0
   -3.7610    2.1630    0.9870 O   0  0  0  0  0  0  0  0  0  0  0  0
   -2.0100    2.9530    2.2790 C   0  0  0  0  0  0  0  0  0  0  0  0
   -0.5110    3.0220    2.4110 C   0  0  0  0  0  0  0  0  0  0  0  0
    0.0230    3.3980    1.0220 C   0  0  0  0  0  0  0  0  0  0  0  0
   -0.3150    2.2320    0.1960 N   0  0  0  0  0  0  0  0  0  0  0  0
    0.7280    1.5240   -0.4550 C   0  0  0  0  0  0  0  0  0  0  0  0
    1.8980    1.9490   -0.2880 O   0  0  0  0  0  0  0  0  0  0  0  0
    0.4800    0.3430   -1.2960 C   0  0  0  0  0  0  0  0  0  0  0  0
    1.6660   -0.3750   -1.8110 C   0  0  0  0  0  0  0  0  0  0  0  0
    2.5960   -0.9920   -0.8440 C   0  0  2  0  0  0  0  0  0  0  0  0
    1.9460   -2.0270    0.0490 C   0  0  0  0  0  0  0  0  0  0  0  0
    1.3690   -3.1590   -0.8050 C   0  0  0  0  0  0  0  0  0  0  0  0
    3.3820   -0.0820   -0.1540 O   0  0  0  0  0  0  0  0  0  0  0  0
    4.6650   -0.0170   -0.6680 C   0  0  0  0  0  0  0  0  0  0  0  0
    5.7410    0.8520   -0.4390 C   0  0  0  0  0  0  0  0  0  0  0  0
    6.9450    0.7050   -1.0900 C   0  0  0  0  0  0  0  0  0  0  0  0
    7.0560   -0.3440   -1.9880 C   0  0  0  0  0  0  0  0  0  0  0  0
    6.0020   -1.1990   -2.2150 C   0  0  0  0  0  0  0  0  0  0  0  0
    4.7850   -1.0550   -1.5610 C   0  0  0  0  0  0  0  0  0  0  0  0
    3.5850   -1.7430   -1.5890 O   0  0  0  0  0  0  0  0  0  0  0  0
   -1.6690    1.8200    0.0460 C   0  0  0  0  0  0  0  0  0  0  0  0
  1  2  2  0
  2  3  1  0
  3  4  2  0
  3  5  1  0
  5  6  2  0
  5  7  1  0
  7  8  1  0
  8  9  1  0
  9 10  1  6
  9 11  1  0
  9 30  1  0
 11 12  1  0
 12 13  1  0
 13 14  1  0
 14 15  1  0
 14 30  1  0
 15 16  2  0
 15 17  1  0
 17 18  1  0
 19 18  1  6
 19 20  1  0
 19 22  1  0
 19 29  1  0
 20 21  1  0
 22 23  1  0
 23 24  2  0
 23 28  1  0
 24 25  1  0
 25 26  2  0
 26 27  1  0
 27 28  2  0
 28 29  1  0
M  END
