
     RDKit          3D

 30 32  0  0  0  0  0  0  0  0999 V2000
    9.3940    0.9180   -2.0830 C   0  0  0  0  0  0  0  0  0  0  0  0
    8.7490   -0.4050   -1.6540 C   0  0  1  0  0  0  0  0  0  0  0  0
    9.6890   -1.2340   -1.0500 F   0  0  0  0  0  0  0  0  0  0  0  0
    7.7470   -0.0720   -0.5890 C   0  0  0  0  0  0  0  0  0  0  0  0
    6.4110   -0.3820   -0.7060 C   0  0  0  0  0  0  0  0  0  0  0  0
    5.5120   -0.0510    0.3170 C   0  0  0  0  0  0  0  0  0  0  0  0
    4.1870   -0.3680    0.1810 C   0  0  0  0  0  0  0  0  0  0  0  0
    3.2390   -0.0620    1.1690 C   0  0  0  0  0  0  0  0  0  0  0  0
    1.8910   -0.4180    0.9330 N   0  0  0  0  0  0  0  0  0  0  0  0
    0.8680   -0.3620    1.8970 C   0  0  0  0  0  0  0  0  0  0  0  0
    1.0750    0.0090    3.0550 O   0  0  0  0  0  0  0  0  0  0  0  0
   -0.5030   -0.7730    1.4680 C   0  0  0  0  0  0  0  0  0  0  0  0
   -1.6340   -0.7820    2.2570 C   0  0  0  0  0  0  0  0  0  0  0  0
   -2.6730   -1.2280    1.4670 C   0  0  0  0  0  0  0  0  0  0  0  0
   -2.2240   -1.4910    0.2330 N   0  0  0  0  0  0  0  0  0  0  0  0
   -2.9440   -1.9750   -0.9240 C   0  0  0  0  0  0  0  0  0  0  0  0
   -3.4930   -0.8710   -1.7580 C   0  0  1  0  0  0  0  0  0  0  0  0
   -4.1770   -1.3650   -2.8660 O   0  0  0  0  0  0  0  0  0  0  0  0
   -4.3070    0.1520   -1.0190 C   0  0  0  0  0  0  0  0  0  0  0  0
   -5.5560   -0.3440   -0.5340 N   0  0  0  0  0  0  0  0  0  0  0  0
   -6.4070    0.7660   -0.1400 C   0  0  1  0  0  0  0  0  0  0  0  0
   -7.0820    1.4140   -1.3230 C   0  0  0  0  0  0  0  0  0  0  0  0
   -7.4460    0.2210    0.8170 C   0  0  0  0  0  0  0  0  0  0  0  0
   -5.5530    1.7370    0.6440 C   0  0  0  0  0  0  0  0  0  0  0  0
   -0.9020   -1.2150    0.2280 C   0  0  0  0  0  0  0  0  0  0  0  0
    3.7330    0.5740    2.2760 C   0  0  0  0  0  0  0  0  0  0  0  0
    5.0840    0.9080    2.4380 C   0  0  0  0  0  0  0  0  0  0  0  0
    5.9660    0.5890    1.4480 C   0  0  0  0  0  0  0  0  0  0  0  0
    7.3160    0.8820    1.5260 C   0  0  0  0  0  0  0  0  0  0  0  0
    8.1220    0.5490    0.5340 N   0  0  0  0  0  0  0  0  0  0  0  0
  2  1  1  1
  2  3  1  0
  2  4  1  0
  4  5  2  0
  4 30  1  0
  5  6  1  0
  6  7  2  0
  6 28  1  0
  7  8  1  0
  8  9  1  0
  8 26  2  0
  9 10  1  0
 10 11  2  0
 10 12  1  0
 12 13  1  0
 12 25  2  0
 13 14  2  0
 14 15  1  0
 15 16  1  0
 15 25  1  0
 16 17  1  0
 17 18  1  6
 17 19  1  0
 19 20  1  0
 20 21  1  0
 21 22  1  6
 21 23  1  0
 21 24  1  0
 26 27  1  0
 27 28  2  0
 28 29  1  0
 29 30  2  0
M  CHG  1  20   1
M  END
