
     RDKit          3D

 28 28  0  0  0  0  0  0  0  0999 V2000
    2.9310    1.2510   -1.0030 C   0  0  0  0  0  0  0  0  0  0  0  0
    3.1720    0.7230    0.3930 C   0  0  2  0  0  0  0  0  0  0  0  0
    4.2030   -0.2030    0.3110 F   0  0  0  0  0  0  0  0  0  0  0  0
    1.9910    0.1290    0.8320 O   0  0  0  0  0  0  0  0  0  0  0  0
    1.6740   -0.8920   -0.0260 C   0  0  0  0  0  0  0  0  0  0  0  0
    0.4100   -1.6200    0.3420 C   0  0  2  0  0  0  0  0  0  0  0  0
    0.2100   -2.6360   -0.6200 O   0  0  0  0  0  0  0  0  0  0  0  0
    0.2580   -3.9810   -0.2950 C   0  0  0  0  0  0  0  0  0  0  0  0
    0.4910   -4.3140    0.9160 O   0  0  0  0  0  0  0  0  0  0  0  0
    0.0700   -5.0020   -1.1960 O   0  0  0  0  0  0  0  0  0  0  0  0
   -0.7600   -0.7230    0.4640 C   0  0  0  0  0  0  0  0  0  0  0  0
   -0.6810    0.2140    1.2950 O   0  0  0  0  0  0  0  0  0  0  0  0
   -1.9140   -0.8190   -0.2420 O   0  0  0  0  0  0  0  0  0  0  0  0
   -3.0540   -0.0610   -0.2500 C   0  0  1  0  0  0  0  0  0  0  0  0
   -3.0290    1.3440   -0.6980 C   0  0  1  0  0  0  0  0  0  0  0  0
   -4.3260    1.8790   -0.5750 F   0  0  0  0  0  0  0  0  0  0  0  0
   -2.1150    2.2790   -0.0520 C   0  0  0  0  0  0  0  0  0  0  0  0
   -2.4500    2.9140    0.9750 O   0  0  0  0  0  0  0  0  0  0  0  0
   -0.8410    2.4940   -0.5580 O   0  0  0  0  0  0  0  0  0  0  0  0
   -4.0610   -0.8150   -1.1570 C   0  0  0  0  0  0  0  0  0  0  0  0
   -4.5000   -1.8240   -0.3390 O   0  0  0  0  0  0  0  0  0  0  0  0
   -4.5340   -1.3760    0.9010 O   0  0  0  0  0  0  0  0  0  0  0  0
   -3.8300   -0.2030    1.0520 C   0  0  0  0  0  0  0  0  0  0  0  0
   -3.8390    0.5540    2.0340 O   0  0  0  0  0  0  0  0  0  0  0  0
    3.6340    1.7830    1.3140 C   0  0  0  0  0  0  0  0  0  0  0  0
    2.9860    2.0600    2.3510 O   0  0  0  0  0  0  0  0  0  0  0  0
    4.7910    2.4990    1.0610 O   0  0  0  0  0  0  0  0  0  0  0  0
    5.2550    3.4680    1.8590 O   0  0  0  0  0  0  0  0  0  0  0  0
  2  1  1  6
  2  3  1  0
  2  4  1  0
  2 25  1  0
  4  5  1  0
  6  5  1  6
  6  7  1  0
  6 11  1  0
  7  8  1  0
  8  9  2  0
  8 10  1  0
 11 12  2  0
 11 13  1  0
 14 13  1  1
 14 15  1  0
 14 20  1  0
 14 23  1  0
 15 16  1  1
 15 17  1  0
 17 18  2  0
 17 19  1  0
 20 21  1  0
 21 22  1  0
 22 23  1  0
 23 24  2  0
 25 26  2  0
 25 27  1  0
 27 28  1  0
M  END
