
     RDKit          3D

 28 28  0  0  0  0  0  0  0  0999 V2000
    3.1370   -1.3430    0.4730 O   0  0  0  0  0  0  0  0  0  0  0  0
    3.3200   -0.1280    0.7800 C   0  0  0  0  0  0  0  0  0  0  0  0
    2.2930    0.6250    1.5770 C   0  0  0  0  0  0  0  0  0  0  0  0
    1.1360    1.0260    0.6790 C   0  0  0  0  0  0  0  0  0  0  0  0
    0.5860   -0.1680    0.1620 O   0  0  0  0  0  0  0  0  0  0  0  0
   -0.4870   -0.2130   -0.7000 C   0  0  0  0  0  0  0  0  0  0  0  0
   -1.0040    0.8680   -1.0450 O   0  0  0  0  0  0  0  0  0  0  0  0
   -0.9950   -1.4880   -1.1870 C   0  0  2  0  0  0  0  0  0  0  0  0
   -0.0010   -2.4610   -0.8670 O   0  0  0  0  0  0  0  0  0  0  0  0
   -1.2090   -1.5010   -2.5550 F   0  0  0  0  0  0  0  0  0  0  0  0
   -2.2080   -1.9380   -0.4270 C   0  0  0  0  0  0  0  0  0  0  0  0
   -3.3410   -1.0010   -0.5160 C   0  0  2  0  0  0  0  0  0  0  0  0
   -3.1460    0.2650   -0.0150 O   0  0  0  0  0  0  0  0  0  0  0  0
   -4.3150    0.9890   -0.1100 C   0  0  2  0  0  0  0  0  0  0  0  0
   -4.9090    0.7220   -1.3400 F   0  0  0  0  0  0  0  0  0  0  0  0
   -4.1130    2.4440    0.0490 C   0  0  0  0  0  0  0  0  0  0  0  0
   -2.9560    2.8870    0.2510 O   0  0  0  0  0  0  0  0  0  0  0  0
   -5.1890    3.2940   -0.0270 O   0  0  0  0  0  0  0  0  0  0  0  0
   -5.2660    0.4790    0.9730 C   0  0  0  0  0  0  0  0  0  0  0  0
   -5.5600   -0.8730    0.6800 O   0  0  0  0  0  0  0  0  0  0  0  0
   -4.5330   -1.6380    0.1390 C   0  0  0  0  0  0  0  0  0  0  0  0
   -4.5850   -2.8830    0.1890 O   0  0  0  0  0  0  0  0  0  0  0  0
    4.4980    0.4620    0.3470 O   0  0  0  0  0  0  0  0  0  0  0  0
    5.4380   -0.2960   -0.4060 C   0  0  0  0  0  0  0  0  0  0  0  0
    6.5250    0.5030   -0.7200 O   0  0  0  0  0  0  0  0  0  0  0  0
    7.1410    0.9650    0.3260 O   0  0  0  0  0  0  0  0  0  0  0  0
    8.4330    1.1080    0.1410 O   0  0  0  0  0  0  0  0  0  0  0  0
    9.0600   -0.0440    0.0860 O   0  0  0  0  0  0  0  0  0  0  0  0
  1  2  2  0
  2  3  1  0
  2 23  1  0
  3  4  1  0
  4  5  1  0
  5  6  1  0
  6  7  2  0
  6  8  1  0
  8  9  1  6
  8 10  1  0
  8 11  1  0
 12 11  1  1
 12 13  1  0
 12 21  1  0
 13 14  1  0
 14 15  1  6
 14 16  1  0
 14 19  1  0
 16 17  2  0
 16 18  1  0
 19 20  1  0
 20 21  1  0
 21 22  2  0
 23 24  1  0
 24 25  1  0
 25 26  1  0
 26 27  1  0
 27 28  1  0
M  END
