
     RDKit          3D

 28 29  0  0  0  0  0  0  0  0999 V2000
    3.7780   -0.6560    0.7030 C   0  0  0  0  0  0  0  0  0  0  0  0
    2.8140    0.2780    0.3310 O   0  0  0  0  0  0  0  0  0  0  0  0
    2.6230    0.2290   -1.3560 P   0  0  0  0  0  0  0  0  0  0  0  0
    3.6720   -0.9260   -2.1260 O   0  0  0  0  0  0  0  0  0  0  0  0
    1.1040    0.1800   -2.0110 O   0  0  0  0  0  0  0  0  0  0  0  0
   -0.0250    0.3350   -1.2980 C   0  0  2  0  0  0  0  0  0  0  0  0
   -1.0840    0.2300   -2.2390 F   0  0  0  0  0  0  0  0  0  0  0  0
   -0.1120    1.7710   -0.8370 C   0  0  0  0  0  0  0  0  0  0  0  0
    0.9780    2.0950   -0.0460 O   0  0  0  0  0  0  0  0  0  0  0  0
    1.2290    3.3010    0.5430 C   0  0  0  0  0  0  0  0  0  0  0  0
    0.4010    4.2340    0.3640 O   0  0  0  0  0  0  0  0  0  0  0  0
    2.3700    3.4620    1.3070 O   0  0  0  0  0  0  0  0  0  0  0  0
   -0.3550   -0.6590   -0.2410 C   0  0  1  0  0  0  0  0  0  0  0  0
    0.5080   -0.8170    0.7740 O   0  0  0  0  0  0  0  0  0  0  0  0
    0.1430   -0.4800    2.0250 C   0  0  0  0  0  0  0  0  0  0  0  0
   -0.9960    0.4560    2.1910 C   0  0  0  0  0  0  0  0  0  0  0  0
   -1.9350    0.4540    1.2080 O   0  0  0  0  0  0  0  0  0  0  0  0
   -1.7840   -0.4630    0.2220 C   0  0  1  0  0  0  0  0  0  0  0  0
   -2.6400   -0.2470   -0.8510 O   0  0  0  0  0  0  0  0  0  0  0  0
   -3.9910   -0.0460   -0.6340 C   0  0  0  0  0  0  0  0  0  0  0  0
   -4.4010   -0.0670    0.5570 O   0  0  0  0  0  0  0  0  0  0  0  0
   -4.9050    0.1750   -1.6560 O   0  0  0  0  0  0  0  0  0  0  0  0
   -2.0740   -1.7590    0.7750 O   0  0  0  0  0  0  0  0  0  0  0  0
   -1.3560   -2.7190    0.1090 C   0  0  0  0  0  0  0  0  0  0  0  0
   -1.3890   -3.9440    0.3380 O   0  0  0  0  0  0  0  0  0  0  0  0
   -0.5480   -2.0250   -0.9200 C   0  0  1  0  0  0  0  0  0  0  0  0
   -1.3510   -1.8870   -2.0510 O   0  0  0  0  0  0  0  0  0  0  0  0
    0.6300   -2.6430   -1.1870 F   0  0  0  0  0  0  0  0  0  0  0  0
  1  2  1  0
  2  3  1  0
  3  4  1  0
  3  5  1  0
  5  6  1  0
  6  7  1  6
  6  8  1  0
  6 13  1  0
  8  9  1  0
  9 10  1  0
 10 11  2  0
 10 12  1  0
 13 14  1  1
 13 18  1  0
 13 26  1  0
 14 15  1  0
 15 16  1  0
 16 17  1  0
 17 18  1  0
 18 19  1  6
 18 23  1  0
 19 20  1  0
 20 21  2  0
 20 22  1  0
 23 24  1  0
 24 25  2  0
 24 26  1  0
 26 27  1  6
 26 28  1  0
M  END
