
     RDKit          3D

 28 28  0  0  0  0  0  0  0  0999 V2000
    5.9620    0.1210    1.3130 O   0  0  0  0  0  0  0  0  0  0  0  0
    6.3720   -1.0600    1.1590 C   0  0  0  0  0  0  0  0  0  0  0  0
    7.7310   -1.3620    1.3740 O   0  0  0  0  0  0  0  0  0  0  0  0
    5.4730   -2.0300    0.7800 O   0  0  0  0  0  0  0  0  0  0  0  0
    4.1140   -1.8040    0.5480 C   0  0  0  0  0  0  0  0  0  0  0  0
    3.8460   -0.8240   -0.5460 C   0  0  0  0  0  0  0  0  0  0  0  0
    2.4790   -0.6300   -0.7440 O   0  0  0  0  0  0  0  0  0  0  0  0
    1.5970   -0.1440    0.1960 C   0  0  0  0  0  0  0  0  0  0  0  0
    1.9960    0.1660    1.3340 O   0  0  0  0  0  0  0  0  0  0  0  0
    0.1590    0.0040   -0.1740 C   0  0  2  0  0  0  0  0  0  0  0  0
   -0.2750   -1.2690   -0.5300 F   0  0  0  0  0  0  0  0  0  0  0  0
    0.0460    0.9550   -1.3460 C   0  0  0  0  0  0  0  0  0  0  0  0
   -0.2490    0.2740   -2.5500 O   0  0  0  0  0  0  0  0  0  0  0  0
   -1.3800   -0.5000   -2.7450 C   0  0  0  0  0  0  0  0  0  0  0  0
   -1.3660   -1.3700   -3.6740 O   0  0  0  0  0  0  0  0  0  0  0  0
   -2.4880   -0.3230   -1.9460 O   0  0  0  0  0  0  0  0  0  0  0  0
   -2.7740    0.8070   -1.3200 O   0  0  0  0  0  0  0  0  0  0  0  0
   -3.6620    0.4900   -0.2860 C   0  0  1  0  0  0  0  0  0  0  0  0
   -3.3870   -0.7170    0.3240 O   0  0  0  0  0  0  0  0  0  0  0  0
   -4.3320   -1.6940    0.1010 C   0  0  0  0  0  0  0  0  0  0  0  0
   -5.5910   -1.3220    0.5650 O   0  0  0  0  0  0  0  0  0  0  0  0
   -3.8860    1.6250    0.6530 C   0  0  2  0  0  0  0  0  0  0  0  0
   -4.7820    2.5010    0.0180 F   0  0  0  0  0  0  0  0  0  0  0  0
   -2.8260    2.2280    1.2400 O   0  0  0  0  0  0  0  0  0  0  0  0
   -1.6060    2.6860    0.9600 C   0  0  0  0  0  0  0  0  0  0  0  0
   -1.3220    3.8430    0.5390 O   0  0  0  0  0  0  0  0  0  0  0  0
   -0.4140    1.8160    1.1360 C   0  0  0  0  0  0  0  0  0  0  0  0
   -0.6030    0.4970    0.8570 O   0  0  0  0  0  0  0  0  0  0  0  0
  1  2  2  0
  2  3  1  0
  2  4  1  0
  4  5  1  0
  5  6  1  0
  6  7  1  0
  7  8  1  0
  8  9  2  0
  8 10  1  0
 10 11  1  6
 10 12  1  0
 10 28  1  0
 12 13  1  0
 13 14  1  0
 14 15  2  0
 14 16  1  0
 16 17  1  0
 17 18  1  0
 18 19  1  1
 18 22  1  0
 19 20  1  0
 20 21  1  0
 22 23  1  6
 22 24  1  0
 24 25  1  0
 25 26  2  0
 25 27  1  0
 27 28  1  0
M  END
