
     RDKit          3D

 28 27  0  0  0  0  0  0  0  0999 V2000
    5.4910    3.1520    1.5060 O   0  0  0  0  0  0  0  0  0  0  0  0
    6.4070    2.4330    1.0120 C   0  0  0  0  0  0  0  0  0  0  0  0
    5.9980    1.3050    0.2940 O   0  0  0  0  0  0  0  0  0  0  0  0
    4.5970    1.0370    0.1640 C   0  0  0  0  0  0  0  0  0  0  0  0
    4.3880   -0.2340   -0.6500 C   0  0  0  0  0  0  0  0  0  0  0  0
    3.0120   -0.5160   -0.7910 O   0  0  0  0  0  0  0  0  0  0  0  0
    2.1610   -0.7530    0.2690 C   0  0  0  0  0  0  0  0  0  0  0  0
    2.6300   -0.7190    1.4330 O   0  0  0  0  0  0  0  0  0  0  0  0
    0.6980   -1.0480    0.0970 C   0  0  2  0  0  0  0  0  0  0  0  0
    0.3700   -1.0550   -1.2600 O   0  0  0  0  0  0  0  0  0  0  0  0
   -0.0400    0.0730    0.7600 C   0  0  0  0  0  0  0  0  0  0  0  0
   -1.5270   -0.0410    0.6990 C   0  0  0  0  0  0  0  0  0  0  0  0
   -2.1510   -0.5470    1.6800 O   0  0  0  0  0  0  0  0  0  0  0  0
   -2.2340    0.3870   -0.3850 O   0  0  0  0  0  0  0  0  0  0  0  0
   -3.6050    0.3610   -0.5860 C   0  0  0  0  0  0  0  0  0  0  0  0
   -4.3540    1.2510    0.3660 C   0  0  2  0  0  0  0  0  0  0  0  0
   -3.9100    2.5730    0.2260 O   0  0  0  0  0  0  0  0  0  0  0  0
   -4.1660    0.8230    1.6520 F   0  0  0  0  0  0  0  0  0  0  0  0
   -5.8230    1.1900    0.0900 C   0  0  0  0  0  0  0  0  0  0  0  0
   -6.3950    0.0940    0.1580 O   0  0  0  0  0  0  0  0  0  0  0  0
   -6.4890    2.3350   -0.2260 O   0  0  0  0  0  0  0  0  0  0  0  0
   -7.8140    2.3740   -0.4900 O   0  0  0  0  0  0  0  0  0  0  0  0
    0.3270   -2.3470    0.7260 C   0  0  2  0  0  0  0  0  0  0  0  0
   -1.0400   -2.5570    0.5440 O   0  0  0  0  0  0  0  0  0  0  0  0
    0.5290   -2.2590    2.1020 F   0  0  0  0  0  0  0  0  0  0  0  0
    1.0510   -3.5010    0.1730 C   0  0  0  0  0  0  0  0  0  0  0  0
    0.4170   -4.4460   -0.3440 O   0  0  0  0  0  0  0  0  0  0  0  0
    2.4300   -3.5540    0.2190 O   0  0  0  0  0  0  0  0  0  0  0  0
  1  2  2  0
  2  3  1  0
  3  4  1  0
  4  5  1  0
  5  6  1  0
  6  7  1  0
  7  8  2  0
  7  9  1  0
  9 10  1  6
  9 11  1  0
  9 23  1  0
 11 12  1  0
 12 13  2  0
 12 14  1  0
 14 15  1  0
 15 16  1  0
 16 17  1  1
 16 18  1  0
 16 19  1  0
 19 20  2  0
 19 21  1  0
 21 22  1  0
 23 24  1  1
 23 25  1  0
 23 26  1  0
 26 27  2  0
 26 28  1  0
M  END
