
     RDKit          3D

 28 28  0  0  0  0  0  0  0  0999 V2000
   -0.8010   -2.3970   -2.7090 O   0  0  0  0  0  0  0  0  0  0  0  0
   -1.2790   -2.7980   -1.6130 C   0  0  0  0  0  0  0  0  0  0  0  0
   -2.3480   -1.9750   -1.0060 C   0  0  0  0  0  0  0  0  0  0  0  0
   -2.0960   -0.4850   -1.1690 C   0  0  0  0  0  0  0  0  0  0  0  0
   -2.1540    0.1380    0.0430 O   0  0  0  0  0  0  0  0  0  0  0  0
   -1.3240    1.2040    0.2410 C   0  0  2  0  0  0  0  0  0  0  0  0
   -1.5750    1.8020    1.5010 F   0  0  0  0  0  0  0  0  0  0  0  0
   -1.7160    2.2880   -0.7160 C   0  0  0  0  0  0  0  0  0  0  0  0
   -2.6680    2.1190   -1.4960 O   0  0  0  0  0  0  0  0  0  0  0  0
   -1.0290    3.4850   -0.7420 O   0  0  0  0  0  0  0  0  0  0  0  0
   -1.3800    4.4540   -1.5980 O   0  0  0  0  0  0  0  0  0  0  0  0
   -2.4030    5.1580   -1.1750 O   0  0  0  0  0  0  0  0  0  0  0  0
   -3.1680    4.4820   -0.3430 O   0  0  0  0  0  0  0  0  0  0  0  0
    0.1270    0.9870    0.0480 C   0  0  0  0  0  0  0  0  0  0  0  0
    0.7590   -0.2510    0.5200 C   0  0  1  0  0  0  0  0  0  0  0  0
    1.1700   -1.0490   -0.5670 F   0  0  0  0  0  0  0  0  0  0  0  0
    2.0750    0.1670    1.1500 C   0  0  0  0  0  0  0  0  0  0  0  0
    2.2710   -0.0790    2.3540 O   0  0  0  0  0  0  0  0  0  0  0  0
    3.0510    0.8120    0.4110 O   0  0  0  0  0  0  0  0  0  0  0  0
    4.2530    1.1690    1.0760 C   0  0  0  0  0  0  0  0  0  0  0  0
    5.1420    1.8050    0.2240 O   0  0  0  0  0  0  0  0  0  0  0  0
    4.6460    2.9090   -0.2790 O   0  0  0  0  0  0  0  0  0  0  0  0
    0.0570   -1.0550    1.5240 C   0  0  0  0  0  0  0  0  0  0  0  0
   -0.8550   -0.5370    2.1920 O   0  0  0  0  0  0  0  0  0  0  0  0
    0.3950   -2.3590    1.7290 O   0  0  0  0  0  0  0  0  0  0  0  0
    0.5590   -3.4180    0.8560 C   0  0  0  0  0  0  0  0  0  0  0  0
   -0.7330   -4.0880    0.4330 C   0  0  0  0  0  0  0  0  0  0  0  0
   -0.8590   -3.9440   -0.9680 O   0  0  0  0  0  0  0  0  0  0  0  0
  1  2  2  0
  2  3  1  0
  2 28  1  0
  3  4  1  0
  4  5  1  0
  5  6  1  0
  6  7  1  1
  6  8  1  0
  6 14  1  0
  8  9  2  0
  8 10  1  0
 10 11  1  0
 11 12  1  0
 12 13  1  0
 14 15  1  0
 15 16  1  6
 15 17  1  0
 15 23  1  0
 17 18  2  0
 17 19  1  0
 19 20  1  0
 20 21  1  0
 21 22  1  0
 23 24  2  0
 23 25  1  0
 25 26  1  0
 26 27  1  0
 27 28  1  0
M  END
