
     RDKit          3D

 21 21  0  0  0  0  0  0  0  0999 V2000
   -4.5540    1.7870    0.4530 C   0  0  0  0  0  0  0  0  0  0  0  0
   -3.3560    1.1270   -0.1150 C   0  0  0  0  0  0  0  0  0  0  0  0
   -3.4980    0.3590   -1.1720 C   0  0  0  0  0  0  0  0  0  0  0  0
   -4.7650    0.1620   -1.7630 O   0  0  0  0  0  0  0  0  0  0  0  0
   -5.1310   -1.2070   -1.9510 C   0  0  0  0  0  0  0  0  0  0  0  0
   -5.1360   -1.8340   -0.5620 C   0  0  0  0  0  0  0  0  0  0  0  0
   -6.0860   -1.1140    0.1840 O   0  0  0  0  0  0  0  0  0  0  0  0
   -2.0760    1.3460    0.5080 C   0  0  0  0  0  0  0  0  0  0  0  0
   -2.0140    2.1010    1.5280 O   0  0  0  0  0  0  0  0  0  0  0  0
   -0.8600    0.7660    0.0530 N   0  0  0  0  0  0  0  0  0  0  0  0
    0.4040    0.9940    0.6820 C   0  0  0  0  0  0  0  0  0  0  0  0
    1.5130    0.7160    0.6000 N   0  0  0  0  0  0  0  0  0  0  0  0
    2.5410    1.0690    1.3360 C   0  0  0  0  0  0  0  0  0  0  0  0
    3.9190    0.6340    1.1160 C   0  0  0  0  0  0  0  0  0  0  0  0
    4.8660    1.0300    1.8870 O   0  0  0  0  0  0  0  0  0  0  0  0
    4.2090   -0.2200    0.0550 O   0  0  0  0  0  0  0  0  0  0  0  0
    5.5380   -0.6200   -0.1330 C   0  0  2  0  0  0  0  0  0  0  0  0
    6.0850   -0.2030   -1.4790 C   0  0  0  0  0  0  0  0  0  0  0  0
    5.6130   -2.1220    0.0590 C   0  0  0  0  0  0  0  0  0  0  0  0
    2.2400    1.9020    2.3660 C   0  0  0  0  0  0  0  0  0  0  0  0
    0.4680    2.1220    2.1990 S   0  0  0  0  0  0  0  0  0  0  0  0
  1  2  1  0
  2  3  2  3
  2  8  1  0
  3  4  1  0
  4  5  1  0
  5  6  1  0
  6  7  1  0
  8  9  2  0
  8 10  1  0
 10 11  1  0
 11 12  2  0
 11 21  1  0
 12 13  1  0
 13 14  1  0
 13 20  2  0
 14 15  2  0
 14 16  1  0
 16 17  1  0
 17 18  1  6
 17 19  1  0
 20 21  1  0
M  END
