
     RDKit          3D

 21 21  0  0  0  0  0  0  0  0999 V2000
   -2.8370    3.7150    0.0630 C   0  0  0  0  0  0  0  0  0  0  0  0
   -2.2970    2.6730    0.8530 O   0  0  0  0  0  0  0  0  0  0  0  0
   -1.9720    1.4310    0.3310 C   0  0  0  0  0  0  0  0  0  0  0  0
   -2.1750    1.2520   -0.8930 O   0  0  0  0  0  0  0  0  0  0  0  0
   -1.4030    0.3650    1.2130 C   0  0  0  0  0  0  0  0  0  0  0  0
   -1.1370   -0.8340    0.4900 N   0  0  0  0  0  0  0  0  0  0  0  0
    0.2000   -0.9540   -0.0670 C   0  0  0  0  0  0  0  0  0  0  0  0
    0.5440   -1.9830   -0.7290 O   0  0  0  0  0  0  0  0  0  0  0  0
    1.2180    0.1050    0.1040 C   0  0  0  0  0  0  0  0  0  0  0  0
    2.4450   -0.2500   -0.5430 N   0  0  0  0  0  0  0  0  0  0  0  0
    3.5470    0.7020   -0.4590 C   0  0  0  0  0  0  0  0  0  0  0  0
    4.7270    0.3260   -0.1420 C   0  0  0  0  0  0  0  0  0  0  0  0
    5.7970    1.3470   -0.0760 C   0  0  0  0  0  0  0  0  0  0  0  0
    4.7950    2.8610    0.0340 S   0  0  0  0  0  0  0  0  0  0  0  0
    3.2990    2.1230   -0.7430 C   0  0  0  0  0  0  0  0  0  0  0  0
   -2.0080   -1.9360    0.2360 C   0  0  1  0  0  0  0  0  0  0  0  0
   -2.0980   -2.0700   -1.2960 C   0  0  0  0  0  0  0  0  0  0  0  0
   -1.3020   -3.2180    0.7120 C   0  0  0  0  0  0  0  0  0  0  0  0
   -3.3560   -1.8650    0.7700 C   0  0  0  0  0  0  0  0  0  0  0  0
   -3.8080   -0.8750    1.3560 O   0  0  0  0  0  0  0  0  0  0  0  0
   -4.1830   -2.9690    0.6140 O   0  0  0  0  0  0  0  0  0  0  0  0
  1  2  1  0
  2  3  1  0
  3  4  2  0
  3  5  1  0
  5  6  1  0
  6  7  1  0
  6 16  1  0
  7  8  2  0
  7  9  1  0
  9 10  1  0
 10 11  1  0
 11 12  2  0
 11 15  1  0
 12 13  1  0
 13 14  1  0
 14 15  1  0
 16 17  1  6
 16 18  1  0
 16 19  1  0
 19 20  2  0
 19 21  1  0
M  END
