
     RDKit          3D

 21 21  0  0  0  0  0  0  0  0999 V2000
   -4.7850    1.9730   -1.2490 C   0  0  0  0  0  0  0  0  0  0  0  0
   -3.4800    1.1640   -1.2170 C   0  0  0  0  0  0  0  0  0  0  0  0
   -3.3000    0.6970    0.0530 O   0  0  0  0  0  0  0  0  0  0  0  0
   -2.1720   -0.0580    0.2860 C   0  0  2  0  0  0  0  0  0  0  0  0
   -0.9360    0.7370   -0.0380 C   0  0  0  0  0  0  0  0  0  0  0  0
    0.2790   -0.0140    0.2070 N   0  0  0  0  0  0  0  0  0  0  0  0
    1.5730    0.5150   -0.0240 C   0  0  0  0  0  0  0  0  0  0  0  0
    1.6780    1.6850   -0.4590 O   0  0  0  0  0  0  0  0  0  0  0  0
    2.7750   -0.2090    0.2110 N   0  0  0  0  0  0  0  0  0  0  0  0
    4.0620    0.3470   -0.0290 C   0  0  0  0  0  0  0  0  0  0  0  0
    4.9250   -0.1590   -0.8740 C   0  0  0  0  0  0  0  0  0  0  0  0
    4.5810   -1.3520   -1.6240 C   0  0  0  0  0  0  0  0  0  0  0  0
    5.4350   -1.8290   -2.4410 O   0  0  0  0  0  0  0  0  0  0  0  0
    3.3770   -1.9900   -1.4920 O   0  0  0  0  0  0  0  0  0  0  0  0
    4.4790    1.8150    0.8960 S   0  0  0  0  0  0  0  0  0  0  0  0
    6.1480    2.4000    0.4750 C   0  0  0  0  0  0  0  0  0  0  0  0
   -2.1260   -1.3580   -0.4860 C   0  0  0  0  0  0  0  0  0  0  0  0
   -2.3190   -2.5550    0.4460 C   0  0  0  0  0  0  0  0  0  0  0  0
   -3.3960   -2.4380    1.2800 O   0  0  0  0  0  0  0  0  0  0  0  0
   -3.4750   -1.2410    1.9590 C   0  0  0  0  0  0  0  0  0  0  0  0
   -2.2010   -0.4610    1.7530 C   0  0  0  0  0  0  0  0  0  0  0  0
  1  2  1  0
  2  3  1  0
  3  4  1  0
  4  5  1  1
  4 17  1  0
  4 21  1  0
  5  6  1  0
  6  7  1  0
  7  8  2  0
  7  9  1  0
  9 10  1  0
 10 11  2  3
 10 15  1  0
 11 12  1  0
 12 13  2  0
 12 14  1  0
 15 16  1  0
 17 18  1  0
 18 19  1  0
 19 20  1  0
 20 21  1  0
M  END
