
     RDKit          3D

 21 20  0  0  0  0  0  0  0  0999 V2000
   -3.4790   -0.7840    3.7230 C   0  0  0  0  0  0  0  0  0  0  0  0
   -3.9440   -1.0110    2.5100 C   0  0  0  0  0  0  0  0  0  0  0  0
   -3.1060   -0.7040    1.3740 C   0  0  0  0  0  0  0  0  0  0  0  0
   -3.5110   -0.9080    0.1130 C   0  0  0  0  0  0  0  0  0  0  0  0
   -2.6850   -0.6050   -1.0010 N   0  0  0  0  0  0  0  0  0  0  0  0
   -2.9000   -1.1900   -2.1290 C   0  0  0  0  0  0  0  0  0  0  0  0
   -3.9540   -2.1320   -2.2670 N   0  0  0  0  0  0  0  0  0  0  0  0
   -1.8250   -0.7620   -3.4830 S   0  0  0  0  0  0  0  0  0  0  0  0
   -0.5880    0.4480   -3.0240 C   0  0  0  0  0  0  0  0  0  0  0  0
    0.3600   -0.1240   -2.0320 C   0  0  0  0  0  0  0  0  0  0  0  0
    0.1980   -1.3240   -1.6450 O   0  0  0  0  0  0  0  0  0  0  0  0
    1.4150    0.5640   -1.4960 O   0  0  0  0  0  0  0  0  0  0  0  0
    2.3130    0.0000   -0.5480 C   0  0  0  0  0  0  0  0  0  0  0  0
    3.3520    0.9880   -0.1550 C   0  0  0  0  0  0  0  0  0  0  0  0
    3.3570    2.1410   -0.6480 O   0  0  0  0  0  0  0  0  0  0  0  0
    4.3420    0.6760    0.7600 O   0  0  0  0  0  0  0  0  0  0  0  0
    5.3440    1.6070    1.1480 C   0  0  2  0  0  0  0  0  0  0  0  0
    6.6900    1.0010    0.8220 C   0  0  0  0  0  0  0  0  0  0  0  0
    5.2460    1.8500    2.6430 C   0  0  0  0  0  0  0  0  0  0  0  0
   -4.7780   -1.4310   -0.1260 O   0  0  0  0  0  0  0  0  0  0  0  0
   -5.9410   -0.6290   -0.1920 C   0  0  0  0  0  0  0  0  0  0  0  0
  1  2  2  0
  2  3  1  0
  3  4  2  3
  4  5  1  0
  4 20  1  0
  5  6  2  3
  6  7  1  0
  6  8  1  0
  8  9  1  0
  9 10  1  0
 10 11  2  0
 10 12  1  0
 12 13  1  0
 13 14  1  0
 14 15  2  0
 14 16  1  0
 16 17  1  0
 17 18  1  1
 17 19  1  0
 20 21  1  0
M  END
