
     RDKit          3D

 26 28  0  0  0  0  0  0  0  0999 V2000
   -2.6990    0.2430   -3.3640 C   0  0  0  0  0  0  0  0  0  0  0  0
   -2.3700   -0.3740   -2.1520 O   0  0  0  0  0  0  0  0  0  0  0  0
   -1.4170    0.4580   -1.5190 C   0  0  0  0  0  0  0  0  0  0  0  0
   -1.0180   -0.1320   -0.2150 C   0  0  0  0  0  0  0  0  0  0  0  0
   -2.1770   -0.2580    0.6400 N   0  0  0  0  0  0  0  0  0  0  0  0
   -2.3110   -0.6260    1.8100 C   0  0  0  0  0  0  0  0  0  0  0  0
   -3.6880   -0.6280    2.3750 C   0  0  0  0  0  0  0  0  0  0  0  0
   -4.8010   -0.2760    1.7590 C   0  0  0  0  0  0  0  0  0  0  0  0
   -5.8260   -0.4410    2.6730 O   0  0  0  0  0  0  0  0  0  0  0  0
   -5.3480   -0.4390    3.9320 O   0  0  0  0  0  0  0  0  0  0  0  0
   -4.0760   -1.0170    3.7370 C   0  0  0  0  0  0  0  0  0  0  0  0
    0.1510   -0.5060    0.2020 C   0  0  0  0  0  0  0  0  0  0  0  0
    0.3350   -1.0610    1.4940 O   0  0  0  0  0  0  0  0  0  0  0  0
    1.6560   -1.3770    1.6900 C   0  0  0  0  0  0  0  0  0  0  0  0
    2.2970   -1.9360    2.7890 C   0  0  0  0  0  0  0  0  0  0  0  0
    3.6520   -2.1470    2.7090 C   0  0  0  0  0  0  0  0  0  0  0  0
    4.4170   -1.8380    1.6050 C   0  0  0  0  0  0  0  0  0  0  0  0
    3.7360   -1.2830    0.5360 C   0  0  0  0  0  0  0  0  0  0  0  0
    2.3870   -1.0560    0.5740 C   0  0  0  0  0  0  0  0  0  0  0  0
    1.4210   -0.5010   -0.3690 N   0  0  0  0  0  0  0  0  0  0  0  0
    1.8970    0.0090   -1.6310 C   0  0  0  0  0  0  0  0  0  0  0  0
    1.9360    1.5110   -1.5840 C   0  0  0  0  0  0  0  0  0  0  0  0
    2.3780    2.0670   -2.8080 O   0  0  0  0  0  0  0  0  0  0  0  0
    2.4940    3.4260   -3.0350 C   0  0  0  0  0  0  0  0  0  0  0  0
    2.1850    4.1940   -2.0920 O   0  0  0  0  0  0  0  0  0  0  0  0
    2.9220    3.9720   -4.2190 O   0  0  0  0  0  0  0  0  0  0  0  0
  1  2  1  0
  2  3  1  0
  3  4  1  0
  4  5  1  0
  4 12  2  3
  5  6  2  3
  6  7  1  0
  7  8  2  0
  7 11  1  0
  8  9  1  0
  9 10  1  0
 10 11  1  0
 12 13  1  0
 12 20  1  0
 13 14  1  0
 14 15  2  0
 14 19  1  0
 15 16  1  0
 16 17  2  0
 17 18  1  0
 18 19  2  0
 19 20  1  0
 20 21  1  0
 21 22  1  0
 22 23  1  0
 23 24  1  0
 24 25  2  0
 24 26  1  0
M  END
