
     RDKit          3D

 25 25  0  0  0  0  0  0  0  0999 V2000
    4.6730   -1.8820    1.9750 C   0  0  0  0  0  0  0  0  0  0  0  0
    3.9490   -0.7360    1.4080 C   0  0  0  0  0  0  0  0  0  0  0  0
    2.6610   -0.6680    1.2020 C   0  0  0  0  0  0  0  0  0  0  0  0
    1.7080   -1.7590    1.5140 C   0  0  0  0  0  0  0  0  0  0  0  0
    1.0040   -2.2280    0.4070 O   0  0  0  0  0  0  0  0  0  0  0  0
    1.6650   -2.7670   -0.6740 C   0  0  0  0  0  0  0  0  0  0  0  0
    2.9150   -2.8320   -0.6560 O   0  0  0  0  0  0  0  0  0  0  0  0
    2.0900    0.5640    0.6230 C   0  0  0  0  0  0  0  0  0  0  0  0
    2.8310    1.5240    0.3340 O   0  0  0  0  0  0  0  0  0  0  0  0
    0.6820    0.6980    0.3790 N   0  0  0  0  0  0  0  0  0  0  0  0
    0.1770    1.8770   -0.1680 C   0  0  0  0  0  0  0  0  0  0  0  0
   -1.0010    2.2700   -0.4940 C   0  0  0  0  0  0  0  0  0  0  0  0
   -2.2750    1.6080   -0.4200 C   0  0  0  0  0  0  0  0  0  0  0  0
   -2.4340    0.3110    0.0380 O   0  0  0  0  0  0  0  0  0  0  0  0
   -2.0040   -0.8070   -0.6850 C   0  0  0  0  0  0  0  0  0  0  0  0
   -1.4520   -0.5720   -1.7900 O   0  0  0  0  0  0  0  0  0  0  0  0
   -2.1930   -2.1600   -0.1730 C   0  0  0  0  0  0  0  0  0  0  0  0
   -1.8070   -3.2440   -0.8230 C   0  0  0  0  0  0  0  0  0  0  0  0
   -2.1670   -4.4130    0.0080 C   0  0  0  0  0  0  0  0  0  0  0  0
   -2.7640   -3.8880    1.0540 C   0  0  0  0  0  0  0  0  0  0  0  0
   -2.8070   -2.5720    1.0810 C   0  0  0  0  0  0  0  0  0  0  0  0
   -1.0730    3.6650   -1.0510 C   0  0  0  0  0  0  0  0  0  0  0  0
   -0.0200    4.3240   -1.1590 O   0  0  0  0  0  0  0  0  0  0  0  0
   -2.2900    4.2530   -1.4540 N   0  0  0  0  0  0  0  0  0  0  0  0
   -2.3210    5.6220   -1.9950 C   0  0  0  0  0  0  0  0  0  0  0  0
  1  2  1  0
  2  3  2  3
  3  4  1  0
  3  8  1  0
  4  5  1  0
  5  6  1  0
  6  7  2  0
  8  9  2  0
  8 10  1  0
 10 11  1  0
 11 12  2  3
 12 13  1  0
 12 22  1  0
 13 14  1  0
 14 15  1  0
 15 16  2  0
 15 17  1  0
 17 18  2  0
 17 21  1  0
 18 19  1  0
 19 20  2  0
 20 21  2  0
 22 23  2  0
 22 24  1  0
 24 25  1  0
M  END
