
     RDKit          3D

 25 26  0  0  0  0  0  0  0  0999 V2000
    6.9450    0.9630    1.3000 C   0  0  0  0  0  0  0  0  0  0  0  0
    6.4660    1.1220    0.0960 C   0  0  0  0  0  0  0  0  0  0  0  0
    6.6580    2.3880   -0.6230 C   0  0  0  0  0  0  0  0  0  0  0  0
    5.7410    0.0430   -0.5350 C   0  0  0  0  0  0  0  0  0  0  0  0
    5.2490    0.1160   -1.6900 O   0  0  0  0  0  0  0  0  0  0  0  0
    5.5460   -1.1640    0.1240 O   0  0  0  0  0  0  0  0  0  0  0  0
    4.8440   -2.2390   -0.4570 C   0  0  0  0  0  0  0  0  0  0  0  0
    3.4350   -1.9230   -0.8120 C   0  0  0  0  0  0  0  0  0  0  0  0
    2.6600   -1.5360    0.3120 O   0  0  0  0  0  0  0  0  0  0  0  0
    1.3060   -1.2010    0.1710 C   0  0  0  0  0  0  0  0  0  0  0  0
    0.5540   -0.8300    1.2300 C   0  0  0  0  0  0  0  0  0  0  0  0
   -0.8080   -0.4970    1.0690 C   0  0  0  0  0  0  0  0  0  0  0  0
   -1.4090   -0.5360   -0.1470 C   0  0  0  0  0  0  0  0  0  0  0  0
   -2.7670   -0.2300   -0.3780 N   0  0  0  0  0  0  0  0  0  0  0  0
   -3.7600   -0.0230    0.5980 C   0  0  0  0  0  0  0  0  0  0  0  0
   -3.5010   -0.1020    1.8080 O   0  0  0  0  0  0  0  0  0  0  0  0
   -5.1580    0.3000    0.2030 C   0  0  1  0  0  0  0  0  0  0  0  0
   -6.0090    0.4720    1.3620 N   0  0  0  0  0  0  0  0  0  0  0  0
   -7.3410    0.8580    1.0220 C   0  0  0  0  0  0  0  0  0  0  0  0
   -7.5470    1.0960   -0.4590 C   0  0  0  0  0  0  0  0  0  0  0  0
   -6.5230    2.0220   -0.8580 O   0  0  0  0  0  0  0  0  0  0  0  0
   -5.2220    1.5530   -0.5920 C   0  0  0  0  0  0  0  0  0  0  0  0
   -4.2480    2.1900   -1.0220 O   0  0  0  0  0  0  0  0  0  0  0  0
   -0.5910   -0.9260   -1.2170 C   0  0  0  0  0  0  0  0  0  0  0  0
    0.7270   -1.2500   -1.0730 C   0  0  0  0  0  0  0  0  0  0  0  0
  1  2  2  0
  2  3  1  0
  2  4  1  0
  4  5  2  0
  4  6  1  0
  6  7  1  0
  7  8  1  0
  8  9  1  0
  9 10  1  0
 10 11  2  0
 10 25  1  0
 11 12  1  0
 12 13  2  0
 13 14  1  0
 13 24  1  0
 14 15  1  0
 15 16  2  0
 17 15  1  1
 17 18  1  0
 17 22  1  0
 18 19  1  0
 19 20  1  0
 20 21  1  0
 21 22  1  0
 22 23  2  0
 24 25  2  0
M  END
