
     RDKit          3D

 25 26  0  0  0  0  0  0  0  0999 V2000
   -4.0140   -0.6800   -2.8750 O   0  0  0  0  0  0  0  0  0  0  0  0
   -4.5270   -0.4030   -1.7360 C   0  0  0  0  0  0  0  0  0  0  0  0
   -5.9380   -0.3870   -1.5850 N   0  0  0  0  0  0  0  0  0  0  0  0
   -6.4980   -0.6770   -0.2760 C   0  0  1  0  0  0  0  0  0  0  0  0
   -6.2820   -2.0350   -0.0070 O   0  0  0  0  0  0  0  0  0  0  0  0
   -5.7770    0.1840    0.6880 C   0  0  0  0  0  0  0  0  0  0  0  0
   -6.3420    0.9010    1.5410 O   0  0  0  0  0  0  0  0  0  0  0  0
   -4.3310    0.1940    0.6380 N   0  0  0  0  0  0  0  0  0  0  0  0
   -3.6850   -0.1010   -0.5810 C   0  0  0  0  0  0  0  0  0  0  0  0
   -2.3390   -0.1220   -0.7440 C   0  0  0  0  0  0  0  0  0  0  0  0
   -1.4430    0.1600    0.3280 C   0  0  0  0  0  0  0  0  0  0  0  0
   -0.1580    0.1810    0.3890 C   0  0  0  0  0  0  0  0  0  0  0  0
    0.4420    0.5150    1.6470 C   0  0  0  0  0  0  0  0  0  0  0  0
    1.7850    0.5800    1.8330 C   0  0  0  0  0  0  0  0  0  0  0  0
    2.6400    0.3150    0.7730 C   0  0  0  0  0  0  0  0  0  0  0  0
    3.9490    0.3940    1.0100 C   0  0  0  0  0  0  0  0  0  0  0  0
    4.8890    0.1320   -0.0440 C   0  0  0  0  0  0  0  0  0  0  0  0
    6.1830    0.1870    0.0970 C   0  0  0  0  0  0  0  0  0  0  0  0
    6.8550    0.5260    1.3580 C   0  0  0  0  0  0  0  0  0  0  0  0
    7.6330    1.6860    1.1170 O   0  0  0  0  0  0  0  0  0  0  0  0
    2.0710   -0.0040   -0.4230 C   0  0  0  0  0  0  0  0  0  0  0  0
    0.6790   -0.0800   -0.6460 C   0  0  0  0  0  0  0  0  0  0  0  0
    0.2770   -0.4940   -1.9790 C   0  0  0  0  0  0  0  0  0  0  0  0
    0.2300    0.3740   -2.8810 O   0  0  0  0  0  0  0  0  0  0  0  0
   -0.0490   -1.8000   -2.3110 O   0  0  0  0  0  0  0  0  0  0  0  0
  1  2  2  0
  2  3  1  0
  2  9  1  0
  3  4  1  0
  4  5  1  1
  4  6  1  0
  6  7  2  0
  6  8  1  0
  8  9  1  0
  9 10  2  3
 10 11  1  0
 11 12  2  3
 12 13  1  0
 12 22  1  0
 13 14  2  0
 14 15  1  0
 15 16  2  3
 15 21  1  0
 16 17  1  0
 17 18  2  3
 18 19  1  0
 19 20  1  0
 21 22  2  0
 22 23  1  0
 23 24  2  0
 23 25  1  0
M  END
