
     RDKit          3D

 25 25  0  0  0  0  0  0  0  0999 V2000
    3.6910   -2.6040    1.7490 C   0  0  0  0  0  0  0  0  0  0  0  0
    4.1770   -1.7050    0.7860 O   0  0  0  0  0  0  0  0  0  0  0  0
    3.4260   -0.7310    0.1720 C   0  0  0  0  0  0  0  0  0  0  0  0
    3.9850    0.4000   -0.1840 C   0  0  0  0  0  0  0  0  0  0  0  0
    5.3850    0.6240    0.0690 C   0  0  0  0  0  0  0  0  0  0  0  0
    5.9610    1.7610   -0.2850 C   0  0  0  0  0  0  0  0  0  0  0  0
    7.3980    2.0390   -0.0460 C   0  0  0  0  0  0  0  0  0  0  0  0
    7.5080    3.1780    0.7790 O   0  0  0  0  0  0  0  0  0  0  0  0
    2.0620   -0.9520   -0.0730 N   0  0  0  0  0  0  0  0  0  0  0  0
    1.1920   -0.0450    0.1070 C   0  0  0  0  0  0  0  0  0  0  0  0
   -0.2210   -0.0410   -0.0720 C   0  0  0  0  0  0  0  0  0  0  0  0
   -1.0790   -0.9250   -0.4650 C   0  0  0  0  0  0  0  0  0  0  0  0
   -2.4860   -0.7000   -0.5730 N   0  0  0  0  0  0  0  0  0  0  0  0
   -3.2130    0.4610   -0.2940 C   0  0  0  0  0  0  0  0  0  0  0  0
   -2.6430    1.4950    0.1080 O   0  0  0  0  0  0  0  0  0  0  0  0
   -4.6830    0.5260   -0.4600 C   0  0  0  0  0  0  0  0  0  0  0  0
   -5.3380    1.7310   -0.3660 C   0  0  0  0  0  0  0  0  0  0  0  0
   -6.7030    1.8560   -0.5060 C   0  0  0  0  0  0  0  0  0  0  0  0
   -7.4580    0.7250   -0.7520 C   0  0  0  0  0  0  0  0  0  0  0  0
   -8.8320    0.8800   -0.8890 O   0  0  0  0  0  0  0  0  0  0  0  0
   -6.8320   -0.4860   -0.8500 C   0  0  0  0  0  0  0  0  0  0  0  0
   -5.4390   -0.5830   -0.7030 C   0  0  0  0  0  0  0  0  0  0  0  0
   -0.6570   -2.2680   -0.8420 C   0  0  0  0  0  0  0  0  0  0  0  0
    0.5140   -2.6110   -0.8010 O   0  0  0  0  0  0  0  0  0  0  0  0
   -1.5760   -3.2410   -1.2720 O   0  0  0  0  0  0  0  0  0  0  0  0
  1  2  1  0
  2  3  1  0
  3  4  2  3
  3  9  1  0
  4  5  1  0
  5  6  2  3
  6  7  1  0
  7  8  1  0
  9 10  2  3
 10 11  1  0
 11 12  2  3
 12 13  1  0
 12 23  1  0
 13 14  1  0
 14 15  2  0
 14 16  1  0
 16 17  2  0
 16 22  1  0
 17 18  1  0
 18 19  2  0
 19 20  1  0
 19 21  1  0
 21 22  2  0
 23 24  2  0
 23 25  1  0
M  END
