
     RDKit          3D

  8  7  0  0  0  0  0  0  0  0999 V2000
   -1.7710    1.2190    0.4750 O   0  0  0  0  0  0  0  0  0  0  0  0
   -1.9730    0.0690    0.0070 C   0  0  0  0  0  0  0  0  0  0  0  0
   -3.2940   -0.3400   -0.0980 O   0  0  0  0  0  0  0  0  0  0  0  0
   -0.9050   -0.7460   -0.3840 O   0  0  0  0  0  0  0  0  0  0  0  0
    0.4090   -0.3120   -0.2690 C   0  0  0  0  0  0  0  0  0  0  0  0
    0.5700    0.8570    0.2100 O   0  0  0  0  0  0  0  0  0  0  0  0
    1.4940   -1.0930   -0.6470 O   0  0  0  0  0  0  0  0  0  0  0  0
    3.0940   -0.3920   -0.4340 P   0  0  0  0  0  0  0  0  0  0  0  0
  1  2  2  0
  2  3  1  0
  2  4  1  0
  4  5  1  0
  5  6  2  0
  5  7  1  0
  7  8  1  0
M  END
