
     RDKit          3D

 27 27  0  0  0  0  0  0  0  0999 V2000
   -2.6770   -0.3800    1.4920 N   0  0  0  0  0  0  0  0  0  0  0  0
   -2.3350   -0.9860    0.3810 C   0  0  0  0  0  0  0  0  0  0  0  0
   -2.8840   -2.2620    0.1700 N   0  0  0  0  0  0  0  0  0  0  0  0
   -4.2830   -2.8150    1.1600 P   0  0  0  0  0  0  0  0  0  0  0  0
   -5.2960   -3.7850    0.1410 O   0  0  0  0  0  0  0  0  0  0  0  0
   -5.1960   -1.4590    1.7050 O   0  0  0  0  0  0  0  0  0  0  0  0
   -1.4480   -0.3470   -0.5220 N   0  0  0  0  0  0  0  0  0  0  0  0
   -0.1660    0.1200   -0.0180 C   0  0  0  0  0  0  0  0  0  0  0  0
    1.0020   -0.6290   -0.5680 C   0  0  0  0  0  0  0  0  0  0  0  0
    2.2250   -0.1040   -0.0170 N   0  0  0  0  0  0  0  0  0  0  0  0
    2.5510   -0.1340    1.3520 C   0  0  0  0  0  0  0  0  0  0  0  0
    1.6480   -0.6770    2.1010 O   0  0  0  0  0  0  0  0  0  0  0  0
    3.9940    0.4560    2.1280 S   0  0  0  0  0  0  0  0  0  0  0  0
    5.4160    0.6040    1.0700 C   0  0  0  0  0  0  0  0  0  0  0  0
    6.4340    1.4580    1.2880 C   0  0  0  0  0  0  0  0  0  0  0  0
    7.4070    1.3200    0.2410 C   0  0  0  0  0  0  0  0  0  0  0  0
    8.5040    1.9600    0.1110 O   0  0  0  0  0  0  0  0  0  0  0  0
    6.9660    0.3370   -0.6650 N   0  0  0  0  0  0  0  0  0  0  0  0
    5.7190   -0.1120   -0.1450 C   0  0  0  0  0  0  0  0  0  0  0  0
    5.0380   -1.0280   -0.7360 O   0  0  0  0  0  0  0  0  0  0  0  0
   -1.8710   -0.1800   -1.9080 C   0  0  0  0  0  0  0  0  0  0  0  0
   -2.9860    0.8060   -1.9340 C   0  0  0  0  0  0  0  0  0  0  0  0
   -3.5680    1.1160   -2.9860 O   0  0  0  0  0  0  0  0  0  0  0  0
   -3.4180    1.4270   -0.7420 O   0  0  0  0  0  0  0  0  0  0  0  0
   -4.4710    2.3540   -0.7940 C   0  0  0  0  0  0  0  0  0  0  0  0
   -5.0020    2.6060   -1.8990 O   0  0  0  0  0  0  0  0  0  0  0  0
   -4.9230    2.9900    0.3810 O   0  0  0  0  0  0  0  0  0  0  0  0
  1  2  2  0
  2  3  1  0
  2  7  1  0
  3  4  1  0
  4  5  1  0
  4  6  1  0
  7  8  1  0
  7 21  1  0
  8  9  1  0
  9 10  1  0
 10 11  1  0
 11 12  2  0
 11 13  1  0
 13 14  1  0
 14 15  2  0
 14 19  1  0
 15 16  1  0
 16 17  2  0
 16 18  1  0
 18 19  1  0
 19 20  2  0
 21 22  1  0
 22 23  2  0
 22 24  1  0
 24 25  1  0
 25 26  2  0
 25 27  1  0
M  END
