
     RDKit          3D

  8  7  0  0  0  0  0  0  0  0999 V2000
   -2.7380   -0.1620    0.4150 C   0  0  0  0  0  0  0  0  0  0  0  0
   -1.4830   -0.6850    0.7650 O   0  0  0  0  0  0  0  0  0  0  0  0
   -0.3370   -0.0190    0.3900 C   0  0  0  0  0  0  0  0  0  0  0  0
   -0.4150    1.0430   -0.2560 O   0  0  0  0  0  0  0  0  0  0  0  0
    0.8770   -0.5730    0.7590 O   0  0  0  0  0  0  0  0  0  0  0  0
    2.4080    0.1910    0.3350 P   0  0  0  0  0  0  0  0  0  0  0  0
    2.2590    1.1900   -1.0700 O   0  0  0  0  0  0  0  0  0  0  0  0
    3.5750   -1.0890    0.0640 O   0  0  0  0  0  0  0  0  0  0  0  0
  1  2  1  0
  2  3  1  0
  3  4  2  0
  3  5  1  0
  5  6  1  0
  6  7  1  0
  6  8  1  0
M  END
