
     RDKit          3D

 27 28  0  0  0  0  0  0  0  0999 V2000
   -0.3130   -1.2800   -0.6960 C   0  0  0  0  0  0  0  0  0  0  0  0
   -0.1300   -0.7950    0.8010 S   0  0  0  0  0  0  0  0  0  0  0  0
    0.3290   -1.8950    1.3380 O   0  0  0  0  0  0  0  0  0  0  0  0
   -0.2250   -0.0320    2.0930 O   0  0  0  0  0  0  0  0  0  0  0  0
   -1.8840   -0.1700    0.6470 N   0  0  0  0  0  0  0  0  0  0  0  0
   -2.9580   -0.8240    1.2530 C   0  0  0  0  0  0  0  0  0  0  0  0
   -3.1850   -2.2340    0.8150 C   0  0  0  0  0  0  0  0  0  0  0  0
   -4.3440   -2.7850    1.5380 C   0  0  0  0  0  0  0  0  0  0  0  0
   -4.9590   -2.0860    2.3610 O   0  0  0  0  0  0  0  0  0  0  0  0
   -4.7470   -4.0800    1.3020 O   0  0  0  0  0  0  0  0  0  0  0  0
   -1.5960    0.8900   -0.1140 N   0  0  0  0  0  0  0  0  0  0  0  0
   -0.4810    1.3420   -0.3640 C   0  0  0  0  0  0  0  0  0  0  0  0
   -0.3560    2.5470   -1.2440 C   0  0  0  0  0  0  0  0  0  0  0  0
    0.4080    3.6220   -0.9550 C   0  0  0  0  0  0  0  0  0  0  0  0
    0.4450    4.6450   -1.8620 N   0  0  0  0  0  0  0  0  0  0  0  0
   -0.2700    4.5470   -2.9920 C   0  0  0  0  0  0  0  0  0  0  0  0
   -0.2690    5.5700   -3.9610 O   0  0  0  0  0  0  0  0  0  0  0  0
   -1.0110    3.5030   -3.2680 O   0  0  0  0  0  0  0  0  0  0  0  0
   -1.0800    2.4960   -2.4330 C   0  0  0  0  0  0  0  0  0  0  0  0
   -1.8050    1.5190   -2.7430 O   0  0  0  0  0  0  0  0  0  0  0  0
    0.6700    0.7170    0.1580 N   0  0  0  0  0  0  0  0  0  0  0  0
    2.0300    1.0220    0.2550 C   0  0  0  0  0  0  0  0  0  0  0  0
    2.9010   -0.0050    0.8750 C   0  0  0  0  0  0  0  0  0  0  0  0
    2.8760   -1.2240    0.1440 N   0  0  0  0  0  0  0  0  0  0  0  0
    3.9070   -2.5000    0.8430 P   0  0  0  0  0  0  0  0  0  0  0  0
    4.6190   -3.4000   -0.4580 O   0  0  0  0  0  0  0  0  0  0  0  0
    5.1570   -1.8580    1.8550 O   0  0  0  0  0  0  0  0  0  0  0  0
  1  2  1  0
  2  3  2  0
  2  4  1  0
  2  5  1  0
  2 21  1  0
  5  6  1  0
  5 11  1  0
  6  7  1  0
  7  8  1  0
  8  9  2  0
  8 10  1  0
 11 12  2  0
 12 13  1  0
 12 21  1  0
 13 14  2  0
 13 19  1  0
 14 15  1  0
 15 16  2  0
 16 17  1  0
 16 18  1  0
 18 19  1  0
 19 20  2  0
 21 22  1  0
 22 23  1  0
 23 24  1  0
 24 25  1  0
 25 26  1  0
 25 27  1  0
M  END
