
     RDKit          3D

 27 28  0  0  0  0  0  0  0  0999 V2000
   -2.1990    2.5990   -0.8650 O   0  0  0  0  0  0  0  0  0  0  0  0
   -2.4880    1.3500   -0.8900 C   0  0  0  0  0  0  0  0  0  0  0  0
   -3.8770    0.9980   -1.1610 C   0  0  0  0  0  0  0  0  0  0  0  0
   -4.2540   -0.2980   -1.0000 O   0  0  0  0  0  0  0  0  0  0  0  0
   -4.2060   -0.7530    0.2980 C   0  0  0  0  0  0  0  0  0  0  0  0
   -4.7310   -2.5560    0.2390 P   0  0  0  0  0  0  0  0  0  0  0  0
   -6.4570   -2.5620    0.0910 O   0  0  0  0  0  0  0  0  0  0  0  0
   -4.0150   -3.3120   -1.1320 O   0  0  0  0  0  0  0  0  0  0  0  0
   -1.3940    0.5010   -0.6520 N   0  0  0  0  0  0  0  0  0  0  0  0
   -0.0720    0.9840   -0.3970 C   0  0  0  0  0  0  0  0  0  0  0  0
    0.1870    2.3090   -0.3750 N   0  0  0  0  0  0  0  0  0  0  0  0
    1.4790    2.6240   -0.1220 C   0  0  0  0  0  0  0  0  0  0  0  0
    1.7840    4.0700   -0.0930 C   0  0  0  0  0  0  0  0  0  0  0  0
    2.9580    4.4510    0.1340 O   0  0  0  0  0  0  0  0  0  0  0  0
    0.8030    5.0420   -0.3120 N   0  0  0  0  0  0  0  0  0  0  0  0
    1.1340    6.3510   -0.2740 O   0  0  0  0  0  0  0  0  0  0  0  0
    2.4600    1.7890    0.0940 N   0  0  0  0  0  0  0  0  0  0  0  0
    2.2410    0.4090    0.0810 C   0  0  0  0  0  0  0  0  0  0  0  0
    3.0990   -0.5190    0.2740 N   0  0  0  0  0  0  0  0  0  0  0  0
    2.7620   -1.8220    0.2350 C   0  0  0  0  0  0  0  0  0  0  0  0
    3.5040   -3.0520    0.4120 C   0  0  0  0  0  0  0  0  0  0  0  0
    2.9300   -4.1740    0.3220 O   0  0  0  0  0  0  0  0  0  0  0  0
    4.9630   -3.0570    0.7050 C   0  0  0  0  0  0  0  0  0  0  0  0
    5.4690   -4.3270    0.8350 O   0  0  0  0  0  0  0  0  0  0  0  0
    6.7530   -4.2140    1.0910 O   0  0  0  0  0  0  0  0  0  0  0  0
    0.9780   -1.6670   -0.1270 S   0  0  0  0  0  0  0  0  0  0  0  0
    0.9140    0.0920   -0.1790 C   0  0  0  0  0  0  0  0  0  0  0  0
  1  2  2  0
  2  3  1  0
  2  9  1  0
  3  4  1  0
  4  5  1  0
  5  6  1  0
  6  7  1  0
  6  8  1  0
  9 10  1  0
 10 11  2  0
 10 27  1  0
 11 12  1  0
 12 13  1  0
 12 17  2  0
 13 14  2  0
 13 15  1  0
 15 16  1  0
 17 18  1  0
 18 19  1  0
 18 27  2  0
 19 20  2  0
 20 21  1  0
 20 26  1  0
 21 22  2  0
 21 23  1  0
 23 24  1  0
 24 25  1  0
 26 27  1  0
M  END
