
     RDKit          3D

 20 21  0  0  0  0  0  0  0  0999 V2000
    1.2950   -0.8810    3.8670 C   0  0  0  0  0  0  0  0  0  0  0  0
    2.4050   -0.3120    3.0420 C   0  0  0  0  0  0  0  0  0  0  0  0
    3.6280   -0.6800    3.1310 N   0  0  0  0  0  0  0  0  0  0  0  0
    4.3960    0.0720    2.2000 C   0  0  0  0  0  0  0  0  0  0  0  0
    3.4090    0.9550    1.5390 C   0  0  0  0  0  0  0  0  0  0  0  0
    3.7400    1.9430    0.4710 C   0  0  0  0  0  0  0  0  0  0  0  0
    2.2190    0.7240    2.0440 C   0  0  0  0  0  0  0  0  0  0  0  0
    0.9530    1.3610    1.6930 C   0  0  0  0  0  0  0  0  0  0  0  0
   -0.0170    0.4550    1.2160 O   0  0  0  0  0  0  0  0  0  0  0  0
    0.1650   -0.3300    0.0870 C   0  0  0  0  0  0  0  0  0  0  0  0
    1.2720   -0.1850   -0.5000 O   0  0  0  0  0  0  0  0  0  0  0  0
   -0.8680   -1.2800   -0.4020 C   0  0  2  0  0  0  0  0  0  0  0  0
   -1.1000   -2.2730    0.7430 C   0  0  0  0  0  0  0  0  0  0  0  0
   -0.3590   -2.1010   -1.5670 C   0  0  0  0  0  0  0  0  0  0  0  0
   -2.1770   -0.6220   -0.6790 C   0  0  0  0  0  0  0  0  0  0  0  0
   -2.0990    0.4600   -1.7250 C   0  0  2  0  0  0  0  0  0  0  0  0
   -3.5200    1.0160   -1.8750 C   0  0  0  0  0  0  0  0  0  0  0  0
   -3.7400    1.0740   -3.3680 C   0  0  0  0  0  0  0  0  0  0  0  0
   -2.3310    0.9030   -3.8950 C   0  0  0  0  0  0  0  0  0  0  0  0
   -1.8120   -0.0440   -2.9840 O   0  0  0  0  0  0  0  0  0  0  0  0
  1  2  1  0
  2  3  2  0
  2  7  1  0
  3  4  1  0
  4  5  1  0
  5  6  1  0
  5  7  2  0
  7  8  1  0
  8  9  1  0
  9 10  1  0
 10 11  2  0
 10 12  1  0
 12 13  1  1
 12 14  1  0
 12 15  1  0
 16 15  1  1
 16 17  1  0
 16 20  1  0
 17 18  1  0
 18 19  1  0
 19 20  1  0
M  END
