
     RDKit          3D

 20 22  0  0  0  0  0  0  0  0999 V2000
   -4.7280    0.7490   -2.6180 O   0  0  0  0  0  0  0  0  0  0  0  0
   -4.2240    0.3780   -1.5450 C   0  0  0  0  0  0  0  0  0  0  0  0
   -3.5800    1.3990   -0.6780 C   0  0  0  0  0  0  0  0  0  0  0  0
   -3.0460    0.7010    0.5470 C   0  0  0  0  0  0  0  0  0  0  0  0
   -2.3930   -0.6080    0.2010 C   0  0  1  0  0  0  0  0  0  0  0  0
   -1.5320   -0.5430   -1.0260 C   0  0  0  0  0  0  0  0  0  0  0  0
   -0.0650   -0.8460   -0.6950 C   0  0  0  0  0  0  0  0  0  0  0  0
    0.3000    0.0980    0.4420 C   0  0  2  0  0  0  0  0  0  0  0  0
    1.7690    0.1700    0.6440 C   0  0  0  0  0  0  0  0  0  0  0  0
    2.2460   -0.1690    1.7590 O   0  0  0  0  0  0  0  0  0  0  0  0
    2.6500    0.5900   -0.3220 O   0  0  0  0  0  0  0  0  0  0  0  0
    4.0350    0.6580   -0.1310 C   0  0  0  0  0  0  0  0  0  0  0  0
    4.6490    1.7350    0.3270 C   0  0  0  0  0  0  0  0  0  0  0  0
    6.1140    1.5110    0.4230 C   0  0  0  0  0  0  0  0  0  0  0  0
    6.2480    0.1140   -0.0600 C   0  0  0  0  0  0  0  0  0  0  0  0
    5.0440   -0.3380   -0.3660 C   0  0  0  0  0  0  0  0  0  0  0  0
   -0.3830   -0.3930    1.6740 C   0  0  0  0  0  0  0  0  0  0  0  0
   -1.6460   -1.1700    1.3690 C   0  0  0  0  0  0  0  0  0  0  0  0
   -3.5300   -1.5900   -0.1130 C   0  0  0  0  0  0  0  0  0  0  0  0
   -4.2830   -0.9970   -1.1930 N   0  0  0  0  0  0  0  0  0  0  0  0
  1  2  2  0
  2  3  1  0
  2 20  1  0
  3  4  1  0
  5  4  1  1
  5  6  1  0
  5 18  1  0
  5 19  1  0
  6  7  1  0
  7  8  1  0
  8  9  1  1
  8 17  1  0
  9 10  2  0
  9 11  1  0
 11 12  1  0
 12 13  2  0
 12 16  1  0
 13 14  1  0
 14 15  1  0
 15 16  2  0
 17 18  1  0
 19 20  1  0
M  END
