
     RDKit          3D

 26 28  0  0  0  0  0  0  0  0999 V2000
    5.5910   -2.5450   -0.6400 C   0  0  0  0  0  0  0  0  0  0  0  0
    5.2230   -1.4020    0.0630 O   0  0  0  0  0  0  0  0  0  0  0  0
    4.0210   -0.7450   -0.1450 C   0  0  0  0  0  0  0  0  0  0  0  0
    3.1010   -1.1820   -1.0700 C   0  0  0  0  0  0  0  0  0  0  0  0
    1.9090   -0.5430   -1.2860 C   0  0  0  0  0  0  0  0  0  0  0  0
    0.9720   -0.9920   -2.2310 O   0  0  0  0  0  0  0  0  0  0  0  0
    1.2710   -2.1580   -2.9960 C   0  0  0  0  0  0  0  0  0  0  0  0
    1.5520    0.6090   -0.5690 C   0  0  0  0  0  0  0  0  0  0  0  0
    0.0970    1.4910   -0.7920 S   0  0  0  0  0  0  0  0  0  0  0  0
   -1.3700    1.1570    0.0340 C   0  0  0  0  0  0  0  0  0  0  0  0
   -2.4040    1.9050   -0.4310 C   0  0  0  0  0  0  0  0  0  0  0  0
   -2.1100    2.8580   -1.5330 C   0  0  0  0  0  0  0  0  0  0  0  0
   -3.7740    1.8900   -0.0270 N   0  0  0  0  0  0  0  0  0  0  0  0
   -4.4510    0.7430    0.5260 C   0  0  0  0  0  0  0  0  0  0  0  0
   -5.7350    0.7470    0.2880 C   0  0  0  0  0  0  0  0  0  0  0  0
   -6.5290   -0.2740    0.7450 O   0  0  0  0  0  0  0  0  0  0  0  0
   -6.0560   -1.3770    1.4490 C   0  0  0  0  0  0  0  0  0  0  0  0
   -4.5960   -1.3280    1.6910 C   0  0  0  0  0  0  0  0  0  0  0  0
   -3.8330   -0.3400    1.2640 C   0  0  0  0  0  0  0  0  0  0  0  0
   -2.4710   -0.4590    1.6060 N   0  0  0  0  0  0  0  0  0  0  0  0
   -1.4420    0.1790    1.0810 C   0  0  0  0  0  0  0  0  0  0  0  0
   -0.1430   -0.1450    1.7210 C   0  0  0  0  0  0  0  0  0  0  0  0
    2.4840    1.0400    0.3570 C   0  0  0  0  0  0  0  0  0  0  0  0
    3.6790    0.3870    0.5650 C   0  0  0  0  0  0  0  0  0  0  0  0
    4.5950    0.8410    1.5000 O   0  0  0  0  0  0  0  0  0  0  0  0
    4.2730    1.9970    2.2420 C   0  0  0  0  0  0  0  0  0  0  0  0
  1  2  1  0
  2  3  1  0
  3  4  2  0
  3 24  1  0
  4  5  1  0
  5  6  1  0
  5  8  2  0
  6  7  1  0
  8  9  1  0
  8 23  1  0
  9 10  1  0
 10 11  2  0
 10 21  1  0
 11 12  1  0
 11 13  1  0
 13 14  1  0
 14 15  2  0
 14 19  1  0
 15 16  1  0
 16 17  1  0
 17 18  1  0
 18 19  2  0
 19 20  1  0
 20 21  2  0
 21 22  1  0
 23 24  2  0
 24 25  1  0
 25 26  1  0
M  END
