
     RDKit          3D

 20 22  0  0  0  0  0  0  0  0999 V2000
    0.5010   -0.9410    1.3750 O   0  0  0  0  0  0  0  0  0  0  0  0
    0.4660   -0.2270    0.3680 C   0  0  0  0  0  0  0  0  0  0  0  0
    1.7580    0.3020   -0.2270 C   0  0  0  0  0  0  0  0  0  0  0  0
    2.7910   -0.1590    0.5400 O   0  0  0  0  0  0  0  0  0  0  0  0
    4.0380    0.2280    0.1400 C   0  0  1  0  0  0  0  0  0  0  0  0
    4.8060    0.9830    1.2010 C   0  0  0  0  0  0  0  0  0  0  0  0
    5.6340   -0.0910    1.8270 C   0  0  0  0  0  0  0  0  0  0  0  0
    5.7320   -1.1460    0.9680 O   0  0  0  0  0  0  0  0  0  0  0  0
    4.9720   -0.9200   -0.1440 C   0  0  0  0  0  0  0  0  0  0  0  0
   -0.7640    0.1020   -0.2340 N   0  0  0  0  0  0  0  0  0  0  0  0
   -2.0440   -0.3030    0.1880 C   0  0  0  0  0  0  0  0  0  0  0  0
   -2.2540   -1.1030    1.2880 C   0  0  0  0  0  0  0  0  0  0  0  0
   -3.5240   -1.5100    1.7130 C   0  0  0  0  0  0  0  0  0  0  0  0
   -4.6060   -1.0830    0.9900 C   0  0  0  0  0  0  0  0  0  0  0  0
   -4.4580   -0.2800   -0.1210 C   0  0  0  0  0  0  0  0  0  0  0  0
   -5.5890    0.1180   -0.8090 C   0  0  0  0  0  0  0  0  0  0  0  0
   -5.4650    0.9160   -1.9150 C   0  0  0  0  0  0  0  0  0  0  0  0
   -4.2430    1.3240   -2.3470 C   0  0  0  0  0  0  0  0  0  0  0  0
   -3.1070    0.9070   -1.6310 C   0  0  0  0  0  0  0  0  0  0  0  0
   -3.1730    0.1080   -0.5180 C   0  0  0  0  0  0  0  0  0  0  0  0
  1  2  2  0
  2  3  1  0
  2 10  1  0
  3  4  1  0
  5  4  1  1
  5  6  1  0
  5  9  1  0
  6  7  1  0
  7  8  1  0
  8  9  1  0
 10 11  1  0
 11 12  2  0
 11 20  1  0
 12 13  1  0
 13 14  2  0
 14 15  1  0
 15 16  2  0
 15 20  1  0
 16 17  1  0
 17 18  2  0
 18 19  1  0
 19 20  2  0
M  END
