
     RDKit          3D

 16 16  0  0  0  0  0  0  0  0999 V2000
   -0.0970    0.8610    1.3770 O   0  0  0  0  0  0  0  0  0  0  0  0
   -0.1440    1.0500    0.1320 C   0  0  0  0  0  0  0  0  0  0  0  0
    0.9870    0.7050   -0.6600 N   0  0  0  0  0  0  0  0  0  0  0  0
    2.1900    0.1420   -0.0770 C   0  0  1  0  0  0  0  0  0  0  0  0
    2.4850   -1.2380   -0.6050 C   0  0  0  0  0  0  0  0  0  0  0  0
    3.9510   -1.5700   -0.6080 C   0  0  0  0  0  0  0  0  0  0  0  0
    4.7170   -0.7420    0.1740 O   0  0  0  0  0  0  0  0  0  0  0  0
    4.6010    0.5430   -0.2380 O   0  0  0  0  0  0  0  0  0  0  0  0
    3.3360    1.0660   -0.2840 C   0  0  0  0  0  0  0  0  0  0  0  0
    3.0700    2.2770   -0.4890 O   0  0  0  0  0  0  0  0  0  0  0  0
   -1.3020    1.5880   -0.4030 O   0  0  0  0  0  0  0  0  0  0  0  0
   -2.4370    1.9380    0.3620 C   0  0  0  0  0  0  0  0  0  0  0  0
   -3.0240    0.7580    1.1040 C   0  0  0  0  0  0  0  0  0  0  0  0
   -3.4560   -0.3310    0.1310 C   0  0  0  0  0  0  0  0  0  0  0  0
   -3.9900   -1.4000    0.8400 O   0  0  0  0  0  0  0  0  0  0  0  0
   -4.3620   -2.3380    0.0020 O   0  0  0  0  0  0  0  0  0  0  0  0
  1  2  2  0
  2  3  1  0
  2 11  1  0
  4  3  1  6
  4  5  1  0
  4  9  1  0
  5  6  1  0
  6  7  1  0
  7  8  1  0
  8  9  1  0
  9 10  2  0
 11 12  1  0
 12 13  1  0
 13 14  1  0
 14 15  1  0
 15 16  1  0
M  END
