
     RDKit          3D

 16 15  0  0  0  0  0  0  0  0999 V2000
    5.7010   -0.2460   -0.1570 C   0  0  0  0  0  0  0  0  0  0  0  0
    4.2760   -0.3570   -0.2730 O   0  0  0  0  0  0  0  0  0  0  0  0
    3.4420    0.6950    0.1030 C   0  0  0  0  0  0  0  0  0  0  0  0
    4.0430    1.7270    0.5430 O   0  0  0  0  0  0  0  0  0  0  0  0
    2.0010    0.6310    0.0050 C   0  0  0  0  0  0  0  0  0  0  0  0
    1.4140   -0.4480   -0.4530 C   0  0  0  0  0  0  0  0  0  0  0  0
    2.2020   -1.5310   -0.8430 O   0  0  0  0  0  0  0  0  0  0  0  0
   -0.0300   -0.5790   -0.5780 C   0  0  0  0  0  0  0  0  0  0  0  0
   -0.5240   -1.6660   -1.0340 N   0  0  0  0  0  0  0  0  0  0  0  0
   -0.9150    0.4220   -0.2240 O   0  0  0  0  0  0  0  0  0  0  0  0
   -2.2500    0.1270    0.2170 C   0  0  0  0  0  0  0  0  0  0  0  0
   -3.0120    1.3590    0.5400 C   0  0  0  0  0  0  0  0  0  0  0  0
   -4.3040    1.0430    0.9660 O   0  0  0  0  0  0  0  0  0  0  0  0
   -5.2010    0.4170    0.1470 C   0  0  0  0  0  0  0  0  0  0  0  0
   -4.8820    0.1150   -1.0210 O   0  0  0  0  0  0  0  0  0  0  0  0
   -6.5030    0.0920    0.5790 O   0  0  0  0  0  0  0  0  0  0  0  0
  1  2  1  0
  2  3  1  0
  3  4  2  0
  3  5  1  0
  5  6  2  3
  6  7  1  0
  6  8  1  0
  8  9  2  0
  8 10  1  0
 10 11  1  0
 11 12  1  0
 12 13  1  0
 13 14  1  0
 14 15  2  0
 14 16  1  0
M  END
