
     RDKit          3D

 16 16  0  0  0  0  0  0  0  0999 V2000
   -2.7510    1.7190   -1.3440 O   0  0  0  0  0  0  0  0  0  0  0  0
   -2.4240    1.5560   -0.1410 C   0  0  0  0  0  0  0  0  0  0  0  0
   -2.0650    2.6920    0.5670 O   0  0  0  0  0  0  0  0  0  0  0  0
   -2.4260    0.2420    0.4720 C   0  0  0  0  0  0  0  0  0  0  0  0
   -1.4010   -0.7380    0.0670 C   0  0  1  0  0  0  0  0  0  0  0  0
   -1.3970   -1.0720   -1.2820 O   0  0  0  0  0  0  0  0  0  0  0  0
   -1.0640   -2.3210   -1.4320 O   0  0  0  0  0  0  0  0  0  0  0  0
   -0.2180   -2.8410   -0.4820 C   0  0  0  0  0  0  0  0  0  0  0  0
    0.7550   -1.8200    0.0670 C   0  0  0  0  0  0  0  0  0  0  0  0
   -0.0030   -0.5470    0.5020 C   0  0  1  0  0  0  0  0  0  0  0  0
    0.7450    0.5740   -0.0500 C   0  0  0  0  0  0  0  0  0  0  0  0
    0.2520    1.3200   -0.9140 O   0  0  0  0  0  0  0  0  0  0  0  0
    2.0660    0.8380    0.3910 N   0  0  0  0  0  0  0  0  0  0  0  0
    2.8520    1.9080   -0.0970 C   0  0  0  0  0  0  0  0  0  0  0  0
    2.3740    2.6620   -0.9560 O   0  0  0  0  0  0  0  0  0  0  0  0
    4.1550    2.1560    0.3500 O   0  0  0  0  0  0  0  0  0  0  0  0
  1  2  2  0
  2  3  1  0
  2  4  1  0
  5  4  1  6
  5  6  1  0
  5 10  1  0
  6  7  1  0
  7  8  1  0
  8  9  1  0
  9 10  1  0
 10 11  1  6
 11 12  2  0
 11 13  1  0
 13 14  1  0
 14 15  2  0
 14 16  1  0
M  END
