
     RDKit          3D

  9  8  0  0  0  0  0  0  0  0999 V2000
   -1.7460   -1.7340    0.6980 O   0  0  0  0  0  0  0  0  0  0  0  0
   -1.9670   -0.7070   -0.1880 C   0  0  0  0  0  0  0  0  0  0  0  0
   -0.8210   -0.2040   -0.7740 O   0  0  0  0  0  0  0  0  0  0  0  0
    0.0880    0.3080    0.1110 C   0  0  2  0  0  0  0  0  0  0  0  0
    0.3110    1.7780   -0.2700 C   0  0  0  0  0  0  0  0  0  0  0  0
   -0.8980    2.4800   -0.1910 O   0  0  0  0  0  0  0  0  0  0  0  0
    1.4230   -0.3810   -0.1110 C   0  0  0  0  0  0  0  0  0  0  0  0
    1.3230   -1.7400    0.0860 O   0  0  0  0  0  0  0  0  0  0  0  0
    2.5040   -2.2790   -0.1190 O   0  0  0  0  0  0  0  0  0  0  0  0
  1  2  1  0
  2  3  1  0
  3  4  1  0
  4  5  1  6
  4  7  1  0
  5  6  1  0
  7  8  1  0
  8  9  1  0
M  END
