
     RDKit          3D

 10  9  0  0  0  0  0  0  0  0999 V2000
   -1.9860   -1.4900   -1.0960 O   0  0  0  0  0  0  0  0  0  0  0  0
   -0.9510   -0.6030   -1.3400 C   0  0  0  0  0  0  0  0  0  0  0  0
   -0.1830   -0.2330   -0.0910 C   0  0  1  0  0  0  0  0  0  0  0  0
    0.8150    0.6500   -0.4660 O   0  0  0  0  0  0  0  0  0  0  0  0
    2.0750    0.2610   -0.1070 C   0  0  2  0  0  0  0  0  0  0  0  0
    2.5650    1.1720    0.8280 O   0  0  0  0  0  0  0  0  0  0  0  0
    2.9330    0.1230   -1.1950 O   0  0  0  0  0  0  0  0  0  0  0  0
   -1.1410    0.5550    0.8050 C   0  0  2  0  0  0  0  0  0  0  0  0
   -0.4760    1.0390    1.9190 O   0  0  0  0  0  0  0  0  0  0  0  0
   -2.1970   -0.2330    1.2390 O   0  0  0  0  0  0  0  0  0  0  0  0
  1  2  1  0
  3  2  1  6
  3  4  1  0
  3  8  1  0
  4  5  1  0
  5  6  1  1
  5  7  1  0
  8  9  1  1
  8 10  1  0
M  END
