
     RDKit          3D

 10  9  0  0  0  0  0  0  0  0999 V2000
   -0.9550    2.3760    0.0150 O   0  0  0  0  0  0  0  0  0  0  0  0
   -1.7210    1.2890   -0.4240 C   0  0  0  0  0  0  0  0  0  0  0  0
   -1.4140    0.0000    0.4700 C   0  0  1  0  0  0  0  0  0  0  0  0
   -2.4790   -0.7160    0.5860 O   0  0  0  0  0  0  0  0  0  0  0  0
   -2.8120   -1.5360   -0.3260 O   0  0  0  0  0  0  0  0  0  0  0  0
   -0.4350   -0.7830   -0.1750 O   0  0  0  0  0  0  0  0  0  0  0  0
    0.7950   -0.3440   -0.1660 C   0  0  0  0  0  0  0  0  0  0  0  0
    1.9160   -1.4000   -0.2320 C   0  0  0  0  0  0  0  0  0  0  0  0
    2.9210   -0.6500   -0.7890 O   0  0  0  0  0  0  0  0  0  0  0  0
    3.6830   -0.0130   -0.0660 O   0  0  0  0  0  0  0  0  0  0  0  0
  1  2  1  0
  3  2  1  6
  3  4  1  0
  3  6  1  0
  4  5  1  0
  6  7  1  0
  7  8  1  0
  8  9  1  0
  9 10  1  0
M  END
