
     RDKit          3D

  9  8  0  0  0  0  0  0  0  0999 V2000
    3.0800    1.0060    0.5150 O   0  0  0  0  0  0  0  0  0  0  0  0
    2.1550    0.0730   -0.0110 C   0  0  0  0  0  0  0  0  0  0  0  0
    1.4470   -0.5290    1.1650 C   0  0  0  0  0  0  0  0  0  0  0  0
    0.4990   -1.4690    0.8480 O   0  0  0  0  0  0  0  0  0  0  0  0
   -0.5190   -0.9700    0.0460 C   0  0  0  0  0  0  0  0  0  0  0  0
   -1.2050    0.0880    0.6690 O   0  0  0  0  0  0  0  0  0  0  0  0
   -2.1960    0.5030   -0.2260 C   0  0  1  0  0  0  0  0  0  0  0  0
   -3.4710    0.3340    0.3290 O   0  0  0  0  0  0  0  0  0  0  0  0
   -1.9680    1.8370   -0.5240 O   0  0  0  0  0  0  0  0  0  0  0  0
  1  2  1  0
  2  3  1  0
  3  4  1  0
  4  5  1  0
  5  6  1  0
  6  7  1  0
  7  8  1  1
  7  9  1  0
M  END
