
     RDKit          3D

  9  8  0  0  0  0  0  0  0  0999 V2000
   -3.0820   -0.2480    0.3630 O   0  0  0  0  0  0  0  0  0  0  0  0
   -2.0390   -0.8940   -0.3420 C   0  0  0  0  0  0  0  0  0  0  0  0
   -0.9650   -0.9430    0.5230 O   0  0  0  0  0  0  0  0  0  0  0  0
   -0.5710    0.2960    0.9150 C   0  0  0  0  0  0  0  0  0  0  0  0
   -0.1360    1.1210   -0.2670 C   0  0  0  0  0  0  0  0  0  0  0  0
    0.9150    0.4750   -0.8930 O   0  0  0  0  0  0  0  0  0  0  0  0
    2.0030    0.4050   -0.0540 C   0  0  1  0  0  0  0  0  0  0  0  0
    2.4630   -0.9060    0.1120 O   0  0  0  0  0  0  0  0  0  0  0  0
    3.0440    1.0810   -0.7420 O   0  0  0  0  0  0  0  0  0  0  0  0
  1  2  1  0
  2  3  1  0
  3  4  1  0
  4  5  1  0
  5  6  1  0
  6  7  1  0
  7  8  1  6
  7  9  1  0
M  END
