
     RDKit          3D

  6  5  0  0  0  0  0  0  0  0999 V2000
   -0.7430   -0.6670    0.0330 C   0  0  0  0  0  0  0  0  0  0  0  0
    0.2010    0.5040   -0.0210 C   0  0  2  0  0  0  0  0  0  0  0  0
    0.8430    0.6620    1.1970 O   0  0  0  0  0  0  0  0  0  0  0  0
   -0.5380    1.6490   -0.2920 O   0  0  0  0  0  0  0  0  0  0  0  0
    1.0810    0.2890   -1.0710 O   0  0  0  0  0  0  0  0  0  0  0  0
    1.9810   -1.1210   -0.8930 Cl  0  0  0  0  0  0  0  0  0  0  0  0
  2  1  1  1
  2  3  1  0
  2  4  1  0
  2  5  1  0
  5  6  1  0
M  END
