
     RDKit          3D

  6  6  0  0  0  0  0  0  0  0999 V2000
    1.3390   -1.7700   -0.8300 O   0  0  0  0  0  0  0  0  0  0  0  0
    0.4030   -0.8820   -1.0760 O   0  0  0  0  0  0  0  0  0  0  0  0
   -0.2170   -0.5720    0.1270 C   0  0  2  0  0  0  0  0  0  0  0  0
   -1.4990    0.0880    0.1040 C   0  0  0  0  0  0  0  0  0  0  0  0
   -0.4160    0.9050    0.2970 C   0  0  0  0  0  0  0  0  0  0  0  0
    0.0680    2.1930    0.4990 O   0  0  0  0  0  0  0  0  0  0  0  0
  1  2  1  0
  3  2  1  6
  3  4  1  0
  3  5  1  0
  4  5  2  0
  5  6  1  0
M  END
