
     RDKit          3D

  6  5  0  0  0  0  0  0  0  0999 V2000
    1.8220   -0.3630   -1.0190 O   0  0  0  0  0  0  0  0  0  0  0  0
    1.2420    0.6820   -0.3120 C   0  0  0  0  0  0  0  0  0  0  0  0
    0.2480    0.6200    0.4600 C   0  0  0  0  0  0  0  0  0  0  0  0
   -0.5060   -0.6490    0.7530 C   0  0  0  0  0  0  0  0  0  0  0  0
   -1.8540   -0.3640    0.4070 O   0  0  0  0  0  0  0  0  0  0  0  0
   -2.0170   -0.4520   -0.9750 O   0  0  0  0  0  0  0  0  0  0  0  0
  1  2  1  0
  2  3  2  3
  3  4  1  0
  4  5  1  0
  5  6  1  0
M  END
