
     RDKit          3D

  6  5  0  0  0  0  0  0  0  0999 V2000
   -1.9990    0.3110   -0.5110 O   0  0  0  0  0  0  0  0  0  0  0  0
   -1.0300   -0.4970    0.0770 C   0  0  0  0  0  0  0  0  0  0  0  0
    0.2810    0.2520    0.2190 C   0  0  1  0  0  0  0  0  0  0  0  0
   -0.0430    1.6440    1.2990 Cl  0  0  0  0  0  0  0  0  0  0  0  0
    1.2030   -0.5850    0.8030 O   0  0  0  0  0  0  0  0  0  0  0  0
    2.2620   -0.7890    0.0540 O   0  0  0  0  0  0  0  0  0  0  0  0
  1  2  1  0
  2  3  1  0
  3  4  1  1
  3  5  1  0
  5  6  1  0
M  END
