
     RDKit          3D

 13 13  0  0  0  0  0  0  0  0999 V2000
    4.0750    0.7770    0.7220 C   0  0  0  0  0  0  0  0  0  0  0  0
    3.0300   -0.0680    0.2810 O   0  0  0  0  0  0  0  0  0  0  0  0
    1.6870    0.3050    0.3380 C   0  0  0  0  0  0  0  0  0  0  0  0
    1.4280    1.4370    0.8020 O   0  0  0  0  0  0  0  0  0  0  0  0
    0.6260   -0.5590   -0.1130 C   0  0  0  0  0  0  0  0  0  0  0  0
   -0.6360   -0.2200   -0.0670 C   0  0  0  0  0  0  0  0  0  0  0  0
   -1.3430    0.9880    0.3910 C   0  0  0  0  0  0  0  0  0  0  0  0
   -2.4700    1.1070   -0.6490 C   0  0  0  0  0  0  0  0  0  0  0  0
   -2.9780   -0.3020   -0.6570 C   0  0  0  0  0  0  0  0  0  0  0  0
   -1.7390   -1.1460   -0.5360 C   0  0  0  0  0  0  0  0  0  0  0  0
    0.9910   -1.8300   -0.6260 N   0  0  0  0  0  0  0  0  0  0  0  0
    0.8500   -2.8680    0.0120 O   0  0  0  0  0  0  0  0  0  0  0  0
    1.5220   -1.8870   -1.8880 O   0  0  0  0  0  0  0  0  0  0  0  0
  1  2  1  0
  2  3  1  0
  3  4  2  0
  3  5  1  0
  5  6  2  3
  5 11  1  0
  6  7  1  0
  6 10  1  0
  7  8  1  0
  8  9  1  0
  9 10  1  0
 11 12  2  0
 11 13  1  0
M  CHG  2  11   1  13  -1
M  END
