
     RDKit          3D

 13 13  0  0  0  0  0  0  0  0999 V2000
   -0.2000    3.0900   -0.7330 C   0  0  0  0  0  0  0  0  0  0  0  0
    0.4830    1.9100   -0.3350 O   0  0  0  0  0  0  0  0  0  0  0  0
   -0.2250    0.7330   -0.2090 C   0  0  0  0  0  0  0  0  0  0  0  0
   -1.5700    0.6650   -0.4560 C   0  0  0  0  0  0  0  0  0  0  0  0
   -2.2650   -0.5280   -0.3240 C   0  0  0  0  0  0  0  0  0  0  0  0
   -1.5600   -1.6420    0.0640 C   0  0  0  0  0  0  0  0  0  0  0  0
   -2.2590   -2.8350    0.1960 O   0  0  0  0  0  0  0  0  0  0  0  0
   -0.1760   -1.6150    0.3280 C   0  0  0  0  0  0  0  0  0  0  0  0
    0.4850   -0.4190    0.1880 C   0  0  0  0  0  0  0  0  0  0  0  0
    1.9010   -0.2280    0.4210 C   0  0  0  0  0  0  0  0  0  0  0  0
    2.7040   -1.3070    0.8200 N   0  0  0  0  0  0  0  0  0  0  0  0
    2.4000   -2.4710    1.0220 O   0  0  0  0  0  0  0  0  0  0  0  0
    4.0810   -1.0480    1.0310 O   0  0  0  0  0  0  0  0  0  0  0  0
  1  2  1  0
  2  3  1  0
  3  4  2  0
  3  9  1  0
  4  5  1  0
  5  6  2  0
  6  7  1  0
  6  8  1  0
  8  9  2  0
  9 10  1  0
 10 11  1  0
 11 12  2  0
 11 13  1  0
M  CHG  2  11   1  13  -1
M  END
