
     RDKit          3D

 19 21  0  0  0  0  0  0  0  0999 V2000
    5.2690   -0.0190    1.8180 O   0  0  0  0  0  0  0  0  0  0  0  0
    4.4650    0.0720    0.8280 C   0  0  0  0  0  0  0  0  0  0  0  0
    4.9090    0.0260   -0.4560 N   0  0  0  0  0  0  0  0  0  0  0  0
    4.0580    0.1210   -1.4850 C   0  0  0  0  0  0  0  0  0  0  0  0
    2.7370    0.2640   -1.2820 N   0  0  0  0  0  0  0  0  0  0  0  0
    2.2460    0.3110   -0.0370 C   0  0  0  0  0  0  0  0  0  0  0  0
    0.9350    0.4000    0.3880 C   0  0  0  0  0  0  0  0  0  0  0  0
   -0.2880    0.6380   -0.4020 C   0  0  2  0  0  0  0  0  0  0  0  0
   -1.3810    0.7670    0.6320 N   0  0  0  0  0  0  0  0  0  0  0  0
   -2.5890    0.3440   -0.0060 C   0  0  2  0  0  0  0  0  0  0  0  0
   -3.6600   -0.0860    0.9980 C   0  0  0  0  0  0  0  0  0  0  0  0
   -4.7920   -0.5080    0.2950 O   0  0  0  0  0  0  0  0  0  0  0  0
   -2.1320   -0.9040   -0.7840 C   0  0  1  0  0  0  0  0  0  0  0  0
   -2.9960   -1.1160   -1.8670 O   0  0  0  0  0  0  0  0  0  0  0  0
   -0.7350   -0.5630   -1.1620 C   0  0  1  0  0  0  0  0  0  0  0  0
   -0.7460   -0.2150   -2.5430 O   0  0  0  0  0  0  0  0  0  0  0  0
    0.9970    0.3530    1.7600 C   0  0  0  0  0  0  0  0  0  0  0  0
    2.3100    0.2450    2.1140 N   0  0  0  0  0  0  0  0  0  0  0  0
    3.1100    0.2160    1.0250 C   0  0  0  0  0  0  0  0  0  0  0  0
  1  2  2  0
  2  3  1  0
  2 19  1  0
  3  4  1  0
  4  5  2  0
  5  6  1  0
  6  7  1  0
  6 19  2  0
  8  7  1  1
  7 17  2  0
  8  9  1  0
  8 15  1  0
  9 10  1  0
 10 11  1  1
 10 13  1  0
 11 12  1  0
 13 14  1  6
 13 15  1  0
 15 16  1  6
 17 18  1  0
 18 19  1  0
M  CHG  1   9   1
M  END
