
     RDKit          3D

 13 13  0  0  0  0  0  0  0  0999 V2000
    3.2300   -0.6230    0.1550 C   0  0  0  0  0  0  0  0  0  0  0  0
    2.3760    0.2740   -0.5050 O   0  0  0  0  0  0  0  0  0  0  0  0
    1.0020    0.1830   -0.2710 C   0  0  0  0  0  0  0  0  0  0  0  0
    0.4900   -0.7700    0.5940 C   0  0  0  0  0  0  0  0  0  0  0  0
   -0.8600   -0.8780    0.8400 C   0  0  0  0  0  0  0  0  0  0  0  0
   -1.3570   -1.8430    1.7130 O   0  0  0  0  0  0  0  0  0  0  0  0
   -1.6830    0.0080    0.1850 C   0  0  0  0  0  0  0  0  0  0  0  0
   -3.1400   -0.0900    0.4340 C   0  0  0  0  0  0  0  0  0  0  0  0
   -1.1890    0.9610   -0.6770 C   0  0  0  0  0  0  0  0  0  0  0  0
    0.1520    1.0770   -0.9290 C   0  0  0  0  0  0  0  0  0  0  0  0
    0.7200    2.0260   -1.7970 N   0  0  0  0  0  0  0  0  0  0  0  0
    0.0390    2.4640   -2.7500 O   0  0  0  0  0  0  0  0  0  0  0  0
    1.9970    2.5130   -1.6650 O   0  0  0  0  0  0  0  0  0  0  0  0
  1  2  1  0
  2  3  1  0
  3  4  2  0
  3 10  1  0
  4  5  1  0
  5  6  1  0
  5  7  2  0
  7  8  1  0
  7  9  1  0
  9 10  2  0
 10 11  1  0
 11 12  2  0
 11 13  1  0
M  CHG  2  11   1  13  -1
M  END
