
     RDKit          3D

 13 13  0  0  0  0  0  0  0  0999 V2000
   -3.2550   -1.5790    0.5110 C   0  0  0  0  0  0  0  0  0  0  0  0
   -1.8870   -1.6930    0.2650 O   0  0  0  0  0  0  0  0  0  0  0  0
   -1.0700   -0.5770    0.1810 C   0  0  0  0  0  0  0  0  0  0  0  0
   -1.6150    0.6780    0.3420 C   0  0  0  0  0  0  0  0  0  0  0  0
   -0.7610    1.7550    0.2490 C   0  0  0  0  0  0  0  0  0  0  0  0
    0.5840    1.5820    0.0040 C   0  0  0  0  0  0  0  0  0  0  0  0
    1.4460    2.6720   -0.0890 O   0  0  0  0  0  0  0  0  0  0  0  0
    1.1470    0.3270   -0.1600 C   0  0  0  0  0  0  0  0  0  0  0  0
    2.6080    0.1700   -0.4210 C   0  0  0  0  0  0  0  0  0  0  0  0
    3.0350   -1.1780   -0.5720 N   0  0  0  0  0  0  0  0  0  0  0  0
    3.8620   -1.6610    0.2120 O   0  0  0  0  0  0  0  0  0  0  0  0
    2.5410   -1.9550   -1.5800 O   0  0  0  0  0  0  0  0  0  0  0  0
    0.2950   -0.7530   -0.0670 C   0  0  0  0  0  0  0  0  0  0  0  0
  1  2  1  0
  2  3  1  0
  3  4  2  0
  3 13  1  0
  4  5  1  0
  5  6  2  0
  6  7  1  0
  6  8  1  0
  8  9  1  0
  8 13  2  0
  9 10  1  0
 10 11  2  0
 10 12  1  0
M  CHG  2  10   1  12  -1
M  END
