
     RDKit          3D

 37 38  0  0  0  0  0  0  0  0999 V2000
   -7.5350   -0.8640    0.8390 C   0  0  0  0  0  0  0  0  0  0  0  0
   -6.4240   -0.2550    0.0720 C   0  0  0  0  0  0  0  0  0  0  0  0
   -5.4370    0.5730    0.8320 C   0  0  2  0  0  0  0  0  0  0  0  0
   -4.7490   -0.0800    1.8890 N   0  0  0  0  0  0  0  0  0  0  0  0
   -3.3280   -0.2470    1.7000 C   0  0  0  0  0  0  0  0  0  0  0  0
   -2.9730   -1.4220    0.7930 C   0  0  2  0  0  0  0  0  0  0  0  0
   -3.5670   -2.6750    1.5290 C   0  0  0  0  0  0  0  0  0  0  0  0
   -1.6650   -1.5110    0.6950 O   0  0  0  0  0  0  0  0  0  0  0  0
   -0.8370   -1.6250   -0.3180 C   0  0  0  0  0  0  0  0  0  0  0  0
   -0.7050   -0.4810   -1.2680 C   0  0  2  0  0  0  0  0  0  0  0  0
   -0.5290    0.7700   -0.4440 C   0  0  0  0  0  0  0  0  0  0  0  0
   -2.0240   -0.2990   -1.9950 C   0  0  0  0  0  0  0  0  0  0  0  0
   -2.5040   -1.4700   -2.7770 C   0  0  0  0  0  0  0  0  0  0  0  0
   -3.7570   -1.0780   -3.3400 O   0  0  0  0  0  0  0  0  0  0  0  0
    0.2440   -0.6660   -2.2970 N   0  0  0  0  0  0  0  0  0  0  0  0
    1.6050   -1.0380   -2.0490 C   0  0  1  0  0  0  0  0  0  0  0  0
    1.8520   -2.4390   -1.6160 C   0  0  0  0  0  0  0  0  0  0  0  0
    2.1700   -0.9700   -3.4990 C   0  0  0  0  0  0  0  0  0  0  0  0
    2.3290   -0.1160   -1.1410 C   0  0  0  0  0  0  0  0  0  0  0  0
    3.7320   -0.3940   -0.7610 C   0  0  1  0  0  0  0  0  0  0  0  0
    4.7470   -0.4480   -1.8750 C   0  0  0  0  0  0  0  0  0  0  0  0
    4.5450    0.6700   -2.6620 O   0  0  0  0  0  0  0  0  0  0  0  0
    5.0310    1.7740   -1.9660 C   0  0  0  0  0  0  0  0  0  0  0  0
    4.5030    1.8950   -0.5600 C   0  0  0  0  0  0  0  0  0  0  0  0
    4.1830    0.7090    0.0760 N   0  0  0  0  0  0  0  0  0  0  0  0
    4.1630    0.5410    1.4490 C   0  0  0  0  0  0  0  0  0  0  0  0
    5.3960    0.7400    2.2040 C   0  0  0  0  0  0  0  0  0  0  0  0
    5.3770    0.8080    3.5730 C   0  0  0  0  0  0  0  0  0  0  0  0
    6.5420    0.9930    4.3160 C   0  0  0  0  0  0  0  0  0  0  0  0
    7.7050    1.1060    3.6520 N   0  0  0  0  0  0  0  0  0  0  0  0
    7.7320    1.0410    2.3220 C   0  0  0  0  0  0  0  0  0  0  0  0
    9.0680    1.1760    1.6570 C   0  0  0  0  0  0  0  0  0  0  0  0
    6.5980    0.8590    1.5670 C   0  0  0  0  0  0  0  0  0  0  0  0
   -5.8530    1.9780    1.0350 C   0  0  2  0  0  0  0  0  0  0  0  0
   -4.6730    2.7890    1.2400 O   0  0  0  0  0  0  0  0  0  0  0  0
   -6.7060    2.3060    2.2040 C   0  0  0  0  0  0  0  0  0  0  0  0
   -7.9310    1.7160    2.2880 O   0  0  0  0  0  0  0  0  0  0  0  0
  1  2  1  0
  3  2  1  1
  3  4  1  0
  3 34  1  0
  4  5  1  0
  5  6  1  0
  6  7  1  1
  6  8  1  0
  8  9  1  0
  9 10  1  0
 10 11  1  1
 10 12  1  0
 10 15  1  0
 12 13  1  0
 13 14  1  0
 15 16  1  0
 16 17  1  1
 16 18  1  0
 16 19  1  0
 20 19  1  6
 20 21  1  0
 20 25  1  0
 21 22  1  0
 22 23  1  0
 23 24  1  0
 24 25  1  0
 25 26  1  0
 26 27  1  0
 27 28  2  0
 27 33  1  0
 28 29  1  0
 29 30  2  0
 30 31  1  0
 31 32  1  0
 31 33  2  0
 34 35  1  1
 34 36  1  0
 36 37  1  0
M  CHG  2   4   1  15   1
M  END
