
     RDKit          3D

 37 37  0  0  0  0  0  0  0  0999 V2000
    1.7640   -2.9470    0.5310 C   0  0  0  0  0  0  0  0  0  0  0  0
    1.1810   -2.3910   -0.7340 C   0  0  0  0  0  0  0  0  0  0  0  0
    1.7030   -1.0960   -1.2040 C   0  0  0  0  0  0  0  0  0  0  0  0
    1.5830    0.1540   -0.4540 C   0  0  1  0  0  0  0  0  0  0  0  0
    2.2000   -0.0510    0.8190 O   0  0  0  0  0  0  0  0  0  0  0  0
    2.5820    1.1810   -1.0850 C   0  0  0  0  0  0  0  0  0  0  0  0
    3.9670    0.7210   -0.9520 C   0  0  0  0  0  0  0  0  0  0  0  0
    4.2490   -0.2420   -0.2230 O   0  0  0  0  0  0  0  0  0  0  0  0
    5.0090    1.3700   -1.6560 N   0  0  0  0  0  0  0  0  0  0  0  0
    6.4190    0.9700   -1.5700 C   0  0  0  0  0  0  0  0  0  0  0  0
    6.8860    1.1200   -0.1730 C   0  0  0  0  0  0  0  0  0  0  0  0
    8.2760    0.7340    0.1610 C   0  0  1  0  0  0  0  0  0  0  0  0
    8.4320    1.0100    1.6790 C   0  0  0  0  0  0  0  0  0  0  0  0
    8.4620   -0.7970    0.0490 C   0  0  0  0  0  0  0  0  0  0  0  0
    9.3830    1.4260   -0.5300 C   0  0  0  0  0  0  0  0  0  0  0  0
    9.4730    1.2890   -2.0080 C   0  0  0  0  0  0  0  0  0  0  0  0
    0.2640    0.8300   -0.3410 C   0  0  0  0  0  0  0  0  0  0  0  0
   -0.7490    0.0570    0.3840 C   0  0  0  0  0  0  0  0  0  0  0  0
   -0.3960   -0.8100    1.1690 O   0  0  0  0  0  0  0  0  0  0  0  0
   -2.1550    0.2970    0.1910 N   0  0  0  0  0  0  0  0  0  0  0  0
   -3.2080   -0.4670    0.8800 C   0  0  2  0  0  0  0  0  0  0  0  0
   -2.8120   -0.3750    2.3470 C   0  0  0  0  0  0  0  0  0  0  0  0
   -2.9980   -1.8240    0.3950 C   0  0  1  0  0  0  0  0  0  0  0  0
   -3.7850   -2.9770    0.8300 C   0  0  0  0  0  0  0  0  0  0  0  0
   -2.8720   -1.8910   -1.1560 C   0  0  0  0  0  0  0  0  0  0  0  0
   -4.4700    0.2880    0.6710 C   0  0  2  0  0  0  0  0  0  0  0  0
   -5.7350   -0.1250    1.2930 C   0  0  0  0  0  0  0  0  0  0  0  0
   -6.4810   -1.3330    1.1180 C   0  0  2  0  0  0  0  0  0  0  0  0
   -6.9990   -1.6810   -0.2580 C   0  0  0  0  0  0  0  0  0  0  0  0
   -8.1080   -2.5300    0.0020 O   0  0  0  0  0  0  0  0  0  0  0  0
   -8.5580   -2.1940    1.2570 C   0  0  0  0  0  0  0  0  0  0  0  0
   -7.8490   -1.0010    1.6920 N   0  0  0  0  0  0  0  0  0  0  0  0
   -4.7460    0.6450   -0.7250 N   0  0  0  0  0  0  0  0  0  0  0  0
   -5.6560    1.7210   -0.8990 C   0  0  0  0  0  0  0  0  0  0  0  0
   -5.4370    2.9940   -0.1930 C   0  0  0  0  0  0  0  0  0  0  0  0
   -4.1670    3.7320   -0.5070 C   0  0  0  0  0  0  0  0  0  0  0  0
   -4.2160    4.9070    0.2890 O   0  0  0  0  0  0  0  0  0  0  0  0
  1  2  1  0
  2  3  1  0
  3  4  1  0
  4  5  1  1
  4  6  1  0
  4 17  1  0
  6  7  1  0
  7  8  2  0
  7  9  1  0
  9 10  1  0
 10 11  1  0
 11 12  1  0
 12 13  1  1
 12 14  1  0
 12 15  1  0
 15 16  1  0
 17 18  1  0
 18 19  2  0
 18 20  1  0
 20 21  1  0
 21 22  1  1
 21 23  1  0
 21 26  1  0
 23 24  1  6
 23 25  1  0
 26 27  1  6
 26 33  1  0
 28 27  1  6
 28 29  1  0
 28 32  1  0
 29 30  1  0
 30 31  1  0
 31 32  1  0
 33 34  1  0
 34 35  1  0
 35 36  1  0
 36 37  1  0
M  CHG  1  33   1
M  END
