
     RDKit          3D

 37 37  0  0  0  0  0  0  0  0999 V2000
   -6.7070    4.2230    0.6230 C   0  0  0  0  0  0  0  0  0  0  0  0
   -5.7740    4.7600    1.6600 C   0  0  0  0  0  0  0  0  0  0  0  0
   -4.4930    4.1630    1.6100 O   0  0  0  0  0  0  0  0  0  0  0  0
   -4.2700    2.8170    1.7770 C   0  0  0  0  0  0  0  0  0  0  0  0
   -5.2880    2.0890    1.9870 O   0  0  0  0  0  0  0  0  0  0  0  0
   -2.9240    2.1890    1.7260 C   0  0  1  0  0  0  0  0  0  0  0  0
   -2.5950    1.5180    3.0240 C   0  0  0  0  0  0  0  0  0  0  0  0
   -2.8660    1.2090    0.5660 C   0  0  0  0  0  0  0  0  0  0  0  0
   -1.4560    0.6460    0.4750 C   0  0  1  0  0  0  0  0  0  0  0  0
   -1.4690   -0.3790   -0.6010 C   0  0  0  0  0  0  0  0  0  0  0  0
   -0.7590   -0.3210   -1.6370 O   0  0  0  0  0  0  0  0  0  0  0  0
   -2.3040   -1.4900   -0.4960 O   0  0  0  0  0  0  0  0  0  0  0  0
   -2.3200   -2.4800   -1.5310 C   0  0  0  0  0  0  0  0  0  0  0  0
   -3.3030   -3.5220   -1.1220 C   0  0  0  0  0  0  0  0  0  0  0  0
   -3.4190   -4.8070   -2.3170 S   0  0  1  0  0  0  0  0  0  0  0  0
   -3.8210   -4.3210   -3.6680 O   0  0  0  0  0  0  0  0  0  0  0  0
   -1.9910   -5.2150   -2.4180 O   0  0  0  0  0  0  0  0  0  0  0  0
   -4.6950   -6.3290   -1.9710 S   0  0  0  0  0  0  0  0  0  0  0  0
   -5.9360   -5.9110   -1.3510 O   0  0  0  0  0  0  0  0  0  0  0  0
   -0.5380    1.7540    0.0690 C   0  0  2  0  0  0  0  0  0  0  0  0
    0.8260    1.5340    0.5500 N   0  0  0  0  0  0  0  0  0  0  0  0
    1.9270    1.4040   -0.3030 C   0  0  0  0  0  0  0  0  0  0  0  0
    1.7510    1.4800   -1.5340 O   0  0  0  0  0  0  0  0  0  0  0  0
    3.2640    1.1880    0.1410 N   0  0  0  0  0  0  0  0  0  0  0  0
    4.3830    1.0580   -0.7720 C   0  0  1  0  0  0  0  0  0  0  0  0
    5.3730    2.1630   -0.5790 C   0  0  0  0  0  0  0  0  0  0  0  0
    4.9960   -0.2880   -0.7130 C   0  0  0  0  0  0  0  0  0  0  0  0
    4.5040   -1.1290    0.0820 O   0  0  0  0  0  0  0  0  0  0  0  0
    6.0690   -0.6800   -1.4720 O   0  0  0  0  0  0  0  0  0  0  0  0
    6.6780   -1.9300   -1.4530 C   0  0  0  0  0  0  0  0  0  0  0  0
    7.2330   -2.3340   -0.1710 C   0  0  0  0  0  0  0  0  0  0  0  0
    7.1600   -1.6000    0.8360 O   0  0  0  0  0  0  0  0  0  0  0  0
    7.8580   -3.5580   -0.0490 O   0  0  0  0  0  0  0  0  0  0  0  0
    8.4170   -4.0260    1.1400 C   0  0  0  0  0  0  0  0  0  0  0  0
   -1.0290    3.1010    0.4500 C   0  0  0  0  0  0  0  0  0  0  0  0
   -0.5940    4.1060   -0.1650 O   0  0  0  0  0  0  0  0  0  0  0  0
   -1.9590    3.2010    1.4820 O   0  0  0  0  0  0  0  0  0  0  0  0
  1  2  1  0
  2  3  1  0
  3  4  1  0
  4  5  2  0
  4  6  1  0
  6  7  1  1
  6  8  1  0
  6 37  1  0
  8  9  1  0
  9 10  1  6
  9 20  1  0
 10 11  2  0
 10 12  1  0
 12 13  1  0
 13 14  1  0
 15 14  1  1
 15 16  2  0
 15 17  2  0
 15 18  1  0
 18 19  2  0
 20 21  1  1
 20 35  1  0
 21 22  1  0
 22 23  2  0
 22 24  1  0
 24 25  1  0
 25 26  1  1
 25 27  1  0
 27 28  2  0
 27 29  1  0
 29 30  1  0
 30 31  1  0
 31 32  2  0
 31 33  1  0
 33 34  1  0
 35 36  2  0
 35 37  1  0
M  END
