
     RDKit          3D

 37 38  0  0  0  0  0  0  0  0999 V2000
   11.3100   -0.5260    1.0100 C   0  0  0  0  0  0  0  0  0  0  0  0
    9.9670   -1.1600    1.0840 C   0  0  0  0  0  0  0  0  0  0  0  0
    8.8980   -0.4520    0.2650 C   0  0  1  0  0  0  0  0  0  0  0  0
    8.7480    0.8760    0.7090 O   0  0  0  0  0  0  0  0  0  0  0  0
    9.1900   -0.4660   -1.1930 C   0  0  0  0  0  0  0  0  0  0  0  0
    8.1240    0.2350   -1.9720 C   0  0  0  0  0  0  0  0  0  0  0  0
    6.8020   -0.4120   -1.8520 C   0  0  0  0  0  0  0  0  0  0  0  0
    6.6230   -1.4660   -1.2070 O   0  0  0  0  0  0  0  0  0  0  0  0
    5.6970    0.2190   -2.5140 N   0  0  0  0  0  0  0  0  0  0  0  0
    4.3610   -0.3050   -2.4780 C   0  0  0  0  0  0  0  0  0  0  0  0
    3.7380    0.0340   -1.1770 C   0  0  0  0  0  0  0  0  0  0  0  0
    3.1700    1.2990   -1.0020 C   0  0  0  0  0  0  0  0  0  0  0  0
    2.5900    1.5700    0.2130 C   0  0  0  0  0  0  0  0  0  0  0  0
    2.5520    0.6580    1.2430 C   0  0  0  0  0  0  0  0  0  0  0  0
    1.8710    1.1140    2.4910 C   0  0  1  0  0  0  0  0  0  0  0  0
    2.7980    2.1440    3.1110 C   0  0  0  0  0  0  0  0  0  0  0  0
    0.6730    1.6660    2.0940 O   0  0  0  0  0  0  0  0  0  0  0  0
   -0.4570    1.0540    2.5620 C   0  0  0  0  0  0  0  0  0  0  0  0
   -0.6350   -0.3790    2.1950 C   0  0  0  0  0  0  0  0  0  0  0  0
   -0.6980   -0.6700    0.8680 O   0  0  0  0  0  0  0  0  0  0  0  0
   -1.6780   -0.1130    0.1170 C   0  0  0  0  0  0  0  0  0  0  0  0
   -3.0630   -0.4110    0.4760 C   0  0  0  0  0  0  0  0  0  0  0  0
   -3.4420   -1.1040    1.4480 O   0  0  0  0  0  0  0  0  0  0  0  0
   -4.0800    0.1520   -0.3810 N   0  0  0  0  0  0  0  0  0  0  0  0
   -5.4940   -0.0670   -0.1280 C   0  0  1  0  0  0  0  0  0  0  0  0
   -6.3110    1.1760   -0.1420 C   0  0  0  0  0  0  0  0  0  0  0  0
   -6.8080    1.6110   -1.4800 C   0  0  1  0  0  0  0  0  0  0  0  0
   -6.7200    3.1250   -1.5420 C   0  0  0  0  0  0  0  0  0  0  0  0
   -6.0860    1.0380   -2.6490 C   0  0  0  0  0  0  0  0  0  0  0  0
   -5.7950   -0.4200   -2.5600 C   0  0  0  0  0  0  0  0  0  0  0  0
   -5.9930   -1.0090   -1.2040 C   0  0  2  0  0  0  0  0  0  0  0  0
   -7.2960   -1.5470   -0.9500 N   0  0  0  0  0  0  0  0  0  0  0  0
   -7.1900   -2.5350    0.1030 C   0  0  0  0  0  0  0  0  0  0  0  0
   -8.0740   -2.2090    1.2800 C   0  0  0  0  0  0  0  0  0  0  0  0
   -9.4690   -2.1360    0.9640 N   0  0  0  0  0  0  0  0  0  0  0  0
    3.1080   -0.5780    1.0720 C   0  0  0  0  0  0  0  0  0  0  0  0
    3.6970   -0.8670   -0.1510 C   0  0  0  0  0  0  0  0  0  0  0  0
  1  2  1  0
  2  3  1  0
  3  4  1  1
  3  5  1  0
  5  6  1  0
  6  7  1  0
  7  8  2  0
  7  9  1  0
  9 10  1  0
 10 11  1  0
 11 12  2  0
 11 37  1  0
 12 13  1  0
 13 14  2  0
 14 15  1  0
 14 36  1  0
 15 16  1  6
 15 17  1  0
 17 18  1  0
 18 19  1  0
 19 20  1  0
 20 21  1  0
 21 22  1  0
 22 23  2  0
 22 24  1  0
 25 24  1  6
 25 26  1  0
 25 31  1  0
 26 27  1  0
 27 28  1  1
 27 29  1  0
 29 30  1  0
 30 31  1  0
 31 32  1  1
 32 33  1  0
 33 34  1  0
 34 35  1  0
 36 37  2  0
M  CHG  2  32   1  35   1
M  END
