
     RDKit          3D

 37 38  0  0  0  0  0  0  0  0999 V2000
    0.8240    2.6050    0.0540 C   0  0  0  0  0  0  0  0  0  0  0  0
   -0.2790    1.6600   -0.1160 C   0  0  0  0  0  0  0  0  0  0  0  0
   -1.5900    2.1320   -0.2410 N   0  0  0  0  0  0  0  0  0  0  0  0
   -2.0910    2.6560   -1.4730 C   0  0  0  0  0  0  0  0  0  0  0  0
   -1.5540    3.9970   -1.8750 C   0  0  0  0  0  0  0  0  0  0  0  0
   -1.9060    5.0710   -0.8990 C   0  0  0  0  0  0  0  0  0  0  0  0
   -1.3720    6.3630   -1.2760 N   0  0  0  0  0  0  0  0  0  0  0  0
   -1.7280    7.3980   -0.3540 C   0  0  0  0  0  0  0  0  0  0  0  0
   -3.0990    7.2100    0.2410 C   0  0  0  0  0  0  0  0  0  0  0  0
   -4.0260    7.2080   -0.7900 O   0  0  0  0  0  0  0  0  0  0  0  0
    0.0250    0.2920   -0.1590 C   0  0  0  0  0  0  0  0  0  0  0  0
    1.3970    0.0200   -0.0320 C   0  0  0  0  0  0  0  0  0  0  0  0
    2.2240   -0.9480   -0.0070 C   0  0  0  0  0  0  0  0  0  0  0  0
    2.1320   -2.2980   -0.1050 O   0  0  0  0  0  0  0  0  0  0  0  0
    3.0930   -3.0270   -0.8350 C   0  0  0  0  0  0  0  0  0  0  0  0
    4.4830   -2.8230   -0.2630 C   0  0  0  0  0  0  0  0  0  0  0  0
    4.3520   -1.7860    0.8230 C   0  0  1  0  0  0  0  0  0  0  0  0
    5.7050   -1.4350    1.4550 C   0  0  2  0  0  0  0  0  0  0  0  0
    6.6690   -0.8750    0.4840 C   0  0  0  0  0  0  0  0  0  0  0  0
    7.8780   -1.6780    0.1910 C   0  0  0  0  0  0  0  0  0  0  0  0
    7.7650   -3.1420    0.4560 C   0  0  0  0  0  0  0  0  0  0  0  0
    7.1460   -3.5000    1.7540 C   0  0  0  0  0  0  0  0  0  0  0  0
    6.2120   -2.5180    2.3420 C   0  0  0  0  0  0  0  0  0  0  0  0
    3.7460   -0.5650    0.1820 C   0  0  2  0  0  0  0  0  0  0  0  0
    3.8010    0.5680    0.9500 O   0  0  0  0  0  0  0  0  0  0  0  0
   -1.0970   -0.5740   -0.3150 C   0  0  0  0  0  0  0  0  0  0  0  0
   -2.2410    0.1830   -0.3960 O   0  0  0  0  0  0  0  0  0  0  0  0
   -1.4650   -1.8850   -0.4130 N   0  0  0  0  0  0  0  0  0  0  0  0
   -0.7120   -3.0800   -0.3670 C   0  0  0  0  0  0  0  0  0  0  0  0
   -2.9700   -2.1220   -0.6160 C   0  0  0  0  0  0  0  0  0  0  0  0
   -3.5480   -2.2240    0.7380 C   0  0  0  0  0  0  0  0  0  0  0  0
   -5.0090   -2.4170    0.8870 C   0  0  2  0  0  0  0  0  0  0  0  0
   -5.5840   -3.6350    0.2900 C   0  0  0  0  0  0  0  0  0  0  0  0
   -5.4930   -3.8300   -1.1100 N   0  0  0  0  0  0  0  0  0  0  0  0
   -5.7850   -1.1530    0.5230 C   0  0  0  0  0  0  0  0  0  0  0  0
   -7.2690   -1.3730    0.6790 C   0  0  0  0  0  0  0  0  0  0  0  0
   -7.9430   -0.1880    0.3500 O   0  0  0  0  0  0  0  0  0  0  0  0
  1  2  1  0
  2  3  1  0
  2 11  2  3
  3  4  1  0
  4  5  1  0
  5  6  1  0
  6  7  1  0
  7  8  1  0
  8  9  1  0
  9 10  1  0
 11 12  1  0
 11 26  1  0
 12 13  2  3
 13 14  1  0
 13 24  1  0
 14 15  1  0
 15 16  1  0
 17 16  1  6
 17 18  1  0
 17 24  1  0
 18 19  1  6
 18 23  1  0
 19 20  1  0
 20 21  1  0
 21 22  1  0
 22 23  1  0
 24 25  1  1
 26 27  2  0
 26 28  1  0
 28 29  1  0
 28 30  1  0
 30 31  1  0
 32 31  1  6
 32 33  1  0
 32 35  1  0
 33 34  1  0
 35 36  1  0
 36 37  1  0
M  CHG  2   7   1  34   1
M  END
