
     RDKit          3D

  9  9  0  0  0  0  0  0  0  0999 V2000
    2.5120   -0.5030   -0.7220 C   0  0  0  0  0  0  0  0  0  0  0  0
    1.7360    0.0640    0.1540 C   0  0  0  0  0  0  0  0  0  0  0  0
    2.2850    0.7610    1.2600 N   0  0  0  0  0  0  0  0  0  0  0  0
    0.2800    0.0130    0.0460 C   0  0  0  0  0  0  0  0  0  0  0  0
   -0.4740    0.6170    0.9810 C   0  0  0  0  0  0  0  0  0  0  0  0
   -1.9120    0.5930    0.9150 C   0  0  0  0  0  0  0  0  0  0  0  0
   -2.5470   -0.0160   -0.0540 C   0  0  0  0  0  0  0  0  0  0  0  0
   -1.8440   -0.7100   -1.1310 C   0  0  0  0  0  0  0  0  0  0  0  0
   -0.4250   -0.6390   -0.9910 N   0  0  0  0  0  0  0  0  0  0  0  0
  1  2  2  0
  2  3  1  0
  2  4  1  0
  4  5  2  0
  4  9  1  0
  5  6  1  0
  6  7  2  0
  7  8  1  0
  8  9  1  0
M  END
