
     RDKit          3D

  9  9  0  0  0  0  0  0  0  0999 V2000
   -2.2590   -1.1350    0.4740 N   0  0  0  0  0  0  0  0  0  0  0  0
   -1.5790    0.0730    0.1890 C   0  0  0  0  0  0  0  0  0  0  0  0
   -2.2500    1.1590    0.0940 N   0  0  0  0  0  0  0  0  0  0  0  0
   -0.1510    0.0690    0.0090 C   0  0  0  0  0  0  0  0  0  0  0  0
    0.5920    1.1970   -0.2710 C   0  0  0  0  0  0  0  0  0  0  0  0
    1.9720    1.1240   -0.4330 C   0  0  0  0  0  0  0  0  0  0  0  0
    2.6570   -0.0660   -0.3230 C   0  0  0  0  0  0  0  0  0  0  0  0
    1.9010   -1.1840   -0.0430 C   0  0  0  0  0  0  0  0  0  0  0  0
    0.5360   -1.1400    0.1220 C   0  0  0  0  0  0  0  0  0  0  0  0
  1  2  1  0
  2  3  2  0
  2  4  1  0
  4  5  2  0
  4  9  1  0
  5  6  1  0
  6  7  2  0
  7  8  1  0
  8  9  2  0
M  CHG  1   3   1
M  END
