
     RDKit          3D

 23 26  0  0  0  0  0  0  0  0999 V2000
    0.1900    4.2850    0.9460 C   0  0  0  0  0  0  0  0  0  0  0  0
    0.2710    3.0500    0.2440 O   0  0  0  0  0  0  0  0  0  0  0  0
    1.1600    2.0480    0.5800 C   0  0  0  0  0  0  0  0  0  0  0  0
    1.9040    2.3340    1.5810 O   0  0  0  0  0  0  0  0  0  0  0  0
    1.2930    0.7480   -0.1070 C   0  0  1  0  0  0  0  0  0  0  0  0
    2.5400    0.0640    0.4760 C   0  0  2  0  0  0  0  0  0  0  0  0
    3.7440    0.8110   -0.0480 C   0  0  0  0  0  0  0  0  0  0  0  0
    2.5890   -1.3760    0.1630 C   0  0  0  0  0  0  0  0  0  0  0  0
    3.4490   -2.2350   -0.3550 C   0  0  0  0  0  0  0  0  0  0  0  0
    2.8360   -3.5760   -0.3840 C   0  0  0  0  0  0  0  0  0  0  0  0
    1.4820   -3.3760    0.2000 C   0  0  0  0  0  0  0  0  0  0  0  0
    1.3590   -2.1220    0.5030 C   0  0  0  0  0  0  0  0  0  0  0  0
    0.3090   -1.2110    1.0970 C   0  0  0  0  0  0  0  0  0  0  0  0
    0.0890   -0.1580    0.0030 C   0  0  2  0  0  0  0  0  0  0  0  0
    0.0770   -0.9780   -1.3040 C   0  0  0  0  0  0  0  0  0  0  0  0
   -0.8130   -0.2890   -2.3110 C   0  0  0  0  0  0  0  0  0  0  0  0
   -2.2730   -0.4090   -1.9600 C   0  0  0  0  0  0  0  0  0  0  0  0
   -2.4010   -0.1970   -0.4740 C   0  0  2  0  0  0  0  0  0  0  0  0
   -2.8840   -1.4390    0.1550 C   0  0  0  0  0  0  0  0  0  0  0  0
   -3.4700    0.8740   -0.1670 C   0  0  0  0  0  0  0  0  0  0  0  0
   -3.0690    1.4270    1.1970 C   0  0  0  0  0  0  0  0  0  0  0  0
   -1.6930    0.8130    1.4960 C   0  0  0  0  0  0  0  0  0  0  0  0
   -1.2140    0.4920    0.1260 C   0  0  1  0  0  0  0  0  0  0  0  0
  1  2  1  0
  2  3  1  0
  3  4  2  0
  5  3  1  1
  5  6  1  0
  5 14  1  0
  6  7  1  6
  6  8  1  0
  8  9  2  0
  8 12  1  0
  9 10  1  0
 10 11  1  0
 11 12  2  0
 12 13  1  0
 14 13  1  1
 14 15  1  0
 14 23  1  0
 15 16  1  0
 16 17  1  0
 17 18  1  0
 18 19  1  1
 18 20  1  0
 18 23  1  0
 20 21  1  0
 21 22  1  0
 23 22  1  1
M  END
