
     RDKit          3D

  9  9  0  0  0  0  0  0  0  0999 V2000
    2.8100   -0.5410    0.5340 N   0  0  0  0  0  0  0  0  0  0  0  0
    1.4480   -0.7410    0.1100 C   0  0  0  0  0  0  0  0  0  0  0  0
    0.6000    0.2550    0.0080 C   0  0  0  0  0  0  0  0  0  0  0  0
    0.8390    1.6620    0.2800 C   0  0  0  0  0  0  0  0  0  0  0  0
   -0.2950    2.3400    0.0470 C   0  0  0  0  0  0  0  0  0  0  0  0
   -1.3070    1.3990   -0.3830 C   0  0  0  0  0  0  0  0  0  0  0  0
   -0.7860    0.1680   -0.4090 C   0  0  0  0  0  0  0  0  0  0  0  0
   -1.5600   -1.0500   -0.8120 C   0  0  0  0  0  0  0  0  0  0  0  0
   -1.5650   -1.9500    0.3040 N   0  0  0  0  0  0  0  0  0  0  0  0
  1  2  1  0
  2  3  2  3
  3  4  1  0
  3  7  1  0
  4  5  2  0
  5  6  1  0
  6  7  2  0
  7  8  1  0
  8  9  1  0
M  END
