
     RDKit          3D

 27 29  0  0  0  0  0  0  0  0999 V2000
    7.9420    1.9420    0.4930 C   0  0  0  0  0  0  0  0  0  0  0  0
    7.1270    0.8370   -0.1390 C   0  0  0  0  0  0  0  0  0  0  0  0
    5.9570    0.5980    0.7000 N   0  0  0  0  0  0  0  0  0  0  0  0
    4.9970    1.6280    0.9610 C   0  0  0  0  0  0  0  0  0  0  0  0
    5.1860    2.7740    0.4380 O   0  0  0  0  0  0  0  0  0  0  0  0
    3.8660    1.3890    1.7760 N   0  0  0  0  0  0  0  0  0  0  0  0
    2.9390    2.4480    2.0030 C   0  0  0  0  0  0  0  0  0  0  0  0
    3.4920    3.9140    2.7610 Cl  0  0  0  0  0  0  0  0  0  0  0  0
    1.6820    2.3390    1.6520 C   0  0  0  0  0  0  0  0  0  0  0  0
    1.2070    1.1320    1.0220 C   0  0  0  0  0  0  0  0  0  0  0  0
   -0.0630    0.9700    0.6450 C   0  0  0  0  0  0  0  0  0  0  0  0
   -1.0650    1.9580    0.8240 N   0  0  0  0  0  0  0  0  0  0  0  0
   -2.2770    1.3880    0.2910 C   0  0  0  0  0  0  0  0  0  0  0  0
   -3.3760    2.0310    0.2970 O   0  0  0  0  0  0  0  0  0  0  0  0
   -1.9880    0.0530   -0.2060 C   0  0  0  0  0  0  0  0  0  0  0  0
   -2.9490   -0.8500   -0.8470 C   0  0  0  0  0  0  0  0  0  0  0  0
   -2.5500   -1.4630   -2.0340 C   0  0  0  0  0  0  0  0  0  0  0  0
   -3.3540   -2.3290   -2.7120 C   0  0  0  0  0  0  0  0  0  0  0  0
   -4.6070   -2.6300   -2.2360 C   0  0  0  0  0  0  0  0  0  0  0  0
   -5.5310   -3.5680   -2.9370 C   0  0  0  0  0  0  0  0  0  0  0  0
   -5.0060   -2.0240   -1.0570 C   0  0  0  0  0  0  0  0  0  0  0  0
   -6.1630   -2.1590   -0.3880 N   0  0  0  0  0  0  0  0  0  0  0  0
   -6.0930   -1.3850    0.7090 C   0  0  0  0  0  0  0  0  0  0  0  0
   -4.8590   -0.7370    0.7410 C   0  0  0  0  0  0  0  0  0  0  0  0
   -4.1870   -1.1470   -0.3740 C   0  0  0  0  0  0  0  0  0  0  0  0
   -0.6970   -0.1700    0.0090 C   0  0  0  0  0  0  0  0  0  0  0  0
    0.0980   -1.6660   -0.4390 Cl  0  0  0  0  0  0  0  0  0  0  0  0
  1  2  1  0
  2  3  1  0
  3  4  1  0
  4  5  2  0
  4  6  1  0
  6  7  1  0
  7  8  1  0
  7  9  2  3
  9 10  1  0
 10 11  2  3
 11 12  1  0
 11 26  1  0
 12 13  1  0
 13 14  2  0
 13 15  1  0
 15 16  1  0
 15 26  2  0
 16 17  2  0
 16 25  1  0
 17 18  1  0
 18 19  2  0
 19 20  1  0
 19 21  1  0
 21 22  1  0
 21 25  2  0
 22 23  1  0
 23 24  2  0
 24 25  1  0
 26 27  1  0
M  END
