
     RDKit          3D

 27 29  0  0  0  0  0  0  0  0999 V2000
   -5.6480   -1.4450   -1.6560 N   0  0  0  0  0  0  0  0  0  0  0  0
   -4.3550   -1.1520   -1.1020 C   0  0  0  0  0  0  0  0  0  0  0  0
   -4.1630   -0.0400   -0.3180 C   0  0  0  0  0  0  0  0  0  0  0  0
   -2.9410    0.2500    0.2150 C   0  0  0  0  0  0  0  0  0  0  0  0
   -2.8680    1.3850    0.9880 C   0  0  0  0  0  0  0  0  0  0  0  0
   -4.0070    2.2540    1.2370 C   0  0  0  0  0  0  0  0  0  0  0  0
   -4.3000    3.0990    0.0540 C   0  0  0  0  0  0  0  0  0  0  0  0
   -3.5910    2.9710   -0.9280 O   0  0  0  0  0  0  0  0  0  0  0  0
   -5.6340    4.2430    0.0890 Cl  0  0  0  0  0  0  0  0  0  0  0  0
   -1.6460    1.6740    1.5270 C   0  0  0  0  0  0  0  0  0  0  0  0
   -0.5310    0.8780    1.3160 C   0  0  0  0  0  0  0  0  0  0  0  0
   -0.6120   -0.2590    0.5400 C   0  0  0  0  0  0  0  0  0  0  0  0
    0.5140   -1.1000    0.2770 N   0  0  0  0  0  0  0  0  0  0  0  0
    1.7980   -0.9650    0.8500 C   0  0  0  0  0  0  0  0  0  0  0  0
    2.0570   -0.0750    1.6630 O   0  0  0  0  0  0  0  0  0  0  0  0
    2.8190   -1.8960    0.4670 N   0  0  0  0  0  0  0  0  0  0  0  0
    4.1480   -1.8340    0.9980 C   0  0  0  0  0  0  0  0  0  0  0  0
    4.8760   -0.7220    0.3330 C   0  0  0  0  0  0  0  0  0  0  0  0
    5.0620    0.5190    0.9200 C   0  0  0  0  0  0  0  0  0  0  0  0
    5.7440    1.5250    0.2650 C   0  0  0  0  0  0  0  0  0  0  0  0
    6.2410    1.2680   -0.9980 C   0  0  0  0  0  0  0  0  0  0  0  0
    6.0590    0.0570   -1.5690 N   0  0  0  0  0  0  0  0  0  0  0  0
    5.3920   -0.9330   -0.9350 C   0  0  0  0  0  0  0  0  0  0  0  0
   -1.8490   -0.5750   -0.0210 C   0  0  0  0  0  0  0  0  0  0  0  0
   -2.0060   -1.6910   -0.7980 C   0  0  0  0  0  0  0  0  0  0  0  0
   -3.2750   -1.9590   -1.3290 C   0  0  0  0  0  0  0  0  0  0  0  0
   -3.4600   -3.3750   -2.3110 Cl  0  0  0  0  0  0  0  0  0  0  0  0
  1  2  1  0
  2  3  2  0
  2 26  1  0
  3  4  1  0
  4  5  2  0
  4 24  1  0
  5  6  1  0
  5 10  1  0
  6  7  1  0
  7  8  2  0
  7  9  1  0
 10 11  2  0
 11 12  1  0
 12 13  1  0
 12 24  2  0
 13 14  1  0
 14 15  2  0
 14 16  1  0
 16 17  1  0
 17 18  1  0
 18 19  2  0
 18 23  1  0
 19 20  1  0
 20 21  2  0
 21 22  1  0
 22 23  2  0
 24 25  1  0
 25 26  2  0
 26 27  1  0
M  END
