
     RDKit          3D

 27 29  0  0  0  0  0  0  0  0999 V2000
    0.4630   -3.1740   -0.3760 C   0  0  0  0  0  0  0  0  0  0  0  0
    0.6280   -1.8900   -0.5010 C   0  0  0  0  0  0  0  0  0  0  0  0
    2.0080   -1.3560   -0.6980 C   0  0  0  0  0  0  0  0  0  0  0  0
    2.3800   -0.4070    0.4160 C   0  0  0  0  0  0  0  0  0  0  0  0
    3.7250    0.1470    0.2720 C   0  0  0  0  0  0  0  0  0  0  0  0
    4.2860    1.0110    1.1290 N   0  0  0  0  0  0  0  0  0  0  0  0
    5.5270    1.3350    0.7260 C   0  0  0  0  0  0  0  0  0  0  0  0
    6.5420    2.1480    1.1890 C   0  0  0  0  0  0  0  0  0  0  0  0
    7.7510    2.2870    0.5400 C   0  0  0  0  0  0  0  0  0  0  0  0
    7.9720    1.5880   -0.6300 C   0  0  0  0  0  0  0  0  0  0  0  0
    9.4770    1.7330   -1.4780 Cl  0  0  0  0  0  0  0  0  0  0  0  0
    6.9600    0.7730   -1.0970 C   0  0  0  0  0  0  0  0  0  0  0  0
    5.7550    0.6350   -0.4500 C   0  0  0  0  0  0  0  0  0  0  0  0
    4.6370   -0.0730   -0.6890 N   0  0  0  0  0  0  0  0  0  0  0  0
   -0.4670   -0.9350   -0.4590 C   0  0  0  0  0  0  0  0  0  0  0  0
   -1.7870   -1.4680   -0.2680 N   0  0  0  0  0  0  0  0  0  0  0  0
   -2.9070   -0.5710   -0.2180 C   0  0  0  0  0  0  0  0  0  0  0  0
   -2.6770    0.6520   -0.3450 O   0  0  0  0  0  0  0  0  0  0  0  0
   -4.2250   -1.0250   -0.0350 N   0  0  0  0  0  0  0  0  0  0  0  0
   -5.4030   -0.2360    0.0370 C   0  0  0  0  0  0  0  0  0  0  0  0
   -6.6540   -0.8720    0.0570 C   0  0  0  0  0  0  0  0  0  0  0  0
   -7.8140   -0.1480    0.1360 C   0  0  0  0  0  0  0  0  0  0  0  0
   -7.8120    1.2250    0.1980 C   0  0  0  0  0  0  0  0  0  0  0  0
   -8.9570    1.9970    0.2780 O   0  0  0  0  0  0  0  0  0  0  0  0
   -6.6000    1.8740    0.1810 C   0  0  0  0  0  0  0  0  0  0  0  0
   -6.5190    3.6380    0.2580 Cl  0  0  0  0  0  0  0  0  0  0  0  0
   -5.4150    1.1310    0.1010 C   0  0  0  0  0  0  0  0  0  0  0  0
  1  2  2  0
  2  3  1  0
  2 15  1  0
  3  4  1  0
  4  5  1  0
  5  6  2  0
  5 14  1  0
  6  7  1  0
  7  8  2  0
  7 13  1  0
  8  9  1  0
  9 10  2  0
 10 11  1  0
 10 12  1  0
 12 13  2  0
 13 14  1  0
 15 16  1  0
 16 17  1  0
 17 18  2  0
 17 19  1  0
 19 20  1  0
 20 21  2  0
 20 27  1  0
 21 22  1  0
 22 23  2  0
 23 24  1  0
 23 25  1  0
 25 26  1  0
 25 27  2  0
M  END
