
     RDKit          3D

 26 28  0  0  0  0  0  0  0  0999 V2000
   -2.4940    1.1750   -0.1090 C   0  0  0  0  0  0  0  0  0  0  0  0
   -2.6530    0.0250    0.7840 C   0  0  0  0  0  0  0  0  0  0  0  0
   -1.6450   -0.6890    1.1930 C   0  0  0  0  0  0  0  0  0  0  0  0
   -0.2590   -0.5280    0.8870 C   0  0  0  0  0  0  0  0  0  0  0  0
    0.5300   -1.4020    1.4700 O   0  0  0  0  0  0  0  0  0  0  0  0
    0.4270    0.3700    0.0920 N   0  0  0  0  0  0  0  0  0  0  0  0
    1.8670    0.2660   -0.0090 C   0  0  0  0  0  0  0  0  0  0  0  0
    2.6830    0.9510    0.8740 C   0  0  0  0  0  0  0  0  0  0  0  0
    2.1020    1.8010    1.9360 C   0  0  0  0  0  0  0  0  0  0  0  0
    4.0600    0.8000    0.7110 C   0  0  0  0  0  0  0  0  0  0  0  0
    4.5740    0.0030   -0.2860 C   0  0  0  0  0  0  0  0  0  0  0  0
    6.0460   -0.1210   -0.4110 C   0  0  1  0  0  0  0  0  0  0  0  0
    6.5560   -1.4180   -0.9550 C   0  0  0  0  0  0  0  0  0  0  0  0
    6.5740   -0.1440   -1.8030 C   0  0  0  0  0  0  0  0  0  0  0  0
    3.7680   -0.6460   -1.1230 N   0  0  0  0  0  0  0  0  0  0  0  0
    2.4300   -0.5210   -0.9930 C   0  0  0  0  0  0  0  0  0  0  0  0
    1.6350   -1.1190   -1.7650 O   0  0  0  0  0  0  0  0  0  0  0  0
   -3.9900   -0.3010    1.3590 C   0  0  0  0  0  0  0  0  0  0  0  0
   -4.1560   -0.9960    2.5670 C   0  0  0  0  0  0  0  0  0  0  0  0
   -5.4670   -1.0750    2.8140 N   0  0  0  0  0  0  0  0  0  0  0  0
   -6.1500   -0.4910    1.8650 N   0  0  0  0  0  0  0  0  0  0  0  0
   -5.2190    0.0080    0.9170 C   0  0  0  0  0  0  0  0  0  0  0  0
   -5.7190    0.4960   -0.3340 C   0  0  0  0  0  0  0  0  0  0  0  0
   -5.3960    0.3290   -1.5630 C   0  0  0  0  0  0  0  0  0  0  0  0
   -4.3440   -0.4720   -2.2010 C   0  0  0  0  0  0  0  0  0  0  0  0
   -5.1090   -1.6330   -3.3500 Cl  0  0  0  0  0  0  0  0  0  0  0  0
  1  2  1  0
  2  3  2  3
  2 18  1  0
  3  4  1  0
  4  5  2  0
  4  6  1  0
  6  7  1  0
  7  8  2  0
  7 16  1  0
  8  9  1  0
  8 10  1  0
 10 11  2  0
 12 11  1  6
 11 15  1  0
 12 13  1  0
 12 14  1  0
 13 14  1  0
 15 16  1  0
 16 17  2  0
 18 19  2  0
 18 22  1  0
 19 20  1  0
 20 21  1  0
 21 22  2  0
 22 23  1  0
 23 24  2  3
 24 25  1  0
 25 26  1  0
M  END
