
     RDKit          3D

 27 29  0  0  0  0  0  0  0  0999 V2000
    4.6010    2.7670   -1.2770 O   0  0  0  0  0  0  0  0  0  0  0  0
    3.4630    2.2670   -1.0000 C   0  0  0  0  0  0  0  0  0  0  0  0
    2.3010    3.1860   -1.2730 C   0  0  0  0  0  0  0  0  0  0  0  0
    1.0840    2.5180   -1.0130 N   0  0  0  0  0  0  0  0  0  0  0  0
    0.6280    1.3950   -1.7330 C   0  0  0  0  0  0  0  0  0  0  0  0
    1.3130    0.9410   -2.6710 O   0  0  0  0  0  0  0  0  0  0  0  0
   -0.6350    0.7850   -1.3680 C   0  0  0  0  0  0  0  0  0  0  0  0
   -1.4870    1.1790   -0.3610 C   0  0  0  0  0  0  0  0  0  0  0  0
   -2.6110    0.3440   -0.3110 C   0  0  0  0  0  0  0  0  0  0  0  0
   -3.6840    0.5090    0.5980 N   0  0  0  0  0  0  0  0  0  0  0  0
   -4.6220   -0.4640    0.9570 C   0  0  0  0  0  0  0  0  0  0  0  0
   -4.3710   -1.7870    0.8170 C   0  0  0  0  0  0  0  0  0  0  0  0
   -5.3220   -2.7260    1.1540 C   0  0  0  0  0  0  0  0  0  0  0  0
   -6.5420   -2.3250    1.6400 C   0  0  0  0  0  0  0  0  0  0  0  0
   -6.7800   -0.9940    1.7760 C   0  0  0  0  0  0  0  0  0  0  0  0
   -8.3280   -0.4590    2.3940 Cl  0  0  0  0  0  0  0  0  0  0  0  0
   -5.8510   -0.0550    1.4470 C   0  0  0  0  0  0  0  0  0  0  0  0
   -2.3970   -0.5580   -1.3220 C   0  0  0  0  0  0  0  0  0  0  0  0
   -1.2200   -0.2990   -1.9540 N   0  0  0  0  0  0  0  0  0  0  0  0
    3.3230    0.9790   -0.4840 N   0  0  0  0  0  0  0  0  0  0  0  0
    4.3840    0.1010   -0.2300 C   0  0  0  0  0  0  0  0  0  0  0  0
    5.7190    0.3370   -0.4350 C   0  0  0  0  0  0  0  0  0  0  0  0
    6.7100   -0.6230   -0.1440 C   0  0  0  0  0  0  0  0  0  0  0  0
    6.3730   -1.8510    0.3650 C   0  0  0  0  0  0  0  0  0  0  0  0
    5.0390   -2.0990    0.5740 C   0  0  0  0  0  0  0  0  0  0  0  0
    4.0740   -1.1660    0.2910 C   0  0  0  0  0  0  0  0  0  0  0  0
    2.3780   -1.5590    0.5870 Cl  0  0  0  0  0  0  0  0  0  0  0  0
  1  2  2  0
  2  3  1  0
  2 20  1  0
  3  4  1  0
  4  5  1  0
  5  6  2  0
  5  7  1  0
  7  8  2  0
  7 19  1  0
  8  9  1  0
  9 10  1  0
  9 18  2  0
 10 11  1  0
 11 12  2  0
 11 17  1  0
 12 13  1  0
 13 14  2  0
 14 15  1  0
 15 16  1  0
 15 17  2  0
 18 19  1  0
 20 21  1  0
 21 22  2  0
 21 26  1  0
 22 23  1  0
 23 24  2  0
 24 25  1  0
 25 26  2  0
 26 27  1  0
M  END
