
     RDKit          3D

 27 29  0  0  0  0  0  0  0  0999 V2000
    6.9420    0.9930   -1.3520 C   0  0  0  0  0  0  0  0  0  0  0  0
    5.6970    1.0130   -0.9370 C   0  0  0  0  0  0  0  0  0  0  0  0
    5.0230    2.2790   -0.7610 C   0  0  0  0  0  0  0  0  0  0  0  0
    3.7840    2.2580   -0.3460 C   0  0  0  0  0  0  0  0  0  0  0  0
    3.0590    1.0070   -0.0530 C   0  0  0  0  0  0  0  0  0  0  0  0
    3.6000   -0.1730   -0.1880 C   0  0  0  0  0  0  0  0  0  0  0  0
    2.9800   -1.4600    0.0620 C   0  0  0  0  0  0  0  0  0  0  0  0
    3.8180   -2.5390    0.2860 N   0  0  0  0  0  0  0  0  0  0  0  0
    3.4000   -3.7640    0.5400 C   0  0  0  0  0  0  0  0  0  0  0  0
    2.0540   -4.0290    0.5930 C   0  0  0  0  0  0  0  0  0  0  0  0
    1.4250   -5.6360    0.9290 Cl  0  0  0  0  0  0  0  0  0  0  0  0
    1.2020   -2.9840    0.3720 C   0  0  0  0  0  0  0  0  0  0  0  0
    1.6270   -1.6690    0.0970 C   0  0  0  0  0  0  0  0  0  0  0  0
    0.7000   -0.6910   -0.3030 N   0  0  0  0  0  0  0  0  0  0  0  0
   -0.6750   -0.6130    0.0280 C   0  0  0  0  0  0  0  0  0  0  0  0
   -1.1780   -1.4830    0.7640 O   0  0  0  0  0  0  0  0  0  0  0  0
   -1.5250    0.4830   -0.4860 C   0  0  0  0  0  0  0  0  0  0  0  0
   -1.0580    1.3690   -1.2240 O   0  0  0  0  0  0  0  0  0  0  0  0
   -2.8800    0.5000   -0.1190 N   0  0  0  0  0  0  0  0  0  0  0  0
   -3.8160    1.5160   -0.5530 C   0  0  0  0  0  0  0  0  0  0  0  0
   -5.1650    1.2170    0.0280 C   0  0  0  0  0  0  0  0  0  0  0  0
   -5.7970    2.0440    0.8220 C   0  0  0  0  0  0  0  0  0  0  0  0
   -7.0800    1.4380    1.2020 C   0  0  0  0  0  0  0  0  0  0  0  0
   -7.0950    0.1360    0.5080 C   0  0  0  0  0  0  0  0  0  0  0  0
   -5.9690    0.0190   -0.1750 C   0  0  0  0  0  0  0  0  0  0  0  0
   -5.4890   -1.3560   -1.1800 Cl  0  0  0  0  0  0  0  0  0  0  0  0
    4.9710   -0.1730   -0.6470 N   0  0  0  0  0  0  0  0  0  0  0  0
  1  2  2  0
  2  3  1  0
  2 27  1  0
  3  4  2  0
  4  5  1  0
  5  6  2  0
  6  7  1  0
  6 27  1  0
  7  8  2  0
  7 13  1  0
  8  9  1  0
  9 10  2  0
 10 11  1  0
 10 12  1  0
 12 13  2  0
 13 14  1  0
 14 15  1  0
 15 16  2  0
 15 17  1  0
 17 18  2  0
 17 19  1  0
 19 20  1  0
 20 21  1  0
 21 22  2  0
 21 25  1  0
 22 23  1  0
 23 24  1  0
 24 25  2  0
 25 26  1  0
M  END
