
     RDKit          3D

 27 29  0  0  0  0  0  0  0  0999 V2000
    1.9160    1.3280    1.5160 O   0  0  0  0  0  0  0  0  0  0  0  0
    1.9030    0.0830    1.5700 C   0  0  0  0  0  0  0  0  0  0  0  0
    0.9070   -0.6250    2.4560 C   0  0  0  0  0  0  0  0  0  0  0  0
    0.0380    0.3610    3.1750 C   0  0  0  0  0  0  0  0  0  0  0  0
   -0.7280    1.2120    2.3130 N   0  0  0  0  0  0  0  0  0  0  0  0
   -1.6780    0.6840    1.3840 C   0  0  0  0  0  0  0  0  0  0  0  0
   -1.7880   -0.5690    1.3830 O   0  0  0  0  0  0  0  0  0  0  0  0
   -2.4380    1.5240    0.5280 N   0  0  0  0  0  0  0  0  0  0  0  0
   -3.3970    0.9740   -0.4020 C   0  0  0  0  0  0  0  0  0  0  0  0
   -4.4960    0.1980    0.2790 C   0  0  0  0  0  0  0  0  0  0  0  0
   -5.4660   -0.3550   -0.6850 C   0  0  0  0  0  0  0  0  0  0  0  0
   -5.7390   -1.6340   -0.8440 C   0  0  0  0  0  0  0  0  0  0  0  0
   -5.0500   -3.0090    0.0170 Cl  0  0  0  0  0  0  0  0  0  0  0  0
   -6.7570   -1.7800   -1.8990 C   0  0  0  0  0  0  0  0  0  0  0  0
   -7.0270   -0.3980   -2.3200 C   0  0  0  0  0  0  0  0  0  0  0  0
   -6.2790    0.4350   -1.6170 C   0  0  0  0  0  0  0  0  0  0  0  0
   -6.3110    2.1730   -1.8240 Cl  0  0  0  0  0  0  0  0  0  0  0  0
    2.8300   -0.6490    0.7920 N   0  0  0  0  0  0  0  0  0  0  0  0
    3.8100   -0.1230   -0.0760 C   0  0  0  0  0  0  0  0  0  0  0  0
    3.9920    1.1830   -0.4120 C   0  0  0  0  0  0  0  0  0  0  0  0
    5.0000    1.5920   -1.2760 C   0  0  0  0  0  0  0  0  0  0  0  0
    5.8630    0.6730   -1.8300 C   0  0  0  0  0  0  0  0  0  0  0  0
    6.9380    0.7440   -2.6980 C   0  0  0  0  0  0  0  0  0  0  0  0
    7.3890   -0.5600   -2.8680 C   0  0  0  0  0  0  0  0  0  0  0  0
    6.6400   -1.4000   -2.1470 N   0  0  0  0  0  0  0  0  0  0  0  0
    5.7100   -0.6550   -1.5140 C   0  0  0  0  0  0  0  0  0  0  0  0
    4.7130   -1.0210   -0.6660 C   0  0  0  0  0  0  0  0  0  0  0  0
  1  2  2  0
  2  3  1  0
  2 18  1  0
  3  4  1  0
  4  5  1  0
  5  6  1  0
  6  7  2  0
  6  8  1  0
  8  9  1  0
  9 10  1  0
 10 11  1  0
 11 12  2  0
 11 16  1  0
 12 13  1  0
 12 14  1  0
 14 15  1  0
 15 16  2  0
 16 17  1  0
 18 19  1  0
 19 20  2  0
 19 27  1  0
 20 21  1  0
 21 22  2  0
 22 23  1  0
 22 26  1  0
 23 24  2  0
 24 25  1  0
 25 26  1  0
 26 27  2  0
M  END
