
     RDKit          3D

 27 29  0  0  0  0  0  0  0  0999 V2000
   -1.4280   -3.5220    1.2450 C   0  0  0  0  0  0  0  0  0  0  0  0
   -1.2140   -2.1180    0.7710 C   0  0  0  0  0  0  0  0  0  0  0  0
    0.0930   -1.7210    0.5080 C   0  0  0  0  0  0  0  0  0  0  0  0
    0.3770   -0.4600    0.0720 C   0  0  0  0  0  0  0  0  0  0  0  0
    1.6830    0.0340   -0.2160 N   0  0  0  0  0  0  0  0  0  0  0  0
    2.8840   -0.6910   -0.1140 C   0  0  0  0  0  0  0  0  0  0  0  0
    2.8910   -1.8830    0.2550 O   0  0  0  0  0  0  0  0  0  0  0  0
    4.1770   -0.0480   -0.4440 C   0  0  0  0  0  0  0  0  0  0  0  0
    5.3180   -0.8240   -0.2990 C   0  0  0  0  0  0  0  0  0  0  0  0
    6.5460   -0.3070   -0.5800 C   0  0  0  0  0  0  0  0  0  0  0  0
    6.6610    0.9870   -1.0080 C   0  0  0  0  0  0  0  0  0  0  0  0
    5.4910    1.7220   -1.1370 C   0  0  0  0  0  0  0  0  0  0  0  0
    5.6120    2.9200   -1.5350 O   0  0  0  0  0  0  0  0  0  0  0  0
    4.2870    1.2060   -0.8590 N   0  0  0  0  0  0  0  0  0  0  0  0
   -0.7120    0.4060   -0.0960 C   0  0  0  0  0  0  0  0  0  0  0  0
   -0.4210    1.7190   -0.5510 N   0  0  0  0  0  0  0  0  0  0  0  0
   -1.9890   -0.0110    0.1690 C   0  0  0  0  0  0  0  0  0  0  0  0
   -3.0770    0.9460   -0.0310 C   0  0  0  0  0  0  0  0  0  0  0  0
   -3.4780    1.7690    0.9490 N   0  0  0  0  0  0  0  0  0  0  0  0
   -4.4620    2.6620    0.8310 C   0  0  0  0  0  0  0  0  0  0  0  0
   -5.0940    2.7250   -0.3910 C   0  0  0  0  0  0  0  0  0  0  0  0
   -4.7200    1.9030   -1.4280 C   0  0  0  0  0  0  0  0  0  0  0  0
   -3.6980    0.9960   -1.2570 C   0  0  0  0  0  0  0  0  0  0  0  0
   -3.2010   -0.0690   -2.5710 Cl  0  0  0  0  0  0  0  0  0  0  0  0
   -2.2810   -1.2860    0.6110 C   0  0  0  0  0  0  0  0  0  0  0  0
   -3.6400   -1.7580    0.9050 C   0  0  0  0  0  0  0  0  0  0  0  0
   -3.9470   -1.8310    2.6540 Cl  0  0  0  0  0  0  0  0  0  0  0  0
  1  2  1  0
  2  3  2  0
  2 25  1  0
  3  4  1  0
  4  5  1  0
  4 15  2  0
  5  6  1  0
  6  7  2  0
  6  8  1  0
  8  9  2  0
  8 14  1  0
  9 10  1  0
 10 11  2  0
 11 12  1  0
 12 13  2  0
 12 14  1  0
 15 16  1  0
 15 17  1  0
 17 18  1  0
 17 25  2  0
 18 19  2  0
 18 23  1  0
 19 20  1  0
 20 21  2  0
 21 22  1  0
 22 23  2  0
 23 24  1  0
 25 26  1  0
 26 27  1  0
M  END
