
     RDKit          3D

 19 20  0  0  0  0  0  0  0  0999 V2000
   -3.1900   -1.4220    1.2930 C   0  0  0  0  0  0  0  0  0  0  0  0
   -2.3900   -1.1130    0.0260 C   0  0  1  0  0  0  0  0  0  0  0  0
   -3.1960   -0.3660   -0.8810 N   0  0  0  0  0  0  0  0  0  0  0  0
   -3.3310    1.0160   -0.6660 C   0  0  0  0  0  0  0  0  0  0  0  0
   -4.4690    1.7370   -1.1630 N   0  0  0  0  0  0  0  0  0  0  0  0
   -2.4180    1.6080   -0.0200 N   0  0  0  0  0  0  0  0  0  0  0  0
   -1.2190    1.0390    0.5430 C   0  0  0  0  0  0  0  0  0  0  0  0
   -1.0730   -0.4410    0.3900 C   0  0  2  0  0  0  0  0  0  0  0  0
   -0.0870   -0.8580   -0.6410 C   0  0  2  0  0  0  0  0  0  0  0  0
   -0.0400   -2.2870   -0.5670 O   0  0  0  0  0  0  0  0  0  0  0  0
    1.3260   -0.4730   -0.3970 C   0  0  0  0  0  0  0  0  0  0  0  0
    1.6920    0.0910    0.7280 C   0  0  0  0  0  0  0  0  0  0  0  0
    3.0800    0.4930    1.0150 C   0  0  2  0  0  0  0  0  0  0  0  0
    3.0960    1.8870    1.1190 O   0  0  0  0  0  0  0  0  0  0  0  0
    3.5100    2.2890    2.2890 O   0  0  0  0  0  0  0  0  0  0  0  0
    3.9360    0.1130   -0.0710 N   0  0  0  0  0  0  0  0  0  0  0  0
    3.5570   -0.4890   -1.2780 C   0  0  0  0  0  0  0  0  0  0  0  0
    4.5540   -0.7700   -2.2830 N   0  0  0  0  0  0  0  0  0  0  0  0
    2.2920   -0.7880   -1.4690 C   0  0  0  0  0  0  0  0  0  0  0  0
  2  1  1  1
  2  3  1  0
  2  8  1  0
  3  4  1  0
  4  5  1  0
  4  6  2  0
  6  7  1  0
  8  7  1  6
  8  9  1  0
  9 10  1  1
  9 11  1  0
 11 12  2  0
 11 19  1  0
 12 13  1  0
 13 14  1  6
 13 16  1  0
 14 15  1  0
 16 17  1  0
 17 18  1  0
 17 19  2  0
M  CHG  1   6   1
M  END
