
     RDKit          3D

 12 11  0  0  0  0  0  0  0  0999 V2000
    3.3470    0.8030   -0.8380 C   0  0  0  0  0  0  0  0  0  0  0  0
    2.3750    0.3080   -1.6440 O   0  0  0  0  0  0  0  0  0  0  0  0
    1.7200   -0.8150   -1.2830 C   0  0  0  0  0  0  0  0  0  0  0  0
    0.9630   -0.7530    0.0110 C   0  0  1  0  0  0  0  0  0  0  0  0
    1.8430   -0.5400    1.0550 O   0  0  0  0  0  0  0  0  0  0  0  0
    0.0690    0.2880   -0.0800 O   0  0  0  0  0  0  0  0  0  0  0  0
   -1.2430   -0.0330    0.0330 C   0  0  2  0  0  0  0  0  0  0  0  0
   -2.0590    0.2240   -1.2180 C   0  0  0  0  0  0  0  0  0  0  0  0
   -2.0500    1.5400   -1.6080 O   0  0  0  0  0  0  0  0  0  0  0  0
   -1.9570    0.5680    1.2100 C   0  0  1  0  0  0  0  0  0  0  0  0
   -3.2860    0.1210    1.1500 O   0  0  0  0  0  0  0  0  0  0  0  0
   -1.3910    0.0370    2.3690 O   0  0  0  0  0  0  0  0  0  0  0  0
  1  2  1  0
  2  3  1  0
  3  4  1  0
  4  5  1  1
  4  6  1  0
  6  7  1  0
  7  8  1  6
  7 10  1  0
  8  9  1  0
 10 11  1  6
 10 12  1  0
M  END
