
     RDKit          3D

 11 11  0  0  0  0  0  0  0  0999 V2000
   -1.7000    2.1610   -0.3780 O   0  0  0  0  0  0  0  0  0  0  0  0
   -1.1140    1.4460    0.6600 C   0  0  0  0  0  0  0  0  0  0  0  0
   -0.4120    0.1950    0.1580 C   0  0  1  0  0  0  0  0  0  0  0  0
   -1.4810   -0.7060   -0.4500 C   0  0  1  0  0  0  0  0  0  0  0  0
   -0.9390   -1.9130   -0.8750 O   0  0  0  0  0  0  0  0  0  0  0  0
   -2.3890   -1.0270    0.5790 O   0  0  0  0  0  0  0  0  0  0  0  0
    0.5670    0.6360   -0.8970 C   0  0  0  0  0  0  0  0  0  0  0  0
    1.4270   -0.4110   -1.1450 O   0  0  0  0  0  0  0  0  0  0  0  0
    2.2100   -0.6020   -0.0170 C   0  0  0  0  0  0  0  0  0  0  0  0
    1.4650   -0.6250    1.2600 C   0  0  0  0  0  0  0  0  0  0  0  0
    0.1320   -0.4460    1.2180 O   0  0  0  0  0  0  0  0  0  0  0  0
  1  2  1  0
  3  2  1  1
  3  4  1  0
  3  7  1  0
  3 11  1  0
  4  5  1  1
  4  6  1  0
  7  8  1  0
  8  9  1  0
  9 10  1  0
 10 11  1  0
M  END
