
     RDKit          3D

 12 11  0  0  0  0  0  0  0  0999 V2000
   -2.0030    1.2020    1.2350 O   0  0  0  0  0  0  0  0  0  0  0  0
   -2.7500    0.7460    0.1780 C   0  0  0  0  0  0  0  0  0  0  0  0
   -2.2740   -0.5540   -0.3900 C   0  0  1  0  0  0  0  0  0  0  0  0
   -3.1090   -0.9100   -1.4500 O   0  0  0  0  0  0  0  0  0  0  0  0
   -0.9610   -0.4320   -0.8050 O   0  0  0  0  0  0  0  0  0  0  0  0
   -0.1700   -1.3460   -0.1340 C   0  0  1  0  0  0  0  0  0  0  0  0
    0.4150   -2.1710   -1.0900 O   0  0  0  0  0  0  0  0  0  0  0  0
    0.8920   -0.6760    0.7120 C   0  0  0  0  0  0  0  0  0  0  0  0
    1.8210    0.1720   -0.1290 C   0  0  1  0  0  0  0  0  0  0  0  0
    1.0470    1.1470   -0.7580 O   0  0  0  0  0  0  0  0  0  0  0  0
    2.8070    0.8450    0.7960 C   0  0  0  0  0  0  0  0  0  0  0  0
    3.6610    1.7050    0.1460 O   0  0  0  0  0  0  0  0  0  0  0  0
  1  2  1  0
  2  3  1  0
  3  4  1  6
  3  5  1  0
  5  6  1  0
  6  7  1  6
  6  8  1  0
  8  9  1  0
  9 10  1  1
  9 11  1  0
 11 12  1  0
M  END
