
     RDKit          3D

 12 11  0  0  0  0  0  0  0  0999 V2000
   -3.5700    0.6140    0.5520 O   0  0  0  0  0  0  0  0  0  0  0  0
   -3.4990   -0.6220   -0.0510 C   0  0  0  0  0  0  0  0  0  0  0  0
   -2.2970   -1.2470    0.2690 O   0  0  0  0  0  0  0  0  0  0  0  0
   -1.1960   -0.4960   -0.1570 C   0  0  2  0  0  0  0  0  0  0  0  0
   -0.4500   -1.1960   -1.0980 O   0  0  0  0  0  0  0  0  0  0  0  0
   -0.4430   -0.1090    1.0720 C   0  0  1  0  0  0  0  0  0  0  0  0
    0.0110   -1.2470    1.7440 O   0  0  0  0  0  0  0  0  0  0  0  0
    0.6630    0.8550    0.8660 C   0  0  0  0  0  0  0  0  0  0  0  0
    1.7130    0.3280   -0.0700 C   0  0  2  0  0  0  0  0  0  0  0  0
    2.2310   -0.8490    0.4680 O   0  0  0  0  0  0  0  0  0  0  0  0
    2.8620    1.3500   -0.1060 C   0  0  0  0  0  0  0  0  0  0  0  0
    3.8710    0.8160   -0.9110 O   0  0  0  0  0  0  0  0  0  0  0  0
  1  2  1  0
  2  3  1  0
  3  4  1  0
  4  5  1  6
  4  6  1  0
  6  7  1  6
  6  8  1  0
  8  9  1  0
  9 10  1  1
  9 11  1  0
 11 12  1  0
M  END
