
     RDKit          3D

 11 11  0  0  0  0  0  0  0  0999 V2000
   -2.2220    0.2560   -0.1260 C   0  0  0  0  0  0  0  0  0  0  0  0
   -0.9040   -0.1780    0.4330 C   0  0  2  0  0  0  0  0  0  0  0  0
   -1.1650   -0.7390    1.7040 O   0  0  0  0  0  0  0  0  0  0  0  0
   -0.0340    1.0300    0.6040 C   0  0  0  0  0  0  0  0  0  0  0  0
    1.2460    0.8770   -0.1640 C   0  0  2  0  0  0  0  0  0  0  0  0
    1.0590    1.2270   -1.5080 O   0  0  0  0  0  0  0  0  0  0  0  0
    1.8720   -0.4700   -0.0200 C   0  0  1  0  0  0  0  0  0  0  0  0
    2.6020   -0.5080    1.1840 O   0  0  0  0  0  0  0  0  0  0  0  0
    1.0200   -1.5230   -0.0290 O   0  0  0  0  0  0  0  0  0  0  0  0
   -0.2710   -1.2660   -0.3880 C   0  0  2  0  0  0  0  0  0  0  0  0
   -0.4180   -1.0560   -1.7640 O   0  0  0  0  0  0  0  0  0  0  0  0
  2  1  1  6
  2  3  1  0
  2  4  1  0
  2 10  1  0
  4  5  1  0
  5  6  1  6
  5  7  1  0
  7  8  1  1
  7  9  1  0
  9 10  1  0
 10 11  1  6
M  END
