
     RDKit          3D

 29 32  0  0  0  0  0  0  0  0999 V2000
    8.4950   -0.9800    0.9110 N   0  0  0  0  0  0  0  0  0  0  0  0
    7.4180   -0.3320    0.1050 C   0  0  0  0  0  0  0  0  0  0  0  0
    7.3890   -1.0720   -1.1860 C   0  0  0  0  0  0  0  0  0  0  0  0
    6.5680   -0.7660   -2.1580 O   0  0  0  0  0  0  0  0  0  0  0  0
    5.2600   -0.7610   -2.2400 C   0  0  0  0  0  0  0  0  0  0  0  0
    4.5380    0.1710   -1.3280 C   0  0  2  0  0  0  0  0  0  0  0  0
    3.0120    0.1360   -1.6850 C   0  0  0  0  0  0  0  0  0  0  0  0
    2.3770    1.0880   -0.8040 N   0  0  0  0  0  0  0  0  0  0  0  0
    1.0310    0.9150   -0.4400 C   0  0  0  0  0  0  0  0  0  0  0  0
   -0.0230    0.9370   -1.3350 C   0  0  0  0  0  0  0  0  0  0  0  0
   -1.3180    0.7500   -0.9070 C   0  0  0  0  0  0  0  0  0  0  0  0
   -1.6060    0.5320    0.4500 C   0  0  0  0  0  0  0  0  0  0  0  0
   -3.0000    0.3320    0.8640 C   0  0  0  0  0  0  0  0  0  0  0  0
   -3.3390    0.1070    2.1700 C   0  0  0  0  0  0  0  0  0  0  0  0
   -4.6770   -0.0880    2.5500 C   0  0  0  0  0  0  0  0  0  0  0  0
   -5.6610   -0.0510    1.5860 C   0  0  0  0  0  0  0  0  0  0  0  0
   -5.2920    0.1770    0.2780 C   0  0  0  0  0  0  0  0  0  0  0  0
   -3.9990    0.3590   -0.0480 N   0  0  0  0  0  0  0  0  0  0  0  0
   -6.1990    0.2510   -0.8850 C   0  0  0  0  0  0  0  0  0  0  0  0
   -7.1020   -0.9530   -0.9850 C   0  0  0  0  0  0  0  0  0  0  0  0
   -8.1680   -0.9520    0.0840 C   0  0  0  0  0  0  0  0  0  0  0  0
   -7.6610   -1.4650    1.3960 C   0  0  0  0  0  0  0  0  0  0  0  0
   -7.0430   -0.2770    2.1410 C   0  0  0  0  0  0  0  0  0  0  0  0
   -0.5410    0.5170    1.3050 C   0  0  0  0  0  0  0  0  0  0  0  0
    0.7580    0.7020    0.8950 C   0  0  0  0  0  0  0  0  0  0  0  0
    3.1050    2.1920   -0.3020 C   0  0  0  0  0  0  0  0  0  0  0  0
    2.5720    3.2000    0.2260 O   0  0  0  0  0  0  0  0  0  0  0  0
    4.6130    2.2100   -0.3800 C   0  0  0  0  0  0  0  0  0  0  0  0
    4.9520    1.4880   -1.5150 O   0  0  0  0  0  0  0  0  0  0  0  0
  1  2  1  0
  2  3  1  0
  3  4  1  0
  4  5  1  0
  6  5  1  6
  6  7  1  0
  6 29  1  0
  7  8  1  0
  8  9  1  0
  8 26  1  0
  9 10  2  0
  9 25  1  0
 10 11  1  0
 11 12  2  0
 12 13  1  0
 12 24  1  0
 13 14  2  0
 13 18  1  0
 14 15  1  0
 15 16  2  0
 16 17  1  0
 16 23  1  0
 17 18  2  0
 17 19  1  0
 19 20  1  0
 20 21  1  0
 21 22  1  0
 22 23  1  0
 24 25  2  0
 26 27  2  0
 26 28  1  0
 28 29  1  0
M  CHG  1   1   1
M  END
