
     RDKit          3D

 30 33  0  0  0  0  0  0  0  0999 V2000
   -3.9140    0.9660   -2.0420 C   0  0  0  0  0  0  0  0  0  0  0  0
   -4.8700    0.8620   -1.1440 C   0  0  0  0  0  0  0  0  0  0  0  0
   -4.8970   -0.2830   -0.2640 C   0  0  0  0  0  0  0  0  0  0  0  0
   -3.8740   -0.6530    0.4480 C   0  0  0  0  0  0  0  0  0  0  0  0
   -2.6090    0.0020    0.4710 C   0  0  0  0  0  0  0  0  0  0  0  0
   -1.6310   -0.4770    1.2330 C   0  0  0  0  0  0  0  0  0  0  0  0
   -1.8090   -1.6890    2.0770 C   0  0  0  0  0  0  0  0  0  0  0  0
   -0.6530   -1.7150    3.0510 C   0  0  0  0  0  0  0  0  0  0  0  0
    0.6900   -1.7390    2.3670 C   0  0  0  0  0  0  0  0  0  0  0  0
    0.7300   -0.9350    1.0990 C   0  0  1  0  0  0  0  0  0  0  0  0
    0.2880   -1.7540   -0.0730 C   0  0  0  0  0  0  0  0  0  0  0  0
   -0.3200    0.1750    1.2770 C   0  0  1  0  0  0  0  0  0  0  0  0
   -0.0190    1.0740    0.1360 C   0  0  0  0  0  0  0  0  0  0  0  0
    1.4770    0.9960   -0.0170 C   0  0  0  0  0  0  0  0  0  0  0  0
    1.9490   -0.1370    0.8900 C   0  0  2  0  0  0  0  0  0  0  0  0
    3.0930   -0.8030    0.2320 C   0  0  2  0  0  0  0  0  0  0  0  0
    3.5680   -2.0020    1.0260 C   0  0  0  0  0  0  0  0  0  0  0  0
    4.2450    0.1760    0.2270 C   0  0  0  0  0  0  0  0  0  0  0  0
    4.8200    0.5890   -0.8830 C   0  0  0  0  0  0  0  0  0  0  0  0
    5.9530    1.5540   -0.8780 C   0  0  1  0  0  0  0  0  0  0  0  0
    6.3930    1.6980    0.4270 O   0  0  0  0  0  0  0  0  0  0  0  0
    7.0400    1.0960   -1.8210 C   0  0  1  0  0  0  0  0  0  0  0  0
    8.2810    1.9680   -1.9420 C   0  0  0  0  0  0  0  0  0  0  0  0
    8.3320    0.7080   -1.1260 C   0  0  0  0  0  0  0  0  0  0  0  0
   -6.2110   -1.0520   -0.1690 C   0  0  0  0  0  0  0  0  0  0  0  0
   -7.3580   -0.1260   -0.4800 C   0  0  1  0  0  0  0  0  0  0  0  0
   -8.4570   -0.4770    0.3140 O   0  0  0  0  0  0  0  0  0  0  0  0
   -7.0340    1.3130   -0.1630 C   0  0  0  0  0  0  0  0  0  0  0  0
   -5.9520    1.8850   -1.0120 C   0  0  2  0  0  0  0  0  0  0  0  0
   -6.3600    2.2200   -2.2970 O   0  0  0  0  0  0  0  0  0  0  0  0
  1  2  2  0
  2  3  1  0
  2 29  1  0
  3  4  2  3
  3 25  1  0
  4  5  1  0
  5  6  2  3
  6  7  1  0
  6 12  1  0
  7  8  1  0
  8  9  1  0
  9 10  1  0
 10 11  1  6
 10 12  1  0
 10 15  1  0
 12 13  1  6
 13 14  1  0
 15 14  1  6
 15 16  1  0
 16 17  1  1
 16 18  1  0
 18 19  2  3
 19 20  1  0
 20 21  1  1
 20 22  1  0
 22 23  1  6
 22 24  1  0
 23 24  1  0
 25 26  1  0
 26 27  1  1
 26 28  1  0
 28 29  1  0
 29 30  1  6
M  END
