
     RDKit          3D

 30 33  0  0  0  0  0  0  0  0999 V2000
   -1.2700    2.5860    1.1350 C   0  0  0  0  0  0  0  0  0  0  0  0
   -0.6800    1.4350    0.6960 O   0  0  0  0  0  0  0  0  0  0  0  0
   -1.2370    0.3280    0.1090 C   0  0  0  0  0  0  0  0  0  0  0  0
   -0.5260   -0.5720   -0.5930 C   0  0  0  0  0  0  0  0  0  0  0  0
    0.8900   -0.4700   -0.8040 N   0  0  0  0  0  0  0  0  0  0  0  0
    1.4140    0.5560   -1.6060 C   0  0  0  0  0  0  0  0  0  0  0  0
    0.4300    1.6350   -2.3000 S   0  0  0  0  0  0  0  0  0  0  0  0
    2.7620    0.6420   -1.8010 O   0  0  0  0  0  0  0  0  0  0  0  0
    3.6610    1.3650   -1.0570 C   0  0  0  0  0  0  0  0  0  0  0  0
    3.5680    2.6620   -0.8340 C   0  0  0  0  0  0  0  0  0  0  0  0
    4.5300    3.4330   -0.0370 C   0  0  0  0  0  0  0  0  0  0  0  0
    5.6010    2.7240    0.4850 O   0  0  0  0  0  0  0  0  0  0  0  0
    5.7630    1.3710    0.3030 C   0  0  0  0  0  0  0  0  0  0  0  0
    6.8400    0.6840    0.8560 C   0  0  0  0  0  0  0  0  0  0  0  0
    6.9220   -0.6630    0.6260 C   0  0  0  0  0  0  0  0  0  0  0  0
    5.9920   -1.3570   -0.1240 C   0  0  0  0  0  0  0  0  0  0  0  0
    6.0650   -2.7610   -0.3620 N   0  0  0  0  0  0  0  0  0  0  0  0
    4.9450   -0.6770   -0.6590 C   0  0  0  0  0  0  0  0  0  0  0  0
    4.8140    0.6960   -0.4550 C   0  0  0  0  0  0  0  0  0  0  0  0
   -1.3360   -1.6660   -1.1110 C   0  0  0  0  0  0  0  0  0  0  0  0
   -2.6660   -1.5390   -0.4150 C   0  0  1  0  0  0  0  0  0  0  0  0
   -2.8770   -2.4700    0.5630 O   0  0  0  0  0  0  0  0  0  0  0  0
   -2.6090   -0.1250    0.0920 C   0  0  0  0  0  0  0  0  0  0  0  0
   -3.6730    0.5830    0.4250 C   0  0  0  0  0  0  0  0  0  0  0  0
   -5.0010   -0.0130    0.3640 C   0  0  0  0  0  0  0  0  0  0  0  0
   -6.1590    0.5130    0.9680 C   0  0  0  0  0  0  0  0  0  0  0  0
   -7.1960   -0.3400    0.6840 C   0  0  0  0  0  0  0  0  0  0  0  0
   -6.6610   -1.3580   -0.0760 C   0  0  0  0  0  0  0  0  0  0  0  0
   -7.4530   -2.5260   -0.6090 C   0  0  0  0  0  0  0  0  0  0  0  0
   -5.4080   -1.1060   -0.2190 O   0  0  0  0  0  0  0  0  0  0  0  0
  1  2  1  0
  2  3  1  0
  3  4  2  0
  3 23  1  0
  4  5  1  0
  4 20  1  0
  5  6  1  0
  6  7  2  0
  6  8  1  0
  8  9  1  0
  9 10  2  0
  9 19  1  0
 10 11  1  0
 11 12  1  0
 12 13  1  0
 13 14  2  0
 13 19  1  0
 14 15  1  0
 15 16  2  0
 16 17  1  0
 16 18  1  0
 18 19  2  0
 20 21  1  0
 21 22  1  1
 21 23  1  0
 23 24  2  3
 24 25  1  0
 25 26  2  0
 25 30  1  0
 26 27  1  0
 27 28  2  0
 28 29  1  0
 28 30  1  0
M  END
