
     RDKit          3D

 30 32  0  0  0  0  0  0  0  0999 V2000
   10.0930   -0.7600   -0.5810 C   0  0  0  0  0  0  0  0  0  0  0  0
    8.6870   -0.6080   -0.1410 C   0  0  0  0  0  0  0  0  0  0  0  0
    7.7420   -0.2320   -0.9130 N   0  0  0  0  0  0  0  0  0  0  0  0
    6.4140   -0.1020   -0.4420 C   0  0  0  0  0  0  0  0  0  0  0  0
    5.3460   -0.3820   -1.2570 C   0  0  0  0  0  0  0  0  0  0  0  0
    4.0270   -0.2580   -0.8050 C   0  0  0  0  0  0  0  0  0  0  0  0
    3.8330    0.1530    0.4850 C   0  0  0  0  0  0  0  0  0  0  0  0
    2.5390    0.3060    1.0280 N   0  0  0  0  0  0  0  0  0  0  0  0
    1.3240    0.0720    0.3730 C   0  0  0  0  0  0  0  0  0  0  0  0
    1.2680   -0.3130   -0.8090 O   0  0  0  0  0  0  0  0  0  0  0  0
    0.0560    0.2580    1.0180 N   0  0  0  0  0  0  0  0  0  0  0  0
   -1.1560    0.0050    0.3090 C   0  0  0  0  0  0  0  0  0  0  0  0
   -2.0330    1.0020    0.1490 C   0  0  0  0  0  0  0  0  0  0  0  0
   -3.3050    0.7960   -0.5660 C   0  0  1  0  0  0  0  0  0  0  0  0
   -3.3700   -0.5060   -1.2510 C   0  0  0  0  0  0  0  0  0  0  0  0
   -4.2190   -0.9850   -2.1610 C   0  0  0  0  0  0  0  0  0  0  0  0
   -5.4360   -0.4610   -2.8790 C   0  0  0  0  0  0  0  0  0  0  0  0
   -6.6680   -0.5600   -1.9890 C   0  0  0  0  0  0  0  0  0  0  0  0
   -6.1730   -0.9030   -0.6330 C   0  0  0  0  0  0  0  0  0  0  0  0
   -5.3520   -0.3160    0.2210 C   0  0  0  0  0  0  0  0  0  0  0  0
   -4.5220    0.9450    0.2800 C   0  0  1  0  0  0  0  0  0  0  0  0
   -4.2700    1.1660    1.7210 C   0  0  0  0  0  0  0  0  0  0  0  0
   -3.1030    1.1020    2.1550 O   0  0  0  0  0  0  0  0  0  0  0  0
   -5.2810    1.4440    2.6260 O   0  0  0  0  0  0  0  0  0  0  0  0
   -5.0440    1.6540    4.0030 C   0  0  0  0  0  0  0  0  0  0  0  0
   -2.3880   -1.5490   -1.0200 C   0  0  0  0  0  0  0  0  0  0  0  0
   -1.3260   -1.3100   -0.2790 C   0  0  0  0  0  0  0  0  0  0  0  0
    4.9290    0.4390    1.3190 C   0  0  0  0  0  0  0  0  0  0  0  0
    4.6460    0.9700    2.9850 Cl  0  0  0  0  0  0  0  0  0  0  0  0
    6.2130    0.3130    0.8610 C   0  0  0  0  0  0  0  0  0  0  0  0
  1  2  1  0
  2  3  2  3
  3  4  1  0
  4  5  2  0
  4 30  1  0
  5  6  1  0
  6  7  2  0
  7  8  1  0
  7 28  1  0
  8  9  1  0
  9 10  2  0
  9 11  1  0
 11 12  1  0
 12 13  2  0
 12 27  1  0
 14 13  1  1
 14 15  1  0
 14 21  1  0
 15 16  2  0
 15 26  1  0
 16 17  1  0
 17 18  1  0
 18 19  1  0
 19 20  2  0
 20 21  1  0
 21 22  1  1
 22 23  2  0
 22 24  1  0
 24 25  1  0
 26 27  2  0
 28 29  1  0
 28 30  2  0
M  CHG  1   3   1
M  END
