
     RDKit          3D

 13 13  0  0  0  0  0  0  0  0999 V2000
   -2.1440   -1.3060    0.7070 C   0  0  0  0  0  0  0  0  0  0  0  0
   -1.6430   -1.0380   -0.6960 C   0  0  1  0  0  0  0  0  0  0  0  0
   -2.2180    0.2640   -1.2160 C   0  0  0  0  0  0  0  0  0  0  0  0
   -1.8140    1.3620   -0.4440 O   0  0  0  0  0  0  0  0  0  0  0  0
   -0.5010    1.4290    0.0030 C   0  0  0  0  0  0  0  0  0  0  0  0
   -0.0560    2.5490    0.5140 C   0  0  0  0  0  0  0  0  0  0  0  0
   -0.8670    3.6800    0.6220 O   0  0  0  0  0  0  0  0  0  0  0  0
    0.3320    0.2680   -0.1070 C   0  0  0  0  0  0  0  0  0  0  0  0
    1.5860    0.1920    0.2750 C   0  0  0  0  0  0  0  0  0  0  0  0
    2.3690   -1.0560    0.1200 C   0  0  1  0  0  0  0  0  0  0  0  0
    3.5030   -0.8920   -0.7670 N   0  0  0  0  0  0  0  0  0  0  0  0
    2.8290   -1.5440    1.3200 O   0  0  0  0  0  0  0  0  0  0  0  0
   -0.2360   -0.8760   -0.6650 O   0  0  0  0  0  0  0  0  0  0  0  0
  2  1  1  1
  2  3  1  0
  2 13  1  0
  3  4  1  0
  4  5  1  0
  5  6  2  3
  5  8  1  0
  6  7  1  0
  8  9  2  3
  8 13  1  0
  9 10  1  0
 10 11  1  6
 10 12  1  0
M  END
