
     RDKit          3D

 14 14  0  0  0  0  0  0  0  0999 V2000
    2.9620    0.5580   -2.2090 O   0  0  0  0  0  0  0  0  0  0  0  0
    1.9070    0.1290   -1.3670 C   0  0  1  0  0  0  0  0  0  0  0  0
    2.0350   -1.3510   -1.2350 C   0  0  0  0  0  0  0  0  0  0  0  0
    0.7710   -2.0380   -1.0100 N   0  0  0  0  0  0  0  0  0  0  0  0
   -0.4180   -1.5370   -0.7190 N   0  0  0  0  0  0  0  0  0  0  0  0
   -1.2900   -0.7090   -0.8070 C   0  0  0  0  0  0  0  0  0  0  0  0
   -2.5800   -0.9000   -0.0110 C   0  0  1  0  0  0  0  0  0  0  0  0
   -2.7560   -2.2500    0.2890 O   0  0  0  0  0  0  0  0  0  0  0  0
   -2.5570   -0.0280    1.2170 C   0  0  0  0  0  0  0  0  0  0  0  0
   -1.2470    0.2810    1.5320 O   0  0  0  0  0  0  0  0  0  0  0  0
   -0.9660    1.6150    1.5910 C   0  0  0  0  0  0  0  0  0  0  0  0
    0.5070    1.8050    1.2960 C   0  0  0  0  0  0  0  0  0  0  0  0
    1.1310    0.6620    0.8650 O   0  0  0  0  0  0  0  0  0  0  0  0
    2.1170    0.8580   -0.0620 C   0  0  0  0  0  0  0  0  0  0  0  0
  2  1  1  6
  2  3  1  0
  2 14  1  0
  3  4  1  0
  4  5  1  0
  5  6  2  0
  6  7  1  0
  7  8  1  1
  7  9  1  0
  9 10  1  0
 10 11  1  0
 11 12  1  0
 12 13  1  0
 13 14  1  0
M  END
