
     RDKit          3D

 14 15  0  0  0  0  0  0  0  0999 V2000
   -3.0540    1.0050    0.7170 N   0  0  0  0  0  0  0  0  0  0  0  0
   -2.0380   -0.0170    0.8880 C   0  0  0  0  0  0  0  0  0  0  0  0
   -1.0880    0.0150   -0.2890 C   0  0  2  0  0  0  0  0  0  0  0  0
   -1.8350   -0.2410   -1.5820 C   0  0  0  0  0  0  0  0  0  0  0  0
   -2.4220   -1.5060   -1.5550 O   0  0  0  0  0  0  0  0  0  0  0  0
    0.0350   -0.9890   -0.1260 C   0  0  0  0  0  0  0  0  0  0  0  0
    1.2390   -0.0990   -0.1930 C   0  0  1  0  0  0  0  0  0  0  0  0
    2.4380   -0.6010    0.5120 C   0  0  0  0  0  0  0  0  0  0  0  0
    3.5280    0.0230   -0.2110 N   0  0  0  0  0  0  0  0  0  0  0  0
    2.9930    0.4870   -1.4430 C   0  0  0  0  0  0  0  0  0  0  0  0
    3.5750    1.0870   -2.3970 O   0  0  0  0  0  0  0  0  0  0  0  0
    1.6290    0.1820   -1.4980 O   0  0  0  0  0  0  0  0  0  0  0  0
    0.6550    1.1660    0.4390 C   0  0  0  0  0  0  0  0  0  0  0  0
   -0.5090    1.2690   -0.3230 O   0  0  0  0  0  0  0  0  0  0  0  0
  1  2  1  0
  3  2  1  1
  3  4  1  0
  3  6  1  0
  3 14  1  0
  4  5  1  0
  7  6  1  6
  7  8  1  0
  7 12  1  0
  7 13  1  0
  8  9  1  0
  9 10  1  0
 10 11  2  0
 10 12  1  0
 13 14  1  0
M  END
