
     RDKit          3D

 28 31  0  0  0  0  0  0  0  0999 V2000
    5.0350    1.8380   -1.3180 C   0  0  0  0  0  0  0  0  0  0  0  0
    3.8910    0.8840   -1.0860 C   0  0  0  0  0  0  0  0  0  0  0  0
    2.8970    1.1630   -0.2790 C   0  0  0  0  0  0  0  0  0  0  0  0
    2.9500    2.5010    0.4160 C   0  0  0  0  0  0  0  0  0  0  0  0
    1.7810    0.2320   -0.0250 C   0  0  0  0  0  0  0  0  0  0  0  0
    1.8880   -1.0470   -0.6880 N   0  0  0  0  0  0  0  0  0  0  0  0
    2.9210   -1.7990   -0.0820 C   0  0  0  0  0  0  0  0  0  0  0  0
    2.5600   -2.9600    0.7670 C   0  0  0  0  0  0  0  0  0  0  0  0
    1.2430   -2.7570    1.4190 C   0  0  0  0  0  0  0  0  0  0  0  0
    0.2960   -2.1660    0.7160 C   0  0  0  0  0  0  0  0  0  0  0  0
    0.5970   -1.7300   -0.6890 C   0  0  0  0  0  0  0  0  0  0  0  0
   -0.9100   -2.0500    1.4900 C   0  0  0  0  0  0  0  0  0  0  0  0
   -2.0820   -1.5720    1.2340 N   0  0  0  0  0  0  0  0  0  0  0  0
   -2.4480   -1.0170    0.0300 N   0  0  0  0  0  0  0  0  0  0  0  0
   -2.8450   -1.9070   -1.0560 C   0  0  0  0  0  0  0  0  0  0  0  0
   -4.1860   -1.4130   -1.5990 C   0  0  0  0  0  0  0  0  0  0  0  0
   -3.9960   -0.3740   -2.6670 C   0  0  0  0  0  0  0  0  0  0  0  0
   -3.6230    0.9190   -2.1320 N   0  0  0  0  0  0  0  0  0  0  0  0
   -2.9870    1.2660   -1.0740 C   0  0  0  0  0  0  0  0  0  0  0  0
   -2.8420    2.6870   -0.9380 N   0  0  0  0  0  0  0  0  0  0  0  0
   -2.1570    3.1860    0.1980 C   0  0  0  0  0  0  0  0  0  0  0  0
   -1.6430    2.4160    1.1400 C   0  0  0  0  0  0  0  0  0  0  0  0
   -0.9260    3.0050    2.3240 C   0  0  0  0  0  0  0  0  0  0  0  0
   -1.7970    0.9690    0.9900 C   0  0  0  0  0  0  0  0  0  0  0  0
   -2.4150    0.3950   -0.0250 C   0  0  0  0  0  0  0  0  0  0  0  0
   -0.6060   -2.6580    2.8150 C   0  0  0  0  0  0  0  0  0  0  0  0
   -1.4150   -2.7460    3.7730 O   0  0  0  0  0  0  0  0  0  0  0  0
    0.7330   -3.0730    2.7080 N   0  0  0  0  0  0  0  0  0  0  0  0
  1  2  1  0
  2  3  2  3
  3  4  1  0
  3  5  1  0
  5  6  1  0
  6  7  1  0
  6 11  1  0
  7  8  1  0
  8  9  1  0
  9 10  2  0
  9 28  1  0
 10 11  1  0
 10 12  1  0
 12 13  2  3
 12 26  1  0
 13 14  1  0
 14 15  1  0
 14 25  1  0
 15 16  1  0
 16 17  1  0
 17 18  1  0
 18 19  2  0
 19 20  1  0
 19 25  1  0
 20 21  1  0
 21 22  2  0
 22 23  1  0
 22 24  1  0
 24 25  2  0
 26 27  2  0
 26 28  1  0
M  CHG  1  18   1
M  END
