
     RDKit          3D

 14 15  0  0  0  0  0  0  0  0999 V2000
   -3.5830    1.3830    0.6290 O   0  0  0  0  0  0  0  0  0  0  0  0
   -2.5180    1.0590    0.0350 C   0  0  0  0  0  0  0  0  0  0  0  0
   -1.9510    1.9480   -0.9890 C   0  0  0  0  0  0  0  0  0  0  0  0
   -0.5960    2.2320   -0.8370 O   0  0  0  0  0  0  0  0  0  0  0  0
    0.5020    1.4060   -0.5410 C   0  0  0  0  0  0  0  0  0  0  0  0
    1.7710    1.7490   -0.6480 C   0  0  0  0  0  0  0  0  0  0  0  0
    2.6080    0.6670   -0.2660 N   0  0  0  0  0  0  0  0  0  0  0  0
    1.7800   -0.5360   -0.1180 C   0  0  2  0  0  0  0  0  0  0  0  0
    2.0100   -1.4310   -1.1430 O   0  0  0  0  0  0  0  0  0  0  0  0
    0.4360    0.0170   -0.0610 C   0  0  0  0  0  0  0  0  0  0  0  0
   -0.6080   -0.6660    0.3590 C   0  0  0  0  0  0  0  0  0  0  0  0
   -0.3120   -2.0340    0.7660 C   0  0  0  0  0  0  0  0  0  0  0  0
   -0.6200   -2.3110    2.0890 O   0  0  0  0  0  0  0  0  0  0  0  0
   -1.9500   -0.2020    0.4460 N   0  0  0  0  0  0  0  0  0  0  0  0
  1  2  2  0
  2  3  1  0
  2 14  1  0
  3  4  1  0
  4  5  1  0
  5  6  2  0
  5 10  1  0
  6  7  1  0
  7  8  1  0
  8  9  1  6
  8 10  1  0
 10 11  2  0
 11 12  1  0
 11 14  1  0
 12 13  1  0
M  END
