
     RDKit          3D

 14 15  0  0  0  0  0  0  0  0999 V2000
    2.5770   -1.4660    0.4520 O   0  0  0  0  0  0  0  0  0  0  0  0
    1.8210   -0.5210    0.0470 C   0  0  0  0  0  0  0  0  0  0  0  0
    2.2690    0.8040   -0.3620 C   0  0  0  0  0  0  0  0  0  0  0  0
    3.5190    1.2470   -0.3830 C   0  0  0  0  0  0  0  0  0  0  0  0
    4.5420    0.4000    0.0170 O   0  0  0  0  0  0  0  0  0  0  0  0
    1.0770    1.4840   -0.7210 N   0  0  0  0  0  0  0  0  0  0  0  0
    0.0290    0.7620   -0.5830 C   0  0  0  0  0  0  0  0  0  0  0  0
   -1.4380    0.9650   -0.8070 C   0  0  2  0  0  0  0  0  0  0  0  0
   -1.7670    2.2980   -0.9190 O   0  0  0  0  0  0  0  0  0  0  0  0
   -2.1210    0.3290    0.4110 C   0  0  0  0  0  0  0  0  0  0  0  0
   -1.9240   -1.1610    0.2670 C   0  0  2  0  0  0  0  0  0  0  0  0
   -2.5850   -1.8490    1.2910 O   0  0  0  0  0  0  0  0  0  0  0  0
   -0.5080   -1.5830    0.1680 C   0  0  0  0  0  0  0  0  0  0  0  0
    0.4250   -0.5090   -0.1030 N   0  0  0  0  0  0  0  0  0  0  0  0
  1  2  2  0
  2  3  1  0
  2 14  1  0
  3  4  2  3
  3  6  1  0
  4  5  1  0
  6  7  2  0
  7  8  1  0
  7 14  1  0
  8  9  1  1
  8 10  1  0
 10 11  1  0
 11 12  1  1
 11 13  1  0
 13 14  1  0
M  END
