
     RDKit          3D

 14 15  0  0  0  0  0  0  0  0999 V2000
    3.4190   -0.9190    0.4370 N   0  0  0  0  0  0  0  0  0  0  0  0
    2.9580    0.4460    0.3660 C   0  0  0  0  0  0  0  0  0  0  0  0
    3.5350    1.3900    0.7340 O   0  0  0  0  0  0  0  0  0  0  0  0
    1.6130    0.4930   -0.2980 C   0  0  2  0  0  0  0  0  0  0  0  0
    1.0000    1.8620   -0.0030 C   0  0  0  0  0  0  0  0  0  0  0  0
   -0.3700    1.8080    0.3520 O   0  0  0  0  0  0  0  0  0  0  0  0
   -1.1880    0.7030    0.1960 C   0  0  0  0  0  0  0  0  0  0  0  0
   -0.6220   -0.4820    0.1330 C   0  0  0  0  0  0  0  0  0  0  0  0
   -1.5210   -1.6370   -0.0750 C   0  0  0  0  0  0  0  0  0  0  0  0
   -2.5890   -1.4060   -0.9040 O   0  0  0  0  0  0  0  0  0  0  0  0
   -3.3050   -0.2770   -0.6460 C   0  0  0  0  0  0  0  0  0  0  0  0
   -2.6450    0.7930    0.0940 C   0  0  0  0  0  0  0  0  0  0  0  0
   -3.2170    1.7070    0.5650 O   0  0  0  0  0  0  0  0  0  0  0  0
    0.7730   -0.5600    0.2160 N   0  0  0  0  0  0  0  0  0  0  0  0
  1  2  1  0
  2  3  2  0
  4  2  1  1
  4  5  1  0
  4 14  1  0
  5  6  1  0
  6  7  1  0
  7  8  2  0
  7 12  1  0
  8  9  1  0
  8 14  1  0
  9 10  1  0
 10 11  1  0
 11 12  1  0
 12 13  2  0
M  END
