
     RDKit          3D

 25 26  0  0  0  0  0  0  0  0999 V2000
   -0.6550    1.3490    1.7830 O   0  0  0  0  0  0  0  0  0  0  0  0
   -0.1510    0.8360    0.6670 C   0  0  0  0  0  0  0  0  0  0  0  0
    0.5350   -0.3510    0.5620 N   0  0  0  0  0  0  0  0  0  0  0  0
    1.8120   -0.8470    1.0740 C   0  0  2  0  0  0  0  0  0  0  0  0
    2.5150   -1.7490    0.0430 C   0  0  1  0  0  0  0  0  0  0  0  0
    1.7580   -2.8440   -0.2850 O   0  0  0  0  0  0  0  0  0  0  0  0
    2.7840   -0.9390   -1.1920 C   0  0  0  0  0  0  0  0  0  0  0  0
    2.3550   -1.2730   -2.2970 O   0  0  0  0  0  0  0  0  0  0  0  0
    3.5430    0.2130   -1.0340 O   0  0  0  0  0  0  0  0  0  0  0  0
    3.8510    1.0180   -2.0540 O   0  0  0  0  0  0  0  0  0  0  0  0
    4.9470    1.7130   -1.7600 O   0  0  0  0  0  0  0  0  0  0  0  0
    1.3850   -1.7900    2.1920 C   0  0  0  0  0  0  0  0  0  0  0  0
    2.3000   -2.4650    2.7050 O   0  0  0  0  0  0  0  0  0  0  0  0
    0.0430   -1.8320    2.5550 O   0  0  0  0  0  0  0  0  0  0  0  0
   -0.9500   -2.2050    1.7800 O   0  0  0  0  0  0  0  0  0  0  0  0
   -2.2390   -1.8220    1.4910 C   0  0  0  0  0  0  0  0  0  0  0  0
   -3.0600   -2.6810    2.0650 O   0  0  0  0  0  0  0  0  0  0  0  0
   -2.7120   -0.7720    0.7560 N   0  0  0  0  0  0  0  0  0  0  0  0
   -3.4540    0.4290    0.8880 C   0  0  0  0  0  0  0  0  0  0  0  0
   -2.9520    0.9720   -0.4640 C   0  0  1  0  0  0  0  0  0  0  0  0
   -2.0400    2.0660   -0.3300 C   0  0  0  0  0  0  0  0  0  0  0  0
   -0.5400    1.8700   -0.3500 C   0  0  2  0  0  0  0  0  0  0  0  0
   -0.0030    1.8030   -1.5890 O   0  0  0  0  0  0  0  0  0  0  0  0
    0.7820    2.7890   -1.9440 O   0  0  0  0  0  0  0  0  0  0  0  0
   -2.6010   -0.4410   -0.6410 C   0  0  0  0  0  0  0  0  0  0  0  0
  1  2  2  0
  2  3  1  0
  2 22  1  0
  4  3  1  6
  4  5  1  0
  4 12  1  0
  5  6  1  6
  5  7  1  0
  7  8  2  0
  7  9  1  0
  9 10  1  0
 10 11  1  0
 12 13  2  0
 12 14  1  0
 14 15  1  0
 15 16  1  0
 16 17  2  0
 16 18  1  0
 18 19  1  0
 18 25  1  0
 19 20  1  0
 20 21  1  1
 20 25  1  0
 21 22  1  0
 22 23  1  6
 23 24  1  0
M  END
