
     RDKit          3D

 25 25  0  0  0  0  0  0  0  0999 V2000
    1.6860    2.3740    1.8480 O   0  0  0  0  0  0  0  0  0  0  0  0
    2.7090    1.7040    1.4830 C   0  0  0  0  0  0  0  0  0  0  0  0
    2.8700    0.3780    2.1480 C   0  0  0  0  0  0  0  0  0  0  0  0
    3.0980   -0.6440    1.3110 O   0  0  0  0  0  0  0  0  0  0  0  0
    2.6400   -1.8020    0.8090 C   0  0  0  0  0  0  0  0  0  0  0  0
    2.7160   -2.8870    1.4880 O   0  0  0  0  0  0  0  0  0  0  0  0
    2.0260   -2.0470   -0.4600 N   0  0  0  0  0  0  0  0  0  0  0  0
    0.8200   -1.4620   -1.0210 C   0  0  1  0  0  0  0  0  0  0  0  0
   -0.2250   -1.1850   -0.0150 C   0  0  0  0  0  0  0  0  0  0  0  0
   -1.4470   -0.6100   -0.6690 C   0  0  0  0  0  0  0  0  0  0  0  0
   -2.5270   -0.7000    0.2650 O   0  0  0  0  0  0  0  0  0  0  0  0
   -3.5770   -0.2810   -0.4260 C   0  0  0  0  0  0  0  0  0  0  0  0
   -4.9400   -0.3600    0.3010 C   0  0  0  0  0  0  0  0  0  0  0  0
   -5.7260    0.2350   -0.7420 O   0  0  0  0  0  0  0  0  0  0  0  0
   -6.3670    1.2250   -0.1630 O   0  0  0  0  0  0  0  0  0  0  0  0
   -5.7880    1.3080    1.1090 O   0  0  0  0  0  0  0  0  0  0  0  0
   -6.8650    1.5170    1.8860 O   0  0  0  0  0  0  0  0  0  0  0  0
    1.1690   -0.4090   -2.0180 C   0  0  1  0  0  0  0  0  0  0  0  0
    0.8640    0.8710   -1.5560 O   0  0  0  0  0  0  0  0  0  0  0  0
    2.6040   -0.6030   -2.3770 C   0  0  0  0  0  0  0  0  0  0  0  0
    2.8550   -1.6510   -3.0580 O   0  0  0  0  0  0  0  0  0  0  0  0
    3.6070    0.2630   -1.9930 O   0  0  0  0  0  0  0  0  0  0  0  0
    4.1690    0.3500   -0.7640 O   0  0  0  0  0  0  0  0  0  0  0  0
    4.4900    1.6170   -0.3810 C   0  0  0  0  0  0  0  0  0  0  0  0
    3.5690    2.2650    0.5300 N   0  0  0  0  0  0  0  0  0  0  0  0
  1  2  2  0
  2  3  1  0
  2 25  1  0
  3  4  1  0
  4  5  1  0
  5  6  2  0
  5  7  1  0
  7  8  1  0
  8  9  1  1
  8 18  1  0
  9 10  1  0
 10 11  1  0
 11 12  1  0
 12 13  1  0
 13 14  1  0
 14 15  1  0
 15 16  1  0
 16 17  1  0
 18 19  1  1
 18 20  1  0
 20 21  2  0
 20 22  1  0
 22 23  1  0
 23 24  1  0
 24 25  1  0
M  END
