
     RDKit          3D

 25 26  0  0  0  0  0  0  0  0999 V2000
   -3.7960   -2.6400    0.9390 O   0  0  0  0  0  0  0  0  0  0  0  0
   -3.1770   -3.2290    0.0170 C   0  0  0  0  0  0  0  0  0  0  0  0
   -3.6870   -4.4240   -0.4740 O   0  0  0  0  0  0  0  0  0  0  0  0
   -1.9650   -2.6490   -0.4990 N   0  0  0  0  0  0  0  0  0  0  0  0
   -1.4860   -1.4340    0.0330 C   0  0  0  0  0  0  0  0  0  0  0  0
   -2.1580   -0.9160    0.9540 O   0  0  0  0  0  0  0  0  0  0  0  0
   -0.3160   -0.7940   -0.4150 N   0  0  0  0  0  0  0  0  0  0  0  0
    0.4420   -1.3710   -1.5060 C   0  0  0  0  0  0  0  0  0  0  0  0
   -0.1310   -1.8680   -2.4920 O   0  0  0  0  0  0  0  0  0  0  0  0
    1.8320   -1.3620   -1.4370 O   0  0  0  0  0  0  0  0  0  0  0  0
    2.4030   -0.3560   -0.5960 C   0  0  1  0  0  0  0  0  0  0  0  0
    3.1600   -0.8940    0.5680 C   0  0  0  0  0  0  0  0  0  0  0  0
    4.0990    0.1480    0.3320 O   0  0  0  0  0  0  0  0  0  0  0  0
    3.7890    0.0110   -1.0010 C   0  0  0  0  0  0  0  0  0  0  0  0
    4.4100    0.1410   -2.0640 O   0  0  0  0  0  0  0  0  0  0  0  0
    1.5000    0.8070   -0.4000 C   0  0  0  0  0  0  0  0  0  0  0  0
    0.1650    0.4630    0.1790 C   0  0  1  0  0  0  0  0  0  0  0  0
   -0.8790    1.5140   -0.0970 C   0  0  0  0  0  0  0  0  0  0  0  0
   -0.5150    2.7810    0.4300 O   0  0  0  0  0  0  0  0  0  0  0  0
   -1.4060    3.8260    0.2330 C   0  0  0  0  0  0  0  0  0  0  0  0
   -2.4710    3.6310   -0.3830 O   0  0  0  0  0  0  0  0  0  0  0  0
   -1.1710    5.1160    0.6980 O   0  0  0  0  0  0  0  0  0  0  0  0
    0.3260    0.3480    1.6380 C   0  0  0  0  0  0  0  0  0  0  0  0
    0.0870   -0.7220    2.2220 O   0  0  0  0  0  0  0  0  0  0  0  0
    0.7480    1.4410    2.3610 O   0  0  0  0  0  0  0  0  0  0  0  0
  1  2  2  0
  2  3  1  0
  2  4  1  0
  4  5  1  0
  5  6  2  0
  5  7  1  0
  7  8  1  0
  7 17  1  0
  8  9  2  0
  8 10  1  0
 10 11  1  0
 11 12  1  1
 11 14  1  0
 11 16  1  0
 12 13  1  0
 13 14  1  0
 14 15  2  0
 16 17  1  0
 17 18  1  1
 17 23  1  0
 18 19  1  0
 19 20  1  0
 20 21  2  0
 20 22  1  0
 23 24  2  0
 23 25  1  0
M  END
