
     RDKit          3D

 23 25  0  0  0  0  0  0  0  0999 V2000
    2.0330   -0.7250    2.1270 O   0  0  0  0  0  0  0  0  0  0  0  0
    1.8810    0.1960    1.2660 C   0  0  0  0  0  0  0  0  0  0  0  0
    3.0370    1.0410    0.9850 C   0  0  0  0  0  0  0  0  0  0  0  0
    4.0350    0.4220    0.1410 N   0  0  0  0  0  0  0  0  0  0  0  0
    4.2670    0.4940   -1.1690 C   0  0  0  0  0  0  0  0  0  0  0  0
    3.5710    1.2190   -1.9360 O   0  0  0  0  0  0  0  0  0  0  0  0
    5.3050   -0.2770   -1.5260 N   0  0  0  0  0  0  0  0  0  0  0  0
    5.7600   -0.8680   -0.4020 N   0  0  0  0  0  0  0  0  0  0  0  0
    4.9890   -0.4450    0.6130 C   0  0  0  0  0  0  0  0  0  0  0  0
    5.1470   -0.8140    1.8100 O   0  0  0  0  0  0  0  0  0  0  0  0
    0.6250    0.3860    0.6240 N   0  0  0  0  0  0  0  0  0  0  0  0
    0.2320    1.2660   -0.3070 C   0  0  0  0  0  0  0  0  0  0  0  0
   -1.0750    1.0930   -0.5750 N   0  0  0  0  0  0  0  0  0  0  0  0
   -1.5380    0.0900    0.1930 C   0  0  0  0  0  0  0  0  0  0  0  0
   -2.9510   -0.4370    0.2450 C   0  0  2  0  0  0  0  0  0  0  0  0
   -3.1150   -1.2140    1.4140 O   0  0  0  0  0  0  0  0  0  0  0  0
   -3.2650   -1.2970   -0.9180 C   0  0  0  0  0  0  0  0  0  0  0  0
   -4.7570   -1.4360   -1.0930 C   0  0  0  0  0  0  0  0  0  0  0  0
   -5.2010   -0.3430   -1.8360 O   0  0  0  0  0  0  0  0  0  0  0  0
   -4.5570    1.0920   -1.1110 P   0  0  0  0  0  0  0  0  0  0  0  0
   -5.8770    2.1690   -0.7380 O   0  0  0  0  0  0  0  0  0  0  0  0
   -3.8240    0.6320    0.4060 O   0  0  0  0  0  0  0  0  0  0  0  0
   -0.4920   -0.3210    0.9090 N   0  0  0  0  0  0  0  0  0  0  0  0
  1  2  2  0
  2  3  1  0
  2 11  1  0
  3  4  1  0
  4  5  1  0
  4  9  1  0
  5  6  2  0
  5  7  1  0
  7  8  1  0
  8  9  1  0
  9 10  2  0
 11 12  1  0
 11 23  1  0
 12 13  2  0
 13 14  1  0
 14 15  1  0
 14 23  2  0
 15 16  1  1
 15 17  1  0
 15 22  1  0
 17 18  1  0
 18 19  1  0
 19 20  1  0
 20 21  1  0
 20 22  1  0
M  END
