
     RDKit          3D

  9  8  0  0  0  0  0  0  0  0999 V2000
    2.1310   -1.8120    0.1710 O   0  0  0  0  0  0  0  0  0  0  0  0
    2.0790   -0.5620    0.2940 C   0  0  0  0  0  0  0  0  0  0  0  0
    3.2640    0.0900    0.6080 O   0  0  0  0  0  0  0  0  0  0  0  0
    0.8580    0.2280    0.1280 C   0  0  0  0  0  0  0  0  0  0  0  0
   -0.1560   -0.6710   -0.1780 O   0  0  0  0  0  0  0  0  0  0  0  0
   -1.5580   -0.1180   -0.4050 P   0  0  0  0  0  0  0  0  0  0  0  0
   -1.5390    0.7540    0.9810 O   0  0  0  0  0  0  0  0  0  0  0  0
   -2.2310   -1.6010   -0.4350 O   0  0  0  0  0  0  0  0  0  0  0  0
   -0.9990    0.5320   -1.8450 O   0  0  0  0  0  0  0  0  0  0  0  0
  1  2  2  0
  2  3  1  0
  2  4  1  0
  4  5  1  0
  5  6  1  0
  6  7  1  0
  6  8  1  0
  6  9  1  0
M  END
