
     RDKit          3D

 23 25  0  0  0  0  0  0  0  0999 V2000
    4.3830    2.7520    0.4770 O   0  0  0  0  0  0  0  0  0  0  0  0
    4.4100    1.7180   -0.1530 C   0  0  0  0  0  0  0  0  0  0  0  0
    5.7370    1.0130   -0.4370 C   0  0  0  0  0  0  0  0  0  0  0  0
    6.2760    0.9950    0.8940 O   0  0  0  0  0  0  0  0  0  0  0  0
    6.2660   -0.6930    1.3520 P   0  0  0  0  0  0  0  0  0  0  0  0
    4.8590   -1.4000    0.5790 O   0  0  0  0  0  0  0  0  0  0  0  0
    7.6910   -1.4880    1.1330 O   0  0  0  0  0  0  0  0  0  0  0  0
    3.2710    1.0630   -0.6350 N   0  0  0  0  0  0  0  0  0  0  0  0
    1.9050    1.4340   -0.4300 C   0  0  0  0  0  0  0  0  0  0  0  0
    1.2900    2.5510   -0.0560 N   0  0  0  0  0  0  0  0  0  0  0  0
   -0.0400    2.2580   -0.0060 N   0  0  0  0  0  0  0  0  0  0  0  0
   -0.2420    1.0130   -0.3360 C   0  0  0  0  0  0  0  0  0  0  0  0
   -1.4520    0.1140   -0.4520 C   0  0  0  0  0  0  0  0  0  0  0  0
   -2.4790    0.3690    0.5050 N   0  0  0  0  0  0  0  0  0  0  0  0
   -3.0380   -0.9700    0.8710 C   0  0  0  0  0  0  0  0  0  0  0  0
   -3.6090   -1.0230   -0.4870 C   0  0  1  0  0  0  0  0  0  0  0  0
   -4.8230   -1.6850   -0.6370 O   0  0  0  0  0  0  0  0  0  0  0  0
   -5.6030   -1.6420    0.5030 C   0  0  0  0  0  0  0  0  0  0  0  0
   -5.9280   -0.2590    0.7570 N   0  0  0  0  0  0  0  0  0  0  0  0
   -4.9660    0.7690    0.4560 C   0  0  0  0  0  0  0  0  0  0  0  0
   -5.2450    1.9080    0.8630 O   0  0  0  0  0  0  0  0  0  0  0  0
   -3.7450    0.4790   -0.2850 C   0  0  1  0  0  0  0  0  0  0  0  0
    0.9480    0.5150   -0.6010 O   0  0  0  0  0  0  0  0  0  0  0  0
  1  2  2  0
  2  3  1  0
  2  8  1  0
  3  4  1  0
  4  5  1  0
  5  6  1  0
  5  7  1  0
  8  9  1  0
  9 10  2  0
  9 23  1  0
 10 11  1  0
 11 12  2  0
 12 13  1  0
 12 23  1  0
 13 14  1  0
 14 15  1  0
 22 14  1  1
 16 15  1  1
 16 17  1  0
 16 22  1  0
 17 18  1  0
 18 19  1  0
 19 20  1  0
 20 21  2  0
 20 22  1  0
M  END
