
     RDKit          3D

 23 25  0  0  0  0  0  0  0  0999 V2000
    5.0300    0.5020    0.5170 N   0  0  0  0  0  0  0  0  0  0  0  0
    3.9270    0.0630    0.2690 C   0  0  0  0  0  0  0  0  0  0  0  0
    2.9150    0.2170    1.2220 N   0  0  0  0  0  0  0  0  0  0  0  0
    1.5740    0.4620    1.0250 C   0  0  0  0  0  0  0  0  0  0  0  0
    1.3540    0.6290   -0.2200 O   0  0  0  0  0  0  0  0  0  0  0  0
    0.5800    0.5380    1.9420 O   0  0  0  0  0  0  0  0  0  0  0  0
   -0.6890    0.8270    1.3910 C   0  0  0  0  0  0  0  0  0  0  0  0
   -1.1860    2.1050    1.3200 C   0  0  0  0  0  0  0  0  0  0  0  0
   -2.4230    2.3920    0.7770 C   0  0  0  0  0  0  0  0  0  0  0  0
   -3.1390    1.3200    0.3060 C   0  0  0  0  0  0  0  0  0  0  0  0
   -2.6830    0.0250    0.3560 C   0  0  0  0  0  0  0  0  0  0  0  0
   -1.4460   -0.2400    0.9020 C   0  0  0  0  0  0  0  0  0  0  0  0
   -3.6930   -0.7870   -0.2160 N   0  0  0  0  0  0  0  0  0  0  0  0
   -4.2450   -2.0970   -0.3550 C   0  0  0  0  0  0  0  0  0  0  0  0
   -3.6750   -3.1470   -0.0550 O   0  0  0  0  0  0  0  0  0  0  0  0
   -5.5930   -1.8820   -0.9170 C   0  0  0  0  0  0  0  0  0  0  0  0
   -5.7390   -0.4990   -0.9810 O   0  0  0  0  0  0  0  0  0  0  0  0
   -4.5150    0.0430   -0.9720 N   0  0  0  0  0  0  0  0  0  0  0  0
   -4.4060    1.2250   -0.3000 O   0  0  0  0  0  0  0  0  0  0  0  0
    4.0310   -0.9520   -0.7920 N   0  0  0  0  0  0  0  0  0  0  0  0
    4.9280   -0.6030   -2.2450 P   0  0  0  0  0  0  0  0  0  0  0  0
    4.7720    1.0320   -2.7990 O   0  0  0  0  0  0  0  0  0  0  0  0
    6.6010   -1.0550   -2.0900 O   0  0  0  0  0  0  0  0  0  0  0  0
  1  2  2  0
  2  3  1  0
  2 20  1  0
  3  4  1  0
  4  5  2  0
  4  6  1  0
  6  7  1  0
  7  8  2  0
  7 12  1  0
  8  9  1  0
  9 10  2  0
 10 11  1  0
 10 19  1  0
 11 12  2  0
 11 13  1  0
 13 14  1  0
 13 18  1  0
 14 15  2  0
 14 16  1  0
 16 17  1  0
 17 18  1  0
 18 19  1  0
 20 21  1  0
 21 22  1  0
 21 23  1  0
M  END
