
     RDKit          3D

 22 23  0  0  0  0  0  0  0  0999 V2000
    0.5820    2.6520   -1.8000 N   0  0  0  0  0  0  0  0  0  0  0  0
    0.4670    1.4720   -1.1920 C   0  0  0  0  0  0  0  0  0  0  0  0
    1.4070    0.7250   -1.8470 N   0  0  0  0  0  0  0  0  0  0  0  0
    2.0980   -0.3810   -1.4290 C   0  0  0  0  0  0  0  0  0  0  0  0
    1.8320   -0.6880   -0.2640 O   0  0  0  0  0  0  0  0  0  0  0  0
    3.0230   -1.0840   -2.2600 C   0  0  0  0  0  0  0  0  0  0  0  0
    3.6470   -2.1050   -1.7810 C   0  0  0  0  0  0  0  0  0  0  0  0
    3.4440   -2.5550   -0.4540 N   0  0  0  0  0  0  0  0  0  0  0  0
    4.3200   -1.8070    0.9440 P   0  0  0  0  0  0  0  0  0  0  0  0
    4.8190   -0.1980    0.5770 O   0  0  0  0  0  0  0  0  0  0  0  0
    5.7260   -2.7360    1.3490 O   0  0  0  0  0  0  0  0  0  0  0  0
   -0.6960    1.2930   -0.4320 N   0  0  0  0  0  0  0  0  0  0  0  0
   -1.0850    0.4010    0.5990 C   0  0  0  0  0  0  0  0  0  0  0  0
   -0.3960    0.0200    1.5610 O   0  0  0  0  0  0  0  0  0  0  0  0
   -2.5100    0.0480    0.2330 C   0  0  1  0  0  0  0  0  0  0  0  0
   -3.2700   -0.4430    1.4040 C   0  0  2  0  0  0  0  0  0  0  0  0
   -4.3380   -1.2240    0.9670 O   0  0  0  0  0  0  0  0  0  0  0  0
   -3.8610    0.8470    1.9850 C   0  0  0  0  0  0  0  0  0  0  0  0
   -4.2060    1.5840    0.6840 C   0  0  0  0  0  0  0  0  0  0  0  0
   -2.9540    1.4380   -0.0130 N   0  0  0  0  0  0  0  0  0  0  0  0
   -1.9350    1.9730   -0.8200 C   0  0  0  0  0  0  0  0  0  0  0  0
   -2.1030    2.8480   -1.6800 O   0  0  0  0  0  0  0  0  0  0  0  0
  1  2  2  0
  2  3  1  0
  2 12  1  0
  3  4  1  0
  4  5  2  0
  4  6  1  0
  6  7  2  3
  7  8  1  0
  8  9  1  0
  9 10  1  0
  9 11  1  0
 12 13  1  0
 12 21  1  0
 13 14  2  0
 15 13  1  1
 15 16  1  0
 15 20  1  0
 16 17  1  6
 16 18  1  0
 18 19  1  0
 19 20  1  0
 20 21  1  0
 21 22  2  0
M  END
