
     RDKit          3D

 16 16  0  0  0  0  0  0  0  0999 V2000
    5.7060    0.1140    0.3530 O   0  0  0  0  0  0  0  0  0  0  0  0
    4.4770    0.5430    0.9110 O   0  0  0  0  0  0  0  0  0  0  0  0
    3.7850    0.7200   -0.3190 C   0  0  0  0  0  0  0  0  0  0  0  0
    2.6370   -0.3050   -0.1950 C   0  0  0  0  0  0  0  0  0  0  0  0
    2.0920   -0.2080   -1.5040 O   0  0  0  0  0  0  0  0  0  0  0  0
    1.0030   -1.0550   -1.5400 O   0  0  0  0  0  0  0  0  0  0  0  0
   -0.0360   -0.0750   -1.2880 C   0  0  0  0  0  0  0  0  0  0  0  0
   -1.3220   -0.7880   -1.2000 C   0  0  0  0  0  0  0  0  0  0  0  0
   -2.4140    0.1690   -0.7780 C   0  0  1  0  0  0  0  0  0  0  0  0
   -2.6720    1.6790   -1.8480 Br  0  0  0  0  0  0  0  0  0  0  0  0
   -3.5630   -0.6650   -0.6820 O   0  0  0  0  0  0  0  0  0  0  0  0
   -3.1070   -1.6050    0.1230 O   0  0  0  0  0  0  0  0  0  0  0  0
   -2.6150   -0.9380    1.2600 C   0  0  0  0  0  0  0  0  0  0  0  0
   -2.2000    0.4390    0.7080 C   0  0  2  0  0  0  0  0  0  0  0  0
   -2.9800    1.4260    1.2240 O   0  0  0  0  0  0  0  0  0  0  0  0
   -4.2170    1.2600    0.7860 O   0  0  0  0  0  0  0  0  0  0  0  0
  1  2  1  0
  2  3  1  0
  3  4  1  0
  4  5  1  0
  5  6  1  0
  6  7  1  0
  7  8  1  0
  8  9  1  0
  9 10  1  6
  9 11  1  0
  9 14  1  0
 11 12  1  0
 12 13  1  0
 13 14  1  0
 14 15  1  1
 15 16  1  0
M  END
