
     RDKit          3D

 37 39  0  0  0  0  0  0  0  0999 V2000
    6.7020   -1.1330    1.9090 C   0  0  0  0  0  0  0  0  0  0  0  0
    5.2470   -1.5740    1.8390 C   0  0  0  0  0  0  0  0  0  0  0  0
    4.4340   -0.3850    1.9810 N   0  0  0  0  0  0  0  0  0  0  0  0
    3.0420   -0.7600    2.1370 C   0  0  0  0  0  0  0  0  0  0  0  0
    2.4000   -1.1730    0.8630 C   0  0  0  0  0  0  0  0  0  0  0  0
    2.4000   -0.0930   -0.1910 C   0  0  0  0  0  0  0  0  0  0  0  0
    3.5110   -0.0330   -0.7480 O   0  0  0  0  0  0  0  0  0  0  0  0
    1.2030    0.7230   -0.4550 C   0  0  0  0  0  0  0  0  0  0  0  0
    1.2680    1.6490   -1.4190 C   0  0  0  0  0  0  0  0  0  0  0  0
    2.4640    1.8990   -2.2200 C   0  0  0  0  0  0  0  0  0  0  0  0
    3.5670    1.3590   -2.1980 O   0  0  0  0  0  0  0  0  0  0  0  0
    2.4160    2.9480   -3.2250 N   0  0  0  0  0  0  0  0  0  0  0  0
    3.5720    3.2590   -4.0620 C   0  0  0  0  0  0  0  0  0  0  0  0
    0.1000    2.5100   -1.8000 C   0  0  0  0  0  0  0  0  0  0  0  0
   -1.1080    2.3230   -2.2300 C   0  0  0  0  0  0  0  0  0  0  0  0
   -1.9890    1.2390   -2.5700 C   0  0  0  0  0  0  0  0  0  0  0  0
   -3.0270    0.6520   -2.0510 C   0  0  0  0  0  0  0  0  0  0  0  0
   -3.8060    0.7880   -0.9010 N   0  0  0  0  0  0  0  0  0  0  0  0
   -4.0160    1.6170    0.0330 C   0  0  0  0  0  0  0  0  0  0  0  0
   -5.0450    1.0730    0.9770 C   0  0  0  0  0  0  0  0  0  0  0  0
   -5.5130    1.8250    2.1670 C   0  0  0  0  0  0  0  0  0  0  0  0
   -5.5550   -0.0540    0.7890 O   0  0  0  0  0  0  0  0  0  0  0  0
   -3.4550    2.8970    0.2820 N   0  0  0  0  0  0  0  0  0  0  0  0
   -2.1620    3.3930    0.5750 C   0  0  0  0  0  0  0  0  0  0  0  0
   -1.9120    4.6410    0.6040 O   0  0  0  0  0  0  0  0  0  0  0  0
   -0.9740    2.6700    0.8720 N   0  0  0  0  0  0  0  0  0  0  0  0
   -0.8690    1.2620    1.0630 C   0  0  0  0  0  0  0  0  0  0  0  0
    0.0850    0.4190    0.4420 C   0  0  1  0  0  0  0  0  0  0  0  0
   -0.6030   -0.8710    0.0150 C   0  0  0  0  0  0  0  0  0  0  0  0
   -0.4770   -1.4000   -1.2220 C   0  0  0  0  0  0  0  0  0  0  0  0
   -1.1350   -2.5740   -1.5520 C   0  0  0  0  0  0  0  0  0  0  0  0
   -1.9270   -3.2360   -0.6530 C   0  0  0  0  0  0  0  0  0  0  0  0
   -2.0670   -2.7030    0.6250 C   0  0  0  0  0  0  0  0  0  0  0  0
   -1.4090   -1.5340    0.9440 C   0  0  0  0  0  0  0  0  0  0  0  0
   -2.9560   -3.5500    1.4450 C   0  0  0  0  0  0  0  0  0  0  0  0
   -3.0570   -4.8520    0.6740 C   0  0  0  0  0  0  0  0  0  0  0  0
   -2.7240   -4.4870   -0.7540 C   0  0  0  0  0  0  0  0  0  0  0  0
  1  2  1  0
  2  3  1  0
  3  4  1  0
  4  5  1  0
  5  6  1  0
  6  7  2  0
  6  8  1  0
  8  9  2  0
  8 28  1  0
  9 10  1  0
  9 14  1  0
 10 11  2  0
 10 12  1  0
 12 13  1  0
 14 15  2  0
 15 16  1  0
 16 17  2  0
 17 18  1  0
 18 19  2  0
 19 20  1  0
 19 23  1  0
 20 21  1  0
 20 22  2  0
 23 24  1  0
 24 25  2  0
 24 26  1  0
 26 27  1  0
 27 28  1  0
 28 29  1  6
 29 30  2  0
 29 34  1  0
 30 31  1  0
 31 32  2  0
 32 33  1  0
 32 37  1  0
 33 34  2  0
 33 35  1  0
 35 36  1  0
 36 37  1  0
M  CHG  1   3   1
M  END
