
     RDKit          3D

 39 43  0  0  0  0  0  0  0  0999 V2000
   10.8300   -2.3770    0.8190 N   0  0  0  0  0  0  0  0  0  0  0  0
    9.4300   -2.0930    0.8230 C   0  0  0  0  0  0  0  0  0  0  0  0
    8.6750   -1.1410    1.3550 N   0  0  0  0  0  0  0  0  0  0  0  0
    7.4400   -1.0630    1.2070 C   0  0  0  0  0  0  0  0  0  0  0  0
    6.8180   -2.0760    0.4020 C   0  0  0  0  0  0  0  0  0  0  0  0
    8.1180   -3.0450   -0.0380 S   0  0  0  0  0  0  0  0  0  0  0  0
    5.2960   -1.9370    0.1790 C   0  0  0  0  0  0  0  0  0  0  0  0
    5.1830   -0.5970   -0.4490 C   0  0  1  0  0  0  0  0  0  0  0  0
    4.0260   -0.1210   -1.0750 N   0  0  0  0  0  0  0  0  0  0  0  0
    2.8360    0.4040   -0.4220 C   0  0  0  0  0  0  0  0  0  0  0  0
    2.8350    0.3460    0.8280 O   0  0  0  0  0  0  0  0  0  0  0  0
    1.7800    0.9530   -1.2640 C   0  0  2  0  0  0  0  0  0  0  0  0
    2.0630    2.4990   -1.3660 C   0  0  0  0  0  0  0  0  0  0  0  0
    0.7050    3.1110   -1.5560 C   0  0  0  0  0  0  0  0  0  0  0  0
   -0.1620    1.9030   -1.8370 C   0  0  0  0  0  0  0  0  0  0  0  0
    0.4200    0.9170   -0.9100 N   0  0  0  0  0  0  0  0  0  0  0  0
   -0.3560    0.1540   -0.0180 C   0  0  0  0  0  0  0  0  0  0  0  0
    0.3570   -0.7470    0.6290 O   0  0  0  0  0  0  0  0  0  0  0  0
   -1.7550    0.1610    0.2980 C   0  0  1  0  0  0  0  0  0  0  0  0
   -2.4670    1.1850    1.0470 C   0  0  0  0  0  0  0  0  0  0  0  0
   -2.7260    2.5650    0.6890 C   0  0  1  0  0  0  0  0  0  0  0  0
   -3.6290    2.7080   -0.5270 C   0  0  0  0  0  0  0  0  0  0  0  0
   -3.6840    4.1830   -0.8460 C   0  0  0  0  0  0  0  0  0  0  0  0
   -4.3540    4.9460    0.2810 C   0  0  0  0  0  0  0  0  0  0  0  0
   -4.7140    3.9760    1.3590 C   0  0  0  0  0  0  0  0  0  0  0  0
   -3.4740    3.2540    1.8220 C   0  0  0  0  0  0  0  0  0  0  0  0
   -2.4390   -0.3710   -0.8830 N   0  0  0  0  0  0  0  0  0  0  0  0
   -3.5750   -1.5670   -0.7000 S   0  0  2  0  0  0  0  0  0  0  0  0
   -4.0300   -1.9660   -2.1270 O   0  0  0  0  0  0  0  0  0  0  0  0
   -4.8860   -1.0340   -0.0980 O   0  0  0  0  0  0  0  0  0  0  0  0
   -3.0770   -3.0780    0.0520 C   0  0  0  0  0  0  0  0  0  0  0  0
   -4.2660   -3.9920   -0.0270 C   0  0  0  0  0  0  0  0  0  0  0  0
   -5.4660   -3.7130    0.5650 C   0  0  0  0  0  0  0  0  0  0  0  0
   -6.5530   -4.5910    0.4950 C   0  0  0  0  0  0  0  0  0  0  0  0
   -6.4120   -5.7970   -0.2030 C   0  0  0  0  0  0  0  0  0  0  0  0
   -5.1890   -6.0770   -0.8040 C   0  0  0  0  0  0  0  0  0  0  0  0
   -4.1480   -5.2040   -0.7210 C   0  0  0  0  0  0  0  0  0  0  0  0
    5.7760    0.5110    0.4600 C   0  0  0  0  0  0  0  0  0  0  0  0
    6.4040   -0.0770    1.6950 C   0  0  0  0  0  0  0  0  0  0  0  0
  1  2  1  0
  2  3  2  0
  2  6  1  0
  3  4  1  0
  4  5  2  0
  4 39  1  0
  5  6  1  0
  5  7  1  0
  7  8  1  0
  8  9  1  1
  8 38  1  0
  9 10  1  0
 10 11  2  0
 12 10  1  1
 12 13  1  0
 12 16  1  0
 13 14  1  0
 14 15  1  0
 15 16  1  0
 16 17  1  0
 17 18  2  0
 17 19  1  0
 19 20  1  6
 19 27  1  0
 21 20  1  1
 21 22  1  0
 21 26  1  0
 22 23  1  0
 23 24  1  0
 24 25  1  0
 25 26  1  0
 27 28  1  0
 28 29  2  0
 28 30  2  0
 28 31  1  1
 31 32  1  0
 32 33  2  0
 32 37  1  0
 33 34  1  0
 34 35  2  0
 35 36  1  0
 36 37  2  0
 38 39  1  0
M  END
