
     RDKit          3D

 39 42  0  0  0  0  0  0  0  0999 V2000
    8.3870    3.4230    0.1490 C   0  0  0  0  0  0  0  0  0  0  0  0
    7.4360    2.5040   -0.3560 O   0  0  0  0  0  0  0  0  0  0  0  0
    7.6180    1.1630   -0.0550 C   0  0  0  0  0  0  0  0  0  0  0  0
    8.6760    0.7120    0.7030 C   0  0  0  0  0  0  0  0  0  0  0  0
    8.8430   -0.6260    0.9920 C   0  0  0  0  0  0  0  0  0  0  0  0
    9.9950   -1.1040    1.8130 C   0  0  0  0  0  0  0  0  0  0  0  0
   10.0010   -2.4850    1.9010 O   0  0  0  0  0  0  0  0  0  0  0  0
    7.9380   -1.5650    0.5220 C   0  0  0  0  0  0  0  0  0  0  0  0
    6.8680   -1.1460   -0.2400 C   0  0  0  0  0  0  0  0  0  0  0  0
    5.9330   -2.0750   -0.7320 O   0  0  0  0  0  0  0  0  0  0  0  0
    4.6160   -1.9720   -0.3270 C   0  0  0  0  0  0  0  0  0  0  0  0
    4.2530   -1.0570    0.6390 C   0  0  0  0  0  0  0  0  0  0  0  0
    2.9120   -0.9650    1.0340 C   0  0  0  0  0  0  0  0  0  0  0  0
    1.9940   -1.8020    0.4380 C   0  0  0  0  0  0  0  0  0  0  0  0
    0.5800   -1.6990    0.8550 C   0  0  0  0  0  0  0  0  0  0  0  0
   -0.0920   -0.6740   -0.0410 C   0  0  0  0  0  0  0  0  0  0  0  0
   -1.4780   -0.5630    0.3900 N   0  0  1  0  0  0  0  0  0  0  0  0
   -1.5830    0.3460    1.5230 C   0  0  0  0  0  0  0  0  0  0  0  0
   -2.8650   -0.0260    2.2460 C   0  0  0  0  0  0  0  0  0  0  0  0
   -3.9840    0.0630    1.2350 C   0  0  0  0  0  0  0  0  0  0  0  0
   -3.7230    0.0400   -0.1120 C   0  0  0  0  0  0  0  0  0  0  0  0
   -4.7670    0.1250   -0.9900 C   0  0  0  0  0  0  0  0  0  0  0  0
   -6.1130    0.2380   -0.5860 C   0  0  0  0  0  0  0  0  0  0  0  0
   -7.1320    0.2760   -1.5870 C   0  0  0  0  0  0  0  0  0  0  0  0
   -6.6760   -0.1210   -3.0070 C   0  0  0  0  0  0  0  0  0  0  0  0
   -8.3730    0.5620   -1.5340 C   0  0  0  0  0  0  0  0  0  0  0  0
   -9.2240    0.9680   -0.4210 C   0  0  1  0  0  0  0  0  0  0  0  0
   -9.7170   -0.2400    0.3340 C   0  0  0  0  0  0  0  0  0  0  0  0
   -8.7910    2.0230    0.3370 O   0  0  0  0  0  0  0  0  0  0  0  0
   -9.5700    3.1440    0.3420 C   0  0  0  0  0  0  0  0  0  0  0  0
   -6.2820    0.2530    0.7400 N   0  0  0  0  0  0  0  0  0  0  0  0
   -5.2780    0.1710    1.6460 C   0  0  0  0  0  0  0  0  0  0  0  0
   -5.5500    0.1950    2.8650 O   0  0  0  0  0  0  0  0  0  0  0  0
   -2.3260   -0.0720   -0.6700 C   0  0  0  0  0  0  0  0  0  0  0  0
    2.3640   -2.7120   -0.5230 C   0  0  0  0  0  0  0  0  0  0  0  0
    3.6910   -2.8080   -0.9200 C   0  0  0  0  0  0  0  0  0  0  0  0
    6.7390    0.1870   -0.5040 C   0  0  0  0  0  0  0  0  0  0  0  0
    5.6740    0.6590   -1.2740 O   0  0  0  0  0  0  0  0  0  0  0  0
    5.9020    0.7190   -2.6810 C   0  0  0  0  0  0  0  0  0  0  0  0
  1  2  1  0
  2  3  1  0
  3  4  2  0
  3 37  1  0
  4  5  1  0
  5  6  1  0
  5  8  2  0
  6  7  1  0
  8  9  1  0
  9 10  1  0
  9 37  2  0
 10 11  1  0
 11 12  2  0
 11 36  1  0
 12 13  1  0
 13 14  2  0
 14 15  1  0
 14 35  1  0
 15 16  1  0
 17 16  1  6
 17 18  1  0
 17 34  1  0
 18 19  1  0
 19 20  1  0
 20 21  2  0
 20 32  1  0
 21 22  1  0
 21 34  1  0
 22 23  2  0
 23 24  1  0
 23 31  1  0
 24 25  1  0
 24 26  2  3
 26 27  1  0
 27 28  1  1
 27 29  1  0
 29 30  1  0
 31 32  1  0
 32 33  2  0
 35 36  2  0
 37 38  1  0
 38 39  1  0
M  CHG  1  17   1
M  END
