
     RDKit          3D

 38 41  0  0  0  0  0  0  0  0999 V2000
    5.0420   -6.6350   -0.8070 C   0  0  0  0  0  0  0  0  0  0  0  0
    4.7980   -5.3200   -0.7950 C   0  0  0  0  0  0  0  0  0  0  0  0
    5.4180   -4.4940    0.2610 C   0  0  0  0  0  0  0  0  0  0  0  0
    4.5810   -3.8040    1.1080 O   0  0  0  0  0  0  0  0  0  0  0  0
    3.6680   -2.8160    0.8330 C   0  0  0  0  0  0  0  0  0  0  0  0
    2.9150   -2.2720    1.9080 C   0  0  0  0  0  0  0  0  0  0  0  0
    1.9880   -1.2810    1.6930 C   0  0  0  0  0  0  0  0  0  0  0  0
    1.7620   -0.7850    0.4250 C   0  0  0  0  0  0  0  0  0  0  0  0
    0.7820    0.3170    0.1540 C   0  0  1  0  0  0  0  0  0  0  0  0
    1.5550    1.5530   -0.2020 C   0  0  1  0  0  0  0  0  0  0  0  0
    2.6410    1.9360    0.7440 C   0  0  0  0  0  0  0  0  0  0  0  0
    2.3610    2.3330    2.1250 C   0  0  0  0  0  0  0  0  0  0  0  0
    1.5720    3.5830    2.2390 C   0  0  0  0  0  0  0  0  0  0  0  0
    0.3420    3.5600    2.1800 O   0  0  0  0  0  0  0  0  0  0  0  0
    2.2000    4.8190    2.4100 O   0  0  0  0  0  0  0  0  0  0  0  0
    1.5360    6.0470    2.5090 C   0  0  0  0  0  0  0  0  0  0  0  0
    0.7820    6.2190    1.1790 C   0  0  0  0  0  0  0  0  0  0  0  0
    2.2350    1.2020   -1.4210 O   0  0  0  0  0  0  0  0  0  0  0  0
    1.9840    2.0930   -2.4350 C   0  0  0  0  0  0  0  0  0  0  0  0
    2.7040    1.6600   -3.6970 C   0  0  0  0  0  0  0  0  0  0  0  0
   -0.0750   -0.1030   -0.9600 N   0  0  0  0  0  0  0  0  0  0  0  0
   -1.3770    0.3580   -0.8020 C   0  0  1  0  0  0  0  0  0  0  0  0
   -1.7470    1.2980   -1.9550 C   0  0  0  0  0  0  0  0  0  0  0  0
   -2.4700   -0.5850   -0.6570 C   0  0  0  0  0  0  0  0  0  0  0  0
   -2.3830   -1.9500   -0.6350 C   0  0  0  0  0  0  0  0  0  0  0  0
   -3.5090   -2.7370   -0.4850 C   0  0  0  0  0  0  0  0  0  0  0  0
   -4.7720   -2.1730   -0.3530 C   0  0  0  0  0  0  0  0  0  0  0  0
   -4.8650   -0.8110   -0.3750 C   0  0  0  0  0  0  0  0  0  0  0  0
   -3.7440   -0.0120   -0.5230 C   0  0  0  0  0  0  0  0  0  0  0  0
   -6.0150   -0.0340   -0.2630 O   0  0  0  0  0  0  0  0  0  0  0  0
   -7.3650   -0.4290   -0.0140 C   0  0  0  0  0  0  0  0  0  0  0  0
   -7.4010   -1.6390    0.8740 C   0  0  0  0  0  0  0  0  0  0  0  0
   -7.1580   -2.8980    0.0750 C   0  0  0  0  0  0  0  0  0  0  0  0
   -5.7820   -3.0980   -0.2120 O   0  0  0  0  0  0  0  0  0  0  0  0
   -1.2980    1.1300    0.5250 C   0  0  0  0  0  0  0  0  0  0  0  0
   -0.1770    0.4380    1.1880 N   0  0  0  0  0  0  0  0  0  0  0  0
    2.4760   -1.3000   -0.6090 C   0  0  0  0  0  0  0  0  0  0  0  0
    3.4190   -2.3010   -0.4120 C   0  0  0  0  0  0  0  0  0  0  0  0
  1  2  2  0
  2  3  1  0
  3  4  1  0
  4  5  1  0
  5  6  2  0
  5 38  1  0
  6  7  1  0
  7  8  2  0
  9  8  1  1
  8 37  1  0
  9 10  1  0
  9 21  1  0
  9 36  1  0
 10 11  1  1
 10 18  1  0
 11 12  1  0
 12 13  1  0
 13 14  2  0
 13 15  1  0
 15 16  1  0
 16 17  1  0
 18 19  1  0
 19 20  1  0
 21 22  1  0
 22 23  1  6
 22 24  1  0
 22 35  1  0
 24 25  2  0
 24 29  1  0
 25 26  1  0
 26 27  2  0
 27 28  1  0
 27 34  1  0
 28 29  2  0
 28 30  1  0
 30 31  1  0
 31 32  1  0
 32 33  1  0
 33 34  1  0
 35 36  1  0
 37 38  2  0
M  CHG  1  36   1
M  END
