
     RDKit          3D

 39 40  0  0  0  0  0  0  0  0999 V2000
    0.7370   -2.1630    2.1390 C   0  0  0  0  0  0  0  0  0  0  0  0
    0.6080   -2.3720    0.6740 C   0  0  0  0  0  0  0  0  0  0  0  0
    0.1280   -1.2810   -0.0690 O   0  0  0  0  0  0  0  0  0  0  0  0
    0.8030   -0.0930   -0.1410 C   0  0  0  0  0  0  0  0  0  0  0  0
    1.9840    0.1650    0.4870 C   0  0  0  0  0  0  0  0  0  0  0  0
    2.6520    1.3720    0.3860 C   0  0  0  0  0  0  0  0  0  0  0  0
    3.9100    1.4720    1.1030 C   0  0  0  0  0  0  0  0  0  0  0  0
    4.0350    2.1250    2.1730 O   0  0  0  0  0  0  0  0  0  0  0  0
    5.0590    0.8000    0.5980 N   0  0  0  0  0  0  0  0  0  0  0  0
    6.3610    0.8270    1.2600 C   0  0  1  0  0  0  0  0  0  0  0  0
    6.6590   -0.5450    1.8550 C   0  0  0  0  0  0  0  0  0  0  0  0
    7.3930    1.1800    0.2100 C   0  0  0  0  0  0  0  0  0  0  0  0
    7.1690    2.4010   -0.3720 O   0  0  0  0  0  0  0  0  0  0  0  0
    2.1570    2.3870   -0.3590 C   0  0  0  0  0  0  0  0  0  0  0  0
    2.8530    3.7170   -0.5310 C   0  0  0  0  0  0  0  0  0  0  0  0
    3.9590    3.5700   -1.5520 C   0  0  0  0  0  0  0  0  0  0  0  0
    3.3430    3.1590   -2.7580 O   0  0  0  0  0  0  0  0  0  0  0  0
    0.9640    2.1700   -1.0070 C   0  0  0  0  0  0  0  0  0  0  0  0
    0.2520    0.9510   -0.9280 C   0  0  0  0  0  0  0  0  0  0  0  0
   -0.8680    0.7690   -1.5450 O   0  0  0  0  0  0  0  0  0  0  0  0
   -1.9980    0.6060   -2.1770 C   0  0  0  0  0  0  0  0  0  0  0  0
   -2.6180   -0.7480   -1.8470 C   0  0  0  0  0  0  0  0  0  0  0  0
   -3.0320   -0.8590   -0.4490 C   0  0  2  0  0  0  0  0  0  0  0  0
   -3.4620   -2.3370   -0.2660 C   0  0  0  0  0  0  0  0  0  0  0  0
   -3.4560   -3.1620   -1.2700 C   0  0  0  0  0  0  0  0  0  0  0  0
   -3.8550   -4.5460   -1.0990 C   0  0  0  0  0  0  0  0  0  0  0  0
   -3.8480   -5.4020   -2.1470 C   0  0  0  0  0  0  0  0  0  0  0  0
   -4.2850   -6.7690   -1.7690 C   0  0  0  0  0  0  0  0  0  0  0  0
   -5.4050   -6.7910   -0.9860 O   0  0  0  0  0  0  0  0  0  0  0  0
   -5.5060   -5.8160   -0.1340 O   0  0  0  0  0  0  0  0  0  0  0  0
   -4.2980   -5.1750    0.1570 C   0  0  0  0  0  0  0  0  0  0  0  0
   -4.3000   -0.1580   -0.0230 C   0  0  1  0  0  0  0  0  0  0  0  0
   -4.3950   -0.4900    1.3790 O   0  0  0  0  0  0  0  0  0  0  0  0
   -4.4000    1.2980   -0.0820 C   0  0  0  0  0  0  0  0  0  0  0  0
   -3.3610    2.0310    0.6190 N   0  0  0  0  0  0  0  0  0  0  0  0
   -3.3740    3.4580    0.6170 C   0  0  0  0  0  0  0  0  0  0  0  0
   -4.3200    4.0330   -0.0200 O   0  0  0  0  0  0  0  0  0  0  0  0
   -2.3800    4.2080    1.2930 N   0  0  0  0  0  0  0  0  0  0  0  0
   -2.4610    5.6720    1.2420 C   0  0  0  0  0  0  0  0  0  0  0  0
  1  2  1  0
  2  3  1  0
  3  4  1  0
  4  5  2  0
  4 19  1  0
  5  6  1  0
  6  7  1  0
  6 14  2  0
  7  8  2  0
  7  9  1  0
  9 10  1  0
 10 11  1  6
 10 12  1  0
 12 13  1  0
 14 15  1  0
 14 18  1  0
 15 16  1  0
 16 17  1  0
 18 19  2  0
 19 20  1  0
 20 21  1  0
 21 22  1  0
 23 22  1  6
 23 24  1  0
 23 32  1  0
 24 25  2  3
 25 26  1  0
 26 27  2  0
 26 31  1  0
 27 28  1  0
 28 29  1  0
 29 30  1  0
 30 31  1  0
 32 33  1  1
 32 34  1  0
 34 35  1  0
 35 36  1  0
 36 37  2  0
 36 38  1  0
 38 39  1  0
M  END
