
     RDKit          3D

 39 40  0  0  0  0  0  0  0  0999 V2000
   12.0610    1.7280    0.5600 C   0  0  0  0  0  0  0  0  0  0  0  0
   10.6730    1.7550    1.1290 C   0  0  0  0  0  0  0  0  0  0  0  0
   10.0140    0.5480    1.0690 O   0  0  0  0  0  0  0  0  0  0  0  0
    9.8920    0.1130   -0.2310 C   0  0  0  0  0  0  0  0  0  0  0  0
    9.1320    1.0210   -1.1380 C   0  0  0  0  0  0  0  0  0  0  0  0
    7.7720    1.2470   -0.7050 N   0  0  0  0  0  0  0  0  0  0  0  0
    6.8160    0.2300   -0.5550 C   0  0  0  0  0  0  0  0  0  0  0  0
    7.1570   -0.9510   -0.8120 O   0  0  0  0  0  0  0  0  0  0  0  0
    5.4250    0.4850   -0.1090 C   0  0  0  0  0  0  0  0  0  0  0  0
    5.0680    1.6490    0.1550 O   0  0  0  0  0  0  0  0  0  0  0  0
    4.4980   -0.5640    0.0230 N   0  0  0  0  0  0  0  0  0  0  0  0
    3.1540   -0.4870    0.4310 C   0  0  0  0  0  0  0  0  0  0  0  0
    2.4850    0.6500    0.7950 C   0  0  0  0  0  0  0  0  0  0  0  0
    1.1530    0.6950    1.1940 C   0  0  0  0  0  0  0  0  0  0  0  0
    0.4180   -0.4590    1.2420 C   0  0  0  0  0  0  0  0  0  0  0  0
   -0.8710   -0.4780    1.6140 O   0  0  0  0  0  0  0  0  0  0  0  0
   -1.7640    0.4990    1.9740 C   0  0  0  0  0  0  0  0  0  0  0  0
   -2.0400    1.4330    0.8240 C   0  0  0  0  0  0  0  0  0  0  0  0
   -2.5620    0.8790   -0.3120 O   0  0  0  0  0  0  0  0  0  0  0  0
   -3.7320    0.2270   -0.5970 C   0  0  0  0  0  0  0  0  0  0  0  0
   -4.7530   -0.0110    0.2980 C   0  0  0  0  0  0  0  0  0  0  0  0
   -5.9170   -0.6780   -0.0350 C   0  0  0  0  0  0  0  0  0  0  0  0
   -6.9610   -0.8830    1.0060 C   0  0  2  0  0  0  0  0  0  0  0  0
   -7.0260   -2.3730    1.2640 C   0  0  0  0  0  0  0  0  0  0  0  0
   -8.3130   -0.4140    0.5890 C   0  0  0  0  0  0  0  0  0  0  0  0
   -8.3840    1.0530    0.2550 C   0  0  1  0  0  0  0  0  0  0  0  0
   -9.7250    1.3030   -0.1130 O   0  0  0  0  0  0  0  0  0  0  0  0
   -8.1010    1.9190    1.4660 C   0  0  0  0  0  0  0  0  0  0  0  0
   -8.3180    3.3050    1.0230 N   0  0  0  0  0  0  0  0  0  0  0  0
   -6.0640   -1.1270   -1.3260 C   0  0  0  0  0  0  0  0  0  0  0  0
   -5.0630   -0.9060   -2.2470 C   0  0  0  0  0  0  0  0  0  0  0  0
   -3.9090   -0.2440   -1.9150 C   0  0  0  0  0  0  0  0  0  0  0  0
   -2.8850   -0.0070   -2.8210 O   0  0  0  0  0  0  0  0  0  0  0  0
   -3.0220   -0.4630   -4.1530 C   0  0  0  0  0  0  0  0  0  0  0  0
    1.0780   -1.6520    0.8730 C   0  0  0  0  0  0  0  0  0  0  0  0
    0.3420   -2.8090    0.9220 O   0  0  0  0  0  0  0  0  0  0  0  0
    2.3900   -1.6590    0.4860 C   0  0  0  0  0  0  0  0  0  0  0  0
    3.0400   -2.8460    0.1210 O   0  0  0  0  0  0  0  0  0  0  0  0
    2.9800   -3.2130   -1.2610 C   0  0  0  0  0  0  0  0  0  0  0  0
  1  2  1  0
  2  3  1  0
  3  4  1  0
  4  5  1  0
  5  6  1  0
  6  7  1  0
  7  8  2  0
  7  9  1  0
  9 10  2  0
  9 11  1  0
 11 12  1  0
 12 13  2  0
 12 37  1  0
 13 14  1  0
 14 15  2  0
 15 16  1  0
 15 35  1  0
 16 17  1  0
 17 18  1  0
 18 19  1  0
 19 20  1  0
 20 21  2  0
 20 32  1  0
 21 22  1  0
 22 23  1  0
 22 30  2  0
 23 24  1  6
 23 25  1  0
 25 26  1  0
 26 27  1  1
 26 28  1  0
 28 29  1  0
 30 31  1  0
 31 32  2  0
 32 33  1  0
 33 34  1  0
 35 36  1  0
 35 37  2  0
 37 38  1  0
 38 39  1  0
M  END
