
     RDKit          3D

 39 39  0  0  0  0  0  0  0  0999 V2000
    3.3450   -7.0730   -0.6930 C   0  0  0  0  0  0  0  0  0  0  0  0
    3.2070   -5.6600   -0.7160 O   0  0  0  0  0  0  0  0  0  0  0  0
    4.1550   -4.8230   -0.1300 C   0  0  0  0  0  0  0  0  0  0  0  0
    5.1620   -5.2930    0.4370 O   0  0  0  0  0  0  0  0  0  0  0  0
    3.9780   -3.3870   -0.1740 N   0  0  0  0  0  0  0  0  0  0  0  0
    4.8920   -2.4840    0.3940 C   0  0  0  0  0  0  0  0  0  0  0  0
    5.9500   -3.1150    0.8550 O   0  0  0  0  0  0  0  0  0  0  0  0
    4.8690   -1.0760    0.5630 C   0  0  0  0  0  0  0  0  0  0  0  0
    6.1120   -0.6180    1.0240 C   0  0  0  0  0  0  0  0  0  0  0  0
    7.1300   -1.4830    1.2470 O   0  0  0  0  0  0  0  0  0  0  0  0
    3.9580   -0.0150    0.3300 C   0  0  0  0  0  0  0  0  0  0  0  0
    2.7710    0.2630    0.0300 C   0  0  0  0  0  0  0  0  0  0  0  0
    1.4770   -0.2780   -0.2750 C   0  0  0  0  0  0  0  0  0  0  0  0
    1.0790   -1.6660   -0.0080 C   0  0  0  0  0  0  0  0  0  0  0  0
    0.4740    0.5340   -0.6410 C   0  0  0  0  0  0  0  0  0  0  0  0
   -0.8310    0.0570   -0.9650 C   0  0  0  0  0  0  0  0  0  0  0  0
   -1.1290   -1.1270   -0.9540 O   0  0  0  0  0  0  0  0  0  0  0  0
   -1.9000    0.9220   -1.3300 N   0  0  0  0  0  0  0  0  0  0  0  0
   -3.2050    0.7660   -1.6740 C   0  0  0  0  0  0  0  0  0  0  0  0
   -4.3500    0.2330   -0.9730 C   0  0  2  0  0  0  0  0  0  0  0  0
   -5.5770    0.2870   -1.8360 C   0  0  0  0  0  0  0  0  0  0  0  0
   -6.1850    1.4600   -2.4040 C   0  0  1  0  0  0  0  0  0  0  0  0
   -5.4700    2.3290   -3.3810 C   0  0  0  0  0  0  0  0  0  0  0  0
   -7.4230    0.9460   -3.2080 C   0  0  0  0  0  0  0  0  0  0  0  0
   -4.5960    1.0270    0.2770 C   0  0  0  0  0  0  0  0  0  0  0  0
   -5.2120    0.3500    1.4280 C   0  0  0  0  0  0  0  0  0  0  0  0
   -4.9850   -1.1180    1.5880 C   0  0  2  0  0  0  0  0  0  0  0  0
   -4.8070   -1.4720    3.0500 C   0  0  0  0  0  0  0  0  0  0  0  0
   -4.5970   -2.8670    3.1420 O   0  0  0  0  0  0  0  0  0  0  0  0
   -3.8040   -1.4980    0.7590 C   0  0  0  0  0  0  0  0  0  0  0  0
   -4.1580   -1.2600   -0.6740 C   0  0  0  0  0  0  0  0  0  0  0  0
    4.6970    1.2980    0.5120 O   0  0  0  0  0  0  0  0  0  0  0  0
    5.1980    1.8380   -0.6980 C   0  0  0  0  0  0  0  0  0  0  0  0
    5.8920    3.1100   -0.3830 C   0  0  0  0  0  0  0  0  0  0  0  0
    6.4410    3.8230   -1.2640 O   0  0  0  0  0  0  0  0  0  0  0  0
    5.9740    3.6020    0.9580 N   0  0  0  0  0  0  0  0  0  0  0  0
    6.6620    4.8590    1.2470 C   0  0  0  0  0  0  0  0  0  0  0  0
    6.5630    5.0830    2.7520 C   0  0  0  0  0  0  0  0  0  0  0  0
    7.1620    4.0400    3.4520 O   0  0  0  0  0  0  0  0  0  0  0  0
  1  2  1  0
  2  3  1  0
  3  4  2  0
  3  5  1  0
  5  6  1  0
  6  7  2  0
  6  8  1  0
  8  9  2  3
  8 11  1  0
  9 10  1  0
 11 12  2  3
 11 32  1  0
 12 13  1  0
 13 14  1  0
 13 15  2  3
 15 16  1  0
 16 17  2  0
 16 18  1  0
 18 19  1  0
 20 19  1  6
 20 21  1  0
 20 25  1  0
 20 31  1  0
 21 22  1  0
 22 23  1  6
 22 24  1  0
 25 26  1  0
 26 27  1  0
 27 28  1  1
 27 30  1  0
 28 29  1  0
 30 31  1  0
 32 33  1  0
 33 34  1  0
 34 35  2  0
 34 36  1  0
 36 37  1  0
 37 38  1  0
 38 39  1  0
M  END
