
     RDKit          3D

 39 40  0  0  0  0  0  0  0  0999 V2000
   -6.1630    1.5490    2.5290 C   0  0  0  0  0  0  0  0  0  0  0  0
   -4.6460    1.5450    2.7160 C   0  0  0  0  0  0  0  0  0  0  0  0
   -4.0920    2.5100    1.6700 C   0  0  2  0  0  0  0  0  0  0  0  0
   -2.5850    2.5790    1.7710 C   0  0  0  0  0  0  0  0  0  0  0  0
   -4.6220    3.8890    1.9960 C   0  0  0  0  0  0  0  0  0  0  0  0
   -4.5600    2.0750    0.3730 N   0  0  0  0  0  0  0  0  0  0  0  0
   -4.2680    0.7990   -0.1980 C   0  0  0  0  0  0  0  0  0  0  0  0
   -3.5600    0.0250    0.4580 O   0  0  0  0  0  0  0  0  0  0  0  0
   -4.7580    0.4080   -1.4610 N   0  0  0  0  0  0  0  0  0  0  0  0
   -4.4860   -0.8510   -2.0580 C   0  0  0  0  0  0  0  0  0  0  0  0
   -3.1090   -1.1470   -2.4200 C   0  0  0  0  0  0  0  0  0  0  0  0
   -2.1040   -0.2290   -2.2460 C   0  0  0  0  0  0  0  0  0  0  0  0
   -0.7880   -0.4950   -2.6160 C   0  0  0  0  0  0  0  0  0  0  0  0
    0.2660    0.3420   -2.4830 O   0  0  0  0  0  0  0  0  0  0  0  0
    0.4430    1.6050   -1.9660 C   0  0  0  0  0  0  0  0  0  0  0  0
    0.1850    1.7640   -0.5000 C   0  0  2  0  0  0  0  0  0  0  0  0
    0.4520    3.1350   -0.1980 O   0  0  0  0  0  0  0  0  0  0  0  0
    1.0200    0.8800    0.3870 C   0  0  0  0  0  0  0  0  0  0  0  0
    2.5000    1.1440    0.2210 C   0  0  0  0  0  0  0  0  0  0  0  0
    2.9070    1.9900   -0.6050 O   0  0  0  0  0  0  0  0  0  0  0  0
    3.4400    0.4350    1.0020 N   0  0  0  0  0  0  0  0  0  0  0  0
    4.8400    0.5740    0.9500 C   0  0  0  0  0  0  0  0  0  0  0  0
    5.5270    1.3630    0.0650 C   0  0  0  0  0  0  0  0  0  0  0  0
    6.9160    1.4010    0.1080 C   0  0  0  0  0  0  0  0  0  0  0  0
    7.5730    2.2060   -0.7980 O   0  0  0  0  0  0  0  0  0  0  0  0
    7.6350    0.6730    1.0100 C   0  0  0  0  0  0  0  0  0  0  0  0
    6.9590   -0.1380    1.9230 C   0  0  0  0  0  0  0  0  0  0  0  0
    5.5810   -0.1900    1.8960 C   0  0  0  0  0  0  0  0  0  0  0  0
    4.8660   -0.9440    2.7450 O   0  0  0  0  0  0  0  0  0  0  0  0
    5.0060   -1.8170    3.7550 C   0  0  0  0  0  0  0  0  0  0  0  0
    5.6480   -3.1420    3.5370 C   0  0  0  0  0  0  0  0  0  0  0  0
    6.9430   -3.1590    3.0870 O   0  0  0  0  0  0  0  0  0  0  0  0
   -0.4980   -1.7460   -3.1830 C   0  0  0  0  0  0  0  0  0  0  0  0
    0.8100   -2.0440   -3.5650 O   0  0  0  0  0  0  0  0  0  0  0  0
    1.0910   -3.3050   -4.1350 C   0  0  0  0  0  0  0  0  0  0  0  0
   -1.5280   -2.6350   -3.3400 C   0  0  0  0  0  0  0  0  0  0  0  0
   -2.8310   -2.3770   -2.9750 C   0  0  0  0  0  0  0  0  0  0  0  0
   -3.8580   -3.3130   -3.1510 O   0  0  0  0  0  0  0  0  0  0  0  0
   -3.5900   -4.5630   -3.7140 C   0  0  0  0  0  0  0  0  0  0  0  0
  1  2  1  0
  2  3  1  0
  3  4  1  6
  3  5  1  0
  3  6  1  0
  6  7  1  0
  7  8  2  0
  7  9  1  0
  9 10  1  0
 10 11  1  0
 11 12  2  0
 11 37  1  0
 12 13  1  0
 13 14  1  0
 13 33  2  0
 14 15  1  0
 15 16  1  0
 16 17  1  1
 16 18  1  0
 18 19  1  0
 19 20  2  0
 19 21  1  0
 21 22  1  0
 22 23  2  0
 22 28  1  0
 23 24  1  0
 24 25  1  0
 24 26  2  0
 26 27  1  0
 27 28  2  0
 28 29  1  0
 29 30  1  0
 30 31  1  0
 31 32  1  0
 33 34  1  0
 33 36  1  0
 34 35  1  0
 36 37  2  0
 37 38  1  0
 38 39  1  0
M  END
