
     RDKit          3D

 39 40  0  0  0  0  0  0  0  0999 V2000
   -7.5960    3.1180    1.1550 C   0  0  0  0  0  0  0  0  0  0  0  0
   -7.7580    2.3300   -0.0280 O   0  0  0  0  0  0  0  0  0  0  0  0
   -7.2590    1.0080   -0.0500 C   0  0  0  0  0  0  0  0  0  0  0  0
   -7.4190    0.2520   -1.1340 C   0  0  0  0  0  0  0  0  0  0  0  0
   -6.9290   -1.0660   -1.1590 C   0  0  0  0  0  0  0  0  0  0  0  0
   -6.2720   -1.5600   -0.0250 C   0  0  0  0  0  0  0  0  0  0  0  0
   -5.6450   -2.9080    0.0010 C   0  0  0  0  0  0  0  0  0  0  0  0
   -4.3010   -2.9280   -0.5940 C   0  0  0  0  0  0  0  0  0  0  0  0
   -3.2560   -1.9970   -0.0300 C   0  0  0  0  0  0  0  0  0  0  0  0
   -3.6700   -0.6810   -0.0940 O   0  0  0  0  0  0  0  0  0  0  0  0
   -2.7680    0.2870    0.0570 C   0  0  0  0  0  0  0  0  0  0  0  0
   -1.9010    0.2720    1.2670 C   0  0  1  0  0  0  0  0  0  0  0  0
   -1.1970   -0.9260    1.3230 O   0  0  0  0  0  0  0  0  0  0  0  0
   -0.8500    1.3790    1.0470 C   0  0  0  0  0  0  0  0  0  0  0  0
   -0.0920    1.0290   -0.1910 C   0  0  0  0  0  0  0  0  0  0  0  0
   -0.1260   -0.1490   -0.6890 O   0  0  0  0  0  0  0  0  0  0  0  0
    0.7020    1.9160   -0.9100 O   0  0  0  0  0  0  0  0  0  0  0  0
    1.3680    1.5670   -2.0840 C   0  0  0  0  0  0  0  0  0  0  0  0
    2.2890    0.4330   -1.8720 C   0  0  0  0  0  0  0  0  0  0  0  0
    2.2530   -0.7210   -2.5750 C   0  0  0  0  0  0  0  0  0  0  0  0
    3.1130   -1.8040   -2.4410 C   0  0  0  0  0  0  0  0  0  0  0  0
    3.0050   -2.9890   -3.1970 N   0  0  0  0  0  0  0  0  0  0  0  0
    4.0840   -1.6140   -1.4440 C   0  0  0  0  0  0  0  0  0  0  0  0
    5.0490   -2.7120   -1.2850 C   0  0  0  0  0  0  0  0  0  0  0  0
    4.1810   -0.4940   -0.6920 C   0  0  0  0  0  0  0  0  0  0  0  0
    5.1900   -0.3260    0.3810 C   0  0  0  0  0  0  0  0  0  0  0  0
    5.7650   -1.3040    0.9310 O   0  0  0  0  0  0  0  0  0  0  0  0
    5.5430    0.9330    0.8080 O   0  0  0  0  0  0  0  0  0  0  0  0
    6.4900    1.2470    1.7560 C   0  0  2  0  0  0  0  0  0  0  0  0
    6.1060    2.2300    2.7140 C   0  0  0  0  0  0  0  0  0  0  0  0
    5.8050    3.0220    3.4710 N   0  0  0  0  0  0  0  0  0  0  0  0
    7.7440    1.8350    1.0400 C   0  0  0  0  0  0  0  0  0  0  0  0
    8.7130    2.1790    2.0880 C   0  0  0  0  0  0  0  0  0  0  0  0
    9.8830    2.9400    1.7620 N   0  0  0  0  0  0  0  0  0  0  0  0
    8.5240    1.8210    3.2620 O   0  0  0  0  0  0  0  0  0  0  0  0
    3.2970    0.5660   -0.8750 C   0  0  0  0  0  0  0  0  0  0  0  0
   -6.1440   -0.7410    1.0520 C   0  0  0  0  0  0  0  0  0  0  0  0
   -5.5010   -1.2040    2.2230 O   0  0  0  0  0  0  0  0  0  0  0  0
   -6.6120    0.5590    1.1140 C   0  0  0  0  0  0  0  0  0  0  0  0
  1  2  1  0
  2  3  1  0
  3  4  2  0
  3 39  1  0
  4  5  1  0
  5  6  2  0
  6  7  1  0
  6 37  1  0
  7  8  1  0
  8  9  1  0
  9 10  1  0
 10 11  1  0
 11 12  1  0
 12 13  1  6
 12 14  1  0
 14 15  1  0
 15 16  2  0
 15 17  1  0
 17 18  1  0
 18 19  1  0
 19 20  2  0
 19 36  1  0
 20 21  1  0
 21 22  1  0
 21 23  2  0
 23 24  1  0
 23 25  1  0
 25 26  1  0
 25 36  2  0
 26 27  2  0
 26 28  1  0
 28 29  1  0
 29 30  1  1
 29 32  1  0
 30 31  3  0
 32 33  1  0
 33 34  1  0
 33 35  2  0
 37 38  1  0
 37 39  2  0
M  END
