
     RDKit          3D

 39 39  0  0  0  0  0  0  0  0999 V2000
    6.7640   -7.0110   -0.9230 C   0  0  0  0  0  0  0  0  0  0  0  0
    6.8450   -5.6650   -0.5210 O   0  0  0  0  0  0  0  0  0  0  0  0
    5.7050   -4.9070   -0.3130 C   0  0  0  0  0  0  0  0  0  0  0  0
    4.5600   -5.3750   -0.4710 O   0  0  0  0  0  0  0  0  0  0  0  0
    5.8260   -3.5360    0.0980 N   0  0  0  0  0  0  0  0  0  0  0  0
    4.6870   -2.7030    0.3330 C   0  0  0  0  0  0  0  0  0  0  0  0
    3.5990   -3.3390    0.1260 O   0  0  0  0  0  0  0  0  0  0  0  0
    4.6990   -1.3310    0.7420 C   0  0  0  0  0  0  0  0  0  0  0  0
    5.9270   -0.7710    0.8860 C   0  0  0  0  0  0  0  0  0  0  0  0
    7.0900   -1.3950    0.6780 O   0  0  0  0  0  0  0  0  0  0  0  0
    3.6100   -0.4270    0.9910 C   0  0  0  0  0  0  0  0  0  0  0  0
    2.3820   -0.3610    1.0390 C   0  0  0  0  0  0  0  0  0  0  0  0
    1.0920   -1.0220    0.9180 C   0  0  0  0  0  0  0  0  0  0  0  0
    0.8480   -2.4520    0.7130 C   0  0  0  0  0  0  0  0  0  0  0  0
    0.0430   -0.2000    1.0930 C   0  0  0  0  0  0  0  0  0  0  0  0
   -1.3660   -0.4830    1.0430 C   0  0  0  0  0  0  0  0  0  0  0  0
   -1.8140   -1.6070    0.7950 O   0  0  0  0  0  0  0  0  0  0  0  0
   -2.3230    0.5480    1.2850 N   0  0  0  0  0  0  0  0  0  0  0  0
   -3.7250    0.5050    1.2650 C   0  0  0  0  0  0  0  0  0  0  0  0
   -4.4850    0.2460    0.0200 C   0  0  2  0  0  0  0  0  0  0  0  0
   -4.2040    1.2450   -1.0530 C   0  0  0  0  0  0  0  0  0  0  0  0
   -4.5490    2.6540   -0.8670 C   0  0  2  0  0  0  0  0  0  0  0  0
   -4.1300    3.3670   -2.1900 C   0  0  0  0  0  0  0  0  0  0  0  0
   -3.9290    3.4560    0.2100 C   0  0  0  0  0  0  0  0  0  0  0  0
   -5.9850    0.4030    0.4260 C   0  0  0  0  0  0  0  0  0  0  0  0
   -6.6610   -0.8810    0.7160 C   0  0  0  0  0  0  0  0  0  0  0  0
   -6.7190   -1.8070   -0.4790 C   0  0  2  0  0  0  0  0  0  0  0  0
   -6.7110   -3.2240    0.0270 C   0  0  0  0  0  0  0  0  0  0  0  0
   -7.7990   -3.4900    0.8570 O   0  0  0  0  0  0  0  0  0  0  0  0
   -5.4920   -1.6180   -1.3420 C   0  0  0  0  0  0  0  0  0  0  0  0
   -4.3170   -1.1560   -0.4600 C   0  0  0  0  0  0  0  0  0  0  0  0
    4.1740    0.9600    1.3150 O   0  0  0  0  0  0  0  0  0  0  0  0
    4.1060    1.8290    0.1980 C   0  0  0  0  0  0  0  0  0  0  0  0
    4.6450    3.1620    0.5150 C   0  0  0  0  0  0  0  0  0  0  0  0
    5.0940    3.3920    1.6640 O   0  0  0  0  0  0  0  0  0  0  0  0
    4.6650    4.1870   -0.4510 N   0  0  0  0  0  0  0  0  0  0  0  0
    5.1890    5.4890   -0.1480 C   0  0  0  0  0  0  0  0  0  0  0  0
    6.6480    5.4590    0.2620 C   0  0  0  0  0  0  0  0  0  0  0  0
    7.4350    4.9290   -0.7590 O   0  0  0  0  0  0  0  0  0  0  0  0
  1  2  1  0
  2  3  1  0
  3  4  2  0
  3  5  1  0
  5  6  1  0
  6  7  2  0
  6  8  1  0
  8  9  2  3
  8 11  1  0
  9 10  1  0
 11 12  2  3
 11 32  1  0
 12 13  1  0
 13 14  1  0
 13 15  2  3
 15 16  1  0
 16 17  2  0
 16 18  1  0
 18 19  1  0
 20 19  1  1
 20 21  1  0
 20 25  1  0
 20 31  1  0
 21 22  1  0
 22 23  1  6
 22 24  1  0
 25 26  1  0
 26 27  1  0
 27 28  1  1
 27 30  1  0
 28 29  1  0
 30 31  1  0
 32 33  1  0
 33 34  1  0
 34 35  2  0
 34 36  1  0
 36 37  1  0
 37 38  1  0
 38 39  1  0
M  END
