
     RDKit          3D

 39 40  0  0  0  0  0  0  0  0999 V2000
    3.4680   -4.4820    1.4090 C   0  0  0  0  0  0  0  0  0  0  0  0
    2.3770   -3.8720    2.2300 C   0  0  0  0  0  0  0  0  0  0  0  0
    1.5840   -2.9330    1.5360 O   0  0  0  0  0  0  0  0  0  0  0  0
    2.0750   -1.7670    0.9640 C   0  0  0  0  0  0  0  0  0  0  0  0
    3.3860   -1.3970    1.0090 C   0  0  0  0  0  0  0  0  0  0  0  0
    3.8690   -0.2030    0.4190 C   0  0  0  0  0  0  0  0  0  0  0  0
    5.3010    0.0290    0.4730 C   0  0  0  0  0  0  0  0  0  0  0  0
    5.9420   -0.0860    1.5820 O   0  0  0  0  0  0  0  0  0  0  0  0
    6.0550    0.3750   -0.6570 N   0  0  0  0  0  0  0  0  0  0  0  0
    7.5100    0.6050   -0.4880 C   0  0  1  0  0  0  0  0  0  0  0  0
    8.2060   -0.3510   -1.4310 C   0  0  0  0  0  0  0  0  0  0  0  0
    7.8200    2.0160   -0.9890 C   0  0  0  0  0  0  0  0  0  0  0  0
    9.1830    2.2430   -0.8390 O   0  0  0  0  0  0  0  0  0  0  0  0
    3.0090    0.6350   -0.2280 C   0  0  0  0  0  0  0  0  0  0  0  0
    3.3850    1.9440   -0.8120 C   0  0  0  0  0  0  0  0  0  0  0  0
    3.5640    2.9980    0.2730 C   0  0  0  0  0  0  0  0  0  0  0  0
    4.5620    2.6360    1.1710 O   0  0  0  0  0  0  0  0  0  0  0  0
    1.6560    0.2380   -0.2680 C   0  0  0  0  0  0  0  0  0  0  0  0
    1.2030   -0.9220    0.3070 C   0  0  0  0  0  0  0  0  0  0  0  0
   -0.1380   -1.2940    0.2540 O   0  0  0  0  0  0  0  0  0  0  0  0
   -1.0620   -0.4500   -0.4140 C   0  0  0  0  0  0  0  0  0  0  0  0
   -2.4430   -1.0620   -0.3480 C   0  0  0  0  0  0  0  0  0  0  0  0
   -3.4110   -0.1820   -1.0250 C   0  0  2  0  0  0  0  0  0  0  0  0
   -3.5230    1.1390   -0.3810 C   0  0  0  0  0  0  0  0  0  0  0  0
   -3.1490    1.4010    0.8410 C   0  0  0  0  0  0  0  0  0  0  0  0
   -3.3070    2.7630    1.3780 C   0  0  0  0  0  0  0  0  0  0  0  0
   -2.9290    3.0280    2.6120 C   0  0  0  0  0  0  0  0  0  0  0  0
   -3.0940    4.4020    3.1400 C   0  0  0  0  0  0  0  0  0  0  0  0
   -3.0390    5.2810    2.0610 O   0  0  0  0  0  0  0  0  0  0  0  0
   -4.0380    5.0270    1.2410 O   0  0  0  0  0  0  0  0  0  0  0  0
   -3.8850    3.8480    0.5580 C   0  0  0  0  0  0  0  0  0  0  0  0
   -4.7350   -0.7840   -1.4120 C   0  0  1  0  0  0  0  0  0  0  0  0
   -4.5490   -1.8440   -2.2830 O   0  0  0  0  0  0  0  0  0  0  0  0
   -5.6250   -1.0550   -0.2550 C   0  0  0  0  0  0  0  0  0  0  0  0
   -6.9730   -1.4310   -0.5830 N   0  0  0  0  0  0  0  0  0  0  0  0
   -7.3120   -2.5980   -1.3130 C   0  0  0  0  0  0  0  0  0  0  0  0
   -6.4530   -3.4120   -1.7260 O   0  0  0  0  0  0  0  0  0  0  0  0
   -8.6880   -2.9050   -1.6190 N   0  0  0  0  0  0  0  0  0  0  0  0
   -8.9820   -4.1040   -2.3640 C   0  0  0  0  0  0  0  0  0  0  0  0
  1  2  1  0
  2  3  1  0
  3  4  1  0
  4  5  2  0
  4 19  1  0
  5  6  1  0
  6  7  1  0
  6 14  2  0
  7  8  2  0
  7  9  1  0
  9 10  1  0
 10 11  1  6
 10 12  1  0
 12 13  1  0
 14 15  1  0
 14 18  1  0
 15 16  1  0
 16 17  1  0
 18 19  2  0
 19 20  1  0
 20 21  1  0
 21 22  1  0
 23 22  1  1
 23 24  1  0
 23 32  1  0
 24 25  2  3
 25 26  1  0
 26 27  2  0
 26 31  1  0
 27 28  1  0
 28 29  1  0
 29 30  1  0
 30 31  1  0
 32 33  1  1
 32 34  1  0
 34 35  1  0
 35 36  1  0
 36 37  2  0
 36 38  1  0
 38 39  1  0
M  END
