
     RDKit          3D

 39 40  0  0  0  0  0  0  0  0999 V2000
    7.0920   -4.5250   -1.6670 C   0  0  0  0  0  0  0  0  0  0  0  0
    6.1590   -3.6700   -2.4590 C   0  0  0  0  0  0  0  0  0  0  0  0
    5.5890   -2.6260   -1.7180 O   0  0  0  0  0  0  0  0  0  0  0  0
    6.3100   -1.6190   -1.0930 C   0  0  0  0  0  0  0  0  0  0  0  0
    7.5770   -1.7000   -1.2350 O   0  0  0  0  0  0  0  0  0  0  0  0
    5.6930   -0.5530   -0.3340 C   0  0  0  0  0  0  0  0  0  0  0  0
    4.3360   -0.4880   -0.1940 C   0  0  0  0  0  0  0  0  0  0  0  0
    3.7480    0.5500    0.5430 C   0  0  0  0  0  0  0  0  0  0  0  0
    2.2650    0.5340    0.6380 C   0  0  2  0  0  0  0  0  0  0  0  0
    1.8390    1.8230    0.4080 O   0  0  0  0  0  0  0  0  0  0  0  0
    1.7900   -0.0670    1.9310 C   0  0  0  0  0  0  0  0  0  0  0  0
    0.3720   -0.1430    1.9720 N   0  0  0  0  0  0  0  0  0  0  0  0
   -0.5510    0.9140    1.9510 C   0  0  0  0  0  0  0  0  0  0  0  0
   -0.1080    2.0700    1.9130 O   0  0  0  0  0  0  0  0  0  0  0  0
   -1.9470    0.7330    1.9710 N   0  0  0  0  0  0  0  0  0  0  0  0
   -2.9760    1.7130    1.9230 C   0  0  0  0  0  0  0  0  0  0  0  0
   -3.1270    2.5560    0.7130 C   0  0  2  0  0  0  0  0  0  0  0  0
   -2.0030    3.5280    0.4210 C   0  0  0  0  0  0  0  0  0  0  0  0
   -4.2460    3.3660    0.9510 O   0  0  0  0  0  0  0  0  0  0  0  0
   -3.2460    1.6890   -0.5240 C   0  0  0  0  0  0  0  0  0  0  0  0
   -4.2150    0.7950   -0.6220 O   0  0  0  0  0  0  0  0  0  0  0  0
   -5.5400    0.6120   -0.7020 C   0  0  0  0  0  0  0  0  0  0  0  0
   -6.4410    1.6550   -0.7390 C   0  0  0  0  0  0  0  0  0  0  0  0
   -7.8010    1.4010   -0.8160 C   0  0  0  0  0  0  0  0  0  0  0  0
   -8.2600    0.1050   -0.8570 C   0  0  0  0  0  0  0  0  0  0  0  0
   -9.6860   -0.1340   -0.9390 C   0  0  0  0  0  0  0  0  0  0  0  0
  -10.5970    0.9440   -1.0220 N   0  0  0  0  0  0  0  0  0  0  0  0
  -10.1020   -1.3170   -0.9350 O   0  0  0  0  0  0  0  0  0  0  0  0
   -7.3460   -0.9530   -0.8200 C   0  0  0  0  0  0  0  0  0  0  0  0
   -6.0090   -0.7280   -0.7440 C   0  0  0  0  0  0  0  0  0  0  0  0
   -5.0580   -1.7570   -0.7050 O   0  0  0  0  0  0  0  0  0  0  0  0
   -5.4410   -3.1130   -0.7420 C   0  0  0  0  0  0  0  0  0  0  0  0
   -4.2240   -3.9920   -0.6850 C   0  0  0  0  0  0  0  0  0  0  0  0
    4.5100    1.5050    1.1290 C   0  0  0  0  0  0  0  0  0  0  0  0
    5.8890    1.4500    0.9940 C   0  0  0  0  0  0  0  0  0  0  0  0
    6.4730    0.4110    0.2570 C   0  0  0  0  0  0  0  0  0  0  0  0
    7.8490    0.3330    0.1070 O   0  0  0  0  0  0  0  0  0  0  0  0
    8.7480    1.2600    0.6650 C   0  0  0  0  0  0  0  0  0  0  0  0
   10.1570    0.8370    0.2820 C   0  0  0  0  0  0  0  0  0  0  0  0
  1  2  1  0
  2  3  1  0
  3  4  1  0
  4  5  2  0
  4  6  1  0
  6  7  2  0
  6 36  1  0
  7  8  1  0
  8  9  1  0
  8 34  2  0
  9 10  1  1
  9 11  1  0
 11 12  1  0
 12 13  1  0
 13 14  2  0
 13 15  1  0
 15 16  1  0
 16 17  1  0
 17 18  1  6
 17 19  1  0
 17 20  1  0
 20 21  1  0
 21 22  1  0
 22 23  2  0
 22 30  1  0
 23 24  1  0
 24 25  2  0
 25 26  1  0
 25 29  1  0
 26 27  1  0
 26 28  2  0
 29 30  2  0
 30 31  1  0
 31 32  1  0
 32 33  1  0
 34 35  1  0
 35 36  2  0
 36 37  1  0
 37 38  1  0
 38 39  1  0
M  END
