
     RDKit          3D

 39 40  0  0  0  0  0  0  0  0999 V2000
   -8.6170    3.3250    1.1340 C   0  0  0  0  0  0  0  0  0  0  0  0
   -8.7150    2.2670    0.0800 C   0  0  0  0  0  0  0  0  0  0  0  0
   -8.1240    0.9810    0.6190 C   0  0  1  0  0  0  0  0  0  0  0  0
   -8.9240    0.6050    1.8720 C   0  0  0  0  0  0  0  0  0  0  0  0
   -8.4320   -0.1580   -0.3540 C   0  0  0  0  0  0  0  0  0  0  0  0
   -6.7620    1.0440    0.9590 N   0  0  0  0  0  0  0  0  0  0  0  0
   -5.7320    1.2280   -0.0100 C   0  0  0  0  0  0  0  0  0  0  0  0
   -6.0090    1.3440   -1.2250 O   0  0  0  0  0  0  0  0  0  0  0  0
   -4.3650    1.2700    0.3900 N   0  0  0  0  0  0  0  0  0  0  0  0
   -3.3980    1.2930   -0.7310 C   0  0  0  0  0  0  0  0  0  0  0  0
   -2.6980   -0.0360   -0.6230 C   0  0  0  0  0  0  0  0  0  0  0  0
   -1.3220   -0.0950   -0.6180 C   0  0  0  0  0  0  0  0  0  0  0  0
   -0.6130   -1.2510   -0.6170 C   0  0  0  0  0  0  0  0  0  0  0  0
    0.6870   -1.3890   -0.6120 O   0  0  0  0  0  0  0  0  0  0  0  0
    1.9080   -1.4490   -0.6060 C   0  0  0  0  0  0  0  0  0  0  0  0
    3.3480   -1.5300   -0.5990 C   0  0  2  0  0  0  0  0  0  0  0  0
    3.8610   -2.5890    0.2310 O   0  0  0  0  0  0  0  0  0  0  0  0
    3.8930   -0.2950    0.1740 C   0  0  0  0  0  0  0  0  0  0  0  0
    5.3560   -0.4940    0.1540 C   0  0  0  0  0  0  0  0  0  0  0  0
    5.8240   -1.5220   -0.4630 O   0  0  0  0  0  0  0  0  0  0  0  0
    6.2700    0.4230    0.8040 N   0  0  0  0  0  0  0  0  0  0  0  0
    7.6410    0.1220    0.7130 C   0  0  0  0  0  0  0  0  0  0  0  0
    8.1780   -1.0950    0.5740 C   0  0  0  0  0  0  0  0  0  0  0  0
    9.5730   -1.3140    0.4070 C   0  0  0  0  0  0  0  0  0  0  0  0
   10.1370   -2.5450    0.2600 O   0  0  0  0  0  0  0  0  0  0  0  0
   10.4010   -0.2070    0.3980 C   0  0  0  0  0  0  0  0  0  0  0  0
    9.8300    1.0470    0.5490 C   0  0  0  0  0  0  0  0  0  0  0  0
    8.4850    1.2690    0.7090 C   0  0  0  0  0  0  0  0  0  0  0  0
    7.8990    2.4680    0.8890 O   0  0  0  0  0  0  0  0  0  0  0  0
    8.3130    3.7830    0.8380 C   0  0  0  0  0  0  0  0  0  0  0  0
    8.4070    4.2250   -0.6610 C   0  0  0  0  0  0  0  0  0  0  0  0
    7.0400    4.0060   -1.0930 O   0  0  0  0  0  0  0  0  0  0  0  0
   -1.3350   -2.5120   -0.6180 C   0  0  0  0  0  0  0  0  0  0  0  0
   -0.5810   -3.6660   -0.5980 O   0  0  0  0  0  0  0  0  0  0  0  0
   -1.1830   -4.9260   -0.5520 C   0  0  0  0  0  0  0  0  0  0  0  0
   -2.6820   -2.4340   -0.6190 C   0  0  0  0  0  0  0  0  0  0  0  0
   -3.3530   -1.2280   -0.6230 C   0  0  0  0  0  0  0  0  0  0  0  0
   -4.7480   -1.2450   -0.6150 O   0  0  0  0  0  0  0  0  0  0  0  0
   -5.5280   -2.4270   -0.5870 C   0  0  0  0  0  0  0  0  0  0  0  0
  1  2  1  0
  2  3  1  0
  3  4  1  1
  3  5  1  0
  3  6  1  0
  6  7  1  0
  7  8  2  0
  7  9  1  0
  9 10  1  0
 10 11  1  0
 11 12  2  0
 11 37  1  0
 12 13  1  0
 13 14  1  0
 13 33  2  0
 14 15  1  0
 15 16  1  0
 16 17  1  1
 16 18  1  0
 18 19  1  0
 19 20  2  0
 19 21  1  0
 21 22  1  0
 22 23  2  0
 22 28  1  0
 23 24  1  0
 24 25  1  0
 24 26  2  0
 26 27  1  0
 27 28  2  0
 28 29  1  0
 29 30  1  0
 30 31  1  0
 31 32  1  0
 33 34  1  0
 33 36  1  0
 34 35  1  0
 36 37  2  0
 37 38  1  0
 38 39  1  0
M  END
