
     RDKit          3D

 39 40  0  0  0  0  0  0  0  0999 V2000
   -6.9700   -0.6690    2.6260 C   0  0  0  0  0  0  0  0  0  0  0  0
   -7.8040   -0.1920    1.5860 O   0  0  0  0  0  0  0  0  0  0  0  0
   -7.1670    0.2630    0.4280 C   0  0  0  0  0  0  0  0  0  0  0  0
   -5.7830    0.2520    0.2920 C   0  0  0  0  0  0  0  0  0  0  0  0
   -5.1780    0.7050   -0.8580 C   0  0  0  0  0  0  0  0  0  0  0  0
   -3.7920    0.7050   -1.0200 O   0  0  0  0  0  0  0  0  0  0  0  0
   -2.9280    0.2390   -0.0020 C   0  0  0  0  0  0  0  0  0  0  0  0
   -1.5150    0.3720   -0.4940 C   0  0  0  0  0  0  0  0  0  0  0  0
   -0.5590   -0.0690    0.4510 O   0  0  0  0  0  0  0  0  0  0  0  0
    0.7850    0.0220    0.0560 C   0  0  0  0  0  0  0  0  0  0  0  0
    1.1680    0.5060   -1.1690 C   0  0  0  0  0  0  0  0  0  0  0  0
    2.4660    0.6060   -1.5830 C   0  0  0  0  0  0  0  0  0  0  0  0
    2.7940    1.1440   -2.9350 C   0  0  0  0  0  0  0  0  0  0  0  0
    3.4810    0.1870   -0.6950 C   0  0  0  0  0  0  0  0  0  0  0  0
    4.7800    0.3170   -1.1770 N   0  0  0  0  0  0  0  0  0  0  0  0
    5.9450   -0.0460   -0.4550 C   0  0  0  0  0  0  0  0  0  0  0  0
    5.8710   -0.5170    0.6850 O   0  0  0  0  0  0  0  0  0  0  0  0
    7.2420    0.1250   -1.0310 N   0  0  0  0  0  0  0  0  0  0  0  0
    8.4860   -0.1870   -0.4020 C   0  0  0  0  0  0  0  0  0  0  0  0
    8.7750    0.6350    0.7950 C   0  0  1  0  0  0  0  0  0  0  0  0
    7.8110    0.4280    1.7850 O   0  0  0  0  0  0  0  0  0  0  0  0
   10.1570    0.5260    1.3410 C   0  0  0  0  0  0  0  0  0  0  0  0
   10.6320   -0.7870    1.8250 C   0  0  1  0  0  0  0  0  0  0  0  0
   10.7030   -1.9080    0.8430 C   0  0  0  0  0  0  0  0  0  0  0  0
   11.8870   -0.5710    2.4400 O   0  0  0  0  0  0  0  0  0  0  0  0
    3.1290   -0.3010    0.5360 C   0  0  0  0  0  0  0  0  0  0  0  0
    1.7750   -0.3810    0.9070 C   0  0  0  0  0  0  0  0  0  0  0  0
    1.4530   -0.8780    2.1560 O   0  0  0  0  0  0  0  0  0  0  0  0
    2.3830   -1.3250    3.1100 C   0  0  0  0  0  0  0  0  0  0  0  0
   -6.0020    1.1680   -1.8680 C   0  0  0  0  0  0  0  0  0  0  0  0
   -5.3710    1.6190   -3.0170 O   0  0  0  0  0  0  0  0  0  0  0  0
   -6.1360    2.1090   -4.1010 C   0  0  0  0  0  0  0  0  0  0  0  0
   -7.3830    1.1790   -1.7330 C   0  0  0  0  0  0  0  0  0  0  0  0
   -7.9900    0.7240   -0.5790 C   0  0  0  0  0  0  0  0  0  0  0  0
   -9.4700    0.7220   -0.4120 C   0  0  0  0  0  0  0  0  0  0  0  0
  -10.0300   -0.6810   -0.5770 C   0  0  0  0  0  0  0  0  0  0  0  0
  -11.4850   -0.7240   -0.4230 C   0  0  0  0  0  0  0  0  0  0  0  0
  -12.1260   -1.9920   -0.5640 N   0  0  0  0  0  0  0  0  0  0  0  0
  -12.1910    0.2810   -0.1750 O   0  0  0  0  0  0  0  0  0  0  0  0
  1  2  1  0
  2  3  1  0
  3  4  2  0
  3 34  1  0
  4  5  1  0
  5  6  1  0
  5 30  2  0
  6  7  1  0
  7  8  1  0
  8  9  1  0
  9 10  1  0
 10 11  2  0
 10 27  1  0
 11 12  1  0
 12 13  1  0
 12 14  2  0
 14 15  1  0
 14 26  1  0
 15 16  1  0
 16 17  2  0
 16 18  1  0
 18 19  1  0
 19 20  1  0
 20 21  1  1
 20 22  1  0
 22 23  1  0
 23 24  1  6
 23 25  1  0
 26 27  2  0
 27 28  1  0
 28 29  1  0
 30 31  1  0
 30 33  1  0
 31 32  1  0
 33 34  2  0
 34 35  1  0
 35 36  1  0
 36 37  1  0
 37 38  1  0
 37 39  2  0
M  END
