
     RDKit          3D

 39 40  0  0  0  0  0  0  0  0999 V2000
   10.0370   -1.6750    2.5190 C   0  0  0  0  0  0  0  0  0  0  0  0
    8.5120   -1.7940    2.3630 C   0  0  0  0  0  0  0  0  0  0  0  0
    7.9640   -0.5890    1.6740 C   0  0  2  0  0  0  0  0  0  0  0  0
    8.6390   -0.4960    0.2900 C   0  0  0  0  0  0  0  0  0  0  0  0
    8.1660    0.6690    2.4670 C   0  0  0  0  0  0  0  0  0  0  0  0
    6.5230   -0.7560    1.4150 N   0  0  0  0  0  0  0  0  0  0  0  0
    5.8250    0.2490    0.7020 C   0  0  0  0  0  0  0  0  0  0  0  0
    6.4070    1.3200    0.3010 O   0  0  0  0  0  0  0  0  0  0  0  0
    4.4470    0.1560    0.3420 N   0  0  0  0  0  0  0  0  0  0  0  0
    3.8360    1.1610   -0.5130 C   0  0  0  0  0  0  0  0  0  0  0  0
    2.4280    0.8940   -0.8390 C   0  0  0  0  0  0  0  0  0  0  0  0
    1.3890    1.7460   -0.6610 C   0  0  0  0  0  0  0  0  0  0  0  0
    0.0820    1.5380   -1.2180 C   0  0  0  0  0  0  0  0  0  0  0  0
   -0.8290    2.4080   -1.0180 O   0  0  0  0  0  0  0  0  0  0  0  0
   -1.6710    3.3790   -0.7320 C   0  0  0  0  0  0  0  0  0  0  0  0
   -3.0080    3.4050   -1.3870 C   0  0  2  0  0  0  0  0  0  0  0  0
   -3.6880    4.6040   -0.9380 O   0  0  0  0  0  0  0  0  0  0  0  0
   -3.9360    2.2810   -1.2980 C   0  0  0  0  0  0  0  0  0  0  0  0
   -4.4360    1.8920    0.0430 C   0  0  0  0  0  0  0  0  0  0  0  0
   -3.9450    2.3290    1.0850 O   0  0  0  0  0  0  0  0  0  0  0  0
   -5.5300    0.9920    0.1020 N   0  0  0  0  0  0  0  0  0  0  0  0
   -6.1960    0.4870    1.2430 C   0  0  0  0  0  0  0  0  0  0  0  0
   -5.9100    0.8660    2.5070 C   0  0  0  0  0  0  0  0  0  0  0  0
   -6.6690    0.3500    3.5620 C   0  0  0  0  0  0  0  0  0  0  0  0
   -6.3110    0.7920    4.8500 O   0  0  0  0  0  0  0  0  0  0  0  0
   -7.6800   -0.5230    3.3150 C   0  0  0  0  0  0  0  0  0  0  0  0
   -7.9750   -0.9220    2.0060 C   0  0  0  0  0  0  0  0  0  0  0  0
   -7.2480   -0.4290    0.9640 C   0  0  0  0  0  0  0  0  0  0  0  0
   -7.4960   -0.7830   -0.3300 O   0  0  0  0  0  0  0  0  0  0  0  0
   -8.3820   -1.6180   -0.9540 C   0  0  0  0  0  0  0  0  0  0  0  0
   -8.3400   -3.0790   -0.6190 C   0  0  0  0  0  0  0  0  0  0  0  0
   -9.3450   -3.6820   -1.4200 O   0  0  0  0  0  0  0  0  0  0  0  0
   -0.0770    0.3650   -1.9700 C   0  0  0  0  0  0  0  0  0  0  0  0
   -1.2990    0.0480   -2.5630 O   0  0  0  0  0  0  0  0  0  0  0  0
   -1.4280   -1.1150   -3.3040 C   0  0  0  0  0  0  0  0  0  0  0  0
    0.9780   -0.4890   -2.1340 C   0  0  0  0  0  0  0  0  0  0  0  0
    2.2250   -0.2710   -1.5990 C   0  0  0  0  0  0  0  0  0  0  0  0
    3.2850   -1.1360   -1.7640 O   0  0  0  0  0  0  0  0  0  0  0  0
    3.2110   -2.3200   -2.4850 C   0  0  0  0  0  0  0  0  0  0  0  0
  1  2  1  0
  2  3  1  0
  3  4  1  6
  3  5  1  0
  3  6  1  0
  6  7  1  0
  7  8  2  0
  7  9  1  0
  9 10  1  0
 10 11  1  0
 11 12  2  0
 11 37  1  0
 12 13  1  0
 13 14  1  0
 13 33  2  0
 14 15  1  0
 15 16  1  0
 16 17  1  1
 16 18  1  0
 18 19  1  0
 19 20  2  0
 19 21  1  0
 21 22  1  0
 22 23  2  0
 22 28  1  0
 23 24  1  0
 24 25  1  0
 24 26  2  0
 26 27  1  0
 27 28  2  0
 28 29  1  0
 29 30  1  0
 30 31  1  0
 31 32  1  0
 33 34  1  0
 33 36  1  0
 34 35  1  0
 36 37  2  0
 37 38  1  0
 38 39  1  0
M  END
