
     RDKit          3D

 39 40  0  0  0  0  0  0  0  0999 V2000
    9.7310   -1.6300    2.8220 C   0  0  0  0  0  0  0  0  0  0  0  0
    9.7180   -0.1150    2.7510 C   0  0  0  0  0  0  0  0  0  0  0  0
    8.8630    0.2430    1.6810 O   0  0  0  0  0  0  0  0  0  0  0  0
    7.5260   -0.0910    1.6180 C   0  0  0  0  0  0  0  0  0  0  0  0
    7.0470   -0.7520    2.5740 O   0  0  0  0  0  0  0  0  0  0  0  0
    6.6840    0.2990    0.4940 C   0  0  0  0  0  0  0  0  0  0  0  0
    5.3560   -0.0390    0.4470 C   0  0  0  0  0  0  0  0  0  0  0  0
    4.5400    0.3150   -0.6010 C   0  0  0  0  0  0  0  0  0  0  0  0
    3.1070   -0.0360   -0.6750 C   0  0  2  0  0  0  0  0  0  0  0  0
    2.9120   -0.5490   -1.9850 O   0  0  0  0  0  0  0  0  0  0  0  0
    2.1800    1.1240   -0.5680 C   0  0  0  0  0  0  0  0  0  0  0  0
    0.8270    0.6660   -0.7620 N   0  0  0  0  0  0  0  0  0  0  0  0
    0.1810   -0.2490    0.0750 C   0  0  0  0  0  0  0  0  0  0  0  0
    0.8280   -0.6870    1.0890 O   0  0  0  0  0  0  0  0  0  0  0  0
   -1.1370   -0.7340   -0.1100 N   0  0  0  0  0  0  0  0  0  0  0  0
   -1.6890   -1.6660    0.8300 C   0  0  0  0  0  0  0  0  0  0  0  0
   -3.0730   -2.1120    0.5050 C   0  0  2  0  0  0  0  0  0  0  0  0
   -3.5690   -3.0830    1.5260 C   0  0  0  0  0  0  0  0  0  0  0  0
   -3.0720   -2.7500   -0.7550 O   0  0  0  0  0  0  0  0  0  0  0  0
   -3.9910   -0.9070    0.4560 C   0  0  0  0  0  0  0  0  0  0  0  0
   -5.3100   -1.3010    0.1260 O   0  0  0  0  0  0  0  0  0  0  0  0
   -6.2860   -0.3380    0.0140 C   0  0  0  0  0  0  0  0  0  0  0  0
   -6.0320    0.9910    0.2140 C   0  0  0  0  0  0  0  0  0  0  0  0
   -7.0370    1.9470    0.0900 C   0  0  0  0  0  0  0  0  0  0  0  0
   -8.3170    1.5610   -0.2390 C   0  0  0  0  0  0  0  0  0  0  0  0
   -9.3790    2.5440   -0.3720 C   0  0  0  0  0  0  0  0  0  0  0  0
   -9.1100    3.9040   -0.1380 N   0  0  0  0  0  0  0  0  0  0  0  0
  -10.5280    2.1850   -0.6920 O   0  0  0  0  0  0  0  0  0  0  0  0
   -8.5870    0.2140   -0.4440 C   0  0  0  0  0  0  0  0  0  0  0  0
   -7.5930   -0.7120   -0.3200 C   0  0  0  0  0  0  0  0  0  0  0  0
   -7.8170   -2.0540   -0.5130 O   0  0  0  0  0  0  0  0  0  0  0  0
   -9.0680   -2.5890   -0.8740 C   0  0  0  0  0  0  0  0  0  0  0  0
   -9.5480   -2.0550   -2.1850 C   0  0  0  0  0  0  0  0  0  0  0  0
    5.0720    1.0380   -1.6480 C   0  0  0  0  0  0  0  0  0  0  0  0
    6.3970    1.4000   -1.6470 C   0  0  0  0  0  0  0  0  0  0  0  0
    7.1970    1.0310   -0.5790 C   0  0  0  0  0  0  0  0  0  0  0  0
    8.5240    1.3530   -0.5040 O   0  0  0  0  0  0  0  0  0  0  0  0
    9.2530    2.0810   -1.4590 C   0  0  0  0  0  0  0  0  0  0  0  0
    8.7120    3.4680   -1.6650 C   0  0  0  0  0  0  0  0  0  0  0  0
  1  2  1  0
  2  3  1  0
  3  4  1  0
  4  5  2  0
  4  6  1  0
  6  7  2  0
  6 36  1  0
  7  8  1  0
  8  9  1  0
  8 34  2  0
  9 10  1  6
  9 11  1  0
 11 12  1  0
 12 13  1  0
 13 14  2  0
 13 15  1  0
 15 16  1  0
 16 17  1  0
 17 18  1  1
 17 19  1  0
 17 20  1  0
 20 21  1  0
 21 22  1  0
 22 23  2  0
 22 30  1  0
 23 24  1  0
 24 25  2  0
 25 26  1  0
 25 29  1  0
 26 27  1  0
 26 28  2  0
 29 30  2  0
 30 31  1  0
 31 32  1  0
 32 33  1  0
 34 35  1  0
 35 36  2  0
 36 37  1  0
 37 38  1  0
 38 39  1  0
M  END
