
     RDKit          3D

 45 49  0  0  0  0  0  0  0  0999 V2000
   -5.2470    0.8550   -3.7170 C   0  0  0  0  0  0  0  0  0  0  0  0
   -4.3410    1.4680   -2.6760 C   0  0  1  0  0  0  0  0  0  0  0  0
   -3.1870    2.1120   -3.4180 C   0  0  0  0  0  0  0  0  0  0  0  0
   -5.1270    2.5300   -1.9420 C   0  0  0  0  0  0  0  0  0  0  0  0
   -3.8680    0.4240   -1.7800 N   0  0  0  0  0  0  0  0  0  0  0  0
   -2.9890    0.7150   -0.6930 C   0  0  0  0  0  0  0  0  0  0  0  0
   -2.6580    1.9340   -0.5680 O   0  0  0  0  0  0  0  0  0  0  0  0
   -2.5040   -0.3500    0.2230 C   0  0  2  0  0  0  0  0  0  0  0  0
   -3.7200   -1.0990    0.7090 C   0  0  0  0  0  0  0  0  0  0  0  0
   -3.1930   -2.0830    1.6670 N   0  0  2  0  0  0  0  0  0  0  0  0
   -4.1300   -3.1030    2.0060 C   0  0  0  0  0  0  0  0  0  0  0  0
   -5.4530   -2.5590    2.4140 C   0  0  0  0  0  0  0  0  0  0  0  0
   -5.6840   -2.2120    3.7170 C   0  0  0  0  0  0  0  0  0  0  0  0
   -6.9090   -1.7150    4.0800 C   0  0  0  0  0  0  0  0  0  0  0  0
   -7.8720   -1.5820    3.1050 C   0  0  0  0  0  0  0  0  0  0  0  0
   -7.6420   -1.9230    1.8270 N   0  0  0  0  0  0  0  0  0  0  0  0
   -6.4400   -2.4100    1.4740 C   0  0  0  0  0  0  0  0  0  0  0  0
   -2.8550   -1.2990    2.8230 C   0  0  0  0  0  0  0  0  0  0  0  0
   -1.7010   -0.3990    2.5120 C   0  0  0  0  0  0  0  0  0  0  0  0
   -1.6470    0.1530    1.2210 N   0  0  1  0  0  0  0  0  0  0  0  0
   -0.2560   -0.0070    0.7270 C   0  0  0  0  0  0  0  0  0  0  0  0
    0.6540    0.9950    1.3900 C   0  0  1  0  0  0  0  0  0  0  0  0
    0.6330    0.8620    2.7840 O   0  0  0  0  0  0  0  0  0  0  0  0
    2.0600    0.7940    0.8960 C   0  0  0  0  0  0  0  0  0  0  0  0
    2.1680    1.0040   -0.5710 C   0  0  1  0  0  0  0  0  0  0  0  0
    1.8090    2.3870   -0.9880 C   0  0  0  0  0  0  0  0  0  0  0  0
    2.6150    3.5010   -0.5110 C   0  0  0  0  0  0  0  0  0  0  0  0
    2.4800    4.0370    0.7350 C   0  0  0  0  0  0  0  0  0  0  0  0
    3.2400    5.1280    1.1350 C   0  0  0  0  0  0  0  0  0  0  0  0
    4.1530    5.7130    0.3050 C   0  0  0  0  0  0  0  0  0  0  0  0
    4.3100    5.1970   -0.9550 C   0  0  0  0  0  0  0  0  0  0  0  0
    3.5530    4.1160   -1.3440 C   0  0  0  0  0  0  0  0  0  0  0  0
    3.4950    0.6160   -1.0970 C   0  0  0  0  0  0  0  0  0  0  0  0
    4.2850    1.4460   -1.5430 O   0  0  0  0  0  0  0  0  0  0  0  0
    3.9340   -0.7490   -1.1150 N   0  0  0  0  0  0  0  0  0  0  0  0
    5.2020   -1.1860   -1.6070 C   0  0  1  0  0  0  0  0  0  0  0  0
    5.9740   -1.9740   -0.6130 C   0  0  0  0  0  0  0  0  0  0  0  0
    6.0830   -1.9610    0.7540 C   0  0  0  0  0  0  0  0  0  0  0  0
    6.9070   -2.8370    1.4450 C   0  0  0  0  0  0  0  0  0  0  0  0
    7.6500   -3.7590    0.7700 C   0  0  0  0  0  0  0  0  0  0  0  0
    7.5550   -3.7910   -0.6200 C   0  0  0  0  0  0  0  0  0  0  0  0
    6.7310   -2.9120   -1.2910 C   0  0  0  0  0  0  0  0  0  0  0  0
    6.4810   -2.7730   -2.7560 C   0  0  0  0  0  0  0  0  0  0  0  0
    5.0820   -2.1730   -2.7490 C   0  0  1  0  0  0  0  0  0  0  0  0
    4.1960   -3.2050   -2.4750 O   0  0  0  0  0  0  0  0  0  0  0  0
  2  1  1  6
  2  3  1  0
  2  4  1  0
  2  5  1  0
  5  6  1  0
  6  7  2  0
  8  6  1  1
  8  9  1  0
  8 20  1  0
  9 10  1  0
 10 11  1  1
 10 18  1  0
 11 12  1  0
 12 13  2  0
 12 17  1  0
 13 14  1  0
 14 15  2  0
 15 16  1  0
 16 17  2  0
 18 19  1  0
 19 20  1  0
 20 21  1  6
 21 22  1  0
 22 23  1  1
 22 24  1  0
 25 24  1  1
 25 26  1  0
 25 33  1  0
 26 27  1  0
 27 28  2  0
 27 32  1  0
 28 29  1  0
 29 30  2  0
 30 31  1  0
 31 32  2  0
 33 34  2  0
 33 35  1  0
 36 35  1  1
 36 37  1  0
 36 44  1  0
 37 38  2  0
 37 42  1  0
 38 39  1  0
 39 40  2  0
 40 41  1  0
 41 42  2  0
 42 43  1  0
 43 44  1  0
 44 45  1  1
M  CHG  2  10   1  20   1
M  END
