
     RDKit          3D

 39 40  0  0  0  0  0  0  0  0999 V2000
   -8.7310    1.6630   -0.9170 C   0  0  0  0  0  0  0  0  0  0  0  0
   -7.2560    1.3340   -0.7160 C   0  0  0  0  0  0  0  0  0  0  0  0
   -6.6870    1.0270   -2.0690 C   0  0  1  0  0  0  0  0  0  0  0  0
   -7.4710   -0.1690   -2.6240 C   0  0  0  0  0  0  0  0  0  0  0  0
   -6.9560    2.2370   -2.9450 C   0  0  0  0  0  0  0  0  0  0  0  0
   -5.3040    0.6940   -2.1170 N   0  0  0  0  0  0  0  0  0  0  0  0
   -4.7610   -0.4200   -1.4070 C   0  0  0  0  0  0  0  0  0  0  0  0
   -5.5890   -1.0760   -0.7280 O   0  0  0  0  0  0  0  0  0  0  0  0
   -3.3690   -0.7560   -1.4740 N   0  0  0  0  0  0  0  0  0  0  0  0
   -2.7930   -1.8390   -0.7360 C   0  0  0  0  0  0  0  0  0  0  0  0
   -2.1730   -1.4890    0.5490 C   0  0  0  0  0  0  0  0  0  0  0  0
   -0.9370   -2.0630    0.8710 C   0  0  0  0  0  0  0  0  0  0  0  0
   -0.2570   -1.9030    2.0380 C   0  0  0  0  0  0  0  0  0  0  0  0
    0.9540   -2.4570    2.3670 O   0  0  0  0  0  0  0  0  0  0  0  0
    1.7250   -3.2430    1.5560 C   0  0  0  0  0  0  0  0  0  0  0  0
    2.3140   -2.6070    0.3210 C   0  0  2  0  0  0  0  0  0  0  0  0
    2.9880   -3.6230   -0.4130 O   0  0  0  0  0  0  0  0  0  0  0  0
    3.4720   -1.6930    0.7620 C   0  0  0  0  0  0  0  0  0  0  0  0
    4.1070   -1.0390   -0.4220 C   0  0  0  0  0  0  0  0  0  0  0  0
    3.5680   -1.2070   -1.5250 O   0  0  0  0  0  0  0  0  0  0  0  0
    5.2670   -0.2860   -0.1890 N   0  0  0  0  0  0  0  0  0  0  0  0
    5.9640    0.3860   -1.2120 C   0  0  0  0  0  0  0  0  0  0  0  0
    5.5690    0.5100   -2.5050 C   0  0  0  0  0  0  0  0  0  0  0  0
    6.3000    1.2150   -3.4680 C   0  0  0  0  0  0  0  0  0  0  0  0
    5.8730    1.3250   -4.7770 O   0  0  0  0  0  0  0  0  0  0  0  0
    7.4660    1.7970   -3.0560 C   0  0  0  0  0  0  0  0  0  0  0  0
    7.9070    1.6990   -1.7650 C   0  0  0  0  0  0  0  0  0  0  0  0
    7.1800    0.9940   -0.7910 C   0  0  0  0  0  0  0  0  0  0  0  0
    7.5960    0.8920    0.4460 O   0  0  0  0  0  0  0  0  0  0  0  0
    8.3820    1.0830    1.4650 C   0  0  0  0  0  0  0  0  0  0  0  0
    8.5190    2.5370    1.9150 C   0  0  0  0  0  0  0  0  0  0  0  0
    9.0280    3.2860    0.8870 O   0  0  0  0  0  0  0  0  0  0  0  0
   -0.8580   -1.0790    3.0090 C   0  0  0  0  0  0  0  0  0  0  0  0
   -0.1950   -0.8740    4.2350 O   0  0  0  0  0  0  0  0  0  0  0  0
   -0.8350   -0.0210    5.1610 C   0  0  0  0  0  0  0  0  0  0  0  0
   -2.0610   -0.4980    2.7390 C   0  0  0  0  0  0  0  0  0  0  0  0
   -2.7120   -0.6970    1.5300 C   0  0  0  0  0  0  0  0  0  0  0  0
   -3.9010   -0.0690    1.3620 O   0  0  0  0  0  0  0  0  0  0  0  0
   -4.6120    0.7600    2.2030 C   0  0  0  0  0  0  0  0  0  0  0  0
  1  2  1  0
  2  3  1  0
  3  4  1  6
  3  5  1  0
  3  6  1  0
  6  7  1  0
  7  8  2  0
  7  9  1  0
  9 10  1  0
 10 11  1  0
 11 12  2  0
 11 37  1  0
 12 13  1  0
 13 14  1  0
 13 33  2  0
 14 15  1  0
 15 16  1  0
 16 17  1  6
 16 18  1  0
 18 19  1  0
 19 20  2  0
 19 21  1  0
 21 22  1  0
 22 23  2  0
 22 28  1  0
 23 24  1  0
 24 25  1  0
 24 26  2  0
 26 27  1  0
 27 28  2  0
 28 29  1  0
 29 30  1  0
 30 31  1  0
 31 32  1  0
 33 34  1  0
 33 36  1  0
 34 35  1  0
 36 37  2  0
 37 38  1  0
 38 39  1  0
M  END
