
     RDKit          3D

 39 40  0  0  0  0  0  0  0  0999 V2000
   10.5170   -1.6390   -1.8820 C   0  0  0  0  0  0  0  0  0  0  0  0
    9.1720   -1.1690   -1.4030 C   0  0  0  0  0  0  0  0  0  0  0  0
    8.2420   -1.2340   -2.4530 O   0  0  0  0  0  0  0  0  0  0  0  0
    8.1140   -2.4770   -2.9740 C   0  0  0  0  0  0  0  0  0  0  0  0
    7.1240   -2.6030   -4.0900 C   0  0  0  0  0  0  0  0  0  0  0  0
    5.8040   -2.2110   -3.6700 N   0  0  0  0  0  0  0  0  0  0  0  0
    5.4260   -0.9030   -3.3070 C   0  0  0  0  0  0  0  0  0  0  0  0
    6.2530    0.0480   -3.3480 O   0  0  0  0  0  0  0  0  0  0  0  0
    4.0480   -0.5900   -2.8630 C   0  0  0  0  0  0  0  0  0  0  0  0
    3.2400   -1.5680   -2.6880 O   0  0  0  0  0  0  0  0  0  0  0  0
    3.6310    0.7310   -2.6430 N   0  0  0  0  0  0  0  0  0  0  0  0
    2.3580    1.1540   -2.2010 C   0  0  0  0  0  0  0  0  0  0  0  0
    1.5770    0.4230   -1.3730 C   0  0  0  0  0  0  0  0  0  0  0  0
    0.3840    0.9140   -0.8790 C   0  0  0  0  0  0  0  0  0  0  0  0
   -0.0780    2.2060   -1.2200 C   0  0  0  0  0  0  0  0  0  0  0  0
   -1.2080    2.6560   -0.7230 O   0  0  0  0  0  0  0  0  0  0  0  0
   -2.2620    2.5290    0.0950 C   0  0  0  0  0  0  0  0  0  0  0  0
   -1.6880    2.6270    1.5990 C   0  0  0  0  0  0  0  0  0  0  0  0
   -2.8080    2.5520    2.4270 O   0  0  0  0  0  0  0  0  0  0  0  0
   -3.6520    1.5680    2.7860 C   0  0  0  0  0  0  0  0  0  0  0  0
   -3.5770    0.2530    2.4430 C   0  0  0  0  0  0  0  0  0  0  0  0
   -4.4910   -0.6830    2.8840 C   0  0  0  0  0  0  0  0  0  0  0  0
   -4.3650   -2.1330    2.4710 C   0  0  2  0  0  0  0  0  0  0  0  0
   -2.8690   -2.4560    2.6100 C   0  0  0  0  0  0  0  0  0  0  0  0
   -4.7150   -2.3840    1.0500 C   0  0  0  0  0  0  0  0  0  0  0  0
   -6.0830   -2.0450    0.5870 C   0  0  1  0  0  0  0  0  0  0  0  0
   -6.0900   -2.3610   -0.8150 O   0  0  0  0  0  0  0  0  0  0  0  0
   -7.1520   -2.9960    1.1490 C   0  0  0  0  0  0  0  0  0  0  0  0
   -7.3380   -2.8780    2.5630 N   0  0  0  0  0  0  0  0  0  0  0  0
   -5.5130   -0.2920    3.6940 C   0  0  0  0  0  0  0  0  0  0  0  0
   -5.6320    1.0830    4.0750 C   0  0  0  0  0  0  0  0  0  0  0  0
   -4.7260    1.9670    3.6260 C   0  0  0  0  0  0  0  0  0  0  0  0
   -4.7660    3.3310    3.9280 O   0  0  0  0  0  0  0  0  0  0  0  0
   -5.8290    3.8190    4.7210 C   0  0  0  0  0  0  0  0  0  0  0  0
    0.7320    2.9330   -2.0670 C   0  0  0  0  0  0  0  0  0  0  0  0
    0.3000    4.2210   -2.4260 O   0  0  0  0  0  0  0  0  0  0  0  0
    1.9090    2.4520   -2.5530 C   0  0  0  0  0  0  0  0  0  0  0  0
    2.7050    3.1670   -3.3820 O   0  0  0  0  0  0  0  0  0  0  0  0
    3.6620    4.1160   -3.1590 C   0  0  0  0  0  0  0  0  0  0  0  0
  1  2  1  0
  2  3  1  0
  3  4  1  0
  4  5  1  0
  5  6  1  0
  6  7  1  0
  7  8  2  0
  7  9  1  0
  9 10  2  0
  9 11  1  0
 11 12  1  0
 12 13  2  0
 12 37  1  0
 13 14  1  0
 14 15  2  0
 15 16  1  0
 15 35  1  0
 16 17  1  0
 17 18  1  0
 18 19  1  0
 19 20  1  0
 20 21  2  0
 20 32  1  0
 21 22  1  0
 22 23  1  0
 22 30  2  0
 23 24  1  6
 23 25  1  0
 25 26  1  0
 26 27  1  6
 26 28  1  0
 28 29  1  0
 30 31  1  0
 31 32  2  0
 32 33  1  0
 33 34  1  0
 35 36  1  0
 35 37  2  0
 37 38  1  0
 38 39  1  0
M  END
