
     RDKit          3D

 39 40  0  0  0  0  0  0  0  0999 V2000
    4.6210    3.4240    4.3040 C   0  0  0  0  0  0  0  0  0  0  0  0
    4.1060    2.5940    3.1850 C   0  0  0  0  0  0  0  0  0  0  0  0
    5.0510    1.9240    2.3910 C   0  0  0  0  0  0  0  0  0  0  0  0
    4.6610    1.1430    1.3470 C   0  0  0  0  0  0  0  0  0  0  0  0
    5.5310    0.4290    0.5180 N   0  0  0  0  0  0  0  0  0  0  0  0
    6.8780    0.1960    0.8420 C   0  0  0  0  0  0  0  0  0  0  0  0
    7.4460    0.5810    1.8830 O   0  0  0  0  0  0  0  0  0  0  0  0
    7.7040   -0.5770   -0.1380 C   0  0  1  0  0  0  0  0  0  0  0  0
    7.7590    0.1810   -1.4590 C   0  0  0  0  0  0  0  0  0  0  0  0
    8.9850   -0.7210    0.3110 O   0  0  0  0  0  0  0  0  0  0  0  0
    9.3580   -2.0320    0.4230 C   0  0  0  0  0  0  0  0  0  0  0  0
    9.3110   -2.7040   -0.9230 C   0  0  0  0  0  0  0  0  0  0  0  0
   10.1980   -2.0150   -1.7610 O   0  0  0  0  0  0  0  0  0  0  0  0
    3.2760    1.0220    1.0770 C   0  0  0  0  0  0  0  0  0  0  0  0
    2.3280    1.6640    1.8340 C   0  0  0  0  0  0  0  0  0  0  0  0
    0.8920    1.5580    1.5830 C   0  0  0  0  0  0  0  0  0  0  0  0
    0.1580    2.3790    2.1760 O   0  0  0  0  0  0  0  0  0  0  0  0
    0.3000    0.6070    0.7330 N   0  0  0  0  0  0  0  0  0  0  0  0
   -1.0570    0.4280    0.4220 C   0  0  0  0  0  0  0  0  0  0  0  0
   -2.0350    1.3140    0.7620 C   0  0  0  0  0  0  0  0  0  0  0  0
   -3.3780    1.1140    0.4540 C   0  0  0  0  0  0  0  0  0  0  0  0
   -3.7660   -0.0120   -0.2200 C   0  0  0  0  0  0  0  0  0  0  0  0
   -5.0550   -0.2970   -0.5670 O   0  0  0  0  0  0  0  0  0  0  0  0
   -6.2090    0.4410   -0.3380 C   0  0  2  0  0  0  0  0  0  0  0  0
   -7.1120   -0.3700    0.5630 C   0  0  0  0  0  0  0  0  0  0  0  0
   -7.5150   -1.6940   -0.0020 C   0  0  0  0  0  0  0  0  0  0  0  0
   -8.2120   -1.6310   -1.1940 O   0  0  0  0  0  0  0  0  0  0  0  0
   -6.8210    0.7850   -1.6620 C   0  0  0  0  0  0  0  0  0  0  0  0
   -8.0770    1.5830   -1.6000 C   0  0  0  0  0  0  0  0  0  0  0  0
   -7.9750    2.8950   -0.9680 C   0  0  0  0  0  0  0  0  0  0  0  0
   -9.1260    3.7020   -0.7790 N   0  0  0  0  0  0  0  0  0  0  0  0
   -6.8710    3.3360   -0.5810 O   0  0  0  0  0  0  0  0  0  0  0  0
   -2.7930   -0.9320   -0.5790 C   0  0  0  0  0  0  0  0  0  0  0  0
   -3.1400   -2.0750   -1.2540 O   0  0  0  0  0  0  0  0  0  0  0  0
   -2.1400   -2.9960   -1.6100 C   0  0  0  0  0  0  0  0  0  0  0  0
   -2.7890   -4.1610   -2.3410 C   0  0  0  0  0  0  0  0  0  0  0  0
   -3.7210   -4.8020   -1.5570 O   0  0  0  0  0  0  0  0  0  0  0  0
   -1.4720   -0.7070   -0.2600 C   0  0  0  0  0  0  0  0  0  0  0  0
    2.7930    2.4410    2.8790 C   0  0  0  0  0  0  0  0  0  0  0  0
  1  2  1  0
  2  3  2  0
  2 39  1  0
  3  4  1  0
  4  5  1  0
  4 14  2  0
  5  6  1  0
  6  7  2  0
  6  8  1  0
  8  9  1  6
  8 10  1  0
 10 11  1  0
 11 12  1  0
 12 13  1  0
 14 15  1  0
 15 16  1  0
 15 39  2  0
 16 17  2  0
 16 18  1  0
 18 19  1  0
 19 20  2  0
 19 38  1  0
 20 21  1  0
 21 22  2  0
 22 23  1  0
 22 33  1  0
 23 24  1  0
 24 25  1  1
 24 28  1  0
 25 26  1  0
 26 27  1  0
 28 29  1  0
 29 30  1  0
 30 31  1  0
 30 32  2  0
 33 34  1  0
 33 38  2  0
 34 35  1  0
 35 36  1  0
 36 37  1  0
M  END
