
     RDKit          3D

 41 44  0  0  0  0  0  0  0  0999 V2000
    2.9360    3.7080   -4.1370 C   0  0  0  0  0  0  0  0  0  0  0  0
    1.5270    3.5200   -3.5760 C   0  0  0  0  0  0  0  0  0  0  0  0
    1.2890    2.4820   -2.8850 C   0  0  0  0  0  0  0  0  0  0  0  0
   -0.0160    2.1020   -2.2430 C   0  0  0  0  0  0  0  0  0  0  0  0
   -1.1040    3.0290   -2.4210 C   0  0  0  0  0  0  0  0  0  0  0  0
   -1.0500    4.1020   -3.0650 O   0  0  0  0  0  0  0  0  0  0  0  0
    0.0080    0.9780   -1.5850 C   0  0  0  0  0  0  0  0  0  0  0  0
   -0.6600    0.0300   -0.8130 C   0  0  0  0  0  0  0  0  0  0  0  0
    0.2430   -1.0000   -0.4250 C   0  0  0  0  0  0  0  0  0  0  0  0
    1.6190   -1.0340   -0.7740 C   0  0  0  0  0  0  0  0  0  0  0  0
    2.0730   -1.9960   -1.6870 C   0  0  0  0  0  0  0  0  0  0  0  0
    3.3980   -2.0910   -1.9950 C   0  0  0  0  0  0  0  0  0  0  0  0
    4.3260   -1.2170   -1.3970 C   0  0  0  0  0  0  0  0  0  0  0  0
    3.8880   -0.2820   -0.5100 C   0  0  0  0  0  0  0  0  0  0  0  0
    2.5220   -0.1700   -0.1780 C   0  0  0  0  0  0  0  0  0  0  0  0
    2.1690    0.8020    0.7310 O   0  0  0  0  0  0  0  0  0  0  0  0
    5.0630    0.5030   -0.0340 C   0  0  1  0  0  0  0  0  0  0  0  0
    4.9490    0.6620    1.4540 C   0  0  0  0  0  0  0  0  0  0  0  0
    6.3570    0.8910    1.9910 C   0  0  0  0  0  0  0  0  0  0  0  0
    7.2490   -0.2950    1.7580 C   0  0  0  0  0  0  0  0  0  0  0  0
    6.7490   -1.1960    0.6620 C   0  0  0  0  0  0  0  0  0  0  0  0
    6.2280   -0.3260   -0.4580 C   0  0  1  0  0  0  0  0  0  0  0  0
    5.7270   -1.1280   -1.5580 N   0  0  0  0  0  0  0  0  0  0  0  0
   -1.9630   -0.2530   -0.3270 C   0  0  0  0  0  0  0  0  0  0  0  0
   -1.8890   -1.4270    0.4560 O   0  0  0  0  0  0  0  0  0  0  0  0
   -3.2790    0.1000   -0.2760 N   0  0  0  0  0  0  0  0  0  0  0  0
   -4.1640   -0.8030    0.5240 C   0  0  0  0  0  0  0  0  0  0  0  0
   -4.8990   -0.3050    1.5680 C   0  0  0  0  0  0  0  0  0  0  0  0
   -5.7220   -1.1410    2.3180 C   0  0  0  0  0  0  0  0  0  0  0  0
   -5.8050   -2.4790    2.0170 C   0  0  0  0  0  0  0  0  0  0  0  0
   -6.6950   -3.3860    2.8250 C   0  0  0  0  0  0  0  0  0  0  0  0
   -5.7530   -4.0530    4.2110 S   0  0  0  0  0  0  0  0  0  0  0  0
   -5.1430   -2.7520    5.2780 C   0  0  0  0  0  0  0  0  0  0  0  0
   -6.6180   -4.9800    5.0350 O   0  0  0  0  0  0  0  0  0  0  0  0
   -5.0630   -2.9720    0.9680 C   0  0  0  0  0  0  0  0  0  0  0  0
   -4.2360   -2.1310    0.2150 C   0  0  0  0  0  0  0  0  0  0  0  0
   -4.0200    1.1820   -0.8330 C   0  0  2  0  0  0  0  0  0  0  0  0
   -4.1120    1.2460   -2.3130 C   0  0  0  0  0  0  0  0  0  0  0  0
   -3.7710    2.4820   -0.1310 C   0  0  0  0  0  0  0  0  0  0  0  0
   -2.8740    2.5840    0.9550 N   0  0  0  0  0  0  0  0  0  0  0  0
   -4.4050    3.4820   -0.5620 O   0  0  0  0  0  0  0  0  0  0  0  0
  1  2  1  0
  2  3  2  3
  3  4  1  0
  4  5  1  0
  4  7  2  3
  5  6  2  0
  7  8  1  0
  8  9  2  3
  8 24  1  0
  9 10  1  0
 10 11  2  0
 10 15  1  0
 11 12  1  0
 12 13  2  0
 13 14  1  0
 13 23  1  0
 14 15  2  0
 14 17  1  0
 15 16  1  0
 17 18  1  1
 17 22  1  0
 18 19  1  0
 19 20  1  0
 20 21  1  0
 22 21  1  1
 22 23  1  0
 24 25  2  0
 24 26  1  0
 26 27  1  0
 26 37  1  0
 27 28  2  0
 27 36  1  0
 28 29  1  0
 29 30  2  0
 30 31  1  0
 30 35  1  0
 31 32  1  0
 32 33  1  1
 32 34  2  0
 35 36  2  0
 37 38  1  6
 37 39  1  0
 39 40  1  0
 39 41  2  0
M  END
