
     RDKit          3D

 41 45  0  0  0  0  0  0  0  0999 V2000
   -1.1570    5.1130   -0.9340 C   0  0  0  0  0  0  0  0  0  0  0  0
   -1.0120    3.8200   -1.1590 C   0  0  0  0  0  0  0  0  0  0  0  0
   -1.9390    2.8430   -0.5460 C   0  0  0  0  0  0  0  0  0  0  0  0
   -1.7810    1.5510   -0.7800 C   0  0  0  0  0  0  0  0  0  0  0  0
   -0.4520    1.0330   -1.8320 Cl  0  0  0  0  0  0  0  0  0  0  0  0
   -2.6880    0.5980   -0.1800 C   0  0  0  0  0  0  0  0  0  0  0  0
   -3.6710    0.9470    0.5930 C   0  0  0  0  0  0  0  0  0  0  0  0
   -4.6480    0.0320    1.2510 C   0  0  0  0  0  0  0  0  0  0  0  0
   -4.1200   -1.3860    1.3630 C   0  0  0  0  0  0  0  0  0  0  0  0
   -2.7540   -1.4580    0.8810 N   0  0  0  0  0  0  0  0  0  0  0  0
   -1.7020   -1.9580    1.6730 C   0  0  0  0  0  0  0  0  0  0  0  0
   -1.9860   -2.3300    2.8580 O   0  0  0  0  0  0  0  0  0  0  0  0
   -0.3140   -2.0780    1.2500 C   0  0  0  0  0  0  0  0  0  0  0  0
    0.3870   -0.8490    1.2220 C   0  0  0  0  0  0  0  0  0  0  0  0
    1.6750   -0.7700    0.7830 C   0  0  0  0  0  0  0  0  0  0  0  0
    2.4300    0.4250    0.7070 N   0  0  0  0  0  0  0  0  0  0  0  0
    1.9720    1.6830    1.1410 C   0  0  0  0  0  0  0  0  0  0  0  0
    0.8450    1.8500    1.6390 O   0  0  0  0  0  0  0  0  0  0  0  0
    2.8490    2.8690    1.0100 C   0  0  0  0  0  0  0  0  0  0  0  0
    2.7670    3.5890   -0.1440 C   0  0  0  0  0  0  0  0  0  0  0  0
    3.5640    4.7070   -0.3150 C   0  0  0  0  0  0  0  0  0  0  0  0
    3.4270    5.4480   -1.5930 C   0  0  0  0  0  0  0  0  0  0  0  0
    4.4270    5.0880    0.6660 C   0  0  0  0  0  0  0  0  0  0  0  0
    4.5220    4.3780    1.8280 C   0  0  0  0  0  0  0  0  0  0  0  0
    3.7170    3.2440    2.0060 C   0  0  0  0  0  0  0  0  0  0  0  0
    3.8100    2.3060    3.4840 Cl  0  0  0  0  0  0  0  0  0  0  0  0
    2.2670   -1.9830    0.3600 C   0  0  0  0  0  0  0  0  0  0  0  0
    1.6030   -3.1810    0.3810 C   0  0  0  0  0  0  0  0  0  0  0  0
    0.2930   -3.2230    0.8350 C   0  0  0  0  0  0  0  0  0  0  0  0
   -0.3360   -4.4130    0.8570 O   0  0  0  0  0  0  0  0  0  0  0  0
   -1.1170   -5.1110   -0.0170 C   0  0  0  0  0  0  0  0  0  0  0  0
   -0.4760   -5.4360   -1.3440 C   0  0  0  0  0  0  0  0  0  0  0  0
    2.2140   -4.3800   -0.0480 O   0  0  0  0  0  0  0  0  0  0  0  0
    3.2910   -4.1700   -0.9780 C   0  0  0  0  0  0  0  0  0  0  0  0
    4.2510   -3.2030   -0.3750 C   0  0  0  0  0  0  0  0  0  0  0  0
    3.6600   -1.8540   -0.0950 C   0  0  0  0  0  0  0  0  0  0  0  0
   -2.5100   -0.8970   -0.4500 C   0  0  1  0  0  0  0  0  0  0  0  0
   -3.5220   -1.3370   -1.4480 C   0  0  0  0  0  0  0  0  0  0  0  0
   -3.4940   -2.7630   -1.8500 C   0  0  0  0  0  0  0  0  0  0  0  0
   -3.8600    2.3400    0.8570 N   0  0  0  0  0  0  0  0  0  0  0  0
   -3.0160    3.3800    0.3190 C   0  0  0  0  0  0  0  0  0  0  0  0
  1  2  2  0
  2  3  1  0
  3  4  2  0
  3 41  1  0
  4  5  1  0
  4  6  1  0
  6  7  2  0
  6 37  1  0
  7  8  1  0
  7 40  1  0
  8  9  1  0
  9 10  1  0
 10 11  1  0
 10 37  1  0
 11 12  2  0
 11 13  1  0
 13 14  2  0
 13 29  1  0
 14 15  1  0
 15 16  1  0
 15 27  2  0
 16 17  1  0
 17 18  2  0
 17 19  1  0
 19 20  2  0
 19 25  1  0
 20 21  1  0
 21 22  1  0
 21 23  2  0
 23 24  1  0
 24 25  2  0
 25 26  1  0
 27 28  1  0
 27 36  1  0
 28 29  2  0
 28 33  1  0
 29 30  1  0
 30 31  1  0
 31 32  1  0
 33 34  1  0
 34 35  1  0
 35 36  1  0
 37 38  1  6
 38 39  1  0
 40 41  1  0
M  END
