
     RDKit          3D

 41 44  0  0  0  0  0  0  0  0999 V2000
   10.8400    2.4850    0.9710 C   0  0  0  0  0  0  0  0  0  0  0  0
   10.5300    1.4550    0.0610 O   0  0  0  0  0  0  0  0  0  0  0  0
    9.1990    1.0830   -0.1190 C   0  0  0  0  0  0  0  0  0  0  0  0
    8.1960    1.7150    0.5860 C   0  0  0  0  0  0  0  0  0  0  0  0
    6.8470    1.3760    0.4380 C   0  0  0  0  0  0  0  0  0  0  0  0
    6.5150    0.3800   -0.4370 C   0  0  0  0  0  0  0  0  0  0  0  0
    7.5030   -0.2600   -1.1470 C   0  0  0  0  0  0  0  0  0  0  0  0
    8.8300    0.0830   -0.9940 C   0  0  0  0  0  0  0  0  0  0  0  0
    7.0610   -1.3210   -2.1010 C   0  0  1  0  0  0  0  0  0  0  0  0
    6.7500   -2.5830   -1.4220 C   0  0  0  0  0  0  0  0  0  0  0  0
    5.7760   -2.7220   -0.4090 N   0  0  0  0  0  0  0  0  0  0  0  0
    7.3770   -3.6490   -1.7380 O   0  0  0  0  0  0  0  0  0  0  0  0
    5.8690   -0.7620   -2.8210 C   0  0  0  0  0  0  0  0  0  0  0  0
    4.7190   -0.4470   -1.9210 C   0  0  0  0  0  0  0  0  0  0  0  0
    5.1220   -0.0000   -0.6140 N   0  0  0  0  0  0  0  0  0  0  0  0
    4.2600    0.0410    0.5010 C   0  0  0  0  0  0  0  0  0  0  0  0
    4.8500    0.1820    1.6570 O   0  0  0  0  0  0  0  0  0  0  0  0
    2.8430   -0.0450    0.5830 C   0  0  0  0  0  0  0  0  0  0  0  0
    1.9690   -0.1560   -0.3750 C   0  0  0  0  0  0  0  0  0  0  0  0
    0.5000   -0.2320   -0.0070 C   0  0  0  0  0  0  0  0  0  0  0  0
   -0.3840   -0.3360   -0.9630 C   0  0  0  0  0  0  0  0  0  0  0  0
   -1.8150   -0.4150   -0.6970 C   0  0  0  0  0  0  0  0  0  0  0  0
   -2.8990   -0.5150   -1.4780 N   0  0  0  0  0  0  0  0  0  0  0  0
   -3.9880   -0.5400   -0.6710 C   0  0  0  0  0  0  0  0  0  0  0  0
   -5.3730   -0.6640   -1.1920 C   0  0  2  0  0  0  0  0  0  0  0  0
   -5.8900   -1.9320   -0.9190 O   0  0  0  0  0  0  0  0  0  0  0  0
   -5.4020   -0.5170   -2.7030 C   0  0  2  0  0  0  0  0  0  0  0  0
   -4.8650    0.8550   -3.1100 C   0  0  0  0  0  0  0  0  0  0  0  0
   -6.8220   -0.6910   -3.1880 C   0  0  0  0  0  0  0  0  0  0  0  0
   -6.9150   -0.5280   -4.9780 S   0  0  0  0  0  0  0  0  0  0  0  0
   -7.7810   -1.5890   -5.6140 O   0  0  0  0  0  0  0  0  0  0  0  0
   -3.6070   -0.4550    0.6510 C   0  0  0  0  0  0  0  0  0  0  0  0
   -4.4490   -0.4330    1.8750 C   0  0  0  0  0  0  0  0  0  0  0  0
   -5.0440    0.9120    2.1180 C   0  0  0  0  0  0  0  0  0  0  0  0
   -5.9010    0.9450    3.3730 C   0  0  2  0  0  0  0  0  0  0  0  0
   -6.4430    2.3500    3.5120 C   0  0  0  0  0  0  0  0  0  0  0  0
   -5.0930    0.6100    4.6070 C   0  0  0  0  0  0  0  0  0  0  0  0
   -7.0740    0.0290    3.1650 C   0  0  0  0  0  0  0  0  0  0  0  0
   -2.2030   -0.3760    0.6160 C   0  0  0  0  0  0  0  0  0  0  0  0
   -1.2690   -0.2700    1.7350 C   0  0  0  0  0  0  0  0  0  0  0  0
    0.1630   -0.1820    1.4090 C   0  0  0  0  0  0  0  0  0  0  0  0
  1  2  1  0
  2  3  1  0
  3  4  2  0
  3  8  1  0
  4  5  1  0
  5  6  2  0
  6  7  1  0
  6 15  1  0
  7  8  2  0
  7  9  1  0
  9 10  1  1
  9 13  1  0
 10 11  1  0
 10 12  2  0
 13 14  1  0
 14 15  1  0
 15 16  1  0
 16 17  2  0
 16 18  1  0
 18 19  2  3
 19 20  1  0
 20 21  2  0
 20 41  1  0
 21 22  1  0
 22 23  1  0
 22 39  2  0
 23 24  1  0
 24 25  1  0
 24 32  2  0
 25 26  1  6
 25 27  1  0
 27 28  1  1
 27 29  1  0
 29 30  1  0
 30 31  2  0
 32 33  1  0
 32 39  1  0
 33 34  1  0
 34 35  1  0
 35 36  1  1
 35 37  1  0
 35 38  1  0
 39 40  1  0
 40 41  1  0
M  END
