
     RDKit          3D

 37 39  0  0  0  0  0  0  0  0999 V2000
   10.5790    0.3180    1.3520 C   0  0  0  0  0  0  0  0  0  0  0  0
   10.6540   -0.4560    0.0520 C   0  0  0  0  0  0  0  0  0  0  0  0
   10.4880    0.4670   -1.1350 C   0  0  0  0  0  0  0  0  0  0  0  0
    9.1490    1.1820   -1.0970 C   0  0  0  0  0  0  0  0  0  0  0  0
    8.1470    0.1900   -1.1190 O   0  0  0  0  0  0  0  0  0  0  0  0
    6.8150    0.5430   -1.0990 C   0  0  0  0  0  0  0  0  0  0  0  0
    6.4670    1.7430   -1.0630 O   0  0  0  0  0  0  0  0  0  0  0  0
    5.8240   -0.5040   -1.1180 C   0  0  0  0  0  0  0  0  0  0  0  0
    4.5690   -0.1460   -1.0910 C   0  0  0  0  0  0  0  0  0  0  0  0
    3.4440   -1.1690   -1.1100 C   0  0  0  0  0  0  0  0  0  0  0  0
    2.1450   -0.9250   -0.5630 N   0  0  0  0  0  0  0  0  0  0  0  0
    1.2880   -0.1770   -1.3640 C   0  0  0  0  0  0  0  0  0  0  0  0
    1.8750    0.0280   -2.5340 O   0  0  0  0  0  0  0  0  0  0  0  0
   -0.0240    0.3410   -1.0990 C   0  0  2  0  0  0  0  0  0  0  0  0
    0.1160    1.8710   -1.0180 C   0  0  0  0  0  0  0  0  0  0  0  0
   -0.5270   -0.1130    0.1700 N   0  0  0  0  0  0  0  0  0  0  0  0
   -1.5360   -1.1700   -0.0100 C   0  0  1  0  0  0  0  0  0  0  0  0
   -1.0210   -2.4410    0.6020 C   0  0  0  0  0  0  0  0  0  0  0  0
   -2.7940   -0.6990    0.5770 C   0  0  0  0  0  0  0  0  0  0  0  0
   -3.2040    0.5860    0.2750 C   0  0  0  0  0  0  0  0  0  0  0  0
   -4.3930    1.0890    0.8140 C   0  0  0  0  0  0  0  0  0  0  0  0
   -5.1800    0.3320    1.6480 C   0  0  0  0  0  0  0  0  0  0  0  0
   -6.4200    0.9260    2.1920 C   0  0  1  0  0  0  0  0  0  0  0  0
   -6.2050    2.3580    2.6240 C   0  0  0  0  0  0  0  0  0  0  0  0
   -7.5090    0.7660    1.2220 C   0  0  0  0  0  0  0  0  0  0  0  0
   -7.8010    1.7300    0.2770 C   0  0  0  0  0  0  0  0  0  0  0  0
   -8.8410    1.5450   -0.6230 C   0  0  0  0  0  0  0  0  0  0  0  0
   -9.6140    0.3960   -0.6020 C   0  0  0  0  0  0  0  0  0  0  0  0
  -10.7220    0.2460   -1.5890 C   0  0  0  0  0  0  0  0  0  0  0  0
   -9.3150   -0.5610    0.3450 C   0  0  0  0  0  0  0  0  0  0  0  0
   -8.2730   -0.3660    1.2400 C   0  0  0  0  0  0  0  0  0  0  0  0
   -4.7410   -0.9430    1.9270 C   0  0  0  0  0  0  0  0  0  0  0  0
   -3.5810   -1.4670    1.4160 C   0  0  0  0  0  0  0  0  0  0  0  0
    3.8470   -2.2930   -1.1550 N   0  0  0  0  0  0  0  0  0  0  0  0
    5.1080   -2.8100   -1.2170 C   0  0  0  0  0  0  0  0  0  0  0  0
    5.2280   -4.0610   -1.3820 O   0  0  0  0  0  0  0  0  0  0  0  0
    6.2780   -1.9240   -1.1020 C   0  0  0  0  0  0  0  0  0  0  0  0
  1  2  1  0
  2  3  1  0
  3  4  1  0
  4  5  1  0
  5  6  1  0
  6  7  2  0
  6  8  1  0
  8  9  2  0
  8 37  1  0
  9 10  1  0
 10 11  1  0
 10 34  2  0
 11 12  1  0
 12 13  2  0
 12 14  1  0
 14 15  1  1
 14 16  1  0
 16 17  1  0
 17 18  1  1
 17 19  1  0
 19 20  2  0
 19 33  1  0
 20 21  1  0
 21 22  2  0
 22 23  1  0
 22 32  1  0
 23 24  1  6
 23 25  1  0
 25 26  2  0
 25 31  1  0
 26 27  1  0
 27 28  2  0
 28 29  1  0
 28 30  1  0
 30 31  2  0
 32 33  2  0
 34 35  1  0
 35 36  2  0
 35 37  1  0
M  CHG  1  16   1
M  END
