
     RDKit          3D

 34 36  0  0  0  0  0  0  0  0999 V2000
    6.0520   -2.9890    2.5140 C   0  0  0  0  0  0  0  0  0  0  0  0
    5.9160   -1.4590    2.3530 C   0  0  0  0  0  0  0  0  0  0  0  0
    5.9250   -1.1400    0.9940 N   0  0  0  0  0  0  0  0  0  0  0  0
    5.3270   -0.4580    0.1640 C   0  0  0  0  0  0  0  0  0  0  0  0
    4.1950    0.3860    0.3890 C   0  0  0  0  0  0  0  0  0  0  0  0
    3.7220    0.6570    1.8150 C   0  0  0  0  0  0  0  0  0  0  0  0
    3.3690    0.8720    2.8510 N   0  0  0  0  0  0  0  0  0  0  0  0
    3.5300    1.1330   -0.4540 C   0  0  0  0  0  0  0  0  0  0  0  0
    2.3900    1.9310   -0.0670 N   0  0  0  0  0  0  0  0  0  0  0  0
    1.1580    1.2590    0.1920 C   0  0  0  0  0  0  0  0  0  0  0  0
    1.1650   -0.1380    0.1490 C   0  0  0  0  0  0  0  0  0  0  0  0
    0.0400   -0.9030    0.3980 C   0  0  0  0  0  0  0  0  0  0  0  0
   -1.1170   -0.2200    0.6980 C   0  0  0  0  0  0  0  0  0  0  0  0
   -1.1790    1.1440    0.7510 C   0  0  0  0  0  0  0  0  0  0  0  0
   -2.4300    1.8670    1.0570 C   0  0  0  0  0  0  0  0  0  0  0  0
   -3.5600    0.9990    1.3020 N   0  0  0  0  0  0  0  0  0  0  0  0
   -4.0670    0.4800    0.0720 C   0  0  2  0  0  0  0  0  0  0  0  0
   -5.0770    1.4470   -0.5140 C   0  0  0  0  0  0  0  0  0  0  0  0
   -6.1390    1.9340    0.1590 C   0  0  0  0  0  0  0  0  0  0  0  0
   -7.0700    2.8000   -0.3530 C   0  0  0  0  0  0  0  0  0  0  0  0
   -6.8780    3.2020   -1.7030 C   0  0  0  0  0  0  0  0  0  0  0  0
   -5.8260    2.7270   -2.3820 C   0  0  0  0  0  0  0  0  0  0  0  0
   -4.9010    1.8620   -1.8570 C   0  0  0  0  0  0  0  0  0  0  0  0
   -4.7610   -0.8310    0.1670 C   0  0  0  0  0  0  0  0  0  0  0  0
   -5.6350   -1.1760   -0.8910 C   0  0  0  0  0  0  0  0  0  0  0  0
   -6.3250   -2.3670   -0.8490 C   0  0  0  0  0  0  0  0  0  0  0  0
   -6.2110   -3.2320    0.1630 N   0  0  0  0  0  0  0  0  0  0  0  0
   -5.3780   -2.9440    1.2140 C   0  0  0  0  0  0  0  0  0  0  0  0
   -4.6800   -1.7330    1.1590 C   0  0  0  0  0  0  0  0  0  0  0  0
   -0.0150    1.8910    0.4930 C   0  0  0  0  0  0  0  0  0  0  0  0
    5.8210   -0.4600   -1.2910 C   0  0  2  0  0  0  0  0  0  0  0  0
    4.7190   -0.9320   -2.1900 C   0  0  0  0  0  0  0  0  0  0  0  0
    6.9800   -1.4280   -1.4100 C   0  0  0  0  0  0  0  0  0  0  0  0
    6.3060    0.9340   -1.5560 C   0  0  0  0  0  0  0  0  0  0  0  0
  1  2  1  0
  2  3  1  0
  3  4  2  3
  4  5  1  0
  4 31  1  0
  5  6  1  0
  5  8  2  3
  6  7  3  0
  8  9  1  0
  9 10  1  0
 10 11  2  0
 10 30  1  0
 11 12  1  0
 12 13  2  0
 13 14  1  0
 14 15  1  0
 14 30  2  0
 15 16  1  0
 17 16  1  1
 17 18  1  0
 17 24  1  0
 18 19  2  0
 18 23  1  0
 19 20  1  0
 20 21  2  0
 21 22  1  0
 22 23  2  0
 24 25  2  0
 24 29  1  0
 25 26  1  0
 26 27  2  0
 27 28  1  0
 28 29  2  0
 31 32  1  6
 31 33  1  0
 31 34  1  0
M  CHG  2  16   1  27   1
M  END
