
     RDKit          3D

 34 37  0  0  0  0  0  0  0  0999 V2000
   -0.8000   -5.4560    1.7580 C   0  0  0  0  0  0  0  0  0  0  0  0
    0.1530   -4.4680    1.1720 C   0  0  0  0  0  0  0  0  0  0  0  0
   -0.2350   -3.1940    0.8200 C   0  0  0  0  0  0  0  0  0  0  0  0
    0.6710   -2.3130    0.2830 C   0  0  0  0  0  0  0  0  0  0  0  0
    0.2550   -1.0570   -0.2370 N   0  0  0  0  0  0  0  0  0  0  0  0
   -1.0530   -0.5640   -0.0590 C   0  0  0  0  0  0  0  0  0  0  0  0
   -1.9820   -1.1230    0.5520 O   0  0  0  0  0  0  0  0  0  0  0  0
   -1.4060    0.7220   -0.6260 N   0  0  0  0  0  0  0  0  0  0  0  0
   -2.7270    1.2730   -0.4780 C   0  0  0  0  0  0  0  0  0  0  0  0
   -3.7980    0.4140   -1.0870 C   0  0  0  0  0  0  0  0  0  0  0  0
   -5.1160    1.0150   -0.9160 N   0  0  0  0  0  0  0  0  0  0  0  0
   -6.0050    0.7980    0.2020 C   0  0  0  0  0  0  0  0  0  0  0  0
   -6.7950    2.0760    0.2840 C   0  0  0  0  0  0  0  0  0  0  0  0
   -6.9080    2.4890   -1.1760 C   0  0  0  0  0  0  0  0  0  0  0  0
   -5.7190    1.9020   -1.8230 C   0  0  0  0  0  0  0  0  0  0  0  0
   -5.3520    2.1860   -2.9960 O   0  0  0  0  0  0  0  0  0  0  0  0
    1.9600   -2.6250    0.0810 N   0  0  0  0  0  0  0  0  0  0  0  0
    3.0340   -1.8080   -0.1930 C   0  0  0  0  0  0  0  0  0  0  0  0
    4.0300   -2.4410   -0.7860 O   0  0  0  0  0  0  0  0  0  0  0  0
    3.3410   -0.3960    0.0300 C   0  0  0  0  0  0  0  0  0  0  0  0
    2.7310    0.5970    0.6490 C   0  0  0  0  0  0  0  0  0  0  0  0
    3.3440    1.9190    0.6650 C   0  0  1  0  0  0  0  0  0  0  0  0
    2.8920    2.6950    1.8830 C   0  0  1  0  0  0  0  0  0  0  0  0
    3.2410    2.0470    3.0560 F   0  0  0  0  0  0  0  0  0  0  0  0
    3.5080    3.9310    1.8610 F   0  0  0  0  0  0  0  0  0  0  0  0
    4.8370    1.8620    0.6080 C   0  0  2  0  0  0  0  0  0  0  0  0
    5.6670    3.1000   -0.3830 S   0  0  0  0  0  0  0  0  0  0  0  0
    7.0210    2.3740   -1.2690 C   0  0  0  0  0  0  0  0  0  0  0  0
    7.1950    1.1300   -1.6540 C   0  0  0  0  0  0  0  0  0  0  0  0
    6.1780    0.0870   -1.3610 C   0  0  0  0  0  0  0  0  0  0  0  0
    4.8300    0.4060   -0.5700 S   0  0  0  0  0  0  0  0  0  0  0  0
    2.2800   -3.9190    0.4510 C   0  0  0  0  0  0  0  0  0  0  0  0
    3.4500   -4.2970    0.2920 O   0  0  0  0  0  0  0  0  0  0  0  0
    1.4250   -4.7900    0.9670 N   0  0  0  0  0  0  0  0  0  0  0  0
  1  2  1  0
  2  3  1  0
  2 34  2  0
  3  4  2  0
  4  5  1  0
  4 17  1  0
  5  6  1  0
  6  7  2  0
  6  8  1  0
  8  9  1  0
  9 10  1  0
 10 11  1  0
 11 12  1  0
 11 15  1  0
 12 13  1  0
 13 14  1  0
 14 15  1  0
 15 16  2  0
 17 18  1  0
 17 32  1  0
 18 19  2  0
 18 20  1  0
 20 21  2  0
 31 20  1  1
 22 21  1  1
 22 23  1  0
 22 26  1  0
 23 24  1  1
 23 25  1  0
 26 27  1  6
 26 31  1  0
 27 28  1  0
 28 29  2  0
 29 30  1  0
 30 31  2  0
 32 33  2  0
 32 34  1  0
M  END
