
     RDKit          3D

 34 37  0  0  0  0  0  0  0  0999 V2000
    1.6410   -0.8830    3.1060 C   0  0  0  0  0  0  0  0  0  0  0  0
    1.8850   -2.2760    2.5940 C   0  0  0  0  0  0  0  0  0  0  0  0
    2.3000   -2.1560    1.1560 C   0  0  0  0  0  0  0  0  0  0  0  0
    3.4970   -2.2910    0.5990 N   0  0  0  0  0  0  0  0  0  0  0  0
    3.4900   -2.1170   -0.6980 N   0  0  0  0  0  0  0  0  0  0  0  0
    4.6140   -2.2720   -1.5790 C   0  0  0  0  0  0  0  0  0  0  0  0
    5.2410   -1.0540   -1.9050 N   0  0  0  0  0  0  0  0  0  0  0  0
    6.0270   -0.1920   -1.1010 C   0  0  0  0  0  0  0  0  0  0  0  0
    6.5810    0.9710   -1.6660 C   0  0  0  0  0  0  0  0  0  0  0  0
    7.3490    1.8300   -0.9160 C   0  0  0  0  0  0  0  0  0  0  0  0
    7.6240    1.6190    0.4140 C   0  0  0  0  0  0  0  0  0  0  0  0
    8.4590    2.5740    1.1910 C   0  0  0  0  0  0  0  0  0  0  0  0
    7.0880    0.4810    0.9870 C   0  0  0  0  0  0  0  0  0  0  0  0
    6.3080   -0.3940    0.2280 C   0  0  0  0  0  0  0  0  0  0  0  0
    2.1900   -1.8390   -1.0630 C   0  0  0  0  0  0  0  0  0  0  0  0
    1.8130   -1.5690   -2.4790 C   0  0  0  0  0  0  0  0  0  0  0  0
    1.4320   -1.8590    0.0710 C   0  0  0  0  0  0  0  0  0  0  0  0
   -0.0140   -1.6670    0.2780 C   0  0  0  0  0  0  0  0  0  0  0  0
   -0.7930   -1.3280   -0.8760 N   0  0  0  0  0  0  0  0  0  0  0  0
   -2.2140   -1.6280   -0.5910 C   0  0  0  0  0  0  0  0  0  0  0  0
   -2.8040   -0.7290    0.4410 C   0  0  0  0  0  0  0  0  0  0  0  0
   -2.8340    0.6850    0.0640 C   0  0  0  0  0  0  0  0  0  0  0  0
   -1.8450    1.5380    0.4980 C   0  0  0  0  0  0  0  0  0  0  0  0
   -1.8410    2.8890    0.1350 C   0  0  0  0  0  0  0  0  0  0  0  0
   -2.8330    3.3930   -0.6690 C   0  0  0  0  0  0  0  0  0  0  0  0
   -3.8210    2.5400   -1.1030 C   0  0  0  0  0  0  0  0  0  0  0  0
   -3.8300    1.1930   -0.7420 C   0  0  0  0  0  0  0  0  0  0  0  0
   -4.9180    0.3770   -1.2460 C   0  0  0  0  0  0  0  0  0  0  0  0
   -6.1630    0.6800   -0.9630 C   0  0  0  0  0  0  0  0  0  0  0  0
   -7.2760   -0.1440   -1.4720 C   0  0  0  0  0  0  0  0  0  0  0  0
   -8.2380   -0.3910   -0.5740 C   0  0  0  0  0  0  0  0  0  0  0  0
   -8.0110    0.1790    0.7010 N   0  0  0  0  0  0  0  0  0  0  0  0
   -7.7660    1.5910    0.6210 C   0  0  0  0  0  0  0  0  0  0  0  0
   -6.4610    1.8470   -0.0940 C   0  0  0  0  0  0  0  0  0  0  0  0
  1  2  1  0
  2  3  1  0
  3  4  2  0
  3 17  1  0
  4  5  1  0
  5  6  1  0
  5 15  1  0
  6  7  1  0
  7  8  1  0
  8  9  2  0
  8 14  1  0
  9 10  1  0
 10 11  2  0
 11 12  1  0
 11 13  1  0
 13 14  2  0
 15 16  1  0
 15 17  2  0
 17 18  1  0
 18 19  1  0
 19 20  1  0
 20 21  1  0
 21 22  1  0
 22 23  2  0
 22 27  1  0
 23 24  1  0
 24 25  2  0
 25 26  1  0
 26 27  2  0
 27 28  1  0
 28 29  2  3
 29 30  1  0
 29 34  1  0
 30 31  2  0
 31 32  1  0
 32 33  1  0
 33 34  1  0
M  CHG  2  19   1  32   1
M  END
