
     RDKit          3D

 34 37  0  0  0  0  0  0  0  0999 V2000
   -8.6660    3.3990    0.7660 C   0  0  0  0  0  0  0  0  0  0  0  0
   -7.5650    2.4710    0.4390 C   0  0  0  0  0  0  0  0  0  0  0  0
   -6.2650    2.9020    0.5110 C   0  0  0  0  0  0  0  0  0  0  0  0
   -5.2320    2.0280    0.1870 C   0  0  0  0  0  0  0  0  0  0  0  0
   -5.4230    0.7290   -0.2110 C   0  0  0  0  0  0  0  0  0  0  0  0
   -4.3420   -0.2210   -0.5670 C   0  0  0  0  0  0  0  0  0  0  0  0
   -3.0910    0.3860   -0.5120 N   0  0  0  0  0  0  0  0  0  0  0  0
   -2.9690    1.4130   -1.5560 C   0  0  0  0  0  0  0  0  0  0  0  0
   -1.8940   -0.3170   -0.4830 C   0  0  0  0  0  0  0  0  0  0  0  0
   -1.5250   -1.2030    0.6070 C   0  0  0  0  0  0  0  0  0  0  0  0
   -2.2790   -1.4210    1.7260 C   0  0  0  0  0  0  0  0  0  0  0  0
   -1.8340   -2.2470    2.7280 C   0  0  0  0  0  0  0  0  0  0  0  0
   -0.6130   -2.8700    2.6180 C   0  0  0  0  0  0  0  0  0  0  0  0
    0.1500   -2.6460    1.4830 C   0  0  0  0  0  0  0  0  0  0  0  0
   -0.2730   -1.8240    0.4620 C   0  0  0  0  0  0  0  0  0  0  0  0
    0.5480   -1.6140   -0.7630 C   0  0  0  0  0  0  0  0  0  0  0  0
    1.8100   -2.2310   -0.7950 N   0  0  0  0  0  0  0  0  0  0  0  0
    2.0090   -3.6410   -0.8060 C   0  0  0  0  0  0  0  0  0  0  0  0
    2.9630   -1.3630   -0.8340 C   0  0  0  0  0  0  0  0  0  0  0  0
    3.2970   -0.6550    0.3270 C   0  0  0  0  0  0  0  0  0  0  0  0
    4.3680    0.2140    0.3560 C   0  0  0  0  0  0  0  0  0  0  0  0
    5.1530    0.4160   -0.7690 C   0  0  0  0  0  0  0  0  0  0  0  0
    6.2870    1.3620   -0.7800 C   0  0  1  0  0  0  0  0  0  0  0  0
    5.9110    2.6420   -0.1650 N   0  0  0  0  0  0  0  0  0  0  0  0
    7.4790    0.8880   -0.0700 C   0  0  0  0  0  0  0  0  0  0  0  0
    7.7780   -0.3190    0.3920 N   0  0  0  0  0  0  0  0  0  0  0  0
    8.9920   -0.2970    0.9820 C   0  0  0  0  0  0  0  0  0  0  0  0
    9.4500    1.0000    0.8680 C   0  0  0  0  0  0  0  0  0  0  0  0
    8.5250    1.7130    0.2280 N   0  0  0  0  0  0  0  0  0  0  0  0
    4.8130   -0.2910   -1.9040 C   0  0  0  0  0  0  0  0  0  0  0  0
    3.7370   -1.1630   -1.9350 C   0  0  0  0  0  0  0  0  0  0  0  0
   -6.7590    0.2910   -0.2810 C   0  0  0  0  0  0  0  0  0  0  0  0
   -6.9830   -1.1120   -0.6950 C   0  0  0  0  0  0  0  0  0  0  0  0
   -7.7780    1.1610    0.0410 C   0  0  0  0  0  0  0  0  0  0  0  0
  1  2  1  0
  2  3  2  0
  2 34  1  0
  3  4  1  0
  4  5  2  0
  5  6  1  0
  5 32  1  0
  6  7  1  0
  7  8  1  0
  7  9  1  0
  9 10  1  0
 10 11  2  0
 10 15  1  0
 11 12  1  0
 12 13  2  0
 13 14  1  0
 14 15  2  0
 15 16  1  0
 16 17  1  0
 17 18  1  0
 17 19  1  0
 19 20  2  0
 19 31  1  0
 20 21  1  0
 21 22  2  0
 22 23  1  0
 22 30  1  0
 23 24  1  1
 23 25  1  0
 25 26  1  0
 25 29  2  0
 26 27  1  0
 27 28  2  0
 28 29  1  0
 30 31  2  0
 32 33  1  0
 32 34  2  0
M  CHG  2  24   1  29   1
M  END
