
     RDKit          3D

 34 37  0  0  0  0  0  0  0  0999 V2000
    8.9640    1.7680    1.6970 C   0  0  0  0  0  0  0  0  0  0  0  0
    9.3740    0.6780    0.7380 C   0  0  0  0  0  0  0  0  0  0  0  0
    8.3030   -0.2700    0.6210 N   0  0  0  0  0  0  0  0  0  0  0  0
    7.0150    0.0360    0.0850 C   0  0  0  0  0  0  0  0  0  0  0  0
    6.7740    1.2550   -0.4820 C   0  0  0  0  0  0  0  0  0  0  0  0
    5.5440    1.6010   -1.0030 C   0  0  0  0  0  0  0  0  0  0  0  0
    5.3380    2.9440   -1.6110 C   0  0  0  0  0  0  0  0  0  0  0  0
    4.5150    0.6630   -0.9450 C   0  0  0  0  0  0  0  0  0  0  0  0
    4.7020   -0.5780   -0.3860 C   0  0  0  0  0  0  0  0  0  0  0  0
    3.6340   -1.6040   -0.2900 C   0  0  2  0  0  0  0  0  0  0  0  0
    3.4890   -2.3240   -1.5840 C   0  0  0  0  0  0  0  0  0  0  0  0
    2.4000   -1.0720    0.2550 N   0  0  0  0  0  0  0  0  0  0  0  0
    1.2850   -1.8640    0.5660 C   0  0  0  0  0  0  0  0  0  0  0  0
    1.2520   -3.2050    0.4160 N   0  0  0  0  0  0  0  0  0  0  0  0
    0.1920   -3.9380    0.7590 C   0  0  0  0  0  0  0  0  0  0  0  0
   -0.9540   -3.3850    1.2940 C   0  0  0  0  0  0  0  0  0  0  0  0
   -0.9570   -2.0030    1.4640 C   0  0  0  0  0  0  0  0  0  0  0  0
    0.1410   -1.2540    1.1060 C   0  0  0  0  0  0  0  0  0  0  0  0
    0.0960    0.2110    1.2940 C   0  0  0  0  0  0  0  0  0  0  0  0
   -1.1160    0.6630    1.8980 N   0  0  0  0  0  0  0  0  0  0  0  0
   -2.3940    0.6710    1.3000 C   0  0  0  0  0  0  0  0  0  0  0  0
   -3.5070    0.9890    2.0930 C   0  0  0  0  0  0  0  0  0  0  0  0
   -4.7570    1.0200    1.5350 C   0  0  0  0  0  0  0  0  0  0  0  0
   -4.9530    0.7460    0.1930 C   0  0  0  0  0  0  0  0  0  0  0  0
   -6.3460    0.8110   -0.3050 C   0  0  2  0  0  0  0  0  0  0  0  0
   -6.9730    2.1230    0.0270 C   0  0  0  0  0  0  0  0  0  0  0  0
   -8.3830    2.3010   -0.4360 C   0  0  0  0  0  0  0  0  0  0  0  0
   -7.0930   -0.3630    0.3030 C   0  0  0  0  0  0  0  0  0  0  0  0
   -6.6590   -1.4740   -0.6490 C   0  0  0  0  0  0  0  0  0  0  0  0
   -6.6660   -0.8570   -1.9630 N   0  0  0  0  0  0  0  0  0  0  0  0
   -6.4900    0.5680   -1.7710 C   0  0  0  0  0  0  0  0  0  0  0  0
   -3.8840    0.4340   -0.5950 C   0  0  0  0  0  0  0  0  0  0  0  0
   -2.5990    0.3980   -0.0390 C   0  0  0  0  0  0  0  0  0  0  0  0
    5.9590   -0.8540    0.1160 C   0  0  0  0  0  0  0  0  0  0  0  0
  1  2  1  0
  2  3  1  0
  3  4  1  0
  4  5  2  0
  4 34  1  0
  5  6  1  0
  6  7  1  0
  6  8  2  0
  8  9  1  0
  9 10  1  0
  9 34  2  0
 10 11  1  6
 10 12  1  0
 12 13  1  0
 13 14  2  0
 13 18  1  0
 14 15  1  0
 15 16  2  0
 16 17  1  0
 17 18  2  0
 18 19  1  0
 19 20  1  0
 20 21  1  0
 21 22  2  0
 21 33  1  0
 22 23  1  0
 23 24  2  0
 24 25  1  0
 24 32  1  0
 25 26  1  6
 25 28  1  0
 25 31  1  0
 26 27  1  0
 28 29  1  0
 29 30  1  0
 30 31  1  0
 32 33  2  0
M  CHG  2  14   1  30   1
M  END
