
     RDKit          3D

 34 36  0  0  0  0  0  0  0  0999 V2000
   -3.0830   -4.4630   -3.3270 C   0  0  0  0  0  0  0  0  0  0  0  0
   -3.2100   -2.9780   -3.4320 C   0  0  0  0  0  0  0  0  0  0  0  0
   -2.4670   -2.3670   -2.3430 N   0  0  0  0  0  0  0  0  0  0  0  0
   -3.2410   -1.2650   -1.7500 C   0  0  0  0  0  0  0  0  0  0  0  0
   -2.2790   -0.3070   -1.2080 C   0  0  0  0  0  0  0  0  0  0  0  0
   -2.1450    0.0940    0.0360 C   0  0  0  0  0  0  0  0  0  0  0  0
   -2.9920   -0.3880    1.1280 C   0  0  0  0  0  0  0  0  0  0  0  0
   -2.2980   -1.1420    2.2200 C   0  0  1  0  0  0  0  0  0  0  0  0
   -3.4080   -1.5360    3.2160 C   0  0  0  0  0  0  0  0  0  0  0  0
   -1.6850   -2.4380    1.7340 C   0  0  0  0  0  0  0  0  0  0  0  0
   -1.3000   -0.3630    3.0110 C   0  0  0  0  0  0  0  0  0  0  0  0
   -1.1360    1.0560    0.3110 N   0  0  0  0  0  0  0  0  0  0  0  0
   -1.5790    2.3250    0.7770 C   0  0  0  0  0  0  0  0  0  0  0  0
   -2.3930    3.0660    0.1240 N   0  0  0  0  0  0  0  0  0  0  0  0
   -2.7770    4.3080    0.6620 C   0  0  0  0  0  0  0  0  0  0  0  0
   -4.0910    4.4880    1.0440 C   0  0  0  0  0  0  0  0  0  0  0  0
   -4.4840    5.6990    1.5730 C   0  0  0  0  0  0  0  0  0  0  0  0
   -3.5610    6.6740    1.6990 N   0  0  0  0  0  0  0  0  0  0  0  0
   -2.2830    6.5090    1.3310 C   0  0  0  0  0  0  0  0  0  0  0  0
   -1.8480    5.3100    0.7970 C   0  0  0  0  0  0  0  0  0  0  0  0
    0.2530    0.8130    0.1340 C   0  0  0  0  0  0  0  0  0  0  0  0
    0.7020   -0.4060   -0.3270 C   0  0  0  0  0  0  0  0  0  0  0  0
    2.0690   -0.6180   -0.4910 C   0  0  0  0  0  0  0  0  0  0  0  0
    2.9960    0.3540   -0.2070 C   0  0  0  0  0  0  0  0  0  0  0  0
    4.3930    0.1440   -0.3730 N   0  0  0  0  0  0  0  0  0  0  0  0
    4.8180   -1.1530   -0.8640 C   0  0  0  0  0  0  0  0  0  0  0  0
    6.2730   -1.2760   -1.0010 C   0  0  0  0  0  0  0  0  0  0  0  0
    7.0000   -1.7510    0.0800 C   0  0  0  0  0  0  0  0  0  0  0  0
    8.3540   -1.8770   -0.0160 C   0  0  0  0  0  0  0  0  0  0  0  0
    8.9730   -1.5250   -1.2040 C   0  0  0  0  0  0  0  0  0  0  0  0
    8.2560   -1.0520   -2.2820 C   0  0  0  0  0  0  0  0  0  0  0  0
    6.8850   -0.9240   -2.1850 C   0  0  0  0  0  0  0  0  0  0  0  0
    2.5470    1.5720    0.2530 C   0  0  0  0  0  0  0  0  0  0  0  0
    1.1760    1.7870    0.4190 C   0  0  0  0  0  0  0  0  0  0  0  0
  1  2  1  0
  2  3  1  0
  3  4  1  0
  4  5  1  0
  5  6  2  3
  6  7  1  0
  6 12  1  0
  7  8  1  0
  8  9  1  1
  8 10  1  0
  8 11  1  0
 12 13  1  0
 12 21  1  0
 13 14  2  3
 14 15  1  0
 15 16  2  0
 15 20  1  0
 16 17  1  0
 17 18  2  0
 18 19  1  0
 19 20  2  0
 21 22  2  0
 21 34  1  0
 22 23  1  0
 23 24  2  0
 24 25  1  0
 24 33  1  0
 25 26  1  0
 26 27  1  0
 27 28  2  0
 27 32  1  0
 28 29  1  0
 29 30  2  0
 30 31  1  0
 31 32  2  0
 33 34  2  0
M  CHG  2   3   1  18   1
M  END
