
     RDKit          3D

 35 36  0  0  0  0  0  0  0  0999 V2000
   -3.9690   -2.2720    2.2160 C   0  0  0  0  0  0  0  0  0  0  0  0
   -2.7490   -1.4320    1.7390 C   0  0  1  0  0  0  0  0  0  0  0  0
   -3.1030   -1.0370    0.3960 N   0  0  0  0  0  0  0  0  0  0  0  0
   -2.1020   -0.5660   -0.4650 C   0  0  1  0  0  0  0  0  0  0  0  0
   -2.4430    0.6530   -1.2770 C   0  0  0  0  0  0  0  0  0  0  0  0
   -3.5570    0.5660   -2.2280 C   0  0  0  0  0  0  0  0  0  0  0  0
   -4.9050    0.2470   -1.7430 C   0  0  0  0  0  0  0  0  0  0  0  0
   -5.7050    1.2650   -1.2140 C   0  0  0  0  0  0  0  0  0  0  0  0
   -6.9880    0.9980   -0.7990 C   0  0  0  0  0  0  0  0  0  0  0  0
   -7.5370   -0.2660   -0.8830 C   0  0  0  0  0  0  0  0  0  0  0  0
   -6.7420   -1.2630   -1.4050 C   0  0  0  0  0  0  0  0  0  0  0  0
   -5.4650   -1.0010   -1.8190 C   0  0  0  0  0  0  0  0  0  0  0  0
   -0.7380   -0.4100    0.1030 C   0  0  0  0  0  0  0  0  0  0  0  0
   -0.4240   -0.5370    1.3080 O   0  0  0  0  0  0  0  0  0  0  0  0
    0.3700   -0.0850   -0.7470 N   0  0  0  0  0  0  0  0  0  0  0  0
    1.7380    0.0720   -0.1740 C   0  0  1  0  0  0  0  0  0  0  0  0
    2.5600   -0.9170   -0.9290 C   0  0  0  0  0  0  0  0  0  0  0  0
    3.9920   -1.0360   -0.5720 C   0  0  0  0  0  0  0  0  0  0  0  0
    4.1970   -1.4790    0.8780 C   0  0  0  0  0  0  0  0  0  0  0  0
    3.5610   -2.7830    0.9970 N   0  0  0  0  0  0  0  0  0  0  0  0
    4.2820   -3.8310    0.8750 C   0  0  0  0  0  0  0  0  0  0  0  0
    3.7410   -5.1550    0.9780 N   0  0  0  0  0  0  0  0  0  0  0  0
    5.6760   -3.7350    0.6290 N   0  0  0  0  0  0  0  0  0  0  0  0
    2.1320    1.4970   -0.4170 C   0  0  0  0  0  0  0  0  0  0  0  0
    1.3580    2.2160   -1.0800 O   0  0  0  0  0  0  0  0  0  0  0  0
    3.3310    2.0240    0.0800 N   0  0  0  0  0  0  0  0  0  0  0  0
    3.7960    3.3520   -0.1010 C   0  0  0  0  0  0  0  0  0  0  0  0
    4.8930    3.7860    0.6540 C   0  0  0  0  0  0  0  0  0  0  0  0
    5.4250    5.0420    0.5460 C   0  0  0  0  0  0  0  0  0  0  0  0
    4.8760    5.9290   -0.3320 C   0  0  0  0  0  0  0  0  0  0  0  0
    3.7990    5.5460   -1.0940 C   0  0  0  0  0  0  0  0  0  0  0  0
    3.2620    4.2600   -0.9770 C   0  0  0  0  0  0  0  0  0  0  0  0
   -2.7040   -0.3150    2.6850 C   0  0  0  0  0  0  0  0  0  0  0  0
   -2.4090   -0.5040    3.8750 O   0  0  0  0  0  0  0  0  0  0  0  0
   -2.9920    0.9560    2.2530 O   0  0  0  0  0  0  0  0  0  0  0  0
  2  1  1  1
  2  3  1  0
  2 33  1  0
  3  4  1  0
  4  5  1  1
  4 13  1  0
  5  6  1  0
  6  7  1  0
  7  8  2  0
  7 12  1  0
  8  9  1  0
  9 10  2  0
 10 11  1  0
 11 12  2  0
 13 14  2  0
 13 15  1  0
 15 16  1  0
 16 17  1  6
 16 24  1  0
 17 18  1  0
 18 19  1  0
 19 20  1  0
 20 21  2  3
 21 22  1  0
 21 23  1  0
 24 25  2  0
 24 26  1  0
 26 27  1  0
 27 28  2  0
 27 32  1  0
 28 29  1  0
 29 30  2  0
 30 31  1  0
 31 32  2  0
 33 34  2  0
 33 35  1  0
M  CHG  2   3   1  20   1
M  END
