
     RDKit          3D

 30 33  0  0  0  0  0  0  0  0999 V2000
   -4.8000    0.2520    2.2100 C   0  0  0  0  0  0  0  0  0  0  0  0
   -5.0150    0.5860    0.7240 C   0  0  2  0  0  0  0  0  0  0  0  0
   -6.4990    0.6620    0.4650 C   0  0  0  0  0  0  0  0  0  0  0  0
   -7.0620   -0.7190    0.6810 C   0  0  0  0  0  0  0  0  0  0  0  0
   -7.9810   -0.9230    1.4770 O   0  0  0  0  0  0  0  0  0  0  0  0
   -6.4310   -1.7270   -0.1150 N   0  0  0  0  0  0  0  0  0  0  0  0
   -5.1030   -1.4980   -0.4450 N   0  0  0  0  0  0  0  0  0  0  0  0
   -4.4130   -0.4720   -0.0960 C   0  0  0  0  0  0  0  0  0  0  0  0
   -3.0070   -0.4200   -0.5560 C   0  0  0  0  0  0  0  0  0  0  0  0
   -2.1880    0.6250   -0.2140 C   0  0  0  0  0  0  0  0  0  0  0  0
   -0.8600    0.6750   -0.6550 C   0  0  0  0  0  0  0  0  0  0  0  0
   -0.3630   -0.3380   -1.4420 C   0  0  0  0  0  0  0  0  0  0  0  0
    0.9960   -0.2750   -1.8850 N   0  0  0  0  0  0  0  0  0  0  0  0
    1.8460    0.8050   -1.5380 C   0  0  0  0  0  0  0  0  0  0  0  0
    2.4410    0.8320   -0.3560 C   0  0  0  0  0  0  0  0  0  0  0  0
    2.2420   -0.2420    0.6200 C   0  0  0  0  0  0  0  0  0  0  0  0
    3.5250   -0.9090    0.9450 C   0  0  0  0  0  0  0  0  0  0  0  0
    4.3250   -0.5580    2.0230 C   0  0  0  0  0  0  0  0  0  0  0  0
    5.5100   -1.2020    2.2840 C   0  0  0  0  0  0  0  0  0  0  0  0
    5.9290   -2.2210    1.4690 C   0  0  0  0  0  0  0  0  0  0  0  0
    5.1530   -2.6010    0.3780 C   0  0  0  0  0  0  0  0  0  0  0  0
    5.7840   -4.1660   -0.8830 I   0  0  0  0  0  0  0  0  0  0  0  0
    3.9740   -1.9490    0.1310 C   0  0  0  0  0  0  0  0  0  0  0  0
    3.3100    1.9930   -0.0640 C   0  0  0  0  0  0  0  0  0  0  0  0
    3.3990    2.4100    1.0960 O   0  0  0  0  0  0  0  0  0  0  0  0
    4.0750    2.6600   -1.1480 C   0  0  0  0  0  0  0  0  0  0  0  0
    3.6360    2.1070   -2.4920 C   0  0  0  0  0  0  0  0  0  0  0  0
    2.1170    1.9420   -2.4510 C   0  0  0  0  0  0  0  0  0  0  0  0
   -1.1920   -1.3810   -1.7790 C   0  0  0  0  0  0  0  0  0  0  0  0
   -2.4980   -1.4400   -1.3520 C   0  0  0  0  0  0  0  0  0  0  0  0
  2  1  1  1
  2  3  1  0
  2  8  1  0
  3  4  1  0
  4  5  2  0
  4  6  1  0
  6  7  1  0
  7  8  2  0
  8  9  1  0
  9 10  2  0
  9 30  1  0
 10 11  1  0
 11 12  2  0
 12 13  1  0
 12 29  1  0
 13 14  1  0
 14 15  2  0
 14 28  1  0
 15 16  1  0
 15 24  1  0
 16 17  1  0
 17 18  2  0
 17 23  1  0
 18 19  1  0
 19 20  2  0
 20 21  1  0
 21 22  1  0
 21 23  2  0
 24 25  2  0
 24 26  1  0
 26 27  1  0
 27 28  1  0
 29 30  2  0
M  END
