
     RDKit          3D

 31 34  0  0  0  0  0  0  0  0999 V2000
   -6.4570   -1.4910    1.0610 C   0  0  0  0  0  0  0  0  0  0  0  0
   -5.5350   -0.7640    1.9500 C   0  0  0  0  0  0  0  0  0  0  0  0
   -6.0160   -0.1730    3.1010 C   0  0  0  0  0  0  0  0  0  0  0  0
   -5.1940    0.5250    3.9720 C   0  0  0  0  0  0  0  0  0  0  0  0
   -3.8700    0.5990    3.6310 C   0  0  0  0  0  0  0  0  0  0  0  0
   -3.3390    0.0160    2.4750 C   0  0  0  0  0  0  0  0  0  0  0  0
   -2.0090    0.1300    2.2010 O   0  0  0  0  0  0  0  0  0  0  0  0
   -1.3820    1.1520    1.5290 C   0  0  0  0  0  0  0  0  0  0  0  0
   -2.0730    2.1040    1.1050 O   0  0  0  0  0  0  0  0  0  0  0  0
    0.0730    1.1950    1.2710 C   0  0  0  0  0  0  0  0  0  0  0  0
    0.4980    0.0550    0.3690 C   0  0  0  0  0  0  0  0  0  0  0  0
    1.9790    0.1250    0.1100 C   0  0  0  0  0  0  0  0  0  0  0  0
    2.5630    1.1080    0.5510 O   0  0  0  0  0  0  0  0  0  0  0  0
    2.6200   -0.9050   -0.6040 N   0  0  0  0  0  0  0  0  0  0  0  0
    3.9800   -0.9520   -0.9300 C   0  0  0  0  0  0  0  0  0  0  0  0
    4.6960   -2.4140   -1.5930 S   0  0  0  0  0  0  0  0  0  0  0  0
    6.3440   -1.8280   -1.7880 C   0  0  0  0  0  0  0  0  0  0  0  0
    7.5170   -2.5530   -2.3070 C   0  0  0  0  0  0  0  0  0  0  0  0
    8.6330   -2.0210   -2.4000 O   0  0  0  0  0  0  0  0  0  0  0  0
    6.2380   -0.5120   -1.3210 C   0  0  0  0  0  0  0  0  0  0  0  0
    5.0560   -0.0920   -0.9010 C   0  0  0  0  0  0  0  0  0  0  0  0
    5.1730    1.3780   -0.5330 C   0  0  0  0  0  0  0  0  0  0  0  0
    6.4670    1.8100   -1.1880 C   0  0  0  0  0  0  0  0  0  0  0  0
    7.2920    0.5810   -1.1460 C   0  0  0  0  0  0  0  0  0  0  0  0
   -4.1750   -0.6670    1.6330 C   0  0  0  0  0  0  0  0  0  0  0  0
   -3.7590   -1.2760    0.4820 O   0  0  0  0  0  0  0  0  0  0  0  0
   -3.7860   -0.5930   -0.7450 C   0  0  0  0  0  0  0  0  0  0  0  0
   -3.4700   -1.0640   -1.9220 C   0  0  0  0  0  0  0  0  0  0  0  0
   -3.6410   -0.0120   -2.9320 C   0  0  0  0  0  0  0  0  0  0  0  0
   -4.1100    1.1540   -2.1700 C   0  0  0  0  0  0  0  0  0  0  0  0
   -4.1890    0.7980   -0.8990 C   0  0  0  0  0  0  0  0  0  0  0  0
  1  2  1  0
  2  3  2  0
  2 25  1  0
  3  4  1  0
  4  5  2  0
  5  6  1  0
  6  7  1  0
  6 25  2  0
  7  8  1  0
  8  9  2  0
  8 10  1  0
 10 11  1  0
 11 12  1  0
 12 13  2  0
 12 14  1  0
 14 15  1  0
 15 16  1  0
 15 21  2  0
 16 17  1  0
 17 18  1  0
 17 20  2  0
 18 19  2  0
 20 21  1  0
 20 24  1  0
 21 22  1  0
 22 23  1  0
 23 24  1  0
 25 26  1  0
 26 27  1  0
 27 28  2  0
 27 31  1  0
 28 29  1  0
 29 30  1  0
 30 31  2  0
M  END
