
     RDKit          3D

 29 31  0  0  0  0  0  0  0  0999 V2000
   -0.4700   -1.0080    2.9900 O   0  0  0  0  0  0  0  0  0  0  0  0
   -1.2480   -0.4000    2.2410 C   0  0  0  0  0  0  0  0  0  0  0  0
   -2.6880   -0.3530    2.5970 C   0  0  0  0  0  0  0  0  0  0  0  0
   -3.5180    0.2210    1.6320 O   0  0  0  0  0  0  0  0  0  0  0  0
   -3.7410   -0.2720    0.3550 C   0  0  0  0  0  0  0  0  0  0  0  0
   -3.1630   -1.3250    0.0130 O   0  0  0  0  0  0  0  0  0  0  0  0
   -4.6600    0.4590   -0.5840 C   0  0  1  0  0  0  0  0  0  0  0  0
   -4.7240   -0.3070   -1.8650 C   0  0  0  0  0  0  0  0  0  0  0  0
   -5.9140   -1.1900   -2.0010 C   0  0  0  0  0  0  0  0  0  0  0  0
   -6.5810   -1.3970   -0.7960 O   0  0  0  0  0  0  0  0  0  0  0  0
   -7.0840   -0.1590   -0.4010 C   0  0  0  0  0  0  0  0  0  0  0  0
   -5.9550    0.6650    0.1050 C   0  0  2  0  0  0  0  0  0  0  0  0
   -6.3440    2.0200    0.0020 O   0  0  0  0  0  0  0  0  0  0  0  0
   -0.8160    0.2490    1.0670 N   0  0  0  0  0  0  0  0  0  0  0  0
    0.5020    0.2930    0.5930 C   0  0  0  0  0  0  0  0  0  0  0  0
    1.5910   -0.2940    1.1860 C   0  0  0  0  0  0  0  0  0  0  0  0
    2.8870   -0.2290    0.6850 C   0  0  0  0  0  0  0  0  0  0  0  0
    3.1290    0.4490   -0.4610 C   0  0  0  0  0  0  0  0  0  0  0  0
    2.0660    1.0540   -1.0920 C   0  0  0  0  0  0  0  0  0  0  0  0
    0.7870    0.9880   -0.5940 C   0  0  0  0  0  0  0  0  0  0  0  0
   -0.2740    1.6160   -1.2600 O   0  0  0  0  0  0  0  0  0  0  0  0
    4.4800    0.5790   -1.0800 C   0  0  2  0  0  0  0  0  0  0  0  0
    4.5090   -0.1670   -2.2570 O   0  0  0  0  0  0  0  0  0  0  0  0
    5.5280    0.1170   -0.1070 C   0  0  2  0  0  0  0  0  0  0  0  0
    6.8720   -0.0550   -0.7340 C   0  0  0  0  0  0  0  0  0  0  0  0
    8.0170   -0.6170    0.5830 S   0  0  0  0  0  0  0  0  0  0  0  0
    8.1590    0.6850    1.6980 O   0  0  0  0  0  0  0  0  0  0  0  0
    5.0830   -1.2250    0.4690 C   0  0  0  0  0  0  0  0  0  0  0  0
    3.9630   -0.9150    1.4380 C   0  0  0  0  0  0  0  0  0  0  0  0
  1  2  2  0
  2  3  1  0
  2 14  1  0
  3  4  1  0
  4  5  1  0
  5  6  2  0
  7  5  1  1
  7  8  1  0
  7 12  1  0
  8  9  1  0
  9 10  1  0
 10 11  1  0
 11 12  1  0
 12 13  1  6
 14 15  1  0
 15 16  2  0
 15 20  1  0
 16 17  1  0
 17 18  2  0
 17 29  1  0
 18 19  1  0
 18 22  1  0
 19 20  2  0
 20 21  1  0
 22 23  1  6
 22 24  1  0
 24 25  1  6
 24 28  1  0
 25 26  1  0
 26 27  1  0
 28 29  1  0
M  END
