
     RDKit          3D

 31 33  0  0  0  0  0  0  0  0999 V2000
   -8.9010    1.0640    1.6630 C   0  0  0  0  0  0  0  0  0  0  0  0
   -8.8670    0.0900    0.5280 C   0  0  0  0  0  0  0  0  0  0  0  0
   -7.7480   -1.3010    0.8440 S   0  0  0  0  0  0  0  0  0  0  0  0
   -6.0680   -0.8560    0.9320 C   0  0  0  0  0  0  0  0  0  0  0  0
   -5.2910   -0.6270   -0.2050 C   0  0  0  0  0  0  0  0  0  0  0  0
   -6.1100   -0.8220   -1.3800 C   0  0  0  0  0  0  0  0  0  0  0  0
   -3.9520   -0.2980    0.1610 C   0  0  0  0  0  0  0  0  0  0  0  0
   -3.0130   -0.0180   -0.7210 C   0  0  0  0  0  0  0  0  0  0  0  0
   -3.2380   -0.0130   -2.1280 C   0  0  0  0  0  0  0  0  0  0  0  0
   -4.2550   -0.2110   -2.7660 O   0  0  0  0  0  0  0  0  0  0  0  0
   -1.5920    0.3450   -0.3720 C   0  0  0  0  0  0  0  0  0  0  0  0
   -0.9620    1.3450   -1.2280 C   0  0  0  0  0  0  0  0  0  0  0  0
    0.4310    1.6290   -0.8940 N   0  0  0  0  0  0  0  0  0  0  0  0
    1.4700    0.6640   -1.0200 C   0  0  0  0  0  0  0  0  0  0  0  0
    1.1760   -0.4920   -1.4540 O   0  0  0  0  0  0  0  0  0  0  0  0
    2.8550    0.9580   -0.6700 C   0  0  0  0  0  0  0  0  0  0  0  0
    3.2710    2.1720   -0.1700 C   0  0  0  0  0  0  0  0  0  0  0  0
    4.6420    2.0750    0.0410 C   0  0  0  0  0  0  0  0  0  0  0  0
    4.9750    0.7980   -0.3470 C   0  0  0  0  0  0  0  0  0  0  0  0
    6.3320    0.2310   -0.3030 C   0  0  0  0  0  0  0  0  0  0  0  0
    7.4700    0.8670    0.1300 C   0  0  0  0  0  0  0  0  0  0  0  0
    8.4950   -0.0550   -0.0130 C   0  0  0  0  0  0  0  0  0  0  0  0
    9.9430    0.1570    0.3240 C   0  0  0  0  0  0  0  0  0  0  0  0
    7.9450   -1.1920   -0.5180 C   0  0  0  0  0  0  0  0  0  0  0  0
    8.6030   -2.4790   -0.8580 C   0  0  0  0  0  0  0  0  0  0  0  0
    6.6640   -0.9910   -0.6780 O   0  0  0  0  0  0  0  0  0  0  0  0
    3.8830    0.1840   -0.7570 O   0  0  0  0  0  0  0  0  0  0  0  0
   -0.9370   -0.1660    0.6470 C   0  0  0  0  0  0  0  0  0  0  0  0
   -1.4530   -1.1870    1.6460 C   0  0  0  0  0  0  0  0  0  0  0  0
   -2.5950   -0.4310    2.3360 C   0  0  0  0  0  0  0  0  0  0  0  0
   -3.7400   -0.3050    1.5860 O   0  0  0  0  0  0  0  0  0  0  0  0
  1  2  1  0
  2  3  1  0
  3  4  1  0
  4  5  2  3
  5  6  1  0
  5  7  1  0
  7  8  2  0
  7 31  1  0
  8  9  1  0
  8 11  1  0
  9 10  2  0
 11 12  1  0
 11 28  2  0
 12 13  1  0
 13 14  1  0
 14 15  2  0
 14 16  1  0
 16 17  2  0
 16 27  1  0
 17 18  1  0
 18 19  2  0
 19 20  1  0
 19 27  1  0
 20 21  2  0
 20 26  1  0
 21 22  1  0
 22 23  1  0
 22 24  2  0
 24 25  1  0
 24 26  1  0
 28 29  1  0
 29 30  1  0
 30 31  1  0
M  END
