
     RDKit          3D

 29 30  0  0  0  0  0  0  0  0999 V2000
   -4.3920   -1.4290    2.3430 C   0  0  0  0  0  0  0  0  0  0  0  0
   -5.3360   -0.5790    1.9860 C   0  0  0  0  0  0  0  0  0  0  0  0
   -6.4550    0.3250    3.0970 S   0  0  0  0  0  0  0  0  0  0  0  0
   -7.7310    0.5530    1.8240 C   0  0  0  0  0  0  0  0  0  0  0  0
   -6.9270    0.4300    0.5940 C   0  0  0  0  0  0  0  0  0  0  0  0
   -5.7610   -0.1240    0.6840 C   0  0  0  0  0  0  0  0  0  0  0  0
   -4.8580   -0.3010   -0.5270 C   0  0  1  0  0  0  0  0  0  0  0  0
   -5.5280   -0.1270   -1.6850 O   0  0  0  0  0  0  0  0  0  0  0  0
   -4.8700   -0.0200   -2.8410 C   0  0  0  0  0  0  0  0  0  0  0  0
   -3.6040    0.7740   -2.8530 C   0  0  0  0  0  0  0  0  0  0  0  0
   -2.8120    0.7060   -1.5980 C   0  0  2  0  0  0  0  0  0  0  0  0
   -1.6630   -0.1340   -1.7030 O   0  0  0  0  0  0  0  0  0  0  0  0
   -0.3670    0.2890   -1.6410 C   0  0  0  0  0  0  0  0  0  0  0  0
   -0.1820    1.5160   -1.4790 O   0  0  0  0  0  0  0  0  0  0  0  0
    0.7530   -0.6800   -1.7630 C   0  0  1  0  0  0  0  0  0  0  0  0
    0.6300   -1.4370   -3.0570 C   0  0  0  0  0  0  0  0  0  0  0  0
    2.0410   -0.0180   -1.6710 N   0  0  0  0  0  0  0  0  0  0  0  0
    2.9160   -0.2980   -0.6000 C   0  0  0  0  0  0  0  0  0  0  0  0
    2.5220   -1.1470    0.2630 O   0  0  0  0  0  0  0  0  0  0  0  0
    4.2180    0.3210   -0.4360 C   0  0  0  0  0  0  0  0  0  0  0  0
    4.5940    1.1520   -1.2910 O   0  0  0  0  0  0  0  0  0  0  0  0
    5.0510    0.0310    0.6200 O   0  0  0  0  0  0  0  0  0  0  0  0
    6.3210    0.6190    0.8030 C   0  0  0  0  0  0  0  0  0  0  0  0
    7.0000    0.1070    2.0480 C   0  0  1  0  0  0  0  0  0  0  0  0
    7.1770   -1.3950    2.0080 C   0  0  0  0  0  0  0  0  0  0  0  0
    8.3650    0.7430    2.1840 C   0  0  0  0  0  0  0  0  0  0  0  0
    6.2300    0.3970    3.1750 O   0  0  0  0  0  0  0  0  0  0  0  0
   -3.5780    0.4210   -0.3590 C   0  0  1  0  0  0  0  0  0  0  0  0
   -3.8710    1.6190    0.3400 O   0  0  0  0  0  0  0  0  0  0  0  0
  1  2  2  0
  2  3  1  0
  2  6  1  0
  3  4  1  0
  4  5  1  0
  5  6  2  0
  7  6  1  1
  7  8  1  0
  7 28  1  0
  8  9  1  0
  9 10  1  0
 10 11  1  0
 11 12  1  6
 11 28  1  0
 12 13  1  0
 13 14  2  0
 13 15  1  0
 15 16  1  6
 15 17  1  0
 17 18  1  0
 18 19  2  0
 18 20  1  0
 20 21  2  0
 20 22  1  0
 22 23  1  0
 23 24  1  0
 24 25  1  6
 24 26  1  0
 24 27  1  0
 28 29  1  6
M  END
