
     RDKit          3D

 29 31  0  0  0  0  0  0  0  0999 V2000
   -3.4310   -2.2640   -1.5830 C   0  0  0  0  0  0  0  0  0  0  0  0
   -2.5330   -1.1050   -1.9880 C   0  0  0  0  0  0  0  0  0  0  0  0
   -2.6070    0.0200   -0.9370 C   0  0  1  0  0  0  0  0  0  0  0  0
   -1.7540    1.0120   -1.4130 O   0  0  0  0  0  0  0  0  0  0  0  0
   -3.9910    0.5290   -0.9540 C   0  0  0  0  0  0  0  0  0  0  0  0
   -4.4920    1.4160    0.0870 C   0  0  0  0  0  0  0  0  0  0  0  0
   -3.7920    1.5170    1.3840 C   0  0  1  0  0  0  0  0  0  0  0  0
   -2.7610    2.6160    1.4490 C   0  0  0  0  0  0  0  0  0  0  0  0
   -4.8120    1.8130    2.4710 C   0  0  0  0  0  0  0  0  0  0  0  0
   -5.4370    3.0000    2.1770 O   0  0  0  0  0  0  0  0  0  0  0  0
   -3.0740   -0.1030    1.7760 S   0  0  0  0  0  0  0  0  0  0  0  0
   -2.0910   -0.5560    0.3200 C   0  0  2  0  0  0  0  0  0  0  0  0
   -0.7490   -0.0430    0.5620 N   0  0  0  0  0  0  0  0  0  0  0  0
    0.3850   -0.8540    0.7410 C   0  0  0  0  0  0  0  0  0  0  0  0
    0.2120   -2.1030    0.6870 O   0  0  0  0  0  0  0  0  0  0  0  0
    1.7540   -0.3240    0.9880 C   0  0  1  0  0  0  0  0  0  0  0  0
    2.6890   -1.3770    1.1460 O   0  0  0  0  0  0  0  0  0  0  0  0
    3.9620   -1.3510    0.6500 C   0  0  0  0  0  0  0  0  0  0  0  0
    4.8210   -2.3730    1.0270 C   0  0  0  0  0  0  0  0  0  0  0  0
    4.3950   -3.3800    1.8760 O   0  0  0  0  0  0  0  0  0  0  0  0
    6.1110   -2.3720    0.5420 C   0  0  0  0  0  0  0  0  0  0  0  0
    6.5280   -1.3700   -0.3020 C   0  0  0  0  0  0  0  0  0  0  0  0
    5.6600   -0.3430   -0.6780 C   0  0  0  0  0  0  0  0  0  0  0  0
    6.0330    0.6730   -1.5140 O   0  0  0  0  0  0  0  0  0  0  0  0
    7.3060    0.8160   -2.0900 C   0  0  0  0  0  0  0  0  0  0  0  0
    4.3740   -0.3490   -0.1910 C   0  0  0  0  0  0  0  0  0  0  0  0
    3.4540    0.6450   -0.5250 O   0  0  0  0  0  0  0  0  0  0  0  0
    2.1620    0.6370   -0.0340 C   0  0  0  0  0  0  0  0  0  0  0  0
    1.3420    1.4700   -0.4810 O   0  0  0  0  0  0  0  0  0  0  0  0
  1  2  1  0
  2  3  1  0
  3  4  1  6
  3  5  1  0
  3 12  1  0
  5  6  1  0
  6  7  1  0
  7  8  1  6
  7  9  1  0
  7 11  1  0
  9 10  1  0
 11 12  1  0
 12 13  1  1
 13 14  1  0
 14 15  2  0
 16 14  1  6
 16 17  1  0
 16 28  1  0
 17 18  1  0
 18 19  2  0
 18 26  1  0
 19 20  1  0
 19 21  1  0
 21 22  2  0
 22 23  1  0
 23 24  1  0
 23 26  2  0
 24 25  1  0
 26 27  1  0
 27 28  1  0
 28 29  2  0
M  END
