
     RDKit          3D

 31 33  0  0  0  0  0  0  0  0999 V2000
    8.2670   -2.1120   -1.1490 C   0  0  0  0  0  0  0  0  0  0  0  0
    7.2760   -1.4220   -0.6690 C   0  0  0  0  0  0  0  0  0  0  0  0
    6.0130   -1.9970   -0.2450 C   0  0  0  0  0  0  0  0  0  0  0  0
    4.9880   -1.3600    0.2420 C   0  0  0  0  0  0  0  0  0  0  0  0
    3.7990   -2.2300    0.5990 C   0  0  0  0  0  0  0  0  0  0  0  0
    4.9060    0.0650    0.4580 C   0  0  0  0  0  0  0  0  0  0  0  0
    3.6710    0.6630    1.0210 C   0  0  0  0  0  0  0  0  0  0  0  0
    2.7050   -0.0530    1.3100 O   0  0  0  0  0  0  0  0  0  0  0  0
    3.5850    2.0320    1.2320 O   0  0  0  0  0  0  0  0  0  0  0  0
    2.4860    2.6980    1.7450 C   0  0  0  0  0  0  0  0  0  0  0  0
    1.2500    2.6280    0.9610 C   0  0  0  0  0  0  0  0  0  0  0  0
    0.2040    3.1490    1.4190 O   0  0  0  0  0  0  0  0  0  0  0  0
    1.1820    1.9930   -0.3030 N   0  0  0  0  0  0  0  0  0  0  0  0
   -0.0500    1.9450   -1.0180 C   0  0  0  0  0  0  0  0  0  0  0  0
   -1.1280    1.1780   -0.3720 C   0  0  0  0  0  0  0  0  0  0  0  0
   -1.0250    0.4890    0.8110 C   0  0  0  0  0  0  0  0  0  0  0  0
   -2.0840   -0.2270    1.3520 C   0  0  0  0  0  0  0  0  0  0  0  0
   -1.9720   -0.9660    2.6250 C   0  0  0  0  0  0  0  0  0  0  0  0
   -3.2870   -0.2510    0.6790 C   0  0  0  0  0  0  0  0  0  0  0  0
   -3.4270    0.4300   -0.5150 C   0  0  0  0  0  0  0  0  0  0  0  0
   -4.6500    0.4080   -1.2040 O   0  0  0  0  0  0  0  0  0  0  0  0
   -5.7060   -0.3070   -0.6630 C   0  0  0  0  0  0  0  0  0  0  0  0
   -5.8560   -1.6220   -0.6220 C   0  0  0  0  0  0  0  0  0  0  0  0
   -7.1300   -1.9280    0.0480 C   0  0  0  0  0  0  0  0  0  0  0  0
   -7.6800   -0.5990    0.3800 C   0  0  0  0  0  0  0  0  0  0  0  0
   -6.8560    0.3390   -0.0310 C   0  0  0  0  0  0  0  0  0  0  0  0
   -2.3510    1.1290   -1.0170 C   0  0  0  0  0  0  0  0  0  0  0  0
   -2.5140    1.8140   -2.2320 O   0  0  0  0  0  0  0  0  0  0  0  0
   -2.2390    1.1790   -3.4580 C   0  0  0  0  0  0  0  0  0  0  0  0
    5.8990    0.8770    0.1700 C   0  0  0  0  0  0  0  0  0  0  0  0
    7.4430    0.3450   -0.5080 S   0  0  0  0  0  0  0  0  0  0  0  0
  1  2  2  0
  2  3  1  0
  2 31  1  0
  3  4  2  0
  4  5  1  0
  4  6  1  0
  6  7  1  0
  6 30  2  0
  7  8  2  0
  7  9  1  0
  9 10  1  0
 10 11  1  0
 11 12  2  0
 11 13  1  0
 13 14  1  0
 14 15  1  0
 15 16  2  0
 15 27  1  0
 16 17  1  0
 17 18  1  0
 17 19  2  0
 19 20  1  0
 20 21  1  0
 20 27  2  0
 21 22  1  0
 22 23  2  0
 22 26  1  0
 23 24  1  0
 24 25  1  0
 25 26  2  0
 27 28  1  0
 28 29  1  0
 30 31  1  0
M  END
