
     RDKit          3D

 30 33  0  0  0  0  0  0  0  0999 V2000
    5.4770   -2.0710    0.2310 C   0  0  0  0  0  0  0  0  0  0  0  0
    4.4690   -1.0500   -0.1600 C   0  0  0  0  0  0  0  0  0  0  0  0
    4.7980    0.1900   -0.6370 C   0  0  0  0  0  0  0  0  0  0  0  0
    3.6040    0.8480   -0.8890 C   0  0  0  0  0  0  0  0  0  0  0  0
    2.6140   -0.0370   -0.5480 C   0  0  0  0  0  0  0  0  0  0  0  0
    3.1340   -1.1930   -0.1050 N   0  0  0  0  0  0  0  0  0  0  0  0
    2.4080   -2.3780    0.3510 C   0  0  1  0  0  0  0  0  0  0  0  0
    2.8310   -2.7510    1.7730 C   0  0  0  0  0  0  0  0  0  0  0  0
    0.9440   -2.1700    0.2600 C   0  0  0  0  0  0  0  0  0  0  0  0
    0.2270   -2.9140   -0.4580 O   0  0  0  0  0  0  0  0  0  0  0  0
    0.3150   -1.1270    0.9800 N   0  0  0  0  0  0  0  0  0  0  0  0
   -1.0990   -0.8320    0.9640 C   0  0  0  0  0  0  0  0  0  0  0  0
   -1.5350   -0.4920   -0.4320 C   0  0  0  0  0  0  0  0  0  0  0  0
   -2.9890   -0.1960   -0.3750 C   0  0  0  0  0  0  0  0  0  0  0  0
   -4.0010   -1.0760   -0.5290 N   0  0  0  0  0  0  0  0  0  0  0  0
   -5.1730   -0.4330   -0.4100 C   0  0  0  0  0  0  0  0  0  0  0  0
   -6.4660   -0.8960   -0.4890 C   0  0  0  0  0  0  0  0  0  0  0  0
   -7.4770    0.0470   -0.3170 C   0  0  0  0  0  0  0  0  0  0  0  0
   -9.1240   -0.5200   -0.4130 Cl  0  0  0  0  0  0  0  0  0  0  0  0
   -7.2320    1.3800   -0.0790 C   0  0  0  0  0  0  0  0  0  0  0  0
   -8.3530    2.3470    0.0970 C   0  0  1  0  0  0  0  0  0  0  0  0
   -8.2040    2.9830    1.3170 F   0  0  0  0  0  0  0  0  0  0  0  0
   -8.1780    3.5750   -1.1770 Cl  0  0  0  0  0  0  0  0  0  0  0  0
   -5.9200    1.8020   -0.0080 C   0  0  0  0  0  0  0  0  0  0  0  0
   -4.8890    0.9020   -0.1720 C   0  0  0  0  0  0  0  0  0  0  0  0
   -3.5550    0.9930   -0.1600 N   0  0  0  0  0  0  0  0  0  0  0  0
    3.7160    2.2310   -1.4200 C   0  0  0  0  0  0  0  0  0  0  0  0
    4.7270    2.9510   -0.5740 C   0  0  0  0  0  0  0  0  0  0  0  0
    6.0010    2.3120   -0.4960 N   0  0  0  0  0  0  0  0  0  0  0  0
    6.0400    0.9520   -0.9300 C   0  0  0  0  0  0  0  0  0  0  0  0
  1  2  1  0
  2  3  2  0
  2  6  1  0
  3  4  1  0
  3 30  1  0
  4  5  2  0
  4 27  1  0
  5  6  1  0
  6  7  1  0
  7  8  1  1
  7  9  1  0
  9 10  2  0
  9 11  1  0
 11 12  1  0
 12 13  1  0
 13 14  1  0
 14 15  1  0
 14 26  2  0
 15 16  1  0
 16 17  2  0
 16 25  1  0
 17 18  1  0
 18 19  1  0
 18 20  2  0
 20 21  1  0
 20 24  1  0
 21 22  1  1
 21 23  1  0
 24 25  2  0
 25 26  1  0
 27 28  1  0
 28 29  1  0
 29 30  1  0
M  CHG  1  26   1
M  END
