
     RDKit          3D

 30 33  0  0  0  0  0  0  0  0999 V2000
    6.3500    3.0410    0.7980 O   0  0  0  0  0  0  0  0  0  0  0  0
    5.1430    2.3940    0.6430 C   0  0  0  0  0  0  0  0  0  0  0  0
    3.9720    3.0760    0.9970 C   0  0  0  0  0  0  0  0  0  0  0  0
    2.7350    2.5140    0.8770 C   0  0  0  0  0  0  0  0  0  0  0  0
    1.2770    3.3970    1.3310 Cl  0  0  0  0  0  0  0  0  0  0  0  0
    2.5670    1.2060    0.3860 C   0  0  0  0  0  0  0  0  0  0  0  0
    1.1980    0.6520    0.2770 C   0  0  0  0  0  0  0  0  0  0  0  0
    1.0930   -0.6740   -0.2250 N   0  0  0  0  0  0  0  0  0  0  0  0
   -0.1920   -1.2600   -0.3660 C   0  0  0  0  0  0  0  0  0  0  0  0
   -0.3630   -2.5470   -0.8300 C   0  0  0  0  0  0  0  0  0  0  0  0
   -1.6280   -3.0920   -0.9610 C   0  0  0  0  0  0  0  0  0  0  0  0
   -2.6820   -2.3290   -0.6200 N   0  0  0  0  0  0  0  0  0  0  0  0
   -2.5940   -1.0770   -0.1640 C   0  0  0  0  0  0  0  0  0  0  0  0
   -3.7150   -0.3120    0.1790 N   0  0  0  0  0  0  0  0  0  0  0  0
   -3.6790    1.0260    0.6710 C   0  0  0  0  0  0  0  0  0  0  0  0
   -4.9330    1.5040    1.3200 C   0  0  0  0  0  0  0  0  0  0  0  0
   -6.2010    1.1040    0.6500 C   0  0  0  0  0  0  0  0  0  0  0  0
   -5.9400    0.1660   -0.5100 C   0  0  2  0  0  0  0  0  0  0  0  0
   -5.2080    1.0160   -1.8790 Cl  0  0  0  0  0  0  0  0  0  0  0  0
   -7.2210   -0.4810   -0.9820 C   0  0  0  0  0  0  0  0  0  0  0  0
   -6.8650   -1.3190   -2.0470 F   0  0  0  0  0  0  0  0  0  0  0  0
   -5.0400   -0.9290    0.0190 C   0  0  0  0  0  0  0  0  0  0  0  0
   -1.3110   -0.5320   -0.0350 C   0  0  0  0  0  0  0  0  0  0  0  0
    3.7210    0.5500    0.0430 C   0  0  0  0  0  0  0  0  0  0  0  0
    4.9930    1.1210    0.1640 C   0  0  0  0  0  0  0  0  0  0  0  0
    6.1650    0.3450   -0.2290 C   0  0  0  0  0  0  0  0  0  0  0  0
    6.1350   -0.9550   -0.7230 C   0  0  0  0  0  0  0  0  0  0  0  0
    7.3690   -1.3890   -0.9890 N   0  0  0  0  0  0  0  0  0  0  0  0
    8.2000   -0.3890   -0.6750 C   0  0  0  0  0  0  0  0  0  0  0  0
    7.4640    0.6640   -0.2130 N   0  0  0  0  0  0  0  0  0  0  0  0
  1  2  1  0
  2  3  2  0
  2 25  1  0
  3  4  1  0
  4  5  1  0
  4  6  2  0
  6  7  1  0
  6 24  1  0
  7  8  1  0
  8  9  1  0
  9 10  2  0
  9 23  1  0
 10 11  1  0
 11 12  2  0
 12 13  1  0
 13 14  1  0
 13 23  2  0
 14 15  1  0
 14 22  1  0
 15 16  1  0
 16 17  1  0
 17 18  1  0
 18 19  1  6
 18 20  1  0
 18 22  1  0
 20 21  1  0
 24 25  2  0
 25 26  1  0
 26 27  2  0
 26 30  1  0
 27 28  1  0
 28 29  1  0
 29 30  2  0
M  CHG  1  30   1
M  END
