
     RDKit          3D

 30 33  0  0  0  0  0  0  0  0999 V2000
    2.6420    0.0080   -6.1570 N   0  0  0  0  0  0  0  0  0  0  0  0
    2.7210   -1.1170   -5.7610 C   0  0  0  0  0  0  0  0  0  0  0  0
    2.8350   -2.4090   -5.2990 N   0  0  0  0  0  0  0  0  0  0  0  0
    3.7000   -2.4720   -4.1690 C   0  0  0  0  0  0  0  0  0  0  0  0
    3.0260   -2.4260   -2.8450 C   0  0  0  0  0  0  0  0  0  0  0  0
    1.6650   -2.3310   -2.6940 C   0  0  0  0  0  0  0  0  0  0  0  0
    1.0920   -2.2980   -1.4180 C   0  0  0  0  0  0  0  0  0  0  0  0
    1.8330   -2.3570   -0.2640 C   0  0  0  0  0  0  0  0  0  0  0  0
    1.2690   -2.3020    1.0840 C   0  0  0  0  0  0  0  0  0  0  0  0
    1.5370   -3.1470    2.0870 N   0  0  0  0  0  0  0  0  0  0  0  0
    0.9250   -2.8520    3.1950 N   0  0  0  0  0  0  0  0  0  0  0  0
    0.1910   -1.7350    2.9320 C   0  0  0  0  0  0  0  0  0  0  0  0
    0.3790   -1.3590    1.6230 C   0  0  0  0  0  0  0  0  0  0  0  0
   -0.1870   -0.2680    0.9320 N   0  0  0  0  0  0  0  0  0  0  0  0
   -1.0160    0.7160    1.5150 C   0  0  0  0  0  0  0  0  0  0  0  0
   -1.2780    0.6150    2.7500 O   0  0  0  0  0  0  0  0  0  0  0  0
   -1.5840    1.8540    0.7530 C   0  0  1  0  0  0  0  0  0  0  0  0
   -2.8290    1.4160    0.0100 C   0  0  0  0  0  0  0  0  0  0  0  0
   -3.8010    1.1830    1.1830 C   0  0  0  0  0  0  0  0  0  0  0  0
   -3.4830    2.3800    2.0020 C   0  0  0  0  0  0  0  0  0  0  0  0
   -4.2190    3.1080    2.9110 C   0  0  0  0  0  0  0  0  0  0  0  0
   -5.4860    2.7170    3.1820 F   0  0  0  0  0  0  0  0  0  0  0  0
   -3.7060    4.2180    3.5520 C   0  0  0  0  0  0  0  0  0  0  0  0
   -2.4180    4.6300    3.2910 C   0  0  0  0  0  0  0  0  0  0  0  0
   -1.7200    6.0520    4.0960 Cl  0  0  0  0  0  0  0  0  0  0  0  0
   -1.6810    3.8980    2.3780 C   0  0  0  0  0  0  0  0  0  0  0  0
   -2.1900    2.7920    1.7390 C   0  0  0  0  0  0  0  0  0  0  0  0
    3.2210   -2.4540   -0.4180 C   0  0  0  0  0  0  0  0  0  0  0  0
    3.7760   -2.4860   -1.6770 C   0  0  0  0  0  0  0  0  0  0  0  0
    5.5250   -2.5940   -1.8720 Cl  0  0  0  0  0  0  0  0  0  0  0  0
  1  2  3  0
  2  3  1  0
  3  4  1  0
  4  5  1  0
  5  6  2  0
  5 29  1  0
  6  7  1  0
  7  8  2  0
  8  9  1  0
  8 28  1  0
  9 10  2  0
  9 13  1  0
 10 11  1  0
 11 12  1  0
 12 13  2  0
 13 14  1  0
 14 15  1  0
 15 16  2  0
 17 15  1  1
 17 18  1  0
 17 27  1  0
 18 19  1  0
 19 20  1  0
 20 21  2  0
 20 27  1  0
 21 22  1  0
 21 23  1  0
 23 24  2  0
 24 25  1  0
 24 26  1  0
 26 27  2  0
 28 29  2  0
 29 30  1  0
M  CHG  1   3   1
M  END
