
     RDKit          3D

 31 34  0  0  0  0  0  0  0  0999 V2000
   -4.7070    4.6510   -3.6610 N   0  0  0  0  0  0  0  0  0  0  0  0
   -4.8270    3.4450   -2.8940 C   0  0  0  0  0  0  0  0  0  0  0  0
   -6.0010    2.9920   -2.7430 N   0  0  0  0  0  0  0  0  0  0  0  0
   -3.5970    2.8900   -2.3860 C   0  0  0  0  0  0  0  0  0  0  0  0
   -2.3810    3.4650   -2.6120 C   0  0  0  0  0  0  0  0  0  0  0  0
   -1.2190    2.9220   -2.1170 C   0  0  0  0  0  0  0  0  0  0  0  0
   -1.2940    1.7560   -1.3680 C   0  0  0  0  0  0  0  0  0  0  0  0
   -0.0990    1.2220   -0.8700 C   0  0  0  0  0  0  0  0  0  0  0  0
   -0.1250    0.0910   -0.1310 C   0  0  0  0  0  0  0  0  0  0  0  0
    1.1100   -0.4880    0.4080 C   0  0  0  0  0  0  0  0  0  0  0  0
    1.0450   -1.6270    0.9380 O   0  0  0  0  0  0  0  0  0  0  0  0
    2.3620    0.1560    0.3680 N   0  0  0  0  0  0  0  0  0  0  0  0
    3.5760   -0.3630    0.8700 C   0  0  0  0  0  0  0  0  0  0  0  0
    4.6580    0.5420    0.9130 C   0  0  0  0  0  0  0  0  0  0  0  0
    5.9020    0.1880    1.3640 C   0  0  0  0  0  0  0  0  0  0  0  0
    6.1270   -1.0970    1.7970 C   0  0  0  0  0  0  0  0  0  0  0  0
    7.4710   -1.4940    2.2910 C   0  0  0  0  0  0  0  0  0  0  0  0
    8.2260   -1.9290    1.1060 N   0  0  0  0  0  0  0  0  0  0  0  0
    5.0800   -1.9810    1.7580 C   0  0  0  0  0  0  0  0  0  0  0  0
    3.8160   -1.6230    1.3000 C   0  0  0  0  0  0  0  0  0  0  0  0
   -1.3370   -0.5090    0.1100 C   0  0  0  0  0  0  0  0  0  0  0  0
   -2.5290   -0.0200   -0.3580 C   0  0  0  0  0  0  0  0  0  0  0  0
   -3.7620   -0.6400   -0.1380 N   0  0  0  0  0  0  0  0  0  0  0  0
   -3.9750   -1.7620    0.7030 C   0  0  0  0  0  0  0  0  0  0  0  0
   -5.2590   -2.2540    0.7990 N   0  0  0  0  0  0  0  0  0  0  0  0
   -5.4760   -3.3010    1.5960 C   0  0  0  0  0  0  0  0  0  0  0  0
   -4.5100   -3.9390    2.3400 C   0  0  0  0  0  0  0  0  0  0  0  0
   -3.2230   -3.4240    2.2260 C   0  0  0  0  0  0  0  0  0  0  0  0
   -3.0640   -2.3850    1.4220 N   0  0  0  0  0  0  0  0  0  0  0  0
   -2.4940    1.1520   -1.1220 C   0  0  0  0  0  0  0  0  0  0  0  0
   -3.6360    1.7150   -1.6270 C   0  0  0  0  0  0  0  0  0  0  0  0
  1  2  1  0
  2  3  2  0
  2  4  1  0
  4  5  2  0
  4 31  1  0
  5  6  1  0
  6  7  2  0
  7  8  1  0
  7 30  1  0
  8  9  2  0
  9 10  1  0
  9 21  1  0
 10 11  2  0
 10 12  1  0
 12 13  1  0
 13 14  2  0
 13 20  1  0
 14 15  1  0
 15 16  2  0
 16 17  1  0
 16 19  1  0
 17 18  1  0
 19 20  2  0
 21 22  2  0
 22 23  1  0
 22 30  1  0
 23 24  1  0
 24 25  2  0
 24 29  1  0
 25 26  1  0
 26 27  2  0
 27 28  1  0
 28 29  2  0
 30 31  2  0
M  CHG  2   3   1  18   1
M  END
