
     RDKit          3D

 30 33  0  0  0  0  0  0  0  0999 V2000
    7.3500    2.3480    0.9830 C   0  0  0  0  0  0  0  0  0  0  0  0
    7.3040    2.1660   -0.5080 C   0  0  0  0  0  0  0  0  0  0  0  0
    6.7520    0.8870   -0.8770 N   0  0  0  0  0  0  0  0  0  0  0  0
    5.4170    0.5430   -0.5570 C   0  0  0  0  0  0  0  0  0  0  0  0
    4.8720   -0.6850   -0.9060 C   0  0  0  0  0  0  0  0  0  0  0  0
    3.5770   -1.0310   -0.6070 C   0  0  0  0  0  0  0  0  0  0  0  0
    2.7660   -0.1420    0.0640 C   0  0  0  0  0  0  0  0  0  0  0  0
    1.3570   -0.4640    0.4090 C   0  0  0  0  0  0  0  0  0  0  0  0
    0.9060   -1.5240   -0.4270 N   0  0  0  0  0  0  0  0  0  0  0  0
    0.9120   -1.2090   -1.7740 C   0  0  0  0  0  0  0  0  0  0  0  0
   -0.3400   -0.8480   -2.4260 C   0  0  0  0  0  0  0  0  0  0  0  0
   -0.3300   -0.7430   -3.6800 O   0  0  0  0  0  0  0  0  0  0  0  0
   -1.6020   -0.5920   -1.8300 N   0  0  0  0  0  0  0  0  0  0  0  0
   -2.0650   -1.1200   -0.5810 C   0  0  0  0  0  0  0  0  0  0  0  0
   -3.3830   -0.7070   -0.3400 C   0  0  0  0  0  0  0  0  0  0  0  0
   -4.0130   -1.1110    0.8170 C   0  0  0  0  0  0  0  0  0  0  0  0
   -5.3540   -0.7260    1.1250 N   0  0  0  0  0  0  0  0  0  0  0  0
   -6.1160    0.1120    0.2260 C   0  0  1  0  0  0  0  0  0  0  0  0
   -7.5020    0.4400    0.6650 C   0  0  0  0  0  0  0  0  0  0  0  0
   -7.0910    1.8320    1.0350 C   0  0  2  0  0  0  0  0  0  0  0  0
   -7.9950    3.1290    0.2520 Cl  0  0  0  0  0  0  0  0  0  0  0  0
   -5.7620    1.5760    0.3400 C   0  0  0  0  0  0  0  0  0  0  0  0
   -3.2900   -1.9170    1.6870 C   0  0  0  0  0  0  0  0  0  0  0  0
   -4.1150   -2.4200    3.1560 Cl  0  0  0  0  0  0  0  0  0  0  0  0
   -2.0110   -2.3270    1.4700 C   0  0  0  0  0  0  0  0  0  0  0  0
   -1.3390   -3.1140    2.3440 F   0  0  0  0  0  0  0  0  0  0  0  0
   -1.3880   -1.9200    0.3120 C   0  0  0  0  0  0  0  0  0  0  0  0
   -0.0050   -2.4020    0.1430 C   0  0  0  0  0  0  0  0  0  0  0  0
    3.3170    1.0820    0.4080 C   0  0  0  0  0  0  0  0  0  0  0  0
    4.5910    1.3790    0.0960 N   0  0  0  0  0  0  0  0  0  0  0  0
  1  2  1  0
  2  3  1  0
  3  4  1  0
  4  5  2  0
  4 30  1  0
  5  6  1  0
  6  7  2  0
  7  8  1  0
  7 29  1  0
  8  9  1  0
  9 10  1  0
  9 28  1  0
 10 11  1  0
 11 12  2  0
 11 13  1  0
 13 14  1  0
 14 15  2  0
 14 27  1  0
 15 16  1  0
 16 17  1  0
 16 23  2  0
 18 17  1  1
 18 19  1  0
 18 22  1  0
 19 20  1  0
 20 21  1  6
 20 22  1  0
 23 24  1  0
 23 25  1  0
 25 26  1  0
 25 27  2  0
 27 28  1  0
 29 30  2  0
M  CHG  1  30   1
M  END
