
     RDKit          3D

 30 34  0  0  0  0  0  0  0  0999 V2000
   -2.3420    0.8780    1.5090 O   0  0  0  0  0  0  0  0  0  0  0  0
   -1.9460    0.3640    0.4190 C   0  0  0  0  0  0  0  0  0  0  0  0
   -0.5780    0.5480    0.1030 N   0  0  0  0  0  0  0  0  0  0  0  0
    0.3800    1.2570    0.8790 C   0  0  2  0  0  0  0  0  0  0  0  0
    1.3130    2.0070   -0.0260 C   0  0  0  0  0  0  0  0  0  0  0  0
    2.1290    1.0650   -0.8530 C   0  0  1  0  0  0  0  0  0  0  0  0
    3.0930    1.9210   -1.7020 C   0  0  0  0  0  0  0  0  0  0  0  0
    4.4760    1.4410   -1.3450 C   0  0  2  0  0  0  0  0  0  0  0  0
    4.7980    0.2430   -2.2190 C   0  0  0  0  0  0  0  0  0  0  0  0
    4.7360   -1.0210   -1.3630 C   0  0  0  0  0  0  0  0  0  0  0  0
    3.3790   -1.0890   -0.7180 C   0  0  0  0  0  0  0  0  0  0  0  0
    3.0030    0.2080   -0.0070 C   0  0  1  0  0  0  0  0  0  0  0  0
    4.2840    1.0140    0.0920 C   0  0  0  0  0  0  0  0  0  0  0  0
    2.4230   -0.0670    1.3120 C   0  0  0  0  0  0  0  0  0  0  0  0
    3.2210   -0.8830    2.1450 C   0  0  0  0  0  0  0  0  0  0  0  0
    2.7820   -1.2200    3.3970 C   0  0  0  0  0  0  0  0  0  0  0  0
    1.5600   -0.7550    3.8290 C   0  0  0  0  0  0  0  0  0  0  0  0
    0.7820    0.0470    3.0040 C   0  0  0  0  0  0  0  0  0  0  0  0
    1.2180    0.3910    1.7400 C   0  0  0  0  0  0  0  0  0  0  0  0
   -2.8740   -0.3990   -0.4900 C   0  0  2  0  0  0  0  0  0  0  0  0
   -3.0760    0.5150   -1.7040 C   0  0  0  0  0  0  0  0  0  0  0  0
   -3.9580   -0.1160   -2.7350 C   0  0  0  0  0  0  0  0  0  0  0  0
   -4.1010    0.7850   -3.7930 O   0  0  0  0  0  0  0  0  0  0  0  0
   -4.1510   -0.6730    0.1820 C   0  0  0  0  0  0  0  0  0  0  0  0
   -5.3090    0.0400    0.0650 C   0  0  0  0  0  0  0  0  0  0  0  0
   -6.4430   -0.3350    0.7770 C   0  0  0  0  0  0  0  0  0  0  0  0
   -6.4490   -1.4220    1.6180 C   0  0  0  0  0  0  0  0  0  0  0  0
   -5.2880   -2.1500    1.7480 C   0  0  0  0  0  0  0  0  0  0  0  0
   -4.1690   -1.7800    1.0440 C   0  0  0  0  0  0  0  0  0  0  0  0
   -3.0090   -2.5270    1.1910 O   0  0  0  0  0  0  0  0  0  0  0  0
  1  2  2  0
  2  3  1  0
  2 20  1  0
  4  3  1  6
  4  5  1  0
  4 19  1  0
  6  5  1  1
  6  7  1  0
  6 12  1  0
  8  7  1  6
  8  9  1  0
  8 13  1  0
  9 10  1  0
 10 11  1  0
 12 11  1  6
 12 13  1  0
 12 14  1  0
 14 15  2  0
 14 19  1  0
 15 16  1  0
 16 17  2  0
 17 18  1  0
 18 19  2  0
 20 21  1  6
 20 24  1  0
 21 22  1  0
 22 23  1  0
 24 25  2  0
 24 29  1  0
 25 26  1  0
 26 27  2  0
 27 28  1  0
 28 29  2  0
 29 30  1  0
M  END
