
     RDKit          3D

 30 33  0  0  0  0  0  0  0  0999 V2000
   -2.3580   -3.6460    0.1210 C   0  0  0  0  0  0  0  0  0  0  0  0
   -2.0610   -2.6230   -0.9320 C   0  0  0  0  0  0  0  0  0  0  0  0
   -0.9260   -1.7190   -0.6490 C   0  0  2  0  0  0  0  0  0  0  0  0
    0.2930   -2.6570   -0.4920 C   0  0  0  0  0  0  0  0  0  0  0  0
    1.4790   -1.7270   -0.3450 C   0  0  0  0  0  0  0  0  0  0  0  0
    2.7230   -2.2720   -0.4790 N   0  0  0  0  0  0  0  0  0  0  0  0
    3.7920   -1.5080   -0.3570 C   0  0  0  0  0  0  0  0  0  0  0  0
    4.9520   -2.0130   -0.4810 O   0  0  0  0  0  0  0  0  0  0  0  0
    3.7600   -0.1550   -0.0970 C   0  0  0  0  0  0  0  0  0  0  0  0
    4.9880    0.6400    0.0270 C   0  0  0  0  0  0  0  0  0  0  0  0
    5.9870    0.4570   -0.9060 C   0  0  0  0  0  0  0  0  0  0  0  0
    7.1810    1.1670   -0.8640 C   0  0  0  0  0  0  0  0  0  0  0  0
    7.3790    2.0770    0.1310 C   0  0  0  0  0  0  0  0  0  0  0  0
    8.6710    2.8190    0.1430 C   0  0  0  0  0  0  0  0  0  0  0  0
    6.3990    2.2740    1.0670 C   0  0  0  0  0  0  0  0  0  0  0  0
    5.1990    1.5560    1.0190 C   0  0  0  0  0  0  0  0  0  0  0  0
    2.5230    0.4090    0.0400 C   0  0  0  0  0  0  0  0  0  0  0  0
    1.3770   -0.3900   -0.0860 C   0  0  0  0  0  0  0  0  0  0  0  0
    0.0470    0.3210    0.0780 C   0  0  0  0  0  0  0  0  0  0  0  0
   -0.9260   -0.8070    0.4740 C   0  0  1  0  0  0  0  0  0  0  0  0
   -2.1310   -0.2600    1.0920 C   0  0  2  0  0  0  0  0  0  0  0  0
   -2.9910   -1.2420    1.5930 O   0  0  0  0  0  0  0  0  0  0  0  0
   -2.8350    0.8990    0.4570 C   0  0  2  0  0  0  0  0  0  0  0  0
   -4.0370    1.2970    1.2970 C   0  0  0  0  0  0  0  0  0  0  0  0
   -5.2310    0.4520    1.1920 C   0  0  0  0  0  0  0  0  0  0  0  0
   -6.2870    1.0050    0.2410 C   0  0  0  0  0  0  0  0  0  0  0  0
   -5.5340    1.4910   -0.9760 C   0  0  0  0  0  0  0  0  0  0  0  0
   -4.5480    0.4090   -1.3390 C   0  0  0  0  0  0  0  0  0  0  0  0
   -3.1370    0.8260   -0.9820 C   0  0  1  0  0  0  0  0  0  0  0  0
   -3.0130    2.1310   -1.5420 O   0  0  0  0  0  0  0  0  0  0  0  0
  1  2  1  0
  3  2  1  1
  3  4  1  0
  3 20  1  0
  4  5  1  0
  5  6  1  0
  5 18  2  0
  6  7  1  0
  7  8  2  0
  7  9  1  0
  9 10  1  0
  9 17  2  0
 10 11  2  0
 10 16  1  0
 11 12  1  0
 12 13  2  0
 13 14  1  0
 13 15  1  0
 15 16  2  0
 17 18  1  0
 18 19  1  0
 20 19  1  6
 20 21  1  0
 21 22  1  6
 21 23  1  0
 23 24  1  1
 23 29  1  0
 24 25  1  0
 25 26  1  0
 26 27  1  0
 27 28  1  0
 28 29  1  0
 29 30  1  1
M  END
