
     RDKit          3D

 30 34  0  0  0  0  0  0  0  0999 V2000
    4.9610   -1.9860    1.3970 C   0  0  0  0  0  0  0  0  0  0  0  0
    4.6250   -1.0160    0.2890 C   0  0  2  0  0  0  0  0  0  0  0  0
    5.0410    0.3820    0.6010 C   0  0  0  0  0  0  0  0  0  0  0  0
    4.8010    1.2330   -0.6310 C   0  0  0  0  0  0  0  0  0  0  0  0
    3.3380    1.3100   -0.9760 C   0  0  0  0  0  0  0  0  0  0  0  0
    2.5880    0.0790   -0.5990 C   0  0  0  0  0  0  0  0  0  0  0  0
    3.1660   -1.0190    0.0030 C   0  0  0  0  0  0  0  0  0  0  0  0
    2.3720   -2.1020    0.3160 C   0  0  0  0  0  0  0  0  0  0  0  0
    1.0360   -2.1360    0.0560 C   0  0  0  0  0  0  0  0  0  0  0  0
    0.4610   -1.0680   -0.5330 C   0  0  0  0  0  0  0  0  0  0  0  0
    1.2390    0.0600   -0.8690 C   0  0  0  0  0  0  0  0  0  0  0  0
    0.4610    1.1430   -1.5000 C   0  0  0  0  0  0  0  0  0  0  0  0
   -0.7940    1.5260   -0.6700 C   0  0  2  0  0  0  0  0  0  0  0  0
   -0.2320    2.4130    0.4160 C   0  0  0  0  0  0  0  0  0  0  0  0
   -1.1860    2.9750    1.3190 N   0  0  0  0  0  0  0  0  0  0  0  0
   -2.2200    3.8680    0.8330 C   0  0  0  0  0  0  0  0  0  0  0  0
   -2.2960    4.1610   -0.3810 O   0  0  0  0  0  0  0  0  0  0  0  0
   -3.1460    4.4140    1.7090 O   0  0  0  0  0  0  0  0  0  0  0  0
   -1.3930    0.2960   -0.0400 C   0  0  2  0  0  0  0  0  0  0  0  0
   -0.8400    0.0600    1.2320 O   0  0  0  0  0  0  0  0  0  0  0  0
   -0.9550   -0.8860   -0.9020 C   0  0  2  0  0  0  0  0  0  0  0  0
   -1.8970   -1.9160   -0.6340 C   0  0  0  0  0  0  0  0  0  0  0  0
   -1.8930   -3.3020   -0.8310 C   0  0  0  0  0  0  0  0  0  0  0  0
   -3.0040   -4.0310   -0.4770 C   0  0  0  0  0  0  0  0  0  0  0  0
   -4.1430   -3.4820    0.0670 C   0  0  0  0  0  0  0  0  0  0  0  0
   -4.1360   -2.1120    0.2560 C   0  0  0  0  0  0  0  0  0  0  0  0
   -3.0260   -1.3570   -0.0930 C   0  0  0  0  0  0  0  0  0  0  0  0
   -2.8320    0.1390    0.0300 C   0  0  2  0  0  0  0  0  0  0  0  0
   -3.6160    0.7440   -1.1080 C   0  0  0  0  0  0  0  0  0  0  0  0
   -3.5170    0.4880    1.3310 C   0  0  0  0  0  0  0  0  0  0  0  0
  2  1  1  1
  2  3  1  0
  2  7  1  0
  3  4  1  0
  4  5  1  0
  5  6  1  0
  6  7  2  0
  6 11  1  0
  7  8  1  0
  8  9  2  0
  9 10  1  0
 10 11  2  0
 21 10  1  1
 11 12  1  0
 12 13  1  0
 13 14  1  1
 13 19  1  0
 14 15  1  0
 15 16  1  0
 16 17  2  0
 16 18  1  0
 19 20  1  1
 19 21  1  0
 19 28  1  0
 21 22  1  0
 22 23  2  0
 22 27  1  0
 23 24  1  0
 24 25  2  0
 25 26  1  0
 26 27  2  0
 27 28  1  0
 28 29  1  6
 28 30  1  0
M  END
