
     RDKit          3D

 30 33  0  0  0  0  0  0  0  0999 V2000
   -8.7460    1.0900    0.8430 C   0  0  0  0  0  0  0  0  0  0  0  0
   -7.8350    0.0100    0.2960 C   0  0  0  0  0  0  0  0  0  0  0  0
   -6.6730    0.4100   -0.1830 C   0  0  0  0  0  0  0  0  0  0  0  0
   -5.7130   -0.5160   -0.7290 C   0  0  0  0  0  0  0  0  0  0  0  0
   -4.5500   -0.1840   -1.2170 C   0  0  0  0  0  0  0  0  0  0  0  0
   -4.0080    1.1870   -1.3040 C   0  0  0  0  0  0  0  0  0  0  0  0
   -2.5010    1.1760   -1.0940 C   0  0  0  0  0  0  0  0  0  0  0  0
   -2.1250    0.0270   -0.2230 C   0  0  2  0  0  0  0  0  0  0  0  0
   -2.7000    0.2120    1.1610 C   0  0  0  0  0  0  0  0  0  0  0  0
   -0.6230   -0.0570   -0.0860 C   0  0  0  0  0  0  0  0  0  0  0  0
    0.2300    0.8530   -0.6220 C   0  0  0  0  0  0  0  0  0  0  0  0
    1.5820    0.6920   -0.5320 C   0  0  0  0  0  0  0  0  0  0  0  0
    2.1140   -0.4120    0.1140 C   0  0  0  0  0  0  0  0  0  0  0  0
    3.5490   -0.6590    0.2250 C   0  0  1  0  0  0  0  0  0  0  0  0
    4.0060   -1.8170   -0.3670 O   0  0  0  0  0  0  0  0  0  0  0  0
    4.4570    0.5060    0.0730 C   0  0  1  0  0  0  0  0  0  0  0  0
    4.2940    1.5750    1.1170 C   0  0  0  0  0  0  0  0  0  0  0  0
    5.2940    1.1390    2.1830 C   0  0  0  0  0  0  0  0  0  0  0  0
    6.3540    0.4700    1.3880 C   0  0  0  0  0  0  0  0  0  0  0  0
    7.6760    0.1780    1.6740 C   0  0  0  0  0  0  0  0  0  0  0  0
    8.4520   -0.4650    0.7660 N   0  0  0  0  0  0  0  0  0  0  0  0
    7.9570   -0.8360   -0.4350 C   0  0  0  0  0  0  0  0  0  0  0  0
    8.7690   -1.4950   -1.3550 O   0  0  0  0  0  0  0  0  0  0  0  0
    6.6670   -0.5580   -0.7280 C   0  0  0  0  0  0  0  0  0  0  0  0
    5.8600    0.0920    0.1710 C   0  0  0  0  0  0  0  0  0  0  0  0
    1.2420   -1.3290    0.6570 C   0  0  0  0  0  0  0  0  0  0  0  0
   -0.1350   -1.1610    0.5630 C   0  0  0  0  0  0  0  0  0  0  0  0
   -2.5120   -1.3370   -0.7920 C   0  0  2  0  0  0  0  0  0  0  0  0
   -1.4530   -1.9200   -1.4830 O   0  0  0  0  0  0  0  0  0  0  0  0
   -3.6700   -1.2420   -1.7510 C   0  0  0  0  0  0  0  0  0  0  0  0
  1  2  1  0
  2  3  2  3
  3  4  1  0
  4  5  2  3
  5  6  1  0
  5 30  1  0
  6  7  1  0
  7  8  1  0
  8  9  1  1
  8 10  1  0
  8 28  1  0
 10 11  2  0
 10 27  1  0
 11 12  1  0
 12 13  2  0
 13 14  1  0
 13 26  1  0
 14 15  1  6
 14 16  1  0
 16 17  1  1
 16 25  1  0
 17 18  1  0
 18 19  1  0
 19 20  2  0
 19 25  1  0
 20 21  1  0
 21 22  2  0
 22 23  1  0
 22 24  1  0
 24 25  2  0
 26 27  2  0
 28 29  1  6
 28 30  1  0
M  END
