
     RDKit          3D

 20 22  0  0  0  0  0  0  0  0999 V2000
    6.4880   -1.7060   -1.0810 C   0  0  0  0  0  0  0  0  0  0  0  0
    5.6160   -0.8320   -0.5170 C   0  0  0  0  0  0  0  0  0  0  0  0
    4.2000   -1.0410   -0.6990 C   0  0  0  0  0  0  0  0  0  0  0  0
    3.3030   -0.2230   -0.1740 C   0  0  0  0  0  0  0  0  0  0  0  0
    1.9020   -0.4380   -0.3600 C   0  0  0  0  0  0  0  0  0  0  0  0
    1.3460   -1.4430   -1.0540 N   0  0  0  0  0  0  0  0  0  0  0  0
    0.0240   -1.3390   -1.0230 N   0  0  0  0  0  0  0  0  0  0  0  0
   -0.2900   -0.2540   -0.3000 C   0  0  0  0  0  0  0  0  0  0  0  0
   -1.5950    0.2230   -0.0170 N   0  0  0  0  0  0  0  0  0  0  0  0
   -2.7460   -0.4830   -0.5270 C   0  0  0  0  0  0  0  0  0  0  0  0
   -4.0330    0.1930   -0.1090 C   0  0  0  0  0  0  0  0  0  0  0  0
   -5.2050   -0.5810   -0.6660 C   0  0  0  0  0  0  0  0  0  0  0  0
   -6.4810    0.1150   -0.2340 C   0  0  2  0  0  0  0  0  0  0  0  0
   -6.6860    0.2220    1.2670 C   0  0  0  0  0  0  0  0  0  0  0  0
   -7.5630   -0.6630    0.4130 C   0  0  0  0  0  0  0  0  0  0  0  0
    0.8830    0.3000    0.1080 N   0  0  0  0  0  0  0  0  0  0  0  0
    3.8150    0.9020    0.6010 C   0  0  0  0  0  0  0  0  0  0  0  0
    5.0860    1.1430    0.8010 C   0  0  0  0  0  0  0  0  0  0  0  0
    5.4880    2.2860    1.5840 N   0  0  0  0  0  0  0  0  0  0  0  0
    6.1380    0.2910    0.2560 C   0  0  0  0  0  0  0  0  0  0  0  0
  1  2  2  0
  2  3  1  0
  2 20  1  0
  3  4  2  0
  4  5  1  0
  4 17  1  0
  5  6  2  0
  5 16  1  0
  6  7  1  0
  7  8  2  0
  8  9  1  0
  8 16  1  0
  9 10  1  0
 10 11  1  0
 11 12  1  0
 13 12  1  1
 13 14  1  0
 13 15  1  0
 14 15  1  0
 17 18  2  0
 18 19  1  0
 18 20  1  0
M  CHG  1  19   1
M  END
