
     RDKit          3D

 20 22  0  0  0  0  0  0  0  0999 V2000
    3.2660    2.7420    0.4040 N   0  0  0  0  0  0  0  0  0  0  0  0
    2.3600    1.6770    0.6560 C   0  0  0  0  0  0  0  0  0  0  0  0
    1.5830    1.6580    1.7980 C   0  0  0  0  0  0  0  0  0  0  0  0
    0.6990    0.6370    2.0620 C   0  0  0  0  0  0  0  0  0  0  0  0
    0.5450   -0.4260    1.1930 C   0  0  0  0  0  0  0  0  0  0  0  0
   -0.3310   -1.5170    1.4280 N   0  0  0  0  0  0  0  0  0  0  0  0
    0.0870   -2.6370    2.1130 C   0  0  0  0  0  0  0  0  0  0  0  0
   -0.9210   -3.5040    2.1940 N   0  0  0  0  0  0  0  0  0  0  0  0
   -1.9310   -2.9510    1.5850 N   0  0  0  0  0  0  0  0  0  0  0  0
   -1.5830   -1.7090    1.0990 C   0  0  0  0  0  0  0  0  0  0  0  0
   -2.4760   -0.8380    0.3750 C   0  0  0  0  0  0  0  0  0  0  0  0
   -3.7780   -1.3060    0.1630 C   0  0  0  0  0  0  0  0  0  0  0  0
   -4.7220   -0.5720   -0.5130 C   0  0  0  0  0  0  0  0  0  0  0  0
   -4.4190    0.6720   -1.0150 C   0  0  0  0  0  0  0  0  0  0  0  0
   -3.1520    1.1690   -0.8290 C   0  0  0  0  0  0  0  0  0  0  0  0
   -2.2050    0.3980   -0.1340 C   0  0  0  0  0  0  0  0  0  0  0  0
    1.3380   -0.3980    0.0380 C   0  0  0  0  0  0  0  0  0  0  0  0
    2.2210    0.6230   -0.2260 C   0  0  0  0  0  0  0  0  0  0  0  0
    3.0660    0.6640   -1.4460 C   0  0  0  0  0  0  0  0  0  0  0  0
    2.7670   -0.5270   -2.2300 N   0  0  0  0  0  0  0  0  0  0  0  0
  1  2  1  0
  2  3  2  0
  2 18  1  0
  3  4  1  0
  4  5  2  0
  5  6  1  0
  5 17  1  0
  6  7  1  0
  6 10  1  0
  7  8  2  0
  8  9  1  0
  9 10  2  0
 10 11  1  0
 11 12  2  0
 11 16  1  0
 12 13  1  0
 13 14  2  0
 14 15  1  0
 15 16  2  0
 17 18  2  0
 18 19  1  0
 19 20  1  0
M  CHG  1  20   1
M  END
