
     RDKit          3D

 20 22  0  0  0  0  0  0  0  0999 V2000
    0.4290    0.9970    2.1360 N   0  0  0  0  0  0  0  0  0  0  0  0
   -0.2870    0.1150    1.2910 C   0  0  0  0  0  0  0  0  0  0  0  0
   -1.5850    0.3760    0.8690 C   0  0  0  0  0  0  0  0  0  0  0  0
   -2.2890   -0.4830    0.0430 C   0  0  0  0  0  0  0  0  0  0  0  0
   -3.6500   -0.1990   -0.3940 C   0  0  0  0  0  0  0  0  0  0  0  0
   -4.2610   -1.0860   -1.1950 N   0  0  0  0  0  0  0  0  0  0  0  0
   -5.5360   -0.8790   -1.6400 C   0  0  0  0  0  0  0  0  0  0  0  0
   -6.2240    0.2680   -1.2610 C   0  0  0  0  0  0  0  0  0  0  0  0
   -5.5610    1.1530   -0.4380 C   0  0  0  0  0  0  0  0  0  0  0  0
   -4.2860    0.9130   -0.0130 N   0  0  0  0  0  0  0  0  0  0  0  0
   -1.6340   -1.6320   -0.3490 C   0  0  0  0  0  0  0  0  0  0  0  0
   -0.3650   -1.8900    0.0630 N   0  0  0  0  0  0  0  0  0  0  0  0
    0.3190   -1.0560    0.8650 C   0  0  0  0  0  0  0  0  0  0  0  0
    1.6980   -1.3470    1.3050 C   0  0  0  0  0  0  0  0  0  0  0  0
    2.7140   -0.5470    0.5840 C   0  0  0  0  0  0  0  0  0  0  0  0
    3.5420    0.2830    1.1770 C   0  0  0  0  0  0  0  0  0  0  0  0
    4.5550    1.0870    0.4940 C   0  0  0  0  0  0  0  0  0  0  0  0
    4.6270    0.9340   -0.9070 N   0  0  0  0  0  0  0  0  0  0  0  0
    3.7410    0.0550   -1.4930 C   0  0  0  0  0  0  0  0  0  0  0  0
    2.8440   -0.6500   -0.8610 C   0  0  0  0  0  0  0  0  0  0  0  0
  1  2  1  0
  2  3  2  0
  2 13  1  0
  3  4  1  0
  4  5  1  0
  4 11  2  0
  5  6  2  0
  5 10  1  0
  6  7  1  0
  7  8  2  0
  8  9  1  0
  9 10  2  0
 11 12  1  0
 12 13  2  0
 13 14  1  0
 14 15  1  0
 15 16  2  0
 15 20  1  0
 16 17  1  0
 17 18  1  0
 18 19  1  0
 19 20  2  0
M  CHG  1  18   1
M  END
