
     RDKit          3D

 27 28  0  0  0  0  0  0  0  0999 V2000
   -2.7760   -4.4390   -1.1080 C   0  0  0  0  0  0  0  0  0  0  0  0
   -3.3810   -3.0720   -1.0460 C   0  0  0  0  0  0  0  0  0  0  0  0
   -2.3550   -2.0710   -0.7100 N   0  0  0  0  0  0  0  0  0  0  0  0
   -2.6920   -0.6980   -0.5940 C   0  0  0  0  0  0  0  0  0  0  0  0
   -3.9010   -0.4360   -0.7960 O   0  0  0  0  0  0  0  0  0  0  0  0
   -1.7240    0.3670   -0.2610 C   0  0  0  0  0  0  0  0  0  0  0  0
   -2.0620    1.6220   -0.1630 C   0  0  0  0  0  0  0  0  0  0  0  0
   -3.3880    2.2030   -0.3540 C   0  0  0  0  0  0  0  0  0  0  0  0
   -3.8710    2.7970    0.9420 C   0  0  0  0  0  0  0  0  0  0  0  0
   -3.4580    2.9440    2.1750 C   0  0  0  0  0  0  0  0  0  0  0  0
   -4.6630    3.6290    2.5620 C   0  0  0  0  0  0  0  0  0  0  0  0
   -5.1020    3.4880    1.3070 C   0  0  0  0  0  0  0  0  0  0  0  0
   -0.3720   -0.0890   -0.0480 N   0  0  0  0  0  0  0  0  0  0  0  0
    0.7440    0.6860    0.2940 C   0  0  0  0  0  0  0  0  0  0  0  0
    0.6340    1.9300    0.4280 O   0  0  0  0  0  0  0  0  0  0  0  0
    2.0990    0.1210    0.5110 C   0  0  0  0  0  0  0  0  0  0  0  0
    2.5500   -1.0250    1.0450 C   0  0  0  0  0  0  0  0  0  0  0  0
    1.7960   -2.0200    1.7850 C   0  0  0  0  0  0  0  0  0  0  0  0
    0.6010   -1.8590    2.0610 O   0  0  0  0  0  0  0  0  0  0  0  0
    2.4080   -3.1910    2.2050 O   0  0  0  0  0  0  0  0  0  0  0  0
    1.7160   -4.1270    2.8970 O   0  0  0  0  0  0  0  0  0  0  0  0
    3.9020   -1.0780    0.8720 N   0  0  0  0  0  0  0  0  0  0  0  0
    4.2890    0.0150    0.2470 N   0  0  0  0  0  0  0  0  0  0  0  0
    5.6510    0.3040   -0.1040 C   0  0  0  0  0  0  0  0  0  0  0  0
    6.0460   -0.2050   -1.4630 C   0  0  0  0  0  0  0  0  0  0  0  0
    3.2230    0.7900   -0.0010 C   0  0  0  0  0  0  0  0  0  0  0  0
    3.2360    2.0980   -0.6810 C   0  0  0  0  0  0  0  0  0  0  0  0
  1  2  1  0
  2  3  1  0
  3  4  1  0
  4  5  2  0
  4  6  1  0
  6  7  2  3
  6 13  1  0
  7  8  1  0
  8  9  1  0
  9 10  2  0
  9 12  1  0
 10 11  1  0
 11 12  2  0
 13 14  1  0
 14 15  2  0
 14 16  1  0
 16 17  1  0
 16 26  2  0
 17 18  1  0
 17 22  2  0
 18 19  2  0
 18 20  1  0
 20 21  1  0
 22 23  1  0
 23 24  1  0
 23 26  1  0
 24 25  1  0
 26 27  1  0
M  CHG  1  21  -1
M  END
