
     RDKit          3D

 27 28  0  0  0  0  0  0  0  0999 V2000
    0.5810   -2.3240    2.3900 C   0  0  0  0  0  0  0  0  0  0  0  0
    0.0650   -0.9160    2.4180 C   0  0  0  0  0  0  0  0  0  0  0  0
   -0.1840   -0.3820    0.9910 C   0  0  2  0  0  0  0  0  0  0  0  0
   -1.1190   -1.2200    0.4200 O   0  0  0  0  0  0  0  0  0  0  0  0
   -2.3570   -0.8350   -0.0010 C   0  0  0  0  0  0  0  0  0  0  0  0
   -2.8420    0.4490    0.0870 C   0  0  0  0  0  0  0  0  0  0  0  0
   -4.1010    0.8290   -0.3440 C   0  0  0  0  0  0  0  0  0  0  0  0
   -4.5010    2.1460   -0.2130 O   0  0  0  0  0  0  0  0  0  0  0  0
   -5.7640    2.6000   -0.6290 C   0  0  0  0  0  0  0  0  0  0  0  0
   -5.8570    4.0970   -0.3320 C   0  0  0  0  0  0  0  0  0  0  0  0
   -5.7030    4.3330    1.0240 O   0  0  0  0  0  0  0  0  0  0  0  0
   -4.9320   -0.1110   -0.8950 C   0  0  0  0  0  0  0  0  0  0  0  0
   -4.4830   -1.3990   -1.0000 C   0  0  0  0  0  0  0  0  0  0  0  0
   -3.2380   -1.7720   -0.5720 C   0  0  0  0  0  0  0  0  0  0  0  0
   -2.8380   -3.0710   -0.7000 O   0  0  0  0  0  0  0  0  0  0  0  0
   -3.5890   -4.1110   -1.2410 C   0  0  0  0  0  0  0  0  0  0  0  0
    1.1320   -0.4130    0.2870 C   0  0  0  0  0  0  0  0  0  0  0  0
    1.2420   -1.1640   -0.7060 O   0  0  0  0  0  0  0  0  0  0  0  0
    2.1980    0.3910    0.7500 N   0  0  0  0  0  0  0  0  0  0  0  0
    3.4780    0.4090    0.1230 C   0  0  0  0  0  0  0  0  0  0  0  0
    3.9150   -0.2970   -0.9770 C   0  0  0  0  0  0  0  0  0  0  0  0
    5.1830    0.0370   -1.2030 N   0  0  0  0  0  0  0  0  0  0  0  0
    5.6160    0.9170   -0.3260 N   0  0  0  0  0  0  0  0  0  0  0  0
    6.8860    1.5420   -0.1910 C   0  0  0  0  0  0  0  0  0  0  0  0
    7.8980    1.3050   -0.9990 C   0  0  0  0  0  0  0  0  0  0  0  0
    7.7040    0.3750   -2.0580 N   0  0  0  0  0  0  0  0  0  0  0  0
    4.5710    1.1590    0.5040 C   0  0  0  0  0  0  0  0  0  0  0  0
  1  2  1  0
  3  2  1  1
  3  4  1  0
  3 17  1  0
  4  5  1  0
  5  6  2  0
  5 14  1  0
  6  7  1  0
  7  8  1  0
  7 12  2  0
  8  9  1  0
  9 10  1  0
 10 11  1  0
 12 13  1  0
 13 14  2  0
 14 15  1  0
 15 16  1  0
 17 18  2  0
 17 19  1  0
 19 20  1  0
 20 21  1  0
 20 27  2  0
 21 22  2  0
 22 23  1  0
 23 24  1  0
 23 27  1  0
 24 25  2  3
 25 26  1  0
M  CHG  2  11  -1  26   1
M  END
