
     RDKit          3D

  6  6  0  0  0  0  0  0  0  0999 V2000
    2.0150    0.1130    0.1040 N   0  0  0  0  0  0  0  0  0  0  0  0
    0.5930    0.0990    0.2830 C   0  0  0  0  0  0  0  0  0  0  0  0
   -0.2490   -0.2190   -0.6860 C   0  0  0  0  0  0  0  0  0  0  0  0
   -1.5930   -0.1120   -0.0960 C   0  0  0  0  0  0  0  0  0  0  0  0
   -1.3590    0.2940    1.2780 N   0  0  0  0  0  0  0  0  0  0  0  0
   -0.1300    0.4070    1.4720 N   0  0  0  0  0  0  0  0  0  0  0  0
  1  2  1  0
  2  3  2  0
  2  6  1  0
  3  4  1  0
  4  5  1  0
  5  6  2  0
M  END
