
     RDKit          3D

  6  6  0  0  0  0  0  0  0  0999 V2000
    2.0180   -0.4090    0.0530 N   0  0  0  0  0  0  0  0  0  0  0  0
    0.5940   -0.2330    0.0490 C   0  0  0  0  0  0  0  0  0  0  0  0
   -0.1190    0.9050   -0.2550 C   0  0  0  0  0  0  0  0  0  0  0  0
   -1.4260    0.6350   -0.1340 N   0  0  0  0  0  0  0  0  0  0  0  0
   -1.5100   -0.6510    0.2370 C   0  0  0  0  0  0  0  0  0  0  0  0
   -0.2890   -1.1930    0.3530 N   0  0  0  0  0  0  0  0  0  0  0  0
  1  2  1  0
  2  3  2  0
  2  6  1  0
  3  4  1  0
  4  5  1  0
  5  6  2  0
M  END
