
     RDKit          3D

  6  6  0  0  0  0  0  0  0  0999 V2000
    1.9560   -0.3480   -0.0360 N   0  0  0  0  0  0  0  0  0  0  0  0
    0.5560   -0.0990   -0.0130 C   0  0  0  0  0  0  0  0  0  0  0  0
   -0.3350   -1.0310    0.0370 N   0  0  0  0  0  0  0  0  0  0  0  0
   -1.6500   -0.4300    0.0470 C   0  0  0  0  0  0  0  0  0  0  0  0
   -1.3830    0.9920   -0.0040 N   0  0  0  0  0  0  0  0  0  0  0  0
   -0.1040    1.2010   -0.0400 C   0  0  0  0  0  0  0  0  0  0  0  0
  1  2  1  0
  2  3  2  0
  2  6  1  0
  3  4  1  0
  4  5  1  0
  5  6  2  0
M  END
