
     RDKit          3D

 34 36  0  0  0  0  0  0  0  0999 V2000
   -5.6630   -1.2200    3.0590 C   0  0  0  0  0  0  0  0  0  0  0  0
   -7.0400   -0.7830    2.6070 C   0  0  0  0  0  0  0  0  0  0  0  0
   -6.9030    0.6060    2.0350 C   0  0  2  0  0  0  0  0  0  0  0  0
   -8.2880    1.0450    1.5800 C   0  0  0  0  0  0  0  0  0  0  0  0
   -5.9750    0.6430    0.9890 O   0  0  0  0  0  0  0  0  0  0  0  0
   -4.8720    1.4670    1.0930 C   0  0  0  0  0  0  0  0  0  0  0  0
   -4.7370    2.1590    2.1260 O   0  0  0  0  0  0  0  0  0  0  0  0
   -3.8600    1.5630    0.0500 C   0  0  0  0  0  0  0  0  0  0  0  0
   -2.7780    2.4030    0.2060 C   0  0  0  0  0  0  0  0  0  0  0  0
   -1.7970    2.5180   -0.7680 C   0  0  0  0  0  0  0  0  0  0  0  0
   -1.8710    1.7910   -1.9370 C   0  0  0  0  0  0  0  0  0  0  0  0
   -0.8480    1.8860   -3.0010 C   0  0  0  0  0  0  0  0  0  0  0  0
    0.2630    0.9150   -2.8340 C   0  0  0  0  0  0  0  0  0  0  0  0
    1.4500    1.0610   -2.1440 C   0  0  0  0  0  0  0  0  0  0  0  0
    2.1750   -0.1020   -2.2680 C   0  0  0  0  0  0  0  0  0  0  0  0
    3.5100   -0.3840   -1.6860 C   0  0  0  0  0  0  0  0  0  0  0  0
    4.0220    0.5150   -1.0110 O   0  0  0  0  0  0  0  0  0  0  0  0
    4.1680   -1.5970   -1.8820 N   0  0  0  0  0  0  0  0  0  0  0  0
    5.4250   -2.0130   -1.4020 C   0  0  0  0  0  0  0  0  0  0  0  0
    5.9040   -3.2430   -1.6990 C   0  0  0  0  0  0  0  0  0  0  0  0
    5.1000   -4.4800   -2.6780 Cl  0  0  0  0  0  0  0  0  0  0  0  0
    7.2070   -3.4380   -1.0970 C   0  0  0  0  0  0  0  0  0  0  0  0
    7.9650   -4.4450   -1.1460 O   0  0  0  0  0  0  0  0  0  0  0  0
    7.4890   -2.2060   -0.3970 C   0  0  0  0  0  0  0  0  0  0  0  0
    6.4270   -1.3720   -0.5850 C   0  0  0  0  0  0  0  0  0  0  0  0
    6.3660   -0.0690   -0.0370 N   0  0  0  0  0  0  0  0  0  0  0  0
    5.9440    0.1140    1.6160 S   0  0  1  0  0  0  0  0  0  0  0  0
    5.4140   -1.3820    2.2900 N   0  0  0  0  0  0  0  0  0  0  0  0
    7.1600    0.6360    2.4500 N   0  0  0  0  0  0  0  0  0  0  0  0
    4.9420    1.2240    1.8460 O   0  0  0  0  0  0  0  0  0  0  0  0
    1.4120   -0.9130   -3.0230 N   0  0  0  0  0  0  0  0  0  0  0  0
    0.2790   -0.3240   -3.3650 N   0  0  0  0  0  0  0  0  0  0  0  0
   -2.9610    0.9600   -2.0690 C   0  0  0  0  0  0  0  0  0  0  0  0
   -3.9370    0.8320   -1.1210 C   0  0  0  0  0  0  0  0  0  0  0  0
  1  2  1  0
  2  3  1  0
  3  4  1  6
  3  5  1  0
  5  6  1  0
  6  7  2  0
  6  8  1  0
  8  9  2  0
  8 34  1  0
  9 10  1  0
 10 11  2  0
 11 12  1  0
 11 33  1  0
 12 13  1  0
 13 14  2  0
 13 32  1  0
 14 15  1  0
 15 16  1  0
 15 31  2  0
 16 17  2  0
 16 18  1  0
 18 19  1  0
 19 20  2  0
 19 25  1  0
 20 21  1  0
 20 22  1  0
 22 23  2  0
 22 24  1  0
 24 25  2  0
 25 26  1  0
 26 27  1  0
 27 28  1  1
 27 29  2  0
 27 30  2  0
 31 32  1  0
 33 34  2  0
M  CHG  1  29   1
M  END
