
     RDKit          3D

 34 37  0  0  0  0  0  0  0  0999 V2000
    6.8850    0.6680    2.1220 C   0  0  0  0  0  0  0  0  0  0  0  0
    6.6680    0.8120    0.8340 C   0  0  0  0  0  0  0  0  0  0  0  0
    7.5000    1.1920   -0.1850 C   0  0  0  0  0  0  0  0  0  0  0  0
    8.7640    1.5240   -0.1150 C   0  0  0  0  0  0  0  0  0  0  0  0
    9.6190    1.5780    1.0680 C   0  0  0  0  0  0  0  0  0  0  0  0
    6.7910    1.1790   -1.3600 N   0  0  0  0  0  0  0  0  0  0  0  0
    5.5320    0.7980   -1.0930 C   0  0  0  0  0  0  0  0  0  0  0  0
    4.2980    0.6500   -2.3710 S   0  0  0  0  0  0  0  0  0  0  0  0
    2.7090    0.0950   -1.8520 C   0  0  0  0  0  0  0  0  0  0  0  0
    2.6850   -1.3180   -1.3600 C   0  0  0  0  0  0  0  0  0  0  0  0
    3.7450   -1.9830   -1.4030 O   0  0  0  0  0  0  0  0  0  0  0  0
    1.4880   -1.9520   -0.8360 C   0  0  0  0  0  0  0  0  0  0  0  0
    1.5240   -3.2490   -0.4070 C   0  0  0  0  0  0  0  0  0  0  0  0
    0.4290   -3.8880    0.0980 C   0  0  0  0  0  0  0  0  0  0  0  0
   -0.7440   -3.1650    0.1630 C   0  0  0  0  0  0  0  0  0  0  0  0
   -1.8590   -3.7870    0.6670 O   0  0  0  0  0  0  0  0  0  0  0  0
   -1.8980   -5.1050    1.1220 C   0  0  0  0  0  0  0  0  0  0  0  0
   -0.8350   -1.8430   -0.2590 C   0  0  0  0  0  0  0  0  0  0  0  0
   -2.0680   -1.1890   -0.1470 N   0  0  0  0  0  0  0  0  0  0  0  0
   -2.3950    0.1330   -0.5150 C   0  0  0  0  0  0  0  0  0  0  0  0
   -1.5070    0.8600   -1.0160 O   0  0  0  0  0  0  0  0  0  0  0  0
   -3.7280    0.6600   -0.3260 N   0  0  0  0  0  0  0  0  0  0  0  0
   -3.9970    2.0230   -0.7400 C   0  0  0  0  0  0  0  0  0  0  0  0
   -5.4490    2.0140   -1.2260 C   0  0  0  0  0  0  0  0  0  0  0  0
   -6.2890    1.9110    0.0290 C   0  0  2  0  0  0  0  0  0  0  0  0
   -5.8080    0.7990    0.8940 C   0  0  0  0  0  0  0  0  0  0  0  0
   -4.7920   -0.1090    0.2580 C   0  0  0  0  0  0  0  0  0  0  0  0
   -7.7320    1.7970   -0.3840 C   0  0  0  0  0  0  0  0  0  0  0  0
   -8.3550    2.7430    0.3970 O   0  0  0  0  0  0  0  0  0  0  0  0
   -7.4420    3.2140    1.3150 C   0  0  0  0  0  0  0  0  0  0  0  0
   -6.2030    3.1290    0.7200 O   0  0  0  0  0  0  0  0  0  0  0  0
    0.2860   -1.2390   -0.7590 C   0  0  0  0  0  0  0  0  0  0  0  0
    5.4530    0.5810    0.2080 N   0  0  0  0  0  0  0  0  0  0  0  0
    4.2830    0.1780    0.9380 C   0  0  0  0  0  0  0  0  0  0  0  0
  1  2  2  0
  2  3  1  0
  2 33  1  0
  3  4  2  3
  3  6  1  0
  4  5  1  0
  6  7  2  0
  7  8  1  0
  7 33  1  0
  8  9  1  0
  9 10  1  0
 10 11  2  0
 10 12  1  0
 12 13  2  0
 12 32  1  0
 13 14  1  0
 14 15  2  0
 15 16  1  0
 15 18  1  0
 16 17  1  0
 18 19  1  0
 18 32  2  0
 19 20  1  0
 20 21  2  0
 20 22  1  0
 22 23  1  0
 22 27  1  0
 23 24  1  0
 25 24  1  6
 25 26  1  0
 25 28  1  0
 25 31  1  0
 26 27  1  0
 28 29  1  0
 29 30  1  0
 30 31  1  0
 33 34  1  0
M  END
