
     RDKit          3D

 34 37  0  0  0  0  0  0  0  0999 V2000
    9.1990   -2.6500   -0.6710 C   0  0  0  0  0  0  0  0  0  0  0  0
    9.6340   -1.6310    0.3730 C   0  0  0  0  0  0  0  0  0  0  0  0
    8.5630   -0.7250    0.6570 O   0  0  0  0  0  0  0  0  0  0  0  0
    8.0540    0.0440   -0.3860 C   0  0  0  0  0  0  0  0  0  0  0  0
    8.5560   -0.0920   -1.5220 O   0  0  0  0  0  0  0  0  0  0  0  0
    6.9960    0.9690   -0.2080 N   0  0  0  0  0  0  0  0  0  0  0  0
    6.5350    1.7160   -1.3290 C   0  0  0  0  0  0  0  0  0  0  0  0
    5.0630    2.0440   -1.2780 C   0  0  0  0  0  0  0  0  0  0  0  0
    4.4680    1.6970   -0.0160 N   0  0  0  0  0  0  0  0  0  0  0  0
    3.1950    1.1050    0.0910 C   0  0  0  0  0  0  0  0  0  0  0  0
    2.7160    0.8180    1.2330 O   0  0  0  0  0  0  0  0  0  0  0  0
    2.3390    0.7800   -1.0790 C   0  0  0  0  0  0  0  0  0  0  0  0
    1.1140    0.1950   -0.6970 O   0  0  0  0  0  0  0  0  0  0  0  0
    0.1760    0.8110    0.1160 C   0  0  0  0  0  0  0  0  0  0  0  0
    0.4510    1.9630    0.5300 O   0  0  0  0  0  0  0  0  0  0  0  0
   -1.0790    0.1830    0.4930 C   0  0  0  0  0  0  0  0  0  0  0  0
   -1.9440    0.8790    1.3060 C   0  0  0  0  0  0  0  0  0  0  0  0
   -3.1680    0.3350    1.7070 C   0  0  0  0  0  0  0  0  0  0  0  0
   -3.5340   -0.9140    1.2960 C   0  0  0  0  0  0  0  0  0  0  0  0
   -4.7680   -1.5410    1.6630 N   0  0  0  0  0  0  0  0  0  0  0  0
   -5.9050   -1.3730    0.8690 N   0  0  0  0  0  0  0  0  0  0  0  0
   -6.9470   -0.8220    1.3930 C   0  0  0  0  0  0  0  0  0  0  0  0
   -8.1630   -0.6130    0.6350 C   0  0  0  0  0  0  0  0  0  0  0  0
   -8.5440   -0.8770   -0.6430 C   0  0  0  0  0  0  0  0  0  0  0  0
   -9.7660   -0.5660   -1.0870 C   0  0  0  0  0  0  0  0  0  0  0  0
  -10.6690    0.0380   -0.2340 C   0  0  0  0  0  0  0  0  0  0  0  0
   -9.6850    0.1670    1.3220 S   0  0  0  0  0  0  0  0  0  0  0  0
  -11.8130    0.3000   -0.7410 C   0  0  0  0  0  0  0  0  0  0  0  0
  -11.8010   -0.1480   -2.1420 C   0  0  0  0  0  0  0  0  0  0  0  0
  -10.4220   -0.7010   -2.2800 C   0  0  0  0  0  0  0  0  0  0  0  0
   -2.6730   -1.6310    0.4750 C   0  0  0  0  0  0  0  0  0  0  0  0
   -1.4530   -1.0730    0.0830 C   0  0  0  0  0  0  0  0  0  0  0  0
    5.2210    1.9730    1.1770 C   0  0  0  0  0  0  0  0  0  0  0  0
    6.4480    1.0870    1.1370 C   0  0  0  0  0  0  0  0  0  0  0  0
  1  2  1  0
  2  3  1  0
  3  4  1  0
  4  5  2  0
  4  6  1  0
  6  7  1  0
  6 34  1  0
  7  8  1  0
  8  9  1  0
  9 10  1  0
  9 33  1  0
 10 11  2  0
 10 12  1  0
 12 13  1  0
 13 14  1  0
 14 15  2  0
 14 16  1  0
 16 17  2  0
 16 32  1  0
 17 18  1  0
 18 19  2  0
 19 20  1  0
 19 31  1  0
 20 21  1  0
 21 22  2  3
 22 23  1  0
 23 24  2  0
 23 27  1  0
 24 25  1  0
 25 26  1  0
 25 30  2  0
 26 27  1  0
 26 28  2  0
 28 29  1  0
 29 30  1  0
 31 32  2  0
 33 34  1  0
M  END
