
     RDKit          3D

 34 36  0  0  0  0  0  0  0  0999 V2000
    7.1820   -1.8140    1.2270 C   0  0  0  0  0  0  0  0  0  0  0  0
    7.7290   -1.9030   -0.0760 N   0  0  0  0  0  0  0  0  0  0  0  0
    7.5280   -1.0440   -0.9890 C   0  0  0  0  0  0  0  0  0  0  0  0
    8.2640   -1.2150   -2.6530 S   0  0  0  0  0  0  0  0  0  0  0  0
    7.5720    0.2920   -3.3570 N   0  0  0  0  0  0  0  0  0  0  0  0
    6.8640    0.7870   -2.3120 C   0  0  0  0  0  0  0  0  0  0  0  0
    6.1680    2.0070   -2.5240 O   0  0  0  0  0  0  0  0  0  0  0  0
    6.8410    0.1370   -1.1550 C   0  0  0  0  0  0  0  0  0  0  0  0
    6.0910    0.6200    0.0230 N   0  0  0  0  0  0  0  0  0  0  0  0
    4.7500    0.2150    0.2100 C   0  0  0  0  0  0  0  0  0  0  0  0
    4.2090   -0.5680   -0.6460 O   0  0  0  0  0  0  0  0  0  0  0  0
    4.0130    0.6700    1.3350 N   0  0  0  0  0  0  0  0  0  0  0  0
    2.6510    0.2950    1.5770 C   0  0  0  0  0  0  0  0  0  0  0  0
    1.6940    0.7080    0.4780 C   0  0  1  0  0  0  0  0  0  0  0  0
    0.3750    0.2830    0.8270 N   0  0  0  0  0  0  0  0  0  0  0  0
   -0.2140   -0.6710   -0.0910 C   0  0  2  0  0  0  0  0  0  0  0  0
    0.2750   -0.4180   -1.5010 C   0  0  0  0  0  0  0  0  0  0  0  0
   -1.6700   -0.7390   -0.0180 C   0  0  0  0  0  0  0  0  0  0  0  0
   -2.4200    0.4070    0.0110 C   0  0  0  0  0  0  0  0  0  0  0  0
   -3.8210    0.3550    0.0760 C   0  0  0  0  0  0  0  0  0  0  0  0
   -4.4490   -0.8620    0.1110 C   0  0  0  0  0  0  0  0  0  0  0  0
   -5.7930   -1.0190    0.1740 O   0  0  0  0  0  0  0  0  0  0  0  0
   -6.8140   -0.0890    0.2140 C   0  0  1  0  0  0  0  0  0  0  0  0
   -7.6640   -0.1250   -1.0250 C   0  0  0  0  0  0  0  0  0  0  0  0
   -8.6260   -1.0350   -1.0510 C   0  0  0  0  0  0  0  0  0  0  0  0
   -8.7570   -1.8560    0.0480 O   0  0  0  0  0  0  0  0  0  0  0  0
   -8.6390   -1.3160    1.3400 C   0  0  0  0  0  0  0  0  0  0  0  0
   -7.6830   -0.1760    1.4530 C   0  0  0  0  0  0  0  0  0  0  0  0
   -3.6840   -2.0330    0.0830 C   0  0  0  0  0  0  0  0  0  0  0  0
   -4.4650   -3.6020    0.1280 Cl  0  0  0  0  0  0  0  0  0  0  0  0
   -2.3100   -1.9500    0.0190 C   0  0  0  0  0  0  0  0  0  0  0  0
    1.8040    2.1830    0.3630 C   0  0  0  0  0  0  0  0  0  0  0  0
    0.7010    3.0420    0.5850 N   0  0  0  0  0  0  0  0  0  0  0  0
    2.9090    2.6820    0.0600 O   0  0  0  0  0  0  0  0  0  0  0  0
  1  2  1  0
  2  3  2  3
  3  4  1  0
  3  8  1  0
  4  5  1  0
  5  6  1  0
  6  7  1  0
  6  8  2  0
  8  9  1  0
  9 10  1  0
 10 11  2  0
 10 12  1  0
 12 13  1  0
 14 13  1  1
 14 15  1  0
 14 32  1  0
 15 16  1  0
 16 17  1  6
 16 18  1  0
 18 19  2  0
 18 31  1  0
 19 20  1  0
 20 21  2  0
 21 22  1  0
 21 29  1  0
 23 22  1  6
 23 24  1  0
 23 28  1  0
 24 25  2  0
 25 26  1  0
 26 27  1  0
 27 28  1  0
 29 30  1  0
 29 31  2  0
 32 33  1  0
 32 34  2  0
M  CHG  1  15   1
M  END
