
     RDKit          3D

 35 39  0  0  0  0  0  0  0  0999 V2000
    3.8620   -1.1760   -0.1430 C   0  0  0  0  0  0  0  0  0  0  0  0
    2.7770   -1.2630    0.9010 C   0  0  2  0  0  0  0  0  0  0  0  0
    1.6080   -1.9410    0.2540 C   0  0  0  0  0  0  0  0  0  0  0  0
    0.6810   -0.7820   -0.0420 C   0  0  1  0  0  0  0  0  0  0  0  0
   -0.7190   -1.2200   -0.2890 C   0  0  2  0  0  0  0  0  0  0  0  0
   -0.8110   -1.4950   -1.7980 C   0  0  0  0  0  0  0  0  0  0  0  0
   -2.1810   -1.9370   -2.2090 C   0  0  0  0  0  0  0  0  0  0  0  0
   -3.2750   -1.1320   -1.5540 C   0  0  0  0  0  0  0  0  0  0  0  0
   -4.2890   -0.7760   -2.3210 C   0  0  0  0  0  0  0  0  0  0  0  0
   -5.3510    0.0010   -1.6940 C   0  0  0  0  0  0  0  0  0  0  0  0
   -6.0640    0.8090   -2.2940 O   0  0  0  0  0  0  0  0  0  0  0  0
   -5.5270   -0.2520   -0.2320 C   0  0  0  0  0  0  0  0  0  0  0  0
   -4.1910    0.0620    0.3930 C   0  0  0  0  0  0  0  0  0  0  0  0
   -3.1070   -0.8130   -0.1220 C   0  0  1  0  0  0  0  0  0  0  0  0
   -3.1820   -2.1430    0.6160 C   0  0  0  0  0  0  0  0  0  0  0  0
   -1.7400   -0.1810    0.0030 C   0  0  2  0  0  0  0  0  0  0  0  0
   -1.6460    1.0250   -1.3340 Cl  0  0  0  0  0  0  0  0  0  0  0  0
   -1.5200    0.5730    1.2640 C   0  0  1  0  0  0  0  0  0  0  0  0
   -1.8720   -0.0270    2.4280 O   0  0  0  0  0  0  0  0  0  0  0  0
   -0.0770    1.0940    1.2690 C   0  0  0  0  0  0  0  0  0  0  0  0
    0.8300   -0.0730    1.3240 C   0  0  1  0  0  0  0  0  0  0  0  0
    0.4640   -1.0520    2.4210 C   0  0  0  0  0  0  0  0  0  0  0  0
    2.3050    0.1850    1.2820 C   0  0  2  0  0  0  0  0  0  0  0  0
    2.6590    0.9180    0.1680 O   0  0  0  0  0  0  0  0  0  0  0  0
    2.5370    2.2490   -0.0430 C   0  0  0  0  0  0  0  0  0  0  0  0
    2.0560    2.9770    0.8650 O   0  0  0  0  0  0  0  0  0  0  0  0
    2.9560    2.8830   -1.3270 C   0  0  0  0  0  0  0  0  0  0  0  0
    3.4920    2.2410   -2.4200 C   0  0  0  0  0  0  0  0  0  0  0  0
    3.7380    3.1950   -3.3920 C   0  0  0  0  0  0  0  0  0  0  0  0
    3.3270    4.3980   -2.8210 C   0  0  0  0  0  0  0  0  0  0  0  0
    2.8860    4.1530   -1.6290 O   0  0  0  0  0  0  0  0  0  0  0  0
    2.9210    0.5670    2.5500 C   0  0  0  0  0  0  0  0  0  0  0  0
    2.3810    0.0430    3.5600 O   0  0  0  0  0  0  0  0  0  0  0  0
    4.0420    1.4310    2.8780 C   0  0  0  0  0  0  0  0  0  0  0  0
    5.0220    2.0370    1.5530 Cl  0  0  0  0  0  0  0  0  0  0  0  0
  2  1  1  6
  2  3  1  0
  2 23  1  0
  4  3  1  1
  4  5  1  0
  4 21  1  0
  5  6  1  6
  5 16  1  0
  6  7  1  0
  7  8  1  0
  8  9  2  0
  8 14  1  0
  9 10  1  0
 10 11  2  0
 10 12  1  0
 12 13  1  0
 13 14  1  0
 14 15  1  1
 14 16  1  0
 16 17  1  6
 16 18  1  0
 18 19  1  1
 18 20  1  0
 20 21  1  0
 21 22  1  1
 21 23  1  0
 23 24  1  6
 23 32  1  0
 24 25  1  0
 25 26  2  0
 25 27  1  0
 27 28  2  0
 27 31  1  0
 28 29  1  0
 29 30  2  0
 30 31  1  0
 32 33  2  0
 32 34  1  0
 34 35  1  0
M  END
