
     RDKit          3D

 23 26  0  0  0  0  0  0  0  0999 V2000
    6.6000   -0.0040   -0.4780 C   0  0  0  0  0  0  0  0  0  0  0  0
    5.3210    0.0310    0.0460 O   0  0  0  0  0  0  0  0  0  0  0  0
    4.2250   -0.6690   -0.3800 C   0  0  0  0  0  0  0  0  0  0  0  0
    4.2050   -1.5360   -1.4100 N   0  0  0  0  0  0  0  0  0  0  0  0
    3.0740   -2.1960   -1.7740 C   0  0  0  0  0  0  0  0  0  0  0  0
    1.9060   -1.9970   -1.0950 N   0  0  0  0  0  0  0  0  0  0  0  0
    1.8730   -1.1480   -0.0660 C   0  0  0  0  0  0  0  0  0  0  0  0
    3.0320   -0.4870    0.2880 C   0  0  0  0  0  0  0  0  0  0  0  0
    2.9910    0.4620    1.4400 C   0  0  1  0  0  0  0  0  0  0  0  0
    2.3430    1.7530    0.9520 C   0  0  0  0  0  0  0  0  0  0  0  0
    1.3670    1.3700   -0.1280 C   0  0  0  0  0  0  0  0  0  0  0  0
    0.2250    0.5820    0.5000 C   0  0  1  0  0  0  0  0  0  0  0  0
   -0.9290    0.6450   -0.5000 C   0  0  0  0  0  0  0  0  0  0  0  0
   -2.1020   -0.0670   -0.0310 N   0  0  2  0  0  0  0  0  0  0  0  0
   -2.5020   -0.9830   -1.0780 C   0  0  0  0  0  0  0  0  0  0  0  0
   -3.7680   -1.7230   -0.7610 C   0  0  0  0  0  0  0  0  0  0  0  0
   -4.8530   -0.8300   -0.2320 C   0  0  0  0  0  0  0  0  0  0  0  0
   -4.4200    0.6120   -0.5020 C   0  0  1  0  0  0  0  0  0  0  0  0
   -5.4840    1.5690   -0.0470 C   0  0  0  0  0  0  0  0  0  0  0  0
   -3.1720    0.8460    0.3250 C   0  0  0  0  0  0  0  0  0  0  0  0
    0.6700   -0.8380    0.7590 C   0  0  2  0  0  0  0  0  0  0  0  0
    1.0990   -0.9690    2.1340 N   0  0  0  0  0  0  0  0  0  0  0  0
    2.1310   -0.0890    2.5250 C   0  0  0  0  0  0  0  0  0  0  0  0
  1  2  1  0
  2  3  1  0
  3  4  2  0
  3  8  1  0
  4  5  1  0
  5  6  2  0
  6  7  1  0
  7  8  2  0
  7 21  1  0
  8  9  1  0
  9 10  1  6
  9 23  1  0
 10 11  1  0
 11 12  1  0
 12 13  1  6
 12 21  1  0
 14 13  1  6
 14 15  1  0
 14 20  1  0
 15 16  1  0
 16 17  1  0
 17 18  1  0
 18 19  1  1
 18 20  1  0
 21 22  1  1
 22 23  1  0
M  CHG  1  14   1
M  END
