
     RDKit          3D

 23 25  0  0  0  0  0  0  0  0999 V2000
   -4.3580    1.5980   -1.1620 C   0  0  0  0  0  0  0  0  0  0  0  0
   -3.4910    2.5610   -1.0700 C   0  0  0  0  0  0  0  0  0  0  0  0
   -2.0980    2.4280   -0.7070 C   0  0  0  0  0  0  0  0  0  0  0  0
   -1.3550    3.5630   -0.6760 C   0  0  0  0  0  0  0  0  0  0  0  0
    0.0790    3.4970   -0.3120 C   0  0  0  0  0  0  0  0  0  0  0  0
   -1.4760    1.1930   -0.3920 N   0  0  0  0  0  0  0  0  0  0  0  0
   -0.3880    0.6240   -1.1530 C   0  0  0  0  0  0  0  0  0  0  0  0
   -0.2010    0.8970   -2.3460 O   0  0  0  0  0  0  0  0  0  0  0  0
    0.3390   -0.2630   -0.2090 C   0  0  1  0  0  0  0  0  0  0  0  0
    1.7370   -0.1880   -0.2480 N   0  0  2  0  0  0  0  0  0  0  0  0
    2.4120    0.7480    0.5630 C   0  0  0  0  0  0  0  0  0  0  0  0
    3.8540    0.3020    0.7220 C   0  0  0  0  0  0  0  0  0  0  0  0
    4.2860   -0.5540   -0.4190 C   0  0  0  0  0  0  0  0  0  0  0  0
    3.6830   -0.1450   -1.7410 C   0  0  0  0  0  0  0  0  0  0  0  0
    2.1830    0.0720   -1.6300 C   0  0  0  0  0  0  0  0  0  0  0  0
   -0.3150   -0.0970    1.1230 C   0  0  2  0  0  0  0  0  0  0  0  0
   -0.6390   -1.3900    1.7470 N   0  0  0  0  0  0  0  0  0  0  0  0
   -1.7110   -1.9020    0.9640 C   0  0  0  0  0  0  0  0  0  0  0  0
   -1.9990   -3.3500    0.8810 C   0  0  0  0  0  0  0  0  0  0  0  0
   -1.2830   -4.2390    1.5230 C   0  0  0  0  0  0  0  0  0  0  0  0
   -3.1400   -3.8110    0.0410 C   0  0  0  0  0  0  0  0  0  0  0  0
   -2.3300   -0.9450    0.3930 N   0  0  0  0  0  0  0  0  0  0  0  0
   -1.7530    0.3100    0.7220 C   0  0  2  0  0  0  0  0  0  0  0  0
  1  2  2  0
  2  3  1  0
  3  4  2  3
  3  6  1  0
  4  5  1  0
  6  7  1  0
 23  6  1  6
  7  8  2  0
  9  7  1  6
  9 10  1  0
  9 16  1  0
 10 11  1  1
 10 15  1  0
 11 12  1  0
 12 13  1  0
 13 14  1  0
 14 15  1  0
 16 17  1  6
 16 23  1  0
 17 18  1  0
 18 19  1  0
 18 22  2  0
 19 20  2  0
 19 21  1  0
 22 23  1  0
M  CHG  1  10   1
M  END
