
     RDKit          3D

 23 26  0  0  0  0  0  0  0  0999 V2000
    4.1340   -1.5590   -0.1540 C   0  0  0  0  0  0  0  0  0  0  0  0
    4.4330   -0.3110   -0.4420 C   0  0  0  0  0  0  0  0  0  0  0  0
    5.2530    0.1580   -1.5790 C   0  0  0  0  0  0  0  0  0  0  0  0
    5.2830    1.6720   -1.4790 C   0  0  0  0  0  0  0  0  0  0  0  0
    3.9630    1.9470   -0.7700 C   0  0  0  0  0  0  0  0  0  0  0  0
    4.0060    0.8810    0.3210 C   0  0  1  0  0  0  0  0  0  0  0  0
    2.6760    0.7030    0.9510 C   0  0  0  0  0  0  0  0  0  0  0  0
    1.5120    0.3380    0.4000 N   0  0  0  0  0  0  0  0  0  0  0  0
    0.5820    0.3160    1.3810 C   0  0  0  0  0  0  0  0  0  0  0  0
   -0.8620   -0.0320    1.2690 C   0  0  2  0  0  0  0  0  0  0  0  0
   -0.9550   -1.5090    1.4000 C   0  0  0  0  0  0  0  0  0  0  0  0
   -2.0180   -2.1780    0.6120 C   0  0  0  0  0  0  0  0  0  0  0  0
   -2.2710   -1.5420   -0.7290 C   0  0  0  0  0  0  0  0  0  0  0  0
   -2.4110   -0.0390   -0.6250 C   0  0  1  0  0  0  0  0  0  0  0  0
   -3.8080    0.3590   -0.3060 C   0  0  0  0  0  0  0  0  0  0  0  0
   -4.2990    0.4580    0.9790 C   0  0  0  0  0  0  0  0  0  0  0  0
   -5.5990    0.8300    1.2540 C   0  0  0  0  0  0  0  0  0  0  0  0
   -6.4390    1.1130    0.2710 N   0  0  0  0  0  0  0  0  0  0  0  0
   -6.0340    1.0390   -1.0090 C   0  0  0  0  0  0  0  0  0  0  0  0
   -4.7400    0.6690   -1.3010 C   0  0  0  0  0  0  0  0  0  0  0  0
   -1.4000    0.5900    0.1320 N   0  0  0  0  0  0  0  0  0  0  0  0
    1.2170    0.6710    2.5010 N   0  0  0  0  0  0  0  0  0  0  0  0
    2.4520    0.8960    2.2290 O   0  0  0  0  0  0  0  0  0  0  0  0
  1  2  2  0
  2  3  1  0
  2  6  1  0
  3  4  1  0
  4  5  1  0
  5  6  1  0
  6  7  1  6
  7  8  2  0
  7 23  1  0
  8  9  1  0
 10  9  1  6
  9 22  2  0
 10 11  1  0
 10 21  1  0
 11 12  1  0
 12 13  1  0
 13 14  1  0
 14 15  1  1
 14 21  1  0
 15 16  2  0
 15 20  1  0
 16 17  1  0
 17 18  2  0
 18 19  1  0
 19 20  2  0
 22 23  1  0
M  CHG  1  21   1
M  END
