
     RDKit          3D

 22 23  0  0  0  0  0  0  0  0999 V2000
    6.1140    2.7660   -1.8260 O   0  0  0  0  0  0  0  0  0  0  0  0
    6.1810    1.2750   -1.5630 S   0  0  0  0  0  0  0  0  0  0  0  0
    4.6770    0.7060   -0.8120 C   0  0  0  0  0  0  0  0  0  0  0  0
    3.6330    0.2050   -1.5380 C   0  0  0  0  0  0  0  0  0  0  0  0
    2.4650   -0.2340   -0.9110 C   0  0  0  0  0  0  0  0  0  0  0  0
    2.2870   -0.1930    0.4480 C   0  0  0  0  0  0  0  0  0  0  0  0
    1.1340   -0.6180    1.1460 N   0  0  0  0  0  0  0  0  0  0  0  0
   -0.0380   -1.1580    0.6000 C   0  0  0  0  0  0  0  0  0  0  0  0
   -0.1530   -1.3100   -0.6180 O   0  0  0  0  0  0  0  0  0  0  0  0
   -1.1430   -1.5530    1.4270 N   0  0  0  0  0  0  0  0  0  0  0  0
   -2.3530   -2.1120    0.8370 C   0  0  0  0  0  0  0  0  0  0  0  0
   -3.1100   -0.9820    0.2480 C   0  0  0  0  0  0  0  0  0  0  0  0
   -2.6780    0.3290    0.3480 C   0  0  0  0  0  0  0  0  0  0  0  0
   -3.3880    1.3760   -0.2030 C   0  0  0  0  0  0  0  0  0  0  0  0
   -2.9650    2.6910   -0.1090 O   0  0  0  0  0  0  0  0  0  0  0  0
   -4.5600    1.1200   -0.8720 C   0  0  0  0  0  0  0  0  0  0  0  0
   -5.0320   -0.1580   -1.0000 C   0  0  0  0  0  0  0  0  0  0  0  0
   -6.1860   -0.4330   -1.6560 F   0  0  0  0  0  0  0  0  0  0  0  0
   -4.2900   -1.1820   -0.4320 C   0  0  0  0  0  0  0  0  0  0  0  0
    3.3720    0.3260    1.1750 C   0  0  0  0  0  0  0  0  0  0  0  0
    3.2890    0.4050    2.5170 F   0  0  0  0  0  0  0  0  0  0  0  0
    4.5050    0.7510    0.5600 C   0  0  0  0  0  0  0  0  0  0  0  0
  1  2  2  0
  2  3  1  0
  3  4  2  0
  3 22  1  0
  4  5  1  0
  5  6  2  0
  6  7  1  0
  6 20  1  0
  7  8  1  0
  8  9  2  0
  8 10  1  0
 10 11  1  0
 11 12  1  0
 12 13  2  0
 12 19  1  0
 13 14  1  0
 14 15  1  0
 14 16  2  0
 16 17  1  0
 17 18  1  0
 17 19  2  0
 20 21  1  0
 20 22  2  0
M  END
