
     RDKit          3D

 11 11  0  0  0  0  0  0  0  0999 V2000
   -3.4290    0.6480    0.0640 C   0  0  0  0  0  0  0  0  0  0  0  0
   -1.9610    0.9530   -0.2680 C   0  0  0  0  0  0  0  0  0  0  0  0
   -1.2190   -0.1600    0.0880 O   0  0  0  0  0  0  0  0  0  0  0  0
    0.1440   -0.3140   -0.0390 C   0  0  0  0  0  0  0  0  0  0  0  0
    0.9450    0.6750   -0.5620 C   0  0  0  0  0  0  0  0  0  0  0  0
    2.3250    0.5020   -0.6850 C   0  0  0  0  0  0  0  0  0  0  0  0
    3.1470    1.4910   -1.2100 O   0  0  0  0  0  0  0  0  0  0  0  0
    2.8600   -0.6970   -0.2630 C   0  0  0  0  0  0  0  0  0  0  0  0
    2.0890   -1.7160    0.2680 C   0  0  0  0  0  0  0  0  0  0  0  0
    0.7060   -1.4980    0.3730 C   0  0  0  0  0  0  0  0  0  0  0  0
   -0.1230   -2.4740    0.8940 O   0  0  0  0  0  0  0  0  0  0  0  0
  1  2  1  0
  2  3  1  0
  3  4  1  0
  4  5  2  0
  4 10  1  0
  5  6  1  0
  6  7  1  0
  6  8  2  0
  8  9  1  0
  9 10  2  0
 10 11  1  0
M  END
