
     RDKit          3D

 10  9  0  0  0  0  0  0  0  0999 V2000
   -2.4150    1.1450    0.7790 N   0  0  0  0  0  0  0  0  0  0  0  0
   -2.4780    0.1750   -0.2490 C   0  0  0  0  0  0  0  0  0  0  0  0
   -3.8150    0.0870   -1.1550 S   0  0  0  0  0  0  0  0  0  0  0  0
   -1.4060   -0.7030   -0.4700 N   0  0  0  0  0  0  0  0  0  0  0  0
   -0.2230   -0.7050    0.2700 N   0  0  0  0  0  0  0  0  0  0  0  0
    1.0020   -0.6960   -0.4210 C   0  0  0  0  0  0  0  0  0  0  0  0
    1.0400   -0.6820   -1.6740 O   0  0  0  0  0  0  0  0  0  0  0  0
    2.2080   -0.7060    0.3160 N   0  0  0  0  0  0  0  0  0  0  0  0
    3.3800   -0.7020   -0.3620 O   0  0  0  0  0  0  0  0  0  0  0  0
    3.5890    0.8850   -0.9730 S   0  0  0  0  0  0  0  0  0  0  0  0
  1  2  1  0
  2  3  2  0
  2  4  1  0
  4  5  1  0
  5  6  1  0
  6  7  2  0
  6  8  1  0
  8  9  1  0
  9 10  1  0
M  END
