
     RDKit          3D

 11 11  0  0  0  0  0  0  0  0999 V2000
    3.9600   -0.6970    0.4670 C   0  0  0  0  0  0  0  0  0  0  0  0
    3.0140    0.3620   -0.1100 C   0  0  0  0  0  0  0  0  0  0  0  0
    1.7250    0.0330    0.3300 O   0  0  0  0  0  0  0  0  0  0  0  0
    0.5790    0.7370    0.0320 C   0  0  0  0  0  0  0  0  0  0  0  0
    0.6800    1.7520   -0.6870 O   0  0  0  0  0  0  0  0  0  0  0  0
   -0.7640    0.3280    0.5360 C   0  0  1  0  0  0  0  0  0  0  0  0
   -1.8190    1.2490    0.0730 C   0  0  0  0  0  0  0  0  0  0  0  0
   -2.7740    0.7580   -0.9300 C   0  0  0  0  0  0  0  0  0  0  0  0
   -2.7940   -0.5880   -1.1600 O   0  0  0  0  0  0  0  0  0  0  0  0
   -2.4330   -1.3710   -0.0810 C   0  0  0  0  0  0  0  0  0  0  0  0
   -0.9600   -1.1130    0.1560 C   0  0  0  0  0  0  0  0  0  0  0  0
  1  2  1  0
  2  3  1  0
  3  4  1  0
  4  5  2  0
  6  4  1  6
  6  7  1  0
  6 11  1  0
  7  8  1  0
  8  9  1  0
  9 10  1  0
 10 11  1  0
M  END
