
     RDKit          3D

 16 17  0  0  0  0  0  0  0  0999 V2000
    5.0970   -1.4860   -2.8780 N   0  0  0  0  0  0  0  0  0  0  0  0
    5.4810   -0.9670   -1.5710 C   0  0  0  0  0  0  0  0  0  0  0  0
    4.3120   -0.6190   -0.7530 C   0  0  0  0  0  0  0  0  0  0  0  0
    3.0730   -0.7710   -1.1820 C   0  0  0  0  0  0  0  0  0  0  0  0
    1.9440   -0.4150   -0.3410 C   0  0  0  0  0  0  0  0  0  0  0  0
    0.6890   -0.5510   -0.7300 C   0  0  0  0  0  0  0  0  0  0  0  0
   -0.4220   -0.2140    0.0630 N   0  0  0  0  0  0  0  0  0  0  0  0
   -1.0650    1.0890   -0.0080 C   0  0  0  0  0  0  0  0  0  0  0  0
   -1.6810    1.3340    1.3550 C   0  0  0  0  0  0  0  0  0  0  0  0
   -2.8980    0.4460    1.4560 C   0  0  2  0  0  0  0  0  0  0  0  0
   -2.5220   -0.9570    1.0300 C   0  0  0  0  0  0  0  0  0  0  0  0
   -1.0200   -1.1480    1.0210 C   0  0  0  0  0  0  0  0  0  0  0  0
   -3.8450    0.9670    0.5550 O   0  0  0  0  0  0  0  0  0  0  0  0
   -4.5050    1.9500    1.2560 C   0  0  0  0  0  0  0  0  0  0  0  0
   -4.5330    1.3750    2.6650 C   0  0  0  0  0  0  0  0  0  0  0  0
   -3.4690    0.4900    2.7090 O   0  0  0  0  0  0  0  0  0  0  0  0
  1  2  1  0
  2  3  1  0
  3  4  2  3
  4  5  1  0
  5  6  2  3
  6  7  1  0
  7  8  1  0
  7 12  1  0
  8  9  1  0
 10  9  1  1
 10 11  1  0
 10 13  1  0
 10 16  1  0
 11 12  1  0
 13 14  1  0
 14 15  1  0
 15 16  1  0
M  CHG  1   1   1
M  END
