
     RDKit          3D

 15 16  0  0  0  0  0  0  0  0999 V2000
    4.1000    1.4980    1.1060 O   0  0  0  0  0  0  0  0  0  0  0  0
    4.3400    0.2040    0.6970 C   0  0  0  0  0  0  0  0  0  0  0  0
    3.0350   -0.4340    0.3130 C   0  0  0  0  0  0  0  0  0  0  0  0
    1.7800    0.1590    0.3540 C   0  0  0  0  0  0  0  0  0  0  0  0
    0.8450   -0.7530   -0.0760 C   0  0  0  0  0  0  0  0  0  0  0  0
   -0.5900   -0.5580   -0.1930 C   0  0  0  0  0  0  0  0  0  0  0  0
   -1.3900   -1.5860   -0.6460 C   0  0  0  0  0  0  0  0  0  0  0  0
   -2.7520   -1.4420   -0.7710 C   0  0  0  0  0  0  0  0  0  0  0  0
   -3.3200   -0.2250   -0.4290 C   0  0  0  0  0  0  0  0  0  0  0  0
   -2.5020    0.7900    0.0210 C   0  0  0  0  0  0  0  0  0  0  0  0
   -3.1400    2.0810    0.3780 C   0  0  0  0  0  0  0  0  0  0  0  0
   -4.5090    2.0420    0.1900 O   0  0  0  0  0  0  0  0  0  0  0  0
   -1.1810    0.5950    0.1230 N   0  0  0  0  0  0  0  0  0  0  0  0
    1.5410   -1.9020   -0.3780 C   0  0  0  0  0  0  0  0  0  0  0  0
    2.8350   -1.6850   -0.1380 N   0  0  0  0  0  0  0  0  0  0  0  0
  1  2  1  0
  2  3  1  0
  3  4  2  0
  3 15  1  0
  4  5  1  0
  5  6  1  0
  5 14  2  0
  6  7  2  0
  6 13  1  0
  7  8  1  0
  8  9  2  0
  9 10  1  0
 10 11  1  0
 10 13  2  0
 11 12  1  0
 14 15  1  0
M  CHG  1  13   1
M  END
