
     RDKit          3D

 13 14  0  0  0  0  0  0  0  0999 V2000
    4.2080    0.1870    0.9460 O   0  0  0  0  0  0  0  0  0  0  0  0
    3.5720   -0.6290    0.2680 N   0  0  0  0  0  0  0  0  0  0  0  0
    2.2560   -0.9560    0.5750 N   0  0  0  0  0  0  0  0  0  0  0  0
    1.1660   -0.5770   -0.2810 C   0  0  1  0  0  0  0  0  0  0  0  0
   -0.1090   -1.0590    0.3020 C   0  0  0  0  0  0  0  0  0  0  0  0
   -1.1570   -0.3030    0.5550 C   0  0  0  0  0  0  0  0  0  0  0  0
   -2.3820   -0.5810    1.0780 N   0  0  0  0  0  0  0  0  0  0  0  0
   -3.0860    0.5610    1.1240 C   0  0  0  0  0  0  0  0  0  0  0  0
   -4.2670    0.6840    1.5520 O   0  0  0  0  0  0  0  0  0  0  0  0
   -2.3260    1.4960    0.6500 O   0  0  0  0  0  0  0  0  0  0  0  0
   -1.1560    1.0340    0.2920 C   0  0  0  0  0  0  0  0  0  0  0  0
   -0.0690    1.5630   -0.2270 C   0  0  0  0  0  0  0  0  0  0  0  0
    1.0970    0.8260   -0.5290 N   0  0  0  0  0  0  0  0  0  0  0  0
  1  2  2  0
  2  3  1  0
  4  3  1  1
  4  5  1  0
  4 13  1  0
  5  6  2  0
  6  7  1  0
  6 11  1  0
  7  8  1  0
  8  9  2  0
  8 10  1  0
 10 11  1  0
 11 12  2  0
 12 13  1  0
M  END
