
     RDKit          3D

 14 14  0  0  0  0  0  0  0  0999 V2000
   -0.0870   -2.0760   -1.1350 C   0  0  0  0  0  0  0  0  0  0  0  0
   -0.1440   -0.8340   -0.3090 C   0  0  1  0  0  0  0  0  0  0  0  0
   -1.2710   -0.8590    0.5870 N   0  0  0  0  0  0  0  0  0  0  0  0
   -2.3490    0.0750    0.5010 C   0  0  0  0  0  0  0  0  0  0  0  0
   -2.3380    0.9610   -0.3810 O   0  0  0  0  0  0  0  0  0  0  0  0
   -3.4310    0.0430    1.3700 O   0  0  0  0  0  0  0  0  0  0  0  0
   -4.4470    0.9550    1.2570 N   0  0  0  0  0  0  0  0  0  0  0  0
    1.1370   -0.5340    0.4210 C   0  0  2  0  0  0  0  0  0  0  0  0
    0.9990    0.7340    1.0330 O   0  0  0  0  0  0  0  0  0  0  0  0
    1.3570    1.7470    0.1750 C   0  0  0  0  0  0  0  0  0  0  0  0
    2.8250    1.7540    0.0600 N   0  0  0  0  0  0  0  0  0  0  0  0
    3.1560    0.5750   -0.6060 N   0  0  0  0  0  0  0  0  0  0  0  0
    2.3200   -0.5590   -0.4540 C   0  0  0  0  0  0  0  0  0  0  0  0
    2.6150   -1.5980   -1.0900 O   0  0  0  0  0  0  0  0  0  0  0  0
  2  1  1  1
  2  3  1  0
  2  8  1  0
  3  4  1  0
  4  5  2  0
  4  6  1  0
  6  7  1  0
  8  9  1  6
  8 13  1  0
  9 10  1  0
 10 11  1  0
 11 12  1  0
 12 13  1  0
 13 14  2  0
M  END
