
     RDKit          3D

 13 14  0  0  0  0  0  0  0  0999 V2000
    4.0550   -1.1690    0.3290 O   0  0  0  0  0  0  0  0  0  0  0  0
    3.0040   -0.4870    0.2240 C   0  0  0  0  0  0  0  0  0  0  0  0
    2.9260    0.7760   -0.5460 C   0  0  0  0  0  0  0  0  0  0  0  0
    1.7980    0.6800   -1.4210 O   0  0  0  0  0  0  0  0  0  0  0  0
    0.5830    0.3020   -0.8750 C   0  0  0  0  0  0  0  0  0  0  0  0
   -0.5760    0.6710   -1.3880 C   0  0  0  0  0  0  0  0  0  0  0  0
   -1.7950    0.2700   -0.8080 N   0  0  0  0  0  0  0  0  0  0  0  0
   -1.7940   -0.5610    0.3700 C   0  0  2  0  0  0  0  0  0  0  0  0
   -2.6370   -0.0510    1.3980 N   0  0  0  0  0  0  0  0  0  0  0  0
   -3.9030    0.0860    1.1240 O   0  0  0  0  0  0  0  0  0  0  0  0
   -0.5140   -0.9250    0.8760 N   0  0  0  0  0  0  0  0  0  0  0  0
    0.5630   -0.5390    0.3190 C   0  0  0  0  0  0  0  0  0  0  0  0
    1.8240   -0.9340    0.8690 N   0  0  0  0  0  0  0  0  0  0  0  0
  1  2  2  0
  2  3  1  0
  2 13  1  0
  3  4  1  0
  4  5  1  0
  5  6  2  0
  5 12  1  0
  6  7  1  0
  7  8  1  0
  8  9  1  1
  8 11  1  0
  9 10  1  0
 11 12  2  0
 12 13  1  0
M  END
