
     RDKit          3D

 14 15  0  0  0  0  0  0  0  0999 V2000
    0.2190    2.5820    0.0090 N   0  0  0  0  0  0  0  0  0  0  0  0
    0.7060    1.2410   -0.0380 C   0  0  0  0  0  0  0  0  0  0  0  0
   -0.0730    0.2090   -0.2620 C   0  0  0  0  0  0  0  0  0  0  0  0
   -1.5010    0.4520   -0.4680 C   0  0  0  0  0  0  0  0  0  0  0  0
   -1.8730    1.5850   -0.9220 O   0  0  0  0  0  0  0  0  0  0  0  0
   -2.4370   -0.5720   -0.1600 N   0  0  0  0  0  0  0  0  0  0  0  0
   -1.9280   -1.7810    0.3340 N   0  0  0  0  0  0  0  0  0  0  0  0
   -0.5340   -1.9960    0.5260 C   0  0  0  0  0  0  0  0  0  0  0  0
   -0.1150   -2.8170    1.3790 O   0  0  0  0  0  0  0  0  0  0  0  0
    0.3810   -1.2000   -0.3330 C   0  0  2  0  0  0  0  0  0  0  0  0
    1.7310   -1.3900   -0.0830 O   0  0  0  0  0  0  0  0  0  0  0  0
    2.5620   -0.3090    0.1510 C   0  0  0  0  0  0  0  0  0  0  0  0
    3.8060   -0.4740    0.3520 O   0  0  0  0  0  0  0  0  0  0  0  0
    2.0930    1.0290    0.1840 N   0  0  0  0  0  0  0  0  0  0  0  0
  1  2  1  0
  2  3  2  0
  2 14  1  0
  3  4  1  0
  3 10  1  0
  4  5  2  0
  4  6  1  0
  6  7  1  0
  7  8  1  0
  8  9  2  0
  8 10  1  0
 10 11  1  1
 11 12  1  0
 12 13  2  0
 12 14  1  0
M  END
