
     RDKit          3D

 14 14  0  0  0  0  0  0  0  0999 V2000
   -3.0240   -0.0600    0.4630 C   0  0  0  0  0  0  0  0  0  0  0  0
   -1.5810   -0.2290    0.8030 C   0  0  1  0  0  0  0  0  0  0  0  0
   -1.3260   -1.5050    1.2920 O   0  0  0  0  0  0  0  0  0  0  0  0
   -0.6780    0.0330   -0.4020 C   0  0  1  0  0  0  0  0  0  0  0  0
   -0.9380    1.3630   -0.9200 N   0  0  0  0  0  0  0  0  0  0  0  0
    0.7170    0.0040   -0.0070 N   0  0  0  0  0  0  0  0  0  0  0  0
    1.3830    1.1090    0.2880 N   0  0  0  0  0  0  0  0  0  0  0  0
    2.6600    1.1000    0.6510 C   0  0  0  0  0  0  0  0  0  0  0  0
    3.1980    2.2160    0.9100 O   0  0  0  0  0  0  0  0  0  0  0  0
    3.3400   -0.0450    0.7380 N   0  0  0  0  0  0  0  0  0  0  0  0
    2.7220   -1.1980    0.4530 C   0  0  0  0  0  0  0  0  0  0  0  0
    3.3850   -2.2630    0.5420 O   0  0  0  0  0  0  0  0  0  0  0  0
    1.3980   -1.1600    0.0780 C   0  0  0  0  0  0  0  0  0  0  0  0
    0.8190   -2.2580   -0.1900 O   0  0  0  0  0  0  0  0  0  0  0  0
  2  1  1  6
  2  3  1  0
  2  4  1  0
  4  5  1  1
  4  6  1  0
  6  7  1  0
  6 13  1  0
  7  8  1  0
  8  9  2  0
  8 10  1  0
 10 11  1  0
 11 12  2  0
 11 13  1  0
 13 14  2  0
M  END
