
     RDKit          3D

 14 14  0  0  0  0  0  0  0  0999 V2000
   -3.1330    0.8920   -0.4290 C   0  0  0  0  0  0  0  0  0  0  0  0
   -2.6830   -0.1380    0.5720 C   0  0  1  0  0  0  0  0  0  0  0  0
   -3.0810   -1.3940    0.1150 O   0  0  0  0  0  0  0  0  0  0  0  0
   -1.1840   -0.1730    0.7140 C   0  0  2  0  0  0  0  0  0  0  0  0
   -0.7400    1.0840    1.1780 O   0  0  0  0  0  0  0  0  0  0  0  0
   -0.4910   -0.4310   -0.6060 C   0  0  0  0  0  0  0  0  0  0  0  0
    0.9420   -0.4450   -0.3480 N   0  0  0  0  0  0  0  0  0  0  0  0
    1.6660   -1.5150   -0.0230 N   0  0  0  0  0  0  0  0  0  0  0  0
    2.9450   -1.1340    0.1360 C   0  0  0  0  0  0  0  0  0  0  0  0
    3.9170   -1.8900    0.4480 O   0  0  0  0  0  0  0  0  0  0  0  0
    3.0000    0.1820   -0.0950 N   0  0  0  0  0  0  0  0  0  0  0  0
    4.1230    0.9850   -0.0410 N   0  0  0  0  0  0  0  0  0  0  0  0
    1.7590    0.5990   -0.3920 C   0  0  0  0  0  0  0  0  0  0  0  0
    1.4600    1.7780   -0.6620 O   0  0  0  0  0  0  0  0  0  0  0  0
  2  1  1  6
  2  3  1  0
  2  4  1  0
  4  5  1  6
  4  6  1  0
  6  7  1  0
  7  8  1  0
  7 13  1  0
  8  9  1  0
  9 10  2  0
  9 11  1  0
 11 12  1  0
 11 13  1  0
 13 14  2  0
M  END
