
     RDKit          3D

 27 28  0  0  0  0  0  0  0  0999 V2000
    5.0480    0.7360   -2.9020 C   0  0  0  0  0  0  0  0  0  0  0  0
    4.2790   -0.5560   -2.7730 C   0  0  0  0  0  0  0  0  0  0  0  0
    2.8780   -0.2750   -2.3010 C   0  0  0  0  0  0  0  0  0  0  0  0
    2.4870   -0.8030   -1.1830 C   0  0  0  0  0  0  0  0  0  0  0  0
    1.1360   -0.6320   -0.5660 C   0  0  0  0  0  0  0  0  0  0  0  0
    0.8920   -1.2470    0.5880 C   0  0  0  0  0  0  0  0  0  0  0  0
    2.0950   -2.0180    1.0680 N   0  0  0  0  0  0  0  0  0  0  0  0
   -0.2320   -1.3070    1.4100 N   0  0  0  0  0  0  0  0  0  0  0  0
   -1.4530   -2.0630    1.4490 C   0  0  0  0  0  0  0  0  0  0  0  0
   -1.8700   -2.8100    2.5170 C   0  0  0  0  0  0  0  0  0  0  0  0
   -3.1350   -3.4620    2.2460 C   0  0  0  0  0  0  0  0  0  0  0  0
   -3.4260   -3.0180    0.8890 C   0  0  0  0  0  0  0  0  0  0  0  0
   -2.4490   -2.1990    0.4300 C   0  0  0  0  0  0  0  0  0  0  0  0
   -2.5180   -1.5470   -0.8870 C   0  0  0  0  0  0  0  0  0  0  0  0
   -2.3910   -2.3270   -1.8870 O   0  0  0  0  0  0  0  0  0  0  0  0
   -2.7130   -0.1550   -1.1650 N   0  0  0  0  0  0  0  0  0  0  0  0
   -2.9410    0.8430   -0.2310 N   0  0  0  0  0  0  0  0  0  0  0  0
   -2.0560    1.3440    0.7630 C   0  0  0  0  0  0  0  0  0  0  0  0
   -2.3470    1.4570    1.9740 O   0  0  0  0  0  0  0  0  0  0  0  0
   -0.6660    1.7860    0.4070 C   0  0  2  0  0  0  0  0  0  0  0  0
   -0.6960    3.2870    0.5720 C   0  0  0  0  0  0  0  0  0  0  0  0
   -0.4410    4.0680   -0.3640 O   0  0  0  0  0  0  0  0  0  0  0  0
   -1.0170    3.8230    1.8070 O   0  0  0  0  0  0  0  0  0  0  0  0
   -1.0710    5.2140    2.0600 C   0  0  0  0  0  0  0  0  0  0  0  0
   -0.3310    1.4110   -0.8750 O   0  0  0  0  0  0  0  0  0  0  0  0
    0.2680    0.2530   -1.3100 C   0  0  0  0  0  0  0  0  0  0  0  0
    0.0180   -0.0670   -2.5310 O   0  0  0  0  0  0  0  0  0  0  0  0
  1  2  1  0
  2  3  1  0
  3  4  2  3
  4  5  1  0
  5  6  2  0
  5 26  1  0
  6  7  1  0
  6  8  1  0
  8  9  1  0
  9 10  2  0
  9 13  1  0
 10 11  1  0
 11 12  1  0
 12 13  2  0
 13 14  1  0
 14 15  2  0
 14 16  1  0
 16 17  1  0
 17 18  1  0
 18 19  2  0
 18 20  1  0
 20 21  1  6
 20 25  1  0
 21 22  2  0
 21 23  1  0
 23 24  1  0
 25 26  1  0
 26 27  2  0
M  END
