
     RDKit          3D

 27 28  0  0  0  0  0  0  0  0999 V2000
    4.3820    2.9450   -0.3430 C   0  0  0  0  0  0  0  0  0  0  0  0
    4.2210    1.5650   -0.6930 O   0  0  0  0  0  0  0  0  0  0  0  0
    2.8820    1.0620   -0.4740 C   0  0  0  0  0  0  0  0  0  0  0  0
    2.0140    1.6840   -1.2490 C   0  0  0  0  0  0  0  0  0  0  0  0
    0.5440    1.4000   -1.2650 C   0  0  0  0  0  0  0  0  0  0  0  0
   -0.2310    2.1800   -0.2290 C   0  0  1  0  0  0  0  0  0  0  0  0
   -1.1370    3.1490   -0.8100 N   0  0  0  0  0  0  0  0  0  0  0  0
   -0.9570    1.3620    0.6380 O   0  0  0  0  0  0  0  0  0  0  0  0
   -1.7500    0.2960    0.3880 C   0  0  0  0  0  0  0  0  0  0  0  0
   -2.5400   -0.1350    1.3700 C   0  0  0  0  0  0  0  0  0  0  0  0
   -2.5330    0.5440    2.6810 C   0  0  0  0  0  0  0  0  0  0  0  0
   -3.2430    0.2010    3.6490 O   0  0  0  0  0  0  0  0  0  0  0  0
   -3.4740   -1.2780    1.2770 C   0  0  0  0  0  0  0  0  0  0  0  0
   -3.8610   -1.7230   -0.0750 C   0  0  0  0  0  0  0  0  0  0  0  0
   -3.3590   -0.8100   -1.1190 C   0  0  0  0  0  0  0  0  0  0  0  0
   -1.8650   -0.4840   -0.8770 C   0  0  2  0  0  0  0  0  0  0  0  0
   -1.1990   -1.7600   -0.8570 N   0  0  0  0  0  0  0  0  0  0  0  0
   -0.2070   -2.3100   -1.6940 C   0  0  0  0  0  0  0  0  0  0  0  0
   -0.7110   -3.2280   -2.4790 O   0  0  0  0  0  0  0  0  0  0  0  0
    1.2080   -2.0530   -1.8310 C   0  0  0  0  0  0  0  0  0  0  0  0
    1.6090   -1.8320   -3.0460 O   0  0  0  0  0  0  0  0  0  0  0  0
    2.2120   -2.0090   -0.8250 N   0  0  0  0  0  0  0  0  0  0  0  0
    2.3860   -1.2810    0.3800 C   0  0  0  0  0  0  0  0  0  0  0  0
    2.3150   -2.0310    1.6920 C   0  0  0  0  0  0  0  0  0  0  0  0
    2.4630   -1.3380    2.9340 N   0  0  0  0  0  0  0  0  0  0  0  0
    2.1260   -3.2660    1.6800 O   0  0  0  0  0  0  0  0  0  0  0  0
    2.6690    0.0220    0.4910 C   0  0  0  0  0  0  0  0  0  0  0  0
  1  2  1  0
  2  3  1  0
  3  4  2  0
  3 27  1  0
  4  5  1  0
  5  6  1  0
  6  7  1  6
  6  8  1  0
  8  9  1  0
  9 10  2  0
  9 16  1  0
 10 11  1  0
 10 13  1  0
 11 12  2  0
 13 14  1  0
 14 15  1  0
 16 15  1  1
 16 17  1  0
 17 18  1  0
 18 19  2  0
 18 20  1  0
 20 21  2  0
 20 22  1  0
 22 23  1  0
 23 24  1  0
 23 27  2  0
 24 25  1  0
 24 26  2  0
M  END
