
     RDKit          3D

 27 29  0  0  0  0  0  0  0  0999 V2000
    7.3960    2.4980    0.6770 C   0  0  0  0  0  0  0  0  0  0  0  0
    6.8230    1.1940    0.8350 O   0  0  0  0  0  0  0  0  0  0  0  0
    5.4590    1.0800    0.9310 C   0  0  0  0  0  0  0  0  0  0  0  0
    4.8070    1.6960    1.8880 C   0  0  0  0  0  0  0  0  0  0  0  0
    3.3860    1.6310    2.0600 C   0  0  0  0  0  0  0  0  0  0  0  0
    2.6090    0.9060    1.2210 C   0  0  0  0  0  0  0  0  0  0  0  0
    1.2260    0.9490    1.5290 C   0  0  0  0  0  0  0  0  0  0  0  0
    0.6050    1.5010    2.3400 O   0  0  0  0  0  0  0  0  0  0  0  0
    0.2950   -0.0330    0.4670 N   0  0  0  0  0  0  0  0  0  0  0  0
   -0.9720    0.2840    0.9790 C   0  0  0  0  0  0  0  0  0  0  0  0
   -1.4030    1.0730    1.7780 O   0  0  0  0  0  0  0  0  0  0  0  0
   -1.9400   -0.6420    0.3000 N   0  0  0  0  0  0  0  0  0  0  0  0
   -3.2990   -0.5250    0.6220 C   0  0  2  0  0  0  0  0  0  0  0  0
   -3.9140   -1.8450    1.1230 C   0  0  0  0  0  0  0  0  0  0  0  0
   -4.3050   -1.2160   -0.2280 C   0  0  1  0  0  0  0  0  0  0  0  0
   -5.6610   -0.6500   -0.3030 C   0  0  1  0  0  0  0  0  0  0  0  0
   -5.7580    0.7500   -0.8690 C   0  0  0  0  0  0  0  0  0  0  0  0
   -7.1980    0.7560   -1.3390 C   0  0  0  0  0  0  0  0  0  0  0  0
   -7.6430   -0.5510   -1.3780 O   0  0  0  0  0  0  0  0  0  0  0  0
   -6.5560   -1.3920   -1.2830 C   0  0  0  0  0  0  0  0  0  0  0  0
    3.2830    0.2620    0.2220 O   0  0  0  0  0  0  0  0  0  0  0  0
    4.6440    0.2700   -0.0220 C   0  0  0  0  0  0  0  0  0  0  0  0
    5.2760   -0.3430   -0.9840 C   0  0  0  0  0  0  0  0  0  0  0  0
    4.8570   -1.1500   -2.0080 N   0  0  0  0  0  0  0  0  0  0  0  0
    3.5540   -1.5780   -2.3420 C   0  0  0  0  0  0  0  0  0  0  0  0
    3.3320   -2.4380   -3.4770 N   0  0  0  0  0  0  0  0  0  0  0  0
    2.6110   -1.1940   -1.6350 O   0  0  0  0  0  0  0  0  0  0  0  0
  1  2  1  0
  2  3  1  0
  3  4  2  0
  3 22  1  0
  4  5  1  0
  5  6  2  0
  6  7  1  0
  6 21  1  0
  7  8  2  0
  7  9  1  0
  9 10  1  0
 10 11  2  0
 10 12  1  0
 13 12  1  6
 13 14  1  0
 13 15  1  0
 15 14  1  1
 15 16  1  0
 16 17  1  6
 16 20  1  0
 17 18  1  0
 18 19  1  0
 19 20  1  0
 21 22  1  0
 22 23  2  3
 23 24  1  0
 24 25  1  0
 25 26  1  0
 25 27  2  0
M  END
