
     RDKit          3D

 27 29  0  0  0  0  0  0  0  0999 V2000
   -5.3640    0.6400   -1.9770 C   0  0  0  0  0  0  0  0  0  0  0  0
   -4.7280   -0.5620   -1.4390 C   0  0  0  0  0  0  0  0  0  0  0  0
   -3.8710   -0.7230   -0.4780 C   0  0  0  0  0  0  0  0  0  0  0  0
   -3.3980   -2.0250   -0.1450 O   0  0  0  0  0  0  0  0  0  0  0  0
   -2.0520   -2.1130    0.3360 C   0  0  1  0  0  0  0  0  0  0  0  0
   -1.0750   -1.5050   -0.6270 C   0  0  0  0  0  0  0  0  0  0  0  0
    0.2700   -1.6210   -0.0910 N   0  0  0  0  0  0  0  0  0  0  0  0
    1.3970   -1.1210   -0.8060 C   0  0  0  0  0  0  0  0  0  0  0  0
    1.2000   -0.5720   -1.9220 O   0  0  0  0  0  0  0  0  0  0  0  0
    2.7440   -1.2720   -0.2030 C   0  0  1  0  0  0  0  0  0  0  0  0
    3.0100   -2.7470    0.0120 C   0  0  0  0  0  0  0  0  0  0  0  0
    3.7050   -0.7000   -1.0970 N   0  0  0  0  0  0  0  0  0  0  0  0
    3.8470    0.7200   -1.1400 C   0  0  0  0  0  0  0  0  0  0  0  0
    4.2050    1.2980   -2.2120 O   0  0  0  0  0  0  0  0  0  0  0  0
    3.5810    1.5430    0.0640 C   0  0  2  0  0  0  0  0  0  0  0  0
    4.7230    2.5300    0.2690 C   0  0  0  0  0  0  0  0  0  0  0  0
    4.7990    3.3450   -0.8470 O   0  0  0  0  0  0  0  0  0  0  0  0
    3.4700    0.6720    1.2130 N   0  0  0  0  0  0  0  0  0  0  0  0
    2.7620   -0.5350    1.0960 C   0  0  0  0  0  0  0  0  0  0  0  0
    2.1280   -1.0130    2.0970 O   0  0  0  0  0  0  0  0  0  0  0  0
   -1.9950   -1.3590    1.6340 C   0  0  0  0  0  0  0  0  0  0  0  0
   -2.3550    0.0150    1.3940 N   0  0  0  0  0  0  0  0  0  0  0  0
   -1.9400    1.2360    2.0390 C   0  0  0  0  0  0  0  0  0  0  0  0
   -1.1200    1.3660    2.9750 O   0  0  0  0  0  0  0  0  0  0  0  0
   -2.6730    2.3320    1.3860 C   0  0  0  0  0  0  0  0  0  0  0  0
   -3.4740    1.6290    0.3340 C   0  0  0  0  0  0  0  0  0  0  0  0
   -3.2880    0.3240    0.3650 C   0  0  0  0  0  0  0  0  0  0  0  0
  1  2  1  0
  2  3  2  3
  3  4  1  0
  3 27  1  0
  4  5  1  0
  5  6  1  6
  5 21  1  0
  6  7  1  0
  7  8  1  0
  8  9  2  0
  8 10  1  0
 10 11  1  1
 10 12  1  0
 10 19  1  0
 12 13  1  0
 13 14  2  0
 13 15  1  0
 15 16  1  1
 15 18  1  0
 16 17  1  0
 18 19  1  0
 19 20  2  0
 21 22  1  0
 22 23  1  0
 22 27  1  0
 23 24  2  0
 23 25  1  0
 25 26  1  0
 26 27  2  0
M  END
