
     RDKit          3D

 27 28  0  0  0  0  0  0  0  0999 V2000
   -1.9810    3.0200   -2.9950 C   0  0  0  0  0  0  0  0  0  0  0  0
   -2.8010    3.1720   -1.8290 O   0  0  0  0  0  0  0  0  0  0  0  0
   -2.5200    2.1530   -0.8350 C   0  0  0  0  0  0  0  0  0  0  0  0
   -1.3890    2.4100   -0.2220 C   0  0  0  0  0  0  0  0  0  0  0  0
   -0.7850    1.5680    0.8690 C   0  0  0  0  0  0  0  0  0  0  0  0
    0.6240    1.3820    0.4420 C   0  0  1  0  0  0  0  0  0  0  0  0
    1.1410    2.7040    0.0540 N   0  0  0  0  0  0  0  0  0  0  0  0
    1.3990    0.9910    1.5690 O   0  0  0  0  0  0  0  0  0  0  0  0
    2.1380   -0.1720    1.5780 C   0  0  0  0  0  0  0  0  0  0  0  0
    3.4130   -0.1490    1.9680 C   0  0  0  0  0  0  0  0  0  0  0  0
    4.1110    1.0340    2.4020 C   0  0  0  0  0  0  0  0  0  0  0  0
    3.6000    2.1640    2.4590 O   0  0  0  0  0  0  0  0  0  0  0  0
    4.1170   -1.4820    1.9080 C   0  0  0  0  0  0  0  0  0  0  0  0
    3.8860   -2.1700    0.5930 C   0  0  0  0  0  0  0  0  0  0  0  0
    2.4840   -1.9160    0.0240 C   0  0  0  0  0  0  0  0  0  0  0  0
    1.6220   -1.4910    1.1770 C   0  0  2  0  0  0  0  0  0  0  0  0
    0.2100   -1.6090    1.0060 N   0  0  0  0  0  0  0  0  0  0  0  0
   -0.6030   -2.1200   -0.0300 C   0  0  0  0  0  0  0  0  0  0  0  0
   -0.9740   -3.4040    0.1920 O   0  0  0  0  0  0  0  0  0  0  0  0
   -1.1390   -1.6150   -1.2740 C   0  0  0  0  0  0  0  0  0  0  0  0
   -0.3250   -1.8630   -2.2960 O   0  0  0  0  0  0  0  0  0  0  0  0
   -2.3390   -0.9290   -1.6210 N   0  0  0  0  0  0  0  0  0  0  0  0
   -3.3810   -0.2320   -0.9850 C   0  0  0  0  0  0  0  0  0  0  0  0
   -4.6700   -0.9720   -0.6890 C   0  0  0  0  0  0  0  0  0  0  0  0
   -4.9240   -2.2980   -1.0200 N   0  0  0  0  0  0  0  0  0  0  0  0
   -5.6080   -0.3660   -0.1000 O   0  0  0  0  0  0  0  0  0  0  0  0
   -3.4450    1.0700   -0.6570 C   0  0  0  0  0  0  0  0  0  0  0  0
  1  2  1  0
  2  3  1  0
  3  4  2  0
  3 27  1  0
  4  5  1  0
  5  6  1  0
  6  7  1  1
  6  8  1  0
  8  9  1  0
  9 10  2  0
  9 16  1  0
 10 11  1  0
 10 13  1  0
 11 12  2  0
 13 14  1  0
 14 15  1  0
 16 15  1  6
 16 17  1  0
 17 18  1  0
 18 19  2  0
 18 20  1  0
 20 21  2  0
 20 22  1  0
 22 23  1  0
 23 24  1  0
 23 27  2  0
 24 25  1  0
 24 26  2  0
M  END
