
     RDKit          3D

 27 29  0  0  0  0  0  0  0  0999 V2000
   -3.7930   -2.3900    1.8280 C   0  0  0  0  0  0  0  0  0  0  0  0
   -2.8020   -1.6610    1.0530 C   0  0  0  0  0  0  0  0  0  0  0  0
   -2.9330   -0.5770    0.3800 C   0  0  0  0  0  0  0  0  0  0  0  0
   -1.8140   -0.0330   -0.3110 O   0  0  0  0  0  0  0  0  0  0  0  0
   -1.7190    1.3110   -0.6040 C   0  0  1  0  0  0  0  0  0  0  0  0
   -0.5740    1.5880   -1.5310 C   0  0  0  0  0  0  0  0  0  0  0  0
    0.6780    1.2140   -0.9610 N   0  0  0  0  0  0  0  0  0  0  0  0
    1.1110   -0.0740   -0.5910 C   0  0  0  0  0  0  0  0  0  0  0  0
    0.3860   -1.0680   -0.7520 O   0  0  0  0  0  0  0  0  0  0  0  0
    2.4700   -0.2220    0.0030 C   0  0  1  0  0  0  0  0  0  0  0  0
    2.5220    0.6370    1.2400 C   0  0  0  0  0  0  0  0  0  0  0  0
    2.7310   -1.6100    0.3350 N   0  0  0  0  0  0  0  0  0  0  0  0
    4.0900   -2.0200    0.4210 C   0  0  0  0  0  0  0  0  0  0  0  0
    4.3330   -3.0880    1.0400 O   0  0  0  0  0  0  0  0  0  0  0  0
    5.2200   -1.2870   -0.1610 C   0  0  2  0  0  0  0  0  0  0  0  0
    6.2220   -0.8610    0.9190 C   0  0  0  0  0  0  0  0  0  0  0  0
    7.3210   -0.2700    0.2990 O   0  0  0  0  0  0  0  0  0  0  0  0
    4.8280   -0.1070   -0.8760 N   0  0  0  0  0  0  0  0  0  0  0  0
    3.4770    0.2710   -0.9910 C   0  0  0  0  0  0  0  0  0  0  0  0
    3.1390    1.0240   -1.9370 O   0  0  0  0  0  0  0  0  0  0  0  0
   -2.9960    1.8490   -1.2080 C   0  0  0  0  0  0  0  0  0  0  0  0
   -4.1690    1.3660   -0.5270 N   0  0  0  0  0  0  0  0  0  0  0  0
   -5.5020    1.9380   -0.4940 C   0  0  0  0  0  0  0  0  0  0  0  0
   -5.8040    3.0090   -1.0980 O   0  0  0  0  0  0  0  0  0  0  0  0
   -6.3340    1.0590    0.3270 C   0  0  0  0  0  0  0  0  0  0  0  0
   -5.4040   -0.0100    0.7550 C   0  0  0  0  0  0  0  0  0  0  0  0
   -4.1730    0.1860    0.2510 C   0  0  0  0  0  0  0  0  0  0  0  0
  1  2  1  0
  2  3  2  3
  3  4  1  0
  3 27  1  0
  4  5  1  0
  5  6  1  6
  5 21  1  0
  6  7  1  0
  7  8  1  0
  8  9  2  0
  8 10  1  0
 10 11  1  1
 10 12  1  0
 10 19  1  0
 12 13  1  0
 13 14  2  0
 13 15  1  0
 15 16  1  1
 15 18  1  0
 16 17  1  0
 18 19  1  0
 19 20  2  0
 21 22  1  0
 22 23  1  0
 22 27  1  0
 23 24  2  0
 23 25  1  0
 25 26  1  0
 26 27  2  0
M  END
