
     RDKit          3D

 27 29  0  0  0  0  0  0  0  0999 V2000
   -5.5530    0.6990   -3.0840 C   0  0  0  0  0  0  0  0  0  0  0  0
   -5.1590   -0.5140   -2.4450 O   0  0  0  0  0  0  0  0  0  0  0  0
   -4.1960   -0.5680   -1.5000 C   0  0  0  0  0  0  0  0  0  0  0  0
   -3.0380    0.0450   -1.8220 C   0  0  0  0  0  0  0  0  0  0  0  0
   -1.9520    0.0520   -0.8920 C   0  0  0  0  0  0  0  0  0  0  0  0
   -2.0700   -0.5370    0.2840 C   0  0  0  0  0  0  0  0  0  0  0  0
   -1.0480   -0.5560    1.2220 C   0  0  0  0  0  0  0  0  0  0  0  0
   -1.2940   -1.1980    2.3920 O   0  0  0  0  0  0  0  0  0  0  0  0
    0.1650   -0.0980    1.3070 N   0  0  0  0  0  0  0  0  0  0  0  0
    1.3960    0.3660    1.3960 C   0  0  0  0  0  0  0  0  0  0  0  0
    1.8370    0.0560    2.5870 O   0  0  0  0  0  0  0  0  0  0  0  0
    2.2440    1.0370    0.5980 N   0  0  0  0  0  0  0  0  0  0  0  0
    3.5530    1.3970    1.0000 C   0  0  2  0  0  0  0  0  0  0  0  0
    3.9780    2.7740    0.5360 C   0  0  0  0  0  0  0  0  0  0  0  0
    4.6780    1.4790    0.1050 C   0  0  1  0  0  0  0  0  0  0  0  0
    6.0710    1.3250    0.6790 C   0  0  1  0  0  0  0  0  0  0  0  0
    6.2430   -0.0130    1.3650 C   0  0  0  0  0  0  0  0  0  0  0  0
    7.6700   -0.3570    0.9940 C   0  0  0  0  0  0  0  0  0  0  0  0
    8.1700    0.6660    0.2190 O   0  0  0  0  0  0  0  0  0  0  0  0
    7.1180    1.3040   -0.4150 C   0  0  0  0  0  0  0  0  0  0  0  0
   -3.2370   -1.1720    0.6430 O   0  0  0  0  0  0  0  0  0  0  0  0
   -4.3640   -1.2160   -0.2440 C   0  0  0  0  0  0  0  0  0  0  0  0
   -5.3880   -1.8440    0.2140 C   0  0  0  0  0  0  0  0  0  0  0  0
   -6.6380   -2.2420   -0.0270 N   0  0  0  0  0  0  0  0  0  0  0  0
   -7.6140   -2.1890   -1.0180 C   0  0  0  0  0  0  0  0  0  0  0  0
   -8.9150   -2.8260   -0.7670 N   0  0  0  0  0  0  0  0  0  0  0  0
   -7.4320   -1.6370   -2.0810 O   0  0  0  0  0  0  0  0  0  0  0  0
  1  2  1  0
  2  3  1  0
  3  4  2  0
  3 22  1  0
  4  5  1  0
  5  6  2  0
  6  7  1  0
  6 21  1  0
  7  8  2  0
  7  9  1  0
  9 10  1  0
 10 11  2  0
 10 12  1  0
 13 12  1  6
 13 14  1  0
 13 15  1  0
 15 14  1  1
 15 16  1  0
 16 17  1  6
 16 20  1  0
 17 18  1  0
 18 19  1  0
 19 20  1  0
 21 22  1  0
 22 23  2  3
 23 24  1  0
 24 25  1  0
 25 26  1  0
 25 27  2  0
M  END
