
     RDKit          3D

 27 28  0  0  0  0  0  0  0  0999 V2000
   -3.5890   -3.9850   -0.1860 C   0  0  0  0  0  0  0  0  0  0  0  0
   -2.5540   -3.4150   -1.1490 C   0  0  0  0  0  0  0  0  0  0  0  0
   -1.9570   -2.2220   -0.4880 C   0  0  0  0  0  0  0  0  0  0  0  0
   -2.0210   -1.0160   -1.0060 C   0  0  0  0  0  0  0  0  0  0  0  0
   -1.4490    0.1750   -0.3880 C   0  0  0  0  0  0  0  0  0  0  0  0
   -1.5680    1.3630   -0.9960 C   0  0  0  0  0  0  0  0  0  0  0  0
   -2.2730    1.3430   -2.2530 N   0  0  0  0  0  0  0  0  0  0  0  0
   -1.1340    2.6100   -0.5410 N   0  0  0  0  0  0  0  0  0  0  0  0
    0.1420    3.0460   -0.0990 C   0  0  0  0  0  0  0  0  0  0  0  0
    0.3950    3.7170    1.0210 C   0  0  0  0  0  0  0  0  0  0  0  0
    1.8260    3.9760    1.1070 C   0  0  0  0  0  0  0  0  0  0  0  0
    2.4120    3.3880   -0.1120 C   0  0  0  0  0  0  0  0  0  0  0  0
    1.4100    2.8400   -0.8130 C   0  0  0  0  0  0  0  0  0  0  0  0
    1.5320    2.1390   -2.0910 C   0  0  0  0  0  0  0  0  0  0  0  0
    2.2220    2.7800   -2.9800 O   0  0  0  0  0  0  0  0  0  0  0  0
    0.9850    0.8780   -2.4230 N   0  0  0  0  0  0  0  0  0  0  0  0
    1.1450   -0.3250   -1.7450 N   0  0  0  0  0  0  0  0  0  0  0  0
    1.8670   -0.6320   -0.6020 C   0  0  0  0  0  0  0  0  0  0  0  0
    2.7920   -1.5350   -0.7130 O   0  0  0  0  0  0  0  0  0  0  0  0
    1.7640   -0.0930    0.7660 C   0  0  2  0  0  0  0  0  0  0  0  0
    2.2760   -1.0980    1.7830 C   0  0  0  0  0  0  0  0  0  0  0  0
    3.3650   -1.6790    1.6330 O   0  0  0  0  0  0  0  0  0  0  0  0
    1.5380   -1.4020    2.9190 O   0  0  0  0  0  0  0  0  0  0  0  0
    2.0400   -2.3420    3.8480 C   0  0  0  0  0  0  0  0  0  0  0  0
    0.5310    0.4200    1.1480 O   0  0  0  0  0  0  0  0  0  0  0  0
   -0.7520    0.0120    0.8840 C   0  0  0  0  0  0  0  0  0  0  0  0
   -1.4430   -0.5670    1.7980 O   0  0  0  0  0  0  0  0  0  0  0  0
  1  2  1  0
  2  3  1  0
  3  4  2  3
  4  5  1  0
  5  6  2  0
  5 26  1  0
  6  7  1  0
  6  8  1  0
  8  9  1  0
  9 10  2  0
  9 13  1  0
 10 11  1  0
 11 12  1  0
 12 13  2  0
 13 14  1  0
 14 15  2  0
 14 16  1  0
 16 17  1  0
 17 18  1  0
 18 19  2  0
 18 20  1  0
 20 21  1  1
 20 25  1  0
 21 22  2  0
 21 23  1  0
 23 24  1  0
 25 26  1  0
 26 27  2  0
M  END
