
     RDKit          3D

 27 29  0  0  0  0  0  0  0  0999 V2000
    4.4630   -2.2730   -2.5550 C   0  0  0  0  0  0  0  0  0  0  0  0
    4.2970   -1.3320   -1.4160 C   0  0  0  0  0  0  0  0  0  0  0  0
    4.3570   -1.7910   -0.2440 O   0  0  0  0  0  0  0  0  0  0  0  0
    4.0760    0.0390   -1.6350 N   0  0  0  0  0  0  0  0  0  0  0  0
    3.9150    0.9520   -0.5350 C   0  0  0  0  0  0  0  0  0  0  0  0
    2.7540    0.5560    0.2830 C   0  0  0  0  0  0  0  0  0  0  0  0
    2.0760   -0.4460   -0.0250 O   0  0  0  0  0  0  0  0  0  0  0  0
    2.4050    1.2900    1.3960 O   0  0  0  0  0  0  0  0  0  0  0  0
    1.2710    0.9200    2.2130 C   0  0  2  0  0  0  0  0  0  0  0  0
    1.2640    1.9950    3.3060 C   0  0  0  0  0  0  0  0  0  0  0  0
    1.5740   -0.4440    2.7200 C   0  0  0  0  0  0  0  0  0  0  0  0
    0.0860    1.0320    1.3220 C   0  0  0  0  0  0  0  0  0  0  0  0
   -0.8930    0.1710    1.2090 C   0  0  0  0  0  0  0  0  0  0  0  0
   -1.2090   -1.1090    1.8260 N   0  0  0  0  0  0  0  0  0  0  0  0
   -1.9090   -2.0290    0.9650 C   0  0  0  0  0  0  0  0  0  0  0  0
   -2.6010   -2.9310    1.4750 O   0  0  0  0  0  0  0  0  0  0  0  0
   -1.7240   -1.7950   -0.4820 C   0  0  0  0  0  0  0  0  0  0  0  0
   -2.1730   -0.4040   -0.8300 C   0  0  1  0  0  0  0  0  0  0  0  0
   -3.5860   -0.3970   -1.3280 C   0  0  0  0  0  0  0  0  0  0  0  0
   -4.6080    0.3660   -0.9920 C   0  0  0  0  0  0  0  0  0  0  0  0
   -5.7560   -0.0900   -1.8220 C   0  0  0  0  0  0  0  0  0  0  0  0
   -5.4140   -1.4040   -2.1130 O   0  0  0  0  0  0  0  0  0  0  0  0
   -4.0720   -1.2960   -2.3260 N   0  0  0  0  0  0  0  0  0  0  0  0
   -1.9160    0.6290    0.2180 C   0  0  2  0  0  0  0  0  0  0  0  0
   -1.4100    1.8810   -0.2440 N   0  0  0  0  0  0  0  0  0  0  0  0
   -0.1920    2.1530    0.4130 C   0  0  0  0  0  0  0  0  0  0  0  0
    0.5110    3.1900    0.2270 O   0  0  0  0  0  0  0  0  0  0  0  0
  1  2  1  0
  2  3  2  0
  2  4  1  0
  4  5  1  0
  5  6  1  0
  6  7  2  0
  6  8  1  0
  8  9  1  0
  9 10  1  1
  9 11  1  0
  9 12  1  0
 12 13  2  0
 12 26  1  0
 13 14  1  0
 13 24  1  0
 14 15  1  0
 15 16  2  0
 15 17  1  0
 17 18  1  0
 18 19  1  1
 18 24  1  0
 19 20  2  0
 19 23  1  0
 20 21  1  0
 21 22  1  0
 22 23  1  0
 24 25  1  6
 25 26  1  0
 26 27  2  0
M  END
