
     RDKit          3D

 16 16  0  0  0  0  0  0  0  0999 V2000
    4.8110    1.7740    0.9530 C   0  0  0  0  0  0  0  0  0  0  0  0
    4.2230    1.4240   -0.3990 C   0  0  0  0  0  0  0  0  0  0  0  0
    2.9720    0.8020   -0.2990 O   0  0  0  0  0  0  0  0  0  0  0  0
    2.7970   -0.3930    0.3740 C   0  0  0  0  0  0  0  0  0  0  0  0
    3.8070   -0.9130    0.9010 O   0  0  0  0  0  0  0  0  0  0  0  0
    1.4700   -0.9800    0.4360 C   0  0  0  0  0  0  0  0  0  0  0  0
    1.1740   -2.1690    1.0790 C   0  0  0  0  0  0  0  0  0  0  0  0
   -0.1910   -2.3300    0.8800 C   0  0  0  0  0  0  0  0  0  0  0  0
   -0.6550   -1.2540    0.1400 C   0  0  0  0  0  0  0  0  0  0  0  0
   -2.0040   -1.0060   -0.2990 C   0  0  0  0  0  0  0  0  0  0  0  0
   -3.0140   -1.9280    0.0310 N   0  0  0  0  0  0  0  0  0  0  0  0
   -2.3060    0.0530   -0.9940 C   0  0  0  0  0  0  0  0  0  0  0  0
   -3.9640    0.4010   -1.5590 S   0  0  0  0  0  0  0  0  0  0  0  0
   -4.7220    1.5920   -0.3920 C   0  0  0  0  0  0  0  0  0  0  0  0
   -6.0100    1.9100   -0.7650 O   0  0  0  0  0  0  0  0  0  0  0  0
    0.3850   -0.4920   -0.0890 O   0  0  0  0  0  0  0  0  0  0  0  0
  1  2  1  0
  2  3  1  0
  3  4  1  0
  4  5  2  0
  4  6  1  0
  6  7  2  0
  6 16  1  0
  7  8  1  0
  8  9  2  0
  9 10  1  0
  9 16  1  0
 10 11  1  0
 10 12  2  3
 12 13  1  0
 13 14  1  0
 14 15  1  0
M  END
