
     RDKit          3D

 16 16  0  0  0  0  0  0  0  0999 V2000
    6.4660    0.0200    0.7580 C   0  0  0  0  0  0  0  0  0  0  0  0
    5.0400    0.1620    0.7830 O   0  0  0  0  0  0  0  0  0  0  0  0
    4.2850    0.1690   -0.3730 C   0  0  0  0  0  0  0  0  0  0  0  0
    4.8550    0.0460   -1.4800 O   0  0  0  0  0  0  0  0  0  0  0  0
    2.8210    0.3200   -0.3330 C   0  0  0  0  0  0  0  0  0  0  0  0
    2.1020   -1.3430   -0.3590 S   0  0  0  0  0  0  0  0  0  0  0  0
    0.3300   -1.2670   -0.2920 C   0  0  0  0  0  0  0  0  0  0  0  0
   -0.3000   -2.3510   -0.3370 O   0  0  0  0  0  0  0  0  0  0  0  0
   -0.3330   -0.0280   -0.1930 N   0  0  0  0  0  0  0  0  0  0  0  0
   -1.7550    0.0670   -0.1440 C   0  0  1  0  0  0  0  0  0  0  0  0
   -2.4100   -0.4810   -1.4090 C   0  0  0  0  0  0  0  0  0  0  0  0
   -1.9810    0.2290   -2.5320 O   0  0  0  0  0  0  0  0  0  0  0  0
   -2.3400   -0.7240    1.0390 C   0  0  0  0  0  0  0  0  0  0  0  0
   -3.7370   -0.1210    1.2060 C   0  0  0  0  0  0  0  0  0  0  0  0
   -3.7140    1.2110    0.5030 C   0  0  0  0  0  0  0  0  0  0  0  0
   -2.2660    1.4410    0.1830 C   0  0  0  0  0  0  0  0  0  0  0  0
  1  2  1  0
  2  3  1  0
  3  4  2  0
  3  5  1  0
  5  6  1  0
  6  7  1  0
  7  8  2  0
  7  9  1  0
  9 10  1  0
 10 11  1  6
 10 13  1  0
 10 16  1  0
 11 12  1  0
 13 14  1  0
 14 15  1  0
 15 16  1  0
M  END
