
     RDKit          3D

 16 16  0  0  0  0  0  0  0  0999 V2000
   -4.7320   -1.0960   -0.7490 C   0  0  0  0  0  0  0  0  0  0  0  0
   -3.9630    0.0650   -0.5260 O   0  0  0  0  0  0  0  0  0  0  0  0
   -2.5950    0.0040   -0.6010 C   0  0  0  0  0  0  0  0  0  0  0  0
   -2.0420   -1.0850   -0.8670 O   0  0  0  0  0  0  0  0  0  0  0  0
   -1.7920    1.1740   -0.3780 C   0  0  0  0  0  0  0  0  0  0  0  0
   -0.4820    1.0880   -0.4560 C   0  0  0  0  0  0  0  0  0  0  0  0
    0.3590   -0.4440   -0.8340 S   0  0  0  0  0  0  0  0  0  0  0  0
    1.7320   -0.5880    0.3560 C   0  0  1  0  0  0  0  0  0  0  0  0
    2.4920   -1.8600    0.1000 C   0  0  0  0  0  0  0  0  0  0  0  0
    3.7150   -1.9720    0.9360 C   0  0  0  0  0  0  0  0  0  0  0  0
    4.3800   -0.8060    1.1780 O   0  0  0  0  0  0  0  0  0  0  0  0
    4.0760    0.2310    0.3170 C   0  0  0  0  0  0  0  0  0  0  0  0
    2.6230    0.6130    0.3430 C   0  0  0  0  0  0  0  0  0  0  0  0
   -2.4490    2.4320   -0.0690 C   0  0  0  0  0  0  0  0  0  0  0  0
   -3.8400    2.5870    0.0280 N   0  0  0  0  0  0  0  0  0  0  0  0
   -1.6880    3.4460    0.1210 O   0  0  0  0  0  0  0  0  0  0  0  0
  1  2  1  0
  2  3  1  0
  3  4  2  0
  3  5  1  0
  5  6  2  3
  5 14  1  0
  6  7  1  0
  8  7  1  6
  8  9  1  0
  8 13  1  0
  9 10  1  0
 10 11  1  0
 11 12  1  0
 12 13  1  0
 14 15  1  0
 14 16  2  0
M  END
