
     RDKit          3D

 16 16  0  0  0  0  0  0  0  0999 V2000
    4.8650   -0.9860   -0.8220 C   0  0  0  0  0  0  0  0  0  0  0  0
    3.4950   -0.7100   -0.6340 O   0  0  0  0  0  0  0  0  0  0  0  0
    3.1010    0.4770   -0.0420 C   0  0  0  0  0  0  0  0  0  0  0  0
    3.9410    1.3270    0.3380 O   0  0  0  0  0  0  0  0  0  0  0  0
    1.6820    0.8020    0.1710 C   0  0  0  0  0  0  0  0  0  0  0  0
    1.2950    1.9930    0.7650 O   0  0  0  0  0  0  0  0  0  0  0  0
    1.1780    2.1150    2.1820 C   0  0  0  0  0  0  0  0  0  0  0  0
    0.7700   -0.0630   -0.2130 C   0  0  0  0  0  0  0  0  0  0  0  0
    1.1700   -1.2730   -0.8160 N   0  0  0  0  0  0  0  0  0  0  0  0
   -0.9470    0.3260    0.0440 S   0  0  0  0  0  0  0  0  0  0  0  0
   -1.9500   -1.0280   -0.5750 C   0  0  0  0  0  0  0  0  0  0  0  0
   -3.3950   -0.8180   -0.4160 C   0  0  0  0  0  0  0  0  0  0  0  0
   -4.2220   -1.1560    0.6300 C   0  0  0  0  0  0  0  0  0  0  0  0
   -5.4940   -0.7510    0.3080 C   0  0  0  0  0  0  0  0  0  0  0  0
   -5.4290   -0.2060   -0.8580 O   0  0  0  0  0  0  0  0  0  0  0  0
   -4.2070   -0.2120   -1.3490 C   0  0  0  0  0  0  0  0  0  0  0  0
  1  2  1  0
  2  3  1  0
  3  4  2  0
  3  5  1  0
  5  6  1  0
  5  8  2  3
  6  7  1  0
  8  9  1  0
  8 10  1  0
 10 11  1  0
 11 12  1  0
 12 13  1  0
 12 16  2  0
 13 14  2  0
 14 15  1  0
 15 16  1  0
M  END
