
     RDKit          3D

 16 16  0  0  0  0  0  0  0  0999 V2000
    5.9830    0.4890    0.7010 C   0  0  0  0  0  0  0  0  0  0  0  0
    4.7420    1.0790    0.3710 O   0  0  0  0  0  0  0  0  0  0  0  0
    3.5890    0.3070    0.3940 C   0  0  0  0  0  0  0  0  0  0  0  0
    3.7060   -0.9020    0.7130 O   0  0  0  0  0  0  0  0  0  0  0  0
    2.2670    0.8880    0.0550 C   0  0  0  0  0  0  0  0  0  0  0  0
    1.2790   -0.1640    0.1730 N   0  0  0  0  0  0  0  0  0  0  0  0
   -0.1090    0.1000   -0.0970 C   0  0  0  0  0  0  0  0  0  0  0  0
   -0.4360    1.2600   -0.4340 O   0  0  0  0  0  0  0  0  0  0  0  0
   -1.0810   -1.0080    0.0370 C   0  0  0  0  0  0  0  0  0  0  0  0
   -2.4460   -0.4610   -0.3000 C   0  0  0  0  0  0  0  0  0  0  0  0
   -3.0800   -1.0130   -1.3110 C   0  0  0  0  0  0  0  0  0  0  0  0
   -4.4160   -0.6590   -1.8320 C   0  0  0  0  0  0  0  0  0  0  0  0
   -5.1780    0.6890   -0.9170 S   0  0  0  0  0  0  0  0  0  0  0  0
   -4.0720    1.2020    0.3680 C   0  0  0  0  0  0  0  0  0  0  0  0
   -2.9160    0.6150    0.5240 C   0  0  0  0  0  0  0  0  0  0  0  0
   -2.1310    1.1260    1.5900 O   0  0  0  0  0  0  0  0  0  0  0  0
  1  2  1  0
  2  3  1  0
  3  4  2  0
  3  5  1  0
  5  6  1  0
  6  7  1  0
  7  8  2  0
  7  9  1  0
  9 10  1  0
 10 11  2  0
 10 15  1  0
 11 12  1  0
 12 13  1  0
 13 14  1  0
 14 15  2  0
 15 16  1  0
M  END
