
     RDKit          3D

 16 16  0  0  0  0  0  0  0  0999 V2000
    5.3080   -0.0610    0.8910 C   0  0  0  0  0  0  0  0  0  0  0  0
    4.1710   -0.9560    0.4480 C   0  0  0  0  0  0  0  0  0  0  0  0
    2.9680   -0.1930    0.2880 O   0  0  0  0  0  0  0  0  0  0  0  0
    1.8150   -0.8250   -0.1180 C   0  0  0  0  0  0  0  0  0  0  0  0
    1.8840   -2.0800   -0.3340 O   0  0  0  0  0  0  0  0  0  0  0  0
    0.5460   -0.1370   -0.3090 C   0  0  0  0  0  0  0  0  0  0  0  0
    0.2980    1.2230   -0.1120 C   0  0  0  0  0  0  0  0  0  0  0  0
   -1.0320    1.4200   -0.4100 C   0  0  0  0  0  0  0  0  0  0  0  0
   -1.7040    2.7080   -0.3330 C   0  0  0  0  0  0  0  0  0  0  0  0
   -2.9090    2.7810   -0.6360 O   0  0  0  0  0  0  0  0  0  0  0  0
   -1.0510    3.8630    0.0660 O   0  0  0  0  0  0  0  0  0  0  0  0
   -1.5810    0.2130   -0.7780 C   0  0  0  0  0  0  0  0  0  0  0  0
   -3.2610   -0.1320   -1.2630 S   0  0  0  0  0  0  0  0  0  0  0  0
   -4.2770   -0.5570    0.1750 C   0  0  0  0  0  0  0  0  0  0  0  0
   -3.8520   -1.8510    0.8040 C   0  0  0  0  0  0  0  0  0  0  0  0
   -0.6030   -0.7060   -0.7070 N   0  0  0  0  0  0  0  0  0  0  0  0
  1  2  1  0
  2  3  1  0
  3  4  1  0
  4  5  2  0
  4  6  1  0
  6  7  2  0
  6 16  1  0
  7  8  1  0
  8  9  1  0
  8 12  2  0
  9 10  2  0
  9 11  1  0
 12 13  1  0
 12 16  1  0
 13 14  1  0
 14 15  1  0
M  END
