
     RDKit          3D

 16 16  0  0  0  0  0  0  0  0999 V2000
    5.6890    0.8950   -0.2040 C   0  0  0  0  0  0  0  0  0  0  0  0
    4.9210   -0.3900   -0.5010 C   0  0  0  0  0  0  0  0  0  0  0  0
    3.5560   -0.0570   -0.3540 O   0  0  0  0  0  0  0  0  0  0  0  0
    2.5300   -0.9630   -0.5400 C   0  0  0  0  0  0  0  0  0  0  0  0
    2.8680   -2.1360   -0.8560 O   0  0  0  0  0  0  0  0  0  0  0  0
    1.1180   -0.5860   -0.3800 C   0  0  0  0  0  0  0  0  0  0  0  0
    0.7340    0.6970   -0.0380 C   0  0  0  0  0  0  0  0  0  0  0  0
   -0.6510    0.6680    0.0190 C   0  0  0  0  0  0  0  0  0  0  0  0
   -1.0480   -0.6050   -0.2850 C   0  0  0  0  0  0  0  0  0  0  0  0
   -2.4040   -1.0910   -0.3440 C   0  0  0  0  0  0  0  0  0  0  0  0
   -2.5400   -2.4970   -0.6960 N   0  0  0  0  0  0  0  0  0  0  0  0
   -3.4950   -0.4290   -0.1250 C   0  0  0  0  0  0  0  0  0  0  0  0
   -3.6030    1.2820    0.3160 S   0  0  0  0  0  0  0  0  0  0  0  0
   -4.7060    1.5740    1.7220 C   0  0  0  0  0  0  0  0  0  0  0  0
   -6.0380    1.2790    1.4150 O   0  0  0  0  0  0  0  0  0  0  0  0
    0.0610   -1.3060   -0.5130 O   0  0  0  0  0  0  0  0  0  0  0  0
  1  2  1  0
  2  3  1  0
  3  4  1  0
  4  5  2  0
  4  6  1  0
  6  7  2  0
  6 16  1  0
  7  8  1  0
  8  9  2  0
  9 10  1  0
  9 16  1  0
 10 11  1  0
 10 12  2  3
 12 13  1  0
 13 14  1  0
 14 15  1  0
M  END
