
     RDKit          3D

 16 15  0  0  0  0  0  0  0  0999 V2000
    5.4870   -0.0480    0.3970 C   0  0  0  0  0  0  0  0  0  0  0  0
    4.2990    0.3840    1.2270 C   0  0  0  0  0  0  0  0  0  0  0  0
    3.0920    0.3510    0.4860 O   0  0  0  0  0  0  0  0  0  0  0  0
    2.9210    1.1000   -0.6450 C   0  0  0  0  0  0  0  0  0  0  0  0
    3.9100    1.8290   -0.9960 O   0  0  0  0  0  0  0  0  0  0  0  0
    1.7370    1.1670   -1.5040 C   0  0  0  0  0  0  0  0  0  0  0  0
    0.6650    0.3680   -1.1100 O   0  0  0  0  0  0  0  0  0  0  0  0
    0.7500   -1.0080   -0.9990 C   0  0  0  0  0  0  0  0  0  0  0  0
    1.8470   -1.5560   -1.2650 O   0  0  0  0  0  0  0  0  0  0  0  0
   -0.4270   -1.7490   -0.5800 C   0  0  0  0  0  0  0  0  0  0  0  0
   -1.5600   -1.1340   -0.3110 C   0  0  0  0  0  0  0  0  0  0  0  0
   -1.6210    0.2770   -0.4350 N   0  0  0  0  0  0  0  0  0  0  0  0
   -3.0290   -2.0180    0.2010 S   0  0  0  0  0  0  0  0  0  0  0  0
   -4.4030   -0.8310    0.4680 C   0  0  1  0  0  0  0  0  0  0  0  0
   -4.0730    0.0470    1.6400 C   0  0  0  0  0  0  0  0  0  0  0  0
   -4.5400    0.0100   -0.7580 C   0  0  0  0  0  0  0  0  0  0  0  0
  1  2  1  0
  2  3  1  0
  3  4  1  0
  4  5  2  0
  4  6  1  0
  6  7  1  0
  7  8  1  0
  8  9  2  0
  8 10  1  0
 10 11  2  3
 11 12  1  0
 11 13  1  0
 13 14  1  0
 14 15  1  1
 14 16  1  0
M  END
