
     RDKit          3D

 16 16  0  0  0  0  0  0  0  0999 V2000
    2.9410   -2.4570    0.9960 C   0  0  0  0  0  0  0  0  0  0  0  0
    2.2550   -1.2310    0.7630 O   0  0  0  0  0  0  0  0  0  0  0  0
    2.9640   -0.0620    0.5640 C   0  0  0  0  0  0  0  0  0  0  0  0
    4.2190   -0.0780    0.5880 O   0  0  0  0  0  0  0  0  0  0  0  0
    2.2240    1.1860    0.3260 C   0  0  0  0  0  0  0  0  0  0  0  0
    0.9150    1.1930    0.3030 C   0  0  0  0  0  0  0  0  0  0  0  0
   -0.0380   -0.2850    0.5540 S   0  0  0  0  0  0  0  0  0  0  0  0
   -1.5840   -0.2630   -0.3910 C   0  0  2  0  0  0  0  0  0  0  0  0
   -2.5140    0.8310    0.1330 C   0  0  0  0  0  0  0  0  0  0  0  0
   -3.8020    0.8150   -0.6170 C   0  0  0  0  0  0  0  0  0  0  0  0
   -4.0100   -0.3230   -1.3670 O   0  0  0  0  0  0  0  0  0  0  0  0
   -3.7150   -1.4910   -0.6880 C   0  0  0  0  0  0  0  0  0  0  0  0
   -2.3060   -1.5760   -0.2010 C   0  0  0  0  0  0  0  0  0  0  0  0
    2.9830    2.4060    0.1190 C   0  0  0  0  0  0  0  0  0  0  0  0
    4.4030    2.4140    0.1420 N   0  0  0  0  0  0  0  0  0  0  0  0
    2.3190    3.4710   -0.0850 O   0  0  0  0  0  0  0  0  0  0  0  0
  1  2  1  0
  2  3  1  0
  3  4  2  0
  3  5  1  0
  5  6  2  3
  5 14  1  0
  6  7  1  0
  8  7  1  1
  8  9  1  0
  8 13  1  0
  9 10  1  0
 10 11  1  0
 11 12  1  0
 12 13  1  0
 14 15  1  0
 14 16  2  0
M  END
