
     RDKit          3D

 16 16  0  0  0  0  0  0  0  0999 V2000
   -4.1330    1.0050    0.9160 C   0  0  0  0  0  0  0  0  0  0  0  0
   -4.1830   -0.3520    1.1730 O   0  0  0  0  0  0  0  0  0  0  0  0
   -4.3730   -1.1680    0.1040 C   0  0  0  0  0  0  0  0  0  0  0  0
   -3.2750   -1.2590   -0.8770 C   0  0  0  0  0  0  0  0  0  0  0  0
   -3.5410   -1.8760   -1.9680 O   0  0  0  0  0  0  0  0  0  0  0  0
   -1.9700   -0.7340   -0.7160 N   0  0  0  0  0  0  0  0  0  0  0  0
   -0.9330   -0.8260   -1.6890 C   0  0  0  0  0  0  0  0  0  0  0  0
   -1.1730   -1.4400   -2.7500 O   0  0  0  0  0  0  0  0  0  0  0  0
    0.4110   -0.1910   -1.4250 C   0  0  0  0  0  0  0  0  0  0  0  0
    1.2810   -1.0420   -0.0810 S   0  0  0  0  0  0  0  0  0  0  0  0
    2.7970   -0.1620    0.2300 C   0  0  0  0  0  0  0  0  0  0  0  0
    3.1570    0.9320   -0.4150 C   0  0  0  0  0  0  0  0  0  0  0  0
    4.4150    1.6800   -0.1630 C   0  0  0  0  0  0  0  0  0  0  0  0
    5.2500    1.0470    0.7780 O   0  0  0  0  0  0  0  0  0  0  0  0
    4.8790   -0.0890    1.4600 C   0  0  0  0  0  0  0  0  0  0  0  0
    3.7360   -0.6970    1.2400 C   0  0  0  0  0  0  0  0  0  0  0  0
  1  2  1  0
  2  3  1  0
  3  4  1  0
  4  5  2  0
  4  6  1  0
  6  7  1  0
  7  8  2  0
  7  9  1  0
  9 10  1  0
 10 11  1  0
 11 12  2  0
 11 16  1  0
 12 13  1  0
 13 14  1  0
 14 15  1  0
 15 16  2  0
M  END
