
     RDKit          3D

 37 41  0  0  0  0  0  0  0  0999 V2000
    7.7070    2.0800    1.5750 C   0  0  0  0  0  0  0  0  0  0  0  0
    6.6350    1.3100    0.8510 C   0  0  0  0  0  0  0  0  0  0  0  0
    6.3290    1.5730   -0.4260 N   0  0  0  0  0  0  0  0  0  0  0  0
    5.3750    0.8830   -1.0640 C   0  0  0  0  0  0  0  0  0  0  0  0
    5.0430    1.1320   -2.3690 C   0  0  0  0  0  0  0  0  0  0  0  0
    4.0730    0.4420   -3.0420 C   0  0  0  0  0  0  0  0  0  0  0  0
    3.3980   -0.5580   -2.3600 C   0  0  0  0  0  0  0  0  0  0  0  0
    2.4110   -1.2850   -2.9970 C   0  0  0  0  0  0  0  0  0  0  0  0
    1.7270   -2.2840   -2.3450 C   0  0  0  0  0  0  0  0  0  0  0  0
    1.9960   -2.5990   -1.0380 C   0  0  0  0  0  0  0  0  0  0  0  0
    1.3220   -3.6590   -0.2630 C   0  0  0  0  0  0  0  0  0  0  0  0
    0.8860   -3.1240    1.0030 N   0  0  0  0  0  0  0  0  0  0  0  0
   -0.1430   -2.1460    1.0820 C   0  0  0  0  0  0  0  0  0  0  0  0
   -0.4450   -1.5230    2.2950 C   0  0  0  0  0  0  0  0  0  0  0  0
   -1.4460   -0.5850    2.4160 C   0  0  0  0  0  0  0  0  0  0  0  0
   -2.1950   -0.2360    1.2840 C   0  0  0  0  0  0  0  0  0  0  0  0
   -1.9340   -0.8180    0.0770 C   0  0  0  0  0  0  0  0  0  0  0  0
   -0.9040   -1.7690    0.0060 C   0  0  0  0  0  0  0  0  0  0  0  0
   -2.8390   -0.2550   -0.9430 C   0  0  0  0  0  0  0  0  0  0  0  0
   -3.7210    0.6270   -0.2400 N   0  0  0  0  0  0  0  0  0  0  0  0
   -4.8440    1.2900   -0.9060 C   0  0  1  0  0  0  0  0  0  0  0  0
   -6.1670    0.7180   -0.5490 C   0  0  0  0  0  0  0  0  0  0  0  0
   -6.6340    0.7000    0.8370 C   0  0  0  0  0  0  0  0  0  0  0  0
   -6.8400    1.9560    1.5490 C   0  0  0  0  0  0  0  0  0  0  0  0
   -6.6420    3.0610    1.0300 O   0  0  0  0  0  0  0  0  0  0  0  0
   -7.2750    1.9170    2.8640 O   0  0  0  0  0  0  0  0  0  0  0  0
   -4.7300    2.7470   -0.9420 C   0  0  0  0  0  0  0  0  0  0  0  0
   -5.4780    3.4170   -1.6880 O   0  0  0  0  0  0  0  0  0  0  0  0
   -3.7970    3.3830   -0.1540 O   0  0  0  0  0  0  0  0  0  0  0  0
   -3.3260    0.6940    1.1190 C   0  0  0  0  0  0  0  0  0  0  0  0
   -3.7990    1.3820    2.0390 O   0  0  0  0  0  0  0  0  0  0  0  0
    2.9960   -1.8630   -0.3870 C   0  0  0  0  0  0  0  0  0  0  0  0
    3.6910   -0.8610   -1.0220 C   0  0  0  0  0  0  0  0  0  0  0  0
    4.6920   -0.1290   -0.3720 C   0  0  0  0  0  0  0  0  0  0  0  0
    5.0030   -0.3960    0.9260 C   0  0  0  0  0  0  0  0  0  0  0  0
    4.4480   -1.2690    1.6020 O   0  0  0  0  0  0  0  0  0  0  0  0
    5.9910    0.3510    1.5120 N   0  0  0  0  0  0  0  0  0  0  0  0
  1  2  1  0
  2  3  2  0
  2 37  1  0
  3  4  1  0
  4  5  2  0
  4 34  1  0
  5  6  1  0
  6  7  2  0
  7  8  1  0
  7 33  1  0
  8  9  2  0
  9 10  1  0
 10 11  1  0
 10 32  2  0
 11 12  1  0
 12 13  1  0
 13 14  2  0
 13 18  1  0
 14 15  1  0
 15 16  2  0
 16 17  1  0
 16 30  1  0
 17 18  2  0
 17 19  1  0
 19 20  1  0
 20 21  1  0
 20 30  1  0
 21 22  1  1
 21 27  1  0
 22 23  1  0
 23 24  1  0
 24 25  2  0
 24 26  1  0
 27 28  2  0
 27 29  1  0
 30 31  2  0
 32 33  1  0
 33 34  2  0
 34 35  1  0
 35 36  2  0
 35 37  1  0
M  END
