
     RDKit          3D

 36 39  0  0  0  0  0  0  0  0999 V2000
  -10.1140   -2.9290   -0.0460 C   0  0  0  0  0  0  0  0  0  0  0  0
   -9.5880   -2.6670   -1.3510 N   0  0  0  0  0  0  0  0  0  0  0  0
   -8.6450   -1.5580   -1.3530 C   0  0  0  0  0  0  0  0  0  0  0  0
   -7.3340   -2.1020   -0.8590 C   0  0  0  0  0  0  0  0  0  0  0  0
   -6.2850   -1.1100   -0.8170 N   0  0  0  0  0  0  0  0  0  0  0  0
   -4.9850   -1.5240   -0.3580 C   0  0  0  0  0  0  0  0  0  0  0  0
   -4.8790   -2.7300   -0.0270 O   0  0  0  0  0  0  0  0  0  0  0  0
   -3.9070   -0.6270   -0.2890 N   0  0  0  0  0  0  0  0  0  0  0  0
   -2.6220   -0.9750    0.1600 C   0  0  0  0  0  0  0  0  0  0  0  0
   -2.2830   -2.0760    0.9000 C   0  0  0  0  0  0  0  0  0  0  0  0
   -0.9510   -2.3260    1.2590 C   0  0  0  0  0  0  0  0  0  0  0  0
    0.0430   -1.4600    0.8700 C   0  0  0  0  0  0  0  0  0  0  0  0
    1.3250   -1.7890    1.2730 O   0  0  0  0  0  0  0  0  0  0  0  0
    2.0830   -1.1080    2.2010 C   0  0  0  0  0  0  0  0  0  0  0  0
    1.5700   -0.0790    2.7260 O   0  0  0  0  0  0  0  0  0  0  0  0
    3.4430   -1.5270    2.5970 C   0  0  0  0  0  0  0  0  0  0  0  0
    4.5230   -0.6370    2.1610 C   0  0  0  0  0  0  0  0  0  0  0  0
    4.9380    0.4860    2.8010 C   0  0  0  0  0  0  0  0  0  0  0  0
    5.9880    1.2220    2.2790 C   0  0  0  0  0  0  0  0  0  0  0  0
    6.6390    0.8400    1.1030 C   0  0  0  0  0  0  0  0  0  0  0  0
    6.2320   -0.2950    0.4400 C   0  0  0  0  0  0  0  0  0  0  0  0
    5.1760   -1.0100    0.9920 C   0  0  0  0  0  0  0  0  0  0  0  0
    6.9590   -0.5030   -0.6520 C   0  0  0  0  0  0  0  0  0  0  0  0
    7.9440    0.5930   -0.7300 C   0  0  0  0  0  0  0  0  0  0  0  0
    7.6420    1.4120    0.4620 C   0  0  0  0  0  0  0  0  0  0  0  0
   -0.2560   -0.3180    0.1120 C   0  0  0  0  0  0  0  0  0  0  0  0
    0.8380    0.4890   -0.2460 N   0  0  0  0  0  0  0  0  0  0  0  0
    0.7550    1.7080   -0.9170 C   0  0  0  0  0  0  0  0  0  0  0  0
   -0.3330    2.1930   -1.2550 O   0  0  0  0  0  0  0  0  0  0  0  0
    1.9580    2.4640   -1.2500 N   0  0  0  0  0  0  0  0  0  0  0  0
    3.2760    2.0090   -0.9280 C   0  0  0  0  0  0  0  0  0  0  0  0
    4.2490    3.1780   -0.7890 C   0  0  0  0  0  0  0  0  0  0  0  0
    3.3330    4.4970    0.1010 S   0  0  0  0  0  0  0  0  0  0  0  0
    1.9150    4.9000   -0.9980 C   0  0  0  0  0  0  0  0  0  0  0  0
    1.7550    3.7190   -1.9360 C   0  0  0  0  0  0  0  0  0  0  0  0
   -1.5680   -0.1200   -0.2120 C   0  0  0  0  0  0  0  0  0  0  0  0
  1  2  1  0
  2  3  1  0
  3  4  1  0
  4  5  1  0
  5  6  1  0
  6  7  2  0
  6  8  1  0
  8  9  1  0
  9 10  2  0
  9 36  1  0
 10 11  1  0
 11 12  2  0
 12 13  1  0
 12 26  1  0
 13 14  1  0
 14 15  2  0
 14 16  1  0
 16 17  1  0
 17 18  1  0
 17 22  2  0
 18 19  2  0
 19 20  1  0
 20 21  1  0
 20 25  2  0
 21 22  1  0
 21 23  2  0
 23 24  1  0
 24 25  1  0
 26 27  1  0
 26 36  2  0
 27 28  1  0
 28 29  2  0
 28 30  1  0
 30 31  1  0
 30 35  1  0
 31 32  1  0
 32 33  1  0
 33 34  1  0
 34 35  1  0
M  CHG  1   2   1
M  END
