
     RDKit          3D

 36 39  0  0  0  0  0  0  0  0999 V2000
   -0.1270    3.4560   -4.5210 C   0  0  0  0  0  0  0  0  0  0  0  0
   -0.7890    3.5110   -3.1830 C   0  0  0  0  0  0  0  0  0  0  0  0
   -0.5740    2.2710   -2.4210 N   0  0  0  0  0  0  0  0  0  0  0  0
   -1.0980    2.1290   -1.1040 C   0  0  0  0  0  0  0  0  0  0  0  0
   -1.7280    3.1240   -0.6700 O   0  0  0  0  0  0  0  0  0  0  0  0
   -0.9550    0.9530   -0.2710 C   0  0  0  0  0  0  0  0  0  0  0  0
   -0.3210   -0.1110   -0.7090 C   0  0  0  0  0  0  0  0  0  0  0  0
   -0.1510   -1.3600    0.1250 C   0  0  0  0  0  0  0  0  0  0  0  0
    1.0570   -1.5960    0.7000 C   0  0  0  0  0  0  0  0  0  0  0  0
    2.2380   -0.6680    0.5840 C   0  0  0  0  0  0  0  0  0  0  0  0
    2.3980    0.0500   -0.4160 O   0  0  0  0  0  0  0  0  0  0  0  0
    3.1760   -0.6130    1.6200 N   0  0  0  0  0  0  0  0  0  0  0  0
    4.3370    0.1560    1.7370 C   0  0  0  0  0  0  0  0  0  0  0  0
    4.7020    1.0730    0.7960 C   0  0  0  0  0  0  0  0  0  0  0  0
    5.8510    1.8350    0.9260 C   0  0  0  0  0  0  0  0  0  0  0  0
    6.6550    1.6690    2.0330 C   0  0  0  0  0  0  0  0  0  0  0  0
    6.2780    0.7330    2.9870 C   0  0  0  0  0  0  0  0  0  0  0  0
    5.1460   -0.0150    2.8580 C   0  0  0  0  0  0  0  0  0  0  0  0
    5.0190   -0.8330    3.9240 C   0  0  0  0  0  0  0  0  0  0  0  0
    6.1630   -0.6070    4.8220 C   0  0  0  0  0  0  0  0  0  0  0  0
    6.9100    0.4480    4.1090 C   0  0  0  0  0  0  0  0  0  0  0  0
    1.1880   -2.7560    1.4290 C   0  0  0  0  0  0  0  0  0  0  0  0
   -0.3800   -3.5530    1.3300 S   0  0  0  0  0  0  0  0  0  0  0  0
   -1.1520   -2.2260    0.2700 C   0  0  0  0  0  0  0  0  0  0  0  0
   -2.5240   -2.3760   -0.1450 C   0  0  0  0  0  0  0  0  0  0  0  0
   -3.1700   -3.3880    0.2920 O   0  0  0  0  0  0  0  0  0  0  0  0
   -3.2160   -1.5180   -0.9880 N   0  0  0  0  0  0  0  0  0  0  0  0
   -4.6040   -1.6780   -1.3870 C   0  0  0  0  0  0  0  0  0  0  0  0
   -5.4650   -2.6180   -1.0910 C   0  0  0  0  0  0  0  0  0  0  0  0
   -6.7030   -2.3380   -1.7190 N   0  0  2  0  0  0  0  0  0  0  0  0
   -7.1930   -3.4290   -2.5470 C   0  0  0  0  0  0  0  0  0  0  0  0
   -6.5260   -1.1790   -2.4050 N   0  0  0  0  0  0  0  0  0  0  0  0
   -5.3370   -0.7490   -2.2530 C   0  0  0  0  0  0  0  0  0  0  0  0
   -1.4990    0.9530    1.0650 C   0  0  0  0  0  0  0  0  0  0  0  0
   -2.2030    2.1330    1.5970 C   0  0  0  0  0  0  0  0  0  0  0  0
   -1.3870   -0.0440    1.8070 O   0  0  0  0  0  0  0  0  0  0  0  0
  1  2  1  0
  2  3  1  0
  3  4  1  0
  4  5  2  0
  4  6  1  0
  6  7  2  3
  6 34  1  0
  7  8  1  0
  8  9  1  0
  8 24  2  0
  9 10  1  0
  9 22  2  0
 10 11  2  0
 10 12  1  0
 12 13  1  0
 13 14  2  0
 13 18  1  0
 14 15  1  0
 15 16  2  0
 16 17  1  0
 17 18  1  0
 17 21  2  0
 18 19  2  0
 19 20  1  0
 20 21  1  0
 22 23  1  0
 23 24  1  0
 24 25  1  0
 25 26  2  0
 25 27  1  0
 27 28  1  0
 28 29  2  0
 28 33  1  0
 29 30  1  0
 30 31  1  6
 30 32  1  0
 32 33  2  0
 34 35  1  0
 34 36  2  0
M  CHG  1  30   1
M  END
