
     RDKit          3D

 36 38  0  0  0  0  0  0  0  0999 V2000
   -4.9230   -4.2850   -0.2320 C   0  0  0  0  0  0  0  0  0  0  0  0
   -5.4240   -3.0680   -0.2680 C   0  0  0  0  0  0  0  0  0  0  0  0
   -6.9120   -2.9570   -0.2930 C   0  0  0  0  0  0  0  0  0  0  0  0
   -7.4500   -1.6840    0.2620 C   0  0  0  0  0  0  0  0  0  0  0  0
   -6.4740   -0.6260    0.4120 C   0  0  0  0  0  0  0  0  0  0  0  0
   -5.1840   -0.7140    0.2370 C   0  0  0  0  0  0  0  0  0  0  0  0
   -4.5230   -1.9820   -0.1630 C   0  0  0  0  0  0  0  0  0  0  0  0
   -3.3530   -1.9250   -0.7410 C   0  0  0  0  0  0  0  0  0  0  0  0
   -2.7640   -2.9650   -1.6220 C   0  0  0  0  0  0  0  0  0  0  0  0
   -4.5290    0.5610    0.3970 C   0  0  0  0  0  0  0  0  0  0  0  0
   -3.2720    1.1440    0.2320 N   0  0  0  0  0  0  0  0  0  0  0  0
   -2.1900    0.7720    0.9940 C   0  0  0  0  0  0  0  0  0  0  0  0
   -2.4900   -0.2630    1.8030 O   0  0  0  0  0  0  0  0  0  0  0  0
   -0.9310    1.3110    1.0440 C   0  0  2  0  0  0  0  0  0  0  0  0
   -0.9220    2.8640    1.2300 C   0  0  0  0  0  0  0  0  0  0  0  0
   -1.5920    3.5710    0.1100 C   0  0  0  0  0  0  0  0  0  0  0  0
   -1.1920    5.3780    0.2440 S   0  0  0  0  0  0  0  0  0  0  0  0
    0.6080    5.5300   -0.1000 C   0  0  0  0  0  0  0  0  0  0  0  0
    0.1740    1.1040    0.2090 N   0  0  0  0  0  0  0  0  0  0  0  0
    1.3630    0.6330    0.7890 C   0  0  0  0  0  0  0  0  0  0  0  0
    1.3390    0.2190    1.9740 O   0  0  0  0  0  0  0  0  0  0  0  0
    2.6010    0.6770    0.0230 C   0  0  0  0  0  0  0  0  0  0  0  0
    2.9230    1.0260   -1.2290 C   0  0  0  0  0  0  0  0  0  0  0  0
    4.3170    0.8990   -1.3790 C   0  0  0  0  0  0  0  0  0  0  0  0
    4.7300    0.4680   -0.1580 C   0  0  0  0  0  0  0  0  0  0  0  0
    6.1110    0.1920    0.2590 C   0  0  0  0  0  0  0  0  0  0  0  0
    6.2750   -0.4200    1.3970 O   0  0  0  0  0  0  0  0  0  0  0  0
    7.2540    0.5410   -0.4530 N   0  0  0  0  0  0  0  0  0  0  0  0
    8.5610    0.1970    0.1150 C   0  0  0  0  0  0  0  0  0  0  0  0
    8.6680   -1.2640    0.2420 C   0  0  0  0  0  0  0  0  0  0  0  0
    9.6240   -1.9450   -0.4030 C   0  0  0  0  0  0  0  0  0  0  0  0
    9.6680   -3.4380   -0.2250 C   0  0  0  0  0  0  0  0  0  0  0  0
    3.7050    0.3340    0.6620 O   0  0  0  0  0  0  0  0  0  0  0  0
   -5.4380    1.4600    0.6380 N   0  0  0  0  0  0  0  0  0  0  0  0
   -6.6810    0.8150    0.6760 C   0  0  0  0  0  0  0  0  0  0  0  0
   -7.7500    1.3910    1.0090 N   0  0  0  0  0  0  0  0  0  0  0  0
  1  2  2  0
  2  3  1  0
  2  7  1  0
  3  4  1  0
  4  5  1  0
  5  6  2  0
  5 35  1  0
  6  7  1  0
  6 10  1  0
  7  8  2  3
  8  9  1  0
 10 11  1  0
 10 34  2  0
 11 12  1  0
 12 13  2  0
 12 14  1  0
 14 15  1  6
 14 19  1  0
 15 16  1  0
 16 17  1  0
 17 18  1  0
 19 20  1  0
 20 21  2  0
 20 22  1  0
 22 23  2  0
 22 33  1  0
 23 24  1  0
 24 25  2  0
 25 26  1  0
 25 33  1  0
 26 27  2  0
 26 28  1  0
 28 29  1  0
 29 30  1  0
 30 31  2  3
 31 32  1  0
 34 35  1  0
 35 36  2  0
M  CHG  1  36   1
M  END
