
     RDKit          3D

 33 34  0  0  0  0  0  0  0  0999 V2000
   -5.6930    2.1070   -0.9810 O   0  0  0  0  0  0  0  0  0  0  0  0
   -5.4350    1.2070    0.2520 P   0  0  0  0  0  0  0  0  0  0  0  0
   -4.4440   -0.2130    0.1210 O   0  0  0  0  0  0  0  0  0  0  0  0
   -3.2630    0.0490   -0.3630 O   0  0  0  0  0  0  0  0  0  0  0  0
   -2.6020    0.9210    0.4480 C   0  0  1  0  0  0  0  0  0  0  0  0
   -1.4030    0.4740    0.9460 O   0  0  0  0  0  0  0  0  0  0  0  0
   -1.0680   -0.8150    0.6140 C   0  0  1  0  0  0  0  0  0  0  0  0
   -1.5460   -1.6890    1.7710 C   0  0  0  0  0  0  0  0  0  0  0  0
   -1.7000   -3.0050    1.4080 O   0  0  0  0  0  0  0  0  0  0  0  0
   -2.3420   -3.1410    0.2540 O   0  0  0  0  0  0  0  0  0  0  0  0
   -1.4690   -2.6170   -0.7120 C   0  0  1  0  0  0  0  0  0  0  0  0
   -0.2020   -3.1270   -0.4300 O   0  0  0  0  0  0  0  0  0  0  0  0
   -1.8040   -3.0500   -1.9880 O   0  0  0  0  0  0  0  0  0  0  0  0
   -3.0190   -2.6890   -2.3350 O   0  0  0  0  0  0  0  0  0  0  0  0
   -1.5320   -1.2400   -0.5980 O   0  0  0  0  0  0  0  0  0  0  0  0
    0.4650   -0.8550    0.5540 C   0  0  0  0  0  0  0  0  0  0  0  0
    1.0230    0.2630    1.1650 O   0  0  0  0  0  0  0  0  0  0  0  0
    2.0800    1.1450    0.1600 P   0  0  0  0  0  0  0  0  0  0  0  0
    3.4260    0.2180   -0.3960 O   0  0  0  0  0  0  0  0  0  0  0  0
    4.8130    0.6630    0.5460 P   0  0  0  0  0  0  0  0  0  0  0  0
    5.4400   -0.7660    1.3220 O   0  0  0  0  0  0  0  0  0  0  0  0
    5.3570   -1.7490    0.4440 O   0  0  0  0  0  0  0  0  0  0  0  0
    6.4160   -1.7260   -0.3400 O   0  0  0  0  0  0  0  0  0  0  0  0
    6.3610    1.6020   -0.6770 P   0  0  0  0  0  0  0  0  0  0  0  0
    7.7990    1.0260   -0.7370 O   0  0  0  0  0  0  0  0  0  0  0  0
    1.2980    2.0060   -1.0980 O   0  0  0  0  0  0  0  0  0  0  0  0
    0.9180    3.6240   -0.6910 P   0  0  0  0  0  0  0  0  0  0  0  0
    2.0180    4.3420    0.4120 O   0  0  0  0  0  0  0  0  0  0  0  0
   -0.7300    3.8470   -0.2650 O   0  0  0  0  0  0  0  0  0  0  0  0
   -1.2430    2.8500    0.3840 O   0  0  0  0  0  0  0  0  0  0  0  0
   -2.3200    2.2550   -0.2530 C   0  0  1  0  0  0  0  0  0  0  0  0
   -2.0720    2.0450   -2.0610 P   0  0  0  0  0  0  0  0  0  0  0  0
   -1.1600    0.9990   -2.7110 O   0  0  0  0  0  0  0  0  0  0  0  0
  1  2  2  0
  2  3  1  0
  3  4  1  0
  5  4  1  6
  5  6  1  0
  5 31  1  0
  6  7  1  0
  7  8  1  1
  7 15  1  0
  7 16  1  0
  8  9  1  0
  9 10  1  0
 10 11  1  0
 11 12  1  1
 11 13  1  0
 11 15  1  0
 13 14  1  0
 16 17  1  0
 17 18  1  0
 18 19  1  0
 18 26  1  0
 19 20  1  0
 20 21  1  0
 20 24  1  0
 21 22  1  0
 22 23  1  0
 24 25  2  0
 26 27  1  0
 27 28  1  0
 27 29  1  0
 29 30  1  0
 30 31  1  0
 31 32  1  6
 32 33  2  0
M  END
