
     RDKit          3D

 36 38  0  0  0  0  0  0  0  0999 V2000
   -3.5780    1.4690    1.1730 O   0  0  0  0  0  0  0  0  0  0  0  0
   -4.2040    0.0960    0.8360 P   0  0  0  0  0  0  0  0  0  0  0  0
   -3.6700   -0.9110   -0.4460 O   0  0  0  0  0  0  0  0  0  0  0  0
   -2.6560   -1.7670    0.0060 C   0  0  2  0  0  0  0  0  0  0  0  0
   -2.2340   -2.5800   -1.0540 O   0  0  0  0  0  0  0  0  0  0  0  0
   -3.6050   -3.4970   -1.5960 P   0  0  0  0  0  0  0  0  0  0  0  0
   -4.0810   -4.7740   -0.8630 O   0  0  0  0  0  0  0  0  0  0  0  0
   -3.0710   -2.5790    1.0470 O   0  0  0  0  0  0  0  0  0  0  0  0
   -3.4810   -1.8920    2.0720 O   0  0  0  0  0  0  0  0  0  0  0  0
   -2.6260   -2.1180    3.0700 O   0  0  0  0  0  0  0  0  0  0  0  0
   -1.3800   -1.5960    2.6580 C   0  0  0  0  0  0  0  0  0  0  0  0
   -1.6320   -0.5530    1.7940 O   0  0  0  0  0  0  0  0  0  0  0  0
   -1.5120   -0.9080    0.4490 C   0  0  2  0  0  0  0  0  0  0  0  0
   -1.4680    0.2880   -0.2710 O   0  0  0  0  0  0  0  0  0  0  0  0
   -1.3520    0.0240   -1.5530 O   0  0  0  0  0  0  0  0  0  0  0  0
   -2.2710    0.6690   -2.2520 O   0  0  0  0  0  0  0  0  0  0  0  0
   -2.6110    1.9990   -2.0810 C   0  0  0  0  0  0  0  0  0  0  0  0
   -3.8380    2.3580   -2.1190 O   0  0  0  0  0  0  0  0  0  0  0  0
   -1.6470    2.9660   -1.8690 O   0  0  0  0  0  0  0  0  0  0  0  0
   -0.0990    2.9940   -2.6990 P   0  0  0  0  0  0  0  0  0  0  0  0
    0.2410    4.6630   -3.1250 O   0  0  0  0  0  0  0  0  0  0  0  0
    1.1780    2.3620   -1.7080 O   0  0  0  0  0  0  0  0  0  0  0  0
    0.6910    2.5050   -0.0540 P   0  0  0  0  0  0  0  0  0  0  0  0
    1.5520    3.7880    0.7460 O   0  0  0  0  0  0  0  0  0  0  0  0
    1.6320    3.4700    2.0240 O   0  0  0  0  0  0  0  0  0  0  0  0
    0.6470    4.0010    2.7170 O   0  0  0  0  0  0  0  0  0  0  0  0
    0.8710    1.0340    0.8180 O   0  0  0  0  0  0  0  0  0  0  0  0
    0.8960   -0.3640   -0.0890 P   0  0  0  0  0  0  0  0  0  0  0  0
    2.3570   -0.8670   -0.7590 O   0  0  0  0  0  0  0  0  0  0  0  0
    3.2470   -1.2040    0.2290 C   0  0  2  0  0  0  0  0  0  0  0  0
    4.5930   -0.4770    0.0610 C   0  0  0  0  0  0  0  0  0  0  0  0
    5.4540   -1.2970    0.7900 O   0  0  0  0  0  0  0  0  0  0  0  0
    5.6420   -2.3960    0.0530 O   0  0  0  0  0  0  0  0  0  0  0  0
    3.9610   -2.9300   -0.0580 P   0  0  0  0  0  0  0  0  0  0  0  0
    3.6980   -3.2660   -1.7570 O   0  0  0  0  0  0  0  0  0  0  0  0
   -0.2700   -1.5390    0.2060 O   0  0  0  0  0  0  0  0  0  0  0  0
  1  2  2  0
  2  3  1  0
  4  3  1  6
  4  5  1  0
  4  8  1  0
  4 13  1  0
  5  6  1  0
  6  7  2  0
  8  9  1  0
  9 10  1  0
 10 11  1  0
 11 12  1  0
 13 12  1  1
 13 14  1  0
 13 36  1  0
 14 15  1  0
 15 16  1  0
 16 17  1  0
 17 18  2  0
 17 19  1  0
 19 20  1  0
 20 21  1  0
 20 22  1  0
 22 23  1  0
 23 24  1  0
 23 27  1  0
 24 25  1  0
 25 26  1  0
 27 28  1  0
 28 29  1  0
 28 36  1  0
 30 29  1  6
 30 31  1  0
 30 34  1  0
 31 32  1  0
 32 33  1  0
 33 34  1  0
 34 35  1  0
M  END
