
     RDKit          3D

 36 37  0  0  0  0  0  0  0  0999 V2000
    6.6730    2.7990   -0.6090 C   0  0  0  0  0  0  0  0  0  0  0  0
    5.4250    2.6460    0.0490 O   0  0  0  0  0  0  0  0  0  0  0  0
    4.9440    1.3960    0.4100 C   0  0  0  0  0  0  0  0  0  0  0  0
    3.6130    1.2320    0.4990 C   0  0  0  0  0  0  0  0  0  0  0  0
    3.2180    0.1120    1.2220 O   0  0  0  0  0  0  0  0  0  0  0  0
    3.7900   -1.1170    0.7450 C   0  0  2  0  0  0  0  0  0  0  0  0
    3.2050   -2.2240    1.5640 C   0  0  0  0  0  0  0  0  0  0  0  0
    1.6870   -2.1690    1.3420 C   0  0  0  0  0  0  0  0  0  0  0  0
    1.3030   -0.8610    1.0120 O   0  0  0  0  0  0  0  0  0  0  0  0
    0.7060   -0.8720   -0.2480 C   0  0  0  0  0  0  0  0  0  0  0  0
   -0.7930   -0.9430    0.0250 C   0  0  2  0  0  0  0  0  0  0  0  0
   -1.5360   -0.6790   -1.2360 C   0  0  0  0  0  0  0  0  0  0  0  0
   -3.0010   -0.7230   -1.0700 N   0  0  0  0  0  0  0  0  0  0  0  0
   -3.6570    0.4840   -0.7570 C   0  0  0  0  0  0  0  0  0  0  0  0
   -4.8920    0.6230   -0.5730 O   0  0  0  0  0  0  0  0  0  0  0  0
   -2.9330    1.7270   -0.6170 N   0  0  0  0  0  0  0  0  0  0  0  0
   -3.6130    2.9690   -0.2940 C   0  0  0  0  0  0  0  0  0  0  0  0
   -2.7560    4.0330   -0.2040 O   0  0  0  0  0  0  0  0  0  0  0  0
   -1.8350    3.9140    0.6990 O   0  0  0  0  0  0  0  0  0  0  0  0
   -2.3880    4.2820    1.8570 O   0  0  0  0  0  0  0  0  0  0  0  0
   -3.6090   -1.9760   -1.2350 C   0  0  0  0  0  0  0  0  0  0  0  0
   -2.7890   -2.9710   -1.5210 O   0  0  0  0  0  0  0  0  0  0  0  0
   -5.0080   -2.3990   -1.1510 C   0  0  2  0  0  0  0  0  0  0  0  0
   -5.3510   -3.1510   -2.4610 C   0  0  0  0  0  0  0  0  0  0  0  0
   -5.9600   -1.4830   -0.8680 O   0  0  0  0  0  0  0  0  0  0  0  0
   -6.6710   -1.8050    0.1650 O   0  0  0  0  0  0  0  0  0  0  0  0
   -6.0510   -1.6240    1.3070 O   0  0  0  0  0  0  0  0  0  0  0  0
   -1.1230   -0.0840    1.1350 N   0  0  0  0  0  0  0  0  0  0  0  0
   -0.2790    1.0050    1.5860 C   0  0  0  0  0  0  0  0  0  0  0  0
   -0.3520    1.1630    2.8580 O   0  0  0  0  0  0  0  0  0  0  0  0
    0.4220    1.6630    0.6740 O   0  0  0  0  0  0  0  0  0  0  0  0
    1.4900    2.3840    0.5050 O   0  0  0  0  0  0  0  0  0  0  0  0
    2.6920    2.1750   -0.1250 C   0  0  0  0  0  0  0  0  0  0  0  0
    3.0800    2.7310   -1.2100 N   0  0  0  0  0  0  0  0  0  0  0  0
    5.2830   -1.0580    0.7520 C   0  0  0  0  0  0  0  0  0  0  0  0
    5.7910    0.2930    0.6860 N   0  0  0  0  0  0  0  0  0  0  0  0
  1  2  1  0
  2  3  1  0
  3  4  2  0
  3 36  1  0
  4  5  1  0
  4 33  1  0
  5  6  1  0
  6  7  1  1
  6 35  1  0
  7  8  1  0
  8  9  1  0
  9 10  1  0
 10 11  1  0
 11 12  1  6
 11 28  1  0
 12 13  1  0
 13 14  1  0
 13 21  1  0
 14 15  2  0
 14 16  1  0
 16 17  1  0
 17 18  1  0
 18 19  1  0
 19 20  1  0
 21 22  2  0
 21 23  1  0
 23 24  1  6
 23 25  1  0
 25 26  1  0
 26 27  1  0
 28 29  1  0
 29 30  2  0
 29 31  1  0
 31 32  1  0
 32 33  1  0
 33 34  2  0
 35 36  1  0
M  END
