
     RDKit          3D

 33 35  0  0  0  0  0  0  0  0999 V2000
    6.2690    1.6220   -0.4910 O   0  0  0  0  0  0  0  0  0  0  0  0
    6.2510    0.9070    0.5410 C   0  0  0  0  0  0  0  0  0  0  0  0
    7.4530    0.5010    1.0750 O   0  0  0  0  0  0  0  0  0  0  0  0
    5.0100    0.5790    1.0670 O   0  0  0  0  0  0  0  0  0  0  0  0
    3.8160    1.0370    0.4570 C   0  0  1  0  0  0  0  0  0  0  0  0
    3.0620   -0.0650    0.1170 O   0  0  0  0  0  0  0  0  0  0  0  0
    1.9020   -0.0600    0.8500 C   0  0  2  0  0  0  0  0  0  0  0  0
    2.0880    0.8540    1.9300 O   0  0  0  0  0  0  0  0  0  0  0  0
    2.9800    1.8030    1.4480 C   0  0  0  0  0  0  0  0  0  0  0  0
    3.0920    3.0240    1.7490 O   0  0  0  0  0  0  0  0  0  0  0  0
    1.5550   -1.3190    1.3000 O   0  0  0  0  0  0  0  0  0  0  0  0
    1.3650   -2.3570   -0.0620 P   0  0  0  0  0  0  0  0  0  0  0  0
    2.4420   -3.7160   -0.0100 O   0  0  0  0  0  0  0  0  0  0  0  0
   -0.7190   -2.9990   -0.3300 P   0  0  0  0  0  0  0  0  0  0  0  0
   -0.9120   -4.6950   -0.1590 O   0  0  0  0  0  0  0  0  0  0  0  0
   -1.7130   -2.0820    0.7270 O   0  0  0  0  0  0  0  0  0  0  0  0
   -3.1750   -2.8720    1.1450 P   0  0  0  0  0  0  0  0  0  0  0  0
   -3.2840   -4.3580    0.2380 O   0  0  0  0  0  0  0  0  0  0  0  0
   -4.5250   -1.9000    0.7430 O   0  0  0  0  0  0  0  0  0  0  0  0
   -4.1790   -0.2230    0.6730 P   0  0  0  0  0  0  0  0  0  0  0  0
   -5.5400    0.5570   -0.0970 O   0  0  0  0  0  0  0  0  0  0  0  0
   -5.8060    2.1360    0.5460 P   0  0  0  0  0  0  0  0  0  0  0  0
   -4.4890    3.1800    0.1120 O   0  0  0  0  0  0  0  0  0  0  0  0
   -7.2610    2.7580   -0.1610 O   0  0  0  0  0  0  0  0  0  0  0  0
   -2.3370    0.2320   -0.4100 P   0  0  0  0  0  0  0  0  0  0  0  0
   -2.7530    1.0180   -1.9260 O   0  0  0  0  0  0  0  0  0  0  0  0
   -1.3270    1.3400    0.4550 O   0  0  0  0  0  0  0  0  0  0  0  0
   -0.2710    0.7850    0.9520 O   0  0  0  0  0  0  0  0  0  0  0  0
    0.7260    0.5120    0.0480 C   0  0  1  0  0  0  0  0  0  0  0  0
    1.2280    1.6760   -0.5660 O   0  0  0  0  0  0  0  0  0  0  0  0
    0.8800    1.6030   -1.8950 C   0  0  0  0  0  0  0  0  0  0  0  0
    0.6970    0.2570   -2.1130 O   0  0  0  0  0  0  0  0  0  0  0  0
    0.3570   -0.3050   -0.9900 O   0  0  0  0  0  0  0  0  0  0  0  0
  1  2  2  0
  2  3  1  0
  2  4  1  0
  5  4  1  1
  5  6  1  0
  5  9  1  0
  7  6  1  6
  7  8  1  0
  7 11  1  0
  7 29  1  0
  8  9  1  0
  9 10  2  0
 11 12  1  0
 12 13  1  0
 12 14  1  0
 14 15  1  0
 14 16  1  0
 16 17  1  0
 17 18  1  0
 17 19  1  0
 19 20  1  0
 20 21  1  0
 20 25  1  0
 21 22  1  0
 22 23  1  0
 22 24  1  0
 25 26  1  0
 25 27  1  0
 27 28  1  0
 29 28  1  1
 29 30  1  0
 29 33  1  0
 30 31  1  0
 31 32  1  0
 32 33  1  0
M  END
