
     RDKit          3D

 13 13  0  0  0  0  0  0  0  0999 V2000
    4.0800   -0.4890   -0.2870 N   0  0  0  0  0  0  0  0  0  0  0  0
    3.0840   -0.8240    0.5610 O   0  0  0  0  0  0  0  0  0  0  0  0
    1.9560   -0.0190    0.3890 C   0  0  2  0  0  0  0  0  0  0  0  0
    1.7300    0.6770    1.5990 O   0  0  0  0  0  0  0  0  0  0  0  0
    0.7940   -0.9150    0.1160 C   0  0  0  0  0  0  0  0  0  0  0  0
   -0.5020   -0.1880   -0.0930 C   0  0  2  0  0  0  0  0  0  0  0  0
   -1.5660   -1.2580   -0.3570 C   0  0  0  0  0  0  0  0  0  0  0  0
   -1.6680   -2.1810    0.7470 N   0  0  0  0  0  0  0  0  0  0  0  0
   -0.5120    0.7090   -1.2880 C   0  0  0  0  0  0  0  0  0  0  0  0
   -1.8240    1.1880   -1.4260 O   0  0  0  0  0  0  0  0  0  0  0  0
   -2.1060    1.9790   -0.3170 C   0  0  0  0  0  0  0  0  0  0  0  0
   -1.1200    1.8320    0.7910 C   0  0  0  0  0  0  0  0  0  0  0  0
   -0.8960    0.4880    1.0600 O   0  0  0  0  0  0  0  0  0  0  0  0
  1  2  1  0
  2  3  1  0
  3  4  1  1
  3  5  1  0
  6  5  1  1
  6  7  1  0
  6  9  1  0
  6 13  1  0
  7  8  1  0
  9 10  1  0
 10 11  1  0
 11 12  1  0
 12 13  1  0
M  CHG  1   8   1
M  END
