
     RDKit          3D

 13 13  0  0  0  0  0  0  0  0999 V2000
    4.1240   -0.9440    0.1410 N   0  0  0  0  0  0  0  0  0  0  0  0
    2.7450   -0.7030    0.1420 C   0  0  0  0  0  0  0  0  0  0  0  0
    1.9310   -1.5980    0.4790 O   0  0  0  0  0  0  0  0  0  0  0  0
    2.1910    0.6170   -0.2540 C   0  0  0  0  0  0  0  0  0  0  0  0
    0.7960    0.6550   -0.1860 O   0  0  0  0  0  0  0  0  0  0  0  0
    0.0570    0.4400    0.9580 C   0  0  0  0  0  0  0  0  0  0  0  0
    0.6910    0.1910    2.0190 O   0  0  0  0  0  0  0  0  0  0  0  0
   -1.4290    0.5080    0.9010 C   0  0  1  0  0  0  0  0  0  0  0  0
   -1.8580    1.9000    0.4360 C   0  0  0  0  0  0  0  0  0  0  0  0
   -1.8240    1.7060   -0.9860 O   0  0  0  0  0  0  0  0  0  0  0  0
   -2.1940    0.3900   -1.2650 C   0  0  0  0  0  0  0  0  0  0  0  0
   -1.9800   -0.3460   -0.1900 C   0  0  0  0  0  0  0  0  0  0  0  0
   -2.2610   -1.7480   -0.1550 N   0  0  0  0  0  0  0  0  0  0  0  0
  1  2  1  0
  2  3  2  0
  2  4  1  0
  4  5  1  0
  5  6  1  0
  6  7  2  0
  8  6  1  6
  8  9  1  0
  8 12  1  0
  9 10  1  0
 10 11  1  0
 11 12  2  0
 12 13  1  0
M  CHG  1  13   1
M  END
