
     RDKit          3D

 13 13  0  0  0  0  0  0  0  0999 V2000
   -2.8980    1.2970   -1.2490 N   0  0  0  0  0  0  0  0  0  0  0  0
   -1.9990    0.2020   -1.1450 C   0  0  0  0  0  0  0  0  0  0  0  0
   -1.7330   -0.4400   -2.1870 O   0  0  0  0  0  0  0  0  0  0  0  0
   -1.4150   -0.1410    0.1670 C   0  0  2  0  0  0  0  0  0  0  0  0
   -1.8980    0.7370    1.1290 O   0  0  0  0  0  0  0  0  0  0  0  0
   -2.5400    0.1600    2.0960 O   0  0  0  0  0  0  0  0  0  0  0  0
    0.0780   -0.1480    0.1480 C   0  0  0  0  0  0  0  0  0  0  0  0
    0.7080    0.7160    0.9010 C   0  0  0  0  0  0  0  0  0  0  0  0
    2.1590    0.8000    0.9630 C   0  0  0  0  0  0  0  0  0  0  0  0
    2.8770   -0.0730    0.1480 N   0  0  0  0  0  0  0  0  0  0  0  0
    2.1390   -0.9720   -0.6300 C   0  0  0  0  0  0  0  0  0  0  0  0
    0.8350   -1.0660   -0.6830 C   0  0  0  0  0  0  0  0  0  0  0  0
    0.2240   -1.9970   -1.4930 O   0  0  0  0  0  0  0  0  0  0  0  0
  1  2  1  0
  2  3  2  0
  2  4  1  0
  4  5  1  1
  4  7  1  0
  5  6  1  0
  7  8  2  0
  7 12  1  0
  8  9  1  0
  9 10  1  0
 10 11  1  0
 11 12  2  0
 12 13  1  0
M  CHG  1  10   1
M  END
