
     RDKit          3D

 13 13  0  0  0  0  0  0  0  0999 V2000
   -2.8680    1.1680    0.1200 N   0  0  0  0  0  0  0  0  0  0  0  0
   -2.5930    0.0100    0.9520 C   0  0  0  0  0  0  0  0  0  0  0  0
   -2.1110   -1.1430    0.0940 C   0  0  0  0  0  0  0  0  0  0  0  0
   -0.8620   -0.7020   -0.6010 C   0  0  1  0  0  0  0  0  0  0  0  0
    0.2470   -0.3160    0.3560 C   0  0  0  0  0  0  0  0  0  0  0  0
    1.3660   -0.2030   -0.6900 C   0  0  1  0  0  0  0  0  0  0  0  0
    2.6510   -0.1020   -0.1150 N   0  0  0  0  0  0  0  0  0  0  0  0
    3.4600    1.0350   -0.3860 C   0  0  0  0  0  0  0  0  0  0  0  0
    2.9910    1.9310   -1.1460 O   0  0  0  0  0  0  0  0  0  0  0  0
    4.7260    1.2080    0.1360 O   0  0  0  0  0  0  0  0  0  0  0  0
    1.1340   -1.4820   -1.4280 C   0  0  0  0  0  0  0  0  0  0  0  0
    2.0420   -2.1190   -2.0120 O   0  0  0  0  0  0  0  0  0  0  0  0
   -0.2250   -1.7560   -1.3110 O   0  0  0  0  0  0  0  0  0  0  0  0
  1  2  1  0
  2  3  1  0
  4  3  1  1
  4  5  1  0
  4 13  1  0
  5  6  1  0
  6  7  1  1
  6 11  1  0
  7  8  1  0
  8  9  2  0
  8 10  1  0
 11 12  2  0
 11 13  1  0
M  CHG  1   1   1
M  END
