
     RDKit          3D

 49 55  0  0  0  0  0  0  0  0999 V2000
   -0.0750   -1.9370   -0.5200 C   0  0  0  0  0  0  0  0  0  0  0  0
   -0.0330   -1.3080    0.7740 N   0  0  0  0  0  0  0  0  0  0  0  0
   -1.0810   -1.5550    1.6880 C   0  0  0  0  0  0  0  0  0  0  0  0
   -1.0530   -1.0010    2.8340 O   0  0  0  0  0  0  0  0  0  0  0  0
   -2.2130   -2.4150    1.4150 C   0  0  0  0  0  0  0  0  0  0  0  0
   -2.0930   -3.7540    1.6990 C   0  0  0  0  0  0  0  0  0  0  0  0
   -3.1230   -4.6490    1.4650 C   0  0  0  0  0  0  0  0  0  0  0  0
   -2.9620   -5.9850    1.7620 C   0  0  0  0  0  0  0  0  0  0  0  0
   -4.0120   -6.8450    1.5150 C   0  0  0  0  0  0  0  0  0  0  0  0
   -5.2060   -6.4190    0.9840 C   0  0  0  0  0  0  0  0  0  0  0  0
   -5.3530   -5.0640    0.6890 C   0  0  0  0  0  0  0  0  0  0  0  0
   -4.3120   -4.1870    0.9310 C   0  0  0  0  0  0  0  0  0  0  0  0
   -4.4560   -2.8250    0.6350 C   0  0  0  0  0  0  0  0  0  0  0  0
   -3.4200   -1.9520    0.8720 C   0  0  0  0  0  0  0  0  0  0  0  0
   -3.6240   -0.5400    0.6290 C   0  0  0  0  0  0  0  0  0  0  0  0
   -2.7020    0.2040    1.0940 O   0  0  0  0  0  0  0  0  0  0  0  0
   -4.8060   -0.0420   -0.0900 C   0  0  1  0  0  0  0  0  0  0  0  0
   -4.8620    1.4490    0.1110 C   0  0  0  0  0  0  0  0  0  0  0  0
   -5.9180    2.0180    0.8100 C   0  0  0  0  0  0  0  0  0  0  0  0
   -6.0190    3.3430    1.1280 C   0  0  0  0  0  0  0  0  0  0  0  0
   -5.0020    4.1670    0.7250 C   0  0  0  0  0  0  0  0  0  0  0  0
   -3.9220    3.6500    0.0190 C   0  0  0  0  0  0  0  0  0  0  0  0
   -2.9320    4.5070   -0.4050 C   0  0  0  0  0  0  0  0  0  0  0  0
   -1.8660    4.0320   -1.1380 C   0  0  0  0  0  0  0  0  0  0  0  0
   -1.8120    2.6890   -1.4370 C   0  0  0  0  0  0  0  0  0  0  0  0
   -2.7960    1.8060   -1.0210 C   0  0  0  0  0  0  0  0  0  0  0  0
   -3.8490    2.2780   -0.2920 C   0  0  0  0  0  0  0  0  0  0  0  0
   -5.1090   -0.5320   -1.7430 P   0  0  0  0  0  0  0  0  0  0  0  0
   -4.6270    0.3300   -3.0360 O   0  0  0  0  0  0  0  0  0  0  0  0
   -6.2640   -1.7740   -2.0110 O   0  0  0  0  0  0  0  0  0  0  0  0
   -4.0510   -1.5960   -1.7990 O   0  0  0  0  0  0  0  0  0  0  0  0
    1.0780   -0.4520    1.1010 C   0  0  2  0  0  0  0  0  0  0  0  0
    1.1840    0.7190    0.1810 C   0  0  0  0  0  0  0  0  0  0  0  0
    2.1970    0.4390   -0.9030 C   0  0  0  0  0  0  0  0  0  0  0  0
    3.5260    0.5350   -0.2190 N   0  0  0  0  0  0  0  0  0  0  0  0
    4.5370    1.2880   -0.8180 C   0  0  0  0  0  0  0  0  0  0  0  0
    4.1980    1.8260   -1.9720 O   0  0  0  0  0  0  0  0  0  0  0  0
    5.8760    1.5850   -0.4120 C   0  0  0  0  0  0  0  0  0  0  0  0
    6.4270    1.2290    0.7880 C   0  0  0  0  0  0  0  0  0  0  0  0
    7.7480    1.5110    1.1390 C   0  0  0  0  0  0  0  0  0  0  0  0
    8.5430    2.1820    0.2410 C   0  0  0  0  0  0  0  0  0  0  0  0
    9.8560    2.4630    0.5870 C   0  0  0  0  0  0  0  0  0  0  0  0
   10.6350    3.1350   -0.3280 C   0  0  0  0  0  0  0  0  0  0  0  0
   10.1050    3.5070   -1.5440 C   0  0  0  0  0  0  0  0  0  0  0  0
    8.8160    3.2260   -1.8740 C   0  0  0  0  0  0  0  0  0  0  0  0
    8.0180    2.5520   -0.9690 C   0  0  0  0  0  0  0  0  0  0  0  0
    6.7110    2.2710   -1.3130 C   0  0  0  0  0  0  0  0  0  0  0  0
    3.5910   -0.2060    1.0000 C   0  0  0  0  0  0  0  0  0  0  0  0
    2.3870   -1.1610    1.1030 C   0  0  0  0  0  0  0  0  0  0  0  0
  1  2  1  0
  2  3  1  0
 32  2  1  6
  3  4  2  0
  3  5  1  0
  5  6  2  0
  5 14  1  0
  6  7  1  0
  7  8  2  0
  7 12  1  0
  8  9  1  0
  9 10  2  0
 10 11  1  0
 11 12  2  0
 12 13  1  0
 13 14  2  0
 14 15  1  0
 15 16  2  0
 15 17  1  0
 17 18  1  0
 17 28  1  6
 18 19  2  0
 18 27  1  0
 19 20  1  0
 20 21  2  0
 21 22  1  0
 22 23  2  0
 22 27  1  0
 23 24  1  0
 24 25  2  0
 25 26  1  0
 26 27  2  0
 28 29  1  0
 28 30  1  0
 28 31  1  0
 32 33  1  0
 32 49  1  0
 33 34  1  0
 34 35  1  0
 35 36  1  0
 35 48  1  0
 36 37  2  0
 36 38  1  0
 38 39  2  0
 38 47  1  0
 39 40  1  0
 40 41  2  0
 41 42  1  0
 41 46  1  0
 42 43  2  0
 43 44  1  0
 44 45  2  0
 45 46  1  0
 46 47  2  0
 48 49  1  0
M  END
