
     RDKit          3D

 49 54  0  0  0  0  0  0  0  0999 V2000
   -3.8000    4.7250   -5.1480 C   0  0  0  0  0  0  0  0  0  0  0  0
   -3.5740    3.9370   -4.0320 O   0  0  0  0  0  0  0  0  0  0  0  0
   -2.6260    2.9220   -3.8940 C   0  0  0  0  0  0  0  0  0  0  0  0
   -1.7760    2.5720   -4.9170 C   0  0  0  0  0  0  0  0  0  0  0  0
   -0.8330    1.5470   -4.7470 C   0  0  0  0  0  0  0  0  0  0  0  0
   -0.7970    0.9070   -3.5140 C   0  0  0  0  0  0  0  0  0  0  0  0
   -1.6360    1.2350   -2.4720 C   0  0  0  0  0  0  0  0  0  0  0  0
   -1.5450    0.5700   -1.1420 C   0  0  0  0  0  0  0  0  0  0  0  0
   -2.5710    0.0900   -0.5410 C   0  0  0  0  0  0  0  0  0  0  0  0
   -3.8500    0.2310   -1.2910 C   0  0  0  0  0  0  0  0  0  0  0  0
   -4.9180    0.7770   -0.6470 C   0  0  0  0  0  0  0  0  0  0  0  0
   -6.1300    0.9260   -1.2940 C   0  0  0  0  0  0  0  0  0  0  0  0
   -6.2430    0.5150   -2.6050 C   0  0  0  0  0  0  0  0  0  0  0  0
   -5.1710   -0.0390   -3.2680 C   0  0  0  0  0  0  0  0  0  0  0  0
   -3.9660   -0.1750   -2.5830 C   0  0  0  0  0  0  0  0  0  0  0  0
   -2.7320   -0.3690    0.8050 N   0  0  0  0  0  0  0  0  0  0  0  0
   -1.9120   -0.0340    1.8910 C   0  0  0  0  0  0  0  0  0  0  0  0
   -1.0400    0.8430    1.8260 O   0  0  0  0  0  0  0  0  0  0  0  0
   -2.0890   -0.7240    3.1490 C   0  0  0  0  0  0  0  0  0  0  0  0
   -2.9810   -1.6610    3.3510 C   0  0  0  0  0  0  0  0  0  0  0  0
   -3.0810   -2.3240    4.7190 C   0  0  0  0  0  0  0  0  0  0  0  0
   -3.8890   -2.0840    2.2950 C   0  0  1  0  0  0  0  0  0  0  0  0
   -3.8180   -3.6010    2.0720 C   0  0  0  0  0  0  0  0  0  0  0  0
   -5.3100   -1.7690    2.7970 C   0  0  0  0  0  0  0  0  0  0  0  0
   -3.7160   -1.3880    1.0210 C   0  0  0  0  0  0  0  0  0  0  0  0
   -4.4710   -1.6890    0.0170 O   0  0  0  0  0  0  0  0  0  0  0  0
   -0.1750    0.4350   -0.6970 C   0  0  0  0  0  0  0  0  0  0  0  0
    0.2710   -0.7690   -0.2030 C   0  0  0  0  0  0  0  0  0  0  0  0
    1.5970   -0.9000    0.2130 C   0  0  0  0  0  0  0  0  0  0  0  0
    2.5060    0.1580    0.1460 C   0  0  0  0  0  0  0  0  0  0  0  0
    3.8730   -0.0010    0.6050 N   0  0  0  0  0  0  0  0  0  0  0  0
    4.4930    1.0380    1.2620 C   0  0  0  0  0  0  0  0  0  0  0  0
    3.7190    2.0910    1.4610 O   0  0  0  0  0  0  0  0  0  0  0  0
    5.8450    1.1620    1.7620 C   0  0  0  0  0  0  0  0  0  0  0  0
    6.2110    2.3520    2.4270 C   0  0  0  0  0  0  0  0  0  0  0  0
    7.4640    2.5580    2.9120 C   0  0  0  0  0  0  0  0  0  0  0  0
    8.4180    1.5890    2.7600 C   0  0  0  0  0  0  0  0  0  0  0  0
    9.6990    1.7820    3.2470 O   0  0  0  0  0  0  0  0  0  0  0  0
    8.1180    0.4090    2.1200 C   0  0  0  0  0  0  0  0  0  0  0  0
    6.8200    0.2250    1.6320 C   0  0  0  0  0  0  0  0  0  0  0  0
    4.4200   -1.2780    0.3600 C   0  0  0  0  0  0  0  0  0  0  0  0
    4.9520   -1.6110   -0.8650 C   0  0  0  0  0  0  0  0  0  0  0  0
    5.4470   -2.8740   -1.0700 C   0  0  0  0  0  0  0  0  0  0  0  0
    5.4260   -3.8240   -0.0750 C   0  0  0  0  0  0  0  0  0  0  0  0
    4.8910   -3.5040    1.1730 C   0  0  0  0  0  0  0  0  0  0  0  0
    4.3980   -2.2470    1.3750 C   0  0  0  0  0  0  0  0  0  0  0  0
    2.0270    1.3420   -0.3540 C   0  0  0  0  0  0  0  0  0  0  0  0
    0.7200    1.4890   -0.7680 C   0  0  0  0  0  0  0  0  0  0  0  0
   -2.5440    2.2440   -2.6790 C   0  0  0  0  0  0  0  0  0  0  0  0
  1  2  1  0
  2  3  1  0
  3  4  2  0
  3 49  1  0
  4  5  1  0
  5  6  2  0
  6  7  1  0
  7  8  1  0
  7 49  2  0
  8  9  2  3
  8 27  1  0
  9 10  1  0
  9 16  1  0
 10 11  2  0
 10 15  1  0
 11 12  1  0
 12 13  2  0
 13 14  1  0
 14 15  2  0
 16 17  1  0
 16 25  1  0
 17 18  2  0
 17 19  1  0
 19 20  2  0
 20 21  1  0
 20 22  1  0
 22 23  1  6
 22 24  1  0
 22 25  1  0
 25 26  2  0
 27 28  2  0
 27 48  1  0
 28 29  1  0
 29 30  2  0
 30 31  1  0
 30 47  1  0
 31 32  1  0
 31 41  1  0
 32 33  2  0
 32 34  1  0
 34 35  2  0
 34 40  1  0
 35 36  1  0
 36 37  2  0
 37 38  1  0
 37 39  1  0
 39 40  2  0
 41 42  2  0
 41 46  1  0
 42 43  1  0
 43 44  2  0
 44 45  1  0
 45 46  2  0
 47 48  2  0
M  END
