
     RDKit          3D

 48 53  0  0  0  0  0  0  0  0999 V2000
    4.9660   -3.9000    2.7330 C   0  0  0  0  0  0  0  0  0  0  0  0
    4.6960   -2.8940    1.7630 O   0  0  0  0  0  0  0  0  0  0  0  0
    5.0110   -3.1770    0.4160 C   0  0  0  0  0  0  0  0  0  0  0  0
    5.5660   -4.3950    0.0510 C   0  0  0  0  0  0  0  0  0  0  0  0
    5.8680   -4.6570   -1.2690 C   0  0  0  0  0  0  0  0  0  0  0  0
    5.5990   -3.6720   -2.1890 C   0  0  0  0  0  0  0  0  0  0  0  0
    5.0410   -2.4510   -1.8140 C   0  0  0  0  0  0  0  0  0  0  0  0
    4.7400   -2.1930   -0.4890 C   0  0  0  0  0  0  0  0  0  0  0  0
    4.1720   -0.9360   -0.1440 N   0  0  0  0  0  0  0  0  0  0  0  0
    2.7360   -0.7990   -0.1190 C   0  0  0  0  0  0  0  0  0  0  0  0
    2.0680   -1.8260   -0.4040 O   0  0  0  0  0  0  0  0  0  0  0  0
    2.1390    0.4480    0.2150 C   0  0  0  0  0  0  0  0  0  0  0  0
    0.9430    0.8740    0.3500 C   0  0  0  0  0  0  0  0  0  0  0  0
   -0.3410    0.2520    0.2350 C   0  0  0  0  0  0  0  0  0  0  0  0
   -0.5740   -1.0770    0.4840 C   0  0  0  0  0  0  0  0  0  0  0  0
   -1.8220   -1.6440    0.2320 C   0  0  0  0  0  0  0  0  0  0  0  0
   -2.8620   -0.8810   -0.2750 C   0  0  0  0  0  0  0  0  0  0  0  0
   -2.6590    0.4430   -0.5300 C   0  0  0  0  0  0  0  0  0  0  0  0
   -1.4350    1.0000   -0.2830 C   0  0  0  0  0  0  0  0  0  0  0  0
   -1.2280    2.4400   -0.5630 C   0  0  0  0  0  0  0  0  0  0  0  0
   -4.1050   -1.5100   -0.5330 N   0  0  0  0  0  0  0  0  0  0  0  0
   -5.3290   -0.8120   -0.4230 C   0  0  0  0  0  0  0  0  0  0  0  0
   -6.4180   -1.3040   -1.1540 C   0  0  0  0  0  0  0  0  0  0  0  0
   -7.6600   -0.7330   -1.1250 C   0  0  0  0  0  0  0  0  0  0  0  0
   -7.8980    0.3990   -0.3420 C   0  0  0  0  0  0  0  0  0  0  0  0
   -9.2190    1.0090   -0.3050 C   0  0  0  0  0  0  0  0  0  0  0  0
  -10.3760    0.2500   -0.4400 C   0  0  0  0  0  0  0  0  0  0  0  0
  -11.6190    0.8430   -0.4060 C   0  0  0  0  0  0  0  0  0  0  0  0
  -11.7830    2.2030   -0.2380 C   0  0  0  0  0  0  0  0  0  0  0  0
  -13.1500    2.7970   -0.2080 C   0  0  0  0  0  0  0  0  0  0  0  0
  -10.6440    2.9710   -0.1020 C   0  0  0  0  0  0  0  0  0  0  0  0
   -9.3920    2.3700   -0.1370 C   0  0  0  0  0  0  0  0  0  0  0  0
   -6.8290    0.8830    0.3780 C   0  0  0  0  0  0  0  0  0  0  0  0
   -5.5560    0.2980    0.3490 C   0  0  0  0  0  0  0  0  0  0  0  0
   -4.1390   -2.9360   -0.9220 C   0  0  0  0  0  0  0  0  0  0  0  0
   -2.9390   -3.6630   -0.4350 C   0  0  0  0  0  0  0  0  0  0  0  0
   -2.1180   -2.9770    0.4610 O   0  0  0  0  0  0  0  0  0  0  0  0
    5.0710    0.1090    0.1500 C   0  0  0  0  0  0  0  0  0  0  0  0
    5.2270    0.5650    1.4330 C   0  0  0  0  0  0  0  0  0  0  0  0
    6.1300    1.5830    1.7570 C   0  0  0  0  0  0  0  0  0  0  0  0
    6.9000    2.1630    0.7680 C   0  0  0  0  0  0  0  0  0  0  0  0
    7.8760    3.2500    1.0700 C   0  0  0  0  0  0  0  0  0  0  0  0
    8.9790    2.8420    1.7630 O   0  0  0  0  0  0  0  0  0  0  0  0
    9.7670    1.8860    1.1930 C   0  0  0  0  0  0  0  0  0  0  0  0
   10.3690    2.2460   -0.1360 C   0  0  0  0  0  0  0  0  0  0  0  0
   11.1800    3.3810   -0.0400 O   0  0  0  0  0  0  0  0  0  0  0  0
    6.7480    1.7120   -0.5190 C   0  0  0  0  0  0  0  0  0  0  0  0
    5.8470    0.7020   -0.8160 C   0  0  0  0  0  0  0  0  0  0  0  0
  1  2  1  0
  2  3  1  0
  3  4  2  0
  3  8  1  0
  4  5  1  0
  5  6  2  0
  6  7  1  0
  7  8  2  0
  8  9  1  0
  9 10  1  0
  9 38  1  0
 10 11  2  0
 10 12  1  0
 12 13  2  3
 13 14  1  0
 14 15  2  0
 14 19  1  0
 15 16  1  0
 16 17  2  0
 16 37  1  0
 17 18  1  0
 17 21  1  0
 18 19  2  0
 19 20  1  0
 21 22  1  0
 21 35  1  0
 22 23  2  0
 22 34  1  0
 23 24  1  0
 24 25  2  0
 25 26  1  0
 25 33  1  0
 26 27  2  0
 26 32  1  0
 27 28  1  0
 28 29  2  0
 29 30  1  0
 29 31  1  0
 31 32  2  0
 33 34  2  0
 35 36  1  0
 36 37  1  0
 38 39  2  0
 38 48  1  0
 39 40  1  0
 40 41  2  0
 41 42  1  0
 41 47  1  0
 42 43  1  0
 43 44  1  0
 44 45  1  0
 45 46  1  0
 47 48  2  0
M  END
