
     RDKit          3D

 48 53  0  0  0  0  0  0  0  0999 V2000
    0.2800    7.3620    2.5110 C   0  0  0  0  0  0  0  0  0  0  0  0
    1.1200    6.7550    3.5990 C   0  0  0  0  0  0  0  0  0  0  0  0
    0.9350    5.3800    3.6210 O   0  0  0  0  0  0  0  0  0  0  0  0
    1.2500    4.5800    2.5350 C   0  0  0  0  0  0  0  0  0  0  0  0
    1.7730    5.0430    1.3510 C   0  0  0  0  0  0  0  0  0  0  0  0
    2.0490    4.1580    0.3290 C   0  0  0  0  0  0  0  0  0  0  0  0
    1.7940    2.8230    0.5170 C   0  0  0  0  0  0  0  0  0  0  0  0
    2.1270    1.8890   -0.5430 C   0  0  0  0  0  0  0  0  0  0  0  0
    3.4870    1.8110   -0.8730 C   0  0  0  0  0  0  0  0  0  0  0  0
    3.9420    0.9310   -1.8290 C   0  0  0  0  0  0  0  0  0  0  0  0
    3.0400    0.1160   -2.4690 C   0  0  0  0  0  0  0  0  0  0  0  0
    3.4960   -0.8370   -3.4990 C   0  0  0  0  0  0  0  0  0  0  0  0
    4.6440   -1.5620   -3.0390 O   0  0  0  0  0  0  0  0  0  0  0  0
    4.5790   -2.3390   -1.9090 C   0  0  0  0  0  0  0  0  0  0  0  0
    3.4900   -2.3950   -1.2940 O   0  0  0  0  0  0  0  0  0  0  0  0
    5.7520   -3.0810   -1.4360 C   0  0  0  0  0  0  0  0  0  0  0  0
    6.9580   -3.0300   -2.1020 C   0  0  0  0  0  0  0  0  0  0  0  0
    8.0650   -3.7310   -1.6560 C   0  0  0  0  0  0  0  0  0  0  0  0
    7.9960   -4.5110   -0.5170 C   0  0  0  0  0  0  0  0  0  0  0  0
    9.1710   -5.2680   -0.0230 C   0  0  0  0  0  0  0  0  0  0  0  0
    6.7900   -4.5600    0.1470 C   0  0  0  0  0  0  0  0  0  0  0  0
    5.6790   -3.8600   -0.2970 C   0  0  0  0  0  0  0  0  0  0  0  0
    1.6910    0.2070   -2.1280 C   0  0  0  0  0  0  0  0  0  0  0  0
    1.2020    1.0750   -1.1820 C   0  0  0  0  0  0  0  0  0  0  0  0
   -0.1820    1.1110   -0.8340 N   0  0  0  0  0  0  0  0  0  0  0  0
   -1.2490    0.6460   -1.6280 C   0  0  0  0  0  0  0  0  0  0  0  0
   -1.1190    0.6200   -3.0230 C   0  0  0  0  0  0  0  0  0  0  0  0
   -2.1570    0.2050   -3.8020 C   0  0  0  0  0  0  0  0  0  0  0  0
   -3.3440   -0.1930   -3.2420 C   0  0  0  0  0  0  0  0  0  0  0  0
   -3.4530   -0.1570   -1.8680 C   0  0  0  0  0  0  0  0  0  0  0  0
   -2.4090    0.2620   -1.0400 C   0  0  0  0  0  0  0  0  0  0  0  0
   -2.7390    0.2930    0.4090 C   0  0  2  0  0  0  0  0  0  0  0  0
   -4.0660   -0.2710    0.6540 N   0  0  0  0  0  0  0  0  0  0  0  0
   -4.3380   -1.6530    0.5540 C   0  0  0  0  0  0  0  0  0  0  0  0
   -3.3760   -2.3970    0.2400 O   0  0  0  0  0  0  0  0  0  0  0  0
   -5.6430   -2.2630    0.7880 C   0  0  0  0  0  0  0  0  0  0  0  0
   -6.7440   -1.5350    1.1850 C   0  0  0  0  0  0  0  0  0  0  0  0
   -7.9730   -2.1540    1.3960 C   0  0  0  0  0  0  0  0  0  0  0  0
   -8.1460   -3.5090    1.2180 C   0  0  0  0  0  0  0  0  0  0  0  0
   -9.4690   -4.1710    1.4450 C   0  0  0  0  0  0  0  0  0  0  0  0
   -7.0440   -4.2360    0.8210 C   0  0  0  0  0  0  0  0  0  0  0  0
   -5.8280   -3.6200    0.6130 C   0  0  0  0  0  0  0  0  0  0  0  0
   -2.9090    1.7720    0.6970 C   0  0  0  0  0  0  0  0  0  0  0  0
   -2.4180    1.8580    2.1190 C   0  0  0  0  0  0  0  0  0  0  0  0
   -1.6220    0.7840    2.3510 O   0  0  0  0  0  0  0  0  0  0  0  0
   -1.7280   -0.1290    1.3560 C   0  0  0  0  0  0  0  0  0  0  0  0
    1.2740    2.3600    1.6940 C   0  0  0  0  0  0  0  0  0  0  0  0
    0.9880    3.2160    2.7300 C   0  0  0  0  0  0  0  0  0  0  0  0
  1  2  1  0
  2  3  1  0
  3  4  1  0
  4  5  2  0
  4 48  1  0
  5  6  1  0
  6  7  2  0
  7  8  1  0
  7 47  1  0
  8  9  2  0
  8 24  1  0
  9 10  1  0
 10 11  2  0
 11 12  1  0
 11 23  1  0
 12 13  1  0
 13 14  1  0
 14 15  2  0
 14 16  1  0
 16 17  2  0
 16 22  1  0
 17 18  1  0
 18 19  2  0
 19 20  1  0
 19 21  1  0
 21 22  2  0
 23 24  2  0
 24 25  1  0
 25 26  1  0
 26 27  2  0
 26 31  1  0
 27 28  1  0
 28 29  2  0
 29 30  1  0
 30 31  2  0
 31 32  1  0
 32 33  1  6
 32 43  1  0
 32 46  1  0
 33 34  1  0
 34 35  2  0
 34 36  1  0
 36 37  2  0
 36 42  1  0
 37 38  1  0
 38 39  2  0
 39 40  1  0
 39 41  1  0
 41 42  2  0
 43 44  1  0
 44 45  1  0
 45 46  1  0
 47 48  2  0
M  END
