
     RDKit          3D

 48 53  0  0  0  0  0  0  0  0999 V2000
   10.9160    3.8340   -0.7160 C   0  0  0  0  0  0  0  0  0  0  0  0
   10.0050    2.6760   -0.5250 C   0  0  0  0  0  0  0  0  0  0  0  0
    8.6820    2.7110   -0.8780 C   0  0  0  0  0  0  0  0  0  0  0  0
    7.8480    1.6140   -0.6890 C   0  0  0  0  0  0  0  0  0  0  0  0
    8.2720    0.4320   -0.1440 C   0  0  0  0  0  0  0  0  0  0  0  0
    7.4810   -0.7370    0.1290 C   0  0  0  0  0  0  0  0  0  0  0  0
    8.2190   -1.7640    0.5020 O   0  0  0  0  0  0  0  0  0  0  0  0
    6.1240   -1.0000    0.0810 N   0  0  0  0  0  0  0  0  0  0  0  0
    5.8090   -2.4380    0.4340 C   0  0  0  0  0  0  0  0  0  0  0  0
    5.8270   -3.1790   -0.9020 C   0  0  0  0  0  0  0  0  0  0  0  0
    4.8030   -2.6100   -1.6530 O   0  0  0  0  0  0  0  0  0  0  0  0
    5.2450   -1.4830   -2.2970 C   0  0  0  0  0  0  0  0  0  0  0  0
    4.7590   -0.1770   -1.6930 C   0  0  0  0  0  0  0  0  0  0  0  0
    5.0850   -0.0700   -0.2360 C   0  0  1  0  0  0  0  0  0  0  0  0
    3.8850   -0.4400    0.6350 C   0  0  0  0  0  0  0  0  0  0  0  0
    2.7620   -0.9890    0.1060 C   0  0  0  0  0  0  0  0  0  0  0  0
    1.6570   -1.3460    0.9070 C   0  0  0  0  0  0  0  0  0  0  0  0
    0.5780   -1.8960    0.3090 O   0  0  0  0  0  0  0  0  0  0  0  0
   -0.3890   -1.4560   -0.5380 C   0  0  0  0  0  0  0  0  0  0  0  0
   -0.5040   -2.0750   -1.8010 C   0  0  0  0  0  0  0  0  0  0  0  0
   -1.4260   -1.7440   -2.7440 C   0  0  0  0  0  0  0  0  0  0  0  0
   -2.3240   -0.7400   -2.4810 C   0  0  0  0  0  0  0  0  0  0  0  0
   -2.2450   -0.1010   -1.2480 C   0  0  0  0  0  0  0  0  0  0  0  0
   -1.3120   -0.4340   -0.2860 C   0  0  0  0  0  0  0  0  0  0  0  0
   -1.1990    0.3580    0.9110 C   0  0  0  0  0  0  0  0  0  0  0  0
   -2.0540    0.9590    1.6550 C   0  0  0  0  0  0  0  0  0  0  0  0
   -3.4960    1.0390    1.5460 C   0  0  0  0  0  0  0  0  0  0  0  0
   -4.3190    1.8640    2.3360 C   0  0  0  0  0  0  0  0  0  0  0  0
   -5.6270    1.6580    1.9480 C   0  0  0  0  0  0  0  0  0  0  0  0
   -5.5740    0.7250    0.9420 C   0  0  0  0  0  0  0  0  0  0  0  0
   -6.7190    0.1720    0.2000 C   0  0  0  0  0  0  0  0  0  0  0  0
   -8.0170    0.4680    0.3860 N   0  0  0  0  0  0  0  0  0  0  0  0
   -8.7770   -0.2350   -0.4790 C   0  0  0  0  0  0  0  0  0  0  0  0
  -10.1640   -0.2380   -0.6350 O   0  0  0  0  0  0  0  0  0  0  0  0
  -11.0480    0.5280    0.1190 C   0  0  1  0  0  0  0  0  0  0  0  0
  -10.7410    2.0100   -0.0610 C   0  0  0  0  0  0  0  0  0  0  0  0
  -12.4480    0.2680   -0.4460 C   0  0  0  0  0  0  0  0  0  0  0  0
  -10.9970    0.1510    1.5690 C   0  0  0  0  0  0  0  0  0  0  0  0
   -7.8870   -0.9910   -1.2210 C   0  0  0  0  0  0  0  0  0  0  0  0
   -8.2570   -1.9440   -2.3210 C   0  0  0  0  0  0  0  0  0  0  0  0
   -6.6930   -0.7050   -0.7710 O   0  0  0  0  0  0  0  0  0  0  0  0
   -4.3400    0.4280    0.7760 O   0  0  0  0  0  0  0  0  0  0  0  0
    1.7450   -1.1180    2.2770 C   0  0  0  0  0  0  0  0  0  0  0  0
    2.8670   -0.5690    2.8030 C   0  0  0  0  0  0  0  0  0  0  0  0
    3.9480   -0.2240    1.9930 C   0  0  0  0  0  0  0  0  0  0  0  0
    5.1470    0.3690    2.6030 C   0  0  0  0  0  0  0  0  0  0  0  0
    9.6390    0.4300    0.2080 C   0  0  0  0  0  0  0  0  0  0  0  0
   10.4680    1.5080    0.0240 C   0  0  0  0  0  0  0  0  0  0  0  0
  1  2  1  0
  2  3  2  0
  2 48  1  0
  3  4  1  0
  4  5  2  0
  5  6  1  0
  5 47  1  0
  6  7  2  0
  6  8  1  0
  8  9  1  0
  8 14  1  0
  9 10  1  0
 10 11  1  0
 11 12  1  0
 12 13  1  0
 13 14  1  0
 14 15  1  1
 15 16  2  0
 15 45  1  0
 16 17  1  0
 17 18  1  0
 17 43  2  0
 18 19  1  0
 19 20  2  0
 19 24  1  0
 20 21  1  0
 21 22  2  0
 22 23  1  0
 23 24  2  0
 24 25  1  0
 25 26  2  3
 26 27  1  0
 27 28  2  0
 27 42  1  0
 28 29  1  0
 29 30  2  0
 30 31  1  0
 30 42  1  0
 31 32  2  0
 31 41  1  0
 32 33  1  0
 33 34  1  0
 33 39  2  0
 34 35  1  0
 35 36  1  1
 35 37  1  0
 35 38  1  0
 39 40  1  0
 39 41  1  0
 43 44  1  0
 44 45  2  0
 45 46  1  0
 47 48  2  0
M  END
