
     RDKit          3D

 48 52  0  0  0  0  0  0  0  0999 V2000
    9.5890    4.6390    2.2190 C   0  0  0  0  0  0  0  0  0  0  0  0
    9.9680    3.3400    1.8190 O   0  0  0  0  0  0  0  0  0  0  0  0
    9.0080    2.4050    1.4690 C   0  0  0  0  0  0  0  0  0  0  0  0
    9.3650    1.1380    1.0770 C   0  0  0  0  0  0  0  0  0  0  0  0
    8.4210    0.2270    0.7350 C   0  0  0  0  0  0  0  0  0  0  0  0
    7.0340    0.4810    0.7480 C   0  0  0  0  0  0  0  0  0  0  0  0
    6.1520   -0.5910    0.3710 C   0  0  0  0  0  0  0  0  0  0  0  0
    4.8650   -0.6410    0.1960 C   0  0  0  0  0  0  0  0  0  0  0  0
    4.2340   -1.9100   -0.1980 C   0  0  0  0  0  0  0  0  0  0  0  0
    4.9160   -3.0750   -0.4200 C   0  0  0  0  0  0  0  0  0  0  0  0
    4.2490   -4.2560   -0.7970 C   0  0  0  0  0  0  0  0  0  0  0  0
    2.8810   -4.2170   -0.9390 C   0  0  0  0  0  0  0  0  0  0  0  0
    2.1760   -3.0560   -0.7190 C   0  0  0  0  0  0  0  0  0  0  0  0
    2.8380   -1.9010   -0.3500 C   0  0  0  0  0  0  0  0  0  0  0  0
    2.1750   -0.7100   -0.1170 O   0  0  0  0  0  0  0  0  0  0  0  0
    0.7770   -0.7160   -0.2780 C   0  0  0  0  0  0  0  0  0  0  0  0
    0.1880   -0.3490   -1.4600 C   0  0  0  0  0  0  0  0  0  0  0  0
   -1.1870   -0.3390   -1.6670 C   0  0  0  0  0  0  0  0  0  0  0  0
   -2.0210   -0.7160   -0.6420 C   0  0  0  0  0  0  0  0  0  0  0  0
   -3.5030   -0.7320   -0.8360 C   0  0  1  0  0  0  0  0  0  0  0  0
   -4.1590   -0.8240    0.4810 C   0  0  0  0  0  0  0  0  0  0  0  0
   -3.9360    0.1880    1.4530 N   0  0  0  0  0  0  0  0  0  0  0  0
   -4.2380    1.5540    1.3990 C   0  0  0  0  0  0  0  0  0  0  0  0
   -4.7910    2.0080    0.3710 O   0  0  0  0  0  0  0  0  0  0  0  0
   -3.9360    2.4950    2.5000 C   0  0  0  0  0  0  0  0  0  0  0  0
   -4.1080    3.8650    2.2720 C   0  0  0  0  0  0  0  0  0  0  0  0
   -3.8510    4.7750    3.2780 C   0  0  0  0  0  0  0  0  0  0  0  0
   -3.4220    4.3820    4.5280 C   0  0  0  0  0  0  0  0  0  0  0  0
   -3.1740    5.3410    5.5210 O   0  0  0  0  0  0  0  0  0  0  0  0
   -3.2510    3.0320    4.7570 C   0  0  0  0  0  0  0  0  0  0  0  0
   -3.5120    2.1140    3.7360 C   0  0  0  0  0  0  0  0  0  0  0  0
   -3.9700    0.4030   -1.6860 C   0  0  0  0  0  0  0  0  0  0  0  0
   -3.1370    1.2980   -2.0190 O   0  0  0  0  0  0  0  0  0  0  0  0
   -5.2950    0.5590   -2.1630 N   0  0  0  0  0  0  0  0  0  0  0  0
   -5.6320    1.7150   -3.0220 C   0  0  0  0  0  0  0  0  0  0  0  0
   -6.4010   -0.3150   -1.8720 C   0  0  0  0  0  0  0  0  0  0  0  0
   -3.7600   -1.9490   -1.7150 C   0  0  0  0  0  0  0  0  0  0  0  0
   -3.7270   -1.7650   -3.0760 C   0  0  0  0  0  0  0  0  0  0  0  0
   -3.9350   -2.8410   -3.9050 C   0  0  0  0  0  0  0  0  0  0  0  0
   -4.1760   -4.1000   -3.3610 C   0  0  0  0  0  0  0  0  0  0  0  0
   -4.4020   -5.2630   -4.2540 C   0  0  0  0  0  0  0  0  0  0  0  0
   -4.2050   -4.2700   -2.0030 C   0  0  0  0  0  0  0  0  0  0  0  0
   -3.9920   -3.1660   -1.1840 C   0  0  0  0  0  0  0  0  0  0  0  0
   -1.4440   -1.0870    0.5460 C   0  0  0  0  0  0  0  0  0  0  0  0
   -0.0570   -1.0950    0.7500 C   0  0  0  0  0  0  0  0  0  0  0  0
    6.6850    1.7430    1.1410 C   0  0  0  0  0  0  0  0  0  0  0  0
    5.2830    2.1660    1.2370 C   0  0  0  0  0  0  0  0  0  0  0  0
    7.6650    2.6830    1.4930 C   0  0  0  0  0  0  0  0  0  0  0  0
  1  2  1  0
  2  3  1  0
  3  4  2  0
  3 48  1  0
  4  5  1  0
  5  6  2  0
  6  7  1  0
  6 46  1  0
  7  8  2  3
  8  9  1  0
  9 10  2  0
  9 14  1  0
 10 11  1  0
 11 12  2  0
 12 13  1  0
 13 14  2  0
 14 15  1  0
 15 16  1  0
 16 17  2  0
 16 45  1  0
 17 18  1  0
 18 19  2  0
 19 20  1  0
 19 44  1  0
 20 21  1  1
 20 32  1  0
 20 37  1  0
 21 22  1  0
 22 23  1  0
 23 24  2  0
 23 25  1  0
 25 26  2  0
 25 31  1  0
 26 27  1  0
 27 28  2  0
 28 29  1  0
 28 30  1  0
 30 31  2  0
 32 33  2  0
 32 34  1  0
 34 35  1  0
 34 36  1  0
 37 38  2  0
 37 43  1  0
 38 39  1  0
 39 40  2  0
 40 41  1  0
 40 42  1  0
 42 43  2  0
 44 45  2  0
 46 47  1  0
 46 48  2  0
M  END
