
     RDKit          3D

 48 53  0  0  0  0  0  0  0  0999 V2000
  -10.4160    1.8490    3.5360 C   0  0  0  0  0  0  0  0  0  0  0  0
   -9.3590    1.4450    2.5680 C   0  0  0  0  0  0  0  0  0  0  0  0
   -9.6530    0.9130    1.3410 C   0  0  0  0  0  0  0  0  0  0  0  0
   -8.6680    0.5360    0.4400 C   0  0  0  0  0  0  0  0  0  0  0  0
   -7.3300    0.6740    0.7270 C   0  0  0  0  0  0  0  0  0  0  0  0
   -6.2430    0.3150   -0.1470 C   0  0  0  0  0  0  0  0  0  0  0  0
   -5.0640    0.5170    0.4050 O   0  0  0  0  0  0  0  0  0  0  0  0
   -6.1480   -0.1920   -1.4270 N   0  0  0  0  0  0  0  0  0  0  0  0
   -7.3400   -0.4460   -2.1860 C   0  0  0  0  0  0  0  0  0  0  0  0
   -6.9910   -0.9320   -3.6060 C   0  0  0  0  0  0  0  0  0  0  0  0
   -6.0250   -0.2010   -4.2200 O   0  0  0  0  0  0  0  0  0  0  0  0
   -5.6740    0.9980   -3.6640 C   0  0  0  0  0  0  0  0  0  0  0  0
   -4.4350    0.7260   -2.7900 C   0  0  0  0  0  0  0  0  0  0  0  0
   -4.8030   -0.4560   -1.9570 C   0  0  1  0  0  0  0  0  0  0  0  0
   -3.8210   -0.8370   -0.9300 C   0  0  0  0  0  0  0  0  0  0  0  0
   -2.6590   -0.1430   -0.7130 C   0  0  0  0  0  0  0  0  0  0  0  0
   -1.7050   -0.4850    0.2630 C   0  0  0  0  0  0  0  0  0  0  0  0
   -0.6280    0.2500    0.3920 O   0  0  0  0  0  0  0  0  0  0  0  0
    0.5620    0.6020   -0.0140 C   0  0  0  0  0  0  0  0  0  0  0  0
    0.7150    1.9620   -0.3830 C   0  0  0  0  0  0  0  0  0  0  0  0
    1.8880    2.4930   -0.8230 C   0  0  0  0  0  0  0  0  0  0  0  0
    2.9730    1.6750   -0.9140 C   0  0  0  0  0  0  0  0  0  0  0  0
    2.8490    0.3260   -0.5580 C   0  0  0  0  0  0  0  0  0  0  0  0
    1.6730   -0.2360   -0.1080 C   0  0  0  0  0  0  0  0  0  0  0  0
    1.5300   -1.6210    0.1560 C   0  0  0  0  0  0  0  0  0  0  0  0
    2.3090   -2.5910    0.4910 C   0  0  0  0  0  0  0  0  0  0  0  0
    3.7100   -2.7020    0.7640 C   0  0  0  0  0  0  0  0  0  0  0  0
    4.3890   -3.9000    1.0320 C   0  0  0  0  0  0  0  0  0  0  0  0
    5.7140   -3.5990    1.2480 C   0  0  0  0  0  0  0  0  0  0  0  0
    5.8030   -2.2380    1.1040 C   0  0  0  0  0  0  0  0  0  0  0  0
    7.0590   -1.4750    1.2520 C   0  0  0  0  0  0  0  0  0  0  0  0
    7.1900   -0.1510    1.0920 N   0  0  0  0  0  0  0  0  0  0  0  0
    8.4790    0.2140    1.3010 C   0  0  0  0  0  0  0  0  0  0  0  0
    9.0540    1.4670    1.2410 O   0  0  0  0  0  0  0  0  0  0  0  0
    9.6060    2.0800    0.1150 C   0  0  1  0  0  0  0  0  0  0  0  0
    8.5360    2.2200   -0.9580 C   0  0  0  0  0  0  0  0  0  0  0  0
   10.0990    3.4520    0.5020 C   0  0  0  0  0  0  0  0  0  0  0  0
   10.7420    1.2200   -0.4130 C   0  0  0  0  0  0  0  0  0  0  0  0
    9.1330   -0.9620    1.5990 C   0  0  0  0  0  0  0  0  0  0  0  0
   10.5800   -1.1470    1.9200 C   0  0  0  0  0  0  0  0  0  0  0  0
    8.2370   -1.9450    1.5560 O   0  0  0  0  0  0  0  0  0  0  0  0
    4.6220   -1.7970    0.8300 O   0  0  0  0  0  0  0  0  0  0  0  0
   -1.9850   -1.5920    1.0340 C   0  0  0  0  0  0  0  0  0  0  0  0
   -3.1460   -2.2980    0.8280 C   0  0  0  0  0  0  0  0  0  0  0  0
   -4.0690   -1.9500   -0.1330 C   0  0  0  0  0  0  0  0  0  0  0  0
   -5.3260   -2.7400   -0.3340 C   0  0  0  0  0  0  0  0  0  0  0  0
   -7.0490    1.2230    1.9950 C   0  0  0  0  0  0  0  0  0  0  0  0
   -8.0270    1.5890    2.8690 C   0  0  0  0  0  0  0  0  0  0  0  0
  1  2  1  0
  2  3  2  0
  2 48  1  0
  3  4  1  0
  4  5  2  0
  5  6  1  0
  5 47  1  0
  6  7  2  0
  6  8  1  0
  8  9  1  0
  8 14  1  0
  9 10  1  0
 10 11  1  0
 11 12  1  0
 12 13  1  0
 13 14  1  0
 14 15  1  1
 15 16  2  0
 15 45  1  0
 16 17  1  0
 17 18  1  0
 17 43  2  0
 18 19  1  0
 19 20  2  0
 19 24  1  0
 20 21  1  0
 21 22  2  0
 22 23  1  0
 23 24  2  0
 24 25  1  0
 25 26  2  3
 26 27  1  0
 27 28  2  0
 27 42  1  0
 28 29  1  0
 29 30  2  0
 30 31  1  0
 30 42  1  0
 31 32  2  0
 31 41  1  0
 32 33  1  0
 33 34  1  0
 33 39  2  0
 34 35  1  0
 35 36  1  6
 35 37  1  0
 35 38  1  0
 39 40  1  0
 39 41  1  0
 43 44  1  0
 44 45  2  0
 45 46  1  0
 47 48  2  0
M  END
