
     RDKit          3D

 48 53  0  0  0  0  0  0  0  0999 V2000
   13.3660    2.3710    1.9390 C   0  0  0  0  0  0  0  0  0  0  0  0
   12.7380    2.4000    0.6860 O   0  0  0  0  0  0  0  0  0  0  0  0
   11.5100    1.8900    0.3870 C   0  0  0  0  0  0  0  0  0  0  0  0
   10.6930    1.2640    1.2910 C   0  0  0  0  0  0  0  0  0  0  0  0
    9.4460    0.7680    0.9050 C   0  0  0  0  0  0  0  0  0  0  0  0
    9.0490    0.9160   -0.3930 C   0  0  0  0  0  0  0  0  0  0  0  0
    7.8300    0.4500   -0.8410 O   0  0  0  0  0  0  0  0  0  0  0  0
    6.9220   -0.2020    0.0020 C   0  0  0  0  0  0  0  0  0  0  0  0
    5.6970   -0.5840   -0.7890 C   0  0  0  0  0  0  0  0  0  0  0  0
    5.1980   -1.8470   -0.7630 C   0  0  0  0  0  0  0  0  0  0  0  0
    4.0690   -2.1630   -1.5130 C   0  0  0  0  0  0  0  0  0  0  0  0
    3.4430   -1.2020   -2.2920 C   0  0  0  0  0  0  0  0  0  0  0  0
    2.2500   -1.5150   -3.0920 C   0  0  0  0  0  0  0  0  0  0  0  0
    0.9670   -1.1120   -2.4280 C   0  0  0  0  0  0  0  0  0  0  0  0
    0.3760    0.1040   -2.7230 C   0  0  0  0  0  0  0  0  0  0  0  0
   -0.7900    0.4210   -2.1040 C   0  0  0  0  0  0  0  0  0  0  0  0
   -1.4620   -0.3990   -1.1700 C   0  0  0  0  0  0  0  0  0  0  0  0
   -0.8790   -1.6010   -0.8710 C   0  0  0  0  0  0  0  0  0  0  0  0
    0.3270   -1.9230   -1.5160 C   0  0  0  0  0  0  0  0  0  0  0  0
   -1.3430   -2.5340    0.0020 O   0  0  0  0  0  0  0  0  0  0  0  0
   -1.7340   -2.4400    1.3500 C   0  0  0  0  0  0  0  0  0  0  0  0
   -1.9340   -3.8860    1.8640 C   0  0  0  0  0  0  0  0  0  0  0  0
   -1.7830   -4.7140    0.7970 O   0  0  0  0  0  0  0  0  0  0  0  0
   -2.5550   -5.8060    0.6680 C   0  0  0  0  0  0  0  0  0  0  0  0
   -3.7110   -5.7330   -0.2920 C   0  0  0  0  0  0  0  0  0  0  0  0
   -3.3830   -5.2990   -1.6710 C   0  0  0  0  0  0  0  0  0  0  0  0
   -3.5230   -3.8570   -1.9960 C   0  0  0  0  0  0  0  0  0  0  0  0
   -4.3030   -3.0520   -0.9770 C   0  0  0  0  0  0  0  0  0  0  0  0
   -4.1950   -1.7240   -1.1990 O   0  0  0  0  0  0  0  0  0  0  0  0
   -4.0010   -0.4940   -0.7090 C   0  0  0  0  0  0  0  0  0  0  0  0
   -5.1020    0.2440   -0.2130 C   0  0  0  0  0  0  0  0  0  0  0  0
   -5.0030    1.5190    0.3040 C   0  0  0  0  0  0  0  0  0  0  0  0
   -6.2050    2.2290    0.7860 C   0  0  0  0  0  0  0  0  0  0  0  0
   -7.4640    1.7590    0.7960 N   0  0  0  0  0  0  0  0  0  0  0  0
   -8.2300    2.6900    1.2780 O   0  0  0  0  0  0  0  0  0  0  0  0
   -7.4910    3.7420    1.5760 C   0  0  0  0  0  0  0  0  0  0  0  0
   -8.0630    4.9890    2.1520 C   0  0  2  0  0  0  0  0  0  0  0  0
   -7.7360    6.1910    1.2940 C   0  0  0  0  0  0  0  0  0  0  0  0
   -7.4000    5.2300    3.4970 C   0  0  0  0  0  0  0  0  0  0  0  0
   -9.5530    4.8550    2.3390 C   0  0  0  0  0  0  0  0  0  0  0  0
   -6.1890    3.4780    1.2730 N   0  0  0  0  0  0  0  0  0  0  0  0
   -3.7720    2.1070    0.3410 C   0  0  0  0  0  0  0  0  0  0  0  0
   -2.6820    1.4040   -0.1400 C   0  0  0  0  0  0  0  0  0  0  0  0
   -2.7440    0.1350   -0.6600 C   0  0  0  0  0  0  0  0  0  0  0  0
    3.9400    0.0800   -2.3240 C   0  0  0  0  0  0  0  0  0  0  0  0
    5.0750    0.3790   -1.5640 C   0  0  0  0  0  0  0  0  0  0  0  0
    9.8510    1.5450   -1.3360 C   0  0  0  0  0  0  0  0  0  0  0  0
   11.0710    2.0220   -0.9300 C   0  0  0  0  0  0  0  0  0  0  0  0
  1  2  1  0
  2  3  1  0
  3  4  2  0
  3 48  1  0
  4  5  1  0
  5  6  2  0
  6  7  1  0
  6 47  1  0
  7  8  1  0
  8  9  1  0
  9 10  2  0
  9 46  1  0
 10 11  1  0
 11 12  2  0
 12 13  1  0
 12 45  1  0
 13 14  1  0
 14 15  2  0
 14 19  1  0
 15 16  1  0
 16 17  2  0
 17 18  1  0
 17 44  1  0
 18 19  2  0
 18 20  1  0
 20 21  1  0
 21 22  1  0
 22 23  1  0
 23 24  1  0
 24 25  1  0
 25 26  1  0
 26 27  1  0
 27 28  1  0
 28 29  1  0
 29 30  1  0
 30 31  2  0
 30 44  1  0
 31 32  1  0
 32 33  1  0
 32 42  2  0
 33 34  2  0
 33 41  1  0
 34 35  1  0
 35 36  1  0
 36 37  1  0
 36 41  2  0
 37 38  1  6
 37 39  1  0
 37 40  1  0
 42 43  1  0
 43 44  2  0
 45 46  2  0
 47 48  2  0
M  END
