
     RDKit          3D

 48 52  0  0  0  0  0  0  0  0999 V2000
    1.5080   -1.3220   -4.1320 C   0  0  0  0  0  0  0  0  0  0  0  0
    1.7080   -0.4090   -2.9870 C   0  0  0  0  0  0  0  0  0  0  0  0
    1.0630    0.6500   -2.9610 O   0  0  0  0  0  0  0  0  0  0  0  0
    2.6380   -0.7680   -1.9380 C   0  0  0  0  0  0  0  0  0  0  0  0
    3.4300   -1.9130   -2.1020 C   0  0  0  0  0  0  0  0  0  0  0  0
    4.3880   -2.2820   -1.1790 C   0  0  0  0  0  0  0  0  0  0  0  0
    4.6270   -1.5540   -0.0440 C   0  0  0  0  0  0  0  0  0  0  0  0
    5.6030   -1.9080    0.8890 N   0  0  0  0  0  0  0  0  0  0  0  0
    6.6770   -2.7820    0.6960 C   0  0  0  0  0  0  0  0  0  0  0  0
    6.8530   -3.3360   -0.4090 O   0  0  0  0  0  0  0  0  0  0  0  0
    7.6580   -3.0950    1.7880 C   0  0  2  0  0  0  0  0  0  0  0  0
    6.8690   -3.9820    2.7700 C   0  0  0  0  0  0  0  0  0  0  0  0
    8.1260   -1.8690    2.5000 C   0  0  0  0  0  0  0  0  0  0  0  0
    8.6950   -3.9230    1.2600 N   0  0  0  0  0  0  0  0  0  0  0  0
    3.8400   -0.4090    0.1310 C   0  0  0  0  0  0  0  0  0  0  0  0
    2.8850   -0.0510   -0.7950 C   0  0  0  0  0  0  0  0  0  0  0  0
    2.1160    1.1160   -0.5660 O   0  0  0  0  0  0  0  0  0  0  0  0
    0.7420    0.9890   -0.3130 C   0  0  0  0  0  0  0  0  0  0  0  0
    0.1800   -0.2370   -0.0710 C   0  0  0  0  0  0  0  0  0  0  0  0
   -1.1700   -0.3690    0.1780 C   0  0  0  0  0  0  0  0  0  0  0  0
   -2.0090    0.7180    0.1980 C   0  0  0  0  0  0  0  0  0  0  0  0
   -3.3910    0.6780    0.5780 C   0  0  0  0  0  0  0  0  0  0  0  0
   -4.0450   -0.2330    1.2100 C   0  0  0  0  0  0  0  0  0  0  0  0
   -3.5730   -1.4950    1.7390 C   0  0  0  0  0  0  0  0  0  0  0  0
   -4.2400   -2.5680    1.1640 O   0  0  0  0  0  0  0  0  0  0  0  0
   -4.3150   -2.8790   -0.1690 C   0  0  0  0  0  0  0  0  0  0  0  0
   -3.7530   -2.1660   -1.0080 O   0  0  0  0  0  0  0  0  0  0  0  0
   -5.0590   -4.0570   -0.6020 C   0  0  0  0  0  0  0  0  0  0  0  0
   -5.7010   -4.8770    0.3370 C   0  0  0  0  0  0  0  0  0  0  0  0
   -6.4120   -5.9960   -0.0430 C   0  0  0  0  0  0  0  0  0  0  0  0
   -6.5240   -6.3590   -1.3650 C   0  0  0  0  0  0  0  0  0  0  0  0
   -7.2900   -7.5660   -1.8000 C   0  0  0  0  0  0  0  0  0  0  0  0
   -5.8970   -5.5590   -2.2960 C   0  0  0  0  0  0  0  0  0  0  0  0
   -5.1820   -4.4350   -1.9170 C   0  0  0  0  0  0  0  0  0  0  0  0
   -1.4640    2.0210   -0.0520 C   0  0  0  0  0  0  0  0  0  0  0  0
   -2.3520    3.1370   -0.1810 C   0  0  0  0  0  0  0  0  0  0  0  0
   -2.2120    4.4130    0.1110 C   0  0  0  0  0  0  0  0  0  0  0  0
   -1.0280    4.9500    0.6820 C   0  0  0  0  0  0  0  0  0  0  0  0
   -0.7530    6.1850    0.9880 C   0  0  0  0  0  0  0  0  0  0  0  0
    0.4990    6.5640    1.5640 O   0  0  0  0  0  0  0  0  0  0  0  0
    0.5420    7.9270    1.8210 C   0  0  0  0  0  0  0  0  0  0  0  0
   -0.7470    8.4880    1.3510 C   0  0  0  0  0  0  0  0  0  0  0  0
   -1.2100    9.7960    1.3530 C   0  0  0  0  0  0  0  0  0  0  0  0
   -2.4590   10.1000    0.8710 C   0  0  0  0  0  0  0  0  0  0  0  0
   -3.2060    9.0560    0.3980 C   0  0  0  0  0  0  0  0  0  0  0  0
   -2.7500    7.7550    0.3940 C   0  0  0  0  0  0  0  0  0  0  0  0
   -1.4890    7.4080    0.8740 C   0  0  0  0  0  0  0  0  0  0  0  0
   -0.1130    2.0660   -0.2940 C   0  0  0  0  0  0  0  0  0  0  0  0
  1  2  1  0
  2  3  2  0
  2  4  1  0
  4  5  2  0
  4 16  1  0
  5  6  1  0
  6  7  2  0
  7  8  1  0
  7 15  1  0
  8  9  1  0
  9 10  2  0
  9 11  1  0
 11 12  1  1
 11 13  1  0
 11 14  1  0
 15 16  2  0
 16 17  1  0
 17 18  1  0
 18 19  2  0
 18 48  1  0
 19 20  1  0
 20 21  2  0
 21 22  1  0
 21 35  1  0
 22 23  2  3
 23 24  1  0
 24 25  1  0
 25 26  1  0
 26 27  2  0
 26 28  1  0
 28 29  2  0
 28 34  1  0
 29 30  1  0
 30 31  2  0
 31 32  1  0
 31 33  1  0
 33 34  2  0
 35 36  1  0
 35 48  2  0
 36 37  2  3
 37 38  1  0
 38 39  2  3
 39 40  1  0
 39 47  1  0
 40 41  1  0
 41 42  1  0
 42 43  2  0
 42 47  1  0
 43 44  1  0
 44 45  2  0
 45 46  1  0
 46 47  2  0
M  END
