
     RDKit          3D

 18 19  0  0  0  0  0  0  0  0999 V2000
   -2.3040   -1.7750   -2.3440 N   0  0  0  0  0  0  0  0  0  0  0  0
   -2.5570   -1.0520   -1.1570 C   0  0  0  0  0  0  0  0  0  0  0  0
   -3.9140   -0.9100   -0.7570 N   0  0  0  0  0  0  0  0  0  0  0  0
   -1.5530   -0.5550   -0.4760 C   0  0  0  0  0  0  0  0  0  0  0  0
   -0.2040   -0.7450   -0.9370 C   0  0  0  0  0  0  0  0  0  0  0  0
   -0.0020   -1.3860   -1.9970 O   0  0  0  0  0  0  0  0  0  0  0  0
    0.9290   -0.2650   -0.2850 O   0  0  0  0  0  0  0  0  0  0  0  0
    2.2370   -0.5010   -0.8090 C   0  0  0  0  0  0  0  0  0  0  0  0
    3.2490    0.1160    0.0940 C   0  0  2  0  0  0  0  0  0  0  0  0
    3.1880    1.5850    0.3280 C   0  0  0  0  0  0  0  0  0  0  0  0
    4.5990    1.5540    0.4360 O   0  0  0  0  0  0  0  0  0  0  0  0
    4.5430    0.5500   -0.5590 C   0  0  0  0  0  0  0  0  0  0  0  0
   -1.8210    0.1900    0.7470 C   0  0  0  0  0  0  0  0  0  0  0  0
   -1.1740    1.3040    1.1960 N   0  0  0  0  0  0  0  0  0  0  0  0
   -1.6890    1.7060    2.3470 N   0  0  0  0  0  0  0  0  0  0  0  0
   -2.6880    0.8680    2.6830 C   0  0  0  0  0  0  0  0  0  0  0  0
   -3.4250    0.9090    3.7020 O   0  0  0  0  0  0  0  0  0  0  0  0
   -2.7540   -0.0540    1.6910 N   0  0  0  0  0  0  0  0  0  0  0  0
  1  2  1  0
  2  3  1  0
  2  4  2  3
  4  5  1  0
  4 13  1  0
  5  6  2  0
  5  7  1  0
  7  8  1  0
  9  8  1  6
  9 10  1  0
  9 12  1  0
 10 11  1  0
 11 12  1  0
 13 14  2  0
 13 18  1  0
 14 15  1  0
 15 16  1  0
 16 17  2  0
 16 18  1  0
M  END
