
     RDKit          3D

 18 19  0  0  0  0  0  0  0  0999 V2000
   -0.1410   -1.7070    1.3410 N   0  0  0  0  0  0  0  0  0  0  0  0
    0.6440   -0.8420    0.5510 C   0  0  0  0  0  0  0  0  0  0  0  0
    2.0060   -0.9420    0.5330 N   0  0  0  0  0  0  0  0  0  0  0  0
    2.7960   -0.1440   -0.2000 C   0  0  0  0  0  0  0  0  0  0  0  0
    4.2840   -0.3130   -0.1690 C   0  0  0  0  0  0  0  0  0  0  0  0
    4.8550    0.4720    0.8380 O   0  0  0  0  0  0  0  0  0  0  0  0
    2.1930    0.8250   -0.9730 C   0  0  0  0  0  0  0  0  0  0  0  0
    0.8040    0.9470   -0.9720 C   0  0  0  0  0  0  0  0  0  0  0  0
    0.0090    0.1170   -0.2110 C   0  0  0  0  0  0  0  0  0  0  0  0
   -1.4100    0.1940   -0.1690 N   0  0  0  0  0  0  0  0  0  0  0  0
   -2.1850   -0.8550   -0.5240 C   0  0  0  0  0  0  0  0  0  0  0  0
   -1.6170   -1.9150   -0.8970 O   0  0  0  0  0  0  0  0  0  0  0  0
   -3.5270   -0.7880   -0.4860 N   0  0  0  0  0  0  0  0  0  0  0  0
   -4.1490    0.3290   -0.0930 N   0  0  0  0  0  0  0  0  0  0  0  0
   -3.4380    1.4110    0.2740 C   0  0  0  0  0  0  0  0  0  0  0  0
   -3.9860    2.4840    0.6510 O   0  0  0  0  0  0  0  0  0  0  0  0
   -2.0640    1.3070    0.2230 C   0  0  0  0  0  0  0  0  0  0  0  0
   -1.3770    2.3060    0.5610 O   0  0  0  0  0  0  0  0  0  0  0  0
  1  2  1  0
  2  3  2  0
  2  9  1  0
  3  4  1  0
  4  5  1  0
  4  7  2  0
  5  6  1  0
  7  8  1  0
  8  9  2  0
  9 10  1  0
 10 11  1  0
 10 17  1  0
 11 12  2  0
 11 13  1  0
 13 14  1  0
 14 15  1  0
 15 16  2  0
 15 17  1  0
 17 18  2  0
M  END
