
     RDKit          3D

 18 18  0  0  0  0  0  0  0  0999 V2000
    2.4710    1.7260   -0.7460 C   0  0  0  0  0  0  0  0  0  0  0  0
    2.7110    0.8230    0.4490 C   0  0  0  0  0  0  0  0  0  0  0  0
    1.7550   -0.0650    0.8260 C   0  0  0  0  0  0  0  0  0  0  0  0
    0.6260   -0.0650    0.0820 N   0  0  0  0  0  0  0  0  0  0  0  0
   -0.5630   -0.9380    0.2130 C   0  0  0  0  0  0  0  0  0  0  0  0
   -0.4320   -1.8830    0.9030 O   0  0  0  0  0  0  0  0  0  0  0  0
   -1.6110   -0.3730   -0.5330 N   0  0  0  0  0  0  0  0  0  0  0  0
   -2.6780   -1.6850   -0.3860 C   0  0  0  0  0  0  0  0  0  0  0  0
   -2.1800   -2.6990    0.0660 O   0  0  0  0  0  0  0  0  0  0  0  0
   -4.0040   -1.4490   -0.7650 C   0  0  0  0  0  0  0  0  0  0  0  0
   -4.7650   -0.5120   -1.1790 C   0  0  0  0  0  0  0  0  0  0  0  0
   -4.4850    0.8480   -1.4390 N   0  0  0  0  0  0  0  0  0  0  0  0
   -4.9200    1.4380   -2.6010 O   0  0  0  0  0  0  0  0  0  0  0  0
    1.9250   -0.7540    2.1010 C   0  0  0  0  0  0  0  0  0  0  0  0
    1.1070   -1.5840    2.5270 O   0  0  0  0  0  0  0  0  0  0  0  0
    3.0740   -0.4800    2.9120 N   0  0  0  0  0  0  0  0  0  0  0  0
    4.2270    0.1090    2.3190 C   0  0  0  0  0  0  0  0  0  0  0  0
    3.9140    0.9070    1.1640 N   0  0  0  0  0  0  0  0  0  0  0  0
  1  2  1  0
  2  3  2  0
  2 18  1  0
  3  4  1  0
  3 14  1  0
  4  5  1  0
  5  6  2  0
  5  7  1  0
  7  8  1  0
  8  9  2  0
  8 10  1  0
 10 11  2  3
 11 12  1  0
 12 13  1  0
 14 15  2  0
 14 16  1  0
 16 17  1  0
 17 18  1  0
M  END
