
     RDKit          3D

 18 18  0  0  0  0  0  0  0  0999 V2000
    4.2120   -2.7820    0.5430 C   0  0  0  0  0  0  0  0  0  0  0  0
    3.1180   -2.0570    0.4000 C   0  0  0  0  0  0  0  0  0  0  0  0
    3.2140   -0.5930    0.4040 C   0  0  0  0  0  0  0  0  0  0  0  0
    2.1690    0.2810    0.2670 C   0  0  0  0  0  0  0  0  0  0  0  0
    0.8800   -0.1900    0.1050 N   0  0  0  0  0  0  0  0  0  0  0  0
   -0.3300    0.4910   -0.0510 C   0  0  0  0  0  0  0  0  0  0  0  0
   -0.4260    1.7150   -0.0690 O   0  0  0  0  0  0  0  0  0  0  0  0
   -1.5670   -0.3280   -0.2010 C   0  0  0  0  0  0  0  0  0  0  0  0
   -1.4920   -1.5520   -0.2130 O   0  0  0  0  0  0  0  0  0  0  0  0
   -2.7850    0.3440   -0.3220 N   0  0  0  0  0  0  0  0  0  0  0  0
   -3.9640   -0.3720   -0.4650 N   0  0  0  0  0  0  0  0  0  0  0  0
   -5.2380    0.2780   -0.5380 C   0  0  0  0  0  0  0  0  0  0  0  0
   -6.4640   -0.4190   -0.6840 N   0  0  0  0  0  0  0  0  0  0  0  0
   -5.2220    1.5300   -0.4660 O   0  0  0  0  0  0  0  0  0  0  0  0
    2.6960    1.6260    0.3260 C   0  0  0  0  0  0  0  0  0  0  0  0
    2.1480    2.8080    0.2490 C   0  0  0  0  0  0  0  0  0  0  0  0
    4.1480    1.4560    0.5110 N   0  0  0  0  0  0  0  0  0  0  0  0
    4.3600    0.1310    0.5450 O   0  0  0  0  0  0  0  0  0  0  0  0
  1  2  2  0
  2  3  1  0
  3  4  2  0
  3 18  1  0
  4  5  1  0
  4 15  1  0
  5  6  1  0
  6  7  2  0
  6  8  1  0
  8  9  2  0
  8 10  1  0
 10 11  1  0
 11 12  1  0
 12 13  1  0
 12 14  2  0
 15 16  2  0
 15 17  1  0
 17 18  1  0
M  END
