
     RDKit          3D

 27 28  0  0  0  0  0  0  0  0999 V2000
   -5.1820    1.4150    2.9770 C   0  0  0  0  0  0  0  0  0  0  0  0
   -4.1010    1.4550    2.2220 C   0  0  0  0  0  0  0  0  0  0  0  0
   -4.0870    1.6920    0.7480 C   0  0  0  0  0  0  0  0  0  0  0  0
   -3.4690    0.5990    0.0850 N   0  0  0  0  0  0  0  0  0  0  0  0
   -2.1040    0.4110   -0.1570 C   0  0  0  0  0  0  0  0  0  0  0  0
   -1.8320   -0.7120   -0.8190 O   0  0  0  0  0  0  0  0  0  0  0  0
   -0.9350    1.1850    0.1620 C   0  0  0  0  0  0  0  0  0  0  0  0
   -0.9660    2.3350    0.9010 C   0  0  0  0  0  0  0  0  0  0  0  0
    0.2260    3.0410    1.1500 C   0  0  0  0  0  0  0  0  0  0  0  0
    0.1200    4.5080    2.1020 Cl  0  0  0  0  0  0  0  0  0  0  0  0
    1.4230    2.5910    0.6600 C   0  0  0  0  0  0  0  0  0  0  0  0
    1.4630    1.4310   -0.0850 C   0  0  0  0  0  0  0  0  0  0  0  0
    2.6870    0.9770   -0.5810 O   0  0  0  0  0  0  0  0  0  0  0  0
    2.6960   -0.2140   -1.3410 C   0  0  0  0  0  0  0  0  0  0  0  0
    4.1060   -0.5610   -1.8000 C   0  0  0  0  0  0  0  0  0  0  0  0
    4.9460   -0.7390   -0.5820 C   0  0  0  0  0  0  0  0  0  0  0  0
    6.2660   -1.0620   -0.8630 O   0  0  0  0  0  0  0  0  0  0  0  0
    7.0230   -1.2220    0.2110 N   0  0  0  0  0  0  0  0  0  0  0  0
    8.4400   -1.1890    0.1110 C   0  0  0  0  0  0  0  0  0  0  0  0
    9.2740   -0.9780    1.2540 N   0  0  0  0  0  0  0  0  0  0  0  0
    8.9830   -1.3530   -1.0350 N   0  0  0  0  0  0  0  0  0  0  0  0
    0.3170    0.7320   -0.3370 C   0  0  0  0  0  0  0  0  0  0  0  0
   -4.3750   -0.4440   -0.4220 C   0  0  2  0  0  0  0  0  0  0  0  0
   -5.2910    0.0670   -1.5190 C   0  0  0  0  0  0  0  0  0  0  0  0
   -6.3630   -1.0070   -1.5700 C   0  0  0  0  0  0  0  0  0  0  0  0
   -6.2060   -1.8690   -0.3330 C   0  0  0  0  0  0  0  0  0  0  0  0
   -5.3400   -0.9510    0.5780 C   0  0  0  0  0  0  0  0  0  0  0  0
  1  2  2  0
  2  3  1  0
  3  4  1  0
  4  5  1  0
 23  4  1  1
  5  6  2  0
  5  7  1  0
  7  8  2  0
  7 22  1  0
  8  9  1  0
  9 10  1  0
  9 11  2  0
 11 12  1  0
 12 13  1  0
 12 22  2  0
 13 14  1  0
 14 15  1  0
 15 16  1  0
 16 17  1  0
 17 18  1  0
 18 19  1  0
 19 20  1  0
 19 21  2  0
 23 24  1  0
 23 27  1  0
 24 25  1  0
 25 26  1  0
 26 27  1  0
M  CHG  1  21   1
M  END
