
     RDKit          3D

 18 18  0  0  0  0  0  0  0  0999 V2000
    6.2750    0.5780    1.1490 C   0  0  0  0  0  0  0  0  0  0  0  0
    4.9560    0.1410    1.4760 O   0  0  0  0  0  0  0  0  0  0  0  0
    3.8530    0.5630    0.7290 C   0  0  0  0  0  0  0  0  0  0  0  0
    4.0360    1.3300   -0.2320 O   0  0  0  0  0  0  0  0  0  0  0  0
    2.5190    0.1630    1.0040 N   0  0  0  0  0  0  0  0  0  0  0  0
    1.4220    0.5780    0.2680 N   0  0  0  0  0  0  0  0  0  0  0  0
    0.8330   -0.3230   -0.6480 C   0  0  0  0  0  0  0  0  0  0  0  0
    1.6470   -1.1260   -1.5500 C   0  0  0  0  0  0  0  0  0  0  0  0
    1.1780   -1.9540   -2.3970 N   0  0  0  0  0  0  0  0  0  0  0  0
   -0.4900   -0.4870   -0.7340 C   0  0  0  0  0  0  0  0  0  0  0  0
   -1.3530    0.2850    0.1430 C   0  0  0  0  0  0  0  0  0  0  0  0
   -2.6680    0.2020    0.1400 C   0  0  0  0  0  0  0  0  0  0  0  0
   -3.3890   -0.6480   -0.7160 N   0  0  0  0  0  0  0  0  0  0  0  0
   -4.7900   -0.6980   -0.6780 N   0  0  0  0  0  0  0  0  0  0  0  0
   -5.4840    0.1430    0.2620 C   0  0  0  0  0  0  0  0  0  0  0  0
   -6.6400   -0.1320    0.6520 O   0  0  0  0  0  0  0  0  0  0  0  0
   -4.7370    1.3570    0.7330 C   0  0  0  0  0  0  0  0  0  0  0  0
   -3.3830    1.0020    1.0340 O   0  0  0  0  0  0  0  0  0  0  0  0
  1  2  1  0
  2  3  1  0
  3  4  2  0
  3  5  1  0
  5  6  1  0
  6  7  1  0
  7  8  1  0
  7 10  2  3
  8  9  2  0
 10 11  1  0
 11 12  2  3
 12 13  1  0
 12 18  1  0
 13 14  1  0
 14 15  1  0
 15 16  2  0
 15 17  1  0
 17 18  1  0
M  END
