
     RDKit          3D

 12 11  0  0  0  0  0  0  0  0999 V2000
    2.9660   -0.9670   -0.5090 C   0  0  0  0  0  0  0  0  0  0  0  0
    2.3080    0.2790   -0.5990 O   0  0  0  0  0  0  0  0  0  0  0  0
    1.7690    0.6660    0.6010 C   0  0  1  0  0  0  0  0  0  0  0  0
    2.6050    1.7150    1.1040 O   0  0  0  0  0  0  0  0  0  0  0  0
    0.3880    1.1790    0.5480 C   0  0  0  0  0  0  0  0  0  0  0  0
   -0.6710    0.2650    0.0400 C   0  0  2  0  0  0  0  0  0  0  0  0
   -0.7270   -0.9560    0.8910 C   0  0  0  0  0  0  0  0  0  0  0  0
   -1.7120   -1.9300    0.5180 N   0  0  0  0  0  0  0  0  0  0  0  0
   -0.4860   -0.0120   -1.4050 C   0  0  0  0  0  0  0  0  0  0  0  0
   -0.5310    1.1960   -2.1290 O   0  0  0  0  0  0  0  0  0  0  0  0
   -1.9930    1.0580    0.1580 C   0  0  0  0  0  0  0  0  0  0  0  0
   -3.0270    0.2760   -0.3000 O   0  0  0  0  0  0  0  0  0  0  0  0
  1  2  1  0
  2  3  1  0
  3  4  1  6
  3  5  1  0
  6  5  1  1
  6  7  1  0
  6  9  1  0
  6 11  1  0
  7  8  1  0
  9 10  1  0
 11 12  1  0
M  CHG  1   8   1
M  END
