
     RDKit          3D

 12 11  0  0  0  0  0  0  0  0999 V2000
   -3.9830   -1.3560    0.3980 C   0  0  0  0  0  0  0  0  0  0  0  0
   -2.7430   -1.1330   -0.1720 O   0  0  0  0  0  0  0  0  0  0  0  0
   -2.4300    0.2320   -0.0400 C   0  0  0  0  0  0  0  0  0  0  0  0
   -1.0750    0.5090   -0.6560 C   0  0  1  0  0  0  0  0  0  0  0  0
   -1.0540    0.1850   -2.0090 O   0  0  0  0  0  0  0  0  0  0  0  0
   -0.7790    1.9750   -0.5350 C   0  0  0  0  0  0  0  0  0  0  0  0
   -0.7660    2.4440    0.7560 O   0  0  0  0  0  0  0  0  0  0  0  0
   -0.0700   -0.3590    0.0390 C   0  0  0  0  0  0  0  0  0  0  0  0
    1.2200   -0.1680   -0.4540 O   0  0  0  0  0  0  0  0  0  0  0  0
    2.0590   -1.0160    0.2580 C   0  0  0  0  0  0  0  0  0  0  0  0
    3.5030   -0.8660   -0.2270 C   0  0  0  0  0  0  0  0  0  0  0  0
    3.9340    0.4880   -0.0330 N   0  0  0  0  0  0  0  0  0  0  0  0
  1  2  1  0
  2  3  1  0
  3  4  1  0
  4  5  1  6
  4  6  1  0
  4  8  1  0
  6  7  1  0
  8  9  1  0
  9 10  1  0
 10 11  1  0
 11 12  1  0
M  CHG  1  12   1
M  END
