
     RDKit          3D

 12 11  0  0  0  0  0  0  0  0999 V2000
    3.1210    1.7410   -0.5690 O   0  0  0  0  0  0  0  0  0  0  0  0
    3.0250    0.7740    0.4320 C   0  0  0  0  0  0  0  0  0  0  0  0
    1.9510   -0.2480    0.0340 C   0  0  0  0  0  0  0  0  0  0  0  0
    0.6930    0.4110   -0.1210 N   0  0  0  0  0  0  0  0  0  0  0  0
   -0.4520   -0.4190    0.0700 C   0  0  1  0  0  0  0  0  0  0  0  0
   -0.2200   -1.7240   -0.6540 C   0  0  0  0  0  0  0  0  0  0  0  0
   -1.2970   -2.5980   -0.5180 O   0  0  0  0  0  0  0  0  0  0  0  0
   -0.6790   -0.7370    1.5290 C   0  0  0  0  0  0  0  0  0  0  0  0
   -1.7680   -1.5310    1.7560 O   0  0  0  0  0  0  0  0  0  0  0  0
   -1.6850    0.2510   -0.4550 C   0  0  0  0  0  0  0  0  0  0  0  0
   -1.9870    1.5580    0.2090 C   0  0  0  0  0  0  0  0  0  0  0  0
   -3.1650    2.0690   -0.3840 O   0  0  0  0  0  0  0  0  0  0  0  0
  1  2  1  0
  2  3  1  0
  3  4  1  0
  4  5  1  0
  5  6  1  6
  5  8  1  0
  5 10  1  0
  6  7  1  0
  8  9  1  0
 10 11  1  0
 11 12  1  0
M  CHG  1   4   1
M  END
