
     RDKit          3D

 34 37  0  0  0  0  0  0  0  0999 V2000
   -0.1100   -1.0200   -1.5880 C   0  0  0  0  0  0  0  0  0  0  0  0
    0.8970   -1.2410   -0.5190 C   0  0  1  0  0  0  0  0  0  0  0  0
    2.2470   -1.3150   -1.2660 C   0  0  0  0  0  0  0  0  0  0  0  0
    0.9880   -0.0600    0.4260 C   0  0  0  0  0  0  0  0  0  0  0  0
    1.3690    1.2190   -0.1020 C   0  0  0  0  0  0  0  0  0  0  0  0
    0.3890    2.0160   -0.5500 O   0  0  0  0  0  0  0  0  0  0  0  0
    0.5720    3.1860   -1.0530 C   0  0  0  0  0  0  0  0  0  0  0  0
    1.8360    3.7430   -1.1800 C   0  0  0  0  0  0  0  0  0  0  0  0
    2.8720    2.9550   -0.7300 C   0  0  0  0  0  0  0  0  0  0  0  0
    4.0380    3.4240   -0.8280 O   0  0  0  0  0  0  0  0  0  0  0  0
    2.6510    1.6790   -0.1830 C   0  0  0  0  0  0  0  0  0  0  0  0
    3.8490    0.9940    0.2750 C   0  0  0  0  0  0  0  0  0  0  0  0
    4.8470    0.5000   -0.5030 C   0  0  0  0  0  0  0  0  0  0  0  0
    5.9450   -0.1400    0.0280 C   0  0  0  0  0  0  0  0  0  0  0  0
    6.0690   -0.3040    1.3910 C   0  0  0  0  0  0  0  0  0  0  0  0
    5.0800    0.1820    2.2070 C   0  0  0  0  0  0  0  0  0  0  0  0
    5.2640   -0.0380    3.9340 Cl  0  0  0  0  0  0  0  0  0  0  0  0
    3.9970    0.8150    1.6620 C   0  0  0  0  0  0  0  0  0  0  0  0
    0.8470   -2.4790    0.2730 C   0  0  0  0  0  0  0  0  0  0  0  0
   -0.4480   -2.9520    1.2600 S   0  0  2  0  0  0  0  0  0  0  0  0
   -0.6890   -1.9840    2.4310 O   0  0  0  0  0  0  0  0  0  0  0  0
   -0.0290   -4.2440    2.0300 O   0  0  0  0  0  0  0  0  0  0  0  0
   -2.0030   -3.2940    0.5770 C   0  0  0  0  0  0  0  0  0  0  0  0
   -2.7600   -2.2850   -0.1290 C   0  0  0  0  0  0  0  0  0  0  0  0
   -3.4580   -1.2530    0.5120 C   0  0  0  0  0  0  0  0  0  0  0  0
   -4.1500   -0.5030   -0.4140 C   0  0  0  0  0  0  0  0  0  0  0  0
   -5.0050    0.6580   -0.1800 C   0  0  0  0  0  0  0  0  0  0  0  0
   -5.2230    1.1630    1.0420 N   0  0  0  0  0  0  0  0  0  0  0  0
   -6.0260    2.2430    1.2550 C   0  0  0  0  0  0  0  0  0  0  0  0
   -6.6400    2.8420    0.1750 C   0  0  0  0  0  0  0  0  0  0  0  0
   -6.3950    2.2970   -1.0780 C   0  0  0  0  0  0  0  0  0  0  0  0
   -5.5950    1.2300   -1.2400 N   0  0  0  0  0  0  0  0  0  0  0  0
   -3.8690   -1.0820   -1.5930 N   0  0  0  0  0  0  0  0  0  0  0  0
   -3.0650   -2.1130   -1.4360 N   0  0  0  0  0  0  0  0  0  0  0  0
  2  1  1  6
  2  3  1  0
  2  4  1  0
  2 19  1  0
  4  5  1  0
  5  6  1  0
  5 11  2  0
  6  7  1  0
  7  8  2  0
  8  9  1  0
  9 10  2  0
  9 11  1  0
 11 12  1  0
 12 13  2  0
 12 18  1  0
 13 14  1  0
 14 15  2  0
 15 16  1  0
 16 17  1  0
 16 18  2  0
 20 19  1  6
 20 21  2  0
 20 22  2  0
 20 23  1  0
 23 24  1  0
 24 25  1  0
 24 34  2  0
 25 26  2  0
 26 27  1  0
 26 33  1  0
 27 28  2  0
 27 32  1  0
 28 29  1  0
 29 30  2  0
 30 31  1  0
 31 32  2  0
 33 34  1  0
M  END
