
     RDKit          3D

 34 36  0  0  0  0  0  0  0  0999 V2000
    2.6250    0.8370   -0.3860 C   0  0  0  0  0  0  0  0  0  0  0  0
    1.4700    1.4410    0.2000 O   0  0  0  0  0  0  0  0  0  0  0  0
    0.3580    1.5910   -0.6020 C   0  0  0  0  0  0  0  0  0  0  0  0
    0.1580    2.7160   -1.3540 C   0  0  0  0  0  0  0  0  0  0  0  0
    1.0640    3.8400   -1.3430 C   0  0  0  0  0  0  0  0  0  0  0  0
    0.9620    4.8330   -0.2510 C   0  0  2  0  0  0  0  0  0  0  0  0
    2.0510    5.8870   -0.5300 C   0  0  0  0  0  0  0  0  0  0  0  0
    1.2380    4.3160    1.1360 C   0  0  0  0  0  0  0  0  0  0  0  0
   -0.3460    5.6160   -0.2940 C   0  0  0  0  0  0  0  0  0  0  0  0
   -0.9810    2.7330   -2.1080 N   0  0  0  0  0  0  0  0  0  0  0  0
   -1.8620    1.7190   -2.1200 C   0  0  0  0  0  0  0  0  0  0  0  0
   -2.8920    1.8060   -2.8400 O   0  0  0  0  0  0  0  0  0  0  0  0
   -1.6670    0.5870   -1.3650 C   0  0  0  0  0  0  0  0  0  0  0  0
   -2.6140   -0.5220   -1.3730 C   0  0  0  0  0  0  0  0  0  0  0  0
   -2.4350   -1.5850   -0.6670 N   0  0  0  0  0  0  0  0  0  0  0  0
   -3.3950   -2.6630   -0.7010 C   0  0  0  0  0  0  0  0  0  0  0  0
   -3.4760   -3.5760   -1.6620 C   0  0  0  0  0  0  0  0  0  0  0  0
   -4.5750   -4.5210   -1.3650 C   0  0  0  0  0  0  0  0  0  0  0  0
   -5.1160   -4.0100   -0.0840 C   0  0  0  0  0  0  0  0  0  0  0  0
   -6.4580   -4.7320    0.7800 Cl  0  0  0  0  0  0  0  0  0  0  0  0
   -4.4290   -2.9470    0.2800 C   0  0  0  0  0  0  0  0  0  0  0  0
   -4.6660   -2.1540    1.5070 C   0  0  0  0  0  0  0  0  0  0  0  0
   -0.5340    0.5320   -0.5960 C   0  0  0  0  0  0  0  0  0  0  0  0
   -0.3220   -0.6620    0.2100 C   0  0  0  0  0  0  0  0  0  0  0  0
   -0.7910   -0.6680    1.3980 O   0  0  0  0  0  0  0  0  0  0  0  0
    0.3500   -1.8060   -0.2020 N   0  0  0  0  0  0  0  0  0  0  0  0
    1.3040   -2.3990    0.4160 C   0  0  0  0  0  0  0  0  0  0  0  0
    1.9560   -2.1900    1.5540 N   0  0  0  0  0  0  0  0  0  0  0  0
    2.9120   -2.9950    1.9340 C   0  0  0  0  0  0  0  0  0  0  0  0
    3.2530   -4.0530    1.1750 C   0  0  0  0  0  0  0  0  0  0  0  0
    4.2430   -5.0860    1.3270 C   0  0  0  0  0  0  0  0  0  0  0  0
    5.1090   -5.0480    2.5280 C   0  0  0  0  0  0  0  0  0  0  0  0
    4.3840   -5.9970    0.4820 O   0  0  0  0  0  0  0  0  0  0  0  0
    2.1180   -3.9150   -0.2230 S   0  0  0  0  0  0  0  0  0  0  0  0
  1  2  1  0
  2  3  1  0
  3  4  2  0
  3 23  1  0
  4  5  1  0
  4 10  1  0
  5  6  1  0
  6  7  1  6
  6  8  1  0
  6  9  1  0
 10 11  1  0
 11 12  2  0
 11 13  1  0
 13 14  1  0
 13 23  2  0
 14 15  2  3
 15 16  1  0
 16 17  2  0
 16 21  1  0
 17 18  1  0
 18 19  1  0
 19 20  1  0
 19 21  2  0
 21 22  1  0
 23 24  1  0
 24 25  2  0
 24 26  1  0
 26 27  2  3
 27 28  1  0
 27 34  1  0
 28 29  1  0
 29 30  2  0
 30 31  1  0
 30 34  1  0
 31 32  1  0
 31 33  2  0
M  END
