
     RDKit          3D

 35 37  0  0  0  0  0  0  0  0999 V2000
   -4.7820    0.6560    3.0450 C   0  0  0  0  0  0  0  0  0  0  0  0
   -3.7000    0.0220    2.1610 C   0  0  1  0  0  0  0  0  0  0  0  0
   -4.2580   -1.2520    1.6070 C   0  0  0  0  0  0  0  0  0  0  0  0
   -3.3090    1.0560    1.1540 C   0  0  0  0  0  0  0  0  0  0  0  0
   -2.3180    0.6990    0.2140 N   0  0  0  0  0  0  0  0  0  0  0  0
   -1.0810    1.4170    0.2690 C   0  0  0  0  0  0  0  0  0  0  0  0
    0.1420    0.5510    0.3850 C   0  0  1  0  0  0  0  0  0  0  0  0
    0.2720   -0.3120   -0.6770 O   0  0  0  0  0  0  0  0  0  0  0  0
    1.3780    1.3300    0.7230 C   0  0  2  0  0  0  0  0  0  0  0  0
    1.7530    2.3430   -0.3240 C   0  0  0  0  0  0  0  0  0  0  0  0
    2.9560    3.1270    0.0190 C   0  0  0  0  0  0  0  0  0  0  0  0
    2.9030    4.2810    0.7830 C   0  0  0  0  0  0  0  0  0  0  0  0
    4.0220    5.0240    1.0930 C   0  0  0  0  0  0  0  0  0  0  0  0
    5.2440    4.6110    0.6310 C   0  0  0  0  0  0  0  0  0  0  0  0
    5.3230    3.4770   -0.1240 C   0  0  0  0  0  0  0  0  0  0  0  0
    4.1840    2.7270   -0.4370 C   0  0  0  0  0  0  0  0  0  0  0  0
    2.4060    0.3830    1.0530 N   0  0  0  0  0  0  0  0  0  0  0  0
    3.0910   -0.4190    0.1190 C   0  0  0  0  0  0  0  0  0  0  0  0
    2.8410   -0.3600   -1.0930 O   0  0  0  0  0  0  0  0  0  0  0  0
    4.0950   -1.3310    0.4960 O   0  0  0  0  0  0  0  0  0  0  0  0
    4.7500   -2.1080   -0.4600 C   0  0  1  0  0  0  0  0  0  0  0  0
    6.2290   -1.7890   -0.4070 C   0  0  0  0  0  0  0  0  0  0  0  0
    6.8530   -3.0960   -0.7590 C   0  0  0  0  0  0  0  0  0  0  0  0
    5.9290   -4.0960   -0.6690 O   0  0  0  0  0  0  0  0  0  0  0  0
    4.7560   -3.5790   -0.1460 C   0  0  0  0  0  0  0  0  0  0  0  0
   -2.8750    0.5370   -1.3810 S   0  0  1  0  0  0  0  0  0  0  0  0
   -3.3940    1.8940   -1.8770 O   0  0  0  0  0  0  0  0  0  0  0  0
   -1.6920    0.1810   -2.2720 O   0  0  0  0  0  0  0  0  0  0  0  0
   -4.0710   -0.6850   -1.6400 C   0  0  0  0  0  0  0  0  0  0  0  0
   -3.6790   -1.9990   -1.8900 C   0  0  0  0  0  0  0  0  0  0  0  0
   -4.6100   -2.9870   -2.1160 C   0  0  0  0  0  0  0  0  0  0  0  0
   -5.9430   -2.7100   -2.1020 C   0  0  0  0  0  0  0  0  0  0  0  0
   -6.8920   -3.7530   -2.3400 N   0  0  0  0  0  0  0  0  0  0  0  0
   -6.3630   -1.4150   -1.8570 C   0  0  0  0  0  0  0  0  0  0  0  0
   -5.4270   -0.4340   -1.6320 C   0  0  0  0  0  0  0  0  0  0  0  0
  2  1  1  1
  2  3  1  0
  2  4  1  0
  4  5  1  0
  5  6  1  0
 26  5  1  1
  6  7  1  0
  7  8  1  6
  7  9  1  0
  9 10  1  6
  9 17  1  0
 10 11  1  0
 11 12  2  0
 11 16  1  0
 12 13  1  0
 13 14  2  0
 14 15  1  0
 15 16  2  0
 17 18  1  0
 18 19  2  0
 18 20  1  0
 21 20  1  1
 21 22  1  0
 21 25  1  0
 22 23  1  0
 23 24  1  0
 24 25  1  0
 26 27  2  0
 26 28  2  0
 26 29  1  0
 29 30  2  0
 29 35  1  0
 30 31  1  0
 31 32  2  0
 32 33  1  0
 32 34  1  0
 34 35  2  0
M  END
