
     RDKit          3D

 33 35  0  0  0  0  0  0  0  0999 V2000
    9.3490   -1.0260    0.5520 C   0  0  0  0  0  0  0  0  0  0  0  0
    8.8880    0.3540    0.9350 C   0  0  0  0  0  0  0  0  0  0  0  0
    7.4210    0.4110    1.0030 N   0  0  0  0  0  0  0  0  0  0  0  0
    6.7720    1.6140    1.3040 C   0  0  0  0  0  0  0  0  0  0  0  0
    7.5590    2.6160    1.5480 O   0  0  0  0  0  0  0  0  0  0  0  0
    5.3310    1.8430    1.3610 C   0  0  0  0  0  0  0  0  0  0  0  0
    4.4410    0.8640    0.9930 O   0  0  0  0  0  0  0  0  0  0  0  0
    4.3190    0.1660   -0.1790 C   0  0  0  0  0  0  0  0  0  0  0  0
    5.2310    0.3620   -1.2130 C   0  0  0  0  0  0  0  0  0  0  0  0
    5.1340   -0.3410   -2.3900 C   0  0  0  0  0  0  0  0  0  0  0  0
    4.1190   -1.2440   -2.5320 C   0  0  0  0  0  0  0  0  0  0  0  0
    3.9080   -2.2110   -3.9700 Cl  0  0  0  0  0  0  0  0  0  0  0  0
    3.1920   -1.4420   -1.4870 C   0  0  0  0  0  0  0  0  0  0  0  0
    3.2630   -0.7610   -0.3200 C   0  0  0  0  0  0  0  0  0  0  0  0
    2.3150   -0.9660    0.8130 C   0  0  0  0  0  0  0  0  0  0  0  0
    1.0680   -0.3220    0.5060 N   0  0  0  0  0  0  0  0  0  0  0  0
    0.1570   -0.4290   -0.5180 C   0  0  0  0  0  0  0  0  0  0  0  0
    0.3030   -1.2710   -1.4120 O   0  0  0  0  0  0  0  0  0  0  0  0
   -1.0380    0.4860   -0.5990 C   0  0  2  0  0  0  0  0  0  0  0  0
   -0.6830    1.8620   -0.1590 C   0  0  0  0  0  0  0  0  0  0  0  0
   -1.4390    2.0610    1.1110 C   0  0  0  0  0  0  0  0  0  0  0  0
   -2.2290    0.7750    1.3420 C   0  0  0  0  0  0  0  0  0  0  0  0
   -2.2040    0.0620    0.1000 N   0  0  0  0  0  0  0  0  0  0  0  0
   -3.0940   -0.8990   -0.4690 C   0  0  0  0  0  0  0  0  0  0  0  0
   -2.7150   -1.3140   -1.6400 O   0  0  0  0  0  0  0  0  0  0  0  0
   -4.3340   -1.4740    0.0390 C   0  0  2  0  0  0  0  0  0  0  0  0
   -4.9520   -2.2810   -1.0210 N   0  0  0  0  0  0  0  0  0  0  0  0
   -5.3210   -0.5350    0.6290 C   0  0  2  0  0  0  0  0  0  0  0  0
   -6.5650   -1.3040    1.0560 C   0  0  0  0  0  0  0  0  0  0  0  0
   -7.7880   -0.4790    1.1660 C   0  0  0  0  0  0  0  0  0  0  0  0
   -7.9160    0.6800    0.2490 C   0  0  0  0  0  0  0  0  0  0  0  0
   -6.6280    1.5010    0.3430 C   0  0  0  0  0  0  0  0  0  0  0  0
   -5.5760    0.5770   -0.3170 C   0  0  0  0  0  0  0  0  0  0  0  0
  1  2  1  0
  2  3  1  0
  3  4  1  0
  4  5  2  0
  4  6  1  0
  6  7  1  0
  7  8  1  0
  8  9  2  0
  8 14  1  0
  9 10  1  0
 10 11  2  0
 11 12  1  0
 11 13  1  0
 13 14  2  0
 14 15  1  0
 15 16  1  0
 16 17  1  0
 17 18  2  0
 19 17  1  1
 19 20  1  0
 19 23  1  0
 20 21  1  0
 21 22  1  0
 22 23  1  0
 23 24  1  0
 24 25  2  0
 24 26  1  0
 26 27  1  6
 26 28  1  0
 28 29  1  6
 28 33  1  0
 29 30  1  0
 30 31  1  0
 31 32  1  0
 32 33  1  0
M  CHG  1  27   1
M  END
