
     RDKit          3D

 39 42  0  0  0  0  0  0  0  0999 V2000
    8.9890    3.4690   -0.0150 C   0  0  0  0  0  0  0  0  0  0  0  0
    8.8310    2.0530   -0.4120 C   0  0  0  0  0  0  0  0  0  0  0  0
    9.4430    1.4640   -1.4890 C   0  0  0  0  0  0  0  0  0  0  0  0
    9.0200    0.1370   -1.4890 C   0  0  0  0  0  0  0  0  0  0  0  0
    8.1700    0.0040   -0.4040 C   0  0  0  0  0  0  0  0  0  0  0  0
    7.4460   -1.2160    0.0460 C   0  0  1  0  0  0  0  0  0  0  0  0
    8.0970   -1.7320    1.3190 C   0  0  0  0  0  0  0  0  0  0  0  0
    6.0720   -0.8980    0.3610 N   0  0  0  0  0  0  0  0  0  0  0  0
    5.3130   -0.4020   -0.7440 C   0  0  0  0  0  0  0  0  0  0  0  0
    3.8220   -0.8100   -0.5540 C   0  0  0  0  0  0  0  0  0  0  0  0
    3.0120   -0.3140   -1.6840 C   0  0  0  0  0  0  0  0  0  0  0  0
    1.5830   -0.6540   -1.7000 C   0  0  0  0  0  0  0  0  0  0  0  0
    0.7990   -0.2450   -0.6430 O   0  0  0  0  0  0  0  0  0  0  0  0
    0.7290   -0.6390    0.6510 C   0  0  0  0  0  0  0  0  0  0  0  0
    1.4670   -1.5570    1.0590 O   0  0  0  0  0  0  0  0  0  0  0  0
   -0.1880   -0.0150    1.5830 C   0  0  0  0  0  0  0  0  0  0  0  0
   -0.2850   -0.3780    2.9050 C   0  0  0  0  0  0  0  0  0  0  0  0
   -1.1720    0.2500    3.7520 C   0  0  0  0  0  0  0  0  0  0  0  0
   -1.9770    1.2580    3.2750 C   0  0  0  0  0  0  0  0  0  0  0  0
   -1.8980    1.6330    1.9720 C   0  0  0  0  0  0  0  0  0  0  0  0
   -1.0060    1.0020    1.1160 C   0  0  0  0  0  0  0  0  0  0  0  0
   -0.9000    1.3620   -0.2150 O   0  0  0  0  0  0  0  0  0  0  0  0
   -1.6330    2.3470   -0.8740 C   0  0  0  0  0  0  0  0  0  0  0  0
   -3.0890    1.9940   -0.8820 C   0  0  0  0  0  0  0  0  0  0  0  0
   -3.9330    2.8650   -1.2870 O   0  0  0  0  0  0  0  0  0  0  0  0
   -3.5820    0.7430   -0.4690 N   0  0  0  0  0  0  0  0  0  0  0  0
   -4.9400    0.3250   -0.4430 C   0  0  0  0  0  0  0  0  0  0  0  0
   -5.2600   -0.8590    0.2370 C   0  0  0  0  0  0  0  0  0  0  0  0
   -6.5450   -1.3520    0.3050 C   0  0  0  0  0  0  0  0  0  0  0  0
   -7.6050   -0.7090   -0.2930 C   0  0  0  0  0  0  0  0  0  0  0  0
   -8.9810   -1.2260   -0.2240 C   0  0  0  0  0  0  0  0  0  0  0  0
  -10.0010   -0.6380   -0.7970 C   0  0  0  0  0  0  0  0  0  0  0  0
  -11.4130   -1.1300   -0.7500 C   0  0  0  0  0  0  0  0  0  0  0  0
  -11.5670   -2.3020   -0.0220 O   0  0  0  0  0  0  0  0  0  0  0  0
  -10.5030   -2.9250    0.5820 C   0  0  0  0  0  0  0  0  0  0  0  0
   -9.2590   -2.4480    0.5110 C   0  0  0  0  0  0  0  0  0  0  0  0
   -7.2970    0.4520   -0.9610 C   0  0  0  0  0  0  0  0  0  0  0  0
   -5.9880    0.9630   -1.0360 C   0  0  0  0  0  0  0  0  0  0  0  0
    8.0890    1.1590    0.2020 O   0  0  0  0  0  0  0  0  0  0  0  0
  1  2  1  0
  2  3  2  0
  2 39  1  0
  3  4  1  0
  4  5  2  0
  5  6  1  0
  5 39  1  0
  6  7  1  1
  6  8  1  0
  8  9  1  0
  9 10  1  0
 10 11  1  0
 11 12  1  0
 12 13  1  0
 13 14  1  0
 14 15  2  0
 14 16  1  0
 16 17  2  0
 16 21  1  0
 17 18  1  0
 18 19  2  0
 19 20  1  0
 20 21  2  0
 21 22  1  0
 22 23  1  0
 23 24  1  0
 24 25  2  0
 24 26  1  0
 26 27  1  0
 27 28  2  0
 27 38  1  0
 28 29  1  0
 29 30  2  0
 30 31  1  0
 30 37  1  0
 31 32  2  0
 31 36  1  0
 32 33  1  0
 33 34  1  0
 34 35  1  0
 35 36  2  0
 37 38  2  0
M  CHG  1   8   1
M  END
