
     RDKit          3D

 39 41  0  0  0  0  0  0  0  0999 V2000
   -3.3060    3.0770   -2.5180 C   0  0  0  0  0  0  0  0  0  0  0  0
   -2.3710    2.0420   -1.8740 C   0  0  2  0  0  0  0  0  0  0  0  0
   -1.8920    1.1750   -3.0300 C   0  0  0  0  0  0  0  0  0  0  0  0
   -3.2020    1.2170   -0.9680 C   0  0  2  0  0  0  0  0  0  0  0  0
   -2.5010    0.1800   -0.2650 N   0  0  0  0  0  0  0  0  0  0  0  0
   -2.4120    0.0800    1.1520 C   0  0  0  0  0  0  0  0  0  0  0  0
   -2.9900    0.9630    1.8140 O   0  0  0  0  0  0  0  0  0  0  0  0
   -1.6540   -1.0420    1.7870 C   0  0  2  0  0  0  0  0  0  0  0  0
   -1.7310   -0.9830    3.2690 C   0  0  0  0  0  0  0  0  0  0  0  0
   -1.0240   -2.0870    3.9450 C   0  0  0  0  0  0  0  0  0  0  0  0
   -1.6810   -3.2630    4.2140 C   0  0  0  0  0  0  0  0  0  0  0  0
   -1.0330   -4.3010    4.8480 C   0  0  0  0  0  0  0  0  0  0  0  0
    0.2960   -4.1830    5.2290 C   0  0  0  0  0  0  0  0  0  0  0  0
    0.9500   -3.0230    4.9650 C   0  0  0  0  0  0  0  0  0  0  0  0
    0.2850   -1.9830    4.3250 C   0  0  0  0  0  0  0  0  0  0  0  0
   -0.2520   -0.9950    1.2290 C   0  0  0  0  0  0  0  0  0  0  0  0
    0.4260    0.3280    1.5100 C   0  0  2  0  0  0  0  0  0  0  0  0
   -0.3450    1.3130    0.8940 O   0  0  0  0  0  0  0  0  0  0  0  0
    1.8630    0.3480    1.1450 C   0  0  2  0  0  0  0  0  0  0  0  0
    2.6190    1.5470    1.6580 C   0  0  0  0  0  0  0  0  0  0  0  0
    2.1270    2.8320    1.1930 C   0  0  0  0  0  0  0  0  0  0  0  0
    1.1670    3.5290    1.8980 C   0  0  0  0  0  0  0  0  0  0  0  0
    0.6970    4.7630    1.4500 C   0  0  0  0  0  0  0  0  0  0  0  0
    1.1730    5.3240    0.2930 C   0  0  0  0  0  0  0  0  0  0  0  0
    2.1290    4.6450   -0.4220 C   0  0  0  0  0  0  0  0  0  0  0  0
    2.5790    3.4290    0.0390 C   0  0  0  0  0  0  0  0  0  0  0  0
    2.1000    0.1670   -0.2710 N   0  0  0  0  0  0  0  0  0  0  0  0
    2.8600   -0.8980   -0.8220 C   0  0  0  0  0  0  0  0  0  0  0  0
    3.3460   -1.7250    0.0050 O   0  0  0  0  0  0  0  0  0  0  0  0
    3.0800   -1.0600   -2.1740 O   0  0  0  0  0  0  0  0  0  0  0  0
    3.8500   -2.1390   -2.6830 C   0  0  1  0  0  0  0  0  0  0  0  0
    5.2640   -2.1090   -2.1380 C   0  0  0  0  0  0  0  0  0  0  0  0
    3.1710   -3.4450   -2.4470 C   0  0  0  0  0  0  0  0  0  0  0  0
    3.9670   -1.9210   -4.1860 C   0  0  0  0  0  0  0  0  0  0  0  0
   -4.3600    0.6970   -1.7360 C   0  0  0  0  0  0  0  0  0  0  0  0
   -5.5750    1.2650   -1.7750 N   0  0  0  0  0  0  0  0  0  0  0  0
   -6.4110    0.5750   -2.5460 C   0  0  0  0  0  0  0  0  0  0  0  0
   -5.6980   -0.4990   -3.0340 C   0  0  0  0  0  0  0  0  0  0  0  0
   -4.4520   -0.3900   -2.5180 N   0  0  0  0  0  0  0  0  0  0  0  0
  2  1  1  6
  2  3  1  0
  2  4  1  0
  4  5  1  6
  4 35  1  0
  5  6  1  0
  6  7  2  0
  6  8  1  0
  8  9  1  1
  8 16  1  0
  9 10  1  0
 10 11  2  0
 10 15  1  0
 11 12  1  0
 12 13  2  0
 13 14  1  0
 14 15  2  0
 16 17  1  0
 17 18  1  6
 17 19  1  0
 19 20  1  6
 19 27  1  0
 20 21  1  0
 21 22  2  0
 21 26  1  0
 22 23  1  0
 23 24  2  0
 24 25  1  0
 25 26  2  0
 27 28  1  0
 28 29  2  0
 28 30  1  0
 30 31  1  0
 31 32  1  1
 31 33  1  0
 31 34  1  0
 35 36  2  0
 35 39  1  0
 36 37  1  0
 37 38  2  0
 38 39  1  0
M  END
