
     RDKit          3D

 39 42  0  0  0  0  0  0  0  0999 V2000
   -4.7100   -3.2930   -1.5930 C   0  0  0  0  0  0  0  0  0  0  0  0
   -3.7580   -2.5950   -0.9510 C   0  0  0  0  0  0  0  0  0  0  0  0
   -3.5130   -1.2000   -1.3410 C   0  0  0  0  0  0  0  0  0  0  0  0
   -3.6950   -0.2420   -0.3650 O   0  0  0  0  0  0  0  0  0  0  0  0
   -4.8430    0.0570    0.3490 C   0  0  0  0  0  0  0  0  0  0  0  0
   -5.1020   -0.4210    1.5870 C   0  0  0  0  0  0  0  0  0  0  0  0
   -4.1900   -1.2330    2.3930 C   0  0  0  0  0  0  0  0  0  0  0  0
   -3.1380   -0.4940    3.1470 C   0  0  0  0  0  0  0  0  0  0  0  0
   -2.1670    0.2390    2.4210 N   0  0  0  0  0  0  0  0  0  0  0  0
   -1.2310   -0.3310    1.5160 C   0  0  0  0  0  0  0  0  0  0  0  0
   -1.2880   -1.5900    1.3650 O   0  0  0  0  0  0  0  0  0  0  0  0
   -0.2390    0.4160    0.7750 C   0  0  0  0  0  0  0  0  0  0  0  0
   -0.2510    1.7930    0.7510 C   0  0  0  0  0  0  0  0  0  0  0  0
    0.7270    2.4650    0.0300 C   0  0  0  0  0  0  0  0  0  0  0  0
    1.6910    1.7530   -0.6490 C   0  0  0  0  0  0  0  0  0  0  0  0
    1.7400    0.3760   -0.6530 C   0  0  0  0  0  0  0  0  0  0  0  0
    2.7600   -0.4200   -1.3650 C   0  0  0  0  0  0  0  0  0  0  0  0
    3.8560   -0.8390   -0.5460 N   0  0  0  0  0  0  0  0  0  0  0  0
    4.9120    0.1180   -0.3980 C   0  0  1  0  0  0  0  0  0  0  0  0
    4.8220    0.7780    0.9850 C   0  0  0  0  0  0  0  0  0  0  0  0
    4.8740   -0.2290    2.0910 C   0  0  0  0  0  0  0  0  0  0  0  0
    5.8290   -1.2180    1.8050 O   0  0  0  0  0  0  0  0  0  0  0  0
    6.6830   -1.1690    0.6950 C   0  0  0  0  0  0  0  0  0  0  0  0
    7.9340   -1.7570    0.6800 C   0  0  0  0  0  0  0  0  0  0  0  0
    8.7630   -1.7010   -0.4180 C   0  0  0  0  0  0  0  0  0  0  0  0
    8.3400   -1.0380   -1.5490 C   0  0  0  0  0  0  0  0  0  0  0  0
    9.1700   -0.9770   -2.6610 O   0  0  0  0  0  0  0  0  0  0  0  0
    8.6870   -0.2850   -3.7960 C   0  0  0  0  0  0  0  0  0  0  0  0
    7.0780   -0.4460   -1.5320 C   0  0  0  0  0  0  0  0  0  0  0  0
    6.2580   -0.5070   -0.4340 C   0  0  0  0  0  0  0  0  0  0  0  0
    0.7410   -0.2690    0.0830 C   0  0  0  0  0  0  0  0  0  0  0  0
   -6.3190   -0.0380    2.1780 C   0  0  0  0  0  0  0  0  0  0  0  0
   -7.2230    0.7810    1.5600 C   0  0  0  0  0  0  0  0  0  0  0  0
   -6.9430    1.2670    0.2920 C   0  0  0  0  0  0  0  0  0  0  0  0
   -7.8740    2.0940   -0.3090 O   0  0  0  0  0  0  0  0  0  0  0  0
   -9.0550    2.4240    0.3530 C   0  0  0  0  0  0  0  0  0  0  0  0
   -5.7670    0.9060   -0.3010 C   0  0  0  0  0  0  0  0  0  0  0  0
   -5.4790    1.3870   -1.5720 O   0  0  0  0  0  0  0  0  0  0  0  0
   -4.7930    2.5900   -1.7390 C   0  0  0  0  0  0  0  0  0  0  0  0
  1  2  2  0
  2  3  1  0
  3  4  1  0
  4  5  1  0
  5  6  2  0
  5 37  1  0
  6  7  1  0
  6 32  1  0
  7  8  1  0
  8  9  1  0
  9 10  1  0
 10 11  2  0
 10 12  1  0
 12 13  2  0
 12 31  1  0
 13 14  1  0
 14 15  2  0
 15 16  1  0
 16 17  1  0
 16 31  2  0
 17 18  1  0
 19 18  1  1
 19 20  1  0
 19 30  1  0
 20 21  1  0
 21 22  1  0
 22 23  1  0
 23 24  2  0
 23 30  1  0
 24 25  1  0
 25 26  2  0
 26 27  1  0
 26 29  1  0
 27 28  1  0
 29 30  2  0
 32 33  2  0
 33 34  1  0
 34 35  1  0
 34 37  2  0
 35 36  1  0
 37 38  1  0
 38 39  1  0
M  CHG  1  18   1
M  END
