
     RDKit          3D

 39 42  0  0  0  0  0  0  0  0999 V2000
    8.5020   -2.3680   -0.6740 C   0  0  0  0  0  0  0  0  0  0  0  0
    7.3470   -1.6520    0.0230 C   0  0  0  0  0  0  0  0  0  0  0  0
    7.0340   -2.2710    1.3420 C   0  0  0  0  0  0  0  0  0  0  0  0
    5.9310   -1.6480    2.1150 C   0  0  0  0  0  0  0  0  0  0  0  0
    4.6660   -1.6560    1.4660 N   0  0  2  0  0  0  0  0  0  0  0  0
    4.3680   -2.7610    0.6270 C   0  0  0  0  0  0  0  0  0  0  0  0
    3.6890   -2.2160   -0.5990 C   0  0  0  0  0  0  0  0  0  0  0  0
    3.6270   -0.7300   -0.4790 C   0  0  1  0  0  0  0  0  0  0  0  0
    4.2950   -0.1150   -1.7130 C   0  0  0  0  0  0  0  0  0  0  0  0
    2.2140   -0.2750   -0.3940 C   0  0  0  0  0  0  0  0  0  0  0  0
    1.3230   -1.1050   -0.4330 O   0  0  0  0  0  0  0  0  0  0  0  0
    1.8270    1.1400   -0.2640 C   0  0  0  0  0  0  0  0  0  0  0  0
    0.4480    1.3410   -0.2000 O   0  0  0  0  0  0  0  0  0  0  0  0
   -0.0430    2.6200   -0.0760 C   0  0  0  0  0  0  0  0  0  0  0  0
    0.8150    3.6900   -0.0180 C   0  0  0  0  0  0  0  0  0  0  0  0
    0.3350    5.0000    0.1080 C   0  0  0  0  0  0  0  0  0  0  0  0
   -1.0180    5.2250    0.1740 C   0  0  0  0  0  0  0  0  0  0  0  0
   -1.5140    6.6100    0.3070 C   0  0  0  0  0  0  0  0  0  0  0  0
   -2.7480    6.8360    0.3680 O   0  0  0  0  0  0  0  0  0  0  0  0
   -0.6380    7.6570    0.3640 O   0  0  0  0  0  0  0  0  0  0  0  0
   -1.0540    9.0080    0.4910 C   0  0  0  0  0  0  0  0  0  0  0  0
   -1.8840    4.1750    0.1170 C   0  0  0  0  0  0  0  0  0  0  0  0
   -1.3930    2.8820   -0.0070 C   0  0  0  0  0  0  0  0  0  0  0  0
   -2.3220    1.8380   -0.0610 O   0  0  0  0  0  0  0  0  0  0  0  0
   -3.7090    2.0750    0.0070 C   0  0  0  0  0  0  0  0  0  0  0  0
   -4.4490    0.7970   -0.0730 C   0  0  0  0  0  0  0  0  0  0  0  0
   -3.7580   -0.3870   -0.1970 C   0  0  0  0  0  0  0  0  0  0  0  0
   -4.4750   -1.5850   -0.2710 C   0  0  0  0  0  0  0  0  0  0  0  0
   -5.8470   -1.6200   -0.2230 C   0  0  0  0  0  0  0  0  0  0  0  0
   -6.6100   -2.8590   -0.2810 C   0  0  0  0  0  0  0  0  0  0  0  0
   -7.9390   -2.9110   -0.3080 C   0  0  0  0  0  0  0  0  0  0  0  0
   -8.6370   -4.1380   -0.3640 N   0  0  0  0  0  0  0  0  0  0  0  0
   -7.9830   -5.3860   -0.5570 C   0  0  0  0  0  0  0  0  0  0  0  0
   -6.5970   -5.2360   -1.1090 C   0  0  0  0  0  0  0  0  0  0  0  0
   -5.9350   -4.1540   -0.2950 C   0  0  0  0  0  0  0  0  0  0  0  0
   -4.8860   -4.3560    0.3250 O   0  0  0  0  0  0  0  0  0  0  0  0
   -6.4910   -0.4080   -0.0980 C   0  0  0  0  0  0  0  0  0  0  0  0
   -5.8150    0.8080   -0.0220 C   0  0  0  0  0  0  0  0  0  0  0  0
    4.4090   -0.4210    0.7520 C   0  0  0  0  0  0  0  0  0  0  0  0
  1  2  1  0
  2  3  1  0
  3  4  1  0
  5  4  1  6
  5  6  1  0
  5 39  1  0
  6  7  1  0
  7  8  1  0
  8  9  1  6
  8 10  1  0
  8 39  1  0
 10 11  2  0
 10 12  1  0
 12 13  1  0
 13 14  1  0
 14 15  2  0
 14 23  1  0
 15 16  1  0
 16 17  2  0
 17 18  1  0
 17 22  1  0
 18 19  2  0
 18 20  1  0
 20 21  1  0
 22 23  2  0
 23 24  1  0
 24 25  1  0
 25 26  1  0
 26 27  2  0
 26 38  1  0
 27 28  1  0
 28 29  2  0
 29 30  1  0
 29 37  1  0
 30 31  2  0
 30 35  1  0
 31 32  1  0
 32 33  1  0
 33 34  1  0
 34 35  1  0
 35 36  2  0
 37 38  2  0
M  CHG  1   5   1
M  END
