
     RDKit          3D

 39 42  0  0  0  0  0  0  0  0999 V2000
   -9.2230    2.9300   -3.0060 C   0  0  0  0  0  0  0  0  0  0  0  0
   -8.0900    2.0760   -2.7720 O   0  0  0  0  0  0  0  0  0  0  0  0
   -8.1440    1.2160   -1.6930 C   0  0  0  0  0  0  0  0  0  0  0  0
   -9.2320    1.1660   -0.8560 C   0  0  0  0  0  0  0  0  0  0  0  0
   -9.2690    0.3010    0.2130 C   0  0  0  0  0  0  0  0  0  0  0  0
  -10.4750    0.2870    1.0940 C   0  0  0  0  0  0  0  0  0  0  0  0
  -10.1560   -0.3720    2.2780 O   0  0  0  0  0  0  0  0  0  0  0  0
   -8.1990   -0.5120    0.4240 C   0  0  0  0  0  0  0  0  0  0  0  0
   -7.0400   -0.5250   -0.3910 C   0  0  0  0  0  0  0  0  0  0  0  0
   -6.0360   -1.3370   -0.1420 O   0  0  0  0  0  0  0  0  0  0  0  0
   -4.7810   -1.5450    0.1650 C   0  0  0  0  0  0  0  0  0  0  0  0
   -4.3200   -1.5950    1.5030 C   0  0  0  0  0  0  0  0  0  0  0  0
   -3.0010   -1.8220    1.7440 C   0  0  0  0  0  0  0  0  0  0  0  0
   -2.0700   -2.0100    0.7430 C   0  0  0  0  0  0  0  0  0  0  0  0
   -0.6550   -2.2760    1.1010 C   0  0  0  0  0  0  0  0  0  0  0  0
    0.1290   -0.9980    1.2440 C   0  0  0  0  0  0  0  0  0  0  0  0
    1.5070   -1.2350    1.5930 N   0  0  1  0  0  0  0  0  0  0  0  0
    1.9610   -2.5720    1.3850 C   0  0  0  0  0  0  0  0  0  0  0  0
    3.2340   -2.7220    2.2270 C   0  0  0  0  0  0  0  0  0  0  0  0
    4.2080   -1.7870    1.6120 C   0  0  0  0  0  0  0  0  0  0  0  0
    3.7830   -0.6620    0.9530 C   0  0  0  0  0  0  0  0  0  0  0  0
    4.7070    0.2210    0.3780 C   0  0  0  0  0  0  0  0  0  0  0  0
    6.0570   -0.0140    0.4610 C   0  0  0  0  0  0  0  0  0  0  0  0
    7.0040    0.9460   -0.1480 C   0  0  0  0  0  0  0  0  0  0  0  0
    6.4300    2.1850   -0.7430 C   0  0  0  0  0  0  0  0  0  0  0  0
    8.2950    0.7680   -0.1670 C   0  0  0  0  0  0  0  0  0  0  0  0
    9.2340    1.7280   -0.7730 C   0  0  1  0  0  0  0  0  0  0  0  0
    9.5920    2.8880    0.1210 C   0  0  0  0  0  0  0  0  0  0  0  0
   10.4440    1.0850   -1.1270 O   0  0  0  0  0  0  0  0  0  0  0  0
   10.6930    1.2120   -2.4840 C   0  0  0  0  0  0  0  0  0  0  0  0
    6.4500   -1.1190    1.1090 N   0  0  0  0  0  0  0  0  0  0  0  0
    5.5690   -1.9920    1.6760 C   0  0  0  0  0  0  0  0  0  0  0  0
    5.9790   -3.0090    2.2720 O   0  0  0  0  0  0  0  0  0  0  0  0
    2.3340   -0.3500    0.8080 C   0  0  0  0  0  0  0  0  0  0  0  0
   -2.5500   -1.9540   -0.5480 C   0  0  0  0  0  0  0  0  0  0  0  0
   -3.8550   -1.7310   -0.8800 C   0  0  0  0  0  0  0  0  0  0  0  0
   -7.0720    0.3790   -1.4490 C   0  0  0  0  0  0  0  0  0  0  0  0
   -6.0030    0.4670   -2.3140 O   0  0  0  0  0  0  0  0  0  0  0  0
   -5.0190    1.4490   -2.0920 C   0  0  0  0  0  0  0  0  0  0  0  0
  1  2  1  0
  2  3  1  0
  3  4  2  0
  3 37  1  0
  4  5  1  0
  5  6  1  0
  5  8  2  0
  6  7  1  0
  8  9  1  0
  9 10  1  0
  9 37  2  0
 10 11  1  0
 11 12  2  0
 11 36  1  0
 12 13  1  0
 13 14  2  0
 14 15  1  0
 14 35  1  0
 15 16  1  0
 17 16  1  6
 17 18  1  0
 17 34  1  0
 18 19  1  0
 19 20  1  0
 20 21  2  0
 20 32  1  0
 21 22  1  0
 21 34  1  0
 22 23  2  0
 23 24  1  0
 23 31  1  0
 24 25  1  0
 24 26  2  3
 26 27  1  0
 27 28  1  1
 27 29  1  0
 29 30  1  0
 31 32  1  0
 32 33  2  0
 35 36  2  0
 37 38  1  0
 38 39  1  0
M  CHG  1  17   1
M  END
