
     RDKit          3D

 39 42  0  0  0  0  0  0  0  0999 V2000
   -0.1590    7.4740    0.9630 C   0  0  0  0  0  0  0  0  0  0  0  0
   -0.4760    6.4200    2.0070 C   0  0  0  0  0  0  0  0  0  0  0  0
   -0.5200    5.1780    1.3710 O   0  0  0  0  0  0  0  0  0  0  0  0
    0.5770    4.6790    0.7160 C   0  0  0  0  0  0  0  0  0  0  0  0
    1.6370    5.3350    0.6830 O   0  0  0  0  0  0  0  0  0  0  0  0
    0.5100    3.3890    0.0620 C   0  0  0  0  0  0  0  0  0  0  0  0
    1.5790    2.8390   -0.6180 C   0  0  0  0  0  0  0  0  0  0  0  0
    1.4550    1.6140   -1.2210 C   0  0  0  0  0  0  0  0  0  0  0  0
    0.2820    0.8970   -1.1730 C   0  0  0  0  0  0  0  0  0  0  0  0
    0.1310   -0.3410   -1.7720 O   0  0  0  0  0  0  0  0  0  0  0  0
    1.1690   -0.9930   -2.4670 C   0  0  0  0  0  0  0  0  0  0  0  0
    2.3020   -1.2680   -1.5210 C   0  0  0  0  0  0  0  0  0  0  0  0
    2.0430   -1.2010   -0.1570 C   0  0  0  0  0  0  0  0  0  0  0  0
    3.0750   -1.4590    0.7400 C   0  0  0  0  0  0  0  0  0  0  0  0
    4.3310   -1.7760    0.2840 C   0  0  0  0  0  0  0  0  0  0  0  0
    4.5950   -1.8430   -1.0660 C   0  0  0  0  0  0  0  0  0  0  0  0
    3.5600   -1.5840   -1.9660 C   0  0  0  0  0  0  0  0  0  0  0  0
    5.9520   -2.1890   -1.2930 N   0  0  0  0  0  0  0  0  0  0  0  0
    6.6200   -1.7540   -0.1020 C   0  0  2  0  0  0  0  0  0  0  0  0
    7.9150   -2.4930    0.1600 C   0  0  0  0  0  0  0  0  0  0  0  0
    8.5000   -1.9300    1.4410 C   0  0  0  0  0  0  0  0  0  0  0  0
    5.5930   -2.0950    0.9830 C   0  0  0  0  0  0  0  0  0  0  0  0
   -0.7910    1.4550   -0.4870 C   0  0  0  0  0  0  0  0  0  0  0  0
   -2.0140    0.7690   -0.4010 O   0  0  0  0  0  0  0  0  0  0  0  0
   -3.0640    1.3620    0.3020 C   0  0  0  0  0  0  0  0  0  0  0  0
   -4.2590    0.5280    0.3420 C   0  0  0  0  0  0  0  0  0  0  0  0
   -5.2280    1.0000    1.0540 O   0  0  0  0  0  0  0  0  0  0  0  0
   -4.5080   -0.7120   -0.2760 N   0  0  0  0  0  0  0  0  0  0  0  0
   -3.5900   -1.2990   -1.1950 C   0  0  0  0  0  0  0  0  0  0  0  0
   -2.5460   -2.1890   -0.5830 C   0  0  0  0  0  0  0  0  0  0  0  0
   -5.7590   -1.3600    0.0440 C   0  0  0  0  0  0  0  0  0  0  0  0
   -5.8290   -2.1530    1.1700 C   0  0  0  0  0  0  0  0  0  0  0  0
   -6.9910   -2.7970    1.5370 C   0  0  0  0  0  0  0  0  0  0  0  0
   -8.1350   -2.6620    0.7750 C   0  0  0  0  0  0  0  0  0  0  0  0
   -9.3830   -3.3280    1.1340 C   0  0  0  0  0  0  0  0  0  0  0  0
   -9.3860   -4.0370    2.1680 O   0  0  0  0  0  0  0  0  0  0  0  0
   -8.0380   -1.8640   -0.3460 C   0  0  0  0  0  0  0  0  0  0  0  0
   -6.8830   -1.2150   -0.7250 C   0  0  0  0  0  0  0  0  0  0  0  0
   -0.6820    2.6790    0.1210 C   0  0  0  0  0  0  0  0  0  0  0  0
  1  2  1  0
  2  3  1  0
  3  4  1  0
  4  5  2  0
  4  6  1  0
  6  7  2  0
  6 39  1  0
  7  8  1  0
  8  9  2  0
  9 10  1  0
  9 23  1  0
 10 11  1  0
 11 12  1  0
 12 13  2  0
 12 17  1  0
 13 14  1  0
 14 15  2  0
 15 16  1  0
 15 22  1  0
 16 17  2  0
 16 18  1  0
 18 19  1  0
 19 20  1  1
 19 22  1  0
 20 21  1  0
 23 24  1  0
 23 39  2  0
 24 25  1  0
 25 26  1  0
 26 27  2  0
 26 28  1  0
 28 29  1  0
 28 31  1  0
 29 30  1  0
 31 32  2  0
 31 38  1  0
 32 33  1  0
 33 34  2  0
 34 35  1  0
 34 37  1  0
 35 36  2  0
 37 38  2  0
M  CHG  1  18   1
M  END
