
     RDKit          3D

 39 42  0  0  0  0  0  0  0  0999 V2000
    7.8570    3.4350    0.9150 C   0  0  0  0  0  0  0  0  0  0  0  0
    6.7270    3.8970    1.5220 O   0  0  0  0  0  0  0  0  0  0  0  0
    5.5860    3.7990    0.8080 C   0  0  0  0  0  0  0  0  0  0  0  0
    5.2320    2.3580    0.5720 C   0  0  0  0  0  0  0  0  0  0  0  0
    5.9340    1.4700    1.0920 O   0  0  0  0  0  0  0  0  0  0  0  0
    4.1330    1.9890   -0.2200 N   0  0  0  0  0  0  0  0  0  0  0  0
    3.6810    0.6860   -0.5230 C   0  0  0  0  0  0  0  0  0  0  0  0
    4.1510   -0.4420    0.0720 C   0  0  0  0  0  0  0  0  0  0  0  0
    3.6250   -1.6810   -0.3310 C   0  0  0  0  0  0  0  0  0  0  0  0
    2.6600   -1.7660   -1.3000 C   0  0  0  0  0  0  0  0  0  0  0  0
    2.1750   -0.6190   -1.9100 C   0  0  0  0  0  0  0  0  0  0  0  0
    1.1340   -0.7160   -2.9530 C   0  0  0  0  0  0  0  0  0  0  0  0
   -0.1360   -0.4160   -2.5780 O   0  0  0  0  0  0  0  0  0  0  0  0
   -0.6580   -1.2310   -1.5650 C   0  0  1  0  0  0  0  0  0  0  0  0
   -1.2300   -0.3650   -0.4980 C   0  0  0  0  0  0  0  0  0  0  0  0
   -0.2500    0.5900    0.0650 N   0  0  0  0  0  0  0  0  0  0  0  0
   -0.9090    1.1860    1.2120 C   0  0  1  0  0  0  0  0  0  0  0  0
   -0.0250    0.9120    2.4370 C   0  0  0  0  0  0  0  0  0  0  0  0
   -1.1240    2.6400    1.0860 C   0  0  0  0  0  0  0  0  0  0  0  0
   -0.8790    3.4370    2.1810 C   0  0  0  0  0  0  0  0  0  0  0  0
   -1.0670    4.8200    2.1220 C   0  0  0  0  0  0  0  0  0  0  0  0
   -1.5040    5.3820    0.9430 C   0  0  0  0  0  0  0  0  0  0  0  0
   -1.6870    6.7470    0.8940 O   0  0  0  0  0  0  0  0  0  0  0  0
   -2.1340    7.3370   -0.3070 C   0  0  0  0  0  0  0  0  0  0  0  0
   -1.7440    4.5770   -0.1420 C   0  0  0  0  0  0  0  0  0  0  0  0
   -1.5610    3.2010   -0.0930 C   0  0  0  0  0  0  0  0  0  0  0  0
   -1.7900   -2.0690   -2.1830 C   0  0  0  0  0  0  0  0  0  0  0  0
   -2.4580   -2.9040   -1.4370 O   0  0  0  0  0  0  0  0  0  0  0  0
   -3.2580   -3.3070   -0.4770 C   0  0  0  0  0  0  0  0  0  0  0  0
   -3.9230   -2.4380    0.3930 C   0  0  0  0  0  0  0  0  0  0  0  0
   -4.7560   -2.8650    1.3850 C   0  0  0  0  0  0  0  0  0  0  0  0
   -4.9550   -4.2070    1.5400 C   0  0  0  0  0  0  0  0  0  0  0  0
   -4.3210   -5.0880    0.7040 C   0  0  0  0  0  0  0  0  0  0  0  0
   -3.4930   -4.6770   -0.2810 C   0  0  0  0  0  0  0  0  0  0  0  0
   -2.7980   -5.6070   -1.1930 C   0  0  0  0  0  0  0  0  0  0  0  0
   -3.1970   -7.0330   -1.0120 C   0  0  0  0  0  0  0  0  0  0  0  0
   -3.6030   -7.3810    0.4040 C   0  0  0  0  0  0  0  0  0  0  0  0
   -4.5490   -6.4510    0.8930 O   0  0  0  0  0  0  0  0  0  0  0  0
    2.6870    0.5810   -1.5170 C   0  0  0  0  0  0  0  0  0  0  0  0
  1  2  1  0
  2  3  1  0
  3  4  1  0
  4  5  2  0
  4  6  1  0
  6  7  1  0
  7  8  2  0
  7 39  1  0
  8  9  1  0
  9 10  2  0
 10 11  1  0
 11 12  1  0
 11 39  2  0
 12 13  1  0
 13 14  1  0
 14 15  1  1
 14 27  1  0
 15 16  1  0
 16 17  1  0
 17 18  1  1
 17 19  1  0
 19 20  2  0
 19 26  1  0
 20 21  1  0
 21 22  2  0
 22 23  1  0
 22 25  1  0
 23 24  1  0
 25 26  2  0
 27 28  1  0
 28 29  1  0
 29 30  2  0
 29 34  1  0
 30 31  1  0
 31 32  2  0
 32 33  1  0
 33 34  2  0
 33 38  1  0
 34 35  1  0
 35 36  1  0
 36 37  1  0
 37 38  1  0
M  CHG  1  16   1
M  END
