
     RDKit          3D

 39 42  0  0  0  0  0  0  0  0999 V2000
   10.7490    1.4340    2.5790 C   0  0  0  0  0  0  0  0  0  0  0  0
   11.5630    0.3250    1.9600 C   0  0  0  0  0  0  0  0  0  0  0  0
   10.7690   -0.9470    1.8230 C   0  0  0  0  0  0  0  0  0  0  0  0
    9.6110   -0.7030    0.9850 N   0  0  0  0  0  0  0  0  0  0  0  0
    8.7050   -1.7590    0.7070 C   0  0  0  0  0  0  0  0  0  0  0  0
    8.9710   -2.8800    1.2220 O   0  0  0  0  0  0  0  0  0  0  0  0
    7.5310   -1.5500   -0.1280 C   0  0  0  0  0  0  0  0  0  0  0  0
    6.6060   -2.5890   -0.2970 C   0  0  0  0  0  0  0  0  0  0  0  0
    5.4840   -2.4140   -1.0790 C   0  0  0  0  0  0  0  0  0  0  0  0
    5.2180   -1.2200   -1.7290 C   0  0  0  0  0  0  0  0  0  0  0  0
    4.0640   -1.0940   -2.5090 O   0  0  0  0  0  0  0  0  0  0  0  0
    3.7680    0.0890   -3.1800 C   0  0  0  0  0  0  0  0  0  0  0  0
    2.4830   -0.0120   -3.9350 C   0  0  0  0  0  0  0  0  0  0  0  0
    1.3540   -0.2810   -3.1600 O   0  0  0  0  0  0  0  0  0  0  0  0
    0.8630    0.4640   -2.1240 C   0  0  0  0  0  0  0  0  0  0  0  0
    1.4820    1.5180   -1.8050 O   0  0  0  0  0  0  0  0  0  0  0  0
   -0.3470    0.1200   -1.3510 C   0  0  0  0  0  0  0  0  0  0  0  0
   -1.0660   -1.0170   -1.6550 C   0  0  0  0  0  0  0  0  0  0  0  0
   -2.1970   -1.3380   -0.9530 C   0  0  0  0  0  0  0  0  0  0  0  0
   -2.6470   -0.5130    0.0940 C   0  0  0  0  0  0  0  0  0  0  0  0
   -1.9260    0.6020    0.3810 C   0  0  0  0  0  0  0  0  0  0  0  0
   -0.7770    0.9350   -0.3270 C   0  0  0  0  0  0  0  0  0  0  0  0
   -2.5930    1.2990    1.5060 C   0  0  0  0  0  0  0  0  0  0  0  0
   -3.9760    0.6320    1.5350 C   0  0  1  0  0  0  0  0  0  0  0  0
   -4.9990    1.4790    0.8950 C   0  0  0  0  0  0  0  0  0  0  0  0
   -6.4000    1.0650    0.8180 C   0  0  2  0  0  0  0  0  0  0  0  0
   -6.9870    0.7750    2.1140 N   0  0  0  0  0  0  0  0  0  0  0  0
   -7.8290    1.8070    2.6410 C   0  0  0  0  0  0  0  0  0  0  0  0
   -6.9020    0.2140   -0.2250 C   0  0  0  0  0  0  0  0  0  0  0  0
   -6.1150   -0.3550   -1.2030 C   0  0  0  0  0  0  0  0  0  0  0  0
   -6.6250   -1.1860   -2.2140 C   0  0  0  0  0  0  0  0  0  0  0  0
   -7.9780   -1.4550   -2.2430 C   0  0  0  0  0  0  0  0  0  0  0  0
   -8.7770   -0.8920   -1.2740 C   0  0  0  0  0  0  0  0  0  0  0  0
   -8.2630   -0.0750   -0.2840 C   0  0  0  0  0  0  0  0  0  0  0  0
   -9.1200    0.4600    0.6510 O   0  0  0  0  0  0  0  0  0  0  0  0
  -10.4880    0.3030    0.7680 C   0  0  0  0  0  0  0  0  0  0  0  0
   -3.7210   -0.5840    0.9470 O   0  0  0  0  0  0  0  0  0  0  0  0
    6.1230   -0.1950   -1.5670 C   0  0  0  0  0  0  0  0  0  0  0  0
    7.2600   -0.3740   -0.7730 C   0  0  0  0  0  0  0  0  0  0  0  0
  1  2  1  0
  2  3  1  0
  3  4  1  0
  4  5  1  0
  5  6  2  0
  5  7  1  0
  7  8  2  0
  7 39  1  0
  8  9  1  0
  9 10  2  0
 10 11  1  0
 10 38  1  0
 11 12  1  0
 12 13  1  0
 13 14  1  0
 14 15  1  0
 15 16  2  0
 15 17  1  0
 17 18  2  0
 17 22  1  0
 18 19  1  0
 19 20  2  0
 20 21  1  0
 20 37  1  0
 21 22  2  0
 21 23  1  0
 23 24  1  0
 24 25  1  6
 24 37  1  0
 26 25  1  1
 26 27  1  0
 26 29  1  0
 27 28  1  0
 29 30  2  0
 29 34  1  0
 30 31  1  0
 31 32  2  0
 32 33  1  0
 33 34  2  0
 34 35  1  0
 35 36  1  0
 38 39  2  0
M  CHG  1  27   1
M  END
