
     RDKit          3D

 39 42  0  0  0  0  0  0  0  0999 V2000
   -2.8600    1.6060   -5.9730 O   0  0  0  0  0  0  0  0  0  0  0  0
   -2.9340    2.2640   -4.8970 C   0  0  0  0  0  0  0  0  0  0  0  0
   -3.3070    1.6250   -3.7020 N   0  0  0  0  0  0  0  0  0  0  0  0
   -3.6070    0.2520   -3.6550 C   0  0  0  0  0  0  0  0  0  0  0  0
   -2.7830   -0.5960   -3.0850 C   0  0  0  0  0  0  0  0  0  0  0  0
   -1.5710   -0.2920   -2.4930 N   0  0  0  0  0  0  0  0  0  0  0  0
   -1.1420   -0.0510   -1.3420 C   0  0  0  0  0  0  0  0  0  0  0  0
   -1.7920    0.0150   -0.0570 C   0  0  0  0  0  0  0  0  0  0  0  0
   -1.0300    0.3180    1.0270 C   0  0  0  0  0  0  0  0  0  0  0  0
    0.3950    0.5740    0.9170 C   0  0  0  0  0  0  0  0  0  0  0  0
    0.9680    1.5440    0.1670 C   0  0  0  0  0  0  0  0  0  0  0  0
    2.3410    1.7030    0.0170 C   0  0  0  0  0  0  0  0  0  0  0  0
    3.1580    0.8050    0.6830 C   0  0  0  0  0  0  0  0  0  0  0  0
    2.6260   -0.1940    1.4540 C   0  0  0  0  0  0  0  0  0  0  0  0
    3.5330   -1.1540    2.1040 C   0  0  0  0  0  0  0  0  0  0  0  0
    3.0840   -2.0280    2.8670 O   0  0  0  0  0  0  0  0  0  0  0  0
    4.8740   -1.0670    1.8460 O   0  0  0  0  0  0  0  0  0  0  0  0
    5.8260   -1.9330    2.4090 C   0  0  0  0  0  0  0  0  0  0  0  0
    7.2150   -1.6210    1.8770 C   0  0  0  0  0  0  0  0  0  0  0  0
    7.6510   -0.3560    2.1380 O   0  0  0  0  0  0  0  0  0  0  0  0
    7.7860   -0.0010    3.4540 C   0  0  1  0  0  0  0  0  0  0  0  0
    9.1530    0.6410    3.7260 C   0  0  0  0  0  0  0  0  0  0  0  0
    9.0790    1.8540    2.8530 C   0  0  0  0  0  0  0  0  0  0  0  0
    7.6470    2.3140    2.9910 C   0  0  0  0  0  0  0  0  0  0  0  0
    6.8880    1.2110    3.6980 C   0  0  0  0  0  0  0  0  0  0  0  0
    1.2610   -0.3170    1.5790 C   0  0  0  0  0  0  0  0  0  0  0  0
   -3.1770   -0.2770    0.1590 C   0  0  0  0  0  0  0  0  0  0  0  0
   -3.6350   -0.1190    1.3460 O   0  0  0  0  0  0  0  0  0  0  0  0
   -4.0990   -0.7150   -0.7470 O   0  0  0  0  0  0  0  0  0  0  0  0
   -5.4790   -0.9730   -0.4750 C   0  0  2  0  0  0  0  0  0  0  0  0
   -5.7280   -2.4720   -0.4160 C   0  0  0  0  0  0  0  0  0  0  0  0
   -6.9610   -2.9110   -1.1280 C   0  0  0  0  0  0  0  0  0  0  0  0
   -7.0480   -2.3260   -2.5250 C   0  0  0  0  0  0  0  0  0  0  0  0
   -7.1070   -0.8460   -2.3920 C   0  0  0  0  0  0  0  0  0  0  0  0
   -7.8810   -0.0670   -3.2210 C   0  0  0  0  0  0  0  0  0  0  0  0
   -7.9410    1.2990   -3.1060 C   0  0  0  0  0  0  0  0  0  0  0  0
   -7.1980    1.9160   -2.1260 C   0  0  0  0  0  0  0  0  0  0  0  0
   -6.4350    1.1150   -1.3140 C   0  0  0  0  0  0  0  0  0  0  0  0
   -6.3480   -0.2540   -1.3960 C   0  0  0  0  0  0  0  0  0  0  0  0
  1  2  2  0
  2  3  1  0
  3  4  1  0
  4  5  2  3
  5  6  1  0
  6  7  2  3
  7  8  1  0
  8  9  2  3
  8 27  1  0
  9 10  1  0
 10 11  2  0
 10 26  1  0
 11 12  1  0
 12 13  2  0
 13 14  1  0
 14 15  1  0
 14 26  2  0
 15 16  2  0
 15 17  1  0
 17 18  1  0
 18 19  1  0
 19 20  1  0
 21 20  1  6
 21 22  1  0
 21 25  1  0
 22 23  1  0
 23 24  1  0
 24 25  1  0
 27 28  2  0
 27 29  1  0
 30 29  1  6
 30 31  1  0
 30 39  1  0
 31 32  1  0
 32 33  1  0
 33 34  1  0
 34 35  2  0
 34 39  1  0
 35 36  1  0
 36 37  2  0
 37 38  1  0
 38 39  2  0
M  CHG  1   6   1
M  END
