
     RDKit          3D

 26 28  0  0  0  0  0  0  0  0999 V2000
   -4.4580   -2.8030   -2.2710 C   0  0  0  0  0  0  0  0  0  0  0  0
   -4.4250   -1.6810   -1.6610 N   0  0  0  0  0  0  0  0  0  0  0  0
   -3.6650   -1.4480   -0.4840 C   0  0  0  0  0  0  0  0  0  0  0  0
   -2.5570   -0.7690   -0.6880 C   0  0  0  0  0  0  0  0  0  0  0  0
   -1.6230   -0.4100    0.3410 N   0  0  0  0  0  0  0  0  0  0  0  0
   -0.2870   -0.1840   -0.1780 C   0  0  0  0  0  0  0  0  0  0  0  0
    0.1990    0.9850   -0.2780 N   0  0  0  0  0  0  0  0  0  0  0  0
   -0.4850    2.1720    0.0940 C   0  0  0  0  0  0  0  0  0  0  0  0
   -1.6100    2.5490   -0.4920 C   0  0  0  0  0  0  0  0  0  0  0  0
   -2.0810    3.8070    0.1010 C   0  0  0  0  0  0  0  0  0  0  0  0
   -1.0590    4.1120    1.1270 C   0  0  0  0  0  0  0  0  0  0  0  0
   -0.1460    3.1540    1.1050 C   0  0  0  0  0  0  0  0  0  0  0  0
    0.4640   -1.3600   -0.5760 C   0  0  0  0  0  0  0  0  0  0  0  0
   -0.0610   -2.5330   -0.4560 O   0  0  0  0  0  0  0  0  0  0  0  0
    1.7680   -1.3320   -1.1030 N   0  0  0  0  0  0  0  0  0  0  0  0
    2.4270   -2.6010   -1.4450 C   0  0  0  0  0  0  0  0  0  0  0  0
    2.5270   -0.1390   -1.3510 C   0  0  0  0  0  0  0  0  0  0  0  0
    3.3360    0.2750   -0.1400 C   0  0  2  0  0  0  0  0  0  0  0  0
    4.1050    1.5390   -0.4870 C   0  0  0  0  0  0  0  0  0  0  0  0
    5.0920    1.5960    0.6710 C   0  0  0  0  0  0  0  0  0  0  0  0
    5.4970    0.1520    0.8840 C   0  0  0  0  0  0  0  0  0  0  0  0
    4.4650   -0.6860    0.1530 C   0  0  0  0  0  0  0  0  0  0  0  0
   -1.7030   -0.2260    1.7380 C   0  0  0  0  0  0  0  0  0  0  0  0
   -2.8070   -0.8890    2.4630 C   0  0  0  0  0  0  0  0  0  0  0  0
   -4.1290   -0.9050    1.8030 C   0  0  0  0  0  0  0  0  0  0  0  0
   -4.2610   -2.0120    0.7480 C   0  0  0  0  0  0  0  0  0  0  0  0
  1  2  2  0
  2  3  1  0
  3  4  2  0
  3 26  1  0
  4  5  1  0
  5  6  1  0
  5 23  1  0
  6  7  2  3
  6 13  1  0
  7  8  1  0
  8  9  2  0
  8 12  1  0
  9 10  1  0
 10 11  1  0
 11 12  2  0
 13 14  2  0
 13 15  1  0
 15 16  1  0
 15 17  1  0
 18 17  1  6
 18 19  1  0
 18 22  1  0
 19 20  1  0
 20 21  1  0
 21 22  1  0
 23 24  1  0
 24 25  1  0
 25 26  1  0
M  CHG  1   2   1
M  END
