
     RDKit          3D

 26 29  0  0  0  0  0  0  0  0999 V2000
   -3.8780   -2.3390    3.2170 C   0  0  0  0  0  0  0  0  0  0  0  0
   -4.7630   -1.6980    2.2770 N   0  0  0  0  0  0  0  0  0  0  0  0
   -4.2950   -0.9850    1.3150 C   0  0  0  0  0  0  0  0  0  0  0  0
   -2.9050   -0.7600    1.0840 N   0  0  0  0  0  0  0  0  0  0  0  0
   -2.8660   -0.0110    0.0460 C   0  0  0  0  0  0  0  0  0  0  0  0
   -4.1530    0.3140   -0.4860 C   0  0  0  0  0  0  0  0  0  0  0  0
   -5.0520   -0.2910    0.3050 C   0  0  0  0  0  0  0  0  0  0  0  0
   -6.5110   -0.2370    0.1450 C   0  0  0  0  0  0  0  0  0  0  0  0
   -4.3350    1.1080   -1.6900 C   0  0  0  0  0  0  0  0  0  0  0  0
   -3.1760    1.8830   -2.1620 C   0  0  0  0  0  0  0  0  0  0  0  0
   -1.8670    1.4100   -1.6850 C   0  0  0  0  0  0  0  0  0  0  0  0
   -0.6950    1.8800   -2.3190 C   0  0  0  0  0  0  0  0  0  0  0  0
    0.5530    1.5140   -1.8700 C   0  0  0  0  0  0  0  0  0  0  0  0
    0.7380    0.6910   -0.8050 C   0  0  0  0  0  0  0  0  0  0  0  0
    1.9820    0.2540   -0.2900 N   0  0  0  0  0  0  0  0  0  0  0  0
    3.2320    0.3780   -0.8920 C   0  0  0  0  0  0  0  0  0  0  0  0
    3.3140    0.9280   -2.0400 O   0  0  0  0  0  0  0  0  0  0  0  0
    4.4830   -0.0860   -0.3030 C   0  0  0  0  0  0  0  0  0  0  0  0
    5.6480   -0.3150   -1.0670 C   0  0  0  0  0  0  0  0  0  0  0  0
    6.6220   -0.7760   -0.2230 C   0  0  0  0  0  0  0  0  0  0  0  0
    8.0000   -1.1460   -0.5970 C   0  0  0  0  0  0  0  0  0  0  0  0
    6.1030   -0.8350    1.0010 N   0  0  0  0  0  0  0  0  0  0  0  0
    4.7950   -0.4180    0.9830 C   0  0  0  0  0  0  0  0  0  0  0  0
    3.9270   -0.3350    2.1640 C   0  0  0  0  0  0  0  0  0  0  0  0
   -0.4220    0.2340   -0.1900 C   0  0  0  0  0  0  0  0  0  0  0  0
   -1.6970    0.5930   -0.6320 C   0  0  0  0  0  0  0  0  0  0  0  0
  1  2  1  0
  2  3  2  3
  3  4  1  0
  3  7  1  0
  4  5  2  0
  5  6  1  0
  5 26  1  0
  6  7  2  0
  6  9  1  0
  7  8  1  0
  9 10  1  0
 10 11  1  0
 11 12  2  0
 11 26  1  0
 12 13  1  0
 13 14  2  0
 14 15  1  0
 14 25  1  0
 15 16  1  0
 16 17  2  0
 16 18  1  0
 18 19  1  0
 18 23  2  0
 19 20  2  0
 20 21  1  0
 20 22  1  0
 22 23  1  0
 23 24  1  0
 25 26  2  0
M  CHG  1   2   1
M  END
