
     RDKit          3D

 20 20  0  0  0  0  0  0  0  0999 V2000
    3.3000    2.6480   -0.4290 C   0  0  0  0  0  0  0  0  0  0  0  0
    3.8530    1.4940   -0.0100 C   0  0  0  0  0  0  0  0  0  0  0  0
    5.3990    1.6310    0.7530 Cl  0  0  0  0  0  0  0  0  0  0  0  0
    3.1470    0.2510   -0.2090 C   0  0  0  0  0  0  0  0  0  0  0  0
    3.6440   -0.9030    0.1740 C   0  0  0  0  0  0  0  0  0  0  0  0
    4.9270   -1.1630    0.8390 C   0  0  1  0  0  0  0  0  0  0  0  0
    4.9730   -2.8830    1.4210 Cl  0  0  0  0  0  0  0  0  0  0  0  0
    6.3150   -1.0280   -0.2850 Cl  0  0  0  0  0  0  0  0  0  0  0  0
    1.7910    0.2860   -0.8870 C   0  0  0  0  0  0  0  0  0  0  0  0
    0.8850    1.0660   -0.1010 N   0  0  0  0  0  0  0  0  0  0  0  0
    0.6320    0.3440    1.1320 C   0  0  0  0  0  0  0  0  0  0  0  0
   -0.2560   -0.7760    0.6710 C   0  0  0  0  0  0  0  0  0  0  0  0
   -1.1110   -0.1900   -0.4460 C   0  0  1  0  0  0  0  0  0  0  0  0
   -1.0130   -1.1240   -1.6200 C   0  0  0  0  0  0  0  0  0  0  0  0
   -2.5060   -0.0630    0.0970 C   0  0  1  0  0  0  0  0  0  0  0  0
   -2.9610   -1.4670    0.4870 C   0  0  0  0  0  0  0  0  0  0  0  0
   -2.4680    0.7960    1.1800 O   0  0  0  0  0  0  0  0  0  0  0  0
   -3.5070    0.4500   -0.9010 C   0  0  0  0  0  0  0  0  0  0  0  0
   -4.8460    0.5150   -0.2000 C   0  0  0  0  0  0  0  0  0  0  0  0
   -0.4400    1.1350   -0.6790 C   0  0  0  0  0  0  0  0  0  0  0  0
  1  2  2  0
  2  3  1  0
  2  4  1  0
  4  5  2  3
  4  9  1  0
  5  6  1  0
  6  7  1  6
  6  8  1  0
  9 10  1  0
 10 11  1  0
 10 20  1  0
 11 12  1  0
 12 13  1  0
 13 14  1  6
 13 15  1  0
 13 20  1  0
 15 16  1  1
 15 17  1  0
 15 18  1  0
 18 19  1  0
M  END
