
     RDKit          3D

 20 21  0  0  0  0  0  0  0  0999 V2000
    4.0770    1.8220    1.0010 C   0  0  0  0  0  0  0  0  0  0  0  0
    2.7170    2.2700    0.6510 C   0  0  0  0  0  0  0  0  0  0  0  0
    1.6900    1.4030    0.1580 C   0  0  0  0  0  0  0  0  0  0  0  0
    1.6590    0.1640   -0.2050 C   0  0  0  0  0  0  0  0  0  0  0  0
    0.4030   -0.4380   -0.6670 N   0  0  0  0  0  0  0  0  0  0  0  0
   -0.9240   -0.0730   -0.4200 C   0  0  0  0  0  0  0  0  0  0  0  0
   -1.2060    0.8960    0.3120 O   0  0  0  0  0  0  0  0  0  0  0  0
   -2.0210   -0.8250   -1.0200 C   0  0  0  0  0  0  0  0  0  0  0  0
   -3.3890   -0.3830   -0.6800 C   0  0  2  0  0  0  0  0  0  0  0  0
   -3.7160    0.9940   -1.0400 C   0  0  0  0  0  0  0  0  0  0  0  0
   -4.6130    1.4620   -0.1890 C   0  0  0  0  0  0  0  0  0  0  0  0
   -4.9730    0.4400    0.8250 C   0  0  0  0  0  0  0  0  0  0  0  0
   -3.7200   -0.4490    0.7910 C   0  0  0  0  0  0  0  0  0  0  0  0
    0.7720   -1.6230   -1.4830 C   0  0  0  0  0  0  0  0  0  0  0  0
    1.9640   -2.1620   -0.7250 C   0  0  2  0  0  0  0  0  0  0  0  0
    3.0530   -3.1350   -1.6930 Cl  0  0  0  0  0  0  0  0  0  0  0  0
    1.4050   -3.0490    0.6930 Cl  0  0  0  0  0  0  0  0  0  0  0  0
    2.6920   -0.8560   -0.3110 C   0  0  2  0  0  0  0  0  0  0  0  0
    3.4430   -1.2110    0.9210 C   0  0  0  0  0  0  0  0  0  0  0  0
    3.7750   -0.4540   -1.7020 Cl  0  0  0  0  0  0  0  0  0  0  0  0
  1  2  1  0
  2  3  1  0
  3  4  2  3
  4  5  1  0
  4 18  1  0
  5  6  1  0
  5 14  1  0
  6  7  2  0
  6  8  1  0
  9  8  1  1
  9 10  1  0
  9 13  1  0
 10 11  2  0
 11 12  1  0
 12 13  1  0
 14 15  1  0
 15 16  1  6
 15 17  1  0
 15 18  1  0
 18 19  1  1
 18 20  1  0
M  END
