
     RDKit          3D

 13 13  0  0  0  0  0  0  0  0999 V2000
   -2.9980    1.2180   -0.6600 N   0  0  0  0  0  0  0  0  0  0  0  0
   -1.8300    0.3770   -0.6270 C   0  0  1  0  0  0  0  0  0  0  0  0
   -0.6860    1.2600   -0.1860 C   0  0  0  0  0  0  0  0  0  0  0  0
    0.6120    0.5460   -0.0950 C   0  0  0  0  0  0  0  0  0  0  0  0
    1.0100   -0.0550    1.0810 C   0  0  0  0  0  0  0  0  0  0  0  0
    2.2260   -0.7270    1.1650 C   0  0  0  0  0  0  0  0  0  0  0  0
    3.0600   -0.8040    0.0720 C   0  0  0  0  0  0  0  0  0  0  0  0
    4.9000   -1.8130    0.1810 I   0  0  0  0  0  0  0  0  0  0  0  0
    2.6830   -0.2110   -1.1130 C   0  0  0  0  0  0  0  0  0  0  0  0
    1.4730    0.4470   -1.1680 C   0  0  0  0  0  0  0  0  0  0  0  0
   -2.0840   -0.7590    0.2790 C   0  0  0  0  0  0  0  0  0  0  0  0
   -3.1750   -0.8540    0.8810 O   0  0  0  0  0  0  0  0  0  0  0  0
   -1.1350   -1.7420    0.4880 O   0  0  0  0  0  0  0  0  0  0  0  0
  2  1  1  1
  2  3  1  0
  2 11  1  0
  3  4  1  0
  4  5  2  0
  4 10  1  0
  5  6  1  0
  6  7  2  0
  7  8  1  0
  7  9  1  0
  9 10  2  0
 11 12  2  0
 11 13  1  0
M  END
