
     RDKit          3D

 20 20  0  0  0  0  0  0  0  0999 V2000
    2.4260   -0.2050   -2.3550 C   0  0  0  0  0  0  0  0  0  0  0  0
    3.4230   -0.6930   -1.3990 C   0  0  0  0  0  0  0  0  0  0  0  0
    3.3180   -0.7130   -0.1080 C   0  0  0  0  0  0  0  0  0  0  0  0
    4.5440   -1.2850    0.6860 C   0  0  0  0  0  0  0  0  0  0  0  0
    3.9280   -2.6750    1.5890 Cl  0  0  0  0  0  0  0  0  0  0  0  0
    2.1860   -0.3350    0.7000 C   0  0  0  0  0  0  0  0  0  0  0  0
    0.9390   -0.0260    0.1880 N   0  0  0  0  0  0  0  0  0  0  0  0
    0.0710   -1.0500   -0.2370 C   0  0  0  0  0  0  0  0  0  0  0  0
   -1.3240   -0.6630   -0.6050 C   0  0  2  0  0  0  0  0  0  0  0  0
   -2.1910   -1.8960   -0.2830 C   0  0  0  0  0  0  0  0  0  0  0  0
   -1.4160   -0.5390   -2.1250 C   0  0  0  0  0  0  0  0  0  0  0  0
   -1.8690    0.5680    0.0340 C   0  0  1  0  0  0  0  0  0  0  0  0
   -1.8950    1.5830   -1.0010 O   0  0  0  0  0  0  0  0  0  0  0  0
   -3.3310    0.4490    0.4040 C   0  0  0  0  0  0  0  0  0  0  0  0
   -4.2900    0.1810   -1.0900 Cl  0  0  0  0  0  0  0  0  0  0  0  0
   -1.0070    1.1930    1.0850 C   0  0  1  0  0  0  0  0  0  0  0  0
   -1.3550    2.6850    1.2490 C   0  0  0  0  0  0  0  0  0  0  0  0
   -1.0980    0.6010    2.4310 C   0  0  0  0  0  0  0  0  0  0  0  0
   -2.7180    0.7040    3.1430 Cl  0  0  0  0  0  0  0  0  0  0  0  0
    0.3990    1.2340    0.5190 C   0  0  0  0  0  0  0  0  0  0  0  0
  1  2  1  0
  2  3  2  3
  3  4  1  0
  3  6  1  0
  4  5  1  0
  6  7  1  0
  7  8  1  0
  7 20  1  0
  8  9  1  0
  9 10  1  1
  9 11  1  0
  9 12  1  0
 12 13  1  6
 12 14  1  0
 12 16  1  0
 14 15  1  0
 16 17  1  1
 16 18  1  0
 16 20  1  0
 18 19  1  0
M  END
