
     RDKit          3D

 20 21  0  0  0  0  0  0  0  0999 V2000
    0.9910   -2.5950    1.6430 O   0  0  0  0  0  0  0  0  0  0  0  0
   -0.1230   -2.5000    0.7920 C   0  0  1  0  0  0  0  0  0  0  0  0
   -1.2560   -3.1410    1.5550 C   0  0  0  0  0  0  0  0  0  0  0  0
   -2.5180   -3.0010    0.7340 C   0  0  0  0  0  0  0  0  0  0  0  0
   -2.8590   -1.5480    0.6910 C   0  0  0  0  0  0  0  0  0  0  0  0
   -1.6800   -0.6640    0.4490 C   0  0  0  0  0  0  0  0  0  0  0  0
   -0.4380   -1.0690    0.4810 C   0  0  0  0  0  0  0  0  0  0  0  0
    0.6140   -0.1250    0.0560 C   0  0  1  0  0  0  0  0  0  0  0  0
    1.0360   -0.3280   -1.3580 C   0  0  0  0  0  0  0  0  0  0  0  0
    2.1220    0.5950   -1.7720 C   0  0  0  0  0  0  0  0  0  0  0  0
    3.3690    0.4420   -0.8870 C   0  0  0  0  0  0  0  0  0  0  0  0
    4.3960    1.4250   -1.4020 C   0  0  0  0  0  0  0  0  0  0  0  0
    3.7130    3.0600   -1.2790 Cl  0  0  0  0  0  0  0  0  0  0  0  0
    0.3200    1.2720    0.3480 C   0  0  2  0  0  0  0  0  0  0  0  0
    1.0090    1.7880    1.9350 Cl  0  0  0  0  0  0  0  0  0  0  0  0
   -1.0990    1.6260    0.2810 C   0  0  0  0  0  0  0  0  0  0  0  0
   -1.4500    3.0800    0.1480 C   0  0  0  0  0  0  0  0  0  0  0  0
   -2.9600    3.1610    0.1030 C   0  0  0  0  0  0  0  0  0  0  0  0
   -3.6090    2.4730    1.6210 Cl  0  0  0  0  0  0  0  0  0  0  0  0
   -1.9940    0.7210    0.3370 N   0  0  0  0  0  0  0  0  0  0  0  0
  2  1  1  1
  2  3  1  0
  2  7  1  0
  3  4  1  0
  4  5  1  0
  5  6  1  0
  6  7  2  0
  6 20  1  0
  7  8  1  0
  8  9  1  6
  8 14  1  0
  9 10  1  0
 10 11  1  0
 11 12  1  0
 12 13  1  0
 14 15  1  1
 14 16  1  0
 16 17  1  0
 16 20  2  0
 17 18  1  0
 18 19  1  0
M  END
