
     RDKit          3D

 20 20  0  0  0  0  0  0  0  0999 V2000
    2.4340    1.8360   -0.6370 C   0  0  0  0  0  0  0  0  0  0  0  0
    3.2560    0.7910   -0.7630 C   0  0  0  0  0  0  0  0  0  0  0  0
    4.9330    1.2000   -1.0110 Cl  0  0  0  0  0  0  0  0  0  0  0  0
    2.7840   -0.5670   -0.6770 C   0  0  0  0  0  0  0  0  0  0  0  0
    1.3160   -0.7840   -0.4210 C   0  0  0  0  0  0  0  0  0  0  0  0
    0.9180   -0.2410    0.8900 N   0  0  0  0  0  0  0  0  0  0  0  0
    1.5650   -1.0240    1.9500 C   0  0  0  0  0  0  0  0  0  0  0  0
   -0.5100   -0.4610    1.0840 C   0  0  0  0  0  0  0  0  0  0  0  0
   -1.4070    0.3790    0.2620 C   0  0  2  0  0  0  0  0  0  0  0  0
   -1.2800    1.8480    0.5330 C   0  0  0  0  0  0  0  0  0  0  0  0
   -0.2180    2.5100    1.7620 Cl  0  0  0  0  0  0  0  0  0  0  0  0
   -2.0610    2.6220   -0.2160 C   0  0  0  0  0  0  0  0  0  0  0  0
   -2.9310    1.8940   -1.1930 C   0  0  0  0  0  0  0  0  0  0  0  0
   -3.7750    0.9590   -0.3170 C   0  0  1  0  0  0  0  0  0  0  0  0
   -4.7630    0.3200   -1.0200 O   0  0  0  0  0  0  0  0  0  0  0  0
   -2.8340   -0.0110    0.4060 C   0  0  1  0  0  0  0  0  0  0  0  0
   -3.1160   -1.3710   -0.2480 C   0  0  0  0  0  0  0  0  0  0  0  0
    3.5580   -1.5950   -0.8120 C   0  0  0  0  0  0  0  0  0  0  0  0
    5.0010   -1.5390   -1.0670 C   0  0  0  0  0  0  0  0  0  0  0  0
    2.8470   -3.2190   -0.6860 Cl  0  0  0  0  0  0  0  0  0  0  0  0
  1  2  2  0
  2  3  1  0
  2  4  1  0
  4  5  1  0
  4 18  2  3
  5  6  1  0
  6  7  1  0
  6  8  1  0
  9  8  1  1
  9 10  1  0
  9 16  1  0
 10 11  1  0
 10 12  2  0
 12 13  1  0
 13 14  1  0
 14 15  1  6
 14 16  1  0
 16 17  1  6
 18 19  1  0
 18 20  1  0
M  END
