
     RDKit          3D

 20 21  0  0  0  0  0  0  0  0999 V2000
    3.9120   -1.8810   -0.8270 C   0  0  0  0  0  0  0  0  0  0  0  0
    3.5000   -1.7220   -2.0460 C   0  0  0  0  0  0  0  0  0  0  0  0
    4.1850   -2.9170   -3.2160 Cl  0  0  0  0  0  0  0  0  0  0  0  0
    2.5650   -0.7900   -2.6470 C   0  0  0  0  0  0  0  0  0  0  0  0
    1.7910    0.1080   -1.8990 N   0  0  0  0  0  0  0  0  0  0  0  0
    0.6320   -0.3490   -1.2470 C   0  0  1  0  0  0  0  0  0  0  0  0
    0.8020   -1.3380   -0.1770 C   0  0  0  0  0  0  0  0  0  0  0  0
   -0.5170   -1.6010    0.5250 C   0  0  0  0  0  0  0  0  0  0  0  0
   -1.5580   -0.8110    0.4250 C   0  0  0  0  0  0  0  0  0  0  0  0
   -2.8320   -1.1620    1.1660 C   0  0  2  0  0  0  0  0  0  0  0  0
   -3.4070   -2.5160    1.0580 C   0  0  0  0  0  0  0  0  0  0  0  0
   -4.0850   -1.3850    0.3780 C   0  0  2  0  0  0  0  0  0  0  0  0
   -4.0100   -1.2350   -1.3920 Cl  0  0  0  0  0  0  0  0  0  0  0  0
   -5.6530   -0.9180    1.0760 Cl  0  0  0  0  0  0  0  0  0  0  0  0
   -1.4960    0.3310   -0.3480 O   0  0  0  0  0  0  0  0  0  0  0  0
   -0.2710    0.8210   -0.7910 C   0  0  1  0  0  0  0  0  0  0  0  0
    0.5010    1.5850    0.2150 C   0  0  0  0  0  0  0  0  0  0  0  0
   -0.2470    2.7770    0.7800 C   0  0  2  0  0  0  0  0  0  0  0  0
    0.7140    3.4240    1.7850 C   0  0  0  0  0  0  0  0  0  0  0  0
   -1.4560    2.3560    1.5820 C   0  0  0  0  0  0  0  0  0  0  0  0
  1  2  2  0
  2  3  1  0
  2  4  1  0
  4  5  1  0
  6  5  1  1
  6  7  1  0
  6 16  1  0
  7  8  1  0
  8  9  2  0
 10  9  1  6
  9 15  1  0
 10 11  1  0
 10 12  1  0
 11 12  1  0
 12 13  1  6
 12 14  1  0
 15 16  1  0
 16 17  1  1
 17 18  1  0
 18 19  1  1
 18 20  1  0
M  END
