
     RDKit          3D

 29 33  0  0  0  0  0  0  0  0999 V2000
    2.1220   -1.9950    0.5830 C   0  0  0  0  0  0  0  0  0  0  0  0
    1.3710   -0.7250    0.3860 C   0  0  0  0  0  0  0  0  0  0  0  0
    2.0100    0.3890    0.2060 C   0  0  0  0  0  0  0  0  0  0  0  0
    3.4820    0.3980    0.1970 C   0  0  0  0  0  0  0  0  0  0  0  0
    4.2470    1.0160   -0.7880 C   0  0  0  0  0  0  0  0  0  0  0  0
    5.5960    0.8300   -0.4450 C   0  0  0  0  0  0  0  0  0  0  0  0
    5.5810    0.1170    0.7210 C   0  0  0  0  0  0  0  0  0  0  0  0
    4.3240   -0.1360    1.0940 N   0  0  0  0  0  0  0  0  0  0  0  0
    7.2880   -0.0960    1.1910 S   0  0  0  0  0  0  0  0  0  0  0  0
    7.9250    1.2870    0.1330 C   0  0  0  0  0  0  0  0  0  0  0  0
    6.9190    1.1490   -0.9870 C   0  0  0  0  0  0  0  0  0  0  0  0
   -0.0980   -0.7380    0.4050 C   0  0  0  0  0  0  0  0  0  0  0  0
   -0.6770   -1.8660    0.5560 N   0  0  0  0  0  0  0  0  0  0  0  0
   -2.0690   -2.0800    0.6010 N   0  0  0  0  0  0  0  0  0  0  0  0
   -2.6780   -3.6590    0.7900 S   0  0  1  0  0  0  0  0  0  0  0  0
   -2.1330   -4.6120   -0.6430 C   0  0  0  0  0  0  0  0  0  0  0  0
   -1.8950   -4.2620    1.9640 O   0  0  0  0  0  0  0  0  0  0  0  0
   -4.1060   -3.8470    0.9520 O   0  0  0  0  0  0  0  0  0  0  0  0
   -2.9030   -0.9500    0.4710 C   0  0  0  0  0  0  0  0  0  0  0  0
   -4.2650   -0.9860    0.4960 C   0  0  0  0  0  0  0  0  0  0  0  0
   -5.0050    0.1850    0.3630 C   0  0  0  0  0  0  0  0  0  0  0  0
   -6.2560    0.0520    0.3990 O   0  0  0  0  0  0  0  0  0  0  0  0
   -4.4540    1.3940    0.2030 N   0  0  0  0  0  0  0  0  0  0  0  0
   -5.3130    2.5360    0.0770 C   0  0  2  0  0  0  0  0  0  0  0  0
   -4.9370    3.5830   -0.9600 C   0  0  0  0  0  0  0  0  0  0  0  0
   -4.9410    3.8820    0.5150 C   0  0  0  0  0  0  0  0  0  0  0  0
   -3.1150    1.4540    0.1750 C   0  0  0  0  0  0  0  0  0  0  0  0
   -2.3250    0.3200    0.3040 C   0  0  0  0  0  0  0  0  0  0  0  0
   -0.9070    0.4090    0.2720 N   0  0  0  0  0  0  0  0  0  0  0  0
  1  2  1  0
  2  3  2  3
  2 12  1  0
  3  4  1  0
  4  5  2  0
  4  8  1  0
  5  6  1  0
  6  7  2  0
  6 11  1  0
  7  8  1  0
  7  9  1  0
  9 10  1  0
 10 11  1  0
 12 13  2  0
 12 29  1  0
 13 14  1  0
 14 15  1  0
 14 19  1  0
 15 16  1  6
 15 17  2  0
 15 18  2  0
 19 20  2  0
 19 28  1  0
 20 21  1  0
 21 22  2  0
 21 23  1  0
 24 23  1  1
 23 27  1  0
 24 25  1  0
 24 26  1  0
 25 26  1  0
 27 28  2  0
 28 29  1  0
M  END
