
     RDKit          3D

 31 33  0  0  0  0  0  0  0  0999 V2000
    7.7850    2.3520    0.9470 C   0  0  0  0  0  0  0  0  0  0  0  0
    6.7570    2.3850   -0.0170 O   0  0  0  0  0  0  0  0  0  0  0  0
    5.6290    1.6060   -0.0110 C   0  0  0  0  0  0  0  0  0  0  0  0
    4.7140    1.7720   -1.0440 C   0  0  0  0  0  0  0  0  0  0  0  0
    3.5850    1.0120   -1.0610 C   0  0  0  0  0  0  0  0  0  0  0  0
    3.2740    0.0530   -0.0870 C   0  0  0  0  0  0  0  0  0  0  0  0
    2.0240   -0.6450   -0.2580 C   0  0  0  0  0  0  0  0  0  0  0  0
    1.9290   -1.6960   -1.1290 C   0  0  0  0  0  0  0  0  0  0  0  0
    3.3290   -2.2380   -1.9960 S   0  0  1  0  0  0  0  0  0  0  0  0
    4.5450   -2.7960   -0.8140 C   0  0  0  0  0  0  0  0  0  0  0  0
    2.9410   -3.4580   -2.8040 O   0  0  0  0  0  0  0  0  0  0  0  0
    3.8720   -1.1600   -2.8900 O   0  0  0  0  0  0  0  0  0  0  0  0
    0.7050   -2.3580   -1.3250 C   0  0  0  0  0  0  0  0  0  0  0  0
   -0.4280   -1.9660   -0.6470 C   0  0  0  0  0  0  0  0  0  0  0  0
   -0.3280   -0.9070    0.2280 C   0  0  0  0  0  0  0  0  0  0  0  0
   -1.5160   -0.4810    0.9640 C   0  0  0  0  0  0  0  0  0  0  0  0
   -1.4910   -0.2770    2.2090 O   0  0  0  0  0  0  0  0  0  0  0  0
   -2.7520   -0.2810    0.2530 C   0  0  0  0  0  0  0  0  0  0  0  0
   -2.9300   -0.3660   -1.0990 C   0  0  0  0  0  0  0  0  0  0  0  0
   -4.2200   -0.0750   -1.3220 N   0  0  0  0  0  0  0  0  0  0  0  0
   -4.8380    0.1820   -0.1820 N   0  0  0  0  0  0  0  0  0  0  0  0
   -6.2420    0.5390   -0.1280 C   0  0  2  0  0  0  0  0  0  0  0  0
   -7.0080   -0.1620    0.9480 C   0  0  0  0  0  0  0  0  0  0  0  0
   -6.9060    0.3160   -1.4770 C   0  0  0  0  0  0  0  0  0  0  0  0
   -6.2590    2.0340    0.2210 C   0  0  0  0  0  0  0  0  0  0  0  0
   -3.9700    0.0660    0.8080 C   0  0  0  0  0  0  0  0  0  0  0  0
   -4.2640    0.2640    2.1520 O   0  0  0  0  0  0  0  0  0  0  0  0
    0.8690   -0.2490    0.4320 C   0  0  0  0  0  0  0  0  0  0  0  0
    1.0260    0.8780    1.3610 C   0  0  0  0  0  0  0  0  0  0  0  0
    4.1800   -0.0950    0.9140 C   0  0  0  0  0  0  0  0  0  0  0  0
    5.3520    0.6700    0.9630 C   0  0  0  0  0  0  0  0  0  0  0  0
  1  2  1  0
  2  3  1  0
  3  4  2  0
  3 31  1  0
  4  5  1  0
  5  6  2  0
  6  7  1  0
  6 30  1  0
  7  8  2  0
  7 28  1  0
  8  9  1  0
  8 13  1  0
  9 10  1  1
  9 11  2  0
  9 12  2  0
 13 14  2  0
 14 15  1  0
 15 16  1  0
 15 28  2  0
 16 17  2  0
 16 18  1  0
 18 19  1  0
 18 26  2  0
 19 20  2  0
 20 21  1  0
 21 22  1  0
 21 26  1  0
 22 23  1  1
 22 24  1  0
 22 25  1  0
 26 27  1  0
 28 29  1  0
 30 31  2  0
M  END
