
     RDKit          3D

 30 33  0  0  0  0  0  0  0  0999 V2000
   -8.3550   -0.3850    0.4110 C   0  0  0  0  0  0  0  0  0  0  0  0
   -7.7350   -1.3800   -0.4770 C   0  0  0  0  0  0  0  0  0  0  0  0
   -6.4180   -1.4690   -0.5220 C   0  0  0  0  0  0  0  0  0  0  0  0
   -5.6250   -0.5800    0.3150 C   0  0  0  0  0  0  0  0  0  0  0  0
   -4.3150   -0.5800    0.3410 C   0  0  0  0  0  0  0  0  0  0  0  0
   -3.6680    0.4070    1.2700 C   0  0  0  0  0  0  0  0  0  0  0  0
   -2.3830    0.9280    0.7680 C   0  0  0  0  0  0  0  0  0  0  0  0
   -1.5570   -0.2190    0.1530 C   0  0  2  0  0  0  0  0  0  0  0  0
   -1.3560   -1.2370    1.2470 C   0  0  0  0  0  0  0  0  0  0  0  0
   -0.2320    0.3140   -0.2360 C   0  0  0  0  0  0  0  0  0  0  0  0
   -0.0730    1.5180   -0.8910 C   0  0  0  0  0  0  0  0  0  0  0  0
    1.1640    2.0140   -1.2030 C   0  0  0  0  0  0  0  0  0  0  0  0
    2.3380    1.3010   -0.8630 C   0  0  0  0  0  0  0  0  0  0  0  0
    3.6370    1.8840   -1.1970 C   0  0  1  0  0  0  0  0  0  0  0  0
    3.4880    3.3160   -1.1570 O   0  0  0  0  0  0  0  0  0  0  0  0
    4.7790    1.5280   -0.3210 C   0  0  1  0  0  0  0  0  0  0  0  0
    4.5230    1.9090    1.1010 C   0  0  0  0  0  0  0  0  0  0  0  0
    5.2170    0.8690    1.9260 C   0  0  0  0  0  0  0  0  0  0  0  0
    5.5670   -0.2070    1.0040 C   0  0  0  0  0  0  0  0  0  0  0  0
    6.0800   -1.4580    1.2640 C   0  0  0  0  0  0  0  0  0  0  0  0
    6.3160   -2.3420    0.2950 N   0  0  0  0  0  0  0  0  0  0  0  0
    6.0540   -2.0240   -0.9860 C   0  0  0  0  0  0  0  0  0  0  0  0
    6.3000   -2.9570   -2.0110 O   0  0  0  0  0  0  0  0  0  0  0  0
    5.5440   -0.7870   -1.2860 C   0  0  0  0  0  0  0  0  0  0  0  0
    5.2800    0.1650   -0.3200 C   0  0  0  0  0  0  0  0  0  0  0  0
    2.1900    0.1160   -0.2240 C   0  0  0  0  0  0  0  0  0  0  0  0
    0.9130   -0.3680    0.0860 C   0  0  0  0  0  0  0  0  0  0  0  0
   -2.3100   -0.7240   -1.0160 C   0  0  2  0  0  0  0  0  0  0  0  0
   -2.8050    0.3200   -1.7960 O   0  0  0  0  0  0  0  0  0  0  0  0
   -3.5430   -1.4830   -0.5090 C   0  0  0  0  0  0  0  0  0  0  0  0
  1  2  1  0
  2  3  2  3
  3  4  1  0
  4  5  2  3
  5  6  1  0
  5 30  1  0
  6  7  1  0
  7  8  1  0
  8  9  1  1
  8 10  1  0
  8 28  1  0
 10 11  2  0
 10 27  1  0
 11 12  1  0
 12 13  2  0
 13 14  1  0
 13 26  1  0
 14 15  1  1
 14 16  1  0
 16 17  1  1
 16 25  1  0
 17 18  1  0
 18 19  1  0
 19 20  2  0
 19 25  1  0
 20 21  1  0
 21 22  2  0
 22 23  1  0
 22 24  1  0
 24 25  2  0
 26 27  2  0
 28 29  1  6
 28 30  1  0
M  END
