
     RDKit          3D

 30 33  0  0  0  0  0  0  0  0999 V2000
   -4.1750    2.7730    0.6360 C   0  0  0  0  0  0  0  0  0  0  0  0
   -3.3190    2.3640   -0.5420 C   0  0  1  0  0  0  0  0  0  0  0  0
   -3.6970    3.0440   -1.7910 C   0  0  0  0  0  0  0  0  0  0  0  0
   -1.8860    2.1620   -0.2080 C   0  0  0  0  0  0  0  0  0  0  0  0
   -1.1390    3.3640   -0.1020 C   0  0  0  0  0  0  0  0  0  0  0  0
   -1.7680    4.6270   -0.2000 N   0  0  0  0  0  0  0  0  0  0  0  0
    0.2130    3.2950    0.1460 C   0  0  0  0  0  0  0  0  0  0  0  0
    0.8530    2.0870    0.2920 C   0  0  0  0  0  0  0  0  0  0  0  0
    0.1090    0.9350    0.1850 C   0  0  0  0  0  0  0  0  0  0  0  0
    0.7570   -0.3390    0.4410 C   0  0  0  0  0  0  0  0  0  0  0  0
    2.0470   -0.3630    1.2300 C   0  0  1  0  0  0  0  0  0  0  0  0
    1.9060    0.1840    2.5010 O   0  0  0  0  0  0  0  0  0  0  0  0
    2.1530   -1.8940    1.5550 C   0  0  0  0  0  0  0  0  0  0  0  0
    2.9430   -2.4280    0.3780 C   0  0  0  0  0  0  0  0  0  0  0  0
    4.0830   -1.4720    0.4360 C   0  0  1  0  0  0  0  0  0  0  0  0
    4.9100   -1.3360   -0.8060 C   0  0  0  0  0  0  0  0  0  0  0  0
    5.7820   -0.1350   -0.7280 C   0  0  0  0  0  0  0  0  0  0  0  0
    5.4070    0.9710    0.1550 C   0  0  0  0  0  0  0  0  0  0  0  0
    4.3430    0.7330    1.1590 C   0  0  0  0  0  0  0  0  0  0  0  0
    3.2970   -0.1440    0.5200 C   0  0  2  0  0  0  0  0  0  0  0  0
    3.0230    0.1760   -0.8200 O   0  0  0  0  0  0  0  0  0  0  0  0
   -1.2750    0.9200   -0.0700 C   0  0  0  0  0  0  0  0  0  0  0  0
   -2.0890   -0.2680   -0.2940 C   0  0  1  0  0  0  0  0  0  0  0  0
   -1.3830   -1.5180   -0.8030 C   0  0  0  0  0  0  0  0  0  0  0  0
   -2.5940   -2.3060   -1.4330 C   0  0  1  0  0  0  0  0  0  0  0  0
   -1.9450   -3.3090   -2.3280 C   0  0  0  0  0  0  0  0  0  0  0  0
   -3.2520   -2.8780   -0.4070 O   0  0  0  0  0  0  0  0  0  0  0  0
   -3.0670   -2.3150    0.8300 C   0  0  2  0  0  0  0  0  0  0  0  0
   -4.3580   -2.6360    1.6020 C   0  0  0  0  0  0  0  0  0  0  0  0
   -2.9330   -0.7910    0.8330 C   0  0  0  0  0  0  0  0  0  0  0  0
  2  1  1  1
  2  3  1  0
  2  4  1  0
  4  5  2  0
  4 22  1  0
  5  6  1  0
  5  7  1  0
  7  8  2  0
  8  9  1  0
  9 10  1  0
  9 22  2  0
 10 11  1  0
 11 12  1  1
 11 13  1  0
 11 20  1  0
 13 14  1  0
 15 14  1  6
 15 16  1  0
 15 20  1  0
 16 17  1  0
 17 18  1  0
 18 19  1  0
 19 20  1  0
 20 21  1  6
 23 22  1  1
 23 24  1  0
 23 30  1  0
 24 25  1  0
 25 26  1  6
 25 27  1  0
 27 28  1  0
 28 29  1  1
 28 30  1  0
M  END
