
     RDKit          3D

 22 23  0  0  0  0  0  0  0  0999 V2000
    6.1490    0.6880    1.3340 C   0  0  0  0  0  0  0  0  0  0  0  0
    4.9510    0.1750    0.7940 O   0  0  0  0  0  0  0  0  0  0  0  0
    3.7640    0.0690    1.4740 C   0  0  0  0  0  0  0  0  0  0  0  0
    3.7250    0.4550    2.6710 O   0  0  0  0  0  0  0  0  0  0  0  0
    2.5200   -0.4690    0.9000 C   0  0  2  0  0  0  0  0  0  0  0  0
    2.1000    0.2700   -0.3610 C   0  0  0  0  0  0  0  0  0  0  0  0
    0.8440   -0.4010   -0.8380 C   0  0  2  0  0  0  0  0  0  0  0  0
    0.5460   -0.1440   -2.2890 C   0  0  0  0  0  0  0  0  0  0  0  0
   -0.7830   -0.5530   -2.6280 N   0  0  0  0  0  0  0  0  0  0  0  0
   -1.5800    0.4410   -3.1540 N   0  0  0  0  0  0  0  0  0  0  0  0
   -1.4370   -1.3250   -1.5970 C   0  0  0  0  0  0  0  0  0  0  0  0
   -1.4790   -0.5910   -0.3390 N   0  0  0  0  0  0  0  0  0  0  0  0
   -2.6520   -0.5490    0.4550 C   0  0  0  0  0  0  0  0  0  0  0  0
   -3.3020   -1.6430    0.6390 N   0  0  0  0  0  0  0  0  0  0  0  0
   -3.1170    0.6570    1.0410 N   0  0  0  0  0  0  0  0  0  0  0  0
   -4.8310    0.8230    1.5980 P   0  0  0  0  0  0  0  0  0  0  0  0
   -5.3390    2.4680    1.2690 O   0  0  0  0  0  0  0  0  0  0  0  0
   -5.8540   -0.3120    0.7980 O   0  0  0  0  0  0  0  0  0  0  0  0
   -0.2860    0.0910    0.0720 C   0  0  1  0  0  0  0  0  0  0  0  0
    0.1310   -0.2530    1.4590 C   0  0  0  0  0  0  0  0  0  0  0  0
   -0.7680   -0.3490    2.3300 O   0  0  0  0  0  0  0  0  0  0  0  0
    1.4570   -0.4660    1.8040 O   0  0  0  0  0  0  0  0  0  0  0  0
  1  2  1  0
  2  3  1  0
  3  4  2  0
  5  3  1  1
  5  6  1  0
  5 22  1  0
  7  6  1  1
  7  8  1  0
  7 19  1  0
  8  9  1  0
  9 10  1  0
  9 11  1  0
 11 12  1  0
 12 13  1  0
 19 12  1  6
 13 14  2  0
 13 15  1  0
 15 16  1  0
 16 17  1  0
 16 18  1  0
 19 20  1  0
 20 21  2  0
 20 22  1  0
M  END
