
     RDKit          3D

 22 23  0  0  0  0  0  0  0  0999 V2000
   -6.5750    3.1310    0.1510 O   0  0  0  0  0  0  0  0  0  0  0  0
   -6.1680    2.0200    1.1530 P   0  0  0  0  0  0  0  0  0  0  0  0
   -4.4820    1.3780    1.0260 N   0  0  0  0  0  0  0  0  0  0  0  0
   -4.1750    0.2800    0.1720 C   0  0  0  0  0  0  0  0  0  0  0  0
   -5.1790   -0.1840   -0.4690 O   0  0  0  0  0  0  0  0  0  0  0  0
   -2.8590   -0.2910    0.0130 C   0  0  0  0  0  0  0  0  0  0  0  0
   -1.7970    0.1740    0.6680 C   0  0  0  0  0  0  0  0  0  0  0  0
   -0.5250   -0.4030    0.4930 N   0  0  0  0  0  0  0  0  0  0  0  0
    0.8520    0.0100    0.6580 C   0  0  0  0  0  0  0  0  0  0  0  0
    1.2270    0.9210    1.4070 O   0  0  0  0  0  0  0  0  0  0  0  0
    1.6550   -0.7970   -0.1690 N   0  0  0  0  0  0  0  0  0  0  0  0
    2.7950   -0.6270   -0.9540 C   0  0  0  0  0  0  0  0  0  0  0  0
    3.1100   -1.6970   -1.7000 O   0  0  0  0  0  0  0  0  0  0  0  0
    3.6990    0.4670   -1.1340 C   0  0  0  0  0  0  0  0  0  0  0  0
    3.6600    1.6330   -0.3700 N   0  0  0  0  0  0  0  0  0  0  0  0
    3.9730    1.6820    1.0270 C   0  0  0  0  0  0  0  0  0  0  0  0
    4.3040    0.6230    1.6090 O   0  0  0  0  0  0  0  0  0  0  0  0
    3.9110    2.8780    1.7170 O   0  0  0  0  0  0  0  0  0  0  0  0
    0.9590   -2.1280   -0.1650 C   0  0  0  0  0  0  0  0  0  0  0  0
   -0.4580   -1.7590    0.0190 C   0  0  2  0  0  0  0  0  0  0  0  0
   -1.2780   -1.7330   -1.2790 C   0  0  0  0  0  0  0  0  0  0  0  0
   -2.6470   -1.3840   -0.8600 N   0  0  0  0  0  0  0  0  0  0  0  0
  1  2  2  0
  2  3  1  0
  3  4  1  0
  4  5  2  0
  4  6  1  0
  6  7  2  0
  6 22  1  0
  7  8  1  0
  8  9  1  0
  8 20  1  0
  9 10  2  0
  9 11  1  0
 11 12  1  0
 11 19  1  0
 12 13  2  0
 12 14  1  0
 14 15  1  0
 15 16  1  0
 16 17  2  0
 16 18  1  0
 20 19  1  6
 20 21  1  0
 21 22  1  0
M  END
