
     RDKit          3D

 22 24  0  0  0  0  0  0  0  0999 V2000
   -4.6160   -1.4540   -1.0640 O   0  0  0  0  0  0  0  0  0  0  0  0
   -3.4690   -1.0970   -0.7000 C   0  0  0  0  0  0  0  0  0  0  0  0
   -3.1170   -1.4380    0.6790 C   0  0  0  0  0  0  0  0  0  0  0  0
   -1.7610   -1.2840    0.9540 O   0  0  0  0  0  0  0  0  0  0  0  0
   -1.3860    0.0410    0.8290 C   0  0  0  0  0  0  0  0  0  0  0  0
   -0.5060    0.1160   -0.4220 C   0  0  2  0  0  0  0  0  0  0  0  0
    0.3840   -1.0930   -0.5280 C   0  0  0  0  0  0  0  0  0  0  0  0
    1.6230   -0.7090    0.0630 N   0  0  0  0  0  0  0  0  0  0  0  0
    2.5910   -1.5980    0.5940 C   0  0  0  0  0  0  0  0  0  0  0  0
    2.5530   -2.9830    0.6560 C   0  0  0  0  0  0  0  0  0  0  0  0
    3.6610   -3.4290    1.2310 N   0  0  0  0  0  0  0  0  0  0  0  0
    4.3930   -2.3920    1.5330 N   0  0  0  0  0  0  0  0  0  0  0  0
    3.7870   -1.2750    1.1680 N   0  0  0  0  0  0  0  0  0  0  0  0
    1.7590    0.7320    0.0470 C   0  0  0  0  0  0  0  0  0  0  0  0
    0.4300    1.2900   -0.3580 C   0  0  2  0  0  0  0  0  0  0  0  0
   -0.0950    2.1990    0.5360 O   0  0  0  0  0  0  0  0  0  0  0  0
   -0.5150    3.6960   -0.0290 P   0  0  0  0  0  0  0  0  0  0  0  0
   -0.3050    5.0450    0.9700 O   0  0  0  0  0  0  0  0  0  0  0  0
   -0.4670    3.9780   -1.6990 O   0  0  0  0  0  0  0  0  0  0  0  0
   -1.3980    0.1330   -1.5880 C   0  0  0  0  0  0  0  0  0  0  0  0
   -0.9590    0.6970   -2.6040 O   0  0  0  0  0  0  0  0  0  0  0  0
   -2.6960   -0.4080   -1.7090 N   0  0  0  0  0  0  0  0  0  0  0  0
  1  2  2  0
  2  3  1  0
  2 22  1  0
  3  4  1  0
  4  5  1  0
  6  5  1  1
  6  7  1  0
  6 15  1  0
  6 20  1  0
  7  8  1  0
  8  9  1  0
  8 14  1  0
  9 10  1  0
  9 13  2  0
 10 11  2  0
 11 12  1  0
 12 13  1  0
 14 15  1  0
 15 16  1  1
 16 17  1  0
 17 18  1  0
 17 19  1  0
 20 21  2  0
 20 22  1  0
M  END
