
     RDKit          3D

 23 24  0  0  0  0  0  0  0  0999 V2000
    3.9310    0.8260   -1.7590 N   0  0  0  0  0  0  0  0  0  0  0  0
    4.3970    0.3890   -0.6210 C   0  0  0  0  0  0  0  0  0  0  0  0
    5.8080    0.2350   -0.5350 N   0  0  0  0  0  0  0  0  0  0  0  0
    6.5160    0.1580    1.1240 P   0  0  0  0  0  0  0  0  0  0  0  0
    6.6420    1.7830    1.7260 O   0  0  0  0  0  0  0  0  0  0  0  0
    5.2600   -0.6330    2.1080 O   0  0  0  0  0  0  0  0  0  0  0  0
    3.9600   -0.3880    1.7320 C   0  0  0  0  0  0  0  0  0  0  0  0
    3.0840   -0.6250    2.6350 O   0  0  0  0  0  0  0  0  0  0  0  0
    3.5370    0.0880    0.4660 N   0  0  0  0  0  0  0  0  0  0  0  0
    2.0960    0.2840    0.2670 C   0  0  0  0  0  0  0  0  0  0  0  0
    1.5370   -1.0050   -0.2620 C   0  0  0  0  0  0  0  0  0  0  0  0
    0.1600   -0.9900   -0.5110 O   0  0  0  0  0  0  0  0  0  0  0  0
   -0.7700   -0.7500    0.4870 C   0  0  0  0  0  0  0  0  0  0  0  0
   -0.3260   -0.5430    1.6470 O   0  0  0  0  0  0  0  0  0  0  0  0
   -2.1800   -0.7360    0.2170 N   0  0  0  0  0  0  0  0  0  0  0  0
   -3.2080   -0.4920    1.2080 C   0  0  0  0  0  0  0  0  0  0  0  0
   -4.5110   -0.6690    0.4420 C   0  0  1  0  0  0  0  0  0  0  0  0
   -5.5650    0.1660    0.9650 N   0  0  0  0  0  0  0  0  0  0  0  0
   -4.0970   -0.2640   -0.9560 C   0  0  1  0  0  0  0  0  0  0  0  0
   -3.8940    1.2050   -1.0520 C   0  0  0  0  0  0  0  0  0  0  0  0
   -4.0670    1.9400   -0.0500 O   0  0  0  0  0  0  0  0  0  0  0  0
   -3.5100    1.8260   -2.2290 O   0  0  0  0  0  0  0  0  0  0  0  0
   -2.7610   -0.9660   -1.0900 C   0  0  0  0  0  0  0  0  0  0  0  0
  1  2  2  0
  2  3  1  0
  2  9  1  0
  3  4  1  0
  4  5  1  0
  4  6  1  0
  6  7  1  0
  7  8  2  0
  7  9  1  0
  9 10  1  0
 10 11  1  0
 11 12  1  0
 12 13  1  0
 13 14  2  0
 13 15  1  0
 15 16  1  0
 15 23  1  0
 16 17  1  0
 17 18  1  1
 17 19  1  0
 19 20  1  1
 19 23  1  0
 20 21  2  0
 20 22  1  0
M  END
