
     RDKit          3D

 18 18  0  0  0  0  0  0  0  0999 V2000
   -3.6840   -0.0090    2.3340 O   0  0  0  0  0  0  0  0  0  0  0  0
   -3.8160   -0.0930    0.9490 C   0  0  0  0  0  0  0  0  0  0  0  0
   -5.0410   -0.1640    0.3280 C   0  0  0  0  0  0  0  0  0  0  0  0
   -5.1590   -0.2450   -1.0300 C   0  0  0  0  0  0  0  0  0  0  0  0
   -4.0350   -0.2590   -1.8160 C   0  0  0  0  0  0  0  0  0  0  0  0
   -2.7870   -0.1880   -1.2100 C   0  0  0  0  0  0  0  0  0  0  0  0
   -2.6920   -0.1070    0.1530 C   0  0  0  0  0  0  0  0  0  0  0  0
   -1.4010   -0.0350    0.7480 N   0  0  0  0  0  0  0  0  0  0  0  0
   -0.1850   -0.0450   -0.0140 C   0  0  2  0  0  0  0  0  0  0  0  0
   -0.0530   -1.2180   -0.7760 O   0  0  0  0  0  0  0  0  0  0  0  0
    1.0030    0.1340    0.9050 C   0  0  2  0  0  0  0  0  0  0  0  0
    0.8590    1.3530    1.5560 O   0  0  0  0  0  0  0  0  0  0  0  0
    2.2410    0.1400    0.0450 C   0  0  0  0  0  0  0  0  0  0  0  0
    3.3130    0.3610    0.8750 O   0  0  0  0  0  0  0  0  0  0  0  0
    4.6890    0.3630   -0.0980 P   0  0  0  0  0  0  0  0  0  0  0  0
    6.1710    0.1670    0.5610 O   0  0  0  0  0  0  0  0  0  0  0  0
    4.4720   -1.1240   -0.3760 O   0  0  0  0  0  0  0  0  0  0  0  0
    4.5690    0.7750   -1.6740 O   0  0  0  0  0  0  0  0  0  0  0  0
  1  2  1  0
  2  3  2  0
  2  7  1  0
  3  4  1  0
  4  5  2  0
  5  6  1  0
  6  7  2  0
  7  8  1  0
  8  9  1  0
  9 10  1  1
  9 11  1  0
 11 12  1  6
 11 13  1  0
 13 14  1  0
 14 15  1  0
 15 16  1  0
 15 17  1  0
 15 18  1  0
M  END
