
     RDKit          3D

 22 23  0  0  0  0  0  0  0  0999 V2000
    3.6220   -0.0780    1.8850 N   0  0  0  0  0  0  0  0  0  0  0  0
    2.9340    0.2090    0.8200 C   0  0  0  0  0  0  0  0  0  0  0  0
    3.5530    0.9130   -0.2360 N   0  0  0  0  0  0  0  0  0  0  0  0
    5.3470    1.0750   -0.3510 P   0  0  0  0  0  0  0  0  0  0  0  0
    6.0270   -0.4040    0.2710 O   0  0  0  0  0  0  0  0  0  0  0  0
    5.7700    1.1450   -2.0420 O   0  0  0  0  0  0  0  0  0  0  0  0
    1.5720   -0.2070    0.7710 N   0  0  0  0  0  0  0  0  0  0  0  0
    0.6160    0.4540    1.6330 C   0  0  0  0  0  0  0  0  0  0  0  0
   -0.5390    0.8320    0.7790 C   0  0  0  0  0  0  0  0  0  0  0  0
   -1.0520    1.9630    0.7350 O   0  0  0  0  0  0  0  0  0  0  0  0
   -1.0840   -0.1920   -0.0430 N   0  0  0  0  0  0  0  0  0  0  0  0
   -0.2710   -1.3270   -0.3170 C   0  0  0  0  0  0  0  0  0  0  0  0
   -1.0200   -2.3080   -0.7110 N   0  0  0  0  0  0  0  0  0  0  0  0
   -2.4020   -1.8910   -0.7290 C   0  0  0  0  0  0  0  0  0  0  0  0
   -3.3700   -2.6770   -0.7390 O   0  0  0  0  0  0  0  0  0  0  0  0
   -2.3250   -0.4230   -0.7320 C   0  0  2  0  0  0  0  0  0  0  0  0
   -2.1510    0.0420   -2.1580 C   0  0  0  0  0  0  0  0  0  0  0  0
   -1.8380    1.3900   -2.1620 O   0  0  0  0  0  0  0  0  0  0  0  0
   -3.4930    0.2740   -0.1460 C   0  0  0  0  0  0  0  0  0  0  0  0
   -3.8010   -0.0920    1.2780 C   0  0  0  0  0  0  0  0  0  0  0  0
   -4.0790   -1.4190    1.4620 O   0  0  0  0  0  0  0  0  0  0  0  0
    1.2260   -1.2610   -0.1340 C   0  0  0  0  0  0  0  0  0  0  0  0
  1  2  2  0
  2  3  1  0
  2  7  1  0
  3  4  1  0
  4  5  1  0
  4  6  1  0
  7  8  1  0
  7 22  1  0
  8  9  1  0
  9 10  2  0
  9 11  1  0
 11 12  1  0
 11 16  1  0
 12 13  2  0
 12 22  1  0
 13 14  1  0
 14 15  2  0
 14 16  1  0
 16 17  1  6
 16 19  1  0
 17 18  1  0
 19 20  1  0
 20 21  1  0
M  END
