
     RDKit          3D

 19 19  0  0  0  0  0  0  0  0999 V2000
    3.3320   -2.3340    0.3420 C   0  0  0  0  0  0  0  0  0  0  0  0
    2.8760   -1.5360   -0.8290 C   0  0  0  0  0  0  0  0  0  0  0  0
    1.8180   -0.6820   -0.7280 O   0  0  0  0  0  0  0  0  0  0  0  0
    1.4230    0.1740    0.2360 C   0  0  0  0  0  0  0  0  0  0  0  0
    2.0840    0.1500    1.3490 O   0  0  0  0  0  0  0  0  0  0  0  0
    0.2740    1.1530    0.1470 C   0  0  1  0  0  0  0  0  0  0  0  0
    0.4720    1.9350   -1.0800 C   0  0  0  0  0  0  0  0  0  0  0  0
   -0.2880    3.0660   -1.2300 O   0  0  0  0  0  0  0  0  0  0  0  0
   -0.2830    4.2010   -0.4780 C   0  0  0  0  0  0  0  0  0  0  0  0
    0.4930    4.2670    0.5360 O   0  0  0  0  0  0  0  0  0  0  0  0
   -0.9920    0.5780    0.3290 N   0  0  0  0  0  0  0  0  0  0  0  0
   -1.3030   -0.7500    0.7340 C   0  0  0  0  0  0  0  0  0  0  0  0
   -0.3810   -1.5080    0.9950 O   0  0  0  0  0  0  0  0  0  0  0  0
   -2.7380   -1.2010    0.8260 C   0  0  1  0  0  0  0  0  0  0  0  0
   -3.5420   -0.0530    0.5870 O   0  0  0  0  0  0  0  0  0  0  0  0
   -4.4390   -0.3470   -0.3020 O   0  0  0  0  0  0  0  0  0  0  0  0
   -4.2280   -1.6110   -0.8530 C   0  0  0  0  0  0  0  0  0  0  0  0
   -5.0130   -2.1250   -1.6620 O   0  0  0  0  0  0  0  0  0  0  0  0
   -3.0310   -2.0510   -0.2920 O   0  0  0  0  0  0  0  0  0  0  0  0
  1  2  1  0
  2  3  1  0
  3  4  1  0
  4  5  2  0
  4  6  1  0
  6  7  1  6
  6 11  1  0
  7  8  1  0
  8  9  1  0
  9 10  2  0
 11 12  1  0
 12 13  2  0
 14 12  1  6
 14 15  1  0
 14 19  1  0
 15 16  1  0
 16 17  1  0
 17 18  2  0
 17 19  1  0
M  END
