
     RDKit          3D

 19 19  0  0  0  0  0  0  0  0999 V2000
   -0.8310    3.5410   -1.4490 O   0  0  0  0  0  0  0  0  0  0  0  0
   -0.9890    2.5420   -0.6620 C   0  0  0  0  0  0  0  0  0  0  0  0
   -1.9910    2.5690    0.3350 N   0  0  0  0  0  0  0  0  0  0  0  0
   -2.8200    1.4530    0.7070 C   0  0  0  0  0  0  0  0  0  0  0  0
   -2.9280    0.4040   -0.3430 C   0  0  0  0  0  0  0  0  0  0  0  0
   -2.6810   -0.8410    0.2510 O   0  0  0  0  0  0  0  0  0  0  0  0
   -2.3120   -1.7350   -0.7550 C   0  0  0  0  0  0  0  0  0  0  0  0
   -1.3470   -2.7330   -0.1440 C   0  0  0  0  0  0  0  0  0  0  0  0
   -0.0730   -2.5070   -0.6700 O   0  0  0  0  0  0  0  0  0  0  0  0
    0.7220   -1.7750    0.2240 C   0  0  0  0  0  0  0  0  0  0  0  0
    1.1540   -0.4730   -0.4210 C   0  0  2  0  0  0  0  0  0  0  0  0
    0.8840   -0.5640   -1.8040 O   0  0  0  0  0  0  0  0  0  0  0  0
    2.6490   -0.3540   -0.2870 C   0  0  0  0  0  0  0  0  0  0  0  0
    3.0740   -0.2550    1.0190 O   0  0  0  0  0  0  0  0  0  0  0  0
    4.3860   -0.1580    1.0090 O   0  0  0  0  0  0  0  0  0  0  0  0
    4.7880    1.0760    1.1730 O   0  0  0  0  0  0  0  0  0  0  0  0
    5.0240    1.6560    0.0030 O   0  0  0  0  0  0  0  0  0  0  0  0
    0.4210    0.6990    0.1890 C   0  0  0  0  0  0  0  0  0  0  0  0
   -0.1240    1.4760   -0.8680 O   0  0  0  0  0  0  0  0  0  0  0  0
  1  2  2  0
  2  3  1  0
  2 19  1  0
  3  4  1  0
  4  5  1  0
  5  6  1  0
  6  7  1  0
  7  8  1  0
  8  9  1  0
  9 10  1  0
 10 11  1  0
 11 12  1  6
 11 13  1  0
 11 18  1  0
 13 14  1  0
 14 15  1  0
 15 16  1  0
 16 17  1  0
 18 19  1  0
M  END
