
     RDKit          3D

 19 19  0  0  0  0  0  0  0  0999 V2000
    0.9950   -1.0970   -0.5520 O   0  0  0  0  0  0  0  0  0  0  0  0
    1.1790   -0.0300    0.1250 C   0  0  0  0  0  0  0  0  0  0  0  0
    0.0500    0.5720    0.7170 N   0  0  0  0  0  0  0  0  0  0  0  0
   -1.2870    0.0500    0.6440 C   0  0  1  0  0  0  0  0  0  0  0  0
   -1.3930   -1.0690    1.7280 C   0  0  0  0  0  0  0  0  0  0  0  0
   -1.2010   -0.5060    2.9630 O   0  0  0  0  0  0  0  0  0  0  0  0
   -2.4520    0.9050    0.5190 C   0  0  1  0  0  0  0  0  0  0  0  0
   -2.7500    1.3410   -0.7500 O   0  0  0  0  0  0  0  0  0  0  0  0
   -3.9980    0.7430   -1.1380 C   0  0  0  0  0  0  0  0  0  0  0  0
   -4.1060   -0.7130   -0.7130 C   0  0  0  0  0  0  0  0  0  0  0  0
   -4.2630   -0.6790    0.7350 O   0  0  0  0  0  0  0  0  0  0  0  0
   -3.5990    0.3950    1.3060 C   0  0  0  0  0  0  0  0  0  0  0  0
   -3.8960    0.9230    2.4360 O   0  0  0  0  0  0  0  0  0  0  0  0
    2.4660    0.5190    0.2480 O   0  0  0  0  0  0  0  0  0  0  0  0
    3.4920   -0.2220   -0.3590 C   0  0  0  0  0  0  0  0  0  0  0  0
    4.8270    0.4780   -0.2730 C   0  0  0  0  0  0  0  0  0  0  0  0
    5.7490   -0.5780   -0.8780 O   0  0  0  0  0  0  0  0  0  0  0  0
    6.4060    0.0170   -1.9150 O   0  0  0  0  0  0  0  0  0  0  0  0
    5.4710    0.3540   -2.8120 O   0  0  0  0  0  0  0  0  0  0  0  0
  1  2  2  0
  2  3  1  0
  2 14  1  0
  3  4  1  0
  4  5  1  1
  4  7  1  0
  5  6  1  0
  7  8  1  6
  7 12  1  0
  8  9  1  0
  9 10  1  0
 10 11  1  0
 11 12  1  0
 12 13  2  0
 14 15  1  0
 15 16  1  0
 16 17  1  0
 17 18  1  0
 18 19  1  0
M  END
