
     RDKit          3D

 19 20  0  0  0  0  0  0  0  0999 V2000
    0.5820   -0.8160    0.1970 O   0  0  0  0  0  0  0  0  0  0  0  0
    0.3330    0.2400   -0.4080 C   0  0  0  0  0  0  0  0  0  0  0  0
    1.3430    1.2020   -0.5560 N   0  0  0  0  0  0  0  0  0  0  0  0
    2.6440    0.9710   -0.0170 C   0  0  2  0  0  0  0  0  0  0  0  0
    3.0560    1.9170    0.8960 O   0  0  0  0  0  0  0  0  0  0  0  0
    4.2210    1.4430    1.4970 C   0  0  0  0  0  0  0  0  0  0  0  0
    5.2510    1.1740    0.3920 C   0  0  0  0  0  0  0  0  0  0  0  0
    4.6650    0.2780   -0.5180 O   0  0  0  0  0  0  0  0  0  0  0  0
    3.6260    0.9080   -1.0280 O   0  0  0  0  0  0  0  0  0  0  0  0
   -0.9600    0.3940   -0.9070 O   0  0  0  0  0  0  0  0  0  0  0  0
   -1.9700   -0.5590   -0.7640 C   0  0  2  0  0  0  0  0  0  0  0  0
   -2.3240   -0.8860    0.6430 C   0  0  0  0  0  0  0  0  0  0  0  0
   -2.7760    0.2470    1.3460 O   0  0  0  0  0  0  0  0  0  0  0  0
   -3.0820   -0.0580    2.5800 O   0  0  0  0  0  0  0  0  0  0  0  0
   -2.9810    0.9300    3.4140 O   0  0  0  0  0  0  0  0  0  0  0  0
   -1.7340   -1.8230   -1.5420 C   0  0  0  0  0  0  0  0  0  0  0  0
   -3.1030   -2.1780   -2.0270 C   0  0  0  0  0  0  0  0  0  0  0  0
   -3.9190   -1.0920   -1.9150 O   0  0  0  0  0  0  0  0  0  0  0  0
   -3.2120   -0.0180   -1.4490 C   0  0  0  0  0  0  0  0  0  0  0  0
  1  2  2  0
  2  3  1  0
  2 10  1  0
  4  3  1  6
  4  5  1  0
  4  9  1  0
  5  6  1  0
  6  7  1  0
  7  8  1  0
  8  9  1  0
 10 11  1  0
 11 12  1  1
 11 16  1  0
 11 19  1  0
 12 13  1  0
 13 14  1  0
 14 15  1  0
 16 17  1  0
 17 18  1  0
 18 19  1  0
M  END
