
     RDKit          3D

 19 19  0  0  0  0  0  0  0  0999 V2000
   -5.2150   -0.5570   -0.6840 O   0  0  0  0  0  0  0  0  0  0  0  0
   -5.2200    0.6870   -0.5140 C   0  0  0  0  0  0  0  0  0  0  0  0
   -6.3250    1.4300   -0.8870 O   0  0  0  0  0  0  0  0  0  0  0  0
   -4.1430    1.3610    0.0430 O   0  0  0  0  0  0  0  0  0  0  0  0
   -3.0210    0.5480    0.4140 C   0  0  0  0  0  0  0  0  0  0  0  0
   -1.9970    1.4820    0.9850 C   0  0  0  0  0  0  0  0  0  0  0  0
   -0.8200    0.7580    1.3930 N   0  0  0  0  0  0  0  0  0  0  0  0
   -0.0420    0.0070    0.4830 C   0  0  0  0  0  0  0  0  0  0  0  0
   -0.3260   -0.0760   -0.7390 O   0  0  0  0  0  0  0  0  0  0  0  0
    1.0960   -0.6780    0.9560 O   0  0  0  0  0  0  0  0  0  0  0  0
    1.8760   -1.4180    0.1010 C   0  0  0  0  0  0  0  0  0  0  0  0
    1.7230   -2.6870   -0.1860 C   0  0  0  0  0  0  0  0  0  0  0  0
    2.7650   -3.1100   -1.1450 C   0  0  0  0  0  0  0  0  0  0  0  0
    2.9180   -4.2660   -1.6390 O   0  0  0  0  0  0  0  0  0  0  0  0
    3.5390   -1.9960   -1.3990 O   0  0  0  0  0  0  0  0  0  0  0  0
    3.0380   -0.9000   -0.6500 C   0  0  2  0  0  0  0  0  0  0  0  0
    3.9880   -0.4350    0.2580 O   0  0  0  0  0  0  0  0  0  0  0  0
    4.2720    0.9070    0.0060 C   0  0  0  0  0  0  0  0  0  0  0  0
    3.0610    1.6060    0.1530 O   0  0  0  0  0  0  0  0  0  0  0  0
  1  2  2  0
  2  3  1  0
  2  4  1  0
  4  5  1  0
  5  6  1  0
  6  7  1  0
  7  8  1  0
  8  9  2  0
  8 10  1  0
 10 11  1  0
 11 12  2  0
 11 16  1  0
 12 13  1  0
 13 14  2  0
 13 15  1  0
 15 16  1  0
 16 17  1  1
 17 18  1  0
 18 19  1  0
M  END
