
     RDKit          3D

 19 18  0  0  0  0  0  0  0  0999 V2000
    2.9740   -1.9000   -0.7530 C   0  0  0  0  0  0  0  0  0  0  0  0
    2.9480   -0.5320   -0.1280 C   0  0  1  0  0  0  0  0  0  0  0  0
    4.1060    0.2080   -0.3620 O   0  0  0  0  0  0  0  0  0  0  0  0
    4.9120    0.7360    0.6360 C   0  0  0  0  0  0  0  0  0  0  0  0
    4.5400    0.5100    1.8270 O   0  0  0  0  0  0  0  0  0  0  0  0
    6.0630    1.4710    0.3710 O   0  0  0  0  0  0  0  0  0  0  0  0
    1.8020    0.2130   -0.7110 C   0  0  0  0  0  0  0  0  0  0  0  0
    1.9540    1.3150   -1.2980 O   0  0  0  0  0  0  0  0  0  0  0  0
    0.5090   -0.3120   -0.6160 O   0  0  0  0  0  0  0  0  0  0  0  0
   -0.4960    0.3710   -1.1450 O   0  0  0  0  0  0  0  0  0  0  0  0
   -1.6840    0.1650   -0.3620 C   0  0  1  0  0  0  0  0  0  0  0  0
   -1.4200    0.6420    1.0310 C   0  0  0  0  0  0  0  0  0  0  0  0
   -2.8040    0.7640   -1.1100 C   0  0  0  0  0  0  0  0  0  0  0  0
   -4.1230    0.6960   -0.6170 N   0  0  0  0  0  0  0  0  0  0  0  0
   -4.6120    1.2970    0.5520 C   0  0  0  0  0  0  0  0  0  0  0  0
   -3.9060    1.9900    1.2890 O   0  0  0  0  0  0  0  0  0  0  0  0
   -1.8500   -1.3190   -0.2720 C   0  0  0  0  0  0  0  0  0  0  0  0
   -1.0070   -2.0470   -0.8390 O   0  0  0  0  0  0  0  0  0  0  0  0
   -2.9150   -1.8870    0.4240 O   0  0  0  0  0  0  0  0  0  0  0  0
  2  1  1  6
  2  3  1  0
  2  7  1  0
  3  4  1  0
  4  5  2  0
  4  6  1  0
  7  8  2  0
  7  9  1  0
  9 10  1  0
 10 11  1  0
 11 12  1  1
 11 13  1  0
 11 17  1  0
 13 14  1  0
 14 15  1  0
 15 16  2  0
 17 18  2  0
 17 19  1  0
M  END
