
     RDKit          3D

 19 20  0  0  0  0  0  0  0  0999 V2000
    0.2550    1.7430   -2.8470 O   0  0  0  0  0  0  0  0  0  0  0  0
    0.1490    1.4270   -1.6490 C   0  0  0  0  0  0  0  0  0  0  0  0
   -0.9520    1.6860   -0.8640 O   0  0  0  0  0  0  0  0  0  0  0  0
   -1.0310    0.7630    0.1890 C   0  0  1  0  0  0  0  0  0  0  0  0
   -2.1990   -0.1460   -0.1190 C   0  0  0  0  0  0  0  0  0  0  0  0
   -2.1350   -1.4190   -0.2790 N   0  0  0  0  0  0  0  0  0  0  0  0
   -3.3690   -1.9370   -0.5460 O   0  0  0  0  0  0  0  0  0  0  0  0
   -4.2820   -0.8800   -0.5520 C   0  0  1  0  0  0  0  0  0  0  0  0
   -5.2150   -1.1010    0.6240 C   0  0  0  0  0  0  0  0  0  0  0  0
   -6.1270   -0.0460    0.6190 O   0  0  0  0  0  0  0  0  0  0  0  0
   -3.5080    0.2510   -0.2760 O   0  0  0  0  0  0  0  0  0  0  0  0
    0.2430   -0.0320    0.1830 C   0  0  0  0  0  0  0  0  0  0  0  0
    1.1360    0.7200   -0.7820 C   0  0  2  0  0  0  0  0  0  0  0  0
    1.9020    1.6370   -0.1030 O   0  0  0  0  0  0  0  0  0  0  0  0
    3.2570    1.4400   -0.2700 C   0  0  0  0  0  0  0  0  0  0  0  0
    3.7620    0.1100    0.2060 C   0  0  0  0  0  0  0  0  0  0  0  0
    5.1460    0.0770   -0.0370 O   0  0  0  0  0  0  0  0  0  0  0  0
    5.6200   -1.0880    0.3750 O   0  0  0  0  0  0  0  0  0  0  0  0
    6.4150   -0.8950    1.4270 O   0  0  0  0  0  0  0  0  0  0  0  0
  1  2  2  0
  2  3  1  0
  2 13  1  0
  3  4  1  0
  4  5  1  6
  4 12  1  0
  5  6  2  0
  5 11  1  0
  6  7  1  0
  7  8  1  0
  8  9  1  1
  8 11  1  0
  9 10  1  0
 12 13  1  0
 13 14  1  1
 14 15  1  0
 15 16  1  0
 16 17  1  0
 17 18  1  0
 18 19  1  0
M  END
