
     RDKit          3D

 11 11  0  0  0  0  0  0  0  0999 V2000
    2.5010   -1.1610    1.1840 O   0  0  0  0  0  0  0  0  0  0  0  0
    1.9780    0.0860    0.8080 C   0  0  0  0  0  0  0  0  0  0  0  0
    0.8160   -0.1160   -0.1430 C   0  0  1  0  0  0  0  0  0  0  0  0
    1.1770   -0.7810   -1.2880 O   0  0  0  0  0  0  0  0  0  0  0  0
   -0.3310   -0.8240    0.5060 C   0  0  0  0  0  0  0  0  0  0  0  0
   -1.5830   -0.6810   -0.3010 C   0  0  1  0  0  0  0  0  0  0  0  0
   -2.6570   -1.0890    0.5160 O   0  0  0  0  0  0  0  0  0  0  0  0
   -1.8150    0.7510   -0.7270 C   0  0  0  0  0  0  0  0  0  0  0  0
   -0.7140    1.1590   -1.4650 O   0  0  0  0  0  0  0  0  0  0  0  0
    0.3520    1.2810   -0.5500 C   0  0  1  0  0  0  0  0  0  0  0  0
   -0.1100    1.8940    0.6220 O   0  0  0  0  0  0  0  0  0  0  0  0
  1  2  1  0
  2  3  1  0
  3  4  1  6
  3  5  1  0
  3 10  1  0
  5  6  1  0
  6  7  1  1
  6  8  1  0
  8  9  1  0
  9 10  1  0
 10 11  1  1
M  END
