
     RDKit          3D

 11 11  0  0  0  0  0  0  0  0999 V2000
   -2.9550   -0.7770    0.1380 O   0  0  0  0  0  0  0  0  0  0  0  0
   -2.2610    0.4330    0.0430 C   0  0  0  0  0  0  0  0  0  0  0  0
   -0.8600    0.1480   -0.4560 C   0  0  2  0  0  0  0  0  0  0  0  0
   -0.2130   -0.7840    0.5700 C   0  0  0  0  0  0  0  0  0  0  0  0
    1.1850   -1.0010   -0.0310 C   0  0  2  0  0  0  0  0  0  0  0  0
    1.7760   -2.0160    0.6590 O   0  0  0  0  0  0  0  0  0  0  0  0
    1.8620    0.3180    0.1190 C   0  0  1  0  0  0  0  0  0  0  0  0
    3.1810    0.1650   -0.3670 O   0  0  0  0  0  0  0  0  0  0  0  0
    1.2420    1.3690   -0.4200 O   0  0  0  0  0  0  0  0  0  0  0  0
   -0.0590    1.3620   -0.7070 C   0  0  2  0  0  0  0  0  0  0  0  0
   -0.6820    2.4340   -0.0210 O   0  0  0  0  0  0  0  0  0  0  0  0
  1  2  1  0
  3  2  1  1
  3  4  1  0
  3 10  1  0
  4  5  1  0
  5  6  1  1
  5  7  1  0
  7  8  1  6
  7  9  1  0
  9 10  1  0
 10 11  1  1
M  END
