
     RDKit          3D

 11 11  0  0  0  0  0  0  0  0999 V2000
    3.2070   -0.6160   -0.9750 O   0  0  0  0  0  0  0  0  0  0  0  0
    2.1800    0.1260   -0.4360 C   0  0  0  0  0  0  0  0  0  0  0  0
    0.9990   -0.7470   -0.0170 C   0  0  1  0  0  0  0  0  0  0  0  0
    1.4620   -1.6440    0.9330 O   0  0  0  0  0  0  0  0  0  0  0  0
   -0.0340    0.2070    0.5570 C   0  0  2  0  0  0  0  0  0  0  0  0
    0.5890    0.9010    1.5910 O   0  0  0  0  0  0  0  0  0  0  0  0
   -1.2690   -0.5220    1.0220 C   0  0  0  0  0  0  0  0  0  0  0  0
   -2.0830   -0.5670   -0.2540 C   0  0  0  0  0  0  0  0  0  0  0  0
   -1.5700    0.6010   -1.0210 C   0  0  1  0  0  0  0  0  0  0  0  0
   -2.5300    1.6270   -0.9890 O   0  0  0  0  0  0  0  0  0  0  0  0
   -0.4170    1.0560   -0.4600 O   0  0  0  0  0  0  0  0  0  0  0  0
  1  2  1  0
  2  3  1  0
  3  4  1  1
  3  5  1  0
  5  6  1  1
  5  7  1  0
  5 11  1  0
  7  8  1  0
  8  9  1  0
  9 10  1  1
  9 11  1  0
M  END
