
     RDKit          3D

 37 37  0  0  0  0  0  0  0  0999 V2000
   -5.6850    4.7600    0.8120 C   0  0  0  0  0  0  0  0  0  0  0  0
   -3.9440    4.2200    1.1820 P   0  0  0  0  0  0  0  0  0  0  0  0
   -3.7380    2.4000    0.8800 C   0  0  2  0  0  0  0  0  0  0  0  0
   -2.2690    2.1860    0.4610 C   0  0  1  0  0  0  0  0  0  0  0  0
   -2.1470    3.0660   -0.6490 O   0  0  0  0  0  0  0  0  0  0  0  0
   -1.4760    2.5930    1.6200 C   0  0  0  0  0  0  0  0  0  0  0  0
   -1.6050    2.1250    2.7400 O   0  0  0  0  0  0  0  0  0  0  0  0
   -2.0640    0.8940    0.0800 O   0  0  0  0  0  0  0  0  0  0  0  0
   -0.8950    0.5850   -0.4990 C   0  0  1  0  0  0  0  0  0  0  0  0
   -0.6610    1.3830   -1.6440 F   0  0  0  0  0  0  0  0  0  0  0  0
    0.3260    0.4620    0.2750 C   0  0  0  0  0  0  0  0  0  0  0  0
    0.5120    0.5430    1.4920 O   0  0  0  0  0  0  0  0  0  0  0  0
    1.5090    0.2090   -0.4710 O   0  0  0  0  0  0  0  0  0  0  0  0
    2.7280    0.0730    0.1500 C   0  0  0  0  0  0  0  0  0  0  0  0
    2.8070    0.1810    1.4860 F   0  0  0  0  0  0  0  0  0  0  0  0
    3.7950   -0.1600   -0.5790 C   0  0  0  0  0  0  0  0  0  0  0  0
    5.1270   -0.3180   -0.0080 C   0  0  0  0  0  0  0  0  0  0  0  0
    6.1900   -0.5510   -0.7420 C   0  0  0  0  0  0  0  0  0  0  0  0
    6.0700   -0.6540   -2.0900 F   0  0  0  0  0  0  0  0  0  0  0  0
    7.4480   -0.6980   -0.1760 O   0  0  0  0  0  0  0  0  0  0  0  0
    8.2700   -1.7390   -0.6970 C   0  0  0  0  0  0  0  0  0  0  0  0
    9.4980   -1.7170    0.0110 O   0  0  0  0  0  0  0  0  0  0  0  0
   10.3020   -0.5750   -0.0150 C   0  0  0  0  0  0  0  0  0  0  0  0
    9.9290    0.4360   -0.6720 O   0  0  0  0  0  0  0  0  0  0  0  0
   11.4860   -0.6160    0.6940 O   0  0  0  0  0  0  0  0  0  0  0  0
   -1.0710   -0.7680   -1.1320 N   0  0  0  0  0  0  0  0  0  0  0  0
    0.3880   -1.2390   -1.9160 Cl  0  0  0  0  0  0  0  0  0  0  0  0
   -1.4550   -1.6610   -0.1580 O   0  0  0  0  0  0  0  0  0  0  0  0
   -2.6160   -2.3850   -0.3880 C   0  0  0  0  0  0  0  0  0  0  0  0
   -3.7400   -1.7580   -1.1290 C   0  0  0  0  0  0  0  0  0  0  0  0
   -2.7100   -3.6280    0.0560 C   0  0  0  0  0  0  0  0  0  0  0  0
   -3.9720   -4.3950   -0.2010 C   0  0  0  0  0  0  0  0  0  0  0  0
   -1.3790   -4.4570    0.9670 P   0  0  0  0  0  0  0  0  0  0  0  0
   -4.6390    1.9120   -0.1920 C   0  0  0  0  0  0  0  0  0  0  0  0
   -5.6250    1.2600    0.3890 C   0  0  0  0  0  0  0  0  0  0  0  0
   -5.3840    1.3180    1.7610 O   0  0  0  0  0  0  0  0  0  0  0  0
   -4.0780    1.6290    1.9600 O   0  0  0  0  0  0  0  0  0  0  0  0
  1  2  1  0
  3  2  1  1
  3  4  1  0
  3 34  1  0
  3 37  1  0
  4  5  1  6
  4  6  1  0
  4  8  1  0
  6  7  2  0
  8  9  1  0
  9 10  1  6
  9 11  1  0
  9 26  1  0
 11 12  2  0
 11 13  1  0
 13 14  1  0
 14 15  1  0
 14 16  2  3
 16 17  1  0
 17 18  2  3
 18 19  1  0
 18 20  1  0
 20 21  1  0
 21 22  1  0
 22 23  1  0
 23 24  2  0
 23 25  1  0
 26 27  1  0
 26 28  1  0
 28 29  1  0
 29 30  1  0
 29 31  2  3
 31 32  1  0
 31 33  1  0
 34 35  2  0
 35 36  1  0
 36 37  1  0
M  END
