
     RDKit          3D

 35 37  0  0  0  0  0  0  0  0999 V2000
    0.6930   -5.9060   -0.6830 C   0  0  0  0  0  0  0  0  0  0  0  0
    0.2660   -4.5260   -1.2450 C   0  0  1  0  0  0  0  0  0  0  0  0
   -1.1880   -4.4040   -0.9310 C   0  0  0  0  0  0  0  0  0  0  0  0
    1.1790   -3.5450   -0.6480 C   0  0  0  0  0  0  0  0  0  0  0  0
    1.0260   -2.0980   -1.0330 C   0  0  2  0  0  0  0  0  0  0  0  0
    2.0910   -1.3610   -0.3100 N   0  0  0  0  0  0  0  0  0  0  0  0
    2.4390   -0.1330   -0.9790 C   0  0  1  0  0  0  0  0  0  0  0  0
    3.1250    0.7570    0.0100 C   0  0  0  0  0  0  0  0  0  0  0  0
    3.5540    2.0910   -0.5530 C   0  0  0  0  0  0  0  0  0  0  0  0
    4.2040    2.8260    0.5650 C   0  0  0  0  0  0  0  0  0  0  0  0
    3.5160    3.6550    1.4160 C   0  0  0  0  0  0  0  0  0  0  0  0
    4.1720    4.3100    2.4380 C   0  0  0  0  0  0  0  0  0  0  0  0
    5.5300    4.1430    2.6200 C   0  0  0  0  0  0  0  0  0  0  0  0
    6.2280    3.3100    1.7670 C   0  0  0  0  0  0  0  0  0  0  0  0
    5.5590    2.6540    0.7410 C   0  0  0  0  0  0  0  0  0  0  0  0
    3.1580   -0.3300   -2.2330 C   0  0  0  0  0  0  0  0  0  0  0  0
    3.3950   -1.5410   -2.5870 O   0  0  0  0  0  0  0  0  0  0  0  0
    3.6150    0.6310   -3.0880 O   0  0  0  0  0  0  0  0  0  0  0  0
   -0.2280   -1.5530   -0.4630 C   0  0  0  0  0  0  0  0  0  0  0  0
   -0.2580   -1.1600    0.7610 O   0  0  0  0  0  0  0  0  0  0  0  0
   -1.4560   -1.4040   -1.1610 N   0  0  0  0  0  0  0  0  0  0  0  0
   -2.5990   -0.8400   -0.4820 C   0  0  1  0  0  0  0  0  0  0  0  0
   -2.7480    0.5730   -1.0990 C   0  0  0  0  0  0  0  0  0  0  0  0
   -3.8990    1.2750   -0.4890 C   0  0  0  0  0  0  0  0  0  0  0  0
   -5.1350    1.4770   -1.0850 C   0  0  0  0  0  0  0  0  0  0  0  0
   -5.9190    2.1560   -0.2170 N   0  0  0  0  0  0  0  0  0  0  0  0
   -5.2610    2.4090    0.9140 C   0  0  0  0  0  0  0  0  0  0  0  0
   -5.6280    3.0580    2.0720 C   0  0  0  0  0  0  0  0  0  0  0  0
   -4.6860    3.1450    3.0750 C   0  0  0  0  0  0  0  0  0  0  0  0
   -3.4230    2.6130    2.9480 C   0  0  0  0  0  0  0  0  0  0  0  0
   -3.0920    1.9730    1.7800 C   0  0  0  0  0  0  0  0  0  0  0  0
   -3.9890    1.8600    0.7570 C   0  0  0  0  0  0  0  0  0  0  0  0
   -3.8740   -1.5180   -0.7180 C   0  0  0  0  0  0  0  0  0  0  0  0
   -3.9420   -2.5010   -1.4820 O   0  0  0  0  0  0  0  0  0  0  0  0
   -5.0450   -1.0990   -0.1080 O   0  0  0  0  0  0  0  0  0  0  0  0
  2  1  1  1
  2  3  1  0
  2  4  1  0
  5  4  1  1
  5  6  1  0
  5 19  1  0
  6  7  1  0
  7  8  1  1
  7 16  1  0
  8  9  1  0
  9 10  1  0
 10 11  2  0
 10 15  1  0
 11 12  1  0
 12 13  2  0
 13 14  1  0
 14 15  2  0
 16 17  2  0
 16 18  1  0
 19 20  2  0
 19 21  1  0
 21 22  1  0
 22 23  1  6
 22 33  1  0
 23 24  1  0
 24 25  2  0
 24 32  1  0
 25 26  1  0
 26 27  1  0
 27 28  2  0
 27 32  1  0
 28 29  1  0
 29 30  2  0
 30 31  1  0
 31 32  2  0
 33 34  2  0
 33 35  1  0
M  CHG  1   6   1
M  END
