
     RDKit          3D

 34 35  0  0  0  0  0  0  0  0999 V2000
    2.6600    2.1040    1.6720 C   0  0  0  0  0  0  0  0  0  0  0  0
    3.7010    1.2320    1.6650 C   0  0  0  0  0  0  0  0  0  0  0  0
    4.8700    1.6650    2.4170 C   0  0  0  0  0  0  0  0  0  0  0  0
    3.5410    0.0170    0.9420 C   0  0  0  0  0  0  0  0  0  0  0  0
    4.2990   -1.0120    0.7240 C   0  0  0  0  0  0  0  0  0  0  0  0
    5.5950   -1.5110    1.0280 C   0  0  0  0  0  0  0  0  0  0  0  0
    6.5550   -0.8370    1.8110 N   0  0  0  0  0  0  0  0  0  0  0  0
    2.2010   -0.0600    0.3090 N   0  0  0  0  0  0  0  0  0  0  0  0
    1.1660   -0.6620    1.0760 C   0  0  0  0  0  0  0  0  0  0  0  0
   -0.1230   -0.6700    0.3140 C   0  0  0  0  0  0  0  0  0  0  0  0
   -0.2480   -0.1840   -0.8840 C   0  0  0  0  0  0  0  0  0  0  0  0
   -1.5810   -0.2360   -1.5700 C   0  0  0  0  0  0  0  0  0  0  0  0
   -2.5450   -0.8700   -0.6880 N   0  0  0  0  0  0  0  0  0  0  0  0
   -2.7650   -2.3070   -0.7220 C   0  0  0  0  0  0  0  0  0  0  0  0
   -3.7830   -2.7600   -1.7030 C   0  0  2  0  0  0  0  0  0  0  0  0
   -5.0700   -2.1890   -1.4450 N   0  0  0  0  0  0  0  0  0  0  0  0
   -3.8240   -4.2780   -1.6780 C   0  0  0  0  0  0  0  0  0  0  0  0
   -4.1870   -4.8280   -0.3270 C   0  0  0  0  0  0  0  0  0  0  0  0
   -3.2720   -0.0570    0.1940 C   0  0  0  0  0  0  0  0  0  0  0  0
   -4.0940   -0.5680    0.9820 O   0  0  0  0  0  0  0  0  0  0  0  0
   -3.0790    1.4020    0.2060 C   0  0  0  0  0  0  0  0  0  0  0  0
   -3.9330    2.0220    1.2090 N   0  0  0  0  0  0  0  0  0  0  0  0
   -3.5930    2.2640    2.5720 C   0  0  0  0  0  0  0  0  0  0  0  0
   -2.6680    1.7090    3.2200 O   0  0  0  0  0  0  0  0  0  0  0  0
   -4.5700    3.3020    3.0260 C   0  0  0  0  0  0  0  0  0  0  0  0
   -5.8120    2.9340    2.2500 C   0  0  0  0  0  0  0  0  0  0  0  0
   -5.2520    2.4780    0.9520 C   0  0  0  0  0  0  0  0  0  0  0  0
   -5.8290    2.4920   -0.1540 O   0  0  0  0  0  0  0  0  0  0  0  0
    0.8730    0.3920   -1.5380 N   0  0  0  0  0  0  0  0  0  0  0  0
    2.0700    0.4630   -0.9790 C   0  0  0  0  0  0  0  0  0  0  0  0
    3.1740    1.0660   -1.7040 C   0  0  0  0  0  0  0  0  0  0  0  0
    2.9800    1.5370   -2.9090 C   0  0  0  0  0  0  0  0  0  0  0  0
    4.0370    2.1700   -3.7320 C   0  0  0  0  0  0  0  0  0  0  0  0
    5.3520    2.1920   -2.9860 C   0  0  0  0  0  0  0  0  0  0  0  0
  1  2  2  0
  2  3  1  0
  2  4  1  0
  4  5  2  3
  4  8  1  0
  5  6  1  0
  6  7  1  0
  8  9  1  0
  8 30  1  0
  9 10  1  0
 10 11  2  0
 11 12  1  0
 11 29  1  0
 12 13  1  0
 13 14  1  0
 13 19  1  0
 14 15  1  0
 15 16  1  1
 15 17  1  0
 17 18  1  0
 19 20  2  0
 19 21  1  0
 21 22  1  0
 22 23  1  0
 22 27  1  0
 23 24  2  0
 23 25  1  0
 25 26  1  0
 26 27  1  0
 27 28  2  0
 29 30  2  0
 30 31  1  0
 31 32  2  3
 32 33  1  0
 33 34  1  0
M  CHG  2   7   1  16   1
M  END
