
     RDKit          3D

 35 39  0  0  0  0  0  0  0  0999 V2000
   -9.9590   -0.5090    1.7320 C   0  0  0  0  0  0  0  0  0  0  0  0
   -8.6900   -0.4520    0.9460 C   0  0  0  0  0  0  0  0  0  0  0  0
   -7.8690    0.6470    1.0590 C   0  0  0  0  0  0  0  0  0  0  0  0
   -6.6800    0.7000    0.3220 C   0  0  0  0  0  0  0  0  0  0  0  0
   -6.2870   -0.3110   -0.5260 C   0  0  0  0  0  0  0  0  0  0  0  0
   -5.0520   -0.2490   -1.2840 C   0  0  0  0  0  0  0  0  0  0  0  0
   -4.7140   -1.2100   -2.0270 O   0  0  0  0  0  0  0  0  0  0  0  0
   -4.1350    0.9020   -1.2420 C   0  0  0  0  0  0  0  0  0  0  0  0
   -3.0150    0.7400   -0.2400 C   0  0  2  0  0  0  0  0  0  0  0  0
   -2.1650    2.0110   -0.3240 C   0  0  0  0  0  0  0  0  0  0  0  0
   -1.0760    1.7570   -1.3480 C   0  0  0  0  0  0  0  0  0  0  0  0
   -0.1680    0.7930   -0.7600 N   0  0  0  0  0  0  0  0  0  0  0  0
    1.2480    0.9760   -0.8520 C   0  0  0  0  0  0  0  0  0  0  0  0
    1.6700    1.9790   -1.4480 O   0  0  0  0  0  0  0  0  0  0  0  0
    2.1460    0.0500   -0.2870 N   0  0  0  0  0  0  0  0  0  0  0  0
    3.5600    0.1110   -0.3100 C   0  0  0  0  0  0  0  0  0  0  0  0
    4.2710   -0.8280    0.4550 C   0  0  0  0  0  0  0  0  0  0  0  0
    5.6430   -0.8100    0.4540 C   0  0  0  0  0  0  0  0  0  0  0  0
    6.3840    0.0950   -0.2700 C   0  0  0  0  0  0  0  0  0  0  0  0
    7.8190    0.0840   -0.2470 N   0  0  0  0  0  0  0  0  0  0  0  0
    8.6550    0.2080   -1.2690 N   0  0  0  0  0  0  0  0  0  0  0  0
    9.9260    0.1460   -0.8320 C   0  0  0  0  0  0  0  0  0  0  0  0
    9.9140   -0.0280    0.5520 C   0  0  0  0  0  0  0  0  0  0  0  0
   10.9120   -0.1520    1.4950 C   0  0  0  0  0  0  0  0  0  0  0  0
   10.5510   -0.3160    2.8150 C   0  0  0  0  0  0  0  0  0  0  0  0
    9.2100   -0.3480    3.1290 C   0  0  0  0  0  0  0  0  0  0  0  0
    8.2690   -0.2230    2.1770 N   0  0  0  0  0  0  0  0  0  0  0  0
    8.5640   -0.0610    0.8780 C   0  0  0  0  0  0  0  0  0  0  0  0
    5.6990    1.0180   -1.0220 C   0  0  0  0  0  0  0  0  0  0  0  0
    4.2890    1.0150   -1.0340 C   0  0  0  0  0  0  0  0  0  0  0  0
   -0.7660   -0.3450   -0.0860 C   0  0  0  0  0  0  0  0  0  0  0  0
   -2.2080   -0.4870   -0.5280 C   0  0  0  0  0  0  0  0  0  0  0  0
   -7.1230   -1.4020   -0.6250 C   0  0  0  0  0  0  0  0  0  0  0  0
   -6.7580   -2.5280   -1.5230 C   0  0  0  0  0  0  0  0  0  0  0  0
   -8.3120   -1.4700    0.1030 C   0  0  0  0  0  0  0  0  0  0  0  0
  1  2  1  0
  2  3  2  0
  2 35  1  0
  3  4  1  0
  4  5  2  0
  5  6  1  0
  5 33  1  0
  6  7  2  0
  6  8  1  0
  9  8  1  6
  9 10  1  0
  9 32  1  0
 10 11  1  0
 11 12  1  0
 12 13  1  0
 12 31  1  0
 13 14  2  0
 13 15  1  0
 15 16  1  0
 16 17  2  0
 16 30  1  0
 17 18  1  0
 18 19  2  0
 19 20  1  0
 19 29  1  0
 20 21  1  0
 20 28  1  0
 21 22  2  0
 22 23  1  0
 23 24  2  0
 23 28  1  0
 24 25  1  0
 25 26  2  0
 26 27  1  0
 27 28  2  0
 29 30  2  0
 31 32  1  0
 33 34  1  0
 33 35  2  0
M  END
