
     RDKit          3D

 35 39  0  0  0  0  0  0  0  0999 V2000
   -6.7960    0.5720    1.9250 C   0  0  0  0  0  0  0  0  0  0  0  0
   -5.6370    0.4240    0.9910 C   0  0  0  0  0  0  0  0  0  0  0  0
   -4.3750    0.8810    1.3510 C   0  0  0  0  0  0  0  0  0  0  0  0
   -3.2750    0.7850    0.5390 C   0  0  0  0  0  0  0  0  0  0  0  0
   -3.4280    0.2050   -0.6860 C   0  0  0  0  0  0  0  0  0  0  0  0
   -4.6570   -0.2540   -1.0790 C   0  0  0  0  0  0  0  0  0  0  0  0
   -5.7790   -0.1540   -0.2520 C   0  0  0  0  0  0  0  0  0  0  0  0
   -7.0390   -0.6450   -0.6730 N   0  0  0  0  0  0  0  0  0  0  0  0
   -8.0120   -1.6850   -0.4300 C   0  0  0  0  0  0  0  0  0  0  0  0
   -9.1120   -0.6990   -0.8480 C   0  0  0  0  0  0  0  0  0  0  0  0
   -7.9690   -0.1390   -1.6960 C   0  0  0  0  0  0  0  0  0  0  0  0
   -2.2670   -0.0260   -1.4260 N   0  0  0  0  0  0  0  0  0  0  0  0
   -0.9090    0.2850   -0.9600 C   0  0  0  0  0  0  0  0  0  0  0  0
    0.0130    0.0590   -1.7850 N   0  0  0  0  0  0  0  0  0  0  0  0
    1.3510    0.1120   -1.9960 C   0  0  0  0  0  0  0  0  0  0  0  0
    2.0750   -0.8920   -2.3530 O   0  0  0  0  0  0  0  0  0  0  0  0
    2.1110    1.3720   -1.8320 C   0  0  0  0  0  0  0  0  0  0  0  0
    3.5590    1.0400   -1.7060 C   0  0  0  0  0  0  0  0  0  0  0  0
    4.0650    1.0370   -0.3050 C   0  0  0  0  0  0  0  0  0  0  0  0
    4.5680   -0.2330    0.1710 N   0  0  0  0  0  0  0  0  0  0  0  0
    5.8880   -0.1610    0.7890 C   0  0  0  0  0  0  0  0  0  0  0  0
    6.0940   -0.2030    2.1290 C   0  0  0  0  0  0  0  0  0  0  0  0
    7.3450   -0.1180    2.6990 C   0  0  0  0  0  0  0  0  0  0  0  0
    8.4330    0.0160    1.8600 C   0  0  0  0  0  0  0  0  0  0  0  0
    8.2600    0.0610    0.5000 C   0  0  0  0  0  0  0  0  0  0  0  0
    6.9730   -0.0280   -0.0530 C   0  0  0  0  0  0  0  0  0  0  0  0
    6.8990    0.0360   -1.5250 C   0  0  0  0  0  0  0  0  0  0  0  0
    3.9590   -1.5060    0.1030 C   0  0  0  0  0  0  0  0  0  0  0  0
    4.7090   -2.3740   -0.5460 O   0  0  0  0  0  0  0  0  0  0  0  0
    2.6990   -1.9530    0.6270 C   0  0  0  0  0  0  0  0  0  0  0  0
    1.6550   -1.3730    1.1740 C   0  0  0  0  0  0  0  0  0  0  0  0
    1.2970   -0.0240    1.4920 C   0  0  0  0  0  0  0  0  0  0  0  0
    0.3730    0.8200    1.1770 C   0  0  0  0  0  0  0  0  0  0  0  0
   -0.7980    0.8300    0.3360 N   0  0  0  0  0  0  0  0  0  0  0  0
   -2.0070    1.4450    0.9190 C   0  0  0  0  0  0  0  0  0  0  0  0
  1  2  1  0
  2  3  2  0
  2  7  1  0
  3  4  1  0
  4  5  2  0
  4 35  1  0
  5  6  1  0
  5 12  1  0
  6  7  2  0
  7  8  1  0
  8  9  1  0
  8 11  1  0
  9 10  1  0
 10 11  1  0
 12 13  1  0
 13 14  2  0
 13 34  1  0
 14 15  1  0
 15 16  2  0
 15 17  1  0
 17 18  1  0
 18 19  1  0
 19 20  1  0
 20 21  1  0
 20 28  1  0
 21 22  2  0
 21 26  1  0
 22 23  1  0
 23 24  2  0
 24 25  1  0
 25 26  2  0
 26 27  1  0
 28 29  2  0
 28 30  1  0
 30 31  2  0
 31 32  1  0
 32 33  2  0
 33 34  1  0
 34 35  1  0
M  END
