
     RDKit          3D

 35 39  0  0  0  0  0  0  0  0999 V2000
   -8.2580    1.2890    4.7220 C   0  0  0  0  0  0  0  0  0  0  0  0
   -7.1430    1.0190    3.7720 C   0  0  0  0  0  0  0  0  0  0  0  0
   -6.1580    1.8790    3.4630 C   0  0  0  0  0  0  0  0  0  0  0  0
   -5.2700    1.2790    2.5240 C   0  0  0  0  0  0  0  0  0  0  0  0
   -4.1770    1.9870    1.9270 C   0  0  0  0  0  0  0  0  0  0  0  0
   -3.0270    1.5880    1.5200 C   0  0  0  0  0  0  0  0  0  0  0  0
   -2.4700    0.2700    1.5590 C   0  0  0  0  0  0  0  0  0  0  0  0
   -1.2640   -0.0220    1.0820 C   0  0  0  0  0  0  0  0  0  0  0  0
   -0.3770    0.9840    0.4620 C   0  0  0  0  0  0  0  0  0  0  0  0
    1.0410    0.5510    0.6470 N   0  0  0  0  0  0  0  0  0  0  0  0
    1.9950    1.0530   -0.2240 C   0  0  0  0  0  0  0  0  0  0  0  0
    1.7780    2.3450   -0.7080 C   0  0  0  0  0  0  0  0  0  0  0  0
    2.6740    2.8900   -1.5850 C   0  0  0  0  0  0  0  0  0  0  0  0
    3.8180    2.2110   -2.0330 C   0  0  0  0  0  0  0  0  0  0  0  0
    4.0440    0.9430   -1.5700 C   0  0  0  0  0  0  0  0  0  0  0  0
    5.1610    0.1760   -1.9870 N   0  0  0  0  0  0  0  0  0  0  0  0
    5.9550    0.4200   -3.1210 C   0  0  0  0  0  0  0  0  0  0  0  0
    5.6900    1.3840   -3.8680 O   0  0  0  0  0  0  0  0  0  0  0  0
    7.0790   -0.4480   -3.4160 N   0  0  0  0  0  0  0  0  0  0  0  0
    7.4280   -1.5610   -2.5760 C   0  0  0  0  0  0  0  0  0  0  0  0
    8.5370   -2.3190   -3.3230 C   0  0  0  0  0  0  0  0  0  0  0  0
    8.1280   -2.5820   -4.6270 O   0  0  0  0  0  0  0  0  0  0  0  0
    7.9480   -1.4640   -5.3990 C   0  0  0  0  0  0  0  0  0  0  0  0
    7.8610   -0.1770   -4.5930 C   0  0  0  0  0  0  0  0  0  0  0  0
    3.1160    0.4060   -0.6760 C   0  0  0  0  0  0  0  0  0  0  0  0
    1.2450   -0.3360    1.7440 C   0  0  2  0  0  0  0  0  0  0  0  0
    2.6550   -0.5610    2.1400 C   0  0  0  0  0  0  0  0  0  0  0  0
    0.4650   -1.6100    1.5240 C   0  0  0  0  0  0  0  0  0  0  0  0
   -0.7880   -1.3860    1.1950 N   0  0  0  0  0  0  0  0  0  0  0  0
   -5.8030    0.0450    2.3130 C   0  0  0  0  0  0  0  0  0  0  0  0
   -6.9290   -0.0990    3.0750 N   0  0  0  0  0  0  0  0  0  0  0  0
   -7.6250   -1.3630    3.0160 C   0  0  0  0  0  0  0  0  0  0  0  0
   -8.0040   -1.6420    1.6020 C   0  0  0  0  0  0  0  0  0  0  0  0
   -6.8560   -1.4610    0.6700 C   0  0  0  0  0  0  0  0  0  0  0  0
   -5.5430   -1.1230    1.4100 C   0  0  0  0  0  0  0  0  0  0  0  0
  1  2  1  0
  2  3  2  0
  2 31  1  0
  3  4  1  0
  4  5  1  0
  4 30  2  0
  5  6  2  3
  6  7  1  0
  7  8  2  3
  8  9  1  0
  8 29  1  0
  9 10  1  0
 10 11  1  0
 10 26  1  0
 11 12  2  0
 11 25  1  0
 12 13  1  0
 13 14  2  0
 14 15  1  0
 15 16  1  0
 15 25  2  0
 16 17  1  0
 17 18  2  0
 17 19  1  0
 19 20  1  0
 19 24  1  0
 20 21  1  0
 21 22  1  0
 22 23  1  0
 23 24  1  0
 26 27  1  6
 26 28  1  0
 28 29  2  0
 30 31  1  0
 30 35  1  0
 31 32  1  0
 32 33  1  0
 33 34  1  0
 34 35  1  0
M  END
