
     RDKit          3D

 25 26  0  0  0  0  0  0  0  0999 V2000
   -5.4950   -0.9480    1.9840 C   0  0  0  0  0  0  0  0  0  0  0  0
   -5.6700   -0.2470    0.6670 C   0  0  0  0  0  0  0  0  0  0  0  0
   -4.4220   -0.1910   -0.1310 C   0  0  0  0  0  0  0  0  0  0  0  0
   -4.2890   -1.0480   -1.2040 C   0  0  0  0  0  0  0  0  0  0  0  0
   -3.1550   -1.0530   -1.9920 C   0  0  0  0  0  0  0  0  0  0  0  0
   -3.0060   -1.9790   -3.1560 C   0  0  0  0  0  0  0  0  0  0  0  0
   -2.1680   -0.1550   -1.6420 C   0  0  0  0  0  0  0  0  0  0  0  0
   -2.2920    0.7060   -0.5710 C   0  0  0  0  0  0  0  0  0  0  0  0
   -1.2640    1.5870   -0.2700 O   0  0  0  0  0  0  0  0  0  0  0  0
   -0.2330    1.2410    0.6130 C   0  0  0  0  0  0  0  0  0  0  0  0
   -0.3100    0.1050    1.0960 O   0  0  0  0  0  0  0  0  0  0  0  0
    0.7840    2.2590    0.8430 C   0  0  0  0  0  0  0  0  0  0  0  0
    1.8860    1.8990    1.7790 C   0  0  0  0  0  0  0  0  0  0  0  0
    2.6030    0.7180    1.2550 C   0  0  0  0  0  0  0  0  0  0  0  0
    2.4490   -0.5210    1.8160 C   0  0  0  0  0  0  0  0  0  0  0  0
    3.1410   -1.6230    1.3100 C   0  0  0  0  0  0  0  0  0  0  0  0
    3.9930   -1.4310    0.2190 C   0  0  0  0  0  0  0  0  0  0  0  0
    4.1740   -0.2020   -0.3680 C   0  0  0  0  0  0  0  0  0  0  0  0
    5.0080    0.0720   -1.5400 C   0  0  0  0  0  0  0  0  0  0  0  0
    5.7520   -0.9780   -1.9670 O   0  0  0  0  0  0  0  0  0  0  0  0
    6.8180   -1.3450   -1.1790 C   0  0  0  0  0  0  0  0  0  0  0  0
    3.4500    0.8710    0.1850 C   0  0  0  0  0  0  0  0  0  0  0  0
    3.6280    2.1330   -0.4130 O   0  0  0  0  0  0  0  0  0  0  0  0
   -3.4300    0.7010    0.2080 C   0  0  0  0  0  0  0  0  0  0  0  0
   -3.5820    1.6290    1.3770 C   0  0  0  0  0  0  0  0  0  0  0  0
  1  2  1  0
  2  3  1  0
  3  4  2  0
  3 24  1  0
  4  5  1  0
  5  6  1  0
  5  7  2  0
  7  8  1  0
  8  9  1  0
  8 24  2  0
  9 10  1  0
 10 11  2  0
 10 12  1  0
 12 13  1  0
 13 14  1  0
 14 15  2  0
 14 22  1  0
 15 16  1  0
 16 17  2  0
 17 18  1  0
 18 19  1  0
 18 22  2  0
 19 20  1  0
 20 21  1  0
 22 23  1  0
 24 25  1  0
M  END
