
     RDKit          3D

 25 26  0  0  0  0  0  0  0  0999 V2000
    7.4250   -0.8220    0.0300 C   0  0  0  0  0  0  0  0  0  0  0  0
    6.4040   -0.0350   -0.7700 C   0  0  0  0  0  0  0  0  0  0  0  0
    5.0100   -0.4060   -0.3260 C   0  0  0  0  0  0  0  0  0  0  0  0
    4.8080   -0.1010    1.1400 C   0  0  0  0  0  0  0  0  0  0  0  0
    3.5390   -0.4180    1.6160 O   0  0  0  0  0  0  0  0  0  0  0  0
    2.3350    0.0730    1.1970 C   0  0  0  0  0  0  0  0  0  0  0  0
    1.2940   -0.7770    1.1160 C   0  0  0  0  0  0  0  0  0  0  0  0
   -0.0320   -0.3320    0.6730 C   0  0  0  0  0  0  0  0  0  0  0  0
   -1.0070   -1.2060    0.5960 C   0  0  0  0  0  0  0  0  0  0  0  0
   -2.3770   -0.9150    0.1790 C   0  0  0  0  0  0  0  0  0  0  0  0
   -3.1290    0.1260    0.6640 C   0  0  0  0  0  0  0  0  0  0  0  0
   -4.4280    0.4000    0.2350 C   0  0  0  0  0  0  0  0  0  0  0  0
   -5.2000    1.5430    0.7900 C   0  0  0  0  0  0  0  0  0  0  0  0
   -4.9500   -0.4380   -0.7250 C   0  0  0  0  0  0  0  0  0  0  0  0
   -6.3420   -0.2150   -1.2440 C   0  0  0  0  0  0  0  0  0  0  0  0
   -4.2450   -1.4960   -1.2470 C   0  0  0  0  0  0  0  0  0  0  0  0
   -4.8080   -2.3930   -2.2760 C   0  0  0  0  0  0  0  0  0  0  0  0
   -2.9500   -1.7190   -0.7800 C   0  0  0  0  0  0  0  0  0  0  0  0
   -2.1970   -2.7810   -1.2810 O   0  0  0  0  0  0  0  0  0  0  0  0
   -0.1280    1.0790    0.3280 C   0  0  0  0  0  0  0  0  0  0  0  0
   -1.0080    1.4250   -0.4960 O   0  0  0  0  0  0  0  0  0  0  0  0
    0.8120    2.0860    0.9490 C   0  0  2  0  0  0  0  0  0  0  0  0
    0.8490    3.3010    0.0490 C   0  0  0  0  0  0  0  0  0  0  0  0
    2.1920    1.4690    0.8540 C   0  0  0  0  0  0  0  0  0  0  0  0
    3.1870    2.1300    0.4930 O   0  0  0  0  0  0  0  0  0  0  0  0
  1  2  1  0
  2  3  1  0
  3  4  1  0
  4  5  1  0
  5  6  1  0
  6  7  2  0
  6 24  1  0
  7  8  1  0
  8  9  2  3
  8 20  1  0
  9 10  1  0
 10 11  2  0
 10 18  1  0
 11 12  1  0
 12 13  1  0
 12 14  2  0
 14 15  1  0
 14 16  1  0
 16 17  1  0
 16 18  2  0
 18 19  1  0
 20 21  2  0
 20 22  1  0
 22 23  1  6
 22 24  1  0
 24 25  2  0
M  END
