
     RDKit          3D

 29 31  0  0  0  0  0  0  0  0999 V2000
   -2.2720   -3.2280   -1.9890 C   0  0  0  0  0  0  0  0  0  0  0  0
   -1.1530   -2.1340   -1.0890 S   0  0  2  0  0  0  0  0  0  0  0  0
   -0.2300   -1.5500   -2.1260 O   0  0  0  0  0  0  0  0  0  0  0  0
   -0.4200   -2.9610   -0.1030 O   0  0  0  0  0  0  0  0  0  0  0  0
   -2.1100   -0.8950   -0.3290 C   0  0  0  0  0  0  0  0  0  0  0  0
   -3.5120   -0.9280   -0.4730 C   0  0  0  0  0  0  0  0  0  0  0  0
   -4.3060    0.0530    0.0450 C   0  0  0  0  0  0  0  0  0  0  0  0
   -5.7110   -0.0360   -0.1300 N   0  0  0  0  0  0  0  0  0  0  0  0
   -6.6150    0.9770    0.3650 C   0  0  0  0  0  0  0  0  0  0  0  0
   -6.3110    2.2360   -0.2640 N   0  0  0  0  0  0  0  0  0  0  0  0
   -3.7340    1.1000    0.7230 C   0  0  0  0  0  0  0  0  0  0  0  0
   -2.3830    1.1290    0.8610 C   0  0  0  0  0  0  0  0  0  0  0  0
   -1.5310    0.1430    0.3470 C   0  0  0  0  0  0  0  0  0  0  0  0
   -0.1180    0.3110    0.4920 N   0  0  0  0  0  0  0  0  0  0  0  0
    0.6540   -0.4400    1.3570 N   0  0  0  0  0  0  0  0  0  0  0  0
    0.0870   -1.2460    2.3210 C   0  0  0  0  0  0  0  0  0  0  0  0
    1.1050   -1.8200    3.0310 C   0  0  0  0  0  0  0  0  0  0  0  0
    2.2230   -1.3640    2.4970 N   0  0  0  0  0  0  0  0  0  0  0  0
    1.9790   -0.5020    1.4470 C   0  0  0  0  0  0  0  0  0  0  0  0
    3.0420    0.1640    0.7010 C   0  0  0  0  0  0  0  0  0  0  0  0
    4.3120    0.2410    1.2970 C   0  0  0  0  0  0  0  0  0  0  0  0
    5.3920    0.7920    0.6520 C   0  0  0  0  0  0  0  0  0  0  0  0
    5.2900    1.3010   -0.6210 C   0  0  0  0  0  0  0  0  0  0  0  0
    6.4520    1.9030   -1.3340 C   0  0  0  0  0  0  0  0  0  0  0  0
    7.1770    0.9100   -2.0970 N   0  0  0  0  0  0  0  0  0  0  0  0
    6.8720   -0.2960   -2.1530 O   0  0  0  0  0  0  0  0  0  0  0  0
    8.2770    1.3200   -2.8090 O   0  0  0  0  0  0  0  0  0  0  0  0
    4.0610    1.2340   -1.2190 C   0  0  0  0  0  0  0  0  0  0  0  0
    2.9520    0.6670   -0.5560 C   0  0  0  0  0  0  0  0  0  0  0  0
  2  1  1  6
  2  3  2  0
  2  4  2  0
  2  5  1  0
  5  6  2  0
  5 13  1  0
  6  7  1  0
  7  8  1  0
  7 11  2  0
  8  9  1  0
  9 10  1  0
 11 12  1  0
 12 13  2  0
 13 14  1  0
 14 15  1  0
 15 16  1  0
 15 19  1  0
 16 17  2  0
 17 18  1  0
 18 19  2  0
 19 20  1  0
 20 21  2  0
 20 29  1  0
 21 22  1  0
 22 23  2  0
 23 24  1  0
 23 28  1  0
 24 25  1  0
 25 26  2  0
 25 27  1  0
 28 29  2  0
M  CHG  2  25   1  27  -1
M  END
