
     RDKit          3D

  8  8  0  0  0  0  0  0  0  0999 V2000
    2.7780    0.5760    0.3680 N   0  0  0  0  0  0  0  0  0  0  0  0
    1.9270   -0.3790   -0.3170 C   0  0  0  0  0  0  0  0  0  0  0  0
    0.5020   -0.3420    0.2520 C   0  0  1  0  0  0  0  0  0  0  0  0
   -0.0210    1.0310    0.0550 C   0  0  0  0  0  0  0  0  0  0  0  0
   -1.4670    1.2250    0.2160 C   0  0  0  0  0  0  0  0  0  0  0  0
   -2.3560    0.0790   -0.0040 C   0  0  0  0  0  0  0  0  0  0  0  0
   -1.7290   -1.2710   -0.0090 C   0  0  0  0  0  0  0  0  0  0  0  0
   -0.3330   -1.3030   -0.5580 C   0  0  0  0  0  0  0  0  0  0  0  0
  1  2  1  0
  3  2  1  6
  3  4  1  0
  3  8  1  0
  4  5  1  0
  5  6  1  0
  6  7  1  0
  7  8  1  0
M  CHG  1   1   1
M  END
