
     RDKit          3D

 28 30  0  0  0  0  0  0  0  0999 V2000
   -1.8660    2.8040   -1.8270 C   0  0  0  0  0  0  0  0  0  0  0  0
   -2.0440    2.4280   -0.3730 C   0  0  0  0  0  0  0  0  0  0  0  0
   -3.1660    1.4560   -0.2920 C   0  0  0  0  0  0  0  0  0  0  0  0
   -4.4390    1.7140    0.1250 N   0  0  0  0  0  0  0  0  0  0  0  0
   -5.1460    0.6260    0.0610 O   0  0  0  0  0  0  0  0  0  0  0  0
   -4.4550   -0.3790   -0.3730 C   0  0  0  0  0  0  0  0  0  0  0  0
   -4.8310   -1.8030   -0.6100 C   0  0  0  0  0  0  0  0  0  0  0  0
   -3.1710    0.1180   -0.6120 C   0  0  0  0  0  0  0  0  0  0  0  0
   -2.0180   -0.6730   -1.1210 C   0  0  0  0  0  0  0  0  0  0  0  0
   -1.0740   -0.9890   -0.0190 C   0  0  0  0  0  0  0  0  0  0  0  0
   -1.3290   -0.5820    1.1420 O   0  0  0  0  0  0  0  0  0  0  0  0
    0.1260   -1.7570   -0.2690 N   0  0  0  0  0  0  0  0  0  0  0  0
    1.0000   -2.0380    0.8150 C   0  0  0  0  0  0  0  0  0  0  0  0
    0.8110   -3.1730    1.6190 C   0  0  0  0  0  0  0  0  0  0  0  0
   -0.2620   -4.1750    1.4490 C   0  0  0  0  0  0  0  0  0  0  0  0
    1.7880   -3.1090    2.5120 N   0  0  0  0  0  0  0  0  0  0  0  0
    2.5490   -2.0230    2.3050 N   0  0  0  0  0  0  0  0  0  0  0  0
    3.6400   -1.7130    3.0870 O   0  0  0  0  0  0  0  0  0  0  0  0
    2.0900   -1.3190    1.2450 C   0  0  0  0  0  0  0  0  0  0  0  0
    2.6340   -0.1000    0.6610 C   0  0  0  0  0  0  0  0  0  0  0  0
    2.1630    0.4820   -0.4920 C   0  0  0  0  0  0  0  0  0  0  0  0
    2.6730    1.6440   -1.0350 C   0  0  0  0  0  0  0  0  0  0  0  0
    3.7180    2.2900   -0.4150 C   0  0  0  0  0  0  0  0  0  0  0  0
    4.2530    3.4930   -0.9710 N   0  0  0  0  0  0  0  0  0  0  0  0
    3.7020    4.7130   -0.5650 N   0  0  0  0  0  0  0  0  0  0  0  0
    3.9410    5.1940    0.5780 O   0  0  0  0  0  0  0  0  0  0  0  0
    4.2210    1.7460    0.7390 C   0  0  0  0  0  0  0  0  0  0  0  0
    3.6820    0.5660    1.2650 C   0  0  0  0  0  0  0  0  0  0  0  0
  1  2  1  0
  2  3  1  0
  3  4  2  0
  3  8  1  0
  4  5  1  0
  5  6  1  0
  6  7  1  0
  6  8  2  0
  8  9  1  0
  9 10  1  0
 10 11  2  0
 10 12  1  0
 12 13  1  0
 13 14  2  0
 13 19  1  0
 14 15  1  0
 14 16  1  0
 16 17  1  0
 17 18  1  0
 17 19  2  0
 19 20  1  0
 20 21  2  0
 20 28  1  0
 21 22  1  0
 22 23  2  0
 23 24  1  0
 23 27  1  0
 24 25  1  0
 25 26  2  0
 27 28  2  0
M  CHG  2  17   1  18  -1
M  END
