
     RDKit          3D

 29 31  0  0  0  0  0  0  0  0999 V2000
   -3.8340    4.8000   -1.0730 N   0  0  0  0  0  0  0  0  0  0  0  0
   -2.8680    5.0680   -0.0830 C   0  0  0  0  0  0  0  0  0  0  0  0
   -2.5220    6.2440    0.1640 O   0  0  0  0  0  0  0  0  0  0  0  0
   -2.2770    3.9660    0.6570 C   0  0  0  0  0  0  0  0  0  0  0  0
   -2.4940    2.6100    0.4300 C   0  0  0  0  0  0  0  0  0  0  0  0
   -1.7450    1.9190    1.3530 C   0  0  0  0  0  0  0  0  0  0  0  0
   -1.6960    0.5050    1.4650 N   0  0  0  0  0  0  0  0  0  0  0  0
   -2.8730   -0.1880    1.8190 O   0  0  0  0  0  0  0  0  0  0  0  0
   -0.6560   -0.2220    1.2930 C   0  0  0  0  0  0  0  0  0  0  0  0
    0.6340    0.3950    0.9440 C   0  0  0  0  0  0  0  0  0  0  0  0
    0.5540    1.6760    0.3090 N   0  0  0  0  0  0  0  0  0  0  0  0
    1.8380    2.1790    0.0570 N   0  0  0  0  0  0  0  0  0  0  0  0
    2.7470    1.5620   -0.8110 C   0  0  0  0  0  0  0  0  0  0  0  0
    4.0010    2.0870   -0.9780 C   0  0  0  0  0  0  0  0  0  0  0  0
    4.9480    1.5340   -1.8030 C   0  0  0  0  0  0  0  0  0  0  0  0
    4.5960    0.3900   -2.4920 C   0  0  0  0  0  0  0  0  0  0  0  0
    3.3300   -0.1390   -2.3240 C   0  0  0  0  0  0  0  0  0  0  0  0
    2.4330    0.4350   -1.5040 N   0  0  0  0  0  0  0  0  0  0  0  0
   -0.7570   -1.6750    1.4750 C   0  0  0  0  0  0  0  0  0  0  0  0
   -1.8810   -2.1910    1.7870 O   0  0  0  0  0  0  0  0  0  0  0  0
    0.3270   -2.5750    1.3290 N   0  0  0  0  0  0  0  0  0  0  0  0
    0.2010   -4.0070    1.5030 C   0  0  0  0  0  0  0  0  0  0  0  0
   -0.7090   -4.6610    0.5710 C   0  0  0  0  0  0  0  0  0  0  0  0
   -0.6360   -4.9400   -0.7410 C   0  0  0  0  0  0  0  0  0  0  0  0
   -1.6070   -5.5660   -1.4060 C   0  0  0  0  0  0  0  0  0  0  0  0
   -2.7430   -5.9260   -0.6090 C   0  0  0  0  0  0  0  0  0  0  0  0
   -2.3530   -5.3540    0.9990 S   0  0  0  0  0  0  0  0  0  0  0  0
   -1.0950    2.8600    2.1120 C   0  0  0  0  0  0  0  0  0  0  0  0
   -1.4430    4.0260    1.6620 O   0  0  0  0  0  0  0  0  0  0  0  0
  1  2  1  0
  2  3  2  0
  2  4  1  0
  4  5  2  0
  4 29  1  0
  5  6  1  0
  6  7  1  0
  6 28  2  0
  7  8  1  0
  7  9  2  3
  9 10  1  0
  9 19  1  0
 10 11  1  0
 11 12  1  0
 12 13  1  0
 13 14  2  0
 13 18  1  0
 14 15  1  0
 15 16  2  0
 16 17  1  0
 17 18  2  0
 19 20  2  0
 19 21  1  0
 21 22  1  0
 22 23  1  0
 23 24  2  0
 23 27  1  0
 24 25  1  0
 25 26  2  0
 26 27  1  0
 28 29  1  0
M  CHG  2   7   1   8  -1
M  END
