
     RDKit          3D

 29 31  0  0  0  0  0  0  0  0999 V2000
   -3.8000    0.9690   -2.4630 C   0  0  0  0  0  0  0  0  0  0  0  0
   -4.4180   -0.3850   -2.6410 C   0  0  0  0  0  0  0  0  0  0  0  0
   -4.7990   -0.9360   -1.3590 N   0  0  0  0  0  0  0  0  0  0  0  0
   -6.0160   -0.7200   -0.7960 C   0  0  0  0  0  0  0  0  0  0  0  0
   -6.0410   -1.3840    0.4090 C   0  0  0  0  0  0  0  0  0  0  0  0
   -4.8510   -1.9690    0.5250 N   0  0  0  0  0  0  0  0  0  0  0  0
   -4.4410   -2.7420    1.5840 O   0  0  0  0  0  0  0  0  0  0  0  0
   -4.0860   -1.7000   -0.5530 C   0  0  0  0  0  0  0  0  0  0  0  0
   -2.7060   -2.1850   -0.7590 C   0  0  0  0  0  0  0  0  0  0  0  0
   -1.7570   -1.1680   -0.1310 C   0  0  0  0  0  0  0  0  0  0  0  0
   -0.3250   -1.5820   -0.2940 C   0  0  0  0  0  0  0  0  0  0  0  0
    0.5320   -0.5850    0.3030 N   0  0  0  0  0  0  0  0  0  0  0  0
    0.5370   -0.2250    1.6600 C   0  0  0  0  0  0  0  0  0  0  0  0
   -0.3050   -0.8420    2.3970 O   0  0  0  0  0  0  0  0  0  0  0  0
    1.3760    0.7600    2.3070 C   0  0  0  0  0  0  0  0  0  0  0  0
    1.0540    1.3680    3.4870 N   0  0  0  0  0  0  0  0  0  0  0  0
    2.0290    2.2190    3.8340 C   0  0  0  0  0  0  0  0  0  0  0  0
    2.0550    3.0420    5.0070 N   0  0  0  0  0  0  0  0  0  0  0  0
    2.9580    2.1510    2.8880 N   0  0  0  0  0  0  0  0  0  0  0  0
    2.5790    1.2520    1.9300 C   0  0  0  0  0  0  0  0  0  0  0  0
    3.4070    0.9330    0.7490 C   0  0  0  0  0  0  0  0  0  0  0  0
    3.8810    1.9590   -0.0380 C   0  0  0  0  0  0  0  0  0  0  0  0
    4.7110    1.7050   -1.1330 C   0  0  0  0  0  0  0  0  0  0  0  0
    5.0820    0.4200   -1.4600 C   0  0  0  0  0  0  0  0  0  0  0  0
    6.1310    0.0940   -2.8440 S   0  0  2  0  0  0  0  0  0  0  0  0
    6.6330    1.4130   -3.3530 O   0  0  0  0  0  0  0  0  0  0  0  0
    5.3840   -0.6620   -3.9070 O   0  0  0  0  0  0  0  0  0  0  0  0
    4.6080   -0.6070   -0.6740 C   0  0  0  0  0  0  0  0  0  0  0  0
    3.7780   -0.3490    0.4200 C   0  0  0  0  0  0  0  0  0  0  0  0
  1  2  1  0
  2  3  1  0
  3  4  1  0
  3  8  1  0
  4  5  2  0
  5  6  1  0
  6  7  1  0
  6  8  2  0
  8  9  1  0
  9 10  1  0
 10 11  1  0
 11 12  1  0
 12 13  1  0
 13 14  2  0
 13 15  1  0
 15 16  1  0
 15 20  2  0
 16 17  1  0
 17 18  1  0
 17 19  2  0
 19 20  1  0
 20 21  1  0
 21 22  2  0
 21 29  1  0
 22 23  1  0
 23 24  2  0
 25 24  1  1
 24 28  1  0
 25 26  2  0
 25 27  2  0
 28 29  2  0
M  CHG  2   6   1   7  -1
M  END
