
     RDKit          3D

 15 15  0  0  0  0  0  0  0  0999 V2000
    2.6120    0.6480    1.3820 C   0  0  0  0  0  0  0  0  0  0  0  0
    1.5150    0.4140    0.3020 C   0  0  1  0  0  0  0  0  0  0  0  0
    2.2910   -0.1970   -0.8560 C   0  0  0  0  0  0  0  0  0  0  0  0
    3.3250    0.7830   -1.2550 N   0  0  0  0  0  0  0  0  0  0  0  0
    0.5420   -0.5000    0.9360 C   0  0  0  0  0  0  0  0  0  0  0  0
   -0.6520   -0.9400    0.1840 C   0  0  1  0  0  0  0  0  0  0  0  0
   -0.4260   -1.6840   -1.0820 C   0  0  0  0  0  0  0  0  0  0  0  0
   -1.2970   -1.8880    1.0590 O   0  0  0  0  0  0  0  0  0  0  0  0
   -1.7220    0.1400    0.0530 C   0  0  1  0  0  0  0  0  0  0  0  0
   -1.3780    1.2400   -0.8840 C   0  0  0  0  0  0  0  0  0  0  0  0
   -2.8920   -0.4690   -0.4780 O   0  0  0  0  0  0  0  0  0  0  0  0
   -3.9210    0.2840    0.0870 C   0  0  0  0  0  0  0  0  0  0  0  0
   -3.4290    0.3690    1.5100 C   0  0  0  0  0  0  0  0  0  0  0  0
   -4.1090    0.2910    2.5670 O   0  0  0  0  0  0  0  0  0  0  0  0
   -2.0540    0.5540    1.3580 O   0  0  0  0  0  0  0  0  0  0  0  0
  2  1  1  1
  2  3  1  0
  2  5  1  0
  3  4  1  0
  5  6  1  0
  6  7  1  6
  6  8  1  0
  6  9  1  0
  9 10  1  6
  9 11  1  0
  9 15  1  0
 11 12  1  0
 12 13  1  0
 13 14  2  0
 13 15  1  0
M  CHG  1   4   1
M  END
