
     RDKit          3D

  9  9  0  0  0  0  0  0  0  0999 V2000
    2.4290   -0.7380    0.0990 N   0  0  0  0  0  0  0  0  0  0  0  0
    1.6610    0.4670    0.0350 C   0  0  0  0  0  0  0  0  0  0  0  0
    0.2070    0.2570   -0.0150 C   0  0  0  0  0  0  0  0  0  0  0  0
   -0.6120    1.3540   -0.0760 C   0  0  0  0  0  0  0  0  0  0  0  0
   -1.9970    1.2390   -0.1260 C   0  0  0  0  0  0  0  0  0  0  0  0
   -2.5910    0.0010   -0.1140 C   0  0  0  0  0  0  0  0  0  0  0  0
   -3.9500   -0.1340   -0.1620 F   0  0  0  0  0  0  0  0  0  0  0  0
   -1.7630   -1.1010   -0.0530 C   0  0  0  0  0  0  0  0  0  0  0  0
   -0.3750   -0.9870   -0.0030 C   0  0  0  0  0  0  0  0  0  0  0  0
  1  2  1  0
  2  3  1  0
  3  4  2  0
  3  9  1  0
  4  5  1  0
  5  6  2  0
  6  7  1  0
  6  8  1  0
  8  9  2  0
M  CHG  1   1   1
M  END
