
     RDKit          3D

 15 15  0  0  0  0  0  0  0  0999 V2000
   -4.5510    0.9220    0.3440 C   0  0  0  0  0  0  0  0  0  0  0  0
   -4.7580    0.2540   -0.8340 O   0  0  0  0  0  0  0  0  0  0  0  0
   -3.6880    0.2090   -1.6950 C   0  0  0  0  0  0  0  0  0  0  0  0
   -2.4850   -0.4910   -1.0410 C   0  0  0  0  0  0  0  0  0  0  0  0
   -1.4220   -0.5410   -1.8960 O   0  0  0  0  0  0  0  0  0  0  0  0
   -0.2880   -1.1710   -1.4610 C   0  0  0  0  0  0  0  0  0  0  0  0
    0.3720   -0.6150   -0.2410 C   0  0  2  0  0  0  0  0  0  0  0  0
   -0.4020   -0.6420    0.8840 O   0  0  0  0  0  0  0  0  0  0  0  0
    0.7570    0.8610   -0.4450 C   0  0  0  0  0  0  0  0  0  0  0  0
    2.0880    1.1850    0.1190 C   0  0  0  0  0  0  0  0  0  0  0  0
    2.4480    0.4610    1.3770 C   0  0  2  0  0  0  0  0  0  0  0  0
    3.9000    0.6280    1.5580 N   0  0  0  0  0  0  0  0  0  0  0  0
    2.1950   -1.0190    1.3150 C   0  0  0  0  0  0  0  0  0  0  0  0
    1.6940   -1.3370   -0.0720 C   0  0  1  0  0  0  0  0  0  0  0  0
    1.6080   -2.6820   -0.3350 O   0  0  0  0  0  0  0  0  0  0  0  0
  1  2  1  0
  2  3  1  0
  3  4  1  0
  4  5  1  0
  5  6  1  0
  6  7  1  0
  7  8  1  1
  7  9  1  0
  7 14  1  0
  9 10  1  0
 10 11  1  0
 11 12  1  6
 11 13  1  0
 13 14  1  0
 14 15  1  1
M  CHG  1  12   1
M  END
