
     RDKit          3D

 15 15  0  0  0  0  0  0  0  0999 V2000
   -2.6480    1.7310   -0.4960 C   0  0  0  0  0  0  0  0  0  0  0  0
   -2.2100    0.5110   -0.9370 O   0  0  0  0  0  0  0  0  0  0  0  0
   -1.7510   -0.3620   -0.0030 C   0  0  1  0  0  0  0  0  0  0  0  0
   -2.7390   -0.6790    1.0880 C   0  0  0  0  0  0  0  0  0  0  0  0
   -1.5620   -1.7140   -0.7300 C   0  0  0  0  0  0  0  0  0  0  0  0
   -0.7690   -2.4830    0.1820 N   0  0  0  0  0  0  0  0  0  0  0  0
    0.0340   -1.5620    0.9410 C   0  0  0  0  0  0  0  0  0  0  0  0
   -0.3380   -0.1520    0.4750 C   0  0  2  0  0  0  0  0  0  0  0  0
   -0.1670    0.8560    1.5480 C   0  0  0  0  0  0  0  0  0  0  0  0
    0.5720    0.1930   -0.6780 C   0  0  1  0  0  0  0  0  0  0  0  0
    0.1210    1.3600   -1.3310 O   0  0  0  0  0  0  0  0  0  0  0  0
    1.9600    0.4520   -0.1200 C   0  0  0  0  0  0  0  0  0  0  0  0
    2.8510    0.7950   -1.1460 O   0  0  0  0  0  0  0  0  0  0  0  0
    4.0890    1.0110   -0.5310 C   0  0  0  0  0  0  0  0  0  0  0  0
    5.0750    1.3610   -1.4320 O   0  0  0  0  0  0  0  0  0  0  0  0
  1  2  1  0
  2  3  1  0
  3  4  1  1
  3  5  1  0
  3  8  1  0
  5  6  1  0
  6  7  1  0
  7  8  1  0
  8  9  1  1
  8 10  1  0
 10 11  1  1
 10 12  1  0
 12 13  1  0
 13 14  1  0
 14 15  1  0
M  CHG  1   6   1
M  END
