
     RDKit          3D

 24 26  0  0  0  0  0  0  0  0999 V2000
   -2.5920    0.5860    2.2620 C   0  0  0  0  0  0  0  0  0  0  0  0
   -2.6670    0.5160    0.7900 C   0  0  0  0  0  0  0  0  0  0  0  0
   -1.6490   -0.0650    0.1250 C   0  0  0  0  0  0  0  0  0  0  0  0
   -1.6660   -0.1640   -1.3230 C   0  0  0  0  0  0  0  0  0  0  0  0
   -0.7790   -0.6830   -2.0750 C   0  0  0  0  0  0  0  0  0  0  0  0
    0.5250   -1.3310   -1.6180 C   0  0  2  0  0  0  0  0  0  0  0  0
    0.0660   -2.4990   -0.9230 N   0  0  0  0  0  0  0  0  0  0  0  0
    1.2140   -0.3580   -0.7280 C   0  0  0  0  0  0  0  0  0  0  0  0
    0.9290    1.0120   -0.9260 C   0  0  0  0  0  0  0  0  0  0  0  0
    1.3940    1.9560   -0.0530 C   0  0  0  0  0  0  0  0  0  0  0  0
    1.0860    3.3930   -0.2730 C   0  0  0  0  0  0  0  0  0  0  0  0
    2.1540    1.6460    1.0520 C   0  0  0  0  0  0  0  0  0  0  0  0
    2.6400    2.7180    1.9870 C   0  0  0  0  0  0  0  0  0  0  0  0
    2.4350    0.3280    1.2460 C   0  0  0  0  0  0  0  0  0  0  0  0
    1.9670   -0.6740    0.3520 C   0  0  0  0  0  0  0  0  0  0  0  0
    2.5180   -2.0210    0.5620 C   0  0  0  0  0  0  0  0  0  0  0  0
    2.6950   -2.9630   -0.3060 C   0  0  0  0  0  0  0  0  0  0  0  0
    3.2840   -4.1660    0.3880 C   0  0  0  0  0  0  0  0  0  0  0  0
    3.3910   -3.7040    1.7790 C   0  0  0  0  0  0  0  0  0  0  0  0
    2.9590   -2.5100    1.8500 N   0  0  0  0  0  0  0  0  0  0  0  0
   -2.8380    0.4030   -1.9480 N   0  0  0  0  0  0  0  0  0  0  0  0
   -3.8880    1.0060   -1.2190 C   0  0  0  0  0  0  0  0  0  0  0  0
   -5.0910    1.5880   -1.8540 C   0  0  0  0  0  0  0  0  0  0  0  0
   -3.8160    1.0660    0.1010 C   0  0  0  0  0  0  0  0  0  0  0  0
  1  2  1  0
  2  3  2  0
  2 24  1  0
  3  4  1  0
  4  5  2  3
  4 21  1  0
  5  6  1  0
  6  7  1  1
  6  8  1  0
  8  9  2  0
  8 15  1  0
  9 10  1  0
 10 11  1  0
 10 12  2  0
 12 13  1  0
 12 14  1  0
 14 15  2  0
 15 16  1  0
 16 17  2  0
 16 20  1  0
 17 18  1  0
 18 19  1  0
 19 20  2  0
 21 22  1  0
 22 23  1  0
 22 24  2  0
M  END
