
     RDKit          3D

 11 11  0  0  0  0  0  0  0  0999 V2000
    3.3660    0.5430   -1.3060 N   0  0  0  0  0  0  0  0  0  0  0  0
    3.3300   -0.6470   -0.4660 C   0  0  0  0  0  0  0  0  0  0  0  0
    2.2400   -0.4570    0.5670 C   0  0  0  0  0  0  0  0  0  0  0  0
    0.8850   -0.2640   -0.0830 C   0  0  0  0  0  0  0  0  0  0  0  0
   -0.1270   -0.0850    0.9880 C   0  0  0  0  0  0  0  0  0  0  0  0
   -1.5000    0.1160    0.5700 C   0  0  0  0  0  0  0  0  0  0  0  0
   -2.0940    1.3290    0.3150 C   0  0  0  0  0  0  0  0  0  0  0  0
   -3.4090    1.4540   -0.0810 C   0  0  0  0  0  0  0  0  0  0  0  0
   -4.1840    0.3190   -0.2340 C   0  0  0  0  0  0  0  0  0  0  0  0
   -3.6150   -0.9290    0.0170 C   0  0  0  0  0  0  0  0  0  0  0  0
   -2.2950   -1.0080    0.4110 C   0  0  0  0  0  0  0  0  0  0  0  0
  1  2  1  0
  2  3  1  0
  3  4  1  0
  4  5  1  0
  5  6  1  0
  6  7  2  0
  6 11  1  0
  7  8  1  0
  8  9  2  0
  9 10  1  0
 10 11  2  0
M  CHG  1   1   1
M  END
