
     RDKit          3D

 24 27  0  0  0  0  0  0  0  0999 V2000
   -5.4220   -0.4110    0.1740 C   0  0  0  0  0  0  0  0  0  0  0  0
   -4.0960   -0.7500   -0.4210 C   0  0  0  0  0  0  0  0  0  0  0  0
   -3.9980   -1.4920   -1.5820 C   0  0  0  0  0  0  0  0  0  0  0  0
   -2.7680   -1.8010   -2.1190 C   0  0  0  0  0  0  0  0  0  0  0  0
   -1.5800   -1.3760   -1.5050 C   0  0  0  0  0  0  0  0  0  0  0  0
   -1.6520   -0.6420   -0.3580 C   0  0  0  0  0  0  0  0  0  0  0  0
   -2.9260   -0.3360    0.1730 C   0  0  0  0  0  0  0  0  0  0  0  0
   -3.2420    0.4320    1.3410 N   0  0  0  0  0  0  0  0  0  0  0  0
   -2.5780    1.5860    1.9000 C   0  0  2  0  0  0  0  0  0  0  0  0
   -3.4170    2.8120    1.5370 C   0  0  0  0  0  0  0  0  0  0  0  0
   -1.2000    1.8320    1.3940 C   0  0  0  0  0  0  0  0  0  0  0  0
   -0.3240    0.5780    1.5120 C   0  0  0  0  0  0  0  0  0  0  0  0
   -0.3610   -0.1790    0.2330 C   0  0  0  0  0  0  0  0  0  0  0  0
    0.7940   -0.4590   -0.3360 C   0  0  0  0  0  0  0  0  0  0  0  0
    2.0160    0.0040    0.2640 C   0  0  0  0  0  0  0  0  0  0  0  0
    3.2710   -0.1260   -0.0500 C   0  0  0  0  0  0  0  0  0  0  0  0
    3.8410   -0.8350   -1.1920 C   0  0  0  0  0  0  0  0  0  0  0  0
    5.3350   -0.4830   -1.3820 C   0  0  0  0  0  0  0  0  0  0  0  0
    6.0380   -0.7900   -0.0630 C   0  0  0  0  0  0  0  0  0  0  0  0
    5.5160    0.2190    0.8630 N   0  0  0  0  0  0  0  0  0  0  0  0
    4.2820    0.5150    0.8670 C   0  0  0  0  0  0  0  0  0  0  0  0
    3.8620    1.5130    1.7910 N   0  0  0  0  0  0  0  0  0  0  0  0
    0.9060   -1.1960   -1.6170 C   0  0  0  0  0  0  0  0  0  0  0  0
   -0.3250   -1.8030   -2.1580 C   0  0  0  0  0  0  0  0  0  0  0  0
  1  2  1  0
  2  3  2  0
  2  7  1  0
  3  4  1  0
  4  5  2  0
  5  6  1  0
  5 24  1  0
  6  7  2  0
  6 13  1  0
  7  8  1  0
  8  9  1  0
  9 10  1  6
  9 11  1  0
 11 12  1  0
 12 13  1  0
 13 14  2  0
 14 15  1  0
 14 23  1  0
 15 16  2  3
 16 17  1  0
 16 21  1  0
 17 18  1  0
 18 19  1  0
 19 20  1  0
 20 21  2  0
 21 22  1  0
 23 24  1  0
M  END
