
     RDKit          3D

 11 11  0  0  0  0  0  0  0  0999 V2000
    1.8520    1.5710    0.2500 O   0  0  0  0  0  0  0  0  0  0  0  0
    2.4180    0.4750    0.2920 C   0  0  0  0  0  0  0  0  0  0  0  0
    3.6360    0.3870    1.0160 O   0  0  0  0  0  0  0  0  0  0  0  0
    1.9270   -0.7540   -0.3510 C   0  0  0  0  0  0  0  0  0  0  0  0
    0.6510   -0.6600   -1.0990 C   0  0  0  0  0  0  0  0  0  0  0  0
   -0.5360   -0.2550   -0.3410 C   0  0  0  0  0  0  0  0  0  0  0  0
   -1.2460   -1.1770    0.3950 C   0  0  0  0  0  0  0  0  0  0  0  0
   -2.3850   -0.8430    1.1000 C   0  0  0  0  0  0  0  0  0  0  0  0
   -2.8230    0.4590    1.0630 C   0  0  0  0  0  0  0  0  0  0  0  0
   -2.1330    1.4010    0.3350 C   0  0  0  0  0  0  0  0  0  0  0  0
   -0.9820    1.0370   -0.3710 C   0  0  0  0  0  0  0  0  0  0  0  0
  1  2  2  0
  2  3  1  0
  2  4  1  0
  4  5  1  0
  5  6  1  0
  6  7  2  0
  6 11  1  0
  7  8  1  0
  8  9  2  0
  9 10  1  0
 10 11  2  0
M  END
