
     RDKit          3D

 10 10  0  0  0  0  0  0  0  0999 V2000
    2.7400   -0.6030   -2.4330 O   0  0  0  0  0  0  0  0  0  0  0  0
    1.7650    0.0570   -1.7060 C   0  0  0  0  0  0  0  0  0  0  0  0
    1.2870   -0.9010   -0.6170 C   0  0  0  0  0  0  0  0  0  0  0  0
    0.3460   -0.3130    0.1140 O   0  0  0  0  0  0  0  0  0  0  0  0
   -0.5470    0.2450    0.8090 C   0  0  0  0  0  0  0  0  0  0  0  0
   -0.5140    1.4500    1.5550 C   0  0  0  0  0  0  0  0  0  0  0  0
   -1.6590    1.6560    2.1200 O   0  0  0  0  0  0  0  0  0  0  0  0
   -2.4960    0.7000    1.8370 C   0  0  0  0  0  0  0  0  0  0  0  0
   -1.8900   -0.2160    1.0320 C   0  0  0  0  0  0  0  0  0  0  0  0
   -2.3720   -1.3810    0.4890 O   0  0  0  0  0  0  0  0  0  0  0  0
  1  2  1  0
  2  3  1  0
  3  4  1  0
  4  5  1  0
  5  6  2  0
  5  9  1  0
  6  7  1  0
  7  8  1  0
  8  9  2  0
  9 10  1  0
M  END
