
     RDKit          3D

 10 10  0  0  0  0  0  0  0  0999 V2000
    4.2010    0.1040   -0.0530 O   0  0  0  0  0  0  0  0  0  0  0  0
    3.1970   -0.2710    0.8380 C   0  0  0  0  0  0  0  0  0  0  0  0
    1.8760   -0.0170    0.1570 C   0  0  0  0  0  0  0  0  0  0  0  0
    0.7780   -0.3700    0.9870 O   0  0  0  0  0  0  0  0  0  0  0  0
   -0.4890   -0.1700    0.4440 C   0  0  0  0  0  0  0  0  0  0  0  0
   -0.8870    1.0780    0.2760 C   0  0  0  0  0  0  0  0  0  0  0  0
   -2.2460    1.3340   -0.3060 C   0  0  0  0  0  0  0  0  0  0  0  0
   -3.0290    0.0340   -0.0890 C   0  0  0  0  0  0  0  0  0  0  0  0
   -2.2970   -0.9510   -0.7870 O   0  0  0  0  0  0  0  0  0  0  0  0
   -1.2960   -1.3560    0.0950 C   0  0  0  0  0  0  0  0  0  0  0  0
  1  2  1  0
  2  3  1  0
  3  4  1  0
  4  5  1  0
  5  6  2  0
  5 10  1  0
  6  7  1  0
  7  8  1  0
  8  9  1  0
  9 10  1  0
M  END
