
     RDKit          3D

 28 30  0  0  0  0  0  0  0  0999 V2000
   -3.8470   -1.4660   -1.8590 C   0  0  0  0  0  0  0  0  0  0  0  0
   -2.5110   -0.8250   -1.3790 C   0  0  0  0  0  0  0  0  0  0  0  0
   -2.8430   -0.2470   -0.0800 C   0  0  2  0  0  0  0  0  0  0  0  0
   -3.9140    0.8300   -0.2490 C   0  0  0  0  0  0  0  0  0  0  0  0
   -4.0120    1.6390    0.9520 N   0  0  0  0  0  0  0  0  0  0  0  0
   -3.9530    0.7840    2.1200 C   0  0  0  0  0  0  0  0  0  0  0  0
   -2.6510   -0.0230    2.2140 C   0  0  0  0  0  0  0  0  0  0  0  0
   -1.8430    0.2910    0.8950 C   0  0  1  0  0  0  0  0  0  0  0  0
   -0.5610   -0.4490    0.9290 C   0  0  0  0  0  0  0  0  0  0  0  0
   -0.6050   -1.7910    1.0660 C   0  0  0  0  0  0  0  0  0  0  0  0
    0.5390   -2.5600    0.9550 C   0  0  0  0  0  0  0  0  0  0  0  0
    1.7720   -1.9950    0.7020 C   0  0  0  0  0  0  0  0  0  0  0  0
    3.0210   -2.8000    0.5800 C   0  0  2  0  0  0  0  0  0  0  0  0
    2.9020   -3.8520   -0.3540 N   0  0  0  0  0  0  0  0  0  0  0  0
    3.2490   -5.1100    0.1590 C   0  0  0  0  0  0  0  0  0  0  0  0
    3.7530   -4.8470    1.5170 C   0  0  0  0  0  0  0  0  0  0  0  0
    4.4870   -5.6030    2.2970 N   0  0  0  0  0  0  0  0  0  0  0  0
    3.2530   -3.5400    1.8260 N   0  0  0  0  0  0  0  0  0  0  0  0
    1.8310   -0.6380    0.5650 C   0  0  0  0  0  0  0  0  0  0  0  0
    3.0500    0.0170    0.3090 O   0  0  0  0  0  0  0  0  0  0  0  0
    3.5390    0.2920   -0.9910 C   0  0  0  0  0  0  0  0  0  0  0  0
    0.6780    0.1710    0.6720 C   0  0  0  0  0  0  0  0  0  0  0  0
    0.7780    1.4700    0.5350 O   0  0  0  0  0  0  0  0  0  0  0  0
    0.8770    2.6000   -0.1560 C   0  0  0  0  0  0  0  0  0  0  0  0
   -0.1160    2.9560   -1.2230 C   0  0  0  0  0  0  0  0  0  0  0  0
    0.2510    4.3490   -1.7620 C   0  0  1  0  0  0  0  0  0  0  0  0
    0.1340    5.3630   -0.6460 C   0  0  0  0  0  0  0  0  0  0  0  0
    1.7390    4.4060   -2.1570 C   0  0  0  0  0  0  0  0  0  0  0  0
  1  2  1  0
  3  2  1  6
  3  4  1  0
  3  8  1  0
  4  5  1  0
  5  6  1  0
  6  7  1  0
  7  8  1  0
  8  9  1  1
  9 10  2  0
  9 22  1  0
 10 11  1  0
 11 12  2  0
 13 12  1  1
 12 19  1  0
 13 14  1  0
 13 18  1  0
 14 15  1  0
 15 16  1  0
 16 17  2  0
 16 18  1  0
 19 20  1  0
 19 22  2  0
 20 21  1  0
 22 23  1  0
 23 24  1  0
 24 25  1  0
 25 26  1  0
 26 27  1  1
 26 28  1  0
M  CHG  2   5   1  17   1
M  END
