
     RDKit          3D

 28 29  0  0  0  0  0  0  0  0999 V2000
   -2.6270    5.4620    1.0240 N   0  0  0  0  0  0  0  0  0  0  0  0
   -2.6670    4.3340    0.6330 C   0  0  0  0  0  0  0  0  0  0  0  0
   -2.6930    2.9030    0.1440 C   0  0  0  0  0  0  0  0  0  0  0  0
   -2.4430    3.0120   -1.2870 C   0  0  0  0  0  0  0  0  0  0  0  0
   -1.6210    2.5360   -2.1300 C   0  0  0  0  0  0  0  0  0  0  0  0
   -0.5250    1.6480   -2.2120 C   0  0  0  0  0  0  0  0  0  0  0  0
    0.1080    1.6790   -3.4370 C   0  0  0  0  0  0  0  0  0  0  0  0
    1.2510    0.9480   -3.9090 C   0  0  0  0  0  0  0  0  0  0  0  0
    2.1320    0.2460   -3.1700 C   0  0  0  0  0  0  0  0  0  0  0  0
    2.0780    0.0930   -1.7140 C   0  0  0  0  0  0  0  0  0  0  0  0
    1.0980    0.2230   -0.8250 C   0  0  0  0  0  0  0  0  0  0  0  0
    1.2800    0.0110    0.5650 C   0  0  0  0  0  0  0  0  0  0  0  0
    2.5560   -0.2670    1.1380 N   0  0  1  0  0  0  0  0  0  0  0  0
    3.1960   -1.4910    0.8370 C   0  0  0  0  0  0  0  0  0  0  0  0
    4.7100   -1.2250    0.7520 C   0  0  0  0  0  0  0  0  0  0  0  0
    5.1910   -0.5980    2.0360 C   0  0  2  0  0  0  0  0  0  0  0  0
    5.1800   -1.5970    3.0890 N   0  0  0  0  0  0  0  0  0  0  0  0
    4.3560    0.5810    2.4710 C   0  0  0  0  0  0  0  0  0  0  0  0
    3.4280    0.8820    1.2750 C   0  0  0  0  0  0  0  0  0  0  0  0
   -0.2500    0.6370   -1.1980 N   0  0  0  0  0  0  0  0  0  0  0  0
   -1.3330   -0.1180   -0.6970 C   0  0  0  0  0  0  0  0  0  0  0  0
   -1.8140   -0.3400    0.6310 C   0  0  0  0  0  0  0  0  0  0  0  0
   -2.9920   -1.3040    0.6830 C   0  0  0  0  0  0  0  0  0  0  0  0
   -4.2100   -1.0290   -0.0590 C   0  0  2  0  0  0  0  0  0  0  0  0
   -5.2390   -2.1730    0.4110 C   0  0  0  0  0  0  0  0  0  0  0  0
   -5.3450   -1.9570    1.7610 O   0  0  0  0  0  0  0  0  0  0  0  0
   -4.1830   -1.3740   -1.5460 C   0  0  0  0  0  0  0  0  0  0  0  0
   -5.4660   -1.0600   -2.0760 O   0  0  0  0  0  0  0  0  0  0  0  0
  1  2  3  0
  2  3  1  0
  3  4  1  0
  4  5  2  3
  5  6  1  0
  6  7  2  0
  6 20  1  0
  7  8  1  0
  8  9  2  0
  9 10  1  0
 10 11  2  0
 11 12  1  0
 11 20  1  0
 13 12  1  6
 13 14  1  0
 13 19  1  0
 14 15  1  0
 15 16  1  0
 16 17  1  1
 16 18  1  0
 18 19  1  0
 20 21  1  0
 21 22  1  0
 22 23  1  0
 24 23  1  1
 24 25  1  0
 24 27  1  0
 25 26  1  0
 27 28  1  0
M  CHG  2  13   1  17   1
M  END
