
     RDKit          3D

 28 30  0  0  0  0  0  0  0  0999 V2000
    0.0090   -4.7010    0.2120 C   0  0  0  0  0  0  0  0  0  0  0  0
   -0.4280   -3.3370    0.4040 N   0  0  0  0  0  0  0  0  0  0  0  0
   -0.6450   -2.8920    1.7630 C   0  0  0  0  0  0  0  0  0  0  0  0
   -0.6440   -2.4410   -0.6940 C   0  0  0  0  0  0  0  0  0  0  0  0
   -0.4350   -2.9000   -1.8460 O   0  0  0  0  0  0  0  0  0  0  0  0
   -1.0810   -1.0760   -0.4960 C   0  0  0  0  0  0  0  0  0  0  0  0
   -2.4410   -0.7330   -0.4590 C   0  0  0  0  0  0  0  0  0  0  0  0
   -2.8350    0.5610   -0.2700 C   0  0  0  0  0  0  0  0  0  0  0  0
   -4.1310    0.9550   -0.2250 O   0  0  0  0  0  0  0  0  0  0  0  0
   -5.2270    0.1050   -0.3610 C   0  0  2  0  0  0  0  0  0  0  0  0
   -5.9620    0.5360   -1.6190 C   0  0  0  0  0  0  0  0  0  0  0  0
   -7.3890    0.9120   -1.2100 C   0  0  0  0  0  0  0  0  0  0  0  0
   -7.2700    2.0190   -0.2800 N   0  0  0  0  0  0  0  0  0  0  0  0
   -6.8350    1.4700    0.9920 C   0  0  0  0  0  0  0  0  0  0  0  0
   -6.1500    0.1560    0.8460 C   0  0  0  0  0  0  0  0  0  0  0  0
   -1.8580    1.5200   -0.1180 C   0  0  0  0  0  0  0  0  0  0  0  0
   -0.4920    1.1980   -0.1520 C   0  0  0  0  0  0  0  0  0  0  0  0
   -0.1160   -0.0990   -0.3410 C   0  0  0  0  0  0  0  0  0  0  0  0
    1.3050   -0.4980   -0.3860 C   0  0  0  0  0  0  0  0  0  0  0  0
    2.1300    0.6730   -0.2070 N   0  0  0  0  0  0  0  0  0  0  0  0
    3.5520    0.3690   -0.3120 C   0  0  2  0  0  0  0  0  0  0  0  0
    4.0040   -0.6270    0.7320 C   0  0  0  0  0  0  0  0  0  0  0  0
    5.4270   -1.0370    0.3430 C   0  0  0  0  0  0  0  0  0  0  0  0
    6.2840    0.1220   -0.0400 C   0  0  0  0  0  0  0  0  0  0  0  0
    5.7270    1.4500    0.3520 C   0  0  1  0  0  0  0  0  0  0  0  0
    6.5750    2.5200   -0.3440 C   0  0  0  0  0  0  0  0  0  0  0  0
    7.9560    2.4480    0.0440 N   0  0  0  0  0  0  0  0  0  0  0  0
    4.3070    1.6580   -0.0560 C   0  0  0  0  0  0  0  0  0  0  0  0
  1  2  1  0
  2  3  1  0
  2  4  1  0
  4  5  2  0
  4  6  1  0
  6  7  2  0
  6 18  1  0
  7  8  1  0
  8  9  1  0
  8 16  2  0
 10  9  1  1
 10 11  1  0
 10 15  1  0
 11 12  1  0
 12 13  1  0
 13 14  1  0
 14 15  1  0
 16 17  1  0
 17 18  2  0
 18 19  1  0
 19 20  1  0
 21 20  1  1
 21 22  1  0
 21 28  1  0
 22 23  1  0
 23 24  1  0
 24 25  1  0
 25 26  1  6
 25 28  1  0
 26 27  1  0
M  CHG  2  13   1  20   1
M  END
