
     RDKit          3D

 28 31  0  0  0  0  0  0  0  0999 V2000
    7.9680   -2.4980   -1.5520 C   0  0  0  0  0  0  0  0  0  0  0  0
    6.7140   -1.7450   -1.4880 N   0  0  0  0  0  0  0  0  0  0  0  0
    5.7130   -2.0470   -0.5240 C   0  0  0  0  0  0  0  0  0  0  0  0
    5.9440   -2.9890    0.2760 O   0  0  0  0  0  0  0  0  0  0  0  0
    4.4400   -1.3020   -0.4390 C   0  0  1  0  0  0  0  0  0  0  0  0
    3.5960   -1.8480    0.6720 C   0  0  0  0  0  0  0  0  0  0  0  0
    2.2160   -1.2240    0.5650 C   0  0  0  0  0  0  0  0  0  0  0  0
    2.2950    0.2780    0.4330 C   0  0  1  0  0  0  0  0  0  0  0  0
    1.2750    0.9320    1.2600 N   0  0  0  0  0  0  0  0  0  0  0  0
   -0.0440    0.6520    0.8280 C   0  0  0  0  0  0  0  0  0  0  0  0
   -0.9070    1.8220    0.5050 C   0  0  2  0  0  0  0  0  0  0  0  0
   -2.1990    1.3190    0.0890 N   0  0  0  0  0  0  0  0  0  0  0  0
   -3.0570    0.5560    0.8980 C   0  0  0  0  0  0  0  0  0  0  0  0
   -2.7290    0.2630    2.0780 O   0  0  0  0  0  0  0  0  0  0  0  0
   -4.3450    0.1020    0.3510 C   0  0  1  0  0  0  0  0  0  0  0  0
   -4.2160   -0.7120   -0.9070 C   0  0  0  0  0  0  0  0  0  0  0  0
   -5.4330   -1.5600   -0.8670 C   0  0  0  0  0  0  0  0  0  0  0  0
   -6.1900   -2.3320   -1.6250 C   0  0  0  0  0  0  0  0  0  0  0  0
   -7.3120   -2.8680   -0.8000 C   0  0  0  0  0  0  0  0  0  0  0  0
   -7.0330   -2.2570    0.5260 C   0  0  0  0  0  0  0  0  0  0  0  0
   -5.9460   -1.5030    0.4800 C   0  0  0  0  0  0  0  0  0  0  0  0
   -5.1230   -0.6660    1.2960 N   0  0  0  0  0  0  0  0  0  0  0  0
   -0.3550    2.6490   -0.6340 C   0  0  0  0  0  0  0  0  0  0  0  0
   -0.0550    4.0200   -0.1040 C   0  0  0  0  0  0  0  0  0  0  0  0
   -1.1660    4.1780    0.9310 C   0  0  0  0  0  0  0  0  0  0  0  0
   -1.0700    2.8130    1.6170 C   0  0  0  0  0  0  0  0  0  0  0  0
    3.6850    0.7170    0.8480 C   0  0  0  0  0  0  0  0  0  0  0  0
    4.6470    0.1740   -0.1790 C   0  0  0  0  0  0  0  0  0  0  0  0
  1  2  1  0
  2  3  1  0
  3  4  2  0
  5  3  1  1
  5  6  1  0
  5 28  1  0
  6  7  1  0
  7  8  1  0
  8  9  1  1
  8 27  1  0
  9 10  1  0
 11 10  1  1
 11 12  1  0
 11 23  1  0
 11 26  1  0
 12 13  1  0
 13 14  2  0
 15 13  1  1
 15 16  1  0
 15 22  1  0
 16 17  1  0
 17 18  2  0
 17 21  1  0
 18 19  1  0
 19 20  1  0
 20 21  2  0
 21 22  1  0
 23 24  1  0
 24 25  1  0
 25 26  1  0
 27 28  1  0
M  CHG  2   9   1  22   1
M  END
