
     RDKit          3D

  7  6  0  0  0  0  0  0  0  0999 V2000
   -1.3670    0.1770    0.5430 C   0  0  0  0  0  0  0  0  0  0  0  0
   -0.6370   -0.0040   -0.5190 C   0  0  0  0  0  0  0  0  0  0  0  0
   -1.2240   -0.0950   -1.7780 O   0  0  0  0  0  0  0  0  0  0  0  0
    0.8060   -0.1140   -0.4060 C   0  0  0  0  0  0  0  0  0  0  0  0
    1.4880   -0.2870   -1.4300 O   0  0  0  0  0  0  0  0  0  0  0  0
    1.4670   -0.0330    0.8190 O   0  0  0  0  0  0  0  0  0  0  0  0
    2.8010   -0.1450    0.8370 O   0  0  0  0  0  0  0  0  0  0  0  0
  1  2  2  0
  2  3  1  0
  2  4  1  0
  4  5  2  0
  4  6  1  0
  6  7  1  0
M  CHG  2   3  -1   7  -1
M  END
