
     RDKit          3D

 12 12  0  0  0  0  0  0  0  0999 V2000
    2.7460   -1.0780   -0.8700 N   0  0  0  0  0  0  0  0  0  0  0  0
    2.1800   -0.8480    0.4080 C   0  0  0  0  0  0  0  0  0  0  0  0
    2.4700   -1.8910    1.6390 S   0  0  0  0  0  0  0  0  0  0  0  0
    1.3780    0.2540    0.6320 O   0  0  0  0  0  0  0  0  0  0  0  0
    0.0860    0.3950    0.0850 C   0  0  2  0  0  0  0  0  0  0  0  0
   -0.4960    1.7090    0.5340 C   0  0  0  0  0  0  0  0  0  0  0  0
    0.3220    2.8110    0.0940 N   0  0  0  0  0  0  0  0  0  0  0  0
   -0.8110   -0.7410    0.5250 C   0  0  1  0  0  0  0  0  0  0  0  0
   -2.1690   -0.6820   -0.1100 C   0  0  0  0  0  0  0  0  0  0  0  0
   -2.4730   -2.0460   -0.2310 O   0  0  0  0  0  0  0  0  0  0  0  0
   -1.3090   -2.6810   -0.4000 N   0  0  0  0  0  0  0  0  0  0  0  0
   -0.3320   -1.9670    0.1310 O   0  0  0  0  0  0  0  0  0  0  0  0
  1  2  1  0
  2  3  2  0
  2  4  1  0
  4  5  1  0
  5  6  1  1
  5  8  1  0
  6  7  1  0
  8  9  1  6
  8 12  1  0
  9 10  1  0
 10 11  1  0
 11 12  1  0
M  CHG  1   7   1
M  END
