
     RDKit          3D

 19 21  0  0  0  0  0  0  0  0999 V2000
    4.0460    0.7330    1.4840 O   0  0  0  0  0  0  0  0  0  0  0  0
    4.0930    0.9660    0.2280 C   0  0  0  0  0  0  0  0  0  0  0  0
    4.6350    2.1900   -0.1380 O   0  0  0  0  0  0  0  0  0  0  0  0
    3.5850   -0.0510   -0.7080 C   0  0  0  0  0  0  0  0  0  0  0  0
    2.0830   -0.0140   -0.8720 C   0  0  0  0  0  0  0  0  0  0  0  0
    1.3840   -0.2390    0.4400 C   0  0  0  0  0  0  0  0  0  0  0  0
   -0.0560   -0.2190    0.3030 N   0  0  0  0  0  0  0  0  0  0  0  0
   -0.8270   -1.2910    0.0560 C   0  0  0  0  0  0  0  0  0  0  0  0
   -0.5210   -2.6460   -0.1260 C   0  0  0  0  0  0  0  0  0  0  0  0
   -1.5140   -3.5680   -0.3730 C   0  0  0  0  0  0  0  0  0  0  0  0
   -2.8220   -3.1780   -0.4440 C   0  0  0  0  0  0  0  0  0  0  0  0
   -3.1170   -1.8300   -0.2610 C   0  0  0  0  0  0  0  0  0  0  0  0
   -2.1290   -0.9000   -0.0140 C   0  0  0  0  0  0  0  0  0  0  0  0
   -2.1880    0.4480    0.1920 C   0  0  0  0  0  0  0  0  0  0  0  0
   -3.2310    1.3570    0.2250 C   0  0  0  0  0  0  0  0  0  0  0  0
   -2.9800    2.6810    0.4560 C   0  0  0  0  0  0  0  0  0  0  0  0
   -1.6910    3.1060    0.6530 C   0  0  0  0  0  0  0  0  0  0  0  0
   -0.6790    2.2010    0.6170 C   0  0  0  0  0  0  0  0  0  0  0  0
   -0.8620    0.8440    0.3890 C   0  0  0  0  0  0  0  0  0  0  0  0
  1  2  2  0
  2  3  1  0
  2  4  1  0
  4  5  1  0
  5  6  1  0
  6  7  1  0
  7  8  1  0
  7 19  1  0
  8  9  2  0
  8 13  1  0
  9 10  1  0
 10 11  2  0
 11 12  1  0
 12 13  2  0
 13 14  1  0
 14 15  2  0
 14 19  1  0
 15 16  1  0
 16 17  2  0
 17 18  1  0
 18 19  2  0
M  END
