
     RDKit          3D

 12 12  0  0  0  0  0  0  0  0999 V2000
   -2.3850   -0.9930    0.0770 C   0  0  0  0  0  0  0  0  0  0  0  0
   -1.3430    0.0690   -0.2860 C   0  0  2  0  0  0  0  0  0  0  0  0
   -2.1700    1.4850   -1.1010 S   0  0  0  0  0  0  0  0  0  0  0  0
   -3.2060    2.2870    0.0080 O   0  0  0  0  0  0  0  0  0  0  0  0
   -0.3780   -0.5080   -1.1820 N   0  0  0  0  0  0  0  0  0  0  0  0
    0.9880   -0.6200   -0.9190 N   0  0  0  0  0  0  0  0  0  0  0  0
    1.5210   -0.1930    0.1750 C   0  0  0  0  0  0  0  0  0  0  0  0
    2.9750   -0.3370    0.4040 C   0  0  0  0  0  0  0  0  0  0  0  0
    3.5390   -0.9530   -0.7010 O   0  0  0  0  0  0  0  0  0  0  0  0
    0.7160    0.4250    1.1820 N   0  0  0  0  0  0  0  0  0  0  0  0
   -0.6770    0.5520    0.9410 C   0  0  0  0  0  0  0  0  0  0  0  0
   -1.3720    1.1100    1.8350 O   0  0  0  0  0  0  0  0  0  0  0  0
  2  1  1  1
  2  3  1  0
  2  5  1  0
  2 11  1  0
  3  4  1  0
  5  6  1  0
  6  7  2  0
  7  8  1  0
  7 10  1  0
  8  9  1  0
 10 11  1  0
 11 12  2  0
M  CHG  1   6   1
M  END
