
     RDKit          3D

  7  6  0  0  0  0  0  0  0  0999 V2000
   -1.1770   -1.9300    1.1430 N   0  0  0  0  0  0  0  0  0  0  0  0
   -0.9190   -0.8270    0.9200 C   0  0  0  0  0  0  0  0  0  0  0  0
   -0.5710    0.5650    0.6400 C   0  0  0  0  0  0  0  0  0  0  0  0
   -0.0960    0.6760   -0.6880 O   0  0  0  0  0  0  0  0  0  0  0  0
    1.0130    0.0020   -1.1670 C   0  0  0  0  0  0  0  0  0  0  0  0
    1.6480   -0.7530   -0.4000 O   0  0  0  0  0  0  0  0  0  0  0  0
    1.4320    0.1490   -2.4790 O   0  0  0  0  0  0  0  0  0  0  0  0
  1  2  3  0
  2  3  1  0
  3  4  1  0
  4  5  1  0
  5  6  2  0
  5  7  1  0
M  CHG  1   7  -1
M  END
