
     RDKit          3D

 12 12  0  0  0  0  0  0  0  0999 V2000
   -3.6000    0.8050   -0.6380 N   0  0  0  0  0  0  0  0  0  0  0  0
   -2.7060    0.2580    0.3340 C   0  0  0  0  0  0  0  0  0  0  0  0
   -1.2810    0.4390    0.0530 C   0  0  1  0  0  0  0  0  0  0  0  0
   -0.4320   -0.1420    1.0860 O   0  0  0  0  0  0  0  0  0  0  0  0
    0.9040    0.2060    0.9340 N   0  0  0  0  0  0  0  0  0  0  0  0
    1.5010   -0.4880   -0.0620 C   0  0  0  0  0  0  0  0  0  0  0  0
    2.7950   -0.0100   -0.0890 N   0  0  0  0  0  0  0  0  0  0  0  0
    3.6660   -0.1000   -1.1710 C   0  0  0  0  0  0  0  0  0  0  0  0
    3.1000   -0.6280   -2.1440 O   0  0  0  0  0  0  0  0  0  0  0  0
    4.9440    0.3180   -1.2100 O   0  0  0  0  0  0  0  0  0  0  0  0
    0.6350   -1.5450   -0.5720 C   0  0  0  0  0  0  0  0  0  0  0  0
   -0.7420   -0.5830   -1.4080 S   0  0  0  0  0  0  0  0  0  0  0  0
  1  2  1  0
  3  2  1  1
  3  4  1  0
  3 12  1  0
  4  5  1  0
  5  6  2  0
  6  7  1  0
  6 11  1  0
  7  8  1  0
  8  9  2  0
  8 10  1  0
 11 12  1  0
M  CHG  1   1   1
M  END
