
     RDKit          3D

  6  5  0  0  0  0  0  0  0  0999 V2000
    1.3060    1.4280    0.3920 O   0  0  0  0  0  0  0  0  0  0  0  0
    1.3450    0.0590    0.2380 C   0  0  0  0  0  0  0  0  0  0  0  0
    0.2270   -0.5820    0.0060 C   0  0  0  0  0  0  0  0  0  0  0  0
   -1.0810    0.1650   -0.0920 C   0  0  2  0  0  0  0  0  0  0  0  0
   -1.9460   -0.6220   -0.8490 O   0  0  0  0  0  0  0  0  0  0  0  0
   -0.8310    1.3560   -0.7920 O   0  0  0  0  0  0  0  0  0  0  0  0
  1  2  1  0
  2  3  2  3
  3  4  1  0
  4  5  1  6
  4  6  1  0
M  CHG  3   1  -1   5  -1   6  -1
M  END
