
     RDKit          3D

  7  6  0  0  0  0  0  0  0  0999 V2000
    1.3470    1.2950   -0.8000 O   0  0  0  0  0  0  0  0  0  0  0  0
    1.8420    0.2760   -0.2420 C   0  0  0  0  0  0  0  0  0  0  0  0
    3.1950    0.1670    0.0600 O   0  0  0  0  0  0  0  0  0  0  0  0
    0.9770   -0.7440    0.0620 O   0  0  0  0  0  0  0  0  0  0  0  0
   -0.3910   -0.7590   -0.1860 C   0  0  0  0  0  0  0  0  0  0  0  0
   -1.1570    0.3450    0.4900 C   0  0  0  0  0  0  0  0  0  0  0  0
   -2.5130    0.1650    0.1230 O   0  0  0  0  0  0  0  0  0  0  0  0
  1  2  2  0
  2  3  1  0
  2  4  1  0
  4  5  1  0
  5  6  1  0
  6  7  1  0
M  CHG  2   3  -1   7  -1
M  END
