
     RDKit          3D

 43 45  0  0  0  0  0  0  0  0999 V2000
    1.4220   -2.8910    0.7280 C   0  0  0  0  0  0  0  0  0  0  0  0
    1.1820   -1.6450   -0.1010 C   0  0  1  0  0  0  0  0  0  0  0  0
    2.1600   -1.7420   -1.2560 C   0  0  0  0  0  0  0  0  0  0  0  0
    3.5680   -2.1150   -0.8350 C   0  0  0  0  0  0  0  0  0  0  0  0
    4.2870   -0.8920   -0.5320 N   0  0  0  0  0  0  0  0  0  0  0  0
    5.7060   -0.9400   -0.7440 C   0  0  0  0  0  0  0  0  0  0  0  0
    6.3330   -1.4160    0.5730 C   0  0  0  0  0  0  0  0  0  0  0  0
    7.8410   -1.5040    0.4580 C   0  0  0  0  0  0  0  0  0  0  0  0
    8.2190   -2.4050   -0.5440 O   0  0  0  0  0  0  0  0  0  0  0  0
    9.5360   -2.4200   -0.5760 O   0  0  0  0  0  0  0  0  0  0  0  0
    3.7240    0.3280   -0.0500 C   0  0  0  0  0  0  0  0  0  0  0  0
    4.5400    1.2630    0.0400 O   0  0  0  0  0  0  0  0  0  0  0  0
    2.3260    0.6130    0.3470 N   0  0  0  0  0  0  0  0  0  0  0  0
    2.1580    2.0270    0.1920 C   0  0  0  0  0  0  0  0  0  0  0  0
    0.8400    2.4670   -0.4090 C   0  0  2  0  0  0  0  0  0  0  0  0
    1.0230    3.8650   -0.8020 N   0  0  0  0  0  0  0  0  0  0  0  0
    0.8180    4.3220   -2.1270 C   0  0  0  0  0  0  0  0  0  0  0  0
    0.4650    3.4790   -2.9860 O   0  0  0  0  0  0  0  0  0  0  0  0
    0.9890    5.6480   -2.5170 O   0  0  0  0  0  0  0  0  0  0  0  0
   -0.1840    2.4790    0.7090 C   0  0  0  0  0  0  0  0  0  0  0  0
   -1.2490    3.5430    0.4500 C   0  0  0  0  0  0  0  0  0  0  0  0
   -2.4340    3.2670    1.3510 C   0  0  0  0  0  0  0  0  0  0  0  0
   -3.2700    2.3410    0.7340 O   0  0  0  0  0  0  0  0  0  0  0  0
   -4.5720    2.8320    0.6980 C   0  0  0  0  0  0  0  0  0  0  0  0
   -5.6050    1.7660    0.8640 C   0  0  0  0  0  0  0  0  0  0  0  0
   -6.0340    1.2740   -0.4140 N   0  0  0  0  0  0  0  0  0  0  0  0
   -6.2260   -0.1040   -0.6740 C   0  0  0  0  0  0  0  0  0  0  0  0
   -7.1780   -0.5070   -1.4170 O   0  0  0  0  0  0  0  0  0  0  0  0
   -5.3590   -1.1240   -0.1140 C   0  0  0  0  0  0  0  0  0  0  0  0
   -4.0870   -0.9040    0.0820 O   0  0  0  0  0  0  0  0  0  0  0  0
   -3.4910   -1.9160    0.5800 N   0  0  0  0  0  0  0  0  0  0  0  0
   -4.3690   -2.8910    0.7450 C   0  0  0  0  0  0  0  0  0  0  0  0
   -4.1390   -4.0310    1.2100 O   0  0  0  0  0  0  0  0  0  0  0  0
   -5.5890   -2.4330    0.3130 C   0  0  0  0  0  0  0  0  0  0  0  0
   -6.8560   -3.1000    0.2800 N   0  0  0  0  0  0  0  0  0  0  0  0
   -7.2720   -3.8570   -0.8640 C   0  0  0  0  0  0  0  0  0  0  0  0
   -6.5190   -3.9450   -1.8640 O   0  0  0  0  0  0  0  0  0  0  0  0
   -2.0450   -1.7700    0.8360 C   0  0  0  0  0  0  0  0  0  0  0  0
   -1.2720   -2.0840   -0.3910 C   0  0  0  0  0  0  0  0  0  0  0  0
   -1.8340   -2.9260   -1.1780 O   0  0  0  0  0  0  0  0  0  0  0  0
   -0.0800   -1.5250   -0.6450 O   0  0  0  0  0  0  0  0  0  0  0  0
    1.4580   -0.4140    0.7550 C   0  0  0  0  0  0  0  0  0  0  0  0
    0.7900   -0.5310    1.8090 O   0  0  0  0  0  0  0  0  0  0  0  0
  2  1  1  1
  2  3  1  0
  2 41  1  0
  2 42  1  0
  3  4  1  0
  4  5  1  0
  5  6  1  0
  5 11  1  0
  6  7  1  0
  7  8  1  0
  8  9  1  0
  9 10  1  0
 11 12  2  0
 11 13  1  0
 13 14  1  0
 13 42  1  0
 14 15  1  0
 15 16  1  1
 15 20  1  0
 16 17  1  0
 17 18  2  0
 17 19  1  0
 20 21  1  0
 21 22  1  0
 22 23  1  0
 23 24  1  0
 24 25  1  0
 25 26  1  0
 26 27  1  0
 27 28  2  0
 27 29  1  0
 29 30  1  0
 29 34  2  0
 30 31  1  0
 31 32  1  0
 31 38  1  0
 32 33  2  0
 32 34  1  0
 34 35  1  0
 35 36  1  0
 36 37  2  0
 38 39  1  0
 39 40  2  0
 39 41  1  0
 42 43  2  0
M  END
