
     RDKit          3D

 44 48  0  0  0  0  0  0  0  0999 V2000
    3.8460    0.7670    1.0360 C   0  0  0  0  0  0  0  0  0  0  0  0
    3.3950    0.8440   -0.3900 C   0  0  1  0  0  0  0  0  0  0  0  0
    4.4560    0.8390   -1.4240 C   0  0  0  0  0  0  0  0  0  0  0  0
    5.1440   -0.3220   -1.5640 O   0  0  0  0  0  0  0  0  0  0  0  0
    6.0030   -0.9900   -0.7700 C   0  0  0  0  0  0  0  0  0  0  0  0
    6.3350   -0.5630    0.3590 O   0  0  0  0  0  0  0  0  0  0  0  0
    6.5310   -2.2070   -1.2460 O   0  0  0  0  0  0  0  0  0  0  0  0
    2.2950   -0.1510   -0.6530 C   0  0  0  0  0  0  0  0  0  0  0  0
    2.4830   -1.5530   -0.2520 C   0  0  0  0  0  0  0  0  0  0  0  0
    1.4200   -2.0990    0.5560 N   0  0  0  0  0  0  0  0  0  0  0  0
    1.7040   -3.2620    1.3180 C   0  0  0  0  0  0  0  0  0  0  0  0
    2.8850   -3.7390    1.2280 O   0  0  0  0  0  0  0  0  0  0  0  0
    0.7990   -3.9120    2.1470 O   0  0  0  0  0  0  0  0  0  0  0  0
    0.0560   -1.5540    0.6620 C   0  0  2  0  0  0  0  0  0  0  0  0
   -0.1330   -1.3060    2.1160 C   0  0  0  0  0  0  0  0  0  0  0  0
   -0.4150    0.0600    2.5810 C   0  0  0  0  0  0  0  0  0  0  0  0
    0.5710    1.0340    2.4200 O   0  0  0  0  0  0  0  0  0  0  0  0
    0.3260    2.3590    1.9880 C   0  0  0  0  0  0  0  0  0  0  0  0
    1.0370    3.2730    2.4530 O   0  0  0  0  0  0  0  0  0  0  0  0
   -0.7190    2.6790    1.0320 C   0  0  0  0  0  0  0  0  0  0  0  0
   -0.8360    2.1640   -0.1790 C   0  0  0  0  0  0  0  0  0  0  0  0
    0.2540    1.8630   -1.0760 N   0  0  0  0  0  0  0  0  0  0  0  0
    1.5480    2.3770   -1.1860 C   0  0  0  0  0  0  0  0  0  0  0  0
    1.7820    3.2440   -2.1760 O   0  0  0  0  0  0  0  0  0  0  0  0
    2.6800    2.1410   -0.4270 O   0  0  0  0  0  0  0  0  0  0  0  0
   -2.3030    2.0840   -0.3910 C   0  0  2  0  0  0  0  0  0  0  0  0
   -2.7150    1.7120   -1.7010 C   0  0  0  0  0  0  0  0  0  0  0  0
   -2.8530    2.5360   -2.6250 O   0  0  0  0  0  0  0  0  0  0  0  0
   -2.9650    0.3720   -1.9320 O   0  0  0  0  0  0  0  0  0  0  0  0
   -3.7560   -0.5230   -1.2670 C   0  0  1  0  0  0  0  0  0  0  0  0
   -5.0130    0.1970   -0.7580 C   0  0  0  0  0  0  0  0  0  0  0  0
   -4.3160   -1.4890   -2.3180 C   0  0  0  0  0  0  0  0  0  0  0  0
   -3.4590   -2.5530   -2.5540 O   0  0  0  0  0  0  0  0  0  0  0  0
   -2.3330   -2.8160   -1.8320 C   0  0  0  0  0  0  0  0  0  0  0  0
   -1.5070   -3.6230   -2.3260 O   0  0  0  0  0  0  0  0  0  0  0  0
   -2.0840   -2.1810   -0.5180 N   0  0  0  0  0  0  0  0  0  0  0  0
   -0.8590   -2.6100    0.0720 C   0  0  0  0  0  0  0  0  0  0  0  0
   -3.1180   -1.3250   -0.1590 C   0  0  0  0  0  0  0  0  0  0  0  0
   -3.6620   -1.0740    0.9650 O   0  0  0  0  0  0  0  0  0  0  0  0
   -2.7400    3.3940    0.1380 N   0  0  0  0  0  0  0  0  0  0  0  0
   -3.6830    4.3210    0.1180 C   0  0  0  0  0  0  0  0  0  0  0  0
   -3.4880    5.0510    1.2360 N   0  0  0  0  0  0  0  0  0  0  0  0
   -2.4330    4.5730    1.9220 N   0  0  0  0  0  0  0  0  0  0  0  0
   -1.9560    3.5100    1.1950 C   0  0  0  0  0  0  0  0  0  0  0  0
  2  1  1  1
  2  3  1  0
  2  8  1  0
  2 25  1  0
  3  4  1  0
  4  5  1  0
  5  6  2  0
  5  7  1  0
  8  9  1  0
  9 10  1  0
 10 11  1  0
 10 14  1  0
 11 12  2  0
 11 13  1  0
 14 15  1  0
 14 37  1  1
 15 16  1  0
 16 17  1  0
 17 18  1  0
 18 19  2  0
 18 20  1  0
 20 21  2  0
 20 44  1  0
 21 22  1  0
 21 26  1  0
 22 23  1  0
 23 24  2  0
 23 25  1  0
 26 27  1  0
 26 40  1  6
 27 28  2  0
 27 29  1  0
 29 30  1  0
 30 31  1  1
 30 32  1  0
 30 38  1  0
 32 33  1  0
 33 34  1  0
 34 35  2  0
 34 36  1  0
 36 37  1  0
 36 38  1  0
 38 39  2  0
 40 41  1  0
 40 44  1  0
 41 42  2  0
 42 43  1  0
 43 44  2  0
M  END
