
     RDKit          3D

 43 46  0  0  0  0  0  0  0  0999 V2000
   -5.9960   -4.2470    0.4470 C   0  0  0  0  0  0  0  0  0  0  0  0
   -5.4750   -3.0650    1.0260 O   0  0  0  0  0  0  0  0  0  0  0  0
   -5.0820   -2.0130    0.2030 C   0  0  0  0  0  0  0  0  0  0  0  0
   -5.2050   -2.1320   -1.1650 C   0  0  0  0  0  0  0  0  0  0  0  0
   -4.8190   -1.0950   -1.9890 C   0  0  0  0  0  0  0  0  0  0  0  0
   -4.2980    0.0920   -1.4560 C   0  0  0  0  0  0  0  0  0  0  0  0
   -4.1730    0.2170   -0.0960 C   0  0  0  0  0  0  0  0  0  0  0  0
   -3.6410    1.4240    0.5030 C   0  0  0  0  0  0  0  0  0  0  0  0
   -2.1430    1.4360    0.7010 C   0  0  2  0  0  0  0  0  0  0  0  0
   -1.9300    2.8230    1.3380 C   0  0  0  0  0  0  0  0  0  0  0  0
   -1.3820    3.0500    2.4140 N   0  0  0  0  0  0  0  0  0  0  0  0
   -0.7750    2.3250    3.4260 C   0  0  0  0  0  0  0  0  0  0  0  0
    0.4830    2.1370    3.5620 N   0  0  0  0  0  0  0  0  0  0  0  0
    1.6630    2.4280    2.9980 C   0  0  0  0  0  0  0  0  0  0  0  0
    2.3390    3.4750    3.3550 O   0  0  0  0  0  0  0  0  0  0  0  0
    2.3070    1.6970    2.0050 O   0  0  0  0  0  0  0  0  0  0  0  0
    1.7660    1.1990    0.8340 C   0  0  0  0  0  0  0  0  0  0  0  0
    2.5280    0.1290    0.1780 C   0  0  1  0  0  0  0  0  0  0  0  0
    3.6700   -0.2060    0.8870 O   0  0  0  0  0  0  0  0  0  0  0  0
    3.5520   -0.7670    2.1010 C   0  0  0  0  0  0  0  0  0  0  0  0
    4.9670   -1.0490    2.6520 C   0  0  0  0  0  0  0  0  0  0  0  0
    5.6430   -1.9160    1.7960 O   0  0  0  0  0  0  0  0  0  0  0  0
    6.8430   -2.1920    2.2080 O   0  0  0  0  0  0  0  0  0  0  0  0
    7.7700   -1.4930    1.5750 O   0  0  0  0  0  0  0  0  0  0  0  0
    1.8110   -1.0860    0.0460 O   0  0  0  0  0  0  0  0  0  0  0  0
    2.2810   -2.2320   -0.4990 C   0  0  0  0  0  0  0  0  0  0  0  0
    3.4380   -2.2790   -0.9330 O   0  0  0  0  0  0  0  0  0  0  0  0
    1.5100   -3.4030   -0.6020 O   0  0  0  0  0  0  0  0  0  0  0  0
    2.9880    0.6210   -1.1760 C   0  0  0  0  0  0  0  0  0  0  0  0
    4.0680    1.3380   -1.0130 O   0  0  0  0  0  0  0  0  0  0  0  0
    2.5170    0.4690   -2.4780 N   0  0  0  0  0  0  0  0  0  0  0  0
    3.4260   -0.2250   -3.4290 C   0  0  0  0  0  0  0  0  0  0  0  0
    1.2690    0.9360   -3.0650 C   0  0  0  0  0  0  0  0  0  0  0  0
    1.1590    0.9540   -4.3390 O   0  0  0  0  0  0  0  0  0  0  0  0
    0.0700    1.4200   -2.3140 C   0  0  0  0  0  0  0  0  0  0  0  0
   -0.5350    0.8560   -1.2910 C   0  0  0  0  0  0  0  0  0  0  0  0
   -1.4170    1.6540   -0.5080 N   0  0  0  0  0  0  0  0  0  0  0  0
   -1.7010    3.0480   -0.8130 C   0  0  0  0  0  0  0  0  0  0  0  0
   -2.4550    3.5520    0.1880 N   0  0  0  0  0  0  0  0  0  0  0  0
   -1.1010    3.6780   -1.9330 N   0  0  0  0  0  0  0  0  0  0  0  0
   -0.2150    2.8540   -2.6750 C   0  0  0  0  0  0  0  0  0  0  0  0
    0.3370    3.4020   -3.6910 O   0  0  0  0  0  0  0  0  0  0  0  0
   -4.5670   -0.8350    0.6940 C   0  0  0  0  0  0  0  0  0  0  0  0
  1  2  1  0
  2  3  1  0
  3  4  2  0
  3 43  1  0
  4  5  1  0
  5  6  2  0
  6  7  1  0
  7  8  1  0
  7 43  2  0
  9  8  1  6
  9 10  1  0
  9 37  1  0
 10 11  2  0
 10 39  1  0
 11 12  1  0
 12 13  2  0
 13 14  1  0
 14 15  2  0
 14 16  1  0
 16 17  1  0
 17 18  1  0
 18 19  1  1
 18 25  1  0
 18 29  1  0
 19 20  1  0
 20 21  1  0
 21 22  1  0
 22 23  1  0
 23 24  1  0
 25 26  1  0
 26 27  2  0
 26 28  1  0
 29 30  2  0
 29 31  1  0
 31 32  1  0
 31 33  1  0
 33 34  2  0
 33 35  1  0
 35 36  2  0
 35 41  1  0
 36 37  1  0
 37 38  1  0
 38 39  2  0
 38 40  1  0
 40 41  1  0
 41 42  2  0
M  END
