
     RDKit          3D

 13 13  0  0  0  0  0  0  0  0999 V2000
    4.5650    0.7460   -1.6840 O   0  0  0  0  0  0  0  0  0  0  0  0
    4.0820   -0.3450   -0.4340 P   0  0  0  0  0  0  0  0  0  0  0  0
    5.2490   -0.5010    0.8170 O   0  0  0  0  0  0  0  0  0  0  0  0
    2.4050    0.1490    0.2290 C   0  0  0  0  0  0  0  0  0  0  0  0
    1.5380    0.4630   -0.9540 C   0  0  0  0  0  0  0  0  0  0  0  0
    0.2260    0.8670   -0.5440 N   0  0  0  0  0  0  0  0  0  0  0  0
   -0.4750   -0.2550    0.0300 C   0  0  0  0  0  0  0  0  0  0  0  0
   -1.8630    0.1990    0.4480 C   0  0  2  0  0  0  0  0  0  0  0  0
   -2.6880   -0.9700    0.9270 C   0  0  0  0  0  0  0  0  0  0  0  0
   -4.0380   -0.9930    0.2410 C   0  0  0  0  0  0  0  0  0  0  0  0
   -4.5440    0.2660   -0.0110 O   0  0  0  0  0  0  0  0  0  0  0  0
   -3.6740    1.1480   -0.4120 O   0  0  0  0  0  0  0  0  0  0  0  0
   -2.4940    0.6560   -0.7180 O   0  0  0  0  0  0  0  0  0  0  0  0
  1  2  1  0
  2  3  1  0
  2  4  1  0
  4  5  1  0
  5  6  1  0
  6  7  1  0
  8  7  1  6
  8  9  1  0
  8 13  1  0
  9 10  1  0
 10 11  1  0
 11 12  1  0
 12 13  1  0
M  END
