
     RDKit          3D

 21 22  0  0  0  0  0  0  0  0999 V2000
    4.8400    0.7850    0.2000 C   0  0  0  0  0  0  0  0  0  0  0  0
    3.7190   -0.1430    0.2090 N   0  0  0  0  0  0  0  0  0  0  0  0
    3.7380   -0.8410   -1.0650 C   0  0  0  0  0  0  0  0  0  0  0  0
    2.6000    0.5730    0.2740 O   0  0  0  0  0  0  0  0  0  0  0  0
    1.4560   -0.1220    0.5130 C   0  0  1  0  0  0  0  0  0  0  0  0
    0.6320    0.2770    1.6740 C   0  0  0  0  0  0  0  0  0  0  0  0
   -0.4420    1.1460    1.3060 N   0  0  0  0  0  0  0  0  0  0  0  0
    0.0230    2.4140    0.8710 C   0  0  0  0  0  0  0  0  0  0  0  0
    0.8280    2.4140   -0.2540 O   0  0  0  0  0  0  0  0  0  0  0  0
   -1.2310    0.4530    0.2910 C   0  0  2  0  0  0  0  0  0  0  0  0
   -2.2300    1.3030   -0.3370 C   0  0  0  0  0  0  0  0  0  0  0  0
   -3.5620    0.7260   -0.5010 C   0  0  0  0  0  0  0  0  0  0  0  0
   -4.5640    1.5470   -1.1380 N   0  0  0  0  0  0  0  0  0  0  0  0
   -3.8490   -0.4820   -0.0940 C   0  0  0  0  0  0  0  0  0  0  0  0
   -2.8050   -1.2990    0.5500 C   0  0  0  0  0  0  0  0  0  0  0  0
   -3.1510   -2.6450    1.0010 C   0  0  0  0  0  0  0  0  0  0  0  0
   -4.2960   -3.1170    0.8570 O   0  0  0  0  0  0  0  0  0  0  0  0
   -1.6420   -0.8220    0.6970 N   0  0  0  0  0  0  0  0  0  0  0  0
    0.2400    0.1540   -0.9040 P   0  0  0  0  0  0  0  0  0  0  0  0
   -0.0640   -1.7830   -1.9010 P   0  0  0  0  0  0  0  0  0  0  0  0
    0.1950   -3.4020   -0.4480 P   0  0  0  0  0  0  0  0  0  0  0  0
  1  2  1  0
  2  3  1  0
  2  4  1  0
  5  4  1  6
  5  6  1  0
  5 19  1  0
  6  7  1  0
  7  8  1  0
  7 10  1  0
  8  9  1  0
 10 11  1  6
 10 18  1  0
 10 19  1  0
 11 12  1  0
 12 13  1  0
 12 14  2  0
 14 15  1  0
 15 16  1  0
 15 18  2  0
 16 17  2  0
 19 20  1  0
 20 21  1  0
M  END
