
     RDKit          3D

 21 23  0  0  0  0  0  0  0  0999 V2000
    2.9540   -1.7820    1.3260 C   0  0  0  0  0  0  0  0  0  0  0  0
    2.3290   -0.7780    0.7190 C   0  0  0  0  0  0  0  0  0  0  0  0
    2.2800    0.3850    1.4800 O   0  0  0  0  0  0  0  0  0  0  0  0
    0.7720    1.4270    1.5350 P   0  0  0  0  0  0  0  0  0  0  0  0
    1.2040    3.0680    1.3820 O   0  0  0  0  0  0  0  0  0  0  0  0
   -0.0580    0.7370    0.1480 N   0  0  0  0  0  0  0  0  0  0  0  0
   -1.2790    0.1500    0.3320 C   0  0  0  0  0  0  0  0  0  0  0  0
   -1.6120   -1.1080   -0.1510 C   0  0  0  0  0  0  0  0  0  0  0  0
   -3.0390   -1.3370    0.1210 C   0  0  0  0  0  0  0  0  0  0  0  0
   -3.5350   -0.1030    0.7790 C   0  0  0  0  0  0  0  0  0  0  0  0
   -2.3490    0.7480    1.1130 C   0  0  0  0  0  0  0  0  0  0  0  0
   -0.7180   -2.0280   -0.7920 N   0  0  0  0  0  0  0  0  0  0  0  0
    0.7030   -2.0520   -0.6880 C   0  0  0  0  0  0  0  0  0  0  0  0
    1.2090   -3.2460   -0.6200 O   0  0  0  0  0  0  0  0  0  0  0  0
    1.8040   -1.0620   -0.6350 C   0  0  2  0  0  0  0  0  0  0  0  0
    2.8010   -1.3290   -1.5610 N   0  0  0  0  0  0  0  0  0  0  0  0
    2.7300   -2.3400   -2.2270 O   0  0  0  0  0  0  0  0  0  0  0  0
    1.0090    0.5790   -1.3130 P   0  0  0  0  0  0  0  0  0  0  0  0
    2.2300    1.8220   -1.4150 N   0  0  0  0  0  0  0  0  0  0  0  0
    2.0920    3.0550   -1.2920 C   0  0  0  0  0  0  0  0  0  0  0  0
    1.8220    4.6480   -1.6790 P   0  0  0  0  0  0  0  0  0  0  0  0
  1  2  2  0
  2  3  1  0
  2 15  1  0
  3  4  1  0
  4  5  1  0
  4  6  1  0
  6  7  1  0
  6 18  1  0
  7  8  2  0
  7 11  1  0
  8  9  1  0
  8 12  1  0
  9 10  1  0
 10 11  1  0
 12 13  1  0
 13 14  2  0
 13 15  1  0
 15 16  1  6
 15 18  1  0
 16 17  2  0
 18 19  1  0
 19 20  2  0
 20 21  2  0
M  END
