
     RDKit          3D

 13 12  0  0  0  0  0  0  0  0999 V2000
   -4.7210   -0.5540   -0.3350 C   0  0  0  0  0  0  0  0  0  0  0  0
   -3.6390    0.3320   -0.3970 O   0  0  0  0  0  0  0  0  0  0  0  0
   -2.4030   -0.0390   -0.8460 C   0  0  0  0  0  0  0  0  0  0  0  0
   -2.1400   -1.1950   -1.2410 O   0  0  0  0  0  0  0  0  0  0  0  0
   -1.3200    0.9860   -0.8570 C   0  0  0  0  0  0  0  0  0  0  0  0
   -0.6080    0.7870    0.5050 C   0  0  2  0  0  0  0  0  0  0  0  0
    0.4130    1.7770    0.5230 O   0  0  0  0  0  0  0  0  0  0  0  0
   -0.0780   -0.5150    0.5890 N   0  0  0  0  0  0  0  0  0  0  0  0
    1.2800   -0.7590    0.8530 C   0  0  0  0  0  0  0  0  0  0  0  0
    2.2070   -0.3220   -0.2240 C   0  0  0  0  0  0  0  0  0  0  0  0
    4.0020   -0.7870    0.1790 P   0  0  0  0  0  0  0  0  0  0  0  0
    4.3760   -0.2750    1.7800 O   0  0  0  0  0  0  0  0  0  0  0  0
    5.0050    0.0450   -0.9480 O   0  0  0  0  0  0  0  0  0  0  0  0
  1  2  1  0
  2  3  1  0
  3  4  2  0
  3  5  1  0
  5  6  1  0
  6  7  1  6
  6  8  1  0
  8  9  1  0
  9 10  1  0
 10 11  1  0
 11 12  1  0
 11 13  1  0
M  END
