
     RDKit          3D

 13 12  0  0  0  0  0  0  0  0999 V2000
    4.1230   -1.9510    0.3950 C   0  0  0  0  0  0  0  0  0  0  0  0
    3.3600   -0.9040   -0.1820 O   0  0  0  0  0  0  0  0  0  0  0  0
    2.0910   -0.6740    0.2970 C   0  0  0  0  0  0  0  0  0  0  0  0
    1.6770   -1.4120    1.2060 O   0  0  0  0  0  0  0  0  0  0  0  0
    1.2380    0.4060   -0.2350 C   0  0  0  0  0  0  0  0  0  0  0  0
   -0.0630    0.4740    0.4770 N   0  0  0  0  0  0  0  0  0  0  0  0
   -0.5580    1.7740    0.0470 C   0  0  0  0  0  0  0  0  0  0  0  0
   -1.8490    2.2220    0.5750 C   0  0  0  0  0  0  0  0  0  0  0  0
   -2.0750    3.5220    0.0190 O   0  0  0  0  0  0  0  0  0  0  0  0
   -0.8190   -0.6210   -0.1120 C   0  0  0  0  0  0  0  0  0  0  0  0
   -2.4410   -0.9410    0.6650 P   0  0  0  0  0  0  0  0  0  0  0  0
   -2.5390   -2.4560    1.4810 O   0  0  0  0  0  0  0  0  0  0  0  0
   -3.7610   -0.8170   -0.4290 O   0  0  0  0  0  0  0  0  0  0  0  0
  1  2  1  0
  2  3  1  0
  3  4  2  0
  3  5  1  0
  5  6  1  0
  6  7  1  0
  6 10  1  0
  7  8  1  0
  8  9  1  0
 10 11  1  0
 11 12  1  0
 11 13  1  0
M  END
