
     RDKit          3D

 13 12  0  0  0  0  0  0  0  0999 V2000
   -3.4760    2.1270   -0.0950 C   0  0  0  0  0  0  0  0  0  0  0  0
   -2.8280    1.1150    0.6350 O   0  0  0  0  0  0  0  0  0  0  0  0
   -2.0250    0.1990   -0.0660 C   0  0  0  0  0  0  0  0  0  0  0  0
   -1.8960    0.2910   -1.3110 O   0  0  0  0  0  0  0  0  0  0  0  0
   -1.3190   -0.8870    0.6550 C   0  0  1  0  0  0  0  0  0  0  0  0
   -2.3740   -1.6640    1.4140 C   0  0  0  0  0  0  0  0  0  0  0  0
   -0.6130   -1.6350   -0.2350 O   0  0  0  0  0  0  0  0  0  0  0  0
    0.7380   -1.6780   -0.0550 C   0  0  0  0  0  0  0  0  0  0  0  0
    1.3980   -0.3980   -0.1230 N   0  0  0  0  0  0  0  0  0  0  0  0
    2.8110   -0.6250    0.0870 C   0  0  0  0  0  0  0  0  0  0  0  0
    3.8180    0.9040    0.0340 P   0  0  0  0  0  0  0  0  0  0  0  0
    2.8300    2.3290   -0.1100 O   0  0  0  0  0  0  0  0  0  0  0  0
    5.0160    0.8560   -1.2290 O   0  0  0  0  0  0  0  0  0  0  0  0
  1  2  1  0
  2  3  1  0
  3  4  2  0
  3  5  1  0
  5  6  1  6
  5  7  1  0
  7  8  1  0
  8  9  1  0
  9 10  1  0
 10 11  1  0
 11 12  1  0
 11 13  1  0
M  END
