
     RDKit          3D

 13 12  0  0  0  0  0  0  0  0999 V2000
   -1.5880    3.0330    0.2610 C   0  0  0  0  0  0  0  0  0  0  0  0
   -1.3540    2.1180    1.2980 O   0  0  0  0  0  0  0  0  0  0  0  0
   -1.4140    0.4960    0.6960 P   0  0  0  0  0  0  0  0  0  0  0  0
   -0.0320    0.2490   -0.5290 C   0  0  0  0  0  0  0  0  0  0  0  0
    1.1850   -0.0200    0.1850 N   0  0  0  0  0  0  0  0  0  0  0  0
    1.1070   -1.1910    1.0010 C   0  0  0  0  0  0  0  0  0  0  0  0
    2.2740   -0.0230   -0.7460 C   0  0  0  0  0  0  0  0  0  0  0  0
    3.5750   -0.2860   -0.1440 C   0  0  0  0  0  0  0  0  0  0  0  0
    4.6040   -0.3150   -0.8540 O   0  0  0  0  0  0  0  0  0  0  0  0
    3.7060   -0.5090    1.2120 O   0  0  0  0  0  0  0  0  0  0  0  0
   -2.9510    0.1080    0.0060 O   0  0  0  0  0  0  0  0  0  0  0  0
   -3.2790   -1.1840    0.3580 C   0  0  0  0  0  0  0  0  0  0  0  0
   -2.3720   -2.1330   -0.0780 O   0  0  0  0  0  0  0  0  0  0  0  0
  1  2  1  0
  2  3  1  0
  3  4  1  0
  3 11  1  0
  4  5  1  0
  5  6  1  0
  5  7  1  0
  7  8  1  0
  8  9  2  0
  8 10  1  0
 11 12  1  0
 12 13  1  0
M  END
