
     RDKit          3D

 13 12  0  0  0  0  0  0  0  0999 V2000
    3.6060   -1.1070   -0.4330 C   0  0  0  0  0  0  0  0  0  0  0  0
    2.0950   -1.1920   -0.3870 C   0  0  0  0  0  0  0  0  0  0  0  0
    1.6400   -0.1700    0.4410 O   0  0  0  0  0  0  0  0  0  0  0  0
    0.3070   -0.1640    0.5440 O   0  0  0  0  0  0  0  0  0  0  0  0
   -0.5120    0.5980   -0.2490 C   0  0  0  0  0  0  0  0  0  0  0  0
   -0.3870    2.0390   -0.1950 C   0  0  0  0  0  0  0  0  0  0  0  0
    0.4570    2.6470    0.5610 N   0  0  0  0  0  0  0  0  0  0  0  0
    0.5170    4.0160    0.5570 O   0  0  0  0  0  0  0  0  0  0  0  0
   -0.5330    4.7310    0.9900 O   0  0  0  0  0  0  0  0  0  0  0  0
   -1.3840    0.0450   -1.0330 C   0  0  0  0  0  0  0  0  0  0  0  0
   -1.4960   -1.4290   -1.0720 C   0  0  0  0  0  0  0  0  0  0  0  0
   -3.1880   -2.0110   -0.5830 P   0  0  0  0  0  0  0  0  0  0  0  0
   -3.5040   -1.4430    1.0270 O   0  0  0  0  0  0  0  0  0  0  0  0
  1  2  1  0
  2  3  1  0
  3  4  1  0
  4  5  1  0
  5  6  1  0
  5 10  2  3
  6  7  2  3
  7  8  1  0
  8  9  1  0
 10 11  1  0
 11 12  1  0
 12 13  1  0
M  END
