
     RDKit          3D

 36 39  0  0  0  0  0  0  0  0999 V2000
   -4.2850    4.5530    1.8530 C   0  0  0  0  0  0  0  0  0  0  0  0
   -3.5310    3.2160    1.7820 C   0  0  0  0  0  0  0  0  0  0  0  0
   -3.8570    2.6180    0.4580 C   0  0  0  0  0  0  0  0  0  0  0  0
   -3.2410    1.3200    0.1790 C   0  0  0  0  0  0  0  0  0  0  0  0
   -1.7910    1.1330   -0.7720 S   0  0  0  0  0  0  0  0  0  0  0  0
   -1.6660   -0.6510   -0.6220 C   0  0  0  0  0  0  0  0  0  0  0  0
   -0.6800   -1.4740   -1.1780 N   0  0  0  0  0  0  0  0  0  0  0  0
    0.3450   -0.8800   -1.9470 C   0  0  0  0  0  0  0  0  0  0  0  0
    0.3450    0.3630   -2.1110 O   0  0  0  0  0  0  0  0  0  0  0  0
    1.4070   -1.7180   -2.5530 C   0  0  0  0  0  0  0  0  0  0  0  0
    2.3240   -0.8730   -3.2820 N   0  0  0  0  0  0  0  0  0  0  0  0
    3.0460    0.1560   -2.6220 C   0  0  0  0  0  0  0  0  0  0  0  0
    2.8810    0.3230   -1.4040 O   0  0  0  0  0  0  0  0  0  0  0  0
    3.9530    0.9730   -3.4180 C   0  0  0  0  0  0  0  0  0  0  0  0
    4.6660    2.0050   -2.6350 C   0  0  0  0  0  0  0  0  0  0  0  0
    5.5190    1.5780   -1.5430 C   0  0  0  0  0  0  0  0  0  0  0  0
    6.8070    1.0870   -1.7630 C   0  0  0  0  0  0  0  0  0  0  0  0
    7.6320    0.7200   -0.7270 C   0  0  0  0  0  0  0  0  0  0  0  0
    7.1860    0.8340    0.5810 C   0  0  0  0  0  0  0  0  0  0  0  0
    7.9780    0.4770    1.6490 C   0  0  0  0  0  0  0  0  0  0  0  0
    9.1330    0.0370    1.4340 O   0  0  0  0  0  0  0  0  0  0  0  0
    7.4890    0.6120    2.8880 N   0  0  0  0  0  0  0  0  0  0  0  0
    6.2630    1.0790    3.1130 C   0  0  0  0  0  0  0  0  0  0  0  0
    5.8440    1.1880    4.3000 O   0  0  0  0  0  0  0  0  0  0  0  0
    5.4850    1.4290    2.0680 N   0  0  0  0  0  0  0  0  0  0  0  0
    5.9240    1.3150    0.8220 C   0  0  0  0  0  0  0  0  0  0  0  0
    5.1090    1.6800   -0.2390 C   0  0  0  0  0  0  0  0  0  0  0  0
   -2.7810   -0.9700    0.1700 C   0  0  0  0  0  0  0  0  0  0  0  0
   -3.5680    0.0480    0.5650 C   0  0  0  0  0  0  0  0  0  0  0  0
   -4.8340   -0.1000    1.4090 C   0  0  0  0  0  0  0  0  0  0  0  0
   -4.6590   -1.1730    2.4360 C   0  0  0  0  0  0  0  0  0  0  0  0
   -4.8140   -2.5680    1.9370 C   0  0  0  0  0  0  0  0  0  0  0  0
   -4.4100   -2.6620    0.5530 N   0  0  2  0  0  0  0  0  0  0  0  0
   -4.7140   -3.9700   -0.0060 C   0  0  0  0  0  0  0  0  0  0  0  0
   -6.1170   -4.0000   -0.5820 C   0  0  0  0  0  0  0  0  0  0  0  0
   -2.9780   -2.4690    0.4980 C   0  0  0  0  0  0  0  0  0  0  0  0
  1  2  1  0
  2  3  1  0
  3  4  1  0
  4  5  1  0
  4 29  2  0
  5  6  1  0
  6  7  1  0
  6 28  2  0
  7  8  1  0
  8  9  2  0
  8 10  1  0
 10 11  1  0
 11 12  1  0
 12 13  2  0
 12 14  1  0
 14 15  1  0
 15 16  1  0
 16 17  2  0
 16 27  1  0
 17 18  1  0
 18 19  2  0
 19 20  1  0
 19 26  1  0
 20 21  2  0
 20 22  1  0
 22 23  1  0
 23 24  2  0
 23 25  1  0
 25 26  1  0
 26 27  2  0
 28 29  1  0
 28 36  1  0
 29 30  1  0
 30 31  1  0
 31 32  1  0
 32 33  1  0
 33 34  1  1
 33 36  1  0
 34 35  1  0
M  CHG  1  33   1
M  END
