
     RDKit          3D

 36 39  0  0  0  0  0  0  0  0999 V2000
   -3.4000    3.5700   -0.1150 C   0  0  0  0  0  0  0  0  0  0  0  0
   -2.4610    2.9800    0.8790 C   0  0  0  0  0  0  0  0  0  0  0  0
   -1.6280    3.8260    1.5420 C   0  0  0  0  0  0  0  0  0  0  0  0
   -0.7530    3.2970    2.4640 C   0  0  0  0  0  0  0  0  0  0  0  0
   -0.7350    1.9390    2.6980 C   0  0  0  0  0  0  0  0  0  0  0  0
   -1.5970    1.0880    2.0070 C   0  0  0  0  0  0  0  0  0  0  0  0
   -2.4700    1.5960    1.0900 C   0  0  0  0  0  0  0  0  0  0  0  0
   -3.4470    0.8080    0.3210 C   0  0  0  0  0  0  0  0  0  0  0  0
   -3.3290   -0.9370    0.6190 S   0  0  0  0  0  0  0  0  0  0  0  0
   -1.8920   -1.7240   -0.0720 C   0  0  0  0  0  0  0  0  0  0  0  0
   -0.7170   -1.8880    0.5350 N   0  0  0  0  0  0  0  0  0  0  0  0
    0.3620   -2.5010   -0.0310 C   0  0  0  0  0  0  0  0  0  0  0  0
    0.2570   -2.9880   -1.3070 C   0  0  0  0  0  0  0  0  0  0  0  0
    1.3260   -3.6140   -1.9100 C   0  0  0  0  0  0  0  0  0  0  0  0
    1.1870   -4.1290   -3.2830 C   0  0  0  0  0  0  0  0  0  0  0  0
    2.4850   -3.7230   -1.1750 C   0  0  0  0  0  0  0  0  0  0  0  0
    2.5770   -3.2290    0.1050 C   0  0  0  0  0  0  0  0  0  0  0  0
    3.6530   -3.3380    0.7680 O   0  0  0  0  0  0  0  0  0  0  0  0
    1.5130   -2.6280    0.6520 N   0  0  0  0  0  0  0  0  0  0  0  0
    1.5730   -2.0970    2.0010 C   0  0  0  0  0  0  0  0  0  0  0  0
    2.0490   -0.6580    1.9520 C   0  0  0  0  0  0  0  0  0  0  0  0
    2.1870    0.0030    2.9940 O   0  0  0  0  0  0  0  0  0  0  0  0
    2.3400   -0.0640    0.7000 N   0  0  0  0  0  0  0  0  0  0  0  0
    2.7900    1.2440    0.4620 C   0  0  0  0  0  0  0  0  0  0  0  0
    2.9400    1.6790   -0.8570 C   0  0  0  0  0  0  0  0  0  0  0  0
    3.3740    2.9270   -1.1990 C   0  0  0  0  0  0  0  0  0  0  0  0
    3.6920    3.8350   -0.2190 C   0  0  0  0  0  0  0  0  0  0  0  0
    3.5630    3.4610    1.1070 C   0  0  0  0  0  0  0  0  0  0  0  0
    3.8920    4.4020    2.1210 N   0  0  0  0  0  0  0  0  0  0  0  0
    3.1120    2.1640    1.4220 C   0  0  0  0  0  0  0  0  0  0  0  0
   -0.9640   -2.8230   -1.9510 C   0  0  0  0  0  0  0  0  0  0  0  0
   -1.0770   -3.2660   -3.1270 O   0  0  0  0  0  0  0  0  0  0  0  0
   -1.9920   -2.2120   -1.3440 N   0  0  0  0  0  0  0  0  0  0  0  0
   -3.2330   -2.0740   -2.0710 C   0  0  0  0  0  0  0  0  0  0  0  0
   -4.1340   -3.2830   -1.8220 C   0  0  0  0  0  0  0  0  0  0  0  0
   -5.3270   -3.1640   -2.5120 O   0  0  0  0  0  0  0  0  0  0  0  0
  1  2  1  0
  2  3  2  0
  2  7  1  0
  3  4  1  0
  4  5  2  0
  5  6  1  0
  6  7  2  0
  7  8  1  0
  8  9  1  0
  9 10  1  0
 10 11  2  0
 10 33  1  0
 11 12  1  0
 12 13  2  0
 12 19  1  0
 13 14  1  0
 13 31  1  0
 14 15  1  0
 14 16  2  0
 16 17  1  0
 17 18  2  0
 17 19  1  0
 19 20  1  0
 20 21  1  0
 21 22  2  0
 21 23  1  0
 23 24  1  0
 24 25  2  0
 24 30  1  0
 25 26  1  0
 26 27  2  0
 27 28  1  0
 28 29  1  0
 28 30  2  0
 31 32  2  0
 31 33  1  0
 33 34  1  0
 34 35  1  0
 35 36  1  0
M  CHG  1  29   1
M  END
