
     RDKit          3D

 36 39  0  0  0  0  0  0  0  0999 V2000
    3.2400   -2.8110   -1.8720 C   0  0  0  0  0  0  0  0  0  0  0  0
    4.0390   -1.9990   -0.9380 C   0  0  0  0  0  0  0  0  0  0  0  0
    5.4340   -2.1490   -0.8840 C   0  0  0  0  0  0  0  0  0  0  0  0
    6.2120   -1.4260   -0.0310 C   0  0  0  0  0  0  0  0  0  0  0  0
    5.6400   -0.5190    0.8090 C   0  0  0  0  0  0  0  0  0  0  0  0
    6.5400    0.2800    1.7090 C   0  0  0  0  0  0  0  0  0  0  0  0
    7.0350    1.4760    1.0430 N   0  0  1  0  0  0  0  0  0  0  0  0
    8.4730    1.4790    1.1140 C   0  0  0  0  0  0  0  0  0  0  0  0
    8.9390    0.8340   -0.1540 C   0  0  0  0  0  0  0  0  0  0  0  0
    7.8670    1.0790   -1.1620 C   0  0  0  0  0  0  0  0  0  0  0  0
    6.7270    1.5610   -0.3340 C   0  0  0  0  0  0  0  0  0  0  0  0
    4.2830   -0.3410    0.7920 C   0  0  0  0  0  0  0  0  0  0  0  0
    3.4870   -1.0620   -0.0610 C   0  0  0  0  0  0  0  0  0  0  0  0
    2.1020   -0.8700   -0.1060 N   0  0  0  0  0  0  0  0  0  0  0  0
    1.2590   -0.2030    0.8170 C   0  0  0  0  0  0  0  0  0  0  0  0
    1.7420    0.3100    1.8410 O   0  0  0  0  0  0  0  0  0  0  0  0
   -0.1960   -0.1500    0.5280 C   0  0  0  0  0  0  0  0  0  0  0  0
   -0.5890   -0.5040   -0.6200 O   0  0  0  0  0  0  0  0  0  0  0  0
   -1.0860    0.2820    1.5440 N   0  0  0  0  0  0  0  0  0  0  0  0
   -2.5230    0.3220    1.3390 C   0  0  0  0  0  0  0  0  0  0  0  0
   -3.0540   -1.0450    0.9950 C   0  0  1  0  0  0  0  0  0  0  0  0
   -2.7700   -2.0140    1.9800 O   0  0  0  0  0  0  0  0  0  0  0  0
   -4.4210   -1.0340    0.6270 C   0  0  0  0  0  0  0  0  0  0  0  0
   -5.0200   -2.1980    0.6660 O   0  0  0  0  0  0  0  0  0  0  0  0
   -5.4780   -0.3760    0.2350 N   0  0  0  0  0  0  0  0  0  0  0  0
   -6.5490    0.2900   -0.1630 C   0  0  0  0  0  0  0  0  0  0  0  0
   -5.9660    1.3160   -0.6240 N   0  0  0  0  0  0  0  0  0  0  0  0
   -6.3100    2.4670   -1.2310 C   0  0  1  0  0  0  0  0  0  0  0  0
   -5.7900    2.2420   -2.6770 C   0  0  0  0  0  0  0  0  0  0  0  0
   -8.1020    2.6130   -1.2090 S   0  0  0  0  0  0  0  0  0  0  0  0
   -8.8250    1.0690   -0.7190 C   0  0  0  0  0  0  0  0  0  0  0  0
  -10.1720    0.8110   -0.8020 C   0  0  0  0  0  0  0  0  0  0  0  0
  -10.6760   -0.3960   -0.3610 C   0  0  0  0  0  0  0  0  0  0  0  0
   -9.8010   -1.3190    0.1560 C   0  0  0  0  0  0  0  0  0  0  0  0
   -8.4560   -1.0790    0.2470 C   0  0  0  0  0  0  0  0  0  0  0  0
   -7.9380    0.1280   -0.1930 C   0  0  0  0  0  0  0  0  0  0  0  0
  1  2  1  0
  2  3  2  0
  2 13  1  0
  3  4  1  0
  4  5  2  0
  5  6  1  0
  5 12  1  0
  7  6  1  6
  7  8  1  0
  7 11  1  0
  8  9  1  0
  9 10  1  0
 10 11  1  0
 12 13  2  0
 13 14  1  0
 14 15  1  0
 15 16  2  0
 15 17  1  0
 17 18  2  0
 17 19  1  0
 19 20  1  0
 20 21  1  0
 21 22  1  1
 21 23  1  0
 23 24  2  0
 23 25  1  0
 25 26  1  0
 26 27  2  0
 26 36  1  0
 27 28  1  0
 28 29  1  6
 28 30  1  0
 30 31  1  0
 31 32  2  0
 31 36  1  0
 32 33  1  0
 33 34  2  0
 34 35  1  0
 35 36  2  0
M  CHG  1   7   1
M  END
