
     RDKit          3D

 36 39  0  0  0  0  0  0  0  0999 V2000
  -10.1990   -3.1000    0.6630 C   0  0  0  0  0  0  0  0  0  0  0  0
   -8.9440   -3.3650   -0.0280 N   0  0  0  0  0  0  0  0  0  0  0  0
   -8.1170   -2.1780   -0.0360 C   0  0  0  0  0  0  0  0  0  0  0  0
   -6.7170   -2.5600    0.3270 C   0  0  0  0  0  0  0  0  0  0  0  0
   -5.8490   -1.3900    0.3310 N   0  0  0  0  0  0  0  0  0  0  0  0
   -4.4680   -1.5150    0.6520 C   0  0  0  0  0  0  0  0  0  0  0  0
   -4.0570   -2.6560    0.9210 O   0  0  0  0  0  0  0  0  0  0  0  0
   -3.5780   -0.4260    0.6740 N   0  0  0  0  0  0  0  0  0  0  0  0
   -2.2080   -0.4400    0.9840 C   0  0  0  0  0  0  0  0  0  0  0  0
   -1.5460   -1.5220    1.4870 C   0  0  0  0  0  0  0  0  0  0  0  0
   -0.1760   -1.4780    1.7650 C   0  0  0  0  0  0  0  0  0  0  0  0
    0.5380   -0.3460    1.5370 C   0  0  0  0  0  0  0  0  0  0  0  0
    1.8730   -0.2620    1.7940 O   0  0  0  0  0  0  0  0  0  0  0  0
    2.7740   -0.6210    0.8170 C   0  0  0  0  0  0  0  0  0  0  0  0
    2.3620   -1.0190   -0.2890 O   0  0  0  0  0  0  0  0  0  0  0  0
    4.2190   -0.5310    1.0900 C   0  0  0  0  0  0  0  0  0  0  0  0
    5.0540   -0.9500   -0.0400 C   0  0  0  0  0  0  0  0  0  0  0  0
    5.4410   -0.0180   -0.9800 C   0  0  0  0  0  0  0  0  0  0  0  0
    6.2390   -0.4040   -2.0630 C   0  0  0  0  0  0  0  0  0  0  0  0
    6.6490   -1.7190   -2.2080 C   0  0  0  0  0  0  0  0  0  0  0  0
    6.2620   -2.6540   -1.2680 C   0  0  0  0  0  0  0  0  0  0  0  0
    5.4660   -2.2400   -0.1970 C   0  0  0  0  0  0  0  0  0  0  0  0
    6.7490   -3.8400   -1.5790 C   0  0  0  0  0  0  0  0  0  0  0  0
    7.5370   -3.7220   -2.8330 C   0  0  0  0  0  0  0  0  0  0  0  0
    7.3980   -2.2860   -3.1490 C   0  0  0  0  0  0  0  0  0  0  0  0
   -0.1080    0.7920    1.0180 C   0  0  0  0  0  0  0  0  0  0  0  0
    0.6670    1.9500    0.8000 N   0  0  0  0  0  0  0  0  0  0  0  0
    0.1690    3.1460    0.2820 C   0  0  0  0  0  0  0  0  0  0  0  0
   -1.0190    3.3220   -0.0470 O   0  0  0  0  0  0  0  0  0  0  0  0
    1.0300    4.2960    0.0880 N   0  0  0  0  0  0  0  0  0  0  0  0
    2.4180    4.1520    0.4530 C   0  0  0  0  0  0  0  0  0  0  0  0
    3.2410    5.3510    0.0100 C   0  0  0  0  0  0  0  0  0  0  0  0
    2.4960    6.8950    0.5990 S   0  0  0  0  0  0  0  0  0  0  0  0
    0.7020    6.7090    0.4030 C   0  0  0  0  0  0  0  0  0  0  0  0
    0.4630    5.4800   -0.4430 C   0  0  0  0  0  0  0  0  0  0  0  0
   -1.4450    0.7230    0.7560 C   0  0  0  0  0  0  0  0  0  0  0  0
  1  2  1  0
  2  3  1  0
  3  4  1  0
  4  5  1  0
  5  6  1  0
  6  7  2  0
  6  8  1  0
  8  9  1  0
  9 10  2  0
  9 36  1  0
 10 11  1  0
 11 12  2  0
 12 13  1  0
 12 26  1  0
 13 14  1  0
 14 15  2  0
 14 16  1  0
 16 17  1  0
 17 18  1  0
 17 22  2  0
 18 19  2  0
 19 20  1  0
 20 21  1  0
 20 25  2  0
 21 22  1  0
 21 23  2  0
 23 24  1  0
 24 25  1  0
 26 27  1  0
 26 36  2  0
 27 28  1  0
 28 29  2  0
 28 30  1  0
 30 31  1  0
 30 35  1  0
 31 32  1  0
 32 33  1  0
 33 34  1  0
 34 35  1  0
M  CHG  1   2   1
M  END
