
     RDKit          3D

 13 13  0  0  0  0  0  0  0  0999 V2000
   -3.4280    0.9690   -1.1750 O   0  0  0  0  0  0  0  0  0  0  0  0
   -2.6740    0.2890   -0.4460 C   0  0  0  0  0  0  0  0  0  0  0  0
   -3.0230   -0.7660    0.3590 O   0  0  0  0  0  0  0  0  0  0  0  0
   -1.8890   -1.2900    1.0490 C   0  0  0  0  0  0  0  0  0  0  0  0
   -0.6740   -0.7590    0.3230 C   0  0  2  0  0  0  0  0  0  0  0  0
    0.3530   -0.4040    1.1390 O   0  0  0  0  0  0  0  0  0  0  0  0
    1.5840   -0.9200    0.8960 C   0  0  0  0  0  0  0  0  0  0  0  0
    2.0570   -0.5060   -0.4760 C   0  0  0  0  0  0  0  0  0  0  0  0
    2.1010    0.9040   -0.4850 O   0  0  0  0  0  0  0  0  0  0  0  0
    2.5030    1.3580   -1.6440 O   0  0  0  0  0  0  0  0  0  0  0  0
   -1.2120    0.5230   -0.3280 C   0  0  2  0  0  0  0  0  0  0  0  0
   -1.0630    1.6220    0.5140 O   0  0  0  0  0  0  0  0  0  0  0  0
   -0.4310    2.6200   -0.0180 O   0  0  0  0  0  0  0  0  0  0  0  0
  1  2  2  0
  2  3  1  0
  2 11  1  0
  3  4  1  0
  4  5  1  0
  5  6  1  1
  5 11  1  0
  6  7  1  0
  7  8  1  0
  8  9  1  0
  9 10  1  0
 11 12  1  1
 12 13  1  0
M  END
