
     RDKit          3D

 13 13  0  0  0  0  0  0  0  0999 V2000
    3.7780   -1.3690   -1.0360 O   0  0  0  0  0  0  0  0  0  0  0  0
    3.7640   -1.0650    0.1780 C   0  0  0  0  0  0  0  0  0  0  0  0
    2.6160   -0.5250    0.7080 O   0  0  0  0  0  0  0  0  0  0  0  0
    1.4340   -0.2970   -0.0700 C   0  0  1  0  0  0  0  0  0  0  0  0
    0.3990   -0.9320    0.6000 O   0  0  0  0  0  0  0  0  0  0  0  0
   -0.7510   -1.0420   -0.1330 C   0  0  0  0  0  0  0  0  0  0  0  0
   -1.7260    0.0720    0.0390 C   0  0  1  0  0  0  0  0  0  0  0  0
   -2.8560   -0.3140    0.7740 O   0  0  0  0  0  0  0  0  0  0  0  0
   -3.9650   -0.1520    0.1180 O   0  0  0  0  0  0  0  0  0  0  0  0
   -1.1570    1.2870    0.7190 C   0  0  0  0  0  0  0  0  0  0  0  0
   -0.0280    1.8030    0.0360 O   0  0  0  0  0  0  0  0  0  0  0  0
    1.2060    1.1790   -0.0510 C   0  0  0  0  0  0  0  0  0  0  0  0
    2.2360    1.9070   -0.1210 O   0  0  0  0  0  0  0  0  0  0  0  0
  1  2  2  0
  2  3  1  0
  4  3  1  1
  4  5  1  0
  4 12  1  0
  5  6  1  0
  6  7  1  0
  7  8  1  1
  7 10  1  0
  8  9  1  0
 10 11  1  0
 11 12  1  0
 12 13  2  0
M  END
