
     RDKit          3D

 13 13  0  0  0  0  0  0  0  0999 V2000
   -1.9470   -0.9680   -1.8310 O   0  0  0  0  0  0  0  0  0  0  0  0
   -1.2520   -1.0420   -0.7880 C   0  0  0  0  0  0  0  0  0  0  0  0
   -0.0850   -1.7870   -0.6630 O   0  0  0  0  0  0  0  0  0  0  0  0
    0.6000   -1.6150    0.5910 C   0  0  0  0  0  0  0  0  0  0  0  0
    0.6270   -0.1340    0.8520 C   0  0  1  0  0  0  0  0  0  0  0  0
    1.6100    0.4700   -0.1550 C   0  0  0  0  0  0  0  0  0  0  0  0
    2.7980   -0.2460   -0.0200 O   0  0  0  0  0  0  0  0  0  0  0  0
    3.6780    0.2460   -0.8750 O   0  0  0  0  0  0  0  0  0  0  0  0
    4.1800    1.3270   -0.3130 O   0  0  0  0  0  0  0  0  0  0  0  0
   -0.5860    0.4880    0.8160 O   0  0  0  0  0  0  0  0  0  0  0  0
   -1.6530   -0.3020    0.4360 C   0  0  1  0  0  0  0  0  0  0  0  0
   -2.8760    0.4960    0.1530 C   0  0  0  0  0  0  0  0  0  0  0  0
   -3.3220    1.2300    1.2320 O   0  0  0  0  0  0  0  0  0  0  0  0
  1  2  2  0
  2  3  1  0
  2 11  1  0
  3  4  1  0
  4  5  1  0
  5  6  1  6
  5 10  1  0
  6  7  1  0
  7  8  1  0
  8  9  1  0
 10 11  1  0
 11 12  1  6
 12 13  1  0
M  END
