
     RDKit          3D

 20 20  0  0  0  0  0  0  0  0999 V2000
   -6.2060    0.6910   -0.4510 C   0  0  0  0  0  0  0  0  0  0  0  0
   -5.3740   -0.2700   -1.7410 S   0  0  0  0  0  0  0  0  0  0  0  0
   -3.7870   -0.8610   -1.1870 C   0  0  0  0  0  0  0  0  0  0  0  0
   -3.0240   -1.5490   -1.9010 O   0  0  0  0  0  0  0  0  0  0  0  0
   -3.3750   -0.5500    0.0790 O   0  0  0  0  0  0  0  0  0  0  0  0
   -2.1740   -0.9390    0.6380 C   0  0  0  0  0  0  0  0  0  0  0  0
   -1.9530   -2.0960    1.3500 C   0  0  0  0  0  0  0  0  0  0  0  0
   -0.6200   -2.0840    1.7230 C   0  0  0  0  0  0  0  0  0  0  0  0
   -0.0540   -0.9940    1.2740 O   0  0  0  0  0  0  0  0  0  0  0  0
   -0.9560   -0.2960    0.6260 C   0  0  0  0  0  0  0  0  0  0  0  0
   -0.7970    1.0170   -0.0640 C   0  0  0  0  0  0  0  0  0  0  0  0
    0.4700    1.5240    0.0130 O   0  0  0  0  0  0  0  0  0  0  0  0
    1.4550    0.7510   -0.5280 C   0  0  1  0  0  0  0  0  0  0  0  0
    2.4080    1.6120   -1.8750 P   0  0  0  0  0  0  0  0  0  0  0  0
    3.7750    0.6030   -2.2520 O   0  0  0  0  0  0  0  0  0  0  0  0
    1.4160    1.6660   -3.3070 O   0  0  0  0  0  0  0  0  0  0  0  0
    2.6280    0.2660    0.8380 P   0  0  0  0  0  0  0  0  0  0  0  0
    3.1140   -1.5260    0.7030 C   0  0  0  0  0  0  0  0  0  0  0  0
    4.1290    1.3580    0.8430 C   0  0  0  0  0  0  0  0  0  0  0  0
    4.5310    1.5310    2.1490 O   0  0  0  0  0  0  0  0  0  0  0  0
  1  2  1  0
  2  3  1  0
  3  4  2  0
  3  5  1  0
  5  6  1  0
  6  7  1  0
  6 10  2  0
  7  8  2  0
  8  9  1  0
  9 10  1  0
 10 11  1  0
 11 12  1  0
 13 12  1  1
 13 14  1  0
 13 17  1  0
 14 15  1  0
 14 16  1  0
 17 18  1  0
 17 19  1  0
 19 20  1  0
M  END
