
     RDKit          3D

 15 15  0  0  0  0  0  0  0  0999 V2000
    4.8930    1.2030    0.3430 C   0  0  0  0  0  0  0  0  0  0  0  0
    4.2340    0.0050    0.5600 O   0  0  0  0  0  0  0  0  0  0  0  0
    3.9020   -0.5810   -0.6540 C   0  0  0  0  0  0  0  0  0  0  0  0
    3.1760   -1.9020   -0.4400 C   0  0  0  0  0  0  0  0  0  0  0  0
    1.9930   -1.7620    0.2770 O   0  0  0  0  0  0  0  0  0  0  0  0
    0.9050   -1.0020   -0.0960 C   0  0  0  0  0  0  0  0  0  0  0  0
    0.9470   -0.3670   -1.1690 O   0  0  0  0  0  0  0  0  0  0  0  0
   -0.2660   -0.9540    0.7640 C   0  0  0  0  0  0  0  0  0  0  0  0
   -1.3810   -0.0980    0.2550 C   0  0  1  0  0  0  0  0  0  0  0  0
   -0.9810    1.2270    0.0960 O   0  0  0  0  0  0  0  0  0  0  0  0
   -1.9310   -0.5580   -1.0740 C   0  0  0  0  0  0  0  0  0  0  0  0
   -3.2010    0.3020   -1.1580 C   0  0  0  0  0  0  0  0  0  0  0  0
   -3.6640    0.4600    0.2760 C   0  0  2  0  0  0  0  0  0  0  0  0
   -3.7250    1.8620    0.6720 N   0  0  0  0  0  0  0  0  0  0  0  0
   -2.6060   -0.1980    1.1390 C   0  0  0  0  0  0  0  0  0  0  0  0
  1  2  1  0
  2  3  1  0
  3  4  1  0
  4  5  1  0
  5  6  1  0
  6  7  2  0
  6  8  1  0
  8  9  1  0
  9 10  1  6
  9 11  1  0
  9 15  1  0
 11 12  1  0
 12 13  1  0
 13 14  1  1
 13 15  1  0
M  CHG  1  14   1
M  END
