
     RDKit          3D

 15 15  0  0  0  0  0  0  0  0999 V2000
    0.8080    2.6020   -1.5490 C   0  0  0  0  0  0  0  0  0  0  0  0
    1.3560    1.8910   -0.5680 C   0  0  0  0  0  0  0  0  0  0  0  0
    1.9730    2.5940    0.4350 O   0  0  0  0  0  0  0  0  0  0  0  0
    1.2990    0.4620   -0.5690 C   0  0  0  0  0  0  0  0  0  0  0  0
    1.7980   -0.3250    0.3350 C   0  0  0  0  0  0  0  0  0  0  0  0
    2.5310    0.0060    1.5650 C   0  0  0  0  0  0  0  0  0  0  0  0
    3.8540   -0.6240    1.4360 N   0  0  0  0  0  0  0  0  0  0  0  0
    0.6430   -0.1400   -1.6500 O   0  0  0  0  0  0  0  0  0  0  0  0
   -0.2680   -1.2020   -1.4790 C   0  0  0  0  0  0  0  0  0  0  0  0
   -1.4320   -0.7950   -0.6090 C   0  0  1  0  0  0  0  0  0  0  0  0
   -2.2480    0.3150   -1.1770 C   0  0  0  0  0  0  0  0  0  0  0  0
   -3.5080    0.2790   -0.6160 O   0  0  0  0  0  0  0  0  0  0  0  0
   -3.5480   -0.3100    0.6260 C   0  0  0  0  0  0  0  0  0  0  0  0
   -3.0420   -1.7290    0.6340 C   0  0  0  0  0  0  0  0  0  0  0  0
   -2.2690   -1.9270   -0.5100 O   0  0  0  0  0  0  0  0  0  0  0  0
  1  2  2  0
  2  3  1  0
  2  4  1  0
  4  5  2  3
  4  8  1  0
  5  6  1  0
  6  7  1  0
  8  9  1  0
 10  9  1  6
 10 11  1  0
 10 15  1  0
 11 12  1  0
 12 13  1  0
 13 14  1  0
 14 15  1  0
M  CHG  1   7   1
M  END
