
     RDKit          3D

 26 28  0  0  0  0  0  0  0  0999 V2000
    5.9350   -0.2270   -1.2280 C   0  0  0  0  0  0  0  0  0  0  0  0
    5.2170   -1.3170   -0.4730 C   0  0  0  0  0  0  0  0  0  0  0  0
    3.8660   -0.8480   -0.1360 C   0  0  0  0  0  0  0  0  0  0  0  0
    3.5470   -0.4460    1.1340 C   0  0  0  0  0  0  0  0  0  0  0  0
    2.2650   -0.0160    1.4420 C   0  0  0  0  0  0  0  0  0  0  0  0
    1.2660    0.0230    0.4800 C   0  0  0  0  0  0  0  0  0  0  0  0
   -0.0840    0.4840    0.7570 C   0  0  0  0  0  0  0  0  0  0  0  0
   -0.3170    1.8190    1.3370 C   0  0  0  0  0  0  0  0  0  0  0  0
    0.0270    2.9470    0.4340 C   0  0  2  0  0  0  0  0  0  0  0  0
    1.4360    3.0460   -0.0200 C   0  0  0  0  0  0  0  0  0  0  0  0
   -0.3390    4.2510    1.1550 C   0  0  0  0  0  0  0  0  0  0  0  0
   -1.1660   -0.2720    0.5230 C   0  0  0  0  0  0  0  0  0  0  0  0
   -2.5450    0.1270    0.7700 C   0  0  0  0  0  0  0  0  0  0  0  0
   -3.4180   -0.9870    0.3370 C   0  0  0  0  0  0  0  0  0  0  0  0
   -2.5870   -2.0150   -0.0720 C   0  0  0  0  0  0  0  0  0  0  0  0
   -3.1770   -3.2040   -0.5130 C   0  0  0  0  0  0  0  0  0  0  0  0
   -4.5500   -3.3100   -0.5260 C   0  0  0  0  0  0  0  0  0  0  0  0
   -5.3750   -2.2850   -0.1200 C   0  0  0  0  0  0  0  0  0  0  0  0
   -6.7730   -2.4310   -0.1480 O   0  0  0  0  0  0  0  0  0  0  0  0
   -4.7860   -1.1260    0.3110 C   0  0  0  0  0  0  0  0  0  0  0  0
   -5.6420   -0.0100    0.7510 C   0  0  0  0  0  0  0  0  0  0  0  0
   -1.1840   -1.6270    0.0250 C   0  0  0  0  0  0  0  0  0  0  0  0
   -0.2480   -2.3700   -0.2770 O   0  0  0  0  0  0  0  0  0  0  0  0
    1.5960   -0.3830   -0.7980 C   0  0  0  0  0  0  0  0  0  0  0  0
    2.8960   -0.8190   -1.1050 C   0  0  0  0  0  0  0  0  0  0  0  0
    3.1950   -1.2450   -2.4890 C   0  0  0  0  0  0  0  0  0  0  0  0
  1  2  1  0
  2  3  1  0
  3  4  2  0
  3 25  1  0
  4  5  1  0
  5  6  2  0
  6  7  1  0
  6 24  1  0
  7  8  1  0
  7 12  2  3
  8  9  1  0
  9 10  1  1
  9 11  1  0
 12 13  1  0
 12 22  1  0
 13 14  1  0
 14 15  2  0
 14 20  1  0
 15 16  1  0
 15 22  1  0
 16 17  2  0
 17 18  1  0
 18 19  1  0
 18 20  2  0
 20 21  1  0
 22 23  2  0
 24 25  2  0
 25 26  1  0
M  END
