
     RDKit          3D

 22 21  0  0  0  0  0  0  0  0999 V2000
   -1.0840    1.8260    1.8040 C   0  0  0  0  0  0  0  0  0  0  0  0
   -2.1920    1.1450    1.4350 O   0  0  0  0  0  0  0  0  0  0  0  0
   -2.1390   -0.1550    1.0940 C   0  0  0  0  0  0  0  0  0  0  0  0
   -1.3360   -0.5870   -0.0830 C   0  0  2  0  0  0  0  0  0  0  0  0
   -1.4850   -2.1220   -0.1380 C   0  0  0  0  0  0  0  0  0  0  0  0
   -2.8080   -2.6950   -0.3150 C   0  0  0  0  0  0  0  0  0  0  0  0
   -3.7850   -2.4980    0.6160 O   0  0  0  0  0  0  0  0  0  0  0  0
    0.0910   -0.3270    0.2770 C   0  0  0  0  0  0  0  0  0  0  0  0
    0.5170   -0.6680    1.4420 O   0  0  0  0  0  0  0  0  0  0  0  0
    1.0760    0.2650   -0.5310 N   0  0  0  0  0  0  0  0  0  0  0  0
    2.4420    0.4520   -0.0580 C   0  0  2  0  0  0  0  0  0  0  0  0
    2.8890   -0.8510    0.2500 O   0  0  0  0  0  0  0  0  0  0  0  0
    4.1380   -0.8750    0.7040 N   0  0  0  0  0  0  0  0  0  0  0  0
    2.4580    1.1980    1.1180 O   0  0  0  0  0  0  0  0  0  0  0  0
    3.7060    1.3310    1.4910 O   0  0  0  0  0  0  0  0  0  0  0  0
    3.2760    1.0920   -1.0910 C   0  0  0  0  0  0  0  0  0  0  0  0
    4.6460    1.3690   -0.8440 N   0  0  0  0  0  0  0  0  0  0  0  0
    2.8030    1.4100   -2.2200 O   0  0  0  0  0  0  0  0  0  0  0  0
   -1.7300   -0.0530   -1.4030 C   0  0  2  0  0  0  0  0  0  0  0  0
   -0.6980   -0.6850   -2.7230 Cl  0  0  0  0  0  0  0  0  0  0  0  0
   -1.9160    1.3890   -1.6180 C   0  0  0  0  0  0  0  0  0  0  0  0
   -2.9100    1.9940   -0.8480 O   0  0  0  0  0  0  0  0  0  0  0  0
  1  2  1  0
  2  3  1  0
  4  3  1  1
  4  5  1  0
  4  8  1  0
  4 19  1  0
  5  6  1  0
  6  7  1  0
  8  9  2  0
  8 10  1  0
 11 10  1  6
 11 12  1  0
 11 14  1  0
 11 16  1  0
 12 13  1  0
 14 15  1  0
 16 17  1  0
 16 18  2  0
 19 20  1  6
 19 21  1  0
 21 22  1  0
M  END
