
     RDKit          3D

 22 21  0  0  0  0  0  0  0  0999 V2000
    5.1010    1.0370    0.9280 N   0  0  0  0  0  0  0  0  0  0  0  0
    5.4760    0.3880   -0.2660 C   0  0  0  0  0  0  0  0  0  0  0  0
    6.6780    0.4710   -0.6240 O   0  0  0  0  0  0  0  0  0  0  0  0
    4.5290   -0.3820   -1.1140 C   0  0  0  0  0  0  0  0  0  0  0  0
    3.2420   -0.3770   -0.5800 O   0  0  0  0  0  0  0  0  0  0  0  0
    2.4480   -1.1230   -1.4540 C   0  0  0  0  0  0  0  0  0  0  0  0
    0.9970   -1.1700   -0.9350 C   0  0  0  0  0  0  0  0  0  0  0  0
    0.4590    0.0490   -0.8330 O   0  0  0  0  0  0  0  0  0  0  0  0
   -0.7890    0.3270   -0.4860 C   0  0  0  0  0  0  0  0  0  0  0  0
   -1.3790   -0.0670    0.8060 C   0  0  2  0  0  0  0  0  0  0  0  0
   -0.4150    0.6100    2.1460 Cl  0  0  0  0  0  0  0  0  0  0  0  0
   -1.6710   -1.4950    1.0750 C   0  0  1  0  0  0  0  0  0  0  0  0
   -2.2400   -1.6200    2.3930 O   0  0  0  0  0  0  0  0  0  0  0  0
   -2.6740   -2.0810    0.1550 C   0  0  0  0  0  0  0  0  0  0  0  0
   -2.4870   -2.1740   -1.2450 N   0  0  0  0  0  0  0  0  0  0  0  0
   -3.7490   -2.5240    0.6150 O   0  0  0  0  0  0  0  0  0  0  0  0
   -2.7170    0.7430    0.8940 C   0  0  2  0  0  0  0  0  0  0  0  0
   -3.4950    0.3740   -0.1790 O   0  0  0  0  0  0  0  0  0  0  0  0
   -2.3590    2.1810    0.8030 C   0  0  0  0  0  0  0  0  0  0  0  0
   -1.6600    2.7700    1.6470 O   0  0  0  0  0  0  0  0  0  0  0  0
   -2.8240    2.9770   -0.3060 N   0  0  0  0  0  0  0  0  0  0  0  0
   -2.4990    4.2820   -0.3880 O   0  0  0  0  0  0  0  0  0  0  0  0
  1  2  1  0
  2  3  2  0
  2  4  1  0
  4  5  1  0
  5  6  1  0
  6  7  1  0
  7  8  1  0
  8  9  1  0
  9 10  1  0
 10 11  1  1
 10 12  1  0
 10 17  1  0
 12 13  1  1
 12 14  1  0
 14 15  1  0
 14 16  2  0
 17 18  1  6
 17 19  1  0
 19 20  2  0
 19 21  1  0
 21 22  1  0
M  END
