
     RDKit          3D

 17 18  0  0  0  0  0  0  0  0999 V2000
    0.9750   -1.8590   -1.1770 C   0  0  0  0  0  0  0  0  0  0  0  0
    0.3650   -0.7660   -0.3570 C   0  0  0  0  0  0  0  0  0  0  0  0
   -1.0320   -0.7170   -0.3920 C   0  0  0  0  0  0  0  0  0  0  0  0
   -1.7260    0.2050    0.3800 C   0  0  0  0  0  0  0  0  0  0  0  0
   -3.2010    0.2000    0.2280 C   0  0  1  0  0  0  0  0  0  0  0  0
   -3.8260    1.3790    0.9520 C   0  0  0  0  0  0  0  0  0  0  0  0
   -3.5480    0.3380   -1.1820 N   0  0  0  0  0  0  0  0  0  0  0  0
   -3.7980   -1.0720    0.7500 C   0  0  0  0  0  0  0  0  0  0  0  0
   -5.5650   -0.9930    0.5170 Cl  0  0  0  0  0  0  0  0  0  0  0  0
   -0.9970    1.0490    1.1640 C   0  0  0  0  0  0  0  0  0  0  0  0
    0.3940    0.9880    1.1860 C   0  0  0  0  0  0  0  0  0  0  0  0
    1.1080    0.0650    0.4100 C   0  0  0  0  0  0  0  0  0  0  0  0
    2.5590    0.1420    0.3200 C   0  0  0  0  0  0  0  0  0  0  0  0
    3.3400   -0.2390   -0.6550 C   0  0  0  0  0  0  0  0  0  0  0  0
    4.7850   -0.0040   -0.3890 C   0  0  0  0  0  0  0  0  0  0  0  0
    4.8270    0.3490    1.0560 C   0  0  0  0  0  0  0  0  0  0  0  0
    3.4070    0.6670    1.4420 C   0  0  0  0  0  0  0  0  0  0  0  0
  1  2  1  0
  2  3  2  0
  2 12  1  0
  3  4  1  0
  4  5  1  0
  4 10  2  0
  5  6  1  1
  5  7  1  0
  5  8  1  0
  8  9  1  0
 10 11  1  0
 11 12  2  0
 12 13  1  0
 13 14  2  0
 13 17  1  0
 14 15  1  0
 15 16  1  0
 16 17  1  0
M  CHG  1   7   1
M  END
