
     RDKit          3D

 16 17  0  0  0  0  0  0  0  0999 V2000
    2.6810   -0.6830    1.2040 N   0  0  0  0  0  0  0  0  0  0  0  0
    2.3290    0.1180    0.0520 C   0  0  2  0  0  0  0  0  0  0  0  0
    0.9350    0.5310    0.0280 C   0  0  0  0  0  0  0  0  0  0  0  0
    0.6450    1.7520    0.0400 O   0  0  0  0  0  0  0  0  0  0  0  0
   -0.1710   -0.3750   -0.0080 N   0  0  0  0  0  0  0  0  0  0  0  0
   -1.5410    0.0220   -0.0310 C   0  0  2  0  0  0  0  0  0  0  0  0
   -2.3540   -0.5290    1.1020 C   0  0  0  0  0  0  0  0  0  0  0  0
   -3.7770   -0.0470    0.9800 C   0  0  0  0  0  0  0  0  0  0  0  0
   -4.0280    0.7180   -0.3040 C   0  0  0  0  0  0  0  0  0  0  0  0
   -3.5730   -0.1220   -1.3680 O   0  0  0  0  0  0  0  0  0  0  0  0
   -2.2070   -0.4370   -1.3020 C   0  0  0  0  0  0  0  0  0  0  0  0
   -1.5890   -1.0340   -2.1910 O   0  0  0  0  0  0  0  0  0  0  0  0
    2.8020   -0.5660   -1.1980 C   0  0  0  0  0  0  0  0  0  0  0  0
    3.9740    0.1130   -1.5440 O   0  0  0  0  0  0  0  0  0  0  0  0
    4.3490    0.8310   -0.4120 C   0  0  0  0  0  0  0  0  0  0  0  0
    3.1350    1.2520    0.0850 O   0  0  0  0  0  0  0  0  0  0  0  0
  2  1  1  1
  2  3  1  0
  2 13  1  0
  2 16  1  0
  3  4  2  0
  3  5  1  0
  6  5  1  1
  6  7  1  0
  6 11  1  0
  7  8  1  0
  8  9  1  0
  9 10  1  0
 10 11  1  0
 11 12  2  0
 13 14  1  0
 14 15  1  0
 15 16  1  0
M  END
