
     RDKit          3D

 16 17  0  0  0  0  0  0  0  0999 V2000
    5.6860    0.0670    0.7480 N   0  0  0  0  0  0  0  0  0  0  0  0
    4.4800    0.1310   -0.0170 C   0  0  1  0  0  0  0  0  0  0  0  0
    3.9040   -1.1550   -0.2520 O   0  0  0  0  0  0  0  0  0  0  0  0
    2.5130   -0.9530   -0.2890 C   0  0  0  0  0  0  0  0  0  0  0  0
    2.2270    0.2090    0.2730 C   0  0  0  0  0  0  0  0  0  0  0  0
    0.8760    0.7740    0.4250 C   0  0  0  0  0  0  0  0  0  0  0  0
    0.6990    1.8920    0.9760 O   0  0  0  0  0  0  0  0  0  0  0  0
   -0.2500    0.0520   -0.0560 N   0  0  0  0  0  0  0  0  0  0  0  0
   -1.6040    0.5110    0.0410 C   0  0  2  0  0  0  0  0  0  0  0  0
   -2.3880   -0.5270    0.8170 C   0  0  0  0  0  0  0  0  0  0  0  0
   -3.6560   -0.8640    0.0320 C   0  0  0  0  0  0  0  0  0  0  0  0
   -4.2780    0.4910   -0.3280 C   0  0  0  0  0  0  0  0  0  0  0  0
   -3.5000    0.9670   -1.4380 O   0  0  0  0  0  0  0  0  0  0  0  0
   -2.1420    0.6470   -1.3590 C   0  0  0  0  0  0  0  0  0  0  0  0
   -1.4170    0.4820   -2.3700 O   0  0  0  0  0  0  0  0  0  0  0  0
    3.4140    0.7750    0.6810 O   0  0  0  0  0  0  0  0  0  0  0  0
  2  1  1  1
  2  3  1  0
  2 16  1  0
  3  4  1  0
  4  5  2  0
  5  6  1  0
  5 16  1  0
  6  7  2  0
  6  8  1  0
  9  8  1  6
  9 10  1  0
  9 14  1  0
 10 11  1  0
 11 12  1  0
 12 13  1  0
 13 14  1  0
 14 15  2  0
M  END
