
     RDKit          3D

 17 18  0  0  0  0  0  0  0  0999 V2000
    5.3590    0.1310    0.1690 C   0  0  0  0  0  0  0  0  0  0  0  0
    3.8500   -0.0860    0.0300 C   0  0  0  0  0  0  0  0  0  0  0  0
    3.3060   -0.0150   -1.2120 C   0  0  0  0  0  0  0  0  0  0  0  0
    1.9100    0.0630   -1.3300 C   0  0  0  0  0  0  0  0  0  0  0  0
    1.1440    0.0580   -0.1890 C   0  0  0  0  0  0  0  0  0  0  0  0
   -0.2710    0.5010   -0.3130 C   0  0  0  0  0  0  0  0  0  0  0  0
   -1.2740   -0.5570   -0.2630 C   0  0  0  0  0  0  0  0  0  0  0  0
   -1.0710   -1.8550   -0.0030 C   0  0  0  0  0  0  0  0  0  0  0  0
   -2.0770   -2.7360    0.1770 C   0  0  0  0  0  0  0  0  0  0  0  0
   -3.3720   -2.2810    0.0810 C   0  0  0  0  0  0  0  0  0  0  0  0
   -4.7220   -3.3680    0.2900 Cl  0  0  0  0  0  0  0  0  0  0  0  0
   -3.6210   -0.9380   -0.1970 C   0  0  0  0  0  0  0  0  0  0  0  0
   -2.6180   -0.0500   -0.3760 C   0  0  0  0  0  0  0  0  0  0  0  0
   -2.7120    1.3300   -0.8890 C   0  0  0  0  0  0  0  0  0  0  0  0
   -3.1680    2.3560    0.0070 N   0  0  0  0  0  0  0  0  0  0  0  0
    1.6950   -0.0240    1.0500 C   0  0  0  0  0  0  0  0  0  0  0  0
    3.0930   -0.0950    1.1620 C   0  0  0  0  0  0  0  0  0  0  0  0
  1  2  1  0
  2  3  2  0
  2 17  1  0
  3  4  1  0
  4  5  2  0
  5  6  1  0
  5 16  1  0
  6  7  1  0
  7  8  2  0
  7 13  1  0
  8  9  1  0
  9 10  2  0
 10 11  1  0
 10 12  1  0
 12 13  2  0
 13 14  1  0
 14 15  1  0
 16 17  2  0
M  CHG  1  15   1
M  END
