
     RDKit          3D

 17 18  0  0  0  0  0  0  0  0999 V2000
    5.0680    0.6860   -0.1630 C   0  0  0  0  0  0  0  0  0  0  0  0
    4.7870   -0.6970    0.3200 C   0  0  0  0  0  0  0  0  0  0  0  0
    3.7700   -1.4270   -0.5150 C   0  0  0  0  0  0  0  0  0  0  0  0
    2.4370   -0.7530   -0.5610 C   0  0  0  0  0  0  0  0  0  0  0  0
    1.8040   -0.6040    0.8000 C   0  0  0  0  0  0  0  0  0  0  0  0
    0.4910    0.0660    0.6910 C   0  0  0  0  0  0  0  0  0  0  0  0
   -0.7130   -0.6220    0.7910 C   0  0  0  0  0  0  0  0  0  0  0  0
   -1.9150    0.0460    0.6830 C   0  0  0  0  0  0  0  0  0  0  0  0
   -1.9750    1.4090    0.4740 C   0  0  0  0  0  0  0  0  0  0  0  0
   -0.7870    2.0970    0.3740 C   0  0  0  0  0  0  0  0  0  0  0  0
    0.4120    1.4250    0.4820 C   0  0  0  0  0  0  0  0  0  0  0  0
    1.8720    2.3850    0.3420 Cl  0  0  0  0  0  0  0  0  0  0  0  0
   -3.2990    2.0770    0.3660 C   0  0  0  0  0  0  0  0  0  0  0  0
   -4.2480    1.2740   -0.4560 C   0  0  0  0  0  0  0  0  0  0  0  0
   -4.0230   -0.2000   -0.4400 C   0  0  0  0  0  0  0  0  0  0  0  0
   -3.2370   -0.6550    0.7840 C   0  0  1  0  0  0  0  0  0  0  0  0
   -3.0880   -2.0830    0.6870 N   0  0  0  0  0  0  0  0  0  0  0  0
  1  2  1  0
  2  3  1  0
  3  4  1  0
  4  5  1  0
  5  6  1  0
  6  7  2  0
  6 11  1  0
  7  8  1  0
  8  9  2  0
  8 16  1  0
  9 10  1  0
  9 13  1  0
 10 11  2  0
 11 12  1  0
 13 14  1  0
 14 15  1  0
 15 16  1  0
 16 17  1  6
M  CHG  1  17   1
M  END
