
     RDKit          3D

 13 12  0  0  0  0  0  0  0  0999 V2000
   -5.8660   -0.1600   -0.6600 O   0  0  0  0  0  0  0  0  0  0  0  0
   -4.7370   -0.0880   -0.0850 C   0  0  0  0  0  0  0  0  0  0  0  0
   -4.7310   -0.1420    1.2850 O   0  0  0  0  0  0  0  0  0  0  0  0
   -3.5200    0.0490   -0.9270 C   0  0  0  0  0  0  0  0  0  0  0  0
   -2.3130    0.1160   -0.0490 C   0  0  0  0  0  0  0  0  0  0  0  0
   -1.0590    0.2560   -0.8830 C   0  0  0  0  0  0  0  0  0  0  0  0
    0.1810    0.3270   -0.0180 C   0  0  0  0  0  0  0  0  0  0  0  0
    1.3610    0.4630   -0.9250 C   0  0  0  0  0  0  0  0  0  0  0  0
    2.6730    0.5460   -0.2130 C   0  0  0  0  0  0  0  0  0  0  0  0
    2.9910   -0.6460    0.6300 C   0  0  0  0  0  0  0  0  0  0  0  0
    4.3260   -0.3980    1.2630 C   0  0  0  0  0  0  0  0  0  0  0  0
    4.8400   -1.2530    2.0340 O   0  0  0  0  0  0  0  0  0  0  0  0
    5.0530    0.7610    1.0400 O   0  0  0  0  0  0  0  0  0  0  0  0
  1  2  2  0
  2  3  1  0
  2  4  1  0
  4  5  1  0
  5  6  1  0
  6  7  1  0
  7  8  1  0
  8  9  1  0
  9 10  1  0
 10 11  1  0
 11 12  2  0
 11 13  1  0
M  END
