
     RDKit          3D

 22 22  0  0  0  0  0  0  0  0999 V2000
   -2.7570    4.2570    0.4350 C   0  0  0  0  0  0  0  0  0  0  0  0
   -2.2870    3.4340   -0.6380 O   0  0  0  0  0  0  0  0  0  0  0  0
   -1.9650    2.1190   -0.3610 C   0  0  0  0  0  0  0  0  0  0  0  0
   -2.0990    1.7000    0.8190 O   0  0  0  0  0  0  0  0  0  0  0  0
   -1.4890    1.2090   -1.3440 N   0  0  0  0  0  0  0  0  0  0  0  0
   -1.1900   -0.1040   -0.9690 N   0  0  0  0  0  0  0  0  0  0  0  0
   -2.1760   -0.9710   -0.4070 C   0  0  0  0  0  0  0  0  0  0  0  0
   -3.4080   -0.7800   -0.2430 O   0  0  0  0  0  0  0  0  0  0  0  0
   -1.4880   -2.2280   -0.0140 C   0  0  2  0  0  0  0  0  0  0  0  0
   -2.0260   -2.7860    1.1620 O   0  0  0  0  0  0  0  0  0  0  0  0
   -2.4820   -4.0900    1.1180 C   0  0  0  0  0  0  0  0  0  0  0  0
   -2.4240   -4.7670    0.0670 O   0  0  0  0  0  0  0  0  0  0  0  0
   -3.0180   -4.6840    2.2450 O   0  0  0  0  0  0  0  0  0  0  0  0
   -0.0670   -1.7420    0.1790 C   0  0  0  0  0  0  0  0  0  0  0  0
    0.0410   -0.8240   -1.0460 C   0  0  2  0  0  0  0  0  0  0  0  0
    1.2370    0.0170   -1.0070 C   0  0  0  0  0  0  0  0  0  0  0  0
    1.0880    1.2620   -0.9140 O   0  0  0  0  0  0  0  0  0  0  0  0
    2.5660   -0.4790   -1.0670 N   0  0  0  0  0  0  0  0  0  0  0  0
    3.7350    0.3560   -1.0280 C   0  0  0  0  0  0  0  0  0  0  0  0
    3.8370    1.1730    0.2260 C   0  0  0  0  0  0  0  0  0  0  0  0
    3.8940    0.4120    1.3780 O   0  0  0  0  0  0  0  0  0  0  0  0
    3.9810    1.2560    2.3950 O   0  0  0  0  0  0  0  0  0  0  0  0
  1  2  1  0
  2  3  1  0
  3  4  2  0
  3  5  1  0
  5  6  1  0
  6  7  1  0
  6 15  1  0
  7  8  2  0
  7  9  1  0
  9 10  1  1
  9 14  1  0
 10 11  1  0
 11 12  2  0
 11 13  1  0
 14 15  1  0
 15 16  1  1
 16 17  2  0
 16 18  1  0
 18 19  1  0
 19 20  1  0
 20 21  1  0
 21 22  1  0
M  END
