
     RDKit          3D

 22 22  0  0  0  0  0  0  0  0999 V2000
    0.1830   -0.0970   -1.9840 N   0  0  0  0  0  0  0  0  0  0  0  0
   -0.1390   -0.5570   -0.8300 C   0  0  0  0  0  0  0  0  0  0  0  0
    0.9120   -0.8450    0.0580 O   0  0  0  0  0  0  0  0  0  0  0  0
    2.0440   -0.1360    0.0540 O   0  0  0  0  0  0  0  0  0  0  0  0
    3.1580   -0.8930   -0.2050 C   0  0  0  0  0  0  0  0  0  0  0  0
    4.3480    0.0050   -0.1820 C   0  0  0  0  0  0  0  0  0  0  0  0
    4.3580    1.3090    0.0470 C   0  0  0  0  0  0  0  0  0  0  0  0
    5.6690    1.7890   -0.0170 O   0  0  0  0  0  0  0  0  0  0  0  0
    6.4580    0.6260    0.2550 C   0  0  0  0  0  0  0  0  0  0  0  0
    5.6870   -0.3650   -0.3990 O   0  0  0  0  0  0  0  0  0  0  0  0
   -1.4950   -0.7700   -0.4570 N   0  0  0  0  0  0  0  0  0  0  0  0
   -1.8960   -2.1140   -0.1040 C   0  0  0  0  0  0  0  0  0  0  0  0
   -1.7140   -2.3390    1.3440 C   0  0  0  0  0  0  0  0  0  0  0  0
   -2.0170   -3.4630    1.8170 O   0  0  0  0  0  0  0  0  0  0  0  0
   -1.2230   -1.3620    2.1960 O   0  0  0  0  0  0  0  0  0  0  0  0
   -2.4800    0.2520   -0.4090 C   0  0  0  0  0  0  0  0  0  0  0  0
   -2.0720    1.4200   -0.7300 O   0  0  0  0  0  0  0  0  0  0  0  0
   -3.8710    0.0040   -0.0210 C   0  0  0  0  0  0  0  0  0  0  0  0
   -4.6080    1.2350   -0.0730 N   0  0  0  0  0  0  0  0  0  0  0  0
   -4.2000    2.3180    0.7450 C   0  0  0  0  0  0  0  0  0  0  0  0
   -3.2210    2.2240    1.5020 O   0  0  0  0  0  0  0  0  0  0  0  0
   -4.8770    3.5500    0.7430 O   0  0  0  0  0  0  0  0  0  0  0  0
  1  2  2  0
  2  3  1  0
  2 11  1  0
  3  4  1  0
  4  5  1  0
  5  6  1  0
  6  7  2  0
  6 10  1  0
  7  8  1  0
  8  9  1  0
  9 10  1  0
 11 12  1  0
 11 16  1  0
 12 13  1  0
 13 14  2  0
 13 15  1  0
 16 17  2  0
 16 18  1  0
 18 19  1  0
 19 20  1  0
 20 21  2  0
 20 22  1  0
M  END
