
     RDKit          3D

 13 13  0  0  0  0  0  0  0  0999 V2000
   -3.1760    0.6600    0.8610 C   0  0  0  0  0  0  0  0  0  0  0  0
   -2.7280   -0.0020   -0.5970 P   0  0  0  0  0  0  0  0  0  0  0  0
   -2.6620   -0.6610   -1.9810 O   0  0  0  0  0  0  0  0  0  0  0  0
   -3.5840   -1.3920   -0.1760 O   0  0  0  0  0  0  0  0  0  0  0  0
   -1.0310    0.0000   -0.3300 C   0  0  0  0  0  0  0  0  0  0  0  0
   -0.4600   -0.5920    0.7620 C   0  0  0  0  0  0  0  0  0  0  0  0
    0.8980   -0.6010    1.0060 C   0  0  0  0  0  0  0  0  0  0  0  0
    1.7570    0.0060    0.1270 C   0  0  0  0  0  0  0  0  0  0  0  0
    3.2060    0.0330    0.3260 C   0  0  0  0  0  0  0  0  0  0  0  0
    4.0150    0.6870   -0.6390 N   0  0  0  0  0  0  0  0  0  0  0  0
    3.7640   -0.5050    1.3250 N   0  0  0  0  0  0  0  0  0  0  0  0
    1.2050    0.6150   -0.9890 C   0  0  0  0  0  0  0  0  0  0  0  0
   -0.1510    0.6060   -1.2020 C   0  0  0  0  0  0  0  0  0  0  0  0
  1  2  1  0
  2  3  1  0
  2  4  1  0
  2  5  1  0
  5  6  2  0
  5 13  1  0
  6  7  1  0
  7  8  2  0
  8  9  1  0
  8 12  1  0
  9 10  1  0
  9 11  2  0
 12 13  2  0
M  CHG  1  11   1
M  END
