
     RDKit          3D

 22 22  0  0  0  0  0  0  0  0999 V2000
    2.3030   -0.9780    1.6800 O   0  0  0  0  0  0  0  0  0  0  0  0
    2.8820   -0.5740    0.6170 C   0  0  0  0  0  0  0  0  0  0  0  0
    3.8280    0.5720    0.8600 C   0  0  0  0  0  0  0  0  0  0  0  0
    4.4050    0.9490   -0.3410 O   0  0  0  0  0  0  0  0  0  0  0  0
    2.6830   -1.1150   -0.6370 N   0  0  0  0  0  0  0  0  0  0  0  0
    1.6020   -1.1650   -1.2890 C   0  0  0  0  0  0  0  0  0  0  0  0
    1.6120   -1.7540   -2.5360 N   0  0  0  0  0  0  0  0  0  0  0  0
    0.5280   -1.8710   -3.2860 C   0  0  0  0  0  0  0  0  0  0  0  0
    0.5810   -2.4290   -4.4480 O   0  0  0  0  0  0  0  0  0  0  0  0
   -0.6460   -1.4010   -2.8330 N   0  0  0  0  0  0  0  0  0  0  0  0
   -0.7060   -0.8220   -1.6310 C   0  0  0  0  0  0  0  0  0  0  0  0
   -1.8990   -0.3130   -1.1050 O   0  0  0  0  0  0  0  0  0  0  0  0
   -2.7200   -1.2860   -0.4380 C   0  0  0  0  0  0  0  0  0  0  0  0
   -3.9520   -0.6150    0.0730 C   0  0  0  0  0  0  0  0  0  0  0  0
   -3.5730    0.3840    0.9620 O   0  0  0  0  0  0  0  0  0  0  0  0
   -4.6190    1.0250    1.4590 O   0  0  0  0  0  0  0  0  0  0  0  0
    0.4260   -0.6800   -0.8070 C   0  0  0  0  0  0  0  0  0  0  0  0
    0.2650   -0.0600    0.4190 O   0  0  0  0  0  0  0  0  0  0  0  0
    0.3620    1.3490    0.4570 C   0  0  0  0  0  0  0  0  0  0  0  0
    0.1570    1.9560    1.7950 C   0  0  0  0  0  0  0  0  0  0  0  0
    1.0130    1.5840    2.7880 O   0  0  0  0  0  0  0  0  0  0  0  0
    0.6750    2.2210    3.8860 O   0  0  0  0  0  0  0  0  0  0  0  0
  1  2  2  0
  2  3  1  0
  2  5  1  0
  3  4  1  0
  5  6  2  3
  6  7  1  0
  6 17  1  0
  7  8  1  0
  8  9  2  0
  8 10  1  0
 10 11  1  0
 11 12  1  0
 11 17  2  0
 12 13  1  0
 13 14  1  0
 14 15  1  0
 15 16  1  0
 17 18  1  0
 18 19  1  0
 19 20  1  0
 20 21  1  0
 21 22  1  0
M  END
