
     RDKit          3D

 14 14  0  0  0  0  0  0  0  0999 V2000
   -3.5050    1.6270   -0.8400 O   0  0  0  0  0  0  0  0  0  0  0  0
   -3.1930    0.6650   -0.0940 C   0  0  0  0  0  0  0  0  0  0  0  0
   -3.9450    0.2560    0.9990 O   0  0  0  0  0  0  0  0  0  0  0  0
   -3.2360   -0.8580    1.5650 C   0  0  0  0  0  0  0  0  0  0  0  0
   -1.9070   -0.6090    1.2090 O   0  0  0  0  0  0  0  0  0  0  0  0
   -2.0300   -0.2590   -0.1350 C   0  0  2  0  0  0  0  0  0  0  0  0
   -0.8490    0.5280   -0.6350 C   0  0  0  0  0  0  0  0  0  0  0  0
    0.3430   -0.1420   -0.5360 O   0  0  0  0  0  0  0  0  0  0  0  0
    1.3490    0.6870   -1.0270 C   0  0  0  0  0  0  0  0  0  0  0  0
    2.7080   -0.0010   -0.9450 C   0  0  1  0  0  0  0  0  0  0  0  0
    3.6830    0.8550   -1.4440 O   0  0  0  0  0  0  0  0  0  0  0  0
    2.9760   -0.1680    0.4140 O   0  0  0  0  0  0  0  0  0  0  0  0
    3.1460   -1.4330    0.6530 O   0  0  0  0  0  0  0  0  0  0  0  0
    2.8740   -1.6790    1.9360 O   0  0  0  0  0  0  0  0  0  0  0  0
  1  2  2  0
  2  3  1  0
  2  6  1  0
  3  4  1  0
  4  5  1  0
  5  6  1  0
  6  7  1  1
  7  8  1  0
  8  9  1  0
  9 10  1  0
 10 11  1  1
 10 12  1  0
 12 13  1  0
 13 14  1  0
M  END
