
     RDKit          3D

 10  9  0  0  0  0  0  0  0  0999 V2000
    3.6470    0.2790   -1.0430 O   0  0  0  0  0  0  0  0  0  0  0  0
    3.3680    0.6390    0.2810 C   0  0  0  0  0  0  0  0  0  0  0  0
    1.9790    0.6600    0.4720 O   0  0  0  0  0  0  0  0  0  0  0  0
    1.5470   -0.5650    0.2090 O   0  0  0  0  0  0  0  0  0  0  0  0
    0.1520   -0.5290    0.2750 C   0  0  0  0  0  0  0  0  0  0  0  0
   -0.3040   -0.1370    1.5310 O   0  0  0  0  0  0  0  0  0  0  0  0
   -2.0390   -0.1360    1.4710 P   0  0  0  0  0  0  0  0  0  0  0  0
   -2.5670   -1.7470    1.2360 O   0  0  0  0  0  0  0  0  0  0  0  0
   -2.5440    0.9860    0.0760 C   0  0  0  0  0  0  0  0  0  0  0  0
   -2.4970    0.3480   -1.1400 O   0  0  0  0  0  0  0  0  0  0  0  0
  1  2  1  0
  2  3  1  0
  3  4  1  0
  4  5  1  0
  5  6  1  0
  6  7  1  0
  7  8  1  0
  7  9  1  0
  9 10  1  0
M  END
