
     RDKit          3D

 10  9  0  0  0  0  0  0  0  0999 V2000
    1.7660    0.0890   -1.3650 O   0  0  0  0  0  0  0  0  0  0  0  0
    1.2630    0.0540   -0.2260 C   0  0  0  0  0  0  0  0  0  0  0  0
    2.0490    0.3760    0.8660 O   0  0  0  0  0  0  0  0  0  0  0  0
    3.3440    0.7280    0.7490 O   0  0  0  0  0  0  0  0  0  0  0  0
   -0.1610   -0.3300   -0.0750 C   0  0  2  0  0  0  0  0  0  0  0  0
   -0.8090   -0.6340   -1.3850 C   0  0  0  0  0  0  0  0  0  0  0  0
   -0.1220   -1.6900   -1.9770 O   0  0  0  0  0  0  0  0  0  0  0  0
   -1.0160    1.0090    0.8630 P   0  0  0  0  0  0  0  0  0  0  0  0
   -2.5460    1.4160    0.2400 O   0  0  0  0  0  0  0  0  0  0  0  0
   -0.9610    0.8040    2.5570 O   0  0  0  0  0  0  0  0  0  0  0  0
  1  2  2  0
  2  3  1  0
  2  5  1  0
  3  4  1  0
  5  6  1  6
  5  8  1  0
  6  7  1  0
  8  9  1  0
  8 10  1  0
M  END
