
     RDKit          3D

 28 30  0  0  0  0  0  0  0  0999 V2000
   -3.0950    3.4500    1.6800 C   0  0  0  0  0  0  0  0  0  0  0  0
   -3.4490    2.0240    2.0370 C   0  0  0  0  0  0  0  0  0  0  0  0
   -2.8130    1.0240    1.1380 N   0  0  0  0  0  0  0  0  0  0  0  0
   -2.8610    1.1690   -0.2720 C   0  0  0  0  0  0  0  0  0  0  0  0
   -3.7980    1.6180   -0.9410 N   0  0  0  0  0  0  0  0  0  0  0  0
   -1.4800    0.6960   -0.6990 C   0  0  0  0  0  0  0  0  0  0  0  0
   -1.0930   -0.4220    0.2460 C   0  0  2  0  0  0  0  0  0  0  0  0
    0.2140   -0.3380    0.8650 C   0  0  0  0  0  0  0  0  0  0  0  0
    1.4570   -0.2080    0.0610 C   0  0  0  0  0  0  0  0  0  0  0  0
    1.7240   -0.5660   -1.1820 N   0  0  0  0  0  0  0  0  0  0  0  0
    2.9320   -0.2170   -1.6030 C   0  0  0  0  0  0  0  0  0  0  0  0
    3.5470   -0.4520   -2.8570 N   0  0  0  0  0  0  0  0  0  0  0  0
    3.5370    0.4480   -0.5130 C   0  0  0  0  0  0  0  0  0  0  0  0
    4.8720    1.0520   -0.7190 C   0  0  0  0  0  0  0  0  0  0  0  0
    5.9040    0.5740    0.1480 N   0  0  0  0  0  0  0  0  0  0  0  0
    2.6190    0.4300    0.4680 C   0  0  0  0  0  0  0  0  0  0  0  0
    2.7780    1.1430    1.7830 C   0  0  0  0  0  0  0  0  0  0  0  0
    3.2240    0.5810    2.8100 O   0  0  0  0  0  0  0  0  0  0  0  0
   -1.6830   -1.6970   -0.2140 C   0  0  0  0  0  0  0  0  0  0  0  0
   -0.9940   -2.6830   -0.8960 C   0  0  0  0  0  0  0  0  0  0  0  0
   -1.5980   -3.8350   -1.4190 C   0  0  0  0  0  0  0  0  0  0  0  0
   -0.8340   -4.7320   -2.1480 F   0  0  0  0  0  0  0  0  0  0  0  0
   -2.9390   -4.0430   -1.2580 C   0  0  0  0  0  0  0  0  0  0  0  0
   -3.6430   -3.0580   -0.5620 C   0  0  0  0  0  0  0  0  0  0  0  0
   -5.3610   -3.3420   -0.2890 Cl  0  0  0  0  0  0  0  0  0  0  0  0
   -3.0350   -1.9400   -0.0730 C   0  0  0  0  0  0  0  0  0  0  0  0
   -1.9760   -0.0140    1.4980 C   0  0  0  0  0  0  0  0  0  0  0  0
   -1.8050   -0.6560    2.5720 O   0  0  0  0  0  0  0  0  0  0  0  0
  1  2  1  0
  2  3  1  0
  3  4  1  0
  3 27  1  0
  4  5  2  0
  4  6  1  0
  6  7  1  0
  7  8  1  1
  7 19  1  0
  7 27  1  0
  8  9  1  0
  9 10  1  0
  9 16  2  0
 10 11  1  0
 11 12  1  0
 11 13  2  0
 13 14  1  0
 13 16  1  0
 14 15  1  0
 16 17  1  0
 17 18  2  0
 19 20  2  0
 19 26  1  0
 20 21  1  0
 21 22  1  0
 21 23  2  0
 23 24  1  0
 24 25  1  0
 24 26  2  0
 27 28  2  0
M  CHG  1  15   1
M  END
