
     RDKit          3D

 27 29  0  0  0  0  0  0  0  0999 V2000
    4.0610    2.7960   -0.0160 C   0  0  0  0  0  0  0  0  0  0  0  0
    4.3280    1.5200    0.7600 C   0  0  0  0  0  0  0  0  0  0  0  0
    4.0110    0.3320   -0.0810 C   0  0  0  0  0  0  0  0  0  0  0  0
    4.9360   -0.4360   -0.6740 N   0  0  0  0  0  0  0  0  0  0  0  0
    4.3160   -1.4110   -1.3500 C   0  0  0  0  0  0  0  0  0  0  0  0
    2.9220   -1.2640   -1.1830 C   0  0  0  0  0  0  0  0  0  0  0  0
    2.7390   -0.1670   -0.3870 C   0  0  0  0  0  0  0  0  0  0  0  0
    1.4240    0.3930    0.0270 C   0  0  0  0  0  0  0  0  0  0  0  0
    0.6030    0.6760   -1.1840 C   0  0  0  0  0  0  0  0  0  0  0  0
    1.2650    0.7280   -2.2870 O   0  0  0  0  0  0  0  0  0  0  0  0
   -0.7840    0.8820   -1.2140 N   0  0  0  0  0  0  0  0  0  0  0  0
   -1.7660    0.7150   -0.2130 C   0  0  0  0  0  0  0  0  0  0  0  0
   -2.8200    1.5700   -0.3350 C   0  0  0  0  0  0  0  0  0  0  0  0
   -4.0240    1.6860    0.5200 C   0  0  0  0  0  0  0  0  0  0  0  0
   -4.6540    2.9860    0.0720 C   0  0  0  0  0  0  0  0  0  0  0  0
   -4.3650    2.9690   -1.4120 C   0  0  0  0  0  0  0  0  0  0  0  0
   -2.9740    2.5540   -1.3800 N   0  0  0  0  0  0  0  0  0  0  0  0
   -1.7450   -0.2620    0.8700 C   0  0  0  0  0  0  0  0  0  0  0  0
   -1.8950    0.5190    2.4920 Cl  0  0  0  0  0  0  0  0  0  0  0  0
   -1.6340   -1.5730    0.8280 C   0  0  0  0  0  0  0  0  0  0  0  0
   -1.6540   -2.2780    2.1800 C   0  0  0  0  0  0  0  0  0  0  0  0
   -0.4980   -3.0160    2.4970 N   0  0  0  0  0  0  0  0  0  0  0  0
   -1.5280   -2.4440   -0.2750 N   0  0  0  0  0  0  0  0  0  0  0  0
   -0.6600   -2.4440   -1.4210 C   0  0  0  0  0  0  0  0  0  0  0  0
    0.7380   -2.6870   -0.9440 C   0  0  0  0  0  0  0  0  0  0  0  0
    1.8180   -2.0750   -1.7040 C   0  0  0  0  0  0  0  0  0  0  0  0
    1.8290   -2.2530   -2.9760 O   0  0  0  0  0  0  0  0  0  0  0  0
  1  2  1  0
  2  3  1  0
  3  4  1  0
  3  7  2  0
  4  5  1  0
  5  6  2  0
  6  7  1  0
  6 26  1  0
  7  8  1  0
  8  9  1  0
  9 10  2  0
  9 11  1  0
 11 12  1  0
 12 13  2  3
 12 18  1  0
 13 14  1  0
 13 17  1  0
 14 15  1  0
 15 16  1  0
 16 17  1  0
 18 19  1  0
 18 20  2  0
 20 21  1  0
 20 23  1  0
 21 22  1  0
 23 24  1  0
 24 25  1  0
 25 26  1  0
 26 27  2  0
M  CHG  1  22   1
M  END
