
     RDKit          3D

 28 30  0  0  0  0  0  0  0  0999 V2000
    8.0840    1.1550    0.9800 C   0  0  0  0  0  0  0  0  0  0  0  0
    7.1450    0.6660   -0.0880 C   0  0  0  0  0  0  0  0  0  0  0  0
    6.1090   -0.2160    0.4670 N   0  0  0  0  0  0  0  0  0  0  0  0
    5.0560   -0.2320   -0.4750 C   0  0  0  0  0  0  0  0  0  0  0  0
    5.2770   -0.6440   -1.7470 C   0  0  0  0  0  0  0  0  0  0  0  0
    4.2080   -0.6420   -2.6400 C   0  0  0  0  0  0  0  0  0  0  0  0
    4.4270   -1.0530   -3.9080 F   0  0  0  0  0  0  0  0  0  0  0  0
    2.9440   -0.2230   -2.2240 C   0  0  0  0  0  0  0  0  0  0  0  0
    1.6600   -0.2500   -3.4010 Cl  0  0  0  0  0  0  0  0  0  0  0  0
    2.7190    0.1950   -0.9320 C   0  0  0  0  0  0  0  0  0  0  0  0
    1.3960    0.6290   -0.5160 C   0  0  0  0  0  0  0  0  0  0  0  0
    1.0740    1.8580   -0.6300 O   0  0  0  0  0  0  0  0  0  0  0  0
    0.4060   -0.2300    0.0210 N   0  0  0  0  0  0  0  0  0  0  0  0
   -0.8980    0.1960    0.4300 C   0  0  2  0  0  0  0  0  0  0  0  0
   -1.2360   -0.0600    1.8640 C   0  0  0  0  0  0  0  0  0  0  0  0
   -2.6360   -0.4900    1.8610 C   0  0  0  0  0  0  0  0  0  0  0  0
   -3.3330   -0.8950    2.8550 O   0  0  0  0  0  0  0  0  0  0  0  0
   -3.1480   -0.3940    0.5400 N   0  0  0  0  0  0  0  0  0  0  0  0
   -4.5120   -0.2860    0.1560 C   0  0  0  0  0  0  0  0  0  0  0  0
   -5.2130   -1.3840   -0.2790 C   0  0  0  0  0  0  0  0  0  0  0  0
   -6.5570   -1.2770   -0.6580 C   0  0  0  0  0  0  0  0  0  0  0  0
   -7.2490   -2.4230   -1.1010 N   0  0  0  0  0  0  0  0  0  0  0  0
   -7.1240   -0.0280   -0.5690 C   0  0  0  0  0  0  0  0  0  0  0  0
   -6.4290    1.0760   -0.1350 C   0  0  0  0  0  0  0  0  0  0  0  0
   -7.1020    2.3380   -0.0750 N   0  0  0  0  0  0  0  0  0  0  0  0
   -5.1000    0.9550    0.2370 C   0  0  0  0  0  0  0  0  0  0  0  0
   -2.0100   -0.4240   -0.3900 C   0  0  0  0  0  0  0  0  0  0  0  0
    3.8040    0.1780   -0.0790 C   0  0  0  0  0  0  0  0  0  0  0  0
  1  2  1  0
  2  3  1  0
  3  4  1  0
  4  5  2  0
  4 28  1  0
  5  6  1  0
  6  7  1  0
  6  8  2  0
  8  9  1  0
  8 10  1  0
 10 11  1  0
 10 28  2  0
 11 12  2  0
 11 13  1  0
 14 13  1  6
 14 15  1  0
 14 27  1  0
 15 16  1  0
 16 17  2  0
 16 18  1  0
 18 19  1  0
 18 27  1  0
 19 20  2  0
 19 26  1  0
 20 21  1  0
 21 22  1  0
 21 23  2  0
 23 24  1  0
 24 25  1  0
 24 26  2  0
M  CHG  1   3   1
M  END
