
     RDKit          3D

 28 30  0  0  0  0  0  0  0  0999 V2000
   -5.7430    1.2370   -1.1090 C   0  0  0  0  0  0  0  0  0  0  0  0
   -4.1460    1.2730   -1.0690 C   0  0  0  0  0  0  0  0  0  0  0  0
   -3.7360    2.4960   -1.1100 C   0  0  0  0  0  0  0  0  0  0  0  0
   -2.5180    2.9960   -1.1160 F   0  0  0  0  0  0  0  0  0  0  0  0
   -3.5250    0.0510   -0.7120 C   0  0  0  0  0  0  0  0  0  0  0  0
   -2.2620   -0.2380   -0.1180 C   0  0  0  0  0  0  0  0  0  0  0  0
   -1.2750    0.2930    0.4800 C   0  0  0  0  0  0  0  0  0  0  0  0
   -1.0650    1.6140    0.8570 N   0  0  0  0  0  0  0  0  0  0  0  0
    0.1250    2.1880    1.3950 C   0  0  0  0  0  0  0  0  0  0  0  0
    0.1880    3.5650    1.7290 N   0  0  0  0  0  0  0  0  0  0  0  0
    1.1490    1.3880    1.5630 C   0  0  0  0  0  0  0  0  0  0  0  0
    1.0170   -0.0060    1.2020 C   0  0  0  0  0  0  0  0  0  0  0  0
   -0.0660   -0.5780    0.6990 C   0  0  0  0  0  0  0  0  0  0  0  0
    0.0330   -1.9950    0.4060 C   0  0  0  0  0  0  0  0  0  0  0  0
    1.2920   -2.1270   -0.4940 C   0  0  0  0  0  0  0  0  0  0  0  0
    2.3880   -1.6550    0.2190 N   0  0  0  0  0  0  0  0  0  0  0  0
    3.6190   -1.4820   -0.4560 C   0  0  1  0  0  0  0  0  0  0  0  0
    3.4870   -0.4530   -1.5220 C   0  0  0  0  0  0  0  0  0  0  0  0
    4.4140    0.6910   -1.3990 C   0  0  0  0  0  0  0  0  0  0  0  0
    4.5860    1.4170   -2.4110 O   0  0  0  0  0  0  0  0  0  0  0  0
    5.1240    1.0300   -0.2170 N   0  0  0  0  0  0  0  0  0  0  0  0
    5.2560    0.0560    0.7650 N   0  0  0  0  0  0  0  0  0  0  0  0
    4.6810   -1.2140    0.5430 C   0  0  0  0  0  0  0  0  0  0  0  0
    5.0900   -2.1840    1.2300 O   0  0  0  0  0  0  0  0  0  0  0  0
    2.1850   -0.9360    1.4080 C   0  0  0  0  0  0  0  0  0  0  0  0
   -4.2680   -1.0760   -1.0610 C   0  0  0  0  0  0  0  0  0  0  0  0
   -3.7080   -2.4090   -0.7090 C   0  0  0  0  0  0  0  0  0  0  0  0
   -5.6990   -0.9610   -1.9960 Cl  0  0  0  0  0  0  0  0  0  0  0  0
  1  2  1  0
  2  3  2  3
  2  5  1  0
  3  4  1  0
  5  6  1  0
  5 26  2  3
  6  7  2  3
  7  8  1  0
  7 13  1  0
  8  9  1  0
  9 10  1  0
  9 11  2  0
 11 12  1  0
 12 13  2  0
 12 25  1  0
 13 14  1  0
 14 15  1  0
 15 16  1  0
 17 16  1  1
 16 25  1  0
 17 18  1  0
 17 23  1  0
 18 19  1  0
 19 20  2  0
 19 21  1  0
 21 22  1  0
 22 23  1  0
 23 24  2  0
 26 27  1  0
 26 28  1  0
M  END
