
     RDKit          3D

 28 30  0  0  0  0  0  0  0  0999 V2000
    2.5050    1.6890   -0.3330 C   0  0  0  0  0  0  0  0  0  0  0  0
    2.2680    0.4130    0.4900 C   0  0  2  0  0  0  0  0  0  0  0  0
    3.4800   -0.0360    0.9980 O   0  0  0  0  0  0  0  0  0  0  0  0
    4.6000   -0.4220    0.3340 C   0  0  0  0  0  0  0  0  0  0  0  0
    5.6000    0.4680   -0.0190 C   0  0  0  0  0  0  0  0  0  0  0  0
    6.7340    0.0600   -0.6930 C   0  0  0  0  0  0  0  0  0  0  0  0
    6.9020   -1.2500   -1.0350 C   0  0  0  0  0  0  0  0  0  0  0  0
    8.3600   -1.7010   -1.8870 Cl  0  0  0  0  0  0  0  0  0  0  0  0
    5.9270   -2.1600   -0.6990 C   0  0  0  0  0  0  0  0  0  0  0  0
    4.7910   -1.7350   -0.0200 C   0  0  0  0  0  0  0  0  0  0  0  0
    3.8420   -2.7180    0.2950 N   0  0  0  0  0  0  0  0  0  0  0  0
    1.4840   -0.5930   -0.3030 C   0  0  0  0  0  0  0  0  0  0  0  0
    0.3230    0.0760   -0.8520 N   0  0  0  0  0  0  0  0  0  0  0  0
   -0.4660    0.8670    0.0280 C   0  0  0  0  0  0  0  0  0  0  0  0
   -1.6500    1.2470   -0.2720 N   0  0  0  0  0  0  0  0  0  0  0  0
   -2.3990    2.0490    0.6660 C   0  0  0  0  0  0  0  0  0  0  0  0
   -3.8180    2.2070    0.2260 C   0  0  0  0  0  0  0  0  0  0  0  0
   -4.5490    0.9190    0.1080 C   0  0  0  0  0  0  0  0  0  0  0  0
   -3.9740   -0.2570    0.5020 C   0  0  0  0  0  0  0  0  0  0  0  0
   -4.7300   -1.4220    0.3610 C   0  0  0  0  0  0  0  0  0  0  0  0
   -5.9980   -1.4250   -0.1470 C   0  0  0  0  0  0  0  0  0  0  0  0
   -6.7670   -2.6080   -0.2910 N   0  0  0  0  0  0  0  0  0  0  0  0
   -6.5410   -0.2230   -0.5310 C   0  0  0  0  0  0  0  0  0  0  0  0
   -5.8460    0.9550   -0.4170 C   0  0  0  0  0  0  0  0  0  0  0  0
   -6.3950    2.1360   -0.8010 F   0  0  0  0  0  0  0  0  0  0  0  0
    0.0870    1.2540    1.3050 N   0  0  0  0  0  0  0  0  0  0  0  0
    1.4020    0.8330    1.6390 C   0  0  0  0  0  0  0  0  0  0  0  0
    1.8160    0.8110    2.8250 O   0  0  0  0  0  0  0  0  0  0  0  0
  2  1  1  6
  2  3  1  0
  2 12  1  0
  2 27  1  0
  3  4  1  0
  4  5  2  0
  4 10  1  0
  5  6  1  0
  6  7  2  0
  7  8  1  0
  7  9  1  0
  9 10  2  0
 10 11  1  0
 12 13  1  0
 13 14  1  0
 14 15  2  3
 14 26  1  0
 15 16  1  0
 16 17  1  0
 17 18  1  0
 18 19  2  0
 18 24  1  0
 19 20  1  0
 20 21  2  0
 21 22  1  0
 21 23  1  0
 23 24  2  0
 24 25  1  0
 26 27  1  0
 27 28  2  0
M  CHG  1  15   1
M  END
