
     RDKit          3D

 11 11  0  0  0  0  0  0  0  0999 V2000
    3.9670   -0.3540    0.5270 N   0  0  0  0  0  0  0  0  0  0  0  0
    2.6970   -0.5890   -0.1350 C   0  0  0  0  0  0  0  0  0  0  0  0
    2.4180   -1.7140   -0.5970 O   0  0  0  0  0  0  0  0  0  0  0  0
    1.7810    0.4240   -0.2640 O   0  0  0  0  0  0  0  0  0  0  0  0
    0.5180    0.3980   -0.8480 C   0  0  0  0  0  0  0  0  0  0  0  0
   -0.3950   -0.5060   -0.1000 C   0  0  1  0  0  0  0  0  0  0  0  0
   -0.0210   -1.8310   -0.0370 O   0  0  0  0  0  0  0  0  0  0  0  0
   -0.4900    0.0810    1.3210 C   0  0  0  0  0  0  0  0  0  0  0  0
   -1.4860    1.2100    1.1740 C   0  0  0  0  0  0  0  0  0  0  0  0
   -2.4280    0.7970    0.0770 C   0  0  0  0  0  0  0  0  0  0  0  0
   -1.8230   -0.4030   -0.6070 C   0  0  0  0  0  0  0  0  0  0  0  0
  1  2  1  0
  2  3  2  0
  2  4  1  0
  4  5  1  0
  5  6  1  0
  6  7  1  1
  6  8  1  0
  6 11  1  0
  8  9  1  0
  9 10  1  0
 10 11  1  0
M  END
