
     RDKit          3D

 25 28  0  0  0  0  0  0  0  0999 V2000
    9.1160    0.9480    0.4040 F   0  0  0  0  0  0  0  0  0  0  0  0
    7.7900    0.7380    0.5600 C   0  0  0  0  0  0  0  0  0  0  0  0
    6.8840    0.8580   -0.4840 C   0  0  0  0  0  0  0  0  0  0  0  0
    5.5360    0.6350   -0.2870 C   0  0  0  0  0  0  0  0  0  0  0  0
    5.0290    0.2840    0.9570 C   0  0  0  0  0  0  0  0  0  0  0  0
    3.6370    0.0580    1.1440 N   0  0  0  0  0  0  0  0  0  0  0  0
    3.2070   -1.1560    1.2340 C   0  0  0  0  0  0  0  0  0  0  0  0
    1.8240   -1.4290    1.4210 N   0  0  0  0  0  0  0  0  0  0  0  0
    0.9720   -1.1540    0.5150 C   0  0  0  0  0  0  0  0  0  0  0  0
    1.3460   -0.5290   -0.8030 C   0  0  0  0  0  0  0  0  0  0  0  0
    0.5310    0.7010   -1.0410 C   0  0  0  0  0  0  0  0  0  0  0  0
   -0.9160    0.4740   -0.7680 C   0  0  0  0  0  0  0  0  0  0  0  0
   -1.6860    1.3880   -1.3830 C   0  0  0  0  0  0  0  0  0  0  0  0
   -3.1040    1.5090   -1.3670 N   0  0  0  0  0  0  0  0  0  0  0  0
   -4.0550    0.5860   -0.8000 C   0  0  0  0  0  0  0  0  0  0  0  0
   -3.7930   -0.4820   -0.0660 C   0  0  0  0  0  0  0  0  0  0  0  0
   -5.0020   -1.2600    0.3890 C   0  0  0  0  0  0  0  0  0  0  0  0
   -6.0090   -0.2220    0.8370 C   0  0  0  0  0  0  0  0  0  0  0  0
   -6.4480    0.5130   -0.3040 N   0  0  0  0  0  0  0  0  0  0  0  0
   -5.4130    1.0000   -1.1570 C   0  0  0  0  0  0  0  0  0  0  0  0
   -2.5790   -1.0240    0.3690 N   0  0  0  0  0  0  0  0  0  0  0  0
   -1.3900   -0.6190    0.0720 C   0  0  0  0  0  0  0  0  0  0  0  0
   -0.4090   -1.4310    0.7120 N   0  0  0  0  0  0  0  0  0  0  0  0
    5.9410    0.1700    1.9790 C   0  0  0  0  0  0  0  0  0  0  0  0
    7.2910    0.3870    1.8060 C   0  0  0  0  0  0  0  0  0  0  0  0
  1  2  1  0
  2  3  2  0
  2 25  1  0
  3  4  1  0
  4  5  2  0
  5  6  1  0
  5 24  1  0
  6  7  2  3
  7  8  1  0
  8  9  2  3
  9 10  1  0
  9 23  1  0
 10 11  1  0
 11 12  1  0
 12 13  2  0
 12 22  1  0
 13 14  1  0
 14 15  1  0
 15 16  2  0
 15 20  1  0
 16 17  1  0
 16 21  1  0
 17 18  1  0
 18 19  1  0
 19 20  1  0
 21 22  2  0
 22 23  1  0
 24 25  2  0
M  CHG  1  19   1
M  END
