
     RDKit          3D

 11 11  0  0  0  0  0  0  0  0999 V2000
   -0.4290   -2.4730   -0.3790 N   0  0  0  0  0  0  0  0  0  0  0  0
   -0.7070   -1.0960   -0.1590 C   0  0  0  0  0  0  0  0  0  0  0  0
   -2.0030   -0.6320   -0.0430 C   0  0  0  0  0  0  0  0  0  0  0  0
   -2.2830    0.7040    0.1720 C   0  0  0  0  0  0  0  0  0  0  0  0
   -3.5860    1.1750    0.2890 O   0  0  0  0  0  0  0  0  0  0  0  0
   -1.2000    1.5570    0.2660 C   0  0  0  0  0  0  0  0  0  0  0  0
    0.0930    1.0900    0.1500 C   0  0  0  0  0  0  0  0  0  0  0  0
    0.3740   -0.2440   -0.0650 C   0  0  0  0  0  0  0  0  0  0  0  0
    1.6590   -0.7230   -0.1830 O   0  0  0  0  0  0  0  0  0  0  0  0
    2.8200    0.0610   -0.1020 C   0  0  0  0  0  0  0  0  0  0  0  0
    2.9760    0.7240    1.0900 O   0  0  0  0  0  0  0  0  0  0  0  0
  1  2  1  0
  2  3  2  0
  2  8  1  0
  3  4  1  0
  4  5  1  0
  4  6  2  0
  6  7  1  0
  7  8  2  0
  8  9  1  0
  9 10  1  0
 10 11  1  0
M  END
