
     RDKit          3D

 11 11  0  0  0  0  0  0  0  0999 V2000
    4.1090   -0.1670   -0.0280 N   0  0  0  0  0  0  0  0  0  0  0  0
    2.8320   -0.4240    0.5330 C   0  0  0  0  0  0  0  0  0  0  0  0
    2.8050   -1.1240    1.6020 O   0  0  0  0  0  0  0  0  0  0  0  0
    1.5760    0.0850   -0.0760 C   0  0  0  0  0  0  0  0  0  0  0  0
    0.5090   -0.3410    0.7130 O   0  0  0  0  0  0  0  0  0  0  0  0
   -0.8300   -0.0340    0.4220 C   0  0  0  0  0  0  0  0  0  0  0  0
   -1.4380    1.0520    0.8560 C   0  0  0  0  0  0  0  0  0  0  0  0
   -2.8180    1.0400    0.3610 C   0  0  0  0  0  0  0  0  0  0  0  0
   -2.9310   -0.2000   -0.4220 C   0  0  0  0  0  0  0  0  0  0  0  0
   -1.7640   -0.8100   -0.3730 C   0  0  0  0  0  0  0  0  0  0  0  0
   -1.4530   -2.0290   -0.9920 O   0  0  0  0  0  0  0  0  0  0  0  0
  1  2  1  0
  2  3  2  0
  2  4  1  0
  4  5  1  0
  5  6  1  0
  6  7  2  0
  6 10  1  0
  7  8  1  0
  8  9  1  0
  9 10  2  0
 10 11  1  0
M  END
