
     RDKit          3D

 46 50  0  0  0  0  0  0  0  0999 V2000
    0.2050    6.6240    1.3370 C   0  0  0  0  0  0  0  0  0  0  0  0
   -0.1590    5.4250    1.1540 N   0  0  0  0  0  0  0  0  0  0  0  0
   -1.0910    5.0550    0.1430 N   0  0  0  0  0  0  0  0  0  0  0  0
   -2.4350    5.4880    0.2180 C   0  0  0  0  0  0  0  0  0  0  0  0
   -3.5160    4.7030    0.0630 C   0  0  0  0  0  0  0  0  0  0  0  0
   -3.5030    3.2690    0.5370 C   0  0  0  0  0  0  0  0  0  0  0  0
   -3.8000    2.9040    1.8360 C   0  0  0  0  0  0  0  0  0  0  0  0
   -3.7790    1.5800    2.2790 C   0  0  0  0  0  0  0  0  0  0  0  0
   -3.4580    0.5150    1.4600 C   0  0  0  0  0  0  0  0  0  0  0  0
   -3.1630    0.8750    0.1640 C   0  0  0  0  0  0  0  0  0  0  0  0
   -3.1840    2.2060   -0.2800 C   0  0  0  0  0  0  0  0  0  0  0  0
   -3.4180   -0.8870    1.9390 N   0  0  0  0  0  0  0  0  0  0  0  0
   -4.5460   -1.7760    1.8800 C   0  0  0  0  0  0  0  0  0  0  0  0
   -5.0260   -1.9680    3.1120 O   0  0  0  0  0  0  0  0  0  0  0  0
   -5.1420   -2.4040    0.7750 N   0  0  0  0  0  0  0  0  0  0  0  0
   -4.7730   -3.6430    0.1200 C   0  0  0  0  0  0  0  0  0  0  0  0
   -3.5150   -4.1100   -0.1130 C   0  0  0  0  0  0  0  0  0  0  0  0
   -3.6680   -5.3740   -0.7250 C   0  0  0  0  0  0  0  0  0  0  0  0
   -4.9750   -5.6290   -0.8480 N   0  0  0  0  0  0  0  0  0  0  0  0
   -5.6270   -4.6200   -0.3560 N   0  0  0  0  0  0  0  0  0  0  0  0
   -7.0960   -4.5310   -0.3200 C   0  0  0  0  0  0  0  0  0  0  0  0
   -2.2500   -3.4350    0.1650 C   0  0  0  0  0  0  0  0  0  0  0  0
   -1.7130   -2.3930   -0.4600 C   0  0  0  0  0  0  0  0  0  0  0  0
   -1.3460   -2.3330   -1.8720 C   0  0  0  0  0  0  0  0  0  0  0  0
   -2.0490   -1.5470   -2.6270 O   0  0  0  0  0  0  0  0  0  0  0  0
   -0.2840   -3.0650   -2.4790 N   0  0  0  0  0  0  0  0  0  0  0  0
    1.1190   -2.9610   -2.0750 C   0  0  0  0  0  0  0  0  0  0  0  0
    1.5670   -1.5550   -1.7010 C   0  0  0  0  0  0  0  0  0  0  0  0
    1.4760   -0.5070   -2.5820 C   0  0  0  0  0  0  0  0  0  0  0  0
    1.8560    0.7960   -2.1940 C   0  0  0  0  0  0  0  0  0  0  0  0
    2.3400    1.1450   -0.9470 C   0  0  0  0  0  0  0  0  0  0  0  0
    2.4280    0.0780   -0.0690 C   0  0  0  0  0  0  0  0  0  0  0  0
    2.8210   -0.0270    1.3440 N   0  0  0  0  0  0  0  0  0  0  0  0
    3.9120   -0.4030    1.8180 C   0  0  0  0  0  0  0  0  0  0  0  0
    5.1370   -0.8520    1.2230 C   0  0  0  0  0  0  0  0  0  0  0  0
    6.1540   -1.2170    2.0310 C   0  0  0  0  0  0  0  0  0  0  0  0
    7.4030   -1.6770    1.3900 C   0  0  0  0  0  0  0  0  0  0  0  0
    7.8500   -0.6070    0.4360 C   0  0  0  0  0  0  0  0  0  0  0  0
    6.7920   -0.3430   -0.5830 C   0  0  0  0  0  0  0  0  0  0  0  0
    5.4440   -0.9500   -0.2180 C   0  0  0  0  0  0  0  0  0  0  0  0
    2.0430   -1.2520   -0.4570 C   0  0  0  0  0  0  0  0  0  0  0  0
    2.6910    2.5770   -0.6120 C   0  0  0  0  0  0  0  0  0  0  0  0
    3.7970    3.2570   -0.6760 O   0  0  0  0  0  0  0  0  0  0  0  0
    1.6390    3.4580   -0.1060 N   0  0  0  0  0  0  0  0  0  0  0  0
    0.2640    3.0760   -0.3630 C   0  0  0  0  0  0  0  0  0  0  0  0
   -0.5250    4.2430   -0.9110 C   0  0  0  0  0  0  0  0  0  0  0  0
  1  2  2  0
  2  3  1  0
  3  4  1  0
  3 46  1  0
  4  5  2  0
  5  6  1  0
  6  7  2  0
  6 11  1  0
  7  8  1  0
  8  9  2  0
  9 10  1  0
  9 12  1  0
 10 11  2  0
 12 13  1  0
 13 14  2  0
 13 15  1  0
 15 16  1  0
 16 17  2  0
 16 20  1  0
 17 18  1  0
 17 22  1  0
 18 19  2  0
 19 20  1  0
 20 21  1  0
 22 23  2  0
 23 24  1  0
 24 25  2  0
 24 26  1  0
 26 27  1  0
 27 28  1  0
 28 29  2  0
 28 41  1  0
 29 30  1  0
 30 31  2  0
 31 32  1  0
 31 42  1  0
 32 33  1  0
 32 41  2  0
 33 34  2  3
 34 35  1  0
 35 36  2  0
 35 40  1  0
 36 37  1  0
 37 38  1  0
 38 39  1  0
 39 40  1  0
 42 43  2  0
 42 44  1  0
 44 45  1  0
 45 46  1  0
M  END
