
     RDKit          3D

 46 52  0  0  0  0  0  0  0  0999 V2000
   -3.1050    4.5630   -3.0870 C   0  0  0  0  0  0  0  0  0  0  0  0
   -4.3010    4.0380   -2.3210 C   0  0  0  0  0  0  0  0  0  0  0  0
   -3.8230    3.2670   -1.1350 C   0  0  0  0  0  0  0  0  0  0  0  0
   -3.5970    3.8900    0.0900 C   0  0  0  0  0  0  0  0  0  0  0  0
   -3.1700    2.8990    0.9440 C   0  0  0  0  0  0  0  0  0  0  0  0
   -3.1530    1.7240    0.2170 C   0  0  0  0  0  0  0  0  0  0  0  0
   -2.7590    0.4530    0.7690 C   0  0  0  0  0  0  0  0  0  0  0  0
   -3.3280   -0.7280    0.5250 C   0  0  0  0  0  0  0  0  0  0  0  0
   -2.7350   -1.9010    1.2190 C   0  0  0  0  0  0  0  0  0  0  0  0
   -1.3780   -2.1180    0.7340 N   0  0  0  0  0  0  0  0  0  0  0  0
   -0.4410   -3.0220    1.3440 C   0  0  0  0  0  0  0  0  0  0  0  0
   -0.7110   -4.3030    1.6980 C   0  0  0  0  0  0  0  0  0  0  0  0
    0.4430   -4.7780    2.2770 N   0  0  0  0  0  0  0  0  0  0  0  0
    1.3730   -3.8570    2.2800 N   0  0  0  0  0  0  0  0  0  0  0  0
    0.8970   -2.7530    1.7210 C   0  0  0  0  0  0  0  0  0  0  0  0
    1.6380   -1.5380    1.4470 C   0  0  0  0  0  0  0  0  0  0  0  0
    1.0100   -0.6960    0.6730 O   0  0  0  0  0  0  0  0  0  0  0  0
    2.8850   -1.1110    1.8530 N   0  0  0  0  0  0  0  0  0  0  0  0
    3.7020   -1.8280    2.8150 C   0  0  0  0  0  0  0  0  0  0  0  0
    4.9030   -2.4380    2.1610 C   0  0  0  0  0  0  0  0  0  0  0  0
    5.5760   -1.5050    1.2020 C   0  0  0  0  0  0  0  0  0  0  0  0
    4.7070   -0.5660    0.4770 C   0  0  0  0  0  0  0  0  0  0  0  0
    3.6160    0.0510    1.3330 C   0  0  1  0  0  0  0  0  0  0  0  0
    2.7900    1.0170    0.5850 C   0  0  0  0  0  0  0  0  0  0  0  0
    3.5340    2.1560    0.1280 N   0  0  0  0  0  0  0  0  0  0  0  0
    4.0260    3.0630    1.0670 C   0  0  0  0  0  0  0  0  0  0  0  0
    4.4560    4.3390    0.3330 C   0  0  0  0  0  0  0  0  0  0  0  0
    5.5630    3.9200   -0.5630 C   0  0  0  0  0  0  0  0  0  0  0  0
    6.8410    4.3520   -0.8580 C   0  0  0  0  0  0  0  0  0  0  0  0
    7.3360    3.5110   -1.7890 N   0  0  0  0  0  0  0  0  0  0  0  0
    6.4260    2.5870   -2.0790 N   0  0  0  0  0  0  0  0  0  0  0  0
    5.3450    2.8110   -1.3520 C   0  0  0  0  0  0  0  0  0  0  0  0
    3.9930    2.1650   -1.1950 C   0  0  0  0  0  0  0  0  0  0  0  0
   -1.9540   -5.0090    1.4840 N   0  0  0  0  0  0  0  0  0  0  0  0
   -2.5710   -5.4530    0.3080 C   0  0  0  0  0  0  0  0  0  0  0  0
   -2.8640   -6.7560    0.1960 O   0  0  0  0  0  0  0  0  0  0  0  0
   -2.9680   -4.7610   -0.8530 N   0  0  0  0  0  0  0  0  0  0  0  0
   -4.0980   -3.9310   -1.1330 C   0  0  0  0  0  0  0  0  0  0  0  0
   -3.6640   -2.6750   -1.8300 C   0  0  0  0  0  0  0  0  0  0  0  0
   -4.6430   -1.6170   -1.4250 C   0  0  0  0  0  0  0  0  0  0  0  0
   -5.8020   -1.5140   -2.1990 C   0  0  0  0  0  0  0  0  0  0  0  0
   -6.7610   -0.5690   -1.9180 C   0  0  0  0  0  0  0  0  0  0  0  0
   -6.6200    0.3070   -0.8720 C   0  0  0  0  0  0  0  0  0  0  0  0
   -5.4850    0.2040   -0.1180 C   0  0  0  0  0  0  0  0  0  0  0  0
   -4.4800   -0.7510   -0.3730 C   0  0  0  0  0  0  0  0  0  0  0  0
   -3.5520    1.9950   -1.0210 O   0  0  0  0  0  0  0  0  0  0  0  0
  1  2  1  0
  2  3  1  0
  3  4  2  0
  3 46  1  0
  4  5  1  0
  5  6  2  0
  6  7  1  0
  6 46  1  0
  7  8  2  3
  8  9  1  0
  8 45  1  0
  9 10  1  0
 10 11  1  0
 11 12  1  0
 11 15  2  0
 12 13  2  0
 12 34  1  0
 13 14  1  0
 14 15  1  0
 15 16  1  0
 16 17  2  0
 16 18  1  0
 18 19  1  0
 18 23  1  0
 19 20  1  0
 20 21  1  0
 21 22  1  0
 22 23  1  0
 23 24  1  6
 24 25  1  0
 25 26  1  0
 25 33  1  0
 26 27  1  0
 27 28  1  0
 28 29  1  0
 28 32  2  0
 29 30  2  0
 30 31  1  0
 31 32  1  0
 32 33  1  0
 34 35  1  0
 35 36  2  0
 35 37  1  0
 37 38  1  0
 38 39  1  0
 39 40  1  0
 40 41  2  0
 40 45  1  0
 41 42  1  0
 42 43  2  0
 43 44  1  0
 44 45  2  0
M  END
