
     RDKit          3D

 46 52  0  0  0  0  0  0  0  0999 V2000
    9.4970    2.4530    1.2100 C   0  0  0  0  0  0  0  0  0  0  0  0
    9.6100    1.3490    0.2160 C   0  0  0  0  0  0  0  0  0  0  0  0
   10.7910    0.9590   -0.3220 N   0  0  0  0  0  0  0  0  0  0  0  0
   10.5380   -0.0340   -1.1580 N   0  0  0  0  0  0  0  0  0  0  0  0
    9.2380   -0.3040   -1.1830 C   0  0  0  0  0  0  0  0  0  0  0  0
    8.6240    0.5550   -0.3240 C   0  0  0  0  0  0  0  0  0  0  0  0
    7.1730    0.5640   -0.0760 C   0  0  0  0  0  0  0  0  0  0  0  0
    6.4190   -0.2310   -0.9900 N   0  0  0  0  0  0  0  0  0  0  0  0
    5.0240   -0.4680   -0.6740 C   0  0  0  0  0  0  0  0  0  0  0  0
    4.4170   -1.1720   -1.4980 O   0  0  0  0  0  0  0  0  0  0  0  0
    4.4110    0.0470    0.4570 N   0  0  0  0  0  0  0  0  0  0  0  0
    3.0630   -0.1400    0.8280 C   0  0  0  0  0  0  0  0  0  0  0  0
    2.6550    0.2450    2.1190 C   0  0  0  0  0  0  0  0  0  0  0  0
    1.3710    0.0890    2.5200 C   0  0  0  0  0  0  0  0  0  0  0  0
    0.3530   -0.4550    1.7110 C   0  0  0  0  0  0  0  0  0  0  0  0
    0.7220   -0.8310    0.4510 C   0  0  0  0  0  0  0  0  0  0  0  0
    2.0620   -0.6600    0.0640 C   0  0  0  0  0  0  0  0  0  0  0  0
   -0.1480   -1.3410   -0.5650 N   0  0  0  0  0  0  0  0  0  0  0  0
   -1.2810   -0.7350   -1.1660 C   0  0  0  0  0  0  0  0  0  0  0  0
   -1.9590   -1.5580   -1.9200 O   0  0  0  0  0  0  0  0  0  0  0  0
   -1.7960    0.5390   -1.1110 N   0  0  0  0  0  0  0  0  0  0  0  0
   -2.1020    1.4270   -0.0330 C   0  0  0  0  0  0  0  0  0  0  0  0
   -3.4190    1.1280    0.6440 C   0  0  1  0  0  0  0  0  0  0  0  0
   -4.0730    2.4230    1.0200 C   0  0  0  0  0  0  0  0  0  0  0  0
   -4.3790    3.3520   -0.0210 N   0  0  0  0  0  0  0  0  0  0  0  0
   -5.5380    3.3430   -0.7170 C   0  0  0  0  0  0  0  0  0  0  0  0
   -5.5480    4.3840   -1.6320 C   0  0  0  0  0  0  0  0  0  0  0  0
   -4.3600    5.0550   -1.4960 C   0  0  0  0  0  0  0  0  0  0  0  0
   -3.6750    4.4090   -0.5160 C   0  0  0  0  0  0  0  0  0  0  0  0
   -4.2370    0.1620   -0.1030 C   0  0  0  0  0  0  0  0  0  0  0  0
   -4.4820   -1.1610    0.4000 N   0  0  0  0  0  0  0  0  0  0  0  0
   -5.9370   -1.3730    0.6910 C   0  0  0  0  0  0  0  0  0  0  0  0
   -6.8290   -1.5050   -0.4770 C   0  0  2  0  0  0  0  0  0  0  0  0
   -7.1220   -0.6320   -1.5830 C   0  0  0  0  0  0  0  0  0  0  0  0
   -8.1060   -0.6360   -0.5030 C   0  0  0  0  0  0  0  0  0  0  0  0
   -3.6660   -2.2980    0.6080 C   0  0  0  0  0  0  0  0  0  0  0  0
   -4.1650   -3.4020   -0.1750 C   0  0  0  0  0  0  0  0  0  0  0  0
   -3.6090   -4.6430   -0.1740 C   0  0  0  0  0  0  0  0  0  0  0  0
   -2.5150   -4.8620    0.6140 C   0  0  0  0  0  0  0  0  0  0  0  0
   -2.0150   -3.8460    1.3690 C   0  0  0  0  0  0  0  0  0  0  0  0
   -2.5570   -2.5290    1.4020 C   0  0  0  0  0  0  0  0  0  0  0  0
   -1.8300   -1.7060    2.3540 C   0  0  0  0  0  0  0  0  0  0  0  0
   -2.0720   -2.1160    3.6330 O   0  0  0  0  0  0  0  0  0  0  0  0
   -0.9520   -0.6100    2.2930 N   0  0  0  0  0  0  0  0  0  0  0  0
    7.0320   -0.7670   -2.1770 C   0  0  0  0  0  0  0  0  0  0  0  0
    8.4340   -1.2990   -1.9350 C   0  0  0  0  0  0  0  0  0  0  0  0
  1  2  1  0
  2  3  1  0
  2  6  2  0
  3  4  1  0
  4  5  2  0
  5  6  1  0
  5 46  1  0
  6  7  1  0
  7  8  1  0
  8  9  1  0
  8 45  1  0
  9 10  2  0
  9 11  1  0
 11 12  1  0
 12 13  2  0
 12 17  1  0
 13 14  1  0
 14 15  2  0
 15 16  1  0
 15 44  1  0
 16 17  2  0
 16 18  1  0
 18 19  1  0
 19 20  2  0
 19 21  1  0
 21 22  1  0
 22 23  1  0
 23 24  1  6
 23 30  1  0
 24 25  1  0
 25 26  1  0
 25 29  1  0
 26 27  2  0
 27 28  1  0
 28 29  2  0
 30 31  1  0
 31 32  1  0
 31 36  1  0
 33 32  1  1
 33 34  1  0
 33 35  1  0
 34 35  1  0
 36 37  2  0
 36 41  1  0
 37 38  1  0
 38 39  2  0
 39 40  1  0
 40 41  2  0
 41 42  1  0
 42 43  2  0
 42 44  1  0
 45 46  1  0
M  END
