
     RDKit          3D

 45 47  0  0  0  0  0  0  0  0999 V2000
   -6.2410   -4.2720   -1.5390 C   0  0  0  0  0  0  0  0  0  0  0  0
   -5.8860   -3.8380   -2.7230 C   0  0  0  0  0  0  0  0  0  0  0  0
   -4.4940   -3.9730   -3.2150 C   0  0  0  0  0  0  0  0  0  0  0  0
   -3.9100   -2.5930   -3.4970 C   0  0  1  0  0  0  0  0  0  0  0  0
   -4.7010   -1.8660   -4.5410 C   0  0  0  0  0  0  0  0  0  0  0  0
   -3.9660   -1.8860   -2.2680 O   0  0  0  0  0  0  0  0  0  0  0  0
   -2.8130   -1.5390   -1.5710 C   0  0  0  0  0  0  0  0  0  0  0  0
   -1.7250   -1.8790   -2.0810 O   0  0  0  0  0  0  0  0  0  0  0  0
   -2.8220   -0.8060   -0.2920 C   0  0  0  0  0  0  0  0  0  0  0  0
   -1.3950   -0.5120    0.1680 C   0  0  1  0  0  0  0  0  0  0  0  0
   -0.6560    0.3680   -0.8510 C   0  0  0  0  0  0  0  0  0  0  0  0
   -1.4060    0.2280    1.4150 N   0  0  0  0  0  0  0  0  0  0  0  0
   -0.7780   -0.1480    2.5940 C   0  0  0  0  0  0  0  0  0  0  0  0
   -1.1120    0.5380    3.6420 O   0  0  0  0  0  0  0  0  0  0  0  0
    0.2120   -1.2030    2.8520 C   0  0  1  0  0  0  0  0  0  0  0  0
   -0.3760   -2.2120    3.8180 C   0  0  0  0  0  0  0  0  0  0  0  0
    0.6550   -1.7650    1.6690 O   0  0  0  0  0  0  0  0  0  0  0  0
    1.9780   -1.6480    1.2960 C   0  0  0  0  0  0  0  0  0  0  0  0
    2.7480   -1.0250    2.0630 O   0  0  0  0  0  0  0  0  0  0  0  0
    2.4750   -2.2490    0.0070 C   0  0  0  0  0  0  0  0  0  0  0  0
    3.9010   -1.9260   -0.1730 C   0  0  0  0  0  0  0  0  0  0  0  0
    4.3580   -0.7370   -0.7030 C   0  0  0  0  0  0  0  0  0  0  0  0
    5.7500   -0.8410   -0.6940 C   0  0  0  0  0  0  0  0  0  0  0  0
    6.6450    0.1900   -1.1550 C   0  0  0  0  0  0  0  0  0  0  0  0
    6.1570    1.2820   -1.6140 O   0  0  0  0  0  0  0  0  0  0  0  0
    8.0450    0.0060   -1.1030 N   0  0  0  0  0  0  0  0  0  0  0  0
    9.0310    0.9640   -1.5150 C   0  0  0  0  0  0  0  0  0  0  0  0
   10.0990    0.1110   -2.1570 C   0  0  1  0  0  0  0  0  0  0  0  0
   11.3210    0.7830   -2.2200 O   0  0  0  0  0  0  0  0  0  0  0  0
   10.1450   -1.0960   -1.2350 C   0  0  2  0  0  0  0  0  0  0  0  0
   10.4520   -2.2650   -1.9290 O   0  0  0  0  0  0  0  0  0  0  0  0
    8.7360   -1.1690   -0.6400 C   0  0  0  0  0  0  0  0  0  0  0  0
    6.0230   -2.0590   -0.1700 N   0  0  0  0  0  0  0  0  0  0  0  0
    4.9200   -2.6650    0.1220 O   0  0  0  0  0  0  0  0  0  0  0  0
   -2.2200    1.4250    1.3450 C   0  0  0  0  0  0  0  0  0  0  0  0
   -1.6520    2.6060    0.9380 C   0  0  0  0  0  0  0  0  0  0  0  0
   -2.3770    3.7660    0.8580 C   0  0  0  0  0  0  0  0  0  0  0  0
   -3.7620    3.7860    1.2020 C   0  0  0  0  0  0  0  0  0  0  0  0
   -4.4160    5.0640    1.0320 C   0  0  0  0  0  0  0  0  0  0  0  0
   -5.4390    5.6540    1.4960 C   0  0  0  0  0  0  0  0  0  0  0  0
   -6.6770    5.2060    2.6740 S   0  0  0  0  0  0  0  0  0  0  0  0
   -6.7150    6.4520    3.9850 C   0  0  0  0  0  0  0  0  0  0  0  0
   -4.3080    2.6060    1.6000 C   0  0  0  0  0  0  0  0  0  0  0  0
   -5.7510    2.4650    1.8760 C   0  0  0  0  0  0  0  0  0  0  0  0
   -3.5310    1.4450    1.6680 C   0  0  0  0  0  0  0  0  0  0  0  0
  1  2  2  0
  2  3  1  0
  3  4  1  0
  4  5  1  6
  4  6  1  0
  6  7  1  0
  7  8  2  0
  7  9  1  0
  9 10  1  0
 10 11  1  6
 10 12  1  0
 12 13  1  0
 12 35  1  0
 13 14  2  0
 13 15  1  0
 15 16  1  1
 15 17  1  0
 17 18  1  0
 18 19  2  0
 18 20  1  0
 20 21  1  0
 21 22  2  0
 21 34  1  0
 22 23  1  0
 23 24  1  0
 23 33  2  0
 24 25  2  0
 24 26  1  0
 26 27  1  0
 26 32  1  0
 27 28  1  0
 28 29  1  1
 28 30  1  0
 30 31  1  6
 30 32  1  0
 33 34  1  0
 35 36  2  0
 35 45  1  0
 36 37  1  0
 37 38  2  0
 38 39  1  0
 38 43  1  0
 39 40  2  3
 40 41  1  0
 41 42  1  0
 43 44  1  0
 43 45  2  0
M  END
