
     RDKit          3D

 30 31  0  0  0  0  0  0  0  0999 V2000
    7.7340   -0.2370    2.0900 O   0  0  0  0  0  0  0  0  0  0  0  0
    7.6590   -1.7560    1.8080 P   0  0  0  0  0  0  0  0  0  0  0  0
    6.1000   -2.5220    1.3600 N   0  0  0  0  0  0  0  0  0  0  0  0
    5.0880   -1.7310    0.7200 C   0  0  0  0  0  0  0  0  0  0  0  0
    5.3590   -0.5260    0.5080 O   0  0  0  0  0  0  0  0  0  0  0  0
    3.8680   -2.3570    0.3770 N   0  0  0  0  0  0  0  0  0  0  0  0
    2.8400   -1.5710   -0.2670 C   0  0  0  0  0  0  0  0  0  0  0  0
    2.3750   -0.4150    0.5560 C   0  0  0  0  0  0  0  0  0  0  0  0
    1.3610    0.3160   -0.1500 N   0  0  0  0  0  0  0  0  0  0  0  0
    0.1190   -0.2220   -0.5560 C   0  0  0  0  0  0  0  0  0  0  0  0
   -0.1440   -1.4150   -0.2920 O   0  0  0  0  0  0  0  0  0  0  0  0
   -0.8370    0.6480   -1.2850 C   0  0  2  0  0  0  0  0  0  0  0  0
   -0.4090    1.9060   -1.4930 O   0  0  0  0  0  0  0  0  0  0  0  0
   -0.8030    2.9230   -0.6940 C   0  0  2  0  0  0  0  0  0  0  0  0
   -1.6730    3.7690   -1.5350 N   0  0  0  0  0  0  0  0  0  0  0  0
   -0.9480    4.7850   -2.1610 C   0  0  0  0  0  0  0  0  0  0  0  0
   -1.3300    5.4920   -3.1540 O   0  0  0  0  0  0  0  0  0  0  0  0
    0.2990    4.8960   -1.4970 N   0  0  0  0  0  0  0  0  0  0  0  0
    0.3040    3.9260   -0.4610 C   0  0  0  0  0  0  0  0  0  0  0  0
    1.1310    3.9470    0.4870 O   0  0  0  0  0  0  0  0  0  0  0  0
   -1.5020    2.6670    0.4370 O   0  0  0  0  0  0  0  0  0  0  0  0
   -1.8560    1.3960    0.7420 C   0  0  0  0  0  0  0  0  0  0  0  0
   -2.1560    0.6600   -0.5470 C   0  0  2  0  0  0  0  0  0  0  0  0
   -2.6130   -0.6920   -0.3060 N   0  0  0  0  0  0  0  0  0  0  0  0
   -4.1600   -0.7540    0.5590 P   0  0  0  0  0  0  0  0  0  0  0  0
   -3.8650   -1.3470    2.1640 O   0  0  0  0  0  0  0  0  0  0  0  0
   -5.2230   -1.8880   -0.2190 O   0  0  0  0  0  0  0  0  0  0  0  0
   -5.0900   -3.4250    0.5600 P   0  0  0  0  0  0  0  0  0  0  0  0
   -5.9710   -4.6280   -0.3260 O   0  0  0  0  0  0  0  0  0  0  0  0
   -3.4410   -3.9270    0.7320 O   0  0  0  0  0  0  0  0  0  0  0  0
  1  2  2  0
  2  3  1  0
  3  4  1  0
  4  5  2  0
  4  6  1  0
  6  7  1  0
  7  8  1  0
  8  9  1  0
  9 10  1  0
 10 11  2  0
 12 10  1  1
 12 13  1  0
 12 23  1  0
 13 14  1  0
 14 15  1  6
 14 19  1  0
 14 21  1  0
 15 16  1  0
 16 17  2  0
 16 18  1  0
 18 19  1  0
 19 20  2  0
 21 22  1  0
 22 23  1  0
 23 24  1  1
 24 25  1  0
 25 26  1  0
 25 27  1  0
 27 28  1  0
 28 29  1  0
 28 30  1  0
M  END
