
     RDKit          3D

 30 31  0  0  0  0  0  0  0  0999 V2000
    1.6480    2.5270   -0.0590 N   0  0  0  0  0  0  0  0  0  0  0  0
    2.4630    1.5620    0.1320 C   0  0  0  0  0  0  0  0  0  0  0  0
    2.1790    0.1880    0.0170 N   0  0  0  0  0  0  0  0  0  0  0  0
    3.2320   -0.7410    0.2860 C   0  0  0  0  0  0  0  0  0  0  0  0
    2.9640   -1.9620    0.2400 O   0  0  0  0  0  0  0  0  0  0  0  0
    4.5930   -0.3010    0.6070 C   0  0  1  0  0  0  0  0  0  0  0  0
    5.5970   -1.8280    1.0480 P   0  0  0  0  0  0  0  0  0  0  0  0
    5.9490   -2.6670   -0.4310 O   0  0  0  0  0  0  0  0  0  0  0  0
    4.5720   -2.8330    2.0530 O   0  0  0  0  0  0  0  0  0  0  0  0
    5.3010    0.4850   -0.9330 P   0  0  0  0  0  0  0  0  0  0  0  0
    6.4070   -0.6180   -1.6840 O   0  0  0  0  0  0  0  0  0  0  0  0
    6.0390    1.9970   -0.5820 O   0  0  0  0  0  0  0  0  0  0  0  0
    6.4180    2.1440    0.6490 O   0  0  0  0  0  0  0  0  0  0  0  0
    0.8870   -0.2750   -0.3520 C   0  0  0  0  0  0  0  0  0  0  0  0
    0.5410   -1.5870   -0.5680 N   0  0  0  0  0  0  0  0  0  0  0  0
   -0.7340   -1.6130   -0.8910 N   0  0  0  0  0  0  0  0  0  0  0  0
   -1.2050   -0.3790   -0.8880 C   0  0  0  0  0  0  0  0  0  0  0  0
   -2.5560    0.1600   -1.1760 C   0  0  2  0  0  0  0  0  0  0  0  0
   -2.6810    1.5880   -0.7860 C   0  0  0  0  0  0  0  0  0  0  0  0
   -2.1970    2.4730   -1.5160 O   0  0  0  0  0  0  0  0  0  0  0  0
   -3.3500    1.9980    0.4220 N   0  0  0  0  0  0  0  0  0  0  0  0
   -3.9530    0.9740    1.1780 C   0  0  0  0  0  0  0  0  0  0  0  0
   -4.7140    1.2560    2.1180 O   0  0  0  0  0  0  0  0  0  0  0  0
   -3.6640   -0.4280    0.8310 C   0  0  0  0  0  0  0  0  0  0  0  0
   -3.6250   -0.6340   -0.5970 N   0  0  0  0  0  0  0  0  0  0  0  0
   -4.8180   -0.1840   -1.2760 C   0  0  0  0  0  0  0  0  0  0  0  0
   -6.3730   -0.9800   -0.8120 P   0  0  0  0  0  0  0  0  0  0  0  0
   -7.6550    0.1900   -0.8050 O   0  0  0  0  0  0  0  0  0  0  0  0
   -6.3980   -1.8460    0.6510 O   0  0  0  0  0  0  0  0  0  0  0  0
   -0.2070    0.4010   -0.5600 O   0  0  0  0  0  0  0  0  0  0  0  0
  1  2  2  0
  2  3  1  0
  3  4  1  0
  3 14  1  0
  4  5  2  0
  4  6  1  0
  6  7  1  6
  6 10  1  0
  7  8  1  0
  7  9  1  0
 10 11  1  0
 10 12  1  0
 12 13  1  0
 14 15  2  0
 14 30  1  0
 15 16  1  0
 16 17  2  0
 18 17  1  1
 17 30  1  0
 18 19  1  0
 18 25  1  0
 19 20  2  0
 19 21  1  0
 21 22  1  0
 22 23  2  0
 22 24  1  0
 24 25  1  0
 25 26  1  0
 26 27  1  0
 27 28  1  0
 27 29  1  0
M  END
