
     RDKit          3D

 31 33  0  0  0  0  0  0  0  0999 V2000
   -7.9840    1.0280   -2.3220 N   0  0  0  0  0  0  0  0  0  0  0  0
   -7.0600    1.1930   -1.2580 C   0  0  0  0  0  0  0  0  0  0  0  0
   -7.4910    1.6180   -0.0600 N   0  0  0  0  0  0  0  0  0  0  0  0
   -6.5980    1.7720    0.9520 C   0  0  0  0  0  0  0  0  0  0  0  0
   -5.2910    1.5070    0.7780 N   0  0  0  0  0  0  0  0  0  0  0  0
   -4.8030    1.0760   -0.4090 C   0  0  0  0  0  0  0  0  0  0  0  0
   -5.7140    0.9210   -1.4340 C   0  0  0  0  0  0  0  0  0  0  0  0
   -4.9810    0.4890   -2.4880 N   0  0  0  0  0  0  0  0  0  0  0  0
   -3.6970    0.3880   -2.1210 C   0  0  0  0  0  0  0  0  0  0  0  0
   -3.5670    0.7470   -0.8380 N   0  0  0  0  0  0  0  0  0  0  0  0
   -2.4020    0.8050   -0.0010 C   0  0  2  0  0  0  0  0  0  0  0  0
   -1.2170    0.7580   -0.7040 O   0  0  0  0  0  0  0  0  0  0  0  0
   -0.2250    0.4750    0.1940 C   0  0  2  0  0  0  0  0  0  0  0  0
    0.8400   -0.4410   -0.3630 C   0  0  0  0  0  0  0  0  0  0  0  0
    1.8320   -0.7100    0.5710 O   0  0  0  0  0  0  0  0  0  0  0  0
    3.0250   -1.7190   -0.0110 P   0  0  2  0  0  0  0  0  0  0  0  0
    2.4780   -3.0060   -0.5800 O   0  0  0  0  0  0  0  0  0  0  0  0
    4.1070   -2.0510    1.2420 O   0  0  0  0  0  0  0  0  0  0  0  0
    3.9080   -0.9750   -1.2650 O   0  0  0  0  0  0  0  0  0  0  0  0
    5.1860   -0.0740   -0.6760 P   0  0  2  0  0  0  0  0  0  0  0  0
    5.3320   -0.3150    0.8050 O   0  0  0  0  0  0  0  0  0  0  0  0
    4.9890    1.5860   -0.9710 O   0  0  0  0  0  0  0  0  0  0  0  0
    6.6850   -0.5660   -1.4580 N   0  0  0  0  0  0  0  0  0  0  0  0
    7.8650   -1.0310   -0.2830 P   0  0  1  0  0  0  0  0  0  0  0  0
    8.6630   -2.2000   -0.8300 O   0  0  0  0  0  0  0  0  0  0  0  0
    8.9680    0.2040    0.0500 O   0  0  0  0  0  0  0  0  0  0  0  0
    7.1560   -1.4940    1.1780 O   0  0  0  0  0  0  0  0  0  0  0  0
   -0.8470   -0.2290    1.3770 C   0  0  1  0  0  0  0  0  0  0  0  0
   -0.9690    0.6680    2.4330 O   0  0  0  0  0  0  0  0  0  0  0  0
   -2.2710   -0.4620    0.8560 C   0  0  1  0  0  0  0  0  0  0  0  0
   -3.1980   -0.4880    1.8660 O   0  0  0  0  0  0  0  0  0  0  0  0
  1  2  1  0
  2  3  2  0
  2  7  1  0
  3  4  1  0
  4  5  2  0
  5  6  1  0
  6  7  2  0
  6 10  1  0
  7  8  1  0
  8  9  2  0
  9 10  1  0
 11 10  1  6
 11 12  1  0
 11 30  1  0
 12 13  1  0
 13 14  1  6
 13 28  1  0
 14 15  1  0
 15 16  1  0
 16 17  2  0
 16 18  1  1
 16 19  1  0
 19 20  1  0
 20 21  2  0
 20 22  1  1
 20 23  1  0
 23 24  1  0
 24 25  2  0
 24 26  1  1
 24 27  1  0
 28 29  1  1
 28 30  1  0
 30 31  1  1
M  END
