
     RDKit          3D

 31 32  0  0  0  0  0  0  0  0999 V2000
    6.4620   -0.9730    0.7830 N   0  0  0  0  0  0  0  0  0  0  0  0
    6.0330   -0.0750   -0.0190 C   0  0  0  0  0  0  0  0  0  0  0  0
    4.8630    0.6400    0.2970 N   0  0  0  0  0  0  0  0  0  0  0  0
    3.9140    0.1830    1.3170 C   0  0  0  0  0  0  0  0  0  0  0  0
    2.7570    1.1510    1.4370 C   0  0  0  0  0  0  0  0  0  0  0  0
    2.1040    1.2260    0.1890 O   0  0  0  0  0  0  0  0  0  0  0  0
    0.7960    2.3260    0.3430 P   0  0  0  0  0  0  0  0  0  0  0  0
    0.2620    2.5400    1.9610 O   0  0  0  0  0  0  0  0  0  0  0  0
   -0.5200    1.9410   -0.7140 O   0  0  0  0  0  0  0  0  0  0  0  0
   -1.0960    0.3450   -0.4980 P   0  0  0  0  0  0  0  0  0  0  0  0
   -0.4360   -0.4660    0.8560 O   0  0  0  0  0  0  0  0  0  0  0  0
   -2.9310    0.3270   -0.5590 C   0  0  2  0  0  0  0  0  0  0  0  0
   -3.4530    1.7480   -0.5170 C   0  0  0  0  0  0  0  0  0  0  0  0
   -4.8760    1.7340   -0.6420 O   0  0  0  0  0  0  0  0  0  0  0  0
   -5.6120    2.8880   -0.6350 C   0  0  0  0  0  0  0  0  0  0  0  0
   -5.0050    3.9860   -0.5150 O   0  0  0  0  0  0  0  0  0  0  0  0
   -7.0050    2.8950   -0.7570 O   0  0  0  0  0  0  0  0  0  0  0  0
   -3.5180   -0.4150    0.5430 N   0  0  0  0  0  0  0  0  0  0  0  0
   -3.8770   -1.7040    0.0210 C   0  0  1  0  0  0  0  0  0  0  0  0
   -2.8060   -2.6430    0.1440 N   0  0  0  0  0  0  0  0  0  0  0  0
   -5.1390   -2.2800    0.6230 C   0  0  0  0  0  0  0  0  0  0  0  0
   -5.8490   -2.8570   -0.4830 O   0  0  0  0  0  0  0  0  0  0  0  0
   -5.2720   -2.4200   -1.6700 C   0  0  0  0  0  0  0  0  0  0  0  0
   -5.5400   -2.7670   -2.8460 O   0  0  0  0  0  0  0  0  0  0  0  0
   -4.2620   -1.4570   -1.3680 N   0  0  0  0  0  0  0  0  0  0  0  0
   -3.4530   -0.3660   -1.7870 C   0  0  0  0  0  0  0  0  0  0  0  0
   -3.2290   -0.0560   -2.9670 O   0  0  0  0  0  0  0  0  0  0  0  0
    6.7890    0.1450   -1.2070 N   0  0  0  0  0  0  0  0  0  0  0  0
    8.1970   -0.8700   -1.6630 P   0  0  0  0  0  0  0  0  0  0  0  0
    7.6780   -2.5260   -1.7540 O   0  0  0  0  0  0  0  0  0  0  0  0
    9.4500   -0.7760   -0.4670 O   0  0  0  0  0  0  0  0  0  0  0  0
  1  2  2  0
  2  3  1  0
  2 28  1  0
  3  4  1  0
  4  5  1  0
  5  6  1  0
  6  7  1  0
  7  8  1  0
  7  9  1  0
  9 10  1  0
 10 11  1  0
 10 12  1  0
 12 13  1  6
 12 18  1  0
 12 26  1  0
 13 14  1  0
 14 15  1  0
 15 16  2  0
 15 17  1  0
 18 19  1  0
 19 20  1  6
 19 21  1  0
 19 25  1  0
 21 22  1  0
 22 23  1  0
 23 24  2  0
 23 25  1  0
 25 26  1  0
 26 27  2  0
 28 29  1  0
 29 30  1  0
 29 31  1  0
M  END
