
     RDKit          3D

 26 28  0  0  0  0  0  0  0  0999 V2000
    8.0470   -1.4250    1.0210 C   0  0  0  0  0  0  0  0  0  0  0  0
    6.6660   -1.7860    0.5880 C   0  0  0  0  0  0  0  0  0  0  0  0
    5.9790   -0.6430   -0.1730 C   0  0  0  0  0  0  0  0  0  0  0  0
    4.6170   -1.1640   -0.5320 C   0  0  0  0  0  0  0  0  0  0  0  0
    3.8100   -0.3050   -1.2250 O   0  0  0  0  0  0  0  0  0  0  0  0
    3.3250    0.9100   -0.9300 C   0  0  0  0  0  0  0  0  0  0  0  0
    4.1090    1.9570   -0.8070 C   0  0  0  0  0  0  0  0  0  0  0  0
    3.5660    3.2940   -0.4810 C   0  0  0  0  0  0  0  0  0  0  0  0
    2.2630    3.4900   -0.3000 C   0  0  0  0  0  0  0  0  0  0  0  0
    1.3600    2.3890   -0.4200 N   0  0  0  0  0  0  0  0  0  0  0  0
   -0.0650    2.2940   -0.2830 C   0  0  0  0  0  0  0  0  0  0  0  0
   -0.8570    3.2150   -0.0120 O   0  0  0  0  0  0  0  0  0  0  0  0
   -0.4070    0.9010   -0.5230 C   0  0  0  0  0  0  0  0  0  0  0  0
   -1.5660    0.2860   -0.5190 C   0  0  0  0  0  0  0  0  0  0  0  0
   -2.8590    0.8620   -0.2620 C   0  0  0  0  0  0  0  0  0  0  0  0
   -3.0440    2.0630   -0.0030 O   0  0  0  0  0  0  0  0  0  0  0  0
   -4.0350    0.0330   -0.2990 N   0  0  0  0  0  0  0  0  0  0  0  0
   -3.8960   -1.3650   -0.5920 C   0  0  0  0  0  0  0  0  0  0  0  0
   -5.2420   -2.0250   -0.4120 C   0  0  0  0  0  0  0  0  0  0  0  0
   -5.8380   -1.6280    0.9130 C   0  0  0  0  0  0  0  0  0  0  0  0
   -6.0380   -0.1560    1.0640 C   0  0  2  0  0  0  0  0  0  0  0  0
   -7.4870    0.2500    1.1010 C   0  0  0  0  0  0  0  0  0  0  0  0
   -5.3320    0.5910   -0.0450 C   0  0  0  0  0  0  0  0  0  0  0  0
    0.8870    0.2440   -0.7960 C   0  0  0  0  0  0  0  0  0  0  0  0
    1.0200   -1.4770   -1.1530 Cl  0  0  0  0  0  0  0  0  0  0  0  0
    1.8860    1.1070   -0.7330 C   0  0  0  0  0  0  0  0  0  0  0  0
  1  2  1  0
  2  3  1  0
  3  4  1  0
  4  5  1  0
  5  6  1  0
  6  7  2  0
  6 26  1  0
  7  8  1  0
  8  9  2  0
  9 10  1  0
 10 11  1  0
 10 26  1  0
 11 12  2  0
 11 13  1  0
 13 14  2  3
 13 24  1  0
 14 15  1  0
 15 16  2  0
 15 17  1  0
 17 18  1  0
 17 23  1  0
 18 19  1  0
 19 20  1  0
 20 21  1  0
 21 22  1  6
 21 23  1  0
 24 25  1  0
 24 26  2  0
M  END
