
     RDKit          3D

 10 10  0  0  0  0  0  0  0  0999 V2000
    3.4970    0.0280    1.3480 O   0  0  0  0  0  0  0  0  0  0  0  0
    2.3290    0.6290    0.8780 C   0  0  0  0  0  0  0  0  0  0  0  0
    1.4470   -0.4450    0.2870 C   0  0  0  0  0  0  0  0  0  0  0  0
    0.1580    0.0770   -0.2540 C   0  0  2  0  0  0  0  0  0  0  0  0
    0.4860    1.0100   -1.2670 O   0  0  0  0  0  0  0  0  0  0  0  0
   -0.6160    0.7680    0.7990 C   0  0  0  0  0  0  0  0  0  0  0  0
   -2.0520    0.4310    0.9030 C   0  0  0  0  0  0  0  0  0  0  0  0
   -2.4190   -0.7990    0.4360 O   0  0  0  0  0  0  0  0  0  0  0  0
   -2.0680   -0.8600   -0.9300 C   0  0  0  0  0  0  0  0  0  0  0  0
   -0.5650   -1.0470   -0.9390 C   0  0  0  0  0  0  0  0  0  0  0  0
  1  2  1  0
  2  3  1  0
  3  4  1  0
  4  5  1  6
  4  6  1  0
  4 10  1  0
  6  7  1  0
  7  8  1  0
  8  9  1  0
  9 10  1  0
M  END
