
     RDKit          3D

 11 11  0  0  0  0  0  0  0  0999 V2000
   -2.9890    0.5070    0.4080 C   0  0  0  0  0  0  0  0  0  0  0  0
   -2.1750   -0.5540    0.0320 O   0  0  0  0  0  0  0  0  0  0  0  0
   -0.8000   -0.4980   -0.0740 C   0  0  0  0  0  0  0  0  0  0  0  0
   -0.0510    0.6360    0.1850 C   0  0  0  0  0  0  0  0  0  0  0  0
    1.3100    0.6790    0.0770 C   0  0  0  0  0  0  0  0  0  0  0  0
    1.9680    1.8560    0.3570 O   0  0  0  0  0  0  0  0  0  0  0  0
    1.9780   -0.4710   -0.3120 C   0  0  0  0  0  0  0  0  0  0  0  0
    3.3530   -0.4540   -0.4290 O   0  0  0  0  0  0  0  0  0  0  0  0
    1.2780   -1.6290   -0.5820 C   0  0  0  0  0  0  0  0  0  0  0  0
    1.9480   -2.7690   -0.9680 F   0  0  0  0  0  0  0  0  0  0  0  0
   -0.0880   -1.6120   -0.4560 C   0  0  0  0  0  0  0  0  0  0  0  0
  1  2  1  0
  2  3  1  0
  3  4  2  0
  3 11  1  0
  4  5  1  0
  5  6  1  0
  5  7  2  0
  7  8  1  0
  7  9  1  0
  9 10  1  0
  9 11  2  0
M  END
