
     RDKit          3D

 11 11  0  0  0  0  0  0  0  0999 V2000
   -3.5230   -0.6600    0.0700 O   0  0  0  0  0  0  0  0  0  0  0  0
   -2.1680   -0.3660    0.0540 C   0  0  0  0  0  0  0  0  0  0  0  0
   -1.1830   -1.3030    0.2960 C   0  0  0  0  0  0  0  0  0  0  0  0
    0.1550   -0.9590    0.2690 C   0  0  0  0  0  0  0  0  0  0  0  0
    0.5760    0.3250    0.0010 C   0  0  0  0  0  0  0  0  0  0  0  0
    1.9350    0.6720   -0.0260 O   0  0  0  0  0  0  0  0  0  0  0  0
    2.9140   -0.3190    0.2280 C   0  0  0  0  0  0  0  0  0  0  0  0
    4.1630    0.2450    0.1490 F   0  0  0  0  0  0  0  0  0  0  0  0
   -0.4150    1.2520   -0.2390 C   0  0  0  0  0  0  0  0  0  0  0  0
   -0.0390    2.5490   -0.5110 O   0  0  0  0  0  0  0  0  0  0  0  0
   -1.7560    0.9230   -0.2150 C   0  0  0  0  0  0  0  0  0  0  0  0
  1  2  1  0
  2  3  2  0
  2 11  1  0
  3  4  1  0
  4  5  2  0
  5  6  1  0
  5  9  1  0
  6  7  1  0
  7  8  1  0
  9 10  1  0
  9 11  2  0
M  END
