
     RDKit          3D

 11 10  0  0  0  0  0  0  0  0999 V2000
    3.3500    0.3990    0.7630 C   0  0  0  0  0  0  0  0  0  0  0  0
    2.7020    1.5550    0.0560 C   0  0  0  0  0  0  0  0  0  0  0  0
    1.3100    1.5000    0.2520 O   0  0  0  0  0  0  0  0  0  0  0  0
    0.6280    0.3840   -0.1940 C   0  0  0  0  0  0  0  0  0  0  0  0
    1.2420   -0.5540   -0.7610 O   0  0  0  0  0  0  0  0  0  0  0  0
   -0.8120    0.2770   -0.0160 C   0  0  0  0  0  0  0  0  0  0  0  0
   -1.4550   -0.7990   -0.4490 C   0  0  0  0  0  0  0  0  0  0  0  0
   -2.8880   -0.9270   -0.2820 C   0  0  0  0  0  0  0  0  0  0  0  0
   -3.5880    0.0860    0.3360 O   0  0  0  0  0  0  0  0  0  0  0  0
   -3.5270   -1.9820   -0.7050 C   0  0  0  0  0  0  0  0  0  0  0  0
   -4.8600   -2.0730   -0.5360 F   0  0  0  0  0  0  0  0  0  0  0  0
  1  2  1  0
  2  3  1  0
  3  4  1  0
  4  5  2  0
  4  6  1  0
  6  7  2  3
  7  8  1  0
  8  9  1  0
  8 10  2  3
 10 11  1  0
M  END
