
     RDKit          3D

 10 10  0  0  0  0  0  0  0  0999 V2000
    3.8580    0.8390    0.4240 N   0  0  0  0  0  0  0  0  0  0  0  0
    2.7900   -0.0950    0.3550 C   0  0  0  0  0  0  0  0  0  0  0  0
    3.0480   -1.3250    0.3870 O   0  0  0  0  0  0  0  0  0  0  0  0
    1.3960    0.3420    0.2470 C   0  0  0  0  0  0  0  0  0  0  0  0
    0.4630   -0.8370    0.1920 C   0  0  0  0  0  0  0  0  0  0  0  0
   -0.9500   -0.4430    0.0830 C   0  0  0  0  0  0  0  0  0  0  0  0
   -1.7480   -0.7720   -0.9100 C   0  0  0  0  0  0  0  0  0  0  0  0
   -3.0700   -0.1780   -0.6300 C   0  0  0  0  0  0  0  0  0  0  0  0
   -2.8910    0.5270    0.6590 C   0  0  0  0  0  0  0  0  0  0  0  0
   -1.6440    0.3670    1.0710 C   0  0  0  0  0  0  0  0  0  0  0  0
  1  2  1  0
  2  3  2  0
  2  4  1  0
  4  5  1  0
  5  6  1  0
  6  7  2  0
  6 10  1  0
  7  8  1  0
  8  9  1  0
  9 10  2  0
M  END
