
     RDKit          3D

 10 10  0  0  0  0  0  0  0  0999 V2000
    1.6100    4.5300   -0.1410 N   0  0  0  0  0  0  0  0  0  0  0  0
    0.8640    3.5710   -0.2040 C   0  0  0  0  0  0  0  0  0  0  0  0
   -0.0330    2.3900   -0.2610 C   0  0  0  0  0  0  0  0  0  0  0  0
    0.8170    1.1290   -0.3510 C   0  0  0  0  0  0  0  0  0  0  0  0
   -0.0010   -0.0980   -0.4190 C   0  0  2  0  0  0  0  0  0  0  0  0
   -0.8540   -0.1560   -1.5130 O   0  0  0  0  0  0  0  0  0  0  0  0
   -0.7420   -0.4170    0.8840 C   0  0  0  0  0  0  0  0  0  0  0  0
   -1.3400   -1.7620    0.4430 C   0  0  0  0  0  0  0  0  0  0  0  0
   -0.0510   -2.4540   -0.0160 C   0  0  0  0  0  0  0  0  0  0  0  0
    0.8780   -1.3390   -0.4830 C   0  0  0  0  0  0  0  0  0  0  0  0
  1  2  3  0
  2  3  1  0
  3  4  1  0
  4  5  1  0
  5  6  1  6
  5  7  1  0
  5 10  1  0
  7  8  1  0
  8  9  1  0
  9 10  1  0
M  END
