
     RDKit          3D

 10 10  0  0  0  0  0  0  0  0999 V2000
    3.8730   -0.1720   -0.3510 C   0  0  0  0  0  0  0  0  0  0  0  0
    3.1130   -1.2120   -0.1340 C   0  0  0  0  0  0  0  0  0  0  0  0
    1.6680   -1.1380   -0.0200 C   0  0  0  0  0  0  0  0  0  0  0  0
    1.0390   -2.2120    0.1910 O   0  0  0  0  0  0  0  0  0  0  0  0
    0.9220    0.0530   -0.1300 N   0  0  0  0  0  0  0  0  0  0  0  0
   -0.4900    0.1400   -0.0210 C   0  0  0  0  0  0  0  0  0  0  0  0
   -1.3950   -0.7880    0.1930 C   0  0  0  0  0  0  0  0  0  0  0  0
   -2.7700   -0.2210    0.2280 C   0  0  0  0  0  0  0  0  0  0  0  0
   -2.5630    1.0090   -0.6670 C   0  0  0  0  0  0  0  0  0  0  0  0
   -1.2140    1.4660   -0.1510 C   0  0  0  0  0  0  0  0  0  0  0  0
  1  2  2  0
  2  3  1  0
  3  4  2  0
  3  5  1  0
  5  6  1  0
  6  7  2  0
  6 10  1  0
  7  8  1  0
  8  9  1  0
  9 10  1  0
M  END
