
     RDKit          3D

 10 10  0  0  0  0  0  0  0  0999 V2000
   -2.9510    1.1140   -0.0210 C   0  0  0  0  0  0  0  0  0  0  0  0
   -2.3260   -0.0370    0.1600 C   0  0  0  0  0  0  0  0  0  0  0  0
   -3.0460   -1.2560    0.5980 C   0  0  0  0  0  0  0  0  0  0  0  0
   -0.9270   -0.1290   -0.0660 N   0  0  0  0  0  0  0  0  0  0  0  0
   -0.0900    0.9140    0.4540 C   0  0  0  0  0  0  0  0  0  0  0  0
    1.3610    0.7320    0.1690 C   0  0  1  0  0  0  0  0  0  0  0  0
    1.9490   -0.5270    0.7300 C   0  0  0  0  0  0  0  0  0  0  0  0
    3.1270   -0.7470   -0.2010 C   0  0  0  0  0  0  0  0  0  0  0  0
    3.0260    0.1680   -1.2190 O   0  0  0  0  0  0  0  0  0  0  0  0
    1.7000    0.5980   -1.2780 C   0  0  0  0  0  0  0  0  0  0  0  0
  1  2  2  0
  2  3  1  0
  2  4  1  0
  4  5  1  0
  6  5  1  6
  6  7  1  0
  6 10  1  0
  7  8  1  0
  8  9  1  0
  9 10  1  0
M  END
