
     RDKit          3D

 33 36  0  0  0  0  0  0  0  0999 V2000
   -6.6850   -2.5370    1.4590 C   0  0  0  0  0  0  0  0  0  0  0  0
   -5.3600   -2.1200    1.2000 O   0  0  0  0  0  0  0  0  0  0  0  0
   -4.7280   -2.5670    0.0670 C   0  0  0  0  0  0  0  0  0  0  0  0
   -5.3060   -3.4030   -0.8390 C   0  0  0  0  0  0  0  0  0  0  0  0
   -4.6550   -3.8350   -1.9590 C   0  0  0  0  0  0  0  0  0  0  0  0
   -3.3440   -3.4200   -2.2130 C   0  0  0  0  0  0  0  0  0  0  0  0
   -2.7630   -2.5640   -1.2780 C   0  0  0  0  0  0  0  0  0  0  0  0
   -3.4190   -2.1420   -0.1690 C   0  0  0  0  0  0  0  0  0  0  0  0
   -2.8280   -1.2520    0.7840 N   0  0  0  0  0  0  0  0  0  0  0  0
   -1.4750   -0.8290    0.6790 C   0  0  0  0  0  0  0  0  0  0  0  0
   -0.5600   -1.6590    0.3390 N   0  0  0  0  0  0  0  0  0  0  0  0
    0.8040   -1.3180    0.2140 C   0  0  0  0  0  0  0  0  0  0  0  0
    2.0550   -2.4990   -0.2640 S   0  0  0  0  0  0  0  0  0  0  0  0
    3.6930   -1.7360   -0.3160 C   0  0  0  0  0  0  0  0  0  0  0  0
    3.7750   -0.7280   -1.3840 C   0  0  0  0  0  0  0  0  0  0  0  0
    2.7620   -0.5240   -2.1000 O   0  0  0  0  0  0  0  0  0  0  0  0
    4.9410    0.0240   -1.6430 N   0  0  0  0  0  0  0  0  0  0  0  0
    4.9900    1.0070   -2.6980 C   0  0  0  0  0  0  0  0  0  0  0  0
    6.0970    1.9910   -2.2950 C   0  0  0  0  0  0  0  0  0  0  0  0
    5.9570    2.1570   -0.9090 O   0  0  0  0  0  0  0  0  0  0  0  0
    6.6790    1.1250   -0.3120 C   0  0  1  0  0  0  0  0  0  0  0  0
    6.5520    1.2020    1.1990 C   0  0  0  0  0  0  0  0  0  0  0  0
    6.1180   -0.1900   -0.8360 C   0  0  0  0  0  0  0  0  0  0  0  0
    1.1630   -0.1120    0.4510 N   0  0  0  0  0  0  0  0  0  0  0  0
    0.2630    0.9170    0.8370 C   0  0  0  0  0  0  0  0  0  0  0  0
    0.6880    2.0910    1.0560 O   0  0  0  0  0  0  0  0  0  0  0  0
   -1.1480    0.5910    0.9720 C   0  0  0  0  0  0  0  0  0  0  0  0
   -2.0920    1.4260    1.3130 C   0  0  0  0  0  0  0  0  0  0  0  0
   -1.9210    2.8160    1.6240 C   0  0  0  0  0  0  0  0  0  0  0  0
   -2.9800    3.5610    1.9600 C   0  0  0  0  0  0  0  0  0  0  0  0
   -4.3250    2.9490    2.0100 C   0  0  0  0  0  0  0  0  0  0  0  0
   -2.8100    4.9850    2.2770 C   0  0  0  0  0  0  0  0  0  0  0  0
   -3.9780   -4.3190   -3.1800 C   0  0  0  0  0  0  0  0  0  0  0  0
  1  2  1  0
  2  3  1  0
  3  4  2  0
  3  8  1  0
  4  5  1  0
  5  6  2  0
  5 33  1  0
  6  7  1  0
  6 33  1  0
  7  8  2  0
  8  9  1  0
  9 10  1  0
 10 11  2  0
 10 27  1  0
 11 12  1  0
 12 13  1  0
 12 24  2  0
 13 14  1  0
 14 15  1  0
 15 16  2  0
 15 17  1  0
 17 18  1  0
 17 23  1  0
 18 19  1  0
 19 20  1  0
 20 21  1  0
 21 22  1  1
 21 23  1  0
 24 25  1  0
 25 26  2  0
 25 27  1  0
 27 28  2  3
 28 29  1  0
 29 30  2  3
 30 31  1  0
 30 32  1  0
M  END
