
     RDKit          3D

 33 35  0  0  0  0  0  0  0  0999 V2000
   -2.4390    0.6650   -1.8400 C   0  0  0  0  0  0  0  0  0  0  0  0
   -2.0060    1.2280   -0.5570 N   0  0  0  0  0  0  0  0  0  0  0  0
   -3.0670    1.7600    0.2560 C   0  0  0  0  0  0  0  0  0  0  0  0
   -4.1210    0.7170    0.5050 C   0  0  0  0  0  0  0  0  0  0  0  0
   -3.9790   -0.1550    1.5700 C   0  0  0  0  0  0  0  0  0  0  0  0
   -4.8860   -1.1080    1.8440 N   0  0  0  0  0  0  0  0  0  0  0  0
   -5.9820   -1.2140    1.0440 C   0  0  0  0  0  0  0  0  0  0  0  0
   -6.9280   -2.1550    1.2760 N   0  0  0  0  0  0  0  0  0  0  0  0
   -8.0140   -2.2540    0.4750 C   0  0  0  0  0  0  0  0  0  0  0  0
   -8.9890   -3.2480    0.7540 N   0  0  0  0  0  0  0  0  0  0  0  0
   -8.1290   -1.3940   -0.5550 N   0  0  0  0  0  0  0  0  0  0  0  0
   -7.2360   -0.4370   -0.8480 C   0  0  0  0  0  0  0  0  0  0  0  0
   -7.3790    0.4540   -1.9300 N   0  0  0  0  0  0  0  0  0  0  0  0
   -6.1210   -0.3450   -0.0150 C   0  0  0  0  0  0  0  0  0  0  0  0
   -5.2020    0.6140   -0.2850 N   0  0  0  0  0  0  0  0  0  0  0  0
   -0.6260    1.2360   -0.1960 C   0  0  0  0  0  0  0  0  0  0  0  0
    0.3140    0.7000   -1.0340 C   0  0  0  0  0  0  0  0  0  0  0  0
    1.6820    0.7240   -0.7270 C   0  0  0  0  0  0  0  0  0  0  0  0
    2.1500    1.2900    0.4380 C   0  0  0  0  0  0  0  0  0  0  0  0
    3.5680    1.3510    0.7820 C   0  0  0  0  0  0  0  0  0  0  0  0
    3.8890    2.0380    1.7970 O   0  0  0  0  0  0  0  0  0  0  0  0
    4.6050    0.7070    0.0710 N   0  0  0  0  0  0  0  0  0  0  0  0
    5.9650    0.8550    0.5020 C   0  0  1  0  0  0  0  0  0  0  0  0
    6.4920   -0.4740    0.9660 C   0  0  0  0  0  0  0  0  0  0  0  0
    6.4740   -1.5080   -0.1120 C   0  0  0  0  0  0  0  0  0  0  0  0
    7.0100   -2.7690    0.4790 C   0  0  0  0  0  0  0  0  0  0  0  0
    6.4560   -3.2080    1.5120 O   0  0  0  0  0  0  0  0  0  0  0  0
    8.0970   -3.4020   -0.1320 O   0  0  0  0  0  0  0  0  0  0  0  0
    6.8400    1.3630   -0.6040 C   0  0  0  0  0  0  0  0  0  0  0  0
    6.4270    1.6230   -1.7560 O   0  0  0  0  0  0  0  0  0  0  0  0
    8.1730    1.5610   -0.3580 O   0  0  0  0  0  0  0  0  0  0  0  0
    1.1920    1.8270    1.2790 C   0  0  0  0  0  0  0  0  0  0  0  0
   -0.1730    1.8010    0.9680 C   0  0  0  0  0  0  0  0  0  0  0  0
  1  2  1  0
  2  3  1  0
  2 16  1  0
  3  4  1  0
  4  5  2  0
  4 15  1  0
  5  6  1  0
  6  7  2  0
  7  8  1  0
  7 14  1  0
  8  9  2  0
  9 10  1  0
  9 11  1  0
 11 12  2  0
 12 13  1  0
 12 14  1  0
 14 15  2  0
 16 17  2  0
 16 33  1  0
 17 18  1  0
 18 19  2  0
 19 20  1  0
 19 32  1  0
 20 21  2  0
 20 22  1  0
 22 23  1  0
 23 24  1  6
 23 29  1  0
 24 25  1  0
 25 26  1  0
 26 27  2  0
 26 28  1  0
 29 30  2  0
 29 31  1  0
 32 33  2  0
M  END
