
     RDKit          3D

 33 36  0  0  0  0  0  0  0  0999 V2000
   -7.3760    1.0450    0.4260 C   0  0  0  0  0  0  0  0  0  0  0  0
   -7.0650   -0.3560    0.2640 C   0  0  0  0  0  0  0  0  0  0  0  0
   -6.0260   -1.1190    0.1410 C   0  0  0  0  0  0  0  0  0  0  0  0
   -6.2740   -2.6030   -0.0070 C   0  0  0  0  0  0  0  0  0  0  0  0
   -7.4300   -3.0870   -0.0120 N   0  0  0  0  0  0  0  0  0  0  0  0
   -5.0980   -3.4670   -0.1480 C   0  0  0  0  0  0  0  0  0  0  0  0
   -3.8900   -2.9830   -0.1450 C   0  0  0  0  0  0  0  0  0  0  0  0
   -3.6410   -1.5720   -0.0050 C   0  0  0  0  0  0  0  0  0  0  0  0
   -4.6560   -0.6610    0.1340 C   0  0  0  0  0  0  0  0  0  0  0  0
   -4.2710    0.7210    0.2660 C   0  0  0  0  0  0  0  0  0  0  0  0
   -2.9550    1.1060    0.2500 N   0  0  0  0  0  0  0  0  0  0  0  0
   -2.8490    2.4260    0.3870 C   0  0  0  0  0  0  0  0  0  0  0  0
   -1.6460    3.2600    0.4240 C   0  0  0  0  0  0  0  0  0  0  0  0
   -1.7910    4.5060    0.5650 O   0  0  0  0  0  0  0  0  0  0  0  0
   -0.3580    2.6720    0.3030 N   0  0  0  0  0  0  0  0  0  0  0  0
    0.8260    3.5020    0.3410 C   0  0  0  0  0  0  0  0  0  0  0  0
    1.8310    2.7850    1.2530 C   0  0  0  0  0  0  0  0  0  0  0  0
    2.1800    1.5720    0.5800 N   0  0  0  0  0  0  0  0  0  0  0  0
    3.5230    1.1230    0.5930 C   0  0  0  0  0  0  0  0  0  0  0  0
    4.4080    1.7860    1.1940 O   0  0  0  0  0  0  0  0  0  0  0  0
    3.9470   -0.1280   -0.0880 C   0  0  0  0  0  0  0  0  0  0  0  0
    5.4120   -0.3530    0.0830 C   0  0  0  0  0  0  0  0  0  0  0  0
    5.7810   -1.6240   -0.6240 C   0  0  0  0  0  0  0  0  0  0  0  0
    4.8970   -2.2790   -1.2150 O   0  0  0  0  0  0  0  0  0  0  0  0
    7.1190   -2.1230   -0.6480 C   0  0  0  0  0  0  0  0  0  0  0  0
    7.7130   -3.2200   -1.1990 C   0  0  0  0  0  0  0  0  0  0  0  0
    9.0080   -3.4300   -1.0540 C   0  0  0  0  0  0  0  0  0  0  0  0
    9.7810   -2.5290   -0.3340 C   0  0  0  0  0  0  0  0  0  0  0  0
    8.5390   -1.3080    0.1580 S   0  0  0  0  0  0  0  0  0  0  0  0
    1.1890    0.8040   -0.1080 C   0  0  0  0  0  0  0  0  0  0  0  0
   -0.2110    1.2560    0.1420 C   0  0  0  0  0  0  0  0  0  0  0  0
   -4.1580    2.8740    0.4930 C   0  0  0  0  0  0  0  0  0  0  0  0
   -4.9040    1.8000    0.4100 O   0  0  0  0  0  0  0  0  0  0  0  0
  1  2  1  0
  2  3  2  3
  3  4  1  0
  3  9  1  0
  4  5  2  0
  4  6  1  0
  6  7  2  0
  7  8  1  0
  8  9  2  0
  9 10  1  0
 10 11  2  0
 10 33  1  0
 11 12  1  0
 12 13  1  0
 12 32  2  0
 13 14  2  0
 13 15  1  0
 15 16  1  0
 15 31  1  0
 16 17  1  0
 17 18  1  0
 18 19  1  0
 18 30  1  0
 19 20  2  0
 19 21  1  0
 21 22  1  0
 22 23  1  0
 23 24  2  0
 23 25  1  0
 25 26  2  0
 25 29  1  0
 26 27  1  0
 27 28  2  0
 28 29  1  0
 30 31  1  0
 32 33  1  0
M  END
