
     RDKit          3D

 20 22  0  0  0  0  0  0  0  0999 V2000
    3.7430    2.4200   -1.1970 C   0  0  0  0  0  0  0  0  0  0  0  0
    4.2840    1.3940   -0.4260 O   0  0  0  0  0  0  0  0  0  0  0  0
    3.5660    0.4490    0.2730 C   0  0  0  0  0  0  0  0  0  0  0  0
    3.9970   -0.1630    1.3520 C   0  0  0  0  0  0  0  0  0  0  0  0
    3.2450   -1.1720    2.1070 C   0  0  0  0  0  0  0  0  0  0  0  0
    1.8970   -1.5170    1.6030 C   0  0  0  0  0  0  0  0  0  0  0  0
    1.4550   -0.8070    0.3900 C   0  0  0  0  0  0  0  0  0  0  0  0
    0.1330   -1.0970   -0.1720 C   0  0  0  0  0  0  0  0  0  0  0  0
   -0.7220   -1.9790    0.3540 C   0  0  0  0  0  0  0  0  0  0  0  0
   -1.9700   -2.0570   -0.4280 C   0  0  0  0  0  0  0  0  0  0  0  0
   -1.9700   -0.7290   -1.1660 C   0  0  1  0  0  0  0  0  0  0  0  0
   -2.6470   -0.8230   -2.4920 C   0  0  0  0  0  0  0  0  0  0  0  0
   -2.5100    0.3390   -0.3050 C   0  0  0  0  0  0  0  0  0  0  0  0
   -3.5640    1.0810   -0.5500 C   0  0  0  0  0  0  0  0  0  0  0  0
   -3.7480    2.0220    0.5720 C   0  0  0  0  0  0  0  0  0  0  0  0
   -2.6600    1.7240    1.4960 C   0  0  0  0  0  0  0  0  0  0  0  0
   -1.9540    0.7450    0.9690 C   0  0  0  0  0  0  0  0  0  0  0  0
   -0.4850   -0.5330   -1.3350 C   0  0  0  0  0  0  0  0  0  0  0  0
    0.0170    0.0190   -2.3210 O   0  0  0  0  0  0  0  0  0  0  0  0
    2.2360    0.0780   -0.1870 C   0  0  0  0  0  0  0  0  0  0  0  0
  1  2  1  0
  2  3  1  0
  3  4  2  0
  3 20  1  0
  4  5  1  0
  5  6  1  0
  6  7  1  0
  7  8  1  0
  7 20  2  0
  8  9  2  0
  8 18  1  0
  9 10  1  0
 10 11  1  0
 11 12  1  6
 11 13  1  0
 11 18  1  0
 13 14  2  0
 13 17  1  0
 14 15  1  0
 15 16  1  0
 16 17  2  0
 18 19  2  0
M  END
