
     RDKit          3D

 20 22  0  0  0  0  0  0  0  0999 V2000
   -0.6380   -1.3590    2.3670 O   0  0  0  0  0  0  0  0  0  0  0  0
   -0.9370   -1.4770    1.0050 C   0  0  1  0  0  0  0  0  0  0  0  0
   -2.2680   -0.9520    0.6200 C   0  0  0  0  0  0  0  0  0  0  0  0
   -2.5520    0.4800    0.8860 C   0  0  0  0  0  0  0  0  0  0  0  0
   -3.9620    0.7530    0.4210 C   0  0  0  0  0  0  0  0  0  0  0  0
   -4.9950    1.1810    1.1200 C   0  0  0  0  0  0  0  0  0  0  0  0
   -6.1910    1.3080    0.2500 C   0  0  0  0  0  0  0  0  0  0  0  0
   -5.6940    0.8870   -1.0590 C   0  0  0  0  0  0  0  0  0  0  0  0
   -4.4210    0.5750   -0.9400 C   0  0  0  0  0  0  0  0  0  0  0  0
    0.2170   -1.1640    0.1350 C   0  0  1  0  0  0  0  0  0  0  0  0
   -0.0600   -1.2630   -1.3470 C   0  0  0  0  0  0  0  0  0  0  0  0
    1.3370   -1.2860   -1.9900 C   0  0  0  0  0  0  0  0  0  0  0  0
    1.9230   -0.0670   -1.7040 O   0  0  0  0  0  0  0  0  0  0  0  0
    2.2470    0.1250   -0.3740 C   0  0  1  0  0  0  0  0  0  0  0  0
    3.2950   -0.8010    0.1020 C   0  0  0  0  0  0  0  0  0  0  0  0
    4.2810   -0.0670    1.0180 C   0  0  0  0  0  0  0  0  0  0  0  0
    5.1610    0.7610    0.1050 C   0  0  0  0  0  0  0  0  0  0  0  0
    4.2360    1.5540   -0.7930 C   0  0  0  0  0  0  0  0  0  0  0  0
    2.8180    1.5490   -0.2910 C   0  0  0  0  0  0  0  0  0  0  0  0
    0.9500    0.1060    0.4050 C   0  0  0  0  0  0  0  0  0  0  0  0
  2  1  1  1
  2  3  1  0
  2 10  1  0
  3  4  1  0
  4  5  1  0
  5  6  2  0
  5  9  1  0
  6  7  1  0
  7  8  1  0
  8  9  2  0
 10 11  1  6
 10 20  1  0
 11 12  1  0
 12 13  1  0
 13 14  1  0
 14 15  1  1
 14 19  1  0
 14 20  1  0
 15 16  1  0
 16 17  1  0
 17 18  1  0
 18 19  1  0
M  END
