
     RDKit          3D

 33 36  0  0  0  0  0  0  0  0999 V2000
   -5.2500   -1.7790    4.7030 C   0  0  0  0  0  0  0  0  0  0  0  0
   -4.3830   -1.2810    3.7060 O   0  0  0  0  0  0  0  0  0  0  0  0
   -4.1100   -2.0010    2.5680 C   0  0  0  0  0  0  0  0  0  0  0  0
   -4.7010   -3.2560    2.3770 C   0  0  0  0  0  0  0  0  0  0  0  0
   -4.4280   -3.9770    1.2470 C   0  0  0  0  0  0  0  0  0  0  0  0
   -3.5690   -3.4590    0.2980 C   0  0  0  0  0  0  0  0  0  0  0  0
   -3.0080   -2.2300    0.5140 C   0  0  0  0  0  0  0  0  0  0  0  0
   -3.2530   -1.4760    1.6310 C   0  0  0  0  0  0  0  0  0  0  0  0
   -2.6900   -0.1970    1.8500 N   0  0  0  0  0  0  0  0  0  0  0  0
   -1.6670    0.3460    1.0280 C   0  0  0  0  0  0  0  0  0  0  0  0
   -0.7350   -0.4440    0.6420 N   0  0  0  0  0  0  0  0  0  0  0  0
    0.3250    0.0240   -0.1790 C   0  0  0  0  0  0  0  0  0  0  0  0
    1.6310   -1.1180   -0.6960 S   0  0  0  0  0  0  0  0  0  0  0  0
    2.8490   -0.3300   -1.7390 C   0  0  0  0  0  0  0  0  0  0  0  0
    3.8810   -1.3310   -2.0850 C   0  0  0  0  0  0  0  0  0  0  0  0
    3.7580   -2.5060   -1.6790 O   0  0  0  0  0  0  0  0  0  0  0  0
    5.0020   -1.0100   -2.8570 N   0  0  0  0  0  0  0  0  0  0  0  0
    5.2250    0.3310   -3.3610 C   0  0  0  0  0  0  0  0  0  0  0  0
    6.5220    0.7980   -2.7130 C   0  0  0  0  0  0  0  0  0  0  0  0
    7.0830   -0.1910   -1.9460 O   0  0  0  0  0  0  0  0  0  0  0  0
    7.3250   -1.3890   -2.6110 C   0  0  1  0  0  0  0  0  0  0  0  0
    7.9580   -2.3600   -1.6570 C   0  0  0  0  0  0  0  0  0  0  0  0
    6.0420   -1.9790   -3.2140 C   0  0  0  0  0  0  0  0  0  0  0  0
    0.4310    1.2410   -0.5870 N   0  0  0  0  0  0  0  0  0  0  0  0
   -0.5460    2.2200   -0.2230 C   0  0  0  0  0  0  0  0  0  0  0  0
   -0.4150    3.3720   -0.6300 O   0  0  0  0  0  0  0  0  0  0  0  0
   -1.6440    1.7740    0.6150 C   0  0  0  0  0  0  0  0  0  0  0  0
   -2.6090    2.5450    1.0040 C   0  0  0  0  0  0  0  0  0  0  0  0
   -2.7990    3.9530    0.7320 C   0  0  0  0  0  0  0  0  0  0  0  0
   -3.8750    4.6100    1.2090 C   0  0  0  0  0  0  0  0  0  0  0  0
   -4.8530    3.8580    2.0080 C   0  0  0  0  0  0  0  0  0  0  0  0
   -4.0620    6.0570    0.9330 C   0  0  0  0  0  0  0  0  0  0  0  0
   -4.1860   -4.8140    0.0550 C   0  0  0  0  0  0  0  0  0  0  0  0
  1  2  1  0
  2  3  1  0
  3  4  2  0
  3  8  1  0
  4  5  1  0
  5  6  2  0
  5 33  1  0
  6  7  1  0
  6 33  1  0
  7  8  2  0
  8  9  1  0
  9 10  1  0
 10 11  2  0
 10 27  1  0
 11 12  1  0
 12 13  1  0
 12 24  2  0
 13 14  1  0
 14 15  1  0
 15 16  2  0
 15 17  1  0
 17 18  1  0
 17 23  1  0
 18 19  1  0
 19 20  1  0
 20 21  1  0
 21 22  1  1
 21 23  1  0
 24 25  1  0
 25 26  2  0
 25 27  1  0
 27 28  2  3
 28 29  1  0
 29 30  2  3
 30 31  1  0
 30 32  1  0
M  END
