
     RDKit          3D

 33 36  0  0  0  0  0  0  0  0999 V2000
    3.9530    1.1170    3.5720 C   0  0  0  0  0  0  0  0  0  0  0  0
    4.6060    0.8860    2.3020 N   0  0  0  0  0  0  0  0  0  0  0  0
    3.8420    0.3410    1.2340 C   0  0  0  0  0  0  0  0  0  0  0  0
    2.5030    0.0320    1.3920 C   0  0  0  0  0  0  0  0  0  0  0  0
    1.7440   -0.4970    0.3750 C   0  0  0  0  0  0  0  0  0  0  0  0
    0.3570   -0.8240    0.5170 N   0  0  0  0  0  0  0  0  0  0  0  0
   -0.6500    0.2040    0.5850 C   0  0  0  0  0  0  0  0  0  0  0  0
   -1.2090    0.5340   -0.7520 C   0  0  0  0  0  0  0  0  0  0  0  0
   -0.7370   -0.1140   -1.7390 O   0  0  0  0  0  0  0  0  0  0  0  0
   -2.2070    1.5070   -0.9420 N   0  0  0  0  0  0  0  0  0  0  0  0
   -2.7730    2.2680    0.1530 C   0  0  0  0  0  0  0  0  0  0  0  0
   -2.7460    3.7250   -0.2630 C   0  0  0  0  0  0  0  0  0  0  0  0
   -3.5900    3.8390   -1.3710 O   0  0  0  0  0  0  0  0  0  0  0  0
   -2.9660    3.2770   -2.4590 C   0  0  0  0  0  0  0  0  0  0  0  0
   -2.7120    1.7850   -2.2700 C   0  0  0  0  0  0  0  0  0  0  0  0
    0.0110   -2.1830    0.6130 C   0  0  0  0  0  0  0  0  0  0  0  0
    0.9380   -3.0330    0.6370 O   0  0  0  0  0  0  0  0  0  0  0  0
   -1.3970   -2.6710    0.6850 C   0  0  0  0  0  0  0  0  0  0  0  0
   -1.6790   -4.0690    0.7860 C   0  0  0  0  0  0  0  0  0  0  0  0
   -3.4440   -4.0710    0.8350 S   0  0  0  0  0  0  0  0  0  0  0  0
   -3.6410   -2.2930    0.7210 C   0  0  0  0  0  0  0  0  0  0  0  0
   -4.9600   -1.5930    0.7110 C   0  0  2  0  0  0  0  0  0  0  0  0
   -5.7820   -1.9350    1.9160 C   0  0  0  0  0  0  0  0  0  0  0  0
   -5.6410   -1.9900   -0.5840 C   0  0  0  0  0  0  0  0  0  0  0  0
   -2.4350   -1.9290    0.6640 N   0  0  0  0  0  0  0  0  0  0  0  0
    2.3600   -0.7190   -0.8380 C   0  0  0  0  0  0  0  0  0  0  0  0
    3.7030   -0.4160   -1.0160 C   0  0  0  0  0  0  0  0  0  0  0  0
    4.4430    0.1120    0.0140 C   0  0  0  0  0  0  0  0  0  0  0  0
    5.8710    0.4480   -0.1320 C   0  0  0  0  0  0  0  0  0  0  0  0
    6.3370    0.4780   -1.5670 C   0  0  0  0  0  0  0  0  0  0  0  0
    5.8370   -0.7920   -2.2690 C   0  0  0  0  0  0  0  0  0  0  0  0
    4.3570   -0.6500   -2.2960 C   0  0  0  0  0  0  0  0  0  0  0  0
    3.6710   -0.7220   -3.3440 O   0  0  0  0  0  0  0  0  0  0  0  0
  1  2  1  0
  2  3  1  0
  3  4  2  0
  3 28  1  0
  4  5  1  0
  5  6  1  0
  5 26  2  0
  6  7  1  0
  6 16  1  0
  7  8  1  0
  8  9  2  0
  8 10  1  0
 10 11  1  0
 10 15  1  0
 11 12  1  0
 12 13  1  0
 13 14  1  0
 14 15  1  0
 16 17  2  0
 16 18  1  0
 18 19  2  0
 18 25  1  0
 19 20  1  0
 20 21  1  0
 21 22  1  0
 21 25  2  0
 22 23  1  1
 22 24  1  0
 26 27  1  0
 27 28  2  0
 27 32  1  0
 28 29  1  0
 29 30  1  0
 30 31  1  0
 31 32  1  0
 32 33  2  0
M  END
