
     RDKit          3D

 33 36  0  0  0  0  0  0  0  0999 V2000
   -6.4880   -3.2830   -0.4140 C   0  0  0  0  0  0  0  0  0  0  0  0
   -6.3210   -1.8670    0.0090 C   0  0  0  0  0  0  0  0  0  0  0  0
   -7.3090   -1.2730    0.7630 C   0  0  0  0  0  0  0  0  0  0  0  0
   -7.1420    0.0480    1.1510 C   0  0  0  0  0  0  0  0  0  0  0  0
   -8.1760    0.7230    1.9600 C   0  0  0  0  0  0  0  0  0  0  0  0
   -6.0110    0.7460    0.7880 C   0  0  0  0  0  0  0  0  0  0  0  0
   -5.0030    0.1970    0.0400 C   0  0  0  0  0  0  0  0  0  0  0  0
   -3.8190    0.8720   -0.3630 C   0  0  0  0  0  0  0  0  0  0  0  0
   -2.5510   -0.0200   -1.3660 S   0  0  0  0  0  0  0  0  0  0  0  0
   -1.4180    1.2750   -1.5220 C   0  0  0  0  0  0  0  0  0  0  0  0
   -0.1660    1.1490   -2.2450 C   0  0  0  0  0  0  0  0  0  0  0  0
    0.9550    0.7070   -1.5120 N   0  0  0  0  0  0  0  0  0  0  0  0
    0.8660   -0.5680   -0.8990 C   0  0  0  0  0  0  0  0  0  0  0  0
    2.1710   -1.1150   -0.4290 C   0  0  0  0  0  0  0  0  0  0  0  0
    3.1830   -0.1130   -0.1580 N   0  0  0  0  0  0  0  0  0  0  0  0
    4.2630   -0.4810    0.7440 C   0  0  0  0  0  0  0  0  0  0  0  0
    4.2810   -1.6120    1.2450 O   0  0  0  0  0  0  0  0  0  0  0  0
    5.2930    0.5170    1.0240 C   0  0  0  0  0  0  0  0  0  0  0  0
    6.4930    0.0650    1.7490 C   0  0  0  0  0  0  0  0  0  0  0  0
    7.3140   -0.9410    1.1260 N   0  0  0  0  0  0  0  0  0  0  0  0
    8.3410   -0.5870    0.1600 C   0  0  0  0  0  0  0  0  0  0  0  0
    8.6020    0.5760   -0.2570 O   0  0  0  0  0  0  0  0  0  0  0  0
    9.0250   -1.7340   -0.2620 N   0  0  0  0  0  0  0  0  0  0  0  0
    8.4810   -2.8500    0.3990 C   0  0  0  0  0  0  0  0  0  0  0  0
    8.8010   -4.0530    0.3080 O   0  0  0  0  0  0  0  0  0  0  0  0
    7.4100   -2.3360    1.2660 C   0  0  0  0  0  0  0  0  0  0  0  0
    6.7010   -3.0630    2.0160 O   0  0  0  0  0  0  0  0  0  0  0  0
    3.1480    1.2140   -0.7490 C   0  0  0  0  0  0  0  0  0  0  0  0
    1.7010    1.6800   -0.7940 C   0  0  0  0  0  0  0  0  0  0  0  0
   -2.0210    2.2760   -0.8420 C   0  0  0  0  0  0  0  0  0  0  0  0
   -3.2190    2.0600   -0.2680 C   0  0  0  0  0  0  0  0  0  0  0  0
   -3.9270    3.1790    0.5100 C   0  0  0  0  0  0  0  0  0  0  0  0
   -5.2210   -1.1410   -0.3270 C   0  0  0  0  0  0  0  0  0  0  0  0
  1  2  1  0
  2  3  2  0
  2 33  1  0
  3  4  1  0
  4  5  1  0
  4  6  2  0
  6  7  1  0
  7  8  1  0
  7 33  2  0
  8  9  1  0
  8 31  2  0
  9 10  1  0
 10 11  1  0
 10 30  2  0
 11 12  1  0
 12 13  1  0
 12 29  1  0
 13 14  1  0
 14 15  1  0
 15 16  1  0
 15 28  1  0
 16 17  2  0
 16 18  1  0
 18 19  1  0
 19 20  1  0
 20 21  1  0
 20 26  1  0
 21 22  2  0
 21 23  1  0
 23 24  1  0
 24 25  2  0
 24 26  1  0
 26 27  2  0
 28 29  1  0
 30 31  1  0
 31 32  1  0
M  END
