
     RDKit          3D

 33 36  0  0  0  0  0  0  0  0999 V2000
    9.4860   -2.7810    0.2080 C   0  0  0  0  0  0  0  0  0  0  0  0
    8.5020   -1.6880    0.1320 N   0  0  0  0  0  0  0  0  0  0  0  0
    8.7210   -0.6410    0.9430 C   0  0  0  0  0  0  0  0  0  0  0  0
    7.8460    0.4690    0.9380 C   0  0  0  0  0  0  0  0  0  0  0  0
    6.8010    0.3970    0.0880 C   0  0  0  0  0  0  0  0  0  0  0  0
    5.8000    1.4750    0.0890 C   0  0  0  0  0  0  0  0  0  0  0  0
    5.3680    1.8750    1.1830 O   0  0  0  0  0  0  0  0  0  0  0  0
    5.3150    2.0360   -1.1080 N   0  0  0  0  0  0  0  0  0  0  0  0
    4.2380    3.0430   -0.9430 C   0  0  0  0  0  0  0  0  0  0  0  0
    3.2500    2.2160   -0.1200 C   0  0  0  0  0  0  0  0  0  0  0  0
    2.8550    2.5870    0.9920 O   0  0  0  0  0  0  0  0  0  0  0  0
    2.8650    1.0620   -0.7140 O   0  0  0  0  0  0  0  0  0  0  0  0
    2.0190    0.1770   -0.1030 C   0  0  0  0  0  0  0  0  0  0  0  0
    0.6660    0.7420    0.0570 C   0  0  0  0  0  0  0  0  0  0  0  0
   -0.1550    1.2980    0.7050 N   0  0  0  0  0  0  0  0  0  0  0  0
   -1.3770    1.6360    0.4790 C   0  0  0  0  0  0  0  0  0  0  0  0
   -1.8030    1.2430   -0.8460 C   0  0  0  0  0  0  0  0  0  0  0  0
   -0.4270    0.4860   -1.5310 S   0  0  0  0  0  0  0  0  0  0  0  0
   -3.2550    1.5030   -1.1730 C   0  0  0  0  0  0  0  0  0  0  0  0
   -3.9610    0.7400   -0.0120 C   0  0  2  0  0  0  0  0  0  0  0  0
   -3.1320   -0.5440    0.1630 C   0  0  0  0  0  0  0  0  0  0  0  0
   -5.3270    0.4070   -0.3210 N   0  0  0  0  0  0  0  0  0  0  0  0
   -5.3040   -0.4330   -1.4470 C   0  0  0  0  0  0  0  0  0  0  0  0
   -6.3560   -1.4290   -1.6770 C   0  0  0  0  0  0  0  0  0  0  0  0
   -6.1540   -2.6720   -0.8270 C   0  0  0  0  0  0  0  0  0  0  0  0
   -6.5260   -2.4280    0.5930 C   0  0  0  0  0  0  0  0  0  0  0  0
   -7.0080   -1.0120    0.8660 C   0  0  0  0  0  0  0  0  0  0  0  0
   -5.8880   -0.0720    0.8900 C   0  0  0  0  0  0  0  0  0  0  0  0
   -3.7430    1.5540    1.2220 C   0  0  0  0  0  0  0  0  0  0  0  0
   -2.4590    2.3360    1.2030 C   0  0  0  0  0  0  0  0  0  0  0  0
    6.5830   -0.6940   -0.7430 C   0  0  0  0  0  0  0  0  0  0  0  0
    7.4640   -1.7530   -0.7090 C   0  0  0  0  0  0  0  0  0  0  0  0
    7.3270   -2.7520   -1.4340 O   0  0  0  0  0  0  0  0  0  0  0  0
  1  2  1  0
  2  3  1  0
  2 32  1  0
  3  4  2  0
  4  5  1  0
  5  6  1  0
  5 31  2  0
  6  7  2  0
  6  8  1  0
  8  9  1  0
  9 10  1  0
 10 11  2  0
 10 12  1  0
 12 13  1  0
 13 14  1  0
 14 15  2  0
 14 18  1  0
 15 16  1  0
 16 17  2  0
 16 30  1  0
 17 18  1  0
 17 19  1  0
 19 20  1  0
 20 21  1  1
 20 22  1  0
 20 29  1  0
 22 23  1  0
 22 28  1  0
 23 24  1  0
 24 25  1  0
 25 26  1  0
 26 27  1  0
 27 28  1  0
 29 30  1  0
 31 32  1  0
 32 33  2  0
M  END
