
     RDKit          3D

 33 35  0  0  0  0  0  0  0  0999 V2000
   -5.7430   -1.6550    1.7960 C   0  0  0  0  0  0  0  0  0  0  0  0
   -5.6630   -0.5520    0.7170 C   0  0  0  0  0  0  0  0  0  0  0  0
   -4.7330    0.4750    1.1150 N   0  0  0  0  0  0  0  0  0  0  0  0
   -3.7270    0.8300    0.1450 C   0  0  1  0  0  0  0  0  0  0  0  0
   -2.6360   -0.1250    0.2370 C   0  0  1  0  0  0  0  0  0  0  0  0
   -1.4560   -0.0730   -0.6840 C   0  0  0  0  0  0  0  0  0  0  0  0
   -0.6220   -1.3370   -0.3420 C   0  0  0  0  0  0  0  0  0  0  0  0
   -0.2180   -1.4060    1.0110 N   0  0  0  0  0  0  0  0  0  0  0  0
    1.1080   -1.6390    1.4410 C   0  0  0  0  0  0  0  0  0  0  0  0
    1.3850   -1.6860    2.6790 O   0  0  0  0  0  0  0  0  0  0  0  0
    2.2350   -1.8390    0.4830 C   0  0  0  0  0  0  0  0  0  0  0  0
    3.5310   -2.0660    1.2250 C   0  0  0  0  0  0  0  0  0  0  0  0
    4.6440   -2.2640    0.3530 N   0  0  0  0  0  0  0  0  0  0  0  0
    4.9620   -3.5170   -0.0220 C   0  0  0  0  0  0  0  0  0  0  0  0
    4.2970   -4.5220    0.3820 O   0  0  0  0  0  0  0  0  0  0  0  0
    5.9910   -3.7140   -0.8300 N   0  0  0  0  0  0  0  0  0  0  0  0
    6.7360   -2.7160   -1.2960 C   0  0  0  0  0  0  0  0  0  0  0  0
    7.7290   -2.9130   -2.0760 O   0  0  0  0  0  0  0  0  0  0  0  0
    6.4180   -1.4370   -0.9190 C   0  0  0  0  0  0  0  0  0  0  0  0
    7.1720   -0.4070   -1.3920 N   0  0  0  0  0  0  0  0  0  0  0  0
    6.8810    0.8570   -1.0420 C   0  0  0  0  0  0  0  0  0  0  0  0
    7.7230    1.9320   -1.5790 C   0  0  0  0  0  0  0  0  0  0  0  0
    7.3270    3.2380   -1.1400 N   0  0  0  0  0  0  0  0  0  0  0  0
    5.8310    1.1350   -0.2100 C   0  0  0  0  0  0  0  0  0  0  0  0
    5.0480    0.1040    0.2860 C   0  0  0  0  0  0  0  0  0  0  0  0
    5.3610   -1.1920   -0.0840 C   0  0  0  0  0  0  0  0  0  0  0  0
   -1.2510   -1.2220    2.0080 C   0  0  0  0  0  0  0  0  0  0  0  0
   -1.9360    0.0520    1.6170 C   0  0  0  0  0  0  0  0  0  0  0  0
   -4.2120    1.4630   -1.0610 C   0  0  1  0  0  0  0  0  0  0  0  0
   -3.1660    1.8110   -2.1180 C   0  0  0  0  0  0  0  0  0  0  0  0
   -5.2540    0.7450   -1.8930 C   0  0  0  0  0  0  0  0  0  0  0  0
   -4.8380    2.8450   -0.8320 C   0  0  0  0  0  0  0  0  0  0  0  0
   -6.0140    2.9390    0.0280 C   0  0  0  0  0  0  0  0  0  0  0  0
  1  2  1  0
  2  3  1  0
  4  3  1  6
  4  5  1  0
  4 29  1  0
  5  6  1  6
  5 28  1  0
  6  7  1  0
  7  8  1  0
  8  9  1  0
  8 27  1  0
  9 10  2  0
  9 11  1  0
 11 12  1  0
 12 13  1  0
 13 14  1  0
 13 26  1  0
 14 15  2  0
 14 16  1  0
 16 17  1  0
 17 18  2  0
 17 19  1  0
 19 20  2  0
 19 26  1  0
 20 21  1  0
 21 22  1  0
 21 24  2  0
 22 23  1  0
 24 25  1  0
 25 26  2  0
 27 28  1  0
 29 30  1  6
 29 31  1  0
 29 32  1  0
 32 33  1  0
M  CHG  2   3   1  23   1
M  END
