
     RDKit          3D

 43 47  0  0  0  0  0  0  0  0999 V2000
    1.4040   -3.7080   -1.7820 O   0  0  0  0  0  0  0  0  0  0  0  0
    1.2170   -2.7530   -0.9620 C   0  0  0  0  0  0  0  0  0  0  0  0
    1.0050   -1.4800   -1.5000 N   0  0  0  0  0  0  0  0  0  0  0  0
    1.1260   -0.3220   -0.6200 C   0  0  0  0  0  0  0  0  0  0  0  0
    0.9500    0.9640   -1.2980 C   0  0  1  0  0  0  0  0  0  0  0  0
    1.4060    2.1250   -0.4810 C   0  0  0  0  0  0  0  0  0  0  0  0
    2.5670    2.0640    0.2330 O   0  0  0  0  0  0  0  0  0  0  0  0
    2.9380    1.4460    1.3700 C   0  0  0  0  0  0  0  0  0  0  0  0
    2.0910    0.7690    1.9970 O   0  0  0  0  0  0  0  0  0  0  0  0
    4.3160    1.5100    1.9500 C   0  0  2  0  0  0  0  0  0  0  0  0
    5.3480    0.9270    1.0050 C   0  0  0  0  0  0  0  0  0  0  0  0
    6.1940    0.2330    1.8770 O   0  0  0  0  0  0  0  0  0  0  0  0
    5.3030   -0.2210    2.8230 C   0  0  0  0  0  0  0  0  0  0  0  0
    4.4120    0.7820    3.1200 O   0  0  0  0  0  0  0  0  0  0  0  0
    1.9300    1.0140   -2.5400 C   0  0  0  0  0  0  0  0  0  0  0  0
    1.9630    2.3220   -2.8910 O   0  0  0  0  0  0  0  0  0  0  0  0
    0.7800    2.8520   -3.3600 C   0  0  0  0  0  0  0  0  0  0  0  0
   -0.4230    2.5190   -2.5510 C   0  0  0  0  0  0  0  0  0  0  0  0
   -0.3390    1.1610   -1.9570 N   0  0  0  0  0  0  0  0  0  0  0  0
   -1.4300    0.3340   -2.1500 C   0  0  0  0  0  0  0  0  0  0  0  0
   -1.7330    0.3340   -3.4520 O   0  0  0  0  0  0  0  0  0  0  0  0
   -2.3320   -0.5160   -1.4060 C   0  0  2  0  0  0  0  0  0  0  0  0
   -2.7690   -0.2240   -0.0730 C   0  0  0  0  0  0  0  0  0  0  0  0
   -3.9040   -0.8450    0.4460 C   0  0  0  0  0  0  0  0  0  0  0  0
   -4.3910   -0.5670    1.7000 C   0  0  0  0  0  0  0  0  0  0  0  0
   -3.7610    0.3520    2.4990 C   0  0  0  0  0  0  0  0  0  0  0  0
   -4.2380    0.6590    3.7900 O   0  0  0  0  0  0  0  0  0  0  0  0
   -3.6110    1.5450    4.5330 O   0  0  0  0  0  0  0  0  0  0  0  0
   -4.3170    2.6000    4.8360 O   0  0  0  0  0  0  0  0  0  0  0  0
   -4.6090    3.3420    3.7990 O   0  0  0  0  0  0  0  0  0  0  0  0
   -2.6450    0.9800    2.0240 C   0  0  0  0  0  0  0  0  0  0  0  0
   -2.1700    0.6800    0.7460 C   0  0  0  0  0  0  0  0  0  0  0  0
   -2.0730   -1.9310   -1.6910 N   0  0  0  0  0  0  0  0  0  0  0  0
   -1.9750   -2.4070   -2.9550 C   0  0  0  0  0  0  0  0  0  0  0  0
   -1.7540   -3.7600   -2.9040 C   0  0  0  0  0  0  0  0  0  0  0  0
   -1.7240   -4.0560   -1.6240 N   0  0  0  0  0  0  0  0  0  0  0  0
   -1.9210   -2.9270   -0.8610 C   0  0  0  0  0  0  0  0  0  0  0  0
   -1.9320   -2.9730    0.5580 N   0  0  0  0  0  0  0  0  0  0  0  0
   -1.0100   -2.5150    1.5110 C   0  0  0  0  0  0  0  0  0  0  0  0
   -1.5370   -1.9820    2.5610 O   0  0  0  0  0  0  0  0  0  0  0  0
    0.4450   -2.5750    1.4490 C   0  0  0  0  0  0  0  0  0  0  0  0
    1.0630   -2.1010    2.4730 O   0  0  0  0  0  0  0  0  0  0  0  0
    1.2440   -3.0810    0.4210 N   0  0  0  0  0  0  0  0  0  0  0  0
  1  2  2  0
  2  3  1  0
  2 43  1  0
  3  4  1  0
  4  5  1  0
  5  6  1  1
  5 15  1  0
  5 19  1  0
  6  7  1  0
  7  8  1  0
  8  9  2  0
 10  8  1  6
 10 11  1  0
 10 14  1  0
 11 12  1  0
 12 13  1  0
 13 14  1  0
 15 16  1  0
 16 17  1  0
 17 18  1  0
 18 19  1  0
 19 20  1  0
 20 21  2  0
 20 22  1  0
 22 23  1  1
 22 33  1  0
 23 24  2  0
 23 32  1  0
 24 25  1  0
 25 26  2  0
 26 27  1  0
 26 31  1  0
 27 28  1  0
 28 29  1  0
 29 30  1  0
 31 32  2  0
 33 34  1  0
 33 37  1  0
 34 35  2  0
 35 36  1  0
 36 37  2  0
 37 38  1  0
 38 39  1  0
 39 40  2  0
 39 41  1  0
 41 42  2  0
 41 43  1  0
M  END
