
     RDKit          3D

 44 48  0  0  0  0  0  0  0  0999 V2000
    3.6540   -0.4280    1.6600 C   0  0  0  0  0  0  0  0  0  0  0  0
    3.2460   -0.0400    0.2330 C   0  0  1  0  0  0  0  0  0  0  0  0
    4.6550    0.2830   -0.3900 C   0  0  0  0  0  0  0  0  0  0  0  0
    5.2360    1.3320    0.3360 O   0  0  0  0  0  0  0  0  0  0  0  0
    6.4900    1.7770   -0.0500 C   0  0  0  0  0  0  0  0  0  0  0  0
    7.0980    1.2490   -1.0370 O   0  0  0  0  0  0  0  0  0  0  0  0
    7.1620    2.8100    0.5960 O   0  0  0  0  0  0  0  0  0  0  0  0
    2.8540   -1.2760   -0.5610 C   0  0  0  0  0  0  0  0  0  0  0  0
    2.0460   -2.3040    0.1480 C   0  0  0  0  0  0  0  0  0  0  0  0
    0.8530   -2.8400   -0.5340 N   0  0  0  0  0  0  0  0  0  0  0  0
    1.0620   -3.8840   -1.4610 C   0  0  0  0  0  0  0  0  0  0  0  0
    2.2830   -4.2760   -1.6270 O   0  0  0  0  0  0  0  0  0  0  0  0
    0.0930   -4.5280   -2.2070 O   0  0  0  0  0  0  0  0  0  0  0  0
   -0.4180   -2.3430   -0.2850 C   0  0  2  0  0  0  0  0  0  0  0  0
   -0.4370   -1.8140    1.1390 C   0  0  0  0  0  0  0  0  0  0  0  0
   -0.2520   -0.3030    1.0330 C   0  0  0  0  0  0  0  0  0  0  0  0
    0.0680   -0.0020   -0.2250 O   0  0  0  0  0  0  0  0  0  0  0  0
    0.0570    0.9270   -1.1900 C   0  0  0  0  0  0  0  0  0  0  0  0
    0.6140    0.8430   -2.3100 O   0  0  0  0  0  0  0  0  0  0  0  0
   -0.6660    2.1660   -0.9570 C   0  0  0  0  0  0  0  0  0  0  0  0
   -0.6060    2.6660    0.2670 C   0  0  0  0  0  0  0  0  0  0  0  0
    0.5910    2.4340    1.0670 N   0  0  0  0  0  0  0  0  0  0  0  0
    1.9160    2.1420    0.7050 C   0  0  0  0  0  0  0  0  0  0  0  0
    2.7360    3.1420    1.0460 O   0  0  0  0  0  0  0  0  0  0  0  0
    2.5560    1.1200    0.1090 O   0  0  0  0  0  0  0  0  0  0  0  0
   -1.8440    3.4060    0.3960 C   0  0  2  0  0  0  0  0  0  0  0  0
   -3.0650    2.5670    0.7030 C   0  0  0  0  0  0  0  0  0  0  0  0
   -3.6870    3.1830    1.6340 O   0  0  0  0  0  0  0  0  0  0  0  0
   -3.4920    1.4440    0.1880 O   0  0  0  0  0  0  0  0  0  0  0  0
   -3.7410    0.1050    0.2660 C   0  0  1  0  0  0  0  0  0  0  0  0
   -3.8450   -0.4710    1.6270 C   0  0  0  0  0  0  0  0  0  0  0  0
   -5.1850   -0.2990   -0.2710 C   0  0  0  0  0  0  0  0  0  0  0  0
   -5.1920   -1.7070   -0.1730 O   0  0  0  0  0  0  0  0  0  0  0  0
   -4.1560   -2.6240   -0.1510 C   0  0  0  0  0  0  0  0  0  0  0  0
   -4.2610   -3.8330    0.1530 O   0  0  0  0  0  0  0  0  0  0  0  0
   -2.8420   -2.0460   -0.5330 N   0  0  0  0  0  0  0  0  0  0  0  0
   -1.7120   -2.9700   -0.5440 C   0  0  0  0  0  0  0  0  0  0  0  0
   -3.0510   -0.7240   -0.8060 C   0  0  0  0  0  0  0  0  0  0  0  0
   -2.7930    0.0130   -1.8240 O   0  0  0  0  0  0  0  0  0  0  0  0
   -2.1270    3.9060   -0.9780 N   0  0  0  0  0  0  0  0  0  0  0  0
   -2.7810    4.7590   -1.7400 C   0  0  0  0  0  0  0  0  0  0  0  0
   -2.6580    4.3130   -3.0310 N   0  0  0  0  0  0  0  0  0  0  0  0
   -1.9360    3.2060   -3.0520 N   0  0  0  0  0  0  0  0  0  0  0  0
   -1.6040    2.9700   -1.7550 C   0  0  0  0  0  0  0  0  0  0  0  0
  2  1  1  1
  2  3  1  0
  2  8  1  0
  2 25  1  0
  3  4  1  0
  4  5  1  0
  5  6  2  0
  5  7  1  0
  8  9  1  0
  9 10  1  0
 10 11  1  0
 10 14  1  0
 11 12  2  0
 11 13  1  0
 14 15  1  0
 14 37  1  1
 15 16  1  0
 16 17  1  0
 17 18  1  0
 18 19  2  0
 18 20  1  0
 20 21  2  0
 20 44  1  0
 21 22  1  0
 21 26  1  0
 22 23  1  0
 23 24  2  0
 23 25  1  0
 26 27  1  0
 26 40  1  6
 27 28  2  0
 27 29  1  0
 29 30  1  0
 30 31  1  1
 30 32  1  0
 30 38  1  0
 32 33  1  0
 33 34  1  0
 34 35  2  0
 34 36  1  0
 36 37  1  0
 36 38  1  0
 38 39  2  0
 40 41  1  0
 40 44  1  0
 41 42  2  0
 42 43  1  0
 43 44  2  0
M  END
