
     RDKit          3D

 44 48  0  0  0  0  0  0  0  0999 V2000
   10.6130    0.7520    0.7820 N   0  0  0  0  0  0  0  0  0  0  0  0
   10.0440    0.1570   -0.3600 C   0  0  0  0  0  0  0  0  0  0  0  0
   10.6310   -0.7290   -1.0600 O   0  0  0  0  0  0  0  0  0  0  0  0
    8.6910    0.6140   -0.7270 C   0  0  0  0  0  0  0  0  0  0  0  0
    8.3430    1.9310   -0.7280 C   0  0  0  0  0  0  0  0  0  0  0  0
    7.0360    2.2240   -1.0670 C   0  0  0  0  0  0  0  0  0  0  0  0
    6.1340    1.2740   -1.3810 C   0  0  0  0  0  0  0  0  0  0  0  0
    6.4910   -0.0370   -1.3720 N   0  0  0  0  0  0  0  0  0  0  0  0
    5.4980   -1.0460   -1.7170 C   0  0  2  0  0  0  0  0  0  0  0  0
    4.2470   -0.5610   -1.3210 O   0  0  0  0  0  0  0  0  0  0  0  0
    4.0480   -0.8990   -0.0330 C   0  0  2  0  0  0  0  0  0  0  0  0
    3.9990    0.2370    0.9890 C   0  0  0  0  0  0  0  0  0  0  0  0
    3.1660    1.2300    0.3970 O   0  0  0  0  0  0  0  0  0  0  0  0
    1.8160    1.2560    1.3790 P   0  0  1  0  0  0  0  0  0  0  0  0
    1.1380   -0.1560    0.8820 O   0  0  0  0  0  0  0  0  0  0  0  0
    2.1350    1.0530    2.9890 O   0  0  0  0  0  0  0  0  0  0  0  0
    0.5980    2.3870    0.9930 O   0  0  0  0  0  0  0  0  0  0  0  0
   -0.7440    1.4540    0.6120 P   0  0  1  0  0  0  0  0  0  0  0  0
   -0.5020    0.9450   -0.8270 O   0  0  0  0  0  0  0  0  0  0  0  0
   -0.5290   -0.0210    1.6380 O   0  0  0  0  0  0  0  0  0  0  0  0
   -2.2490    1.9510    0.8680 O   0  0  0  0  0  0  0  0  0  0  0  0
   -3.0870    2.1590   -0.2600 C   0  0  0  0  0  0  0  0  0  0  0  0
   -4.4980    2.0700    0.4070 C   0  0  1  0  0  0  0  0  0  0  0  0
   -5.5400    2.0510   -0.4540 O   0  0  0  0  0  0  0  0  0  0  0  0
   -6.4200    1.1260    0.1070 C   0  0  1  0  0  0  0  0  0  0  0  0
   -7.4930    0.6560   -0.7430 N   0  0  0  0  0  0  0  0  0  0  0  0
   -7.8450    0.8890   -2.0010 C   0  0  0  0  0  0  0  0  0  0  0  0
   -8.9130    0.1140   -2.3080 N   0  0  0  0  0  0  0  0  0  0  0  0
   -9.2490   -0.6200   -1.2340 C   0  0  0  0  0  0  0  0  0  0  0  0
  -10.2410   -1.5600   -1.0110 C   0  0  0  0  0  0  0  0  0  0  0  0
  -11.1490   -1.8980   -2.0340 N   0  0  0  0  0  0  0  0  0  0  0  0
  -10.3200   -2.1400    0.1920 N   0  0  0  0  0  0  0  0  0  0  0  0
   -9.4370   -1.8140    1.1870 C   0  0  0  0  0  0  0  0  0  0  0  0
   -8.5050   -0.9070    0.9240 N   0  0  0  0  0  0  0  0  0  0  0  0
   -8.3600   -0.2720   -0.2760 C   0  0  0  0  0  0  0  0  0  0  0  0
   -5.4540   -0.0610    0.3230 C   0  0  2  0  0  0  0  0  0  0  0  0
   -5.9850   -1.1020    0.9810 O   0  0  0  0  0  0  0  0  0  0  0  0
   -4.3620    0.6680    1.0470 C   0  0  2  0  0  0  0  0  0  0  0  0
   -4.5580    0.6720    2.4030 O   0  0  0  0  0  0  0  0  0  0  0  0
    5.1300   -1.8880    0.4080 C   0  0  1  0  0  0  0  0  0  0  0  0
    4.6480   -2.9560    1.0940 O   0  0  0  0  0  0  0  0  0  0  0  0
    5.6050   -2.3380   -0.9670 C   0  0  1  0  0  0  0  0  0  0  0  0
    4.6950   -3.2640   -1.4970 O   0  0  0  0  0  0  0  0  0  0  0  0
    7.7410   -0.3680   -1.0540 C   0  0  0  0  0  0  0  0  0  0  0  0
  1  2  1  0
  2  3  2  0
  2  4  1  0
  4  5  2  0
  4 44  1  0
  5  6  1  0
  6  7  2  0
  7  8  1  0
  9  8  1  1
  8 44  2  0
  9 10  1  0
  9 42  1  0
 10 11  1  0
 11 12  1  1
 11 40  1  0
 12 13  1  0
 13 14  1  0
 14 15  2  0
 14 16  1  1
 14 17  1  0
 17 18  1  0
 18 19  2  0
 18 20  1  1
 18 21  1  0
 21 22  1  0
 23 22  1  6
 23 24  1  0
 23 38  1  0
 24 25  1  0
 25 26  1  6
 25 36  1  0
 26 27  1  0
 26 35  1  0
 27 28  2  0
 28 29  1  0
 29 30  2  0
 29 35  1  0
 30 31  1  0
 30 32  1  0
 32 33  2  0
 33 34  1  0
 34 35  2  0
 36 37  1  1
 36 38  1  0
 38 39  1  1
 40 41  1  1
 40 42  1  0
 42 43  1  6
M  CHG  2   8   1  16  -1
M  END
