
     RDKit          3D

 30 33  0  0  0  0  0  0  0  0999 V2000
    3.3050   -0.2770   -2.5970 C   0  0  0  0  0  0  0  0  0  0  0  0
    2.5190   -0.6040   -1.4940 O   0  0  0  0  0  0  0  0  0  0  0  0
    1.1420   -0.5810   -1.4300 C   0  0  0  0  0  0  0  0  0  0  0  0
    0.3930   -0.9070   -2.4730 C   0  0  0  0  0  0  0  0  0  0  0  0
   -1.0870   -0.8780   -2.3950 C   0  0  0  0  0  0  0  0  0  0  0  0
   -1.7110   -0.5340   -1.3060 C   0  0  0  0  0  0  0  0  0  0  0  0
   -3.2010   -0.5000   -1.2060 C   0  0  0  0  0  0  0  0  0  0  0  0
   -3.9730   -0.9000   -2.3360 C   0  0  0  0  0  0  0  0  0  0  0  0
   -5.2210   -0.9210   -2.3040 O   0  0  0  0  0  0  0  0  0  0  0  0
   -3.7310   -0.1440   -0.0750 C   0  0  0  0  0  0  0  0  0  0  0  0
   -5.1540   -0.0610    0.1490 C   0  0  0  0  0  0  0  0  0  0  0  0
   -5.9230    0.8210   -0.5540 C   0  0  0  0  0  0  0  0  0  0  0  0
   -7.3000    0.8530   -0.3390 C   0  0  0  0  0  0  0  0  0  0  0  0
   -7.8650   -0.0010    0.5750 C   0  0  0  0  0  0  0  0  0  0  0  0
   -9.2640   -0.0020    0.8210 N   0  0  0  0  0  0  0  0  0  0  0  0
   -7.0700   -0.8800    1.2720 C   0  0  0  0  0  0  0  0  0  0  0  0
   -5.7220   -0.9180    1.0680 C   0  0  0  0  0  0  0  0  0  0  0  0
   -0.9620   -0.1880   -0.2010 O   0  0  0  0  0  0  0  0  0  0  0  0
    0.4520   -0.1930   -0.2060 C   0  0  0  0  0  0  0  0  0  0  0  0
    1.0780    0.1430    0.8770 C   0  0  0  0  0  0  0  0  0  0  0  0
    2.5130    0.2010    1.1080 C   0  0  0  0  0  0  0  0  0  0  0  0
    3.4500   -0.7320    0.8530 N   0  0  0  0  0  0  0  0  0  0  0  0
    4.6790   -0.3160    1.1870 C   0  0  0  0  0  0  0  0  0  0  0  0
    5.9520   -0.8720    1.1320 C   0  0  0  0  0  0  0  0  0  0  0  0
    7.0710   -0.1930    1.5570 C   0  0  0  0  0  0  0  0  0  0  0  0
    8.4470   -0.7550    1.5200 C   0  0  0  0  0  0  0  0  0  0  0  0
    6.9120    1.0830    2.0530 C   0  0  0  0  0  0  0  0  0  0  0  0
    5.6510    1.6580    2.1170 C   0  0  0  0  0  0  0  0  0  0  0  0
    4.5260    0.9600    1.6850 C   0  0  0  0  0  0  0  0  0  0  0  0
    3.2140    1.2440    1.6260 N   0  0  0  0  0  0  0  0  0  0  0  0
  1  2  1  0
  2  3  1  0
  3  4  2  0
  3 19  1  0
  4  5  1  0
  5  6  2  0
  6  7  1  0
  6 18  1  0
  7  8  1  0
  7 10  2  3
  8  9  2  0
 10 11  1  0
 11 12  2  0
 11 17  1  0
 12 13  1  0
 13 14  2  0
 14 15  1  0
 14 16  1  0
 16 17  2  0
 18 19  1  0
 19 20  2  3
 20 21  1  0
 21 22  2  0
 21 30  1  0
 22 23  1  0
 23 24  2  0
 23 29  1  0
 24 25  1  0
 25 26  1  0
 25 27  2  0
 27 28  1  0
 28 29  2  0
 29 30  1  0
M  END
