
     RDKit          3D

 30 31  0  0  0  0  0  0  0  0999 V2000
    3.4050   -0.3910   -2.0430 C   0  0  0  0  0  0  0  0  0  0  0  0
    2.9230   -0.9180   -0.6900 C   0  0  1  0  0  0  0  0  0  0  0  0
    4.1210   -1.2980    0.0790 C   0  0  0  0  0  0  0  0  0  0  0  0
    4.9860   -2.1440   -0.4060 C   0  0  0  0  0  0  0  0  0  0  0  0
    6.1970   -2.6300    0.1850 C   0  0  0  0  0  0  0  0  0  0  0  0
    6.9020   -3.4730   -0.4890 O   0  0  0  0  0  0  0  0  0  0  0  0
    6.6640   -2.2320    1.4790 C   0  0  0  0  0  0  0  0  0  0  0  0
    6.0540   -1.4280    2.1990 O   0  0  0  0  0  0  0  0  0  0  0  0
    2.1730    0.1580   -0.0670 N   0  0  0  0  0  0  0  0  0  0  0  0
    0.7900    0.0310    0.2110 C   0  0  0  0  0  0  0  0  0  0  0  0
    0.2860   -1.1060   -0.1200 O   0  0  0  0  0  0  0  0  0  0  0  0
   -0.0620    1.0710    0.8320 C   0  0  1  0  0  0  0  0  0  0  0  0
   -0.3330    2.2670   -0.0280 C   0  0  0  0  0  0  0  0  0  0  0  0
    0.9210    2.9350   -0.4150 C   0  0  0  0  0  0  0  0  0  0  0  0
    1.5640    3.8520    0.3980 C   0  0  0  0  0  0  0  0  0  0  0  0
    2.7110    4.4920   -0.0070 C   0  0  0  0  0  0  0  0  0  0  0  0
    3.2850    4.2600   -1.2390 C   0  0  0  0  0  0  0  0  0  0  0  0
    2.6560    3.3540   -2.0490 C   0  0  0  0  0  0  0  0  0  0  0  0
    1.5120    2.7050   -1.6660 C   0  0  0  0  0  0  0  0  0  0  0  0
   -1.3430    0.4630    1.2380 N   0  0  0  0  0  0  0  0  0  0  0  0
   -2.2940   -0.0270    0.3200 C   0  0  0  0  0  0  0  0  0  0  0  0
   -2.0480    0.0520   -0.9080 O   0  0  0  0  0  0  0  0  0  0  0  0
   -3.4970   -0.5950    0.7160 O   0  0  0  0  0  0  0  0  0  0  0  0
   -4.3910   -1.0640   -0.3010 C   0  0  0  0  0  0  0  0  0  0  0  0
   -5.6140   -1.6360    0.2740 C   0  0  0  0  0  0  0  0  0  0  0  0
   -6.5880   -2.1460   -0.5370 C   0  0  0  0  0  0  0  0  0  0  0  0
   -7.7380   -2.6860   -0.0140 C   0  0  0  0  0  0  0  0  0  0  0  0
   -7.9180   -2.7180    1.3350 C   0  0  0  0  0  0  0  0  0  0  0  0
   -6.9550   -2.2120    2.1780 C   0  0  0  0  0  0  0  0  0  0  0  0
   -5.7910   -1.6660    1.6330 C   0  0  0  0  0  0  0  0  0  0  0  0
  2  1  1  6
  2  3  1  0
  2  9  1  0
  3  4  2  3
  4  5  1  0
  5  6  2  0
  5  7  1  0
  7  8  2  0
  9 10  1  0
 10 11  2  0
 10 12  1  0
 12 13  1  6
 12 20  1  0
 13 14  1  0
 14 15  2  0
 14 19  1  0
 15 16  1  0
 16 17  2  0
 17 18  1  0
 18 19  2  0
 20 21  1  0
 21 22  2  0
 21 23  1  0
 23 24  1  0
 24 25  1  0
 25 26  2  0
 25 30  1  0
 26 27  1  0
 27 28  2  0
 28 29  1  0
 29 30  2  0
M  END
