
     RDKit          3D

 31 34  0  0  0  0  0  0  0  0999 V2000
    5.4810   -3.2310   -1.1880 C   0  0  0  0  0  0  0  0  0  0  0  0
    4.3010   -2.3560   -1.4090 C   0  0  0  0  0  0  0  0  0  0  0  0
    3.7100   -2.2270   -2.6480 C   0  0  0  0  0  0  0  0  0  0  0  0
    2.6160   -1.4090   -2.8300 C   0  0  0  0  0  0  0  0  0  0  0  0
    2.0620   -0.6850   -1.7920 C   0  0  0  0  0  0  0  0  0  0  0  0
    0.9470    0.1420   -1.9990 O   0  0  0  0  0  0  0  0  0  0  0  0
    0.4600    0.8300   -0.8970 C   0  0  0  0  0  0  0  0  0  0  0  0
   -0.6710    0.5410   -0.2790 C   0  0  0  0  0  0  0  0  0  0  0  0
   -0.8890    1.4510    0.8350 C   0  0  0  0  0  0  0  0  0  0  0  0
   -1.8770    1.4800    1.6640 N   0  0  0  0  0  0  0  0  0  0  0  0
   -2.9240    0.5010    1.5020 C   0  0  0  0  0  0  0  0  0  0  0  0
   -3.0890   -0.6680    2.2030 C   0  0  0  0  0  0  0  0  0  0  0  0
   -4.2180   -1.2740    1.7070 C   0  0  0  0  0  0  0  0  0  0  0  0
   -4.8990   -2.4480    1.9850 C   0  0  0  0  0  0  0  0  0  0  0  0
   -6.0400   -2.8210    1.3120 C   0  0  0  0  0  0  0  0  0  0  0  0
   -6.7120   -4.0830    1.6610 C   0  0  0  0  0  0  0  0  0  0  0  0
   -6.5020   -1.9790    0.3270 C   0  0  0  0  0  0  0  0  0  0  0  0
   -5.8780   -0.8010   -0.0020 C   0  0  0  0  0  0  0  0  0  0  0  0
   -4.7330   -0.4590    0.6970 C   0  0  0  0  0  0  0  0  0  0  0  0
   -3.9200    0.6040    0.6060 N   0  0  0  0  0  0  0  0  0  0  0  0
    0.2600    2.3660    0.8470 C   0  0  0  0  0  0  0  0  0  0  0  0
    0.4330    3.2940    1.6630 O   0  0  0  0  0  0  0  0  0  0  0  0
    1.1110    1.9720   -0.2470 C   0  0  0  0  0  0  0  0  0  0  0  0
    2.2570    2.4960   -0.6340 C   0  0  0  0  0  0  0  0  0  0  0  0
    2.8970    3.6210    0.0070 C   0  0  0  0  0  0  0  0  0  0  0  0
    4.0440    4.0900   -0.4370 C   0  0  0  0  0  0  0  0  0  0  0  0
    4.7040    5.2210    0.1940 C   0  0  0  0  0  0  0  0  0  0  0  0
    4.0840    5.8260    1.3190 N   0  0  0  0  0  0  0  0  0  0  0  0
    5.7940    5.6570   -0.2380 O   0  0  0  0  0  0  0  0  0  0  0  0
    2.6520   -0.8140   -0.5520 C   0  0  0  0  0  0  0  0  0  0  0  0
    3.7470   -1.6310   -0.3670 C   0  0  0  0  0  0  0  0  0  0  0  0
  1  2  1  0
  2  3  2  0
  2 31  1  0
  3  4  1  0
  4  5  2  0
  5  6  1  0
  5 30  1  0
  6  7  1  0
  7  8  2  0
  7 23  1  0
  8  9  1  0
  9 10  2  3
  9 21  1  0
 10 11  1  0
 11 12  2  0
 11 20  1  0
 12 13  1  0
 13 14  2  0
 13 19  1  0
 14 15  1  0
 15 16  1  0
 15 17  2  0
 17 18  1  0
 18 19  2  0
 19 20  1  0
 21 22  2  0
 21 23  1  0
 23 24  2  3
 24 25  1  0
 25 26  2  3
 26 27  1  0
 27 28  1  0
 27 29  2  0
 30 31  2  0
M  END
