
     RDKit          3D

 30 32  0  0  0  0  0  0  0  0999 V2000
   -5.2830    3.1710   -1.6680 C   0  0  0  0  0  0  0  0  0  0  0  0
   -4.1490    3.6930   -0.8640 C   0  0  0  0  0  0  0  0  0  0  0  0
   -3.2150    2.6420   -0.3740 C   0  0  0  0  0  0  0  0  0  0  0  0
   -2.1350    2.2320   -1.0970 C   0  0  0  0  0  0  0  0  0  0  0  0
   -1.4470    1.2250   -0.3650 C   0  0  0  0  0  0  0  0  0  0  0  0
   -0.2230    0.6190   -0.8680 C   0  0  0  0  0  0  0  0  0  0  0  0
    0.4020    1.2510   -1.7900 O   0  0  0  0  0  0  0  0  0  0  0  0
    0.2920   -0.5940   -0.4090 N   0  0  0  0  0  0  0  0  0  0  0  0
    1.5360   -1.0330   -1.0030 C   0  0  0  0  0  0  0  0  0  0  0  0
    1.4110   -1.9790   -1.9460 C   0  0  0  0  0  0  0  0  0  0  0  0
    2.3860   -2.6460   -2.7470 N   0  0  0  0  0  0  0  0  0  0  0  0
    3.6750   -2.7610   -2.5330 C   0  0  0  0  0  0  0  0  0  0  0  0
    4.4100   -2.2080   -1.3790 C   0  0  0  0  0  0  0  0  0  0  0  0
    5.4160   -2.8670   -0.9100 C   0  0  0  0  0  0  0  0  0  0  0  0
    5.8040   -4.0620   -1.4890 F   0  0  0  0  0  0  0  0  0  0  0  0
    6.0870   -2.5520    0.1960 F   0  0  0  0  0  0  0  0  0  0  0  0
    4.0540   -0.9520   -0.7470 C   0  0  0  0  0  0  0  0  0  0  0  0
    5.1290   -0.2440   -0.2790 C   0  0  0  0  0  0  0  0  0  0  0  0
    6.3600   -0.6710   -0.6100 F   0  0  0  0  0  0  0  0  0  0  0  0
    4.9460    0.9120    0.4350 C   0  0  0  0  0  0  0  0  0  0  0  0
    3.6900    1.3990    0.7040 C   0  0  0  0  0  0  0  0  0  0  0  0
    2.5800    0.6920    0.2290 C   0  0  0  0  0  0  0  0  0  0  0  0
    2.7630   -0.4530   -0.4820 C   0  0  0  0  0  0  0  0  0  0  0  0
   -2.1330    1.0680    0.7610 N   0  0  0  0  0  0  0  0  0  0  0  0
   -1.8390    0.1800    1.8580 C   0  0  0  0  0  0  0  0  0  0  0  0
   -2.4540   -1.1450    1.7750 C   0  0  0  0  0  0  0  0  0  0  0  0
   -3.1930   -1.5330    0.8380 O   0  0  0  0  0  0  0  0  0  0  0  0
   -2.2000   -2.0370    2.8080 O   0  0  0  0  0  0  0  0  0  0  0  0
   -2.7360   -3.3420    2.8400 C   0  0  0  0  0  0  0  0  0  0  0  0
   -3.2070    1.9240    0.7620 C   0  0  0  0  0  0  0  0  0  0  0  0
  1  2  1  0
  2  3  1  0
  3  4  1  0
  3 30  2  0
  4  5  2  0
  5  6  1  0
  5 24  1  0
  6  7  2  0
  6  8  1  0
  8  9  1  0
  9 10  2  0
  9 23  1  0
 10 11  1  0
 11 12  2  0
 12 13  1  0
 13 14  2  3
 13 17  1  0
 14 15  1  0
 14 16  1  0
 17 18  2  0
 17 23  1  0
 18 19  1  0
 18 20  1  0
 20 21  2  0
 21 22  1  0
 22 23  2  0
 24 25  1  0
 24 30  1  0
 25 26  1  0
 26 27  2  0
 26 28  1  0
 28 29  1  0
M  END
