
     RDKit          3D

 30 32  0  0  0  0  0  0  0  0999 V2000
   -4.2560    1.3760   -4.9220 C   0  0  0  0  0  0  0  0  0  0  0  0
   -3.8980    1.0960   -3.6400 C   0  0  0  0  0  0  0  0  0  0  0  0
   -2.7500    0.2730   -3.3760 C   0  0  0  0  0  0  0  0  0  0  0  0
   -2.2320   -0.1400   -2.2440 C   0  0  0  0  0  0  0  0  0  0  0  0
   -1.0110   -0.9920   -2.1450 C   0  0  0  0  0  0  0  0  0  0  0  0
   -0.3100   -1.4290   -3.0850 O   0  0  0  0  0  0  0  0  0  0  0  0
   -0.7890   -1.2170   -0.7790 N   0  0  0  0  0  0  0  0  0  0  0  0
    0.2770   -1.9940   -0.1480 C   0  0  0  0  0  0  0  0  0  0  0  0
    1.4600   -1.1370    0.1390 C   0  0  0  0  0  0  0  0  0  0  0  0
    1.4580    0.0650   -0.1530 O   0  0  0  0  0  0  0  0  0  0  0  0
    2.5960   -1.7060    0.7540 N   0  0  0  0  0  0  0  0  0  0  0  0
    3.7960   -1.0770    1.1030 C   0  0  0  0  0  0  0  0  0  0  0  0
    4.0860    0.2320    0.8400 C   0  0  0  0  0  0  0  0  0  0  0  0
    5.3130    0.7990    1.2270 C   0  0  0  0  0  0  0  0  0  0  0  0
    6.2470    0.0280    1.8840 C   0  0  0  0  0  0  0  0  0  0  0  0
    7.4790    0.5160    2.2970 O   0  0  0  0  0  0  0  0  0  0  0  0
    7.8650    1.8530    2.0700 C   0  0  0  0  0  0  0  0  0  0  0  0
    5.9720   -1.3010    2.1600 C   0  0  0  0  0  0  0  0  0  0  0  0
    4.7620   -1.8080    1.7630 C   0  0  0  0  0  0  0  0  0  0  0  0
   -1.8110   -0.5470   -0.0640 C   0  0  0  0  0  0  0  0  0  0  0  0
   -2.6520    0.0730   -0.8730 C   0  0  0  0  0  0  0  0  0  0  0  0
   -3.6950    0.6600   -0.0670 N   0  0  0  0  0  0  0  0  0  0  0  0
   -5.0900    0.7790   -0.3300 C   0  0  0  0  0  0  0  0  0  0  0  0
   -5.8000   -0.1400    0.7070 C   0  0  0  0  0  0  0  0  0  0  0  0
   -2.9720    1.0830    1.1300 C   0  0  2  0  0  0  0  0  0  0  0  0
   -1.9740    2.1160    0.7340 C   0  0  2  0  0  0  0  0  0  0  0  0
   -2.6200    3.2180    0.1610 F   0  0  0  0  0  0  0  0  0  0  0  0
   -1.1560    1.6120   -0.2580 F   0  0  0  0  0  0  0  0  0  0  0  0
   -1.1550    2.5080    1.7690 F   0  0  0  0  0  0  0  0  0  0  0  0
   -2.2440   -0.2710    1.3570 C   0  0  0  0  0  0  0  0  0  0  0  0
  1  2  2  0
  2  3  1  0
  3  4  2  3
  4  5  1  0
  4 21  1  0
  5  6  2  0
  5  7  1  0
  7  8  1  0
  7 20  1  0
  8  9  1  0
  9 10  2  0
  9 11  1  0
 11 12  1  0
 12 13  2  0
 12 19  1  0
 13 14  1  0
 14 15  2  0
 15 16  1  0
 15 18  1  0
 16 17  1  0
 18 19  2  0
 20 21  2  0
 20 30  1  0
 21 22  1  0
 22 23  1  0
 22 25  1  0
 23 24  1  0
 25 26  1  0
 25 30  1  6
 26 27  1  6
 26 28  1  0
 26 29  1  0
M  END
