
     RDKit          3D

 30 31  0  0  0  0  0  0  0  0999 V2000
   -5.5030    1.8110    2.4920 C   0  0  0  0  0  0  0  0  0  0  0  0
   -5.7230    2.1060    1.2670 C   0  0  0  0  0  0  0  0  0  0  0  0
   -5.8890    3.3700    0.8500 F   0  0  0  0  0  0  0  0  0  0  0  0
   -5.7880    1.0240    0.2140 C   0  0  0  0  0  0  0  0  0  0  0  0
   -6.0380    1.4780   -0.9790 C   0  0  0  0  0  0  0  0  0  0  0  0
   -6.2130    0.8560   -2.2770 C   0  0  1  0  0  0  0  0  0  0  0  0
   -7.3890    0.0630   -2.1740 F   0  0  0  0  0  0  0  0  0  0  0  0
   -6.5500    1.8880   -3.1970 F   0  0  0  0  0  0  0  0  0  0  0  0
   -5.4050   -0.2830    0.6620 C   0  0  0  0  0  0  0  0  0  0  0  0
   -4.8860   -1.2810   -0.2980 C   0  0  0  0  0  0  0  0  0  0  0  0
   -3.4530   -0.9800   -0.4950 N   0  0  0  0  0  0  0  0  0  0  0  0
   -2.7670   -0.1940   -1.3770 C   0  0  0  0  0  0  0  0  0  0  0  0
   -3.1170    0.5360   -2.3300 O   0  0  0  0  0  0  0  0  0  0  0  0
   -1.3560   -0.3040   -1.0480 N   0  0  0  0  0  0  0  0  0  0  0  0
   -1.1680   -1.1680    0.0490 C   0  0  0  0  0  0  0  0  0  0  0  0
   -0.0060   -1.4990    0.6200 C   0  0  0  0  0  0  0  0  0  0  0  0
    1.2210   -0.9500    0.1060 C   0  0  0  0  0  0  0  0  0  0  0  0
    2.4180   -1.2270    0.6160 C   0  0  0  0  0  0  0  0  0  0  0  0
    2.6370   -2.1050    1.7430 C   0  0  0  0  0  0  0  0  0  0  0  0
    3.8790   -2.3100    2.1690 C   0  0  0  0  0  0  0  0  0  0  0  0
    5.0670   -1.7260    1.6050 C   0  0  0  0  0  0  0  0  0  0  0  0
    4.9460   -0.8900    0.5500 C   0  0  0  0  0  0  0  0  0  0  0  0
    6.2060   -0.3330    0.0230 C   0  0  0  0  0  0  0  0  0  0  0  0
    6.4390    1.0370    0.0810 N   0  0  0  0  0  0  0  0  0  0  0  0
    5.7250    1.9370   -0.7290 C   0  0  0  0  0  0  0  0  0  0  0  0
    7.7400    1.4900    0.4520 C   0  0  0  0  0  0  0  0  0  0  0  0
    3.6260   -0.6110    0.0160 C   0  0  0  0  0  0  0  0  0  0  0  0
    3.4500    0.1390   -0.9520 O   0  0  0  0  0  0  0  0  0  0  0  0
   -2.4910   -1.6190    0.4290 C   0  0  0  0  0  0  0  0  0  0  0  0
   -2.7530   -2.4000    1.3620 O   0  0  0  0  0  0  0  0  0  0  0  0
  1  2  2  0
  2  3  1  0
  2  4  1  0
  4  5  2  3
  4  9  1  0
  5  6  1  0
  6  7  1  1
  6  8  1  0
  9 10  1  0
 10 11  1  0
 11 12  1  0
 11 29  1  0
 12 13  2  0
 12 14  1  0
 14 15  1  0
 15 16  2  3
 15 29  1  0
 16 17  1  0
 17 18  2  3
 18 19  1  0
 18 27  1  0
 19 20  2  0
 20 21  1  0
 21 22  2  0
 22 23  1  0
 22 27  1  0
 23 24  1  0
 24 25  1  0
 24 26  1  0
 27 28  2  0
 29 30  2  0
M  END
