
     RDKit          3D

 16 15  0  0  0  0  0  0  0  0999 V2000
    4.8110    0.7510   -0.1370 C   0  0  0  0  0  0  0  0  0  0  0  0
    3.3700    0.6430   -0.0210 C   0  0  0  0  0  0  0  0  0  0  0  0
    2.6900   -0.6990    0.2800 C   0  0  0  0  0  0  0  0  0  0  0  0
    1.3520   -0.2490    0.3780 O   0  0  0  0  0  0  0  0  0  0  0  0
    0.3960   -0.9130   -0.9330 P   0  0  0  0  0  0  0  0  0  0  0  0
    0.5840    0.3220   -2.2660 O   0  0  0  0  0  0  0  0  0  0  0  0
   -1.3540   -0.7850   -0.3670 C   0  0  1  0  0  0  0  0  0  0  0  0
   -2.2050   -0.9750   -1.4050 O   0  0  0  0  0  0  0  0  0  0  0  0
   -1.4900   -1.8800    0.6680 C   0  0  0  0  0  0  0  0  0  0  0  0
   -2.5530   -2.9300    0.5430 C   0  0  0  0  0  0  0  0  0  0  0  0
   -0.7480   -1.8870    1.6120 O   0  0  0  0  0  0  0  0  0  0  0  0
   -1.5780    0.5060    0.3770 C   0  0  0  0  0  0  0  0  0  0  0  0
   -0.7860    0.7600    1.2820 O   0  0  0  0  0  0  0  0  0  0  0  0
   -2.6980    1.4260    0.0270 C   0  0  0  0  0  0  0  0  0  0  0  0
   -2.5300    2.5480    0.8880 O   0  0  0  0  0  0  0  0  0  0  0  0
   -3.6080    3.3810    0.5890 O   0  0  0  0  0  0  0  0  0  0  0  0
  1  2  1  0
  2  3  1  0
  3  4  1  0
  4  5  1  0
  5  6  1  0
  5  7  1  0
  7  8  1  6
  7  9  1  0
  7 12  1  0
  9 10  1  0
  9 11  2  0
 12 13  2  0
 12 14  1  0
 14 15  1  0
 15 16  1  0
M  END
