
     RDKit          3D

 23 25  0  0  0  0  0  0  0  0999 V2000
   -5.4640    2.1120   -0.7490 N   0  0  0  0  0  0  0  0  0  0  0  0
   -4.0680    1.9840   -0.5720 C   0  0  0  0  0  0  0  0  0  0  0  0
   -3.1890    2.9810   -0.7130 N   0  0  0  0  0  0  0  0  0  0  0  0
   -1.8580    2.8170   -0.5350 C   0  0  0  0  0  0  0  0  0  0  0  0
   -1.3600    1.6080   -0.2000 N   0  0  0  0  0  0  0  0  0  0  0  0
   -2.1970    0.5640   -0.0450 C   0  0  0  0  0  0  0  0  0  0  0  0
   -3.5700    0.7390   -0.2290 C   0  0  0  0  0  0  0  0  0  0  0  0
   -4.1500   -0.4490   -0.0130 N   0  0  0  0  0  0  0  0  0  0  0  0
   -3.1690   -1.3370    0.2980 C   0  0  0  0  0  0  0  0  0  0  0  0
   -1.9800   -0.7230    0.2790 N   0  0  0  0  0  0  0  0  0  0  0  0
   -0.6900   -1.3110    0.5510 C   0  0  2  0  0  0  0  0  0  0  0  0
    0.3240   -0.3910    0.2810 O   0  0  0  0  0  0  0  0  0  0  0  0
    1.4990   -1.1590    0.2860 C   0  0  2  0  0  0  0  0  0  0  0  0
    2.5950   -0.4200   -0.4500 C   0  0  0  0  0  0  0  0  0  0  0  0
    2.7620    0.7740    0.2490 O   0  0  0  0  0  0  0  0  0  0  0  0
    3.8220    1.7300   -0.2800 P   0  0  0  0  0  0  0  0  0  0  0  0
    3.5110    2.7880    0.9480 O   0  0  0  0  0  0  0  0  0  0  0  0
    3.0920    1.9010   -1.7290 O   0  0  0  0  0  0  0  0  0  0  0  0
    4.9850    0.5620   -0.0770 O   0  0  0  0  0  0  0  0  0  0  0  0
    1.1460   -2.4700   -0.3490 C   0  0  1  0  0  0  0  0  0  0  0  0
    1.5270   -3.5380    0.4630 O   0  0  0  0  0  0  0  0  0  0  0  0
   -0.3740   -2.4130   -0.4270 C   0  0  1  0  0  0  0  0  0  0  0  0
   -0.9520   -3.6190   -0.0570 O   0  0  0  0  0  0  0  0  0  0  0  0
  1  2  1  0
  2  3  2  0
  2  7  1  0
  3  4  1  0
  4  5  2  0
  5  6  1  0
  6  7  2  0
  6 10  1  0
  7  8  1  0
  8  9  2  0
  9 10  1  0
 11 10  1  6
 11 12  1  0
 11 22  1  0
 12 13  1  0
 13 14  1  6
 13 20  1  0
 14 15  1  0
 15 16  1  0
 16 17  1  0
 16 18  1  0
 16 19  1  0
 20 21  1  1
 20 22  1  0
 22 23  1  1
M  END
