
     RDKit          3D

 16 16  0  0  0  0  0  0  0  0999 V2000
    3.0580   -0.1910    1.2800 C   0  0  0  0  0  0  0  0  0  0  0  0
    1.9740   -0.5030    0.4540 O   0  0  0  0  0  0  0  0  0  0  0  0
    1.0460    0.3800    0.6480 O   0  0  0  0  0  0  0  0  0  0  0  0
    0.2810    0.6410   -0.4700 C   0  0  1  0  0  0  0  0  0  0  0  0
    1.0520    1.1510   -1.6030 C   0  0  0  0  0  0  0  0  0  0  0  0
    0.4720    1.4280   -2.6820 O   0  0  0  0  0  0  0  0  0  0  0  0
    2.4110    1.3210   -1.4750 O   0  0  0  0  0  0  0  0  0  0  0  0
   -0.4330   -0.6710   -0.8220 C   0  0  0  0  0  0  0  0  0  0  0  0
   -1.5520   -0.6570    0.2010 C   0  0  1  0  0  0  0  0  0  0  0  0
   -2.5980   -1.6920   -0.0660 C   0  0  0  0  0  0  0  0  0  0  0  0
   -0.8330   -0.7850    1.9050 P   0  0  0  0  0  0  0  0  0  0  0  0
   -1.6240   -0.0640    3.0560 O   0  0  0  0  0  0  0  0  0  0  0  0
   -2.0610    0.7320    0.0410 C   0  0  0  0  0  0  0  0  0  0  0  0
   -3.2630    1.1330    0.0420 O   0  0  0  0  0  0  0  0  0  0  0  0
   -0.8500    1.5400   -0.1180 C   0  0  0  0  0  0  0  0  0  0  0  0
   -0.8080    2.8000    0.0290 O   0  0  0  0  0  0  0  0  0  0  0  0
  1  2  1  0
  2  3  1  0
  4  3  1  1
  4  5  1  0
  4  8  1  0
  4 15  1  0
  5  6  2  0
  5  7  1  0
  8  9  1  0
  9 10  1  6
  9 11  1  0
  9 13  1  0
 11 12  2  0
 13 14  2  0
 13 15  1  0
 15 16  2  0
M  END
