
     RDKit          3D

 16 15  0  0  0  0  0  0  0  0999 V2000
   -2.3360    3.5620    1.2820 C   0  0  0  0  0  0  0  0  0  0  0  0
   -1.7770    2.3050    1.3310 O   0  0  0  0  0  0  0  0  0  0  0  0
   -2.0420    1.3550   -0.0530 P   0  0  0  0  0  0  0  0  0  0  0  0
   -2.0690    2.1930   -1.5370 O   0  0  0  0  0  0  0  0  0  0  0  0
   -0.9340   -0.1470   -0.0680 C   0  0  2  0  0  0  0  0  0  0  0  0
   -1.2200   -0.9370    1.0270 O   0  0  0  0  0  0  0  0  0  0  0  0
   -1.9730   -1.9100    0.7500 O   0  0  0  0  0  0  0  0  0  0  0  0
   -1.4980   -3.0800    0.2720 C   0  0  0  0  0  0  0  0  0  0  0  0
   -0.8260   -3.0720   -0.9150 O   0  0  0  0  0  0  0  0  0  0  0  0
    0.4850    0.3230   -0.1610 C   0  0  2  0  0  0  0  0  0  0  0  0
    0.8010    1.0640    1.1290 C   0  0  0  0  0  0  0  0  0  0  0  0
    0.6150    1.1370   -1.2860 O   0  0  0  0  0  0  0  0  0  0  0  0
    1.4610   -0.8320   -0.3220 C   0  0  0  0  0  0  0  0  0  0  0  0
    2.8670   -0.3110   -0.4520 C   0  0  0  0  0  0  0  0  0  0  0  0
    3.8190   -1.4660   -0.5910 C   0  0  0  0  0  0  0  0  0  0  0  0
    3.7830   -2.3840    0.2100 O   0  0  0  0  0  0  0  0  0  0  0  0
  1  2  1  0
  2  3  1  0
  3  4  1  0
  3  5  1  0
  5  6  1  1
  5 10  1  0
  6  7  1  0
  7  8  1  0
  8  9  1  0
 10 11  1  1
 10 12  1  0
 10 13  1  0
 13 14  1  0
 14 15  1  0
 15 16  2  0
M  END
