
     RDKit          3D

 16 15  0  0  0  0  0  0  0  0999 V2000
    4.9270   -1.2600    0.1510 C   0  0  0  0  0  0  0  0  0  0  0  0
    4.4470   -0.0650   -0.6380 C   0  0  0  0  0  0  0  0  0  0  0  0
    3.2510    0.5780   -0.0110 C   0  0  0  0  0  0  0  0  0  0  0  0
    3.4340    1.3620    0.9610 O   0  0  0  0  0  0  0  0  0  0  0  0
    1.9890    0.3260   -0.4770 O   0  0  0  0  0  0  0  0  0  0  0  0
    0.8550    0.9400    0.1200 C   0  0  0  0  0  0  0  0  0  0  0  0
   -0.3190    0.5530   -0.4950 O   0  0  0  0  0  0  0  0  0  0  0  0
   -1.3340    1.1430    0.0890 O   0  0  0  0  0  0  0  0  0  0  0  0
   -2.4670    0.3550    0.0100 C   0  0  1  0  0  0  0  0  0  0  0  0
   -3.6270    1.0560    0.6900 C   0  0  0  0  0  0  0  0  0  0  0  0
   -2.8540   -0.0170   -1.3940 C   0  0  0  0  0  0  0  0  0  0  0  0
   -3.1240    1.0670   -2.2090 O   0  0  0  0  0  0  0  0  0  0  0  0
   -2.2800   -0.9400    0.7610 C   0  0  0  0  0  0  0  0  0  0  0  0
   -1.2310   -1.1500    1.3200 O   0  0  0  0  0  0  0  0  0  0  0  0
   -3.6030   -2.1820    0.8370 P   0  0  0  0  0  0  0  0  0  0  0  0
   -3.8280   -3.2560   -0.2640 O   0  0  0  0  0  0  0  0  0  0  0  0
  1  2  1  0
  2  3  1  0
  3  4  2  0
  3  5  1  0
  5  6  1  0
  6  7  1  0
  7  8  1  0
  8  9  1  0
  9 10  1  1
  9 11  1  0
  9 13  1  0
 11 12  1  0
 13 14  2  0
 13 15  1  0
 15 16  2  0
M  END
