
     RDKit          3D

 33 34  0  0  0  0  0  0  0  0999 V2000
   -0.2730   -0.2850   -4.4110 C   0  0  0  0  0  0  0  0  0  0  0  0
    0.4940    0.0830   -3.3660 O   0  0  0  0  0  0  0  0  0  0  0  0
    0.3150   -0.5120   -2.1650 C   0  0  2  0  0  0  0  0  0  0  0  0
   -1.1170   -0.3460   -1.7090 C   0  0  0  0  0  0  0  0  0  0  0  0
   -1.3540   -0.9900   -0.3600 C   0  0  0  0  0  0  0  0  0  0  0  0
   -2.7400   -0.7800   -0.0090 N   0  0  0  0  0  0  0  0  0  0  0  0
   -3.6820   -1.7860   -0.4490 C   0  0  0  0  0  0  0  0  0  0  0  0
   -3.8360   -2.8610    0.6050 C   0  0  0  0  0  0  0  0  0  0  0  0
   -4.3070   -2.3250    1.8160 O   0  0  0  0  0  0  0  0  0  0  0  0
   -3.2100    0.3300    0.7190 C   0  0  0  0  0  0  0  0  0  0  0  0
   -4.4630    0.3950    0.9550 O   0  0  0  0  0  0  0  0  0  0  0  0
   -2.3710    1.4320    1.2360 C   0  0  2  0  0  0  0  0  0  0  0  0
   -1.3290    1.0020    2.2280 C   0  0  0  0  0  0  0  0  0  0  0  0
   -3.2140    2.5530    1.8140 C   0  0  0  0  0  0  0  0  0  0  0  0
   -2.3660    3.5600    2.2840 O   0  0  0  0  0  0  0  0  0  0  0  0
    1.2160    0.0200   -1.1860 O   0  0  0  0  0  0  0  0  0  0  0  0
    1.2420    1.3530   -0.8160 C   0  0  0  0  0  0  0  0  0  0  0  0
    0.4120    2.1150   -1.3920 O   0  0  0  0  0  0  0  0  0  0  0  0
    2.1710    1.8700    0.1840 C   0  0  0  0  0  0  0  0  0  0  0  0
    3.0480    0.9590    0.7600 C   0  0  0  0  0  0  0  0  0  0  0  0
    3.9760    1.3560    1.7260 C   0  0  0  0  0  0  0  0  0  0  0  0
    4.0280    2.6640    2.1170 C   0  0  0  0  0  0  0  0  0  0  0  0
    5.2410    3.1740    3.3760 P   0  0  0  0  0  0  0  0  0  0  0  0
    6.7530    3.5900    2.6830 O   0  0  0  0  0  0  0  0  0  0  0  0
    5.4910    1.8930    4.5370 O   0  0  0  0  0  0  0  0  0  0  0  0
    3.1600    3.5640    1.5460 C   0  0  0  0  0  0  0  0  0  0  0  0
    2.2480    3.1540    0.5910 C   0  0  0  0  0  0  0  0  0  0  0  0
    0.6060   -1.9650   -2.2090 C   0  0  0  0  0  0  0  0  0  0  0  0
    1.2170   -2.5580   -1.1020 C   0  0  0  0  0  0  0  0  0  0  0  0
    1.4980   -3.9000   -1.1000 C   0  0  0  0  0  0  0  0  0  0  0  0
    1.1780   -4.6860   -2.1990 C   0  0  0  0  0  0  0  0  0  0  0  0
    0.5760   -4.0790   -3.2810 C   0  0  0  0  0  0  0  0  0  0  0  0
    0.3210   -2.7690   -3.2390 N   0  0  0  0  0  0  0  0  0  0  0  0
  1  2  1  0
  2  3  1  0
  3  4  1  1
  3 16  1  0
  3 28  1  0
  4  5  1  0
  5  6  1  0
  6  7  1  0
  6 10  1  0
  7  8  1  0
  8  9  1  0
 10 11  2  0
 10 12  1  0
 12 13  1  1
 12 14  1  0
 14 15  1  0
 16 17  1  0
 17 18  2  0
 17 19  1  0
 19 20  2  0
 19 27  1  0
 20 21  1  0
 21 22  2  0
 22 23  1  0
 22 26  1  0
 23 24  1  0
 23 25  1  0
 26 27  2  0
 28 29  2  0
 28 33  1  0
 29 30  1  0
 30 31  2  0
 31 32  1  0
 32 33  2  0
M  END
