
     RDKit          3D

 33 34  0  0  0  0  0  0  0  0999 V2000
    8.2440   -2.2160   -0.9810 C   0  0  0  0  0  0  0  0  0  0  0  0
    7.2330   -1.1440   -0.6980 C   0  0  0  0  0  0  0  0  0  0  0  0
    7.3160   -0.1840   -1.7150 O   0  0  0  0  0  0  0  0  0  0  0  0
    6.1580    1.0780   -1.4210 P   0  0  0  0  0  0  0  0  0  0  0  0
    7.0570    2.6990   -1.5900 C   0  0  0  0  0  0  0  0  0  0  0  0
    5.5290    0.9450    0.3080 C   0  0  0  0  0  0  0  0  0  0  0  0
    4.1570    1.4660    0.3720 N   0  0  0  0  0  0  0  0  0  0  0  0
    3.9400    2.8610    0.6750 C   0  0  0  0  0  0  0  0  0  0  0  0
    3.0560    0.6120    0.1600 C   0  0  0  0  0  0  0  0  0  0  0  0
    3.3190   -0.6100   -0.0550 O   0  0  0  0  0  0  0  0  0  0  0  0
    1.6690    1.1040    0.1880 C   0  0  1  0  0  0  0  0  0  0  0  0
    1.4480    1.9400   -1.0710 C   0  0  0  0  0  0  0  0  0  0  0  0
    0.1440    2.3950   -1.1560 O   0  0  0  0  0  0  0  0  0  0  0  0
    0.7230   -0.0290    0.0530 N   0  0  0  0  0  0  0  0  0  0  0  0
   -0.3000   -0.2670    0.9940 C   0  0  0  0  0  0  0  0  0  0  0  0
   -0.4420    0.4810    1.9870 O   0  0  0  0  0  0  0  0  0  0  0  0
   -1.1980   -1.3430    0.8640 O   0  0  0  0  0  0  0  0  0  0  0  0
   -2.2080   -1.5240    1.8550 C   0  0  2  0  0  0  0  0  0  0  0  0
   -1.8690   -2.7820    2.5470 C   0  0  0  0  0  0  0  0  0  0  0  0
   -2.8830   -3.6060    2.4320 C   0  0  0  0  0  0  0  0  0  0  0  0
   -3.9290   -2.9450    1.6690 C   0  0  0  0  0  0  0  0  0  0  0  0
   -3.5480   -1.7270    1.3260 C   0  0  0  0  0  0  0  0  0  0  0  0
   -4.4170   -0.8010    0.5360 C   0  0  2  0  0  0  0  0  0  0  0  0
   -5.7050   -1.4630    0.2460 C   0  0  0  0  0  0  0  0  0  0  0  0
   -6.7660   -0.9760    0.7080 O   0  0  0  0  0  0  0  0  0  0  0  0
   -5.8460   -2.6180   -0.5210 O   0  0  0  0  0  0  0  0  0  0  0  0
   -7.1340   -3.1950   -0.7530 C   0  0  0  0  0  0  0  0  0  0  0  0
   -3.7070   -0.5740   -0.7890 C   0  0  0  0  0  0  0  0  0  0  0  0
   -4.4580    0.4080   -1.6590 C   0  0  0  0  0  0  0  0  0  0  0  0
   -4.9260    1.6120   -0.8790 C   0  0  2  0  0  0  0  0  0  0  0  0
   -4.7240    2.8050   -1.5560 O   0  0  0  0  0  0  0  0  0  0  0  0
   -4.1940    1.6620    0.4450 C   0  0  0  0  0  0  0  0  0  0  0  0
   -4.6790    0.4770    1.2600 C   0  0  0  0  0  0  0  0  0  0  0  0
  1  2  1  0
  2  3  1  0
  3  4  1  0
  4  5  1  0
  4  6  1  0
  6  7  1  0
  7  8  1  0
  7  9  1  0
  9 10  2  0
  9 11  1  0
 11 12  1  6
 11 14  1  0
 12 13  1  0
 14 15  1  0
 15 16  2  0
 15 17  1  0
 18 17  1  6
 18 19  1  0
 18 22  1  0
 19 20  2  0
 20 21  1  0
 21 22  2  0
 22 23  1  0
 23 24  1  6
 23 28  1  0
 23 33  1  0
 24 25  2  0
 24 26  1  0
 26 27  1  0
 28 29  1  0
 29 30  1  0
 30 31  1  6
 30 32  1  0
 32 33  1  0
M  END
