
     RDKit          3D

 32 33  0  0  0  0  0  0  0  0999 V2000
   -3.8150    2.0780   -1.4340 C   0  0  0  0  0  0  0  0  0  0  0  0
   -4.5040    1.1960   -0.5790 O   0  0  0  0  0  0  0  0  0  0  0  0
   -4.3580    1.2540    0.7750 C   0  0  0  0  0  0  0  0  0  0  0  0
   -5.1510    2.0290    1.5700 C   0  0  0  0  0  0  0  0  0  0  0  0
   -6.2260    2.8540    1.0030 C   0  0  0  0  0  0  0  0  0  0  0  0
   -6.9090    3.5670    1.9850 O   0  0  0  0  0  0  0  0  0  0  0  0
   -4.9750    2.0620    2.9400 C   0  0  0  0  0  0  0  0  0  0  0  0
   -3.9930    1.3150    3.5550 C   0  0  0  0  0  0  0  0  0  0  0  0
   -3.1950    0.5350    2.7550 C   0  0  0  0  0  0  0  0  0  0  0  0
   -3.3650    0.4940    1.3610 C   0  0  0  0  0  0  0  0  0  0  0  0
   -2.4520   -0.3570    0.6310 C   0  0  0  0  0  0  0  0  0  0  0  0
   -1.1710    0.0010    0.2880 C   0  0  0  0  0  0  0  0  0  0  0  0
   -0.3320   -0.8540   -0.3960 C   0  0  0  0  0  0  0  0  0  0  0  0
    1.0100   -0.4610   -0.7090 N   0  0  0  0  0  0  0  0  0  0  0  0
    1.8350   -1.3460   -1.4540 C   0  0  0  0  0  0  0  0  0  0  0  0
    3.2420   -0.9640   -1.6390 C   0  0  0  0  0  0  0  0  0  0  0  0
    4.0110   -1.7460   -2.3140 O   0  0  0  0  0  0  0  0  0  0  0  0
    3.7830    0.2190   -1.1050 N   0  0  0  0  0  0  0  0  0  0  0  0
    5.1940    0.6160   -1.2600 C   0  0  0  0  0  0  0  0  0  0  0  0
    6.0440   -0.4250   -0.6070 C   0  0  0  0  0  0  0  0  0  0  0  0
    7.5180   -0.1520   -0.6810 C   0  0  0  0  0  0  0  0  0  0  0  0
    7.9590    1.1210   -0.0360 C   0  0  0  0  0  0  0  0  0  0  0  0
    9.8220    1.2100   -0.2740 P   0  0  0  0  0  0  0  0  0  0  0  0
   10.2320    1.2240   -1.9380 O   0  0  0  0  0  0  0  0  0  0  0  0
   10.5040    2.5900    0.5040 O   0  0  0  0  0  0  0  0  0  0  0  0
   -0.7600   -2.1010   -0.7590 C   0  0  0  0  0  0  0  0  0  0  0  0
   -2.0610   -2.4900   -0.4220 C   0  0  0  0  0  0  0  0  0  0  0  0
   -2.8950   -1.6300    0.2640 C   0  0  0  0  0  0  0  0  0  0  0  0
   -4.1710   -1.9490    0.6240 O   0  0  0  0  0  0  0  0  0  0  0  0
   -4.7750   -3.1690    0.3370 C   0  0  2  0  0  0  0  0  0  0  0  0
   -6.2130   -3.0530   -0.1190 C   0  0  0  0  0  0  0  0  0  0  0  0
   -4.8350   -3.9750    1.5160 O   0  0  0  0  0  0  0  0  0  0  0  0
  1  2  1  0
  2  3  1  0
  3  4  2  0
  3 10  1  0
  4  5  1  0
  4  7  1  0
  5  6  1  0
  7  8  2  0
  8  9  1  0
  9 10  2  0
 10 11  1  0
 11 12  2  0
 11 28  1  0
 12 13  1  0
 13 14  1  0
 13 26  2  0
 14 15  1  0
 15 16  1  0
 16 17  2  0
 16 18  1  0
 18 19  1  0
 19 20  1  0
 20 21  1  0
 21 22  1  0
 22 23  1  0
 23 24  1  0
 23 25  1  0
 26 27  1  0
 27 28  2  0
 28 29  1  0
 29 30  1  0
 30 31  1  1
 30 32  1  0
M  END
