
     RDKit          3D

 32 33  0  0  0  0  0  0  0  0999 V2000
    6.0680   -2.4370   -1.2060 C   0  0  0  0  0  0  0  0  0  0  0  0
    4.6780   -2.1330   -0.5520 C   0  0  1  0  0  0  0  0  0  0  0  0
    5.0380   -1.2890    0.6380 C   0  0  0  0  0  0  0  0  0  0  0  0
    5.7510   -0.0190    0.1510 C   0  0  0  0  0  0  0  0  0  0  0  0
    6.1380    0.8490    1.3310 C   0  0  0  0  0  0  0  0  0  0  0  0
    6.8240    2.0840    0.7800 C   0  0  0  0  0  0  0  0  0  0  0  0
    5.6610    2.9990   -0.3160 P   0  0  0  0  0  0  0  0  0  0  0  0
    5.9150    4.7040   -0.2120 O   0  0  0  0  0  0  0  0  0  0  0  0
    5.6970    2.5140   -1.9550 O   0  0  0  0  0  0  0  0  0  0  0  0
    3.9300   -1.4160   -1.4360 O   0  0  0  0  0  0  0  0  0  0  0  0
    2.8990   -1.9750   -2.0810 C   0  0  0  0  0  0  0  0  0  0  0  0
    1.7560   -2.5290   -1.3910 C   0  0  0  0  0  0  0  0  0  0  0  0
    0.8060   -3.0480   -2.1050 O   0  0  0  0  0  0  0  0  0  0  0  0
    1.5480   -2.5710    0.0270 N   0  0  0  0  0  0  0  0  0  0  0  0
    0.3570   -3.1500    0.5420 C   0  0  0  0  0  0  0  0  0  0  0  0
   -0.9300   -2.5440    0.2800 C   0  0  0  0  0  0  0  0  0  0  0  0
   -1.9600   -3.2410    0.6930 O   0  0  0  0  0  0  0  0  0  0  0  0
   -1.2560   -1.3240   -0.3450 N   0  0  0  0  0  0  0  0  0  0  0  0
   -0.2840   -0.3360   -0.7490 C   0  0  0  0  0  0  0  0  0  0  0  0
   -0.8300    1.0850   -0.4630 C   0  0  0  0  0  0  0  0  0  0  0  0
   -1.8760    0.8720    0.6130 C   0  0  0  0  0  0  0  0  0  0  0  0
   -3.1120    0.2180    0.0260 C   0  0  2  0  0  0  0  0  0  0  0  0
   -3.7200    1.0820   -1.0610 C   0  0  0  0  0  0  0  0  0  0  0  0
   -5.0590    1.0680   -0.8100 O   0  0  0  0  0  0  0  0  0  0  0  0
   -5.3130    0.4560    0.4040 C   0  0  2  0  0  0  0  0  0  0  0  0
   -6.1340   -0.7820    0.1510 C   0  0  0  0  0  0  0  0  0  0  0  0
   -6.1030    1.4400    1.2320 C   0  0  2  0  0  0  0  0  0  0  0  0
   -6.4770    0.9450    2.5890 C   0  0  0  0  0  0  0  0  0  0  0  0
   -7.3590    1.8250    0.4850 C   0  0  0  0  0  0  0  0  0  0  0  0
   -5.3060    2.7220    1.4350 C   0  0  0  0  0  0  0  0  0  0  0  0
   -4.1060    0.0920    0.9610 O   0  0  0  0  0  0  0  0  0  0  0  0
   -2.6830   -1.0640   -0.6320 C   0  0  0  0  0  0  0  0  0  0  0  0
  2  1  1  6
  2  3  1  0
  2 10  1  0
  3  4  1  0
  4  5  1  0
  5  6  1  0
  6  7  1  0
  7  8  1  0
  7  9  1  0
 10 11  1  0
 11 12  1  0
 12 13  2  0
 12 14  1  0
 14 15  1  0
 15 16  1  0
 16 17  2  0
 16 18  1  0
 18 19  1  0
 18 32  1  0
 19 20  1  0
 20 21  1  0
 22 21  1  1
 22 23  1  0
 22 31  1  0
 22 32  1  0
 23 24  1  0
 24 25  1  0
 25 26  1  6
 25 27  1  0
 25 31  1  0
 27 28  1  1
 27 29  1  0
 27 30  1  0
M  END
