
     RDKit          3D

 33 34  0  0  0  0  0  0  0  0999 V2000
   -3.9060    2.4190   -4.5040 C   0  0  0  0  0  0  0  0  0  0  0  0
   -2.8950    1.6290   -3.9130 O   0  0  0  0  0  0  0  0  0  0  0  0
   -3.0460    0.9090   -2.7550 C   0  0  0  0  0  0  0  0  0  0  0  0
   -4.1520    0.9420   -2.1640 O   0  0  0  0  0  0  0  0  0  0  0  0
   -1.9100    0.0660   -2.1580 C   0  0  0  0  0  0  0  0  0  0  0  0
   -1.3520    0.8300   -1.0440 C   0  0  2  0  0  0  0  0  0  0  0  0
   -0.3030    0.4270   -0.1490 C   0  0  0  0  0  0  0  0  0  0  0  0
    1.0800    0.0560   -0.5850 C   0  0  1  0  0  0  0  0  0  0  0  0
    1.0310   -1.1840   -1.4130 C   0  0  0  0  0  0  0  0  0  0  0  0
    1.7270    1.2050   -1.3750 C   0  0  0  0  0  0  0  0  0  0  0  0
    1.8870   -0.0950    0.6690 C   0  0  0  0  0  0  0  0  0  0  0  0
    3.2550   -0.3760    0.6270 N   0  0  0  0  0  0  0  0  0  0  0  0
    3.9360   -1.5020    0.1730 C   0  0  0  0  0  0  0  0  0  0  0  0
    3.3740   -2.5160   -0.2890 O   0  0  0  0  0  0  0  0  0  0  0  0
    5.4010   -1.5640    0.2130 C   0  0  0  0  0  0  0  0  0  0  0  0
    6.1750   -2.6490   -0.2340 C   0  0  0  0  0  0  0  0  0  0  0  0
    7.4500   -2.3960   -0.0690 O   0  0  0  0  0  0  0  0  0  0  0  0
    7.6090   -1.2100    0.4610 C   0  0  0  0  0  0  0  0  0  0  0  0
    6.3340   -0.6610    0.6510 C   0  0  0  0  0  0  0  0  0  0  0  0
    6.0790    0.5910    1.1940 O   0  0  0  0  0  0  0  0  0  0  0  0
    7.3800    1.6360    1.7180 P   0  0  0  0  0  0  0  0  0  0  0  0
    6.7870    2.8270    2.8640 O   0  0  0  0  0  0  0  0  0  0  0  0
    8.5910    0.7120    2.5940 O   0  0  0  0  0  0  0  0  0  0  0  0
   -2.4670    1.3230   -0.2090 N   0  0  0  0  0  0  0  0  0  0  0  0
   -3.4120    0.5710    0.4680 C   0  0  0  0  0  0  0  0  0  0  0  0
   -4.4790    1.2510    1.0720 C   0  0  0  0  0  0  0  0  0  0  0  0
   -5.4550    0.5940    1.7700 C   0  0  0  0  0  0  0  0  0  0  0  0
   -5.4330   -0.7740    1.9130 C   0  0  0  0  0  0  0  0  0  0  0  0
   -6.4590   -1.4970    2.6520 C   0  0  0  0  0  0  0  0  0  0  0  0
   -6.3490   -2.9850    2.7500 C   0  0  0  0  0  0  0  0  0  0  0  0
   -7.4270   -0.9010    3.2060 O   0  0  0  0  0  0  0  0  0  0  0  0
   -4.4010   -1.4600    1.3340 C   0  0  0  0  0  0  0  0  0  0  0  0
   -3.4020   -0.7790    0.6180 C   0  0  0  0  0  0  0  0  0  0  0  0
  1  2  1  0
  2  3  1  0
  3  4  2  0
  3  5  1  0
  6  5  1  1
  6  7  1  0
  6 24  1  0
  7  8  1  0
  8  9  1  6
  8 10  1  0
  8 11  1  0
 11 12  1  0
 12 13  1  0
 13 14  2  0
 13 15  1  0
 15 16  2  0
 15 19  1  0
 16 17  1  0
 17 18  1  0
 18 19  2  0
 19 20  1  0
 20 21  1  0
 21 22  1  0
 21 23  1  0
 24 25  1  0
 25 26  2  0
 25 33  1  0
 26 27  1  0
 27 28  2  0
 28 29  1  0
 28 32  1  0
 29 30  1  0
 29 31  2  0
 32 33  2  0
M  END
