
     RDKit          3D

 20 20  0  0  0  0  0  0  0  0999 V2000
    6.2700   -1.2340   -0.2360 C   0  0  0  0  0  0  0  0  0  0  0  0
    4.9270   -1.1050   -0.6650 O   0  0  0  0  0  0  0  0  0  0  0  0
    3.9530   -0.4840    0.0950 C   0  0  0  0  0  0  0  0  0  0  0  0
    4.2920   -0.0210    1.2110 O   0  0  0  0  0  0  0  0  0  0  0  0
    2.6280   -0.3550   -0.3240 O   0  0  0  0  0  0  0  0  0  0  0  0
    1.6640    0.2680    0.4460 C   0  0  0  0  0  0  0  0  0  0  0  0
    1.9820    0.7320    1.5530 O   0  0  0  0  0  0  0  0  0  0  0  0
    0.2870    0.3920   -0.0120 N   0  0  0  0  0  0  0  0  0  0  0  0
   -0.1910   -0.0960   -1.2820 C   0  0  0  0  0  0  0  0  0  0  0  0
   -1.6140   -0.4910   -0.9800 C   0  0  1  0  0  0  0  0  0  0  0  0
   -1.6320   -2.1130   -0.1310 P   0  0  0  0  0  0  0  0  0  0  0  0
   -2.4600   -2.0670    1.3900 O   0  0  0  0  0  0  0  0  0  0  0  0
   -2.2270   -3.3900   -1.1420 O   0  0  0  0  0  0  0  0  0  0  0  0
   -2.0220    0.6600   -0.0820 C   0  0  2  0  0  0  0  0  0  0  0  0
   -2.4480    1.8510   -0.9080 C   0  0  0  0  0  0  0  0  0  0  0  0
   -3.5770    1.4890   -1.7460 N   0  0  0  0  0  0  0  0  0  0  0  0
   -0.7720    1.0070    0.7000 C   0  0  1  0  0  0  0  0  0  0  0  0
   -0.9080    0.5600    2.1130 C   0  0  0  0  0  0  0  0  0  0  0  0
   -0.1620   -0.3350    2.5410 O   0  0  0  0  0  0  0  0  0  0  0  0
   -1.8490    1.1340    2.9340 O   0  0  0  0  0  0  0  0  0  0  0  0
  1  2  1  0
  2  3  1  0
  3  4  2  0
  3  5  1  0
  5  6  1  0
  6  7  2  0
  6  8  1  0
  8  9  1  0
  8 17  1  0
  9 10  1  0
 10 11  1  1
 10 14  1  0
 11 12  1  0
 11 13  1  0
 14 15  1  6
 14 17  1  0
 15 16  1  0
 17 18  1  1
 18 19  2  0
 18 20  1  0
M  END
