
     RDKit          3D

 20 21  0  0  0  0  0  0  0  0999 V2000
   -6.3030    0.8440   -0.1390 O   0  0  0  0  0  0  0  0  0  0  0  0
   -5.0640    0.9540   -0.2490 C   0  0  0  0  0  0  0  0  0  0  0  0
   -4.1210   -0.1310   -0.6080 C   0  0  0  0  0  0  0  0  0  0  0  0
   -2.8370    0.4030    0.0200 C   0  0  2  0  0  0  0  0  0  0  0  0
   -2.9510    1.8640   -0.2820 C   0  0  0  0  0  0  0  0  0  0  0  0
   -4.3460    2.1190   -0.0530 O   0  0  0  0  0  0  0  0  0  0  0  0
   -1.7070   -0.1870   -0.5150 O   0  0  0  0  0  0  0  0  0  0  0  0
   -1.2360   -1.1110    0.3960 C   0  0  1  0  0  0  0  0  0  0  0  0
    0.2590   -1.1720    0.3940 C   0  0  0  0  0  0  0  0  0  0  0  0
    0.9440   -0.8650    1.3970 O   0  0  0  0  0  0  0  0  0  0  0  0
    0.9670   -1.5850   -0.7650 N   0  0  0  0  0  0  0  0  0  0  0  0
    2.3890   -1.6600   -0.8200 C   0  0  0  0  0  0  0  0  0  0  0  0
    3.0850   -0.3460   -0.5670 C   0  0  0  0  0  0  0  0  0  0  0  0
    4.4720   -0.6040   -0.6600 O   0  0  0  0  0  0  0  0  0  0  0  0
    5.3740    0.8630   -0.3810 P   0  0  0  0  0  0  0  0  0  0  0  0
    4.5940    2.1890   -1.2020 O   0  0  0  0  0  0  0  0  0  0  0  0
    6.9550    0.6520   -1.0590 O   0  0  0  0  0  0  0  0  0  0  0  0
   -1.6650   -0.6570    1.7080 N   0  0  0  0  0  0  0  0  0  0  0  0
   -2.8320    0.1220    1.4670 C   0  0  0  0  0  0  0  0  0  0  0  0
   -3.7060    0.5170    2.2680 O   0  0  0  0  0  0  0  0  0  0  0  0
  1  2  2  0
  2  3  1  0
  2  6  1  0
  4  3  1  6
  4  5  1  0
  4  7  1  0
  4 19  1  0
  5  6  1  0
  7  8  1  0
  8  9  1  1
  8 18  1  0
  9 10  2  0
  9 11  1  0
 11 12  1  0
 12 13  1  0
 13 14  1  0
 14 15  1  0
 15 16  1  0
 15 17  1  0
 18 19  1  0
 19 20  2  0
M  END
