
     RDKit          3D

 43 45  0  0  0  0  0  0  0  0999 V2000
   -1.2820   -2.8020   -1.9580 C   0  0  0  0  0  0  0  0  0  0  0  0
   -1.1620   -1.9780   -0.7410 C   0  0  1  0  0  0  0  0  0  0  0  0
   -1.8860   -2.5730    0.4080 C   0  0  0  0  0  0  0  0  0  0  0  0
   -3.3380   -2.3370    0.5360 C   0  0  0  0  0  0  0  0  0  0  0  0
   -3.5520   -1.1010    1.3360 N   0  0  0  0  0  0  0  0  0  0  0  0
   -4.6350   -1.1740    2.3000 C   0  0  0  0  0  0  0  0  0  0  0  0
   -5.8390   -1.5660    1.5610 C   0  0  0  0  0  0  0  0  0  0  0  0
   -6.3810   -0.7160    0.4760 C   0  0  0  0  0  0  0  0  0  0  0  0
   -7.1650   -1.6700   -0.2500 O   0  0  0  0  0  0  0  0  0  0  0  0
   -8.2480   -1.9930    0.3480 O   0  0  0  0  0  0  0  0  0  0  0  0
   -2.8900    0.1130    1.0040 C   0  0  0  0  0  0  0  0  0  0  0  0
   -3.3360    1.1380    1.5870 O   0  0  0  0  0  0  0  0  0  0  0  0
   -1.7980    0.3660    0.1190 N   0  0  0  0  0  0  0  0  0  0  0  0
   -1.0450    1.5130    0.5880 C   0  0  0  0  0  0  0  0  0  0  0  0
   -1.2750    2.7990   -0.0700 C   0  0  2  0  0  0  0  0  0  0  0  0
   -0.7040    2.9920   -1.3740 N   0  0  0  0  0  0  0  0  0  0  0  0
   -1.0980    4.0870   -2.1170 C   0  0  0  0  0  0  0  0  0  0  0  0
   -1.9730    4.9380   -1.6540 O   0  0  0  0  0  0  0  0  0  0  0  0
   -0.6720    4.4320   -3.3760 O   0  0  0  0  0  0  0  0  0  0  0  0
   -0.7040    3.8970    0.8410 C   0  0  0  0  0  0  0  0  0  0  0  0
    0.6430    4.3070    0.3920 C   0  0  0  0  0  0  0  0  0  0  0  0
    1.7460    3.3020    0.6470 C   0  0  0  0  0  0  0  0  0  0  0  0
    3.0000    3.8740    0.7970 O   0  0  0  0  0  0  0  0  0  0  0  0
    3.9190    3.2310   -0.0170 C   0  0  0  0  0  0  0  0  0  0  0  0
    4.2120    1.8090    0.4430 C   0  0  0  0  0  0  0  0  0  0  0  0
    5.4180    1.3240   -0.2280 N   0  0  0  0  0  0  0  0  0  0  0  0
    5.8470   -0.0100   -0.3110 C   0  0  0  0  0  0  0  0  0  0  0  0
    7.1100   -0.1930   -0.0870 O   0  0  0  0  0  0  0  0  0  0  0  0
    5.0560   -1.1440   -0.5960 C   0  0  0  0  0  0  0  0  0  0  0  0
    3.8670   -1.0630   -1.1920 O   0  0  0  0  0  0  0  0  0  0  0  0
    3.3950   -2.2230   -1.3120 N   0  0  0  0  0  0  0  0  0  0  0  0
    4.2130   -3.1920   -0.8160 C   0  0  0  0  0  0  0  0  0  0  0  0
    4.0720   -4.4110   -0.7850 O   0  0  0  0  0  0  0  0  0  0  0  0
    5.2810   -2.5280   -0.3480 C   0  0  0  0  0  0  0  0  0  0  0  0
    6.3850   -3.0580    0.4010 N   0  0  0  0  0  0  0  0  0  0  0  0
    6.0830   -3.2970    1.7490 C   0  0  0  0  0  0  0  0  0  0  0  0
    4.9380   -3.0380    2.1790 O   0  0  0  0  0  0  0  0  0  0  0  0
    2.0200   -2.4500   -1.8210 C   0  0  0  0  0  0  0  0  0  0  0  0
    1.2360   -2.6610   -0.5290 C   0  0  0  0  0  0  0  0  0  0  0  0
    1.7210   -3.6170    0.1860 O   0  0  0  0  0  0  0  0  0  0  0  0
    0.1710   -1.8500   -0.3150 O   0  0  0  0  0  0  0  0  0  0  0  0
   -1.5550   -0.4960   -0.9860 C   0  0  0  0  0  0  0  0  0  0  0  0
   -1.5840   -0.2900   -2.2140 O   0  0  0  0  0  0  0  0  0  0  0  0
  2  1  1  6
  2  3  1  0
  2 41  1  0
  2 42  1  0
  3  4  1  0
  4  5  1  0
  5  6  1  0
  5 11  1  0
  6  7  1  0
  7  8  1  0
  8  9  1  0
  9 10  1  0
 11 12  2  0
 11 13  1  0
 13 14  1  0
 13 42  1  0
 14 15  1  0
 15 16  1  6
 15 20  1  0
 16 17  1  0
 17 18  2  0
 17 19  1  0
 20 21  1  0
 21 22  1  0
 22 23  1  0
 23 24  1  0
 24 25  1  0
 25 26  1  0
 26 27  1  0
 27 28  2  0
 27 29  1  0
 29 30  1  0
 29 34  2  0
 30 31  1  0
 31 32  1  0
 31 38  1  0
 32 33  2  0
 32 34  1  0
 34 35  1  0
 35 36  1  0
 36 37  2  0
 38 39  1  0
 39 40  2  0
 39 41  1  0
 42 43  2  0
M  END
