
     RDKit          3D

 43 45  0  0  0  0  0  0  0  0999 V2000
    6.6200    2.3900   -0.0120 C   0  0  0  0  0  0  0  0  0  0  0  0
    5.7950    2.9250    1.1350 C   0  0  0  0  0  0  0  0  0  0  0  0
    4.3770    2.8600    0.8860 N   0  0  0  0  0  0  0  0  0  0  0  0
    3.5870    3.8830    0.2640 C   0  0  0  0  0  0  0  0  0  0  0  0
    2.1540    3.4480    0.3190 C   0  0  0  0  0  0  0  0  0  0  0  0
    2.2320    2.0350    0.5270 N   0  0  0  0  0  0  0  0  0  0  0  0
    1.3640    1.0260    0.1990 O   0  0  0  0  0  0  0  0  0  0  0  0
    1.7370   -0.1020   -0.4970 C   0  0  0  0  0  0  0  0  0  0  0  0
    2.9870   -0.1110   -0.8040 O   0  0  0  0  0  0  0  0  0  0  0  0
    0.9720   -1.1980   -0.8960 N   0  0  0  0  0  0  0  0  0  0  0  0
    1.6600   -2.2800   -1.5790 C   0  0  0  0  0  0  0  0  0  0  0  0
    1.0880   -2.5880   -2.9100 C   0  0  0  0  0  0  0  0  0  0  0  0
   -0.3340   -2.3550   -2.9780 N   0  0  0  0  0  0  0  0  0  0  0  0
   -1.0780   -1.7580   -1.9370 C   0  0  0  0  0  0  0  0  0  0  0  0
   -2.3060   -1.5710   -2.1810 O   0  0  0  0  0  0  0  0  0  0  0  0
   -0.4340   -1.3940   -0.6760 C   0  0  1  0  0  0  0  0  0  0  0  0
   -0.5880   -2.5790    0.2570 C   0  0  0  0  0  0  0  0  0  0  0  0
    0.3440   -2.6870    1.0850 O   0  0  0  0  0  0  0  0  0  0  0  0
   -1.6740   -3.4450    0.1690 N   0  0  0  0  0  0  0  0  0  0  0  0
   -1.8540   -4.5490    1.0300 C   0  0  0  0  0  0  0  0  0  0  0  0
   -1.1110   -4.8670    2.1300 C   0  0  0  0  0  0  0  0  0  0  0  0
   -1.3590   -5.9960    2.9290 C   0  0  0  0  0  0  0  0  0  0  0  0
   -2.3970   -6.8370    2.6050 C   0  0  0  0  0  0  0  0  0  0  0  0
   -3.1420   -6.5110    1.4930 C   0  0  0  0  0  0  0  0  0  0  0  0
   -2.9000   -5.4190    0.7220 C   0  0  0  0  0  0  0  0  0  0  0  0
   -1.0970   -0.2380    0.0080 C   0  0  2  0  0  0  0  0  0  0  0  0
   -2.5250   -0.5540    0.2590 C   0  0  0  0  0  0  0  0  0  0  0  0
   -3.4040    0.0330   -0.4740 O   0  0  0  0  0  0  0  0  0  0  0  0
   -2.9930   -1.4260    1.2160 O   0  0  0  0  0  0  0  0  0  0  0  0
   -4.3850   -1.6200    1.3330 C   0  0  0  0  0  0  0  0  0  0  0  0
   -1.1140    0.9970   -0.8210 C   0  0  0  0  0  0  0  0  0  0  0  0
   -0.7040    1.1320   -1.9730 O   0  0  0  0  0  0  0  0  0  0  0  0
   -1.6760    2.1010   -0.1530 O   0  0  0  0  0  0  0  0  0  0  0  0
   -1.8000    3.3550   -0.6960 C   0  0  0  0  0  0  0  0  0  0  0  0
   -1.3780    3.5250   -1.8630 O   0  0  0  0  0  0  0  0  0  0  0  0
   -2.4040    4.4680    0.0450 C   0  0  0  0  0  0  0  0  0  0  0  0
   -2.8550    4.2890    1.2010 O   0  0  0  0  0  0  0  0  0  0  0  0
   -2.4990    5.7730   -0.5100 N   0  0  0  0  0  0  0  0  0  0  0  0
   -3.0950    6.8490    0.2210 C   0  0  0  0  0  0  0  0  0  0  0  0
   -3.5600    6.6140    1.3900 O   0  0  0  0  0  0  0  0  0  0  0  0
   -3.2110    8.1350   -0.2350 O   0  0  0  0  0  0  0  0  0  0  0  0
    3.4830    1.7900    1.1970 C   0  0  0  0  0  0  0  0  0  0  0  0
    3.7950    0.8260    1.9360 O   0  0  0  0  0  0  0  0  0  0  0  0
  1  2  1  0
  2  3  1  0
  3  4  1  0
  3 42  1  0
  4  5  1  0
  5  6  1  0
  6  7  1  0
  6 42  1  0
  7  8  1  0
  8  9  2  0
  8 10  1  0
 10 11  1  0
 10 16  1  0
 11 12  1  0
 12 13  1  0
 13 14  1  0
 14 15  2  0
 14 16  1  0
 16 17  1  1
 16 26  1  0
 17 18  2  0
 17 19  1  0
 19 20  1  0
 20 21  2  0
 20 25  1  0
 21 22  1  0
 22 23  2  0
 23 24  1  0
 24 25  2  0
 26 27  1  6
 26 31  1  0
 27 28  2  0
 27 29  1  0
 29 30  1  0
 31 32  2  0
 31 33  1  0
 33 34  1  0
 34 35  2  0
 34 36  1  0
 36 37  2  0
 36 38  1  0
 38 39  1  0
 39 40  2  0
 39 41  1  0
 42 43  2  0
M  END
