
     RDKit          3D

 43 45  0  0  0  0  0  0  0  0999 V2000
    5.1300   -2.3620    1.3150 C   0  0  0  0  0  0  0  0  0  0  0  0
    4.3480   -1.2600    0.5840 C   0  0  1  0  0  0  0  0  0  0  0  0
    4.6630   -1.4070   -0.8820 C   0  0  0  0  0  0  0  0  0  0  0  0
    2.9890   -1.4610    0.8050 O   0  0  0  0  0  0  0  0  0  0  0  0
    1.9930   -0.6200    0.2600 C   0  0  0  0  0  0  0  0  0  0  0  0
    2.4400    0.3100   -0.4290 O   0  0  0  0  0  0  0  0  0  0  0  0
    0.5560   -0.8960    0.5340 C   0  0  2  0  0  0  0  0  0  0  0  0
    0.3200   -2.3120    0.0710 C   0  0  0  0  0  0  0  0  0  0  0  0
    0.6160   -2.4670   -1.3740 C   0  0  0  0  0  0  0  0  0  0  0  0
    0.2590   -1.3300   -2.1850 N   0  0  0  0  0  0  0  0  0  0  0  0
   -0.0850   -0.0190   -1.7030 C   0  0  0  0  0  0  0  0  0  0  0  0
   -0.2810    0.1100   -0.2260 C   0  0  2  0  0  0  0  0  0  0  0  0
    0.3790    1.4310    0.1480 C   0  0  0  0  0  0  0  0  0  0  0  0
    0.7610    2.2570   -0.7020 O   0  0  0  0  0  0  0  0  0  0  0  0
    0.5740    1.7580    1.5180 N   0  0  0  0  0  0  0  0  0  0  0  0
    1.1870    2.9920    1.9500 C   0  0  0  0  0  0  0  0  0  0  0  0
    1.2620    3.0420    3.4450 C   0  0  0  0  0  0  0  0  0  0  0  0
    0.0050    2.9670    4.0340 O   0  0  0  0  0  0  0  0  0  0  0  0
   -1.6930    0.1150    0.2320 C   0  0  0  0  0  0  0  0  0  0  0  0
   -1.9880    1.1580    1.2170 N   0  0  0  0  0  0  0  0  0  0  0  0
   -3.1210    1.7590    1.2300 C   0  0  0  0  0  0  0  0  0  0  0  0
   -4.1340    1.4610    0.3160 O   0  0  0  0  0  0  0  0  0  0  0  0
   -3.3830    2.8100    2.2450 C   0  0  0  0  0  0  0  0  0  0  0  0
   -3.7770    4.0560    1.6560 N   0  0  0  0  0  0  0  0  0  0  0  0
   -2.9360    4.7420    0.7500 C   0  0  0  0  0  0  0  0  0  0  0  0
   -1.8110    4.2880    0.4250 O   0  0  0  0  0  0  0  0  0  0  0  0
   -3.3080    5.9630    0.1680 O   0  0  0  0  0  0  0  0  0  0  0  0
   -2.6660   -0.5920   -0.0630 N   0  0  0  0  0  0  0  0  0  0  0  0
   -2.9830   -1.6680   -0.8880 C   0  0  0  0  0  0  0  0  0  0  0  0
   -3.4990   -2.8890   -0.4850 C   0  0  0  0  0  0  0  0  0  0  0  0
   -3.7870   -3.9210   -1.3550 C   0  0  0  0  0  0  0  0  0  0  0  0
   -3.5330   -3.6870   -2.6920 C   0  0  0  0  0  0  0  0  0  0  0  0
   -3.0210   -2.4740   -3.0910 C   0  0  0  0  0  0  0  0  0  0  0  0
   -2.7790   -1.5480   -2.1880 N   0  0  0  0  0  0  0  0  0  0  0  0
   -2.7210   -2.2260   -4.5340 C   0  0  0  0  0  0  0  0  0  0  0  0
   -3.3270   -2.9940   -5.3110 O   0  0  0  0  0  0  0  0  0  0  0  0
   -1.8480   -1.2250   -4.8860 O   0  0  0  0  0  0  0  0  0  0  0  0
   -0.6330   -0.9230   -4.4790 O   0  0  0  0  0  0  0  0  0  0  0  0
    0.2380   -1.5400   -3.6080 C   0  0  0  0  0  0  0  0  0  0  0  0
    1.1390   -2.3890   -4.0140 O   0  0  0  0  0  0  0  0  0  0  0  0
    4.7920    0.0700    1.0770 C   0  0  0  0  0  0  0  0  0  0  0  0
    5.9830    0.4280    0.9500 O   0  0  0  0  0  0  0  0  0  0  0  0
    3.8950    0.9230    1.6800 O   0  0  0  0  0  0  0  0  0  0  0  0
  2  1  1  1
  2  3  1  0
  2  4  1  0
  2 41  1  0
  4  5  1  0
  5  6  2  0
  7  5  1  6
  7  8  1  0
  7 12  1  0
  8  9  1  0
  9 10  1  0
 10 11  1  0
 10 39  1  0
 11 12  1  0
 12 13  1  1
 12 19  1  0
 13 14  2  0
 13 15  1  0
 15 16  1  0
 16 17  1  0
 17 18  1  0
 19 20  1  0
 19 28  2  0
 20 21  2  3
 21 22  1  0
 21 23  1  0
 23 24  1  0
 24 25  1  0
 25 26  2  0
 25 27  1  0
 28 29  1  0
 29 30  2  0
 29 34  1  0
 30 31  1  0
 31 32  2  0
 32 33  1  0
 33 34  2  0
 33 35  1  0
 35 36  2  0
 35 37  1  0
 37 38  1  0
 38 39  1  0
 39 40  2  0
 41 42  2  0
 41 43  1  0
M  END
