
     RDKit          3D

 44 48  0  0  0  0  0  0  0  0999 V2000
    9.9460    3.7570   -1.0430 N   0  0  0  0  0  0  0  0  0  0  0  0
    9.7620    2.3630   -1.0710 C   0  0  0  0  0  0  0  0  0  0  0  0
   10.3730    1.6000   -1.8570 O   0  0  0  0  0  0  0  0  0  0  0  0
    8.7900    1.8130   -0.1270 C   0  0  0  0  0  0  0  0  0  0  0  0
    9.0650    1.7180    1.2110 C   0  0  0  0  0  0  0  0  0  0  0  0
    8.1140    1.1820    2.0580 C   0  0  0  0  0  0  0  0  0  0  0  0
    6.8960    0.7420    1.5320 C   0  0  0  0  0  0  0  0  0  0  0  0
    6.6620    0.8360    0.2350 N   0  0  0  0  0  0  0  0  0  0  0  0
    5.5530    0.1840   -0.3420 C   0  0  2  0  0  0  0  0  0  0  0  0
    4.2880    0.3240    0.1210 O   0  0  0  0  0  0  0  0  0  0  0  0
    3.6620   -0.7730   -0.2780 C   0  0  2  0  0  0  0  0  0  0  0  0
    2.3820   -1.2790    0.3230 C   0  0  0  0  0  0  0  0  0  0  0  0
    2.4210   -2.5960   -0.2660 O   0  0  0  0  0  0  0  0  0  0  0  0
    1.0700   -2.9590   -1.0820 P   0  0  1  0  0  0  0  0  0  0  0  0
    1.5370   -3.3660   -2.5170 O   0  0  0  0  0  0  0  0  0  0  0  0
    0.1060   -4.1250   -0.4730 O   0  0  0  0  0  0  0  0  0  0  0  0
    0.1930   -1.4520   -1.3900 O   0  0  0  0  0  0  0  0  0  0  0  0
   -1.3320   -1.8230   -0.8570 P   0  0  1  0  0  0  0  0  0  0  0  0
   -1.9240   -2.8460   -1.8750 O   0  0  0  0  0  0  0  0  0  0  0  0
   -1.0120   -2.7880    0.6070 O   0  0  0  0  0  0  0  0  0  0  0  0
   -2.4600   -0.7540   -0.5070 O   0  0  0  0  0  0  0  0  0  0  0  0
   -2.2830    0.0050    0.6860 C   0  0  0  0  0  0  0  0  0  0  0  0
   -3.7500    0.3820    0.9990 C   0  0  1  0  0  0  0  0  0  0  0  0
   -4.3900    1.0910    0.0020 O   0  0  0  0  0  0  0  0  0  0  0  0
   -5.6910    0.7780    0.3180 C   0  0  1  0  0  0  0  0  0  0  0  0
   -6.7820    1.4840   -0.1930 N   0  0  0  0  0  0  0  0  0  0  0  0
   -6.8550    2.8060   -0.3600 C   0  0  0  0  0  0  0  0  0  0  0  0
   -8.1120    3.1540   -0.6590 N   0  0  0  0  0  0  0  0  0  0  0  0
   -8.8620    2.0130   -0.6910 C   0  0  0  0  0  0  0  0  0  0  0  0
  -10.2200    1.8100   -0.9340 C   0  0  0  0  0  0  0  0  0  0  0  0
  -11.0280    2.9700   -1.0550 N   0  0  0  0  0  0  0  0  0  0  0  0
  -10.6670    0.5540   -0.8910 N   0  0  0  0  0  0  0  0  0  0  0  0
   -9.8720   -0.4860   -0.6350 C   0  0  0  0  0  0  0  0  0  0  0  0
   -8.5710   -0.2490   -0.3930 N   0  0  0  0  0  0  0  0  0  0  0  0
   -8.0270    0.9760   -0.4060 C   0  0  0  0  0  0  0  0  0  0  0  0
   -5.7410   -0.7190    0.2570 C   0  0  2  0  0  0  0  0  0  0  0  0
   -6.7220   -1.2710    1.1040 O   0  0  0  0  0  0  0  0  0  0  0  0
   -4.4300   -1.0400    0.9330 C   0  0  2  0  0  0  0  0  0  0  0  0
   -4.4990   -1.5280    2.1950 O   0  0  0  0  0  0  0  0  0  0  0  0
    4.5840   -1.9260   -0.5530 C   0  0  1  0  0  0  0  0  0  0  0  0
    4.7710   -2.0570   -1.9320 O   0  0  0  0  0  0  0  0  0  0  0  0
    5.8420   -1.3590    0.0050 C   0  0  1  0  0  0  0  0  0  0  0  0
    6.9830   -1.7340   -0.6300 O   0  0  0  0  0  0  0  0  0  0  0  0
    7.5620    1.3590   -0.5990 C   0  0  0  0  0  0  0  0  0  0  0  0
  1  2  1  0
  2  3  2  0
  2  4  1  0
  4  5  2  0
  4 44  1  0
  5  6  1  0
  6  7  2  0
  7  8  1  0
  9  8  1  1
  8 44  2  0
  9 10  1  0
  9 42  1  0
 10 11  1  0
 11 12  1  1
 11 40  1  0
 12 13  1  0
 13 14  1  0
 14 15  2  0
 14 16  1  1
 14 17  1  0
 17 18  1  0
 18 19  2  0
 18 20  1  1
 18 21  1  0
 21 22  1  0
 23 22  1  6
 23 24  1  0
 23 38  1  0
 24 25  1  0
 25 26  1  6
 25 36  1  0
 26 27  1  0
 26 35  1  0
 27 28  2  0
 28 29  1  0
 29 30  2  0
 29 35  1  0
 30 31  1  0
 30 32  1  0
 32 33  2  0
 33 34  1  0
 34 35  2  0
 36 37  1  1
 36 38  1  0
 38 39  1  1
 40 41  1  6
 40 42  1  0
 42 43  1  6
M  CHG  2   8   1  16  -1
M  END
