
     RDKit          3D

 44 48  0  0  0  0  0  0  0  0999 V2000
    3.3560   -0.0900    1.5580 C   0  0  0  0  0  0  0  0  0  0  0  0
    3.0100    0.5970    0.2590 C   0  0  1  0  0  0  0  0  0  0  0  0
    4.3500    0.7400   -0.4790 C   0  0  0  0  0  0  0  0  0  0  0  0
    4.9050   -0.5020   -0.7780 O   0  0  0  0  0  0  0  0  0  0  0  0
    6.1190   -0.5270   -1.4470 C   0  0  0  0  0  0  0  0  0  0  0  0
    6.6910    0.5460   -1.7670 O   0  0  0  0  0  0  0  0  0  0  0  0
    6.7540   -1.7140   -1.7910 O   0  0  0  0  0  0  0  0  0  0  0  0
    2.1210   -0.2380   -0.6350 C   0  0  0  0  0  0  0  0  0  0  0  0
    2.1000   -1.6880   -0.3240 C   0  0  0  0  0  0  0  0  0  0  0  0
    1.0810   -2.1740    0.5290 N   0  0  0  0  0  0  0  0  0  0  0  0
    1.2440   -3.4760    1.1120 C   0  0  0  0  0  0  0  0  0  0  0  0
    0.3940   -3.9980    1.8810 O   0  0  0  0  0  0  0  0  0  0  0  0
    2.3830   -4.2010    0.8230 O   0  0  0  0  0  0  0  0  0  0  0  0
   -0.1420   -1.4910    0.8890 C   0  0  2  0  0  0  0  0  0  0  0  0
   -0.1580   -1.4770    2.4080 C   0  0  0  0  0  0  0  0  0  0  0  0
   -0.5340   -0.1390    2.9280 C   0  0  0  0  0  0  0  0  0  0  0  0
    0.3840    0.8870    2.5460 O   0  0  0  0  0  0  0  0  0  0  0  0
   -0.0490    2.2250    2.3300 C   0  0  0  0  0  0  0  0  0  0  0  0
    0.4450    3.1560    3.0540 O   0  0  0  0  0  0  0  0  0  0  0  0
   -1.0260    2.6050    1.3320 C   0  0  0  0  0  0  0  0  0  0  0  0
   -0.8880    2.4120    0.0150 C   0  0  0  0  0  0  0  0  0  0  0  0
    0.3670    2.4640   -0.6930 N   0  0  0  0  0  0  0  0  0  0  0  0
    1.6690    2.6700   -0.2100 C   0  0  0  0  0  0  0  0  0  0  0  0
    2.2110    3.8200   -0.5620 O   0  0  0  0  0  0  0  0  0  0  0  0
    2.4390    1.8430    0.5670 O   0  0  0  0  0  0  0  0  0  0  0  0
   -2.2690    2.2470   -0.4510 C   0  0  2  0  0  0  0  0  0  0  0  0
   -2.5580    2.2640   -1.8580 C   0  0  0  0  0  0  0  0  0  0  0  0
   -2.2430    3.2240   -2.5800 O   0  0  0  0  0  0  0  0  0  0  0  0
   -3.2180    1.1890   -2.5070 O   0  0  0  0  0  0  0  0  0  0  0  0
   -3.2450   -0.0880   -1.9780 C   0  0  1  0  0  0  0  0  0  0  0  0
   -4.1640   -0.3440   -0.8390 C   0  0  0  0  0  0  0  0  0  0  0  0
   -3.6920   -1.0620   -3.0830 C   0  0  0  0  0  0  0  0  0  0  0  0
   -3.4790   -2.3990   -2.6630 O   0  0  0  0  0  0  0  0  0  0  0  0
   -2.8430   -2.7630   -1.4860 C   0  0  0  0  0  0  0  0  0  0  0  0
   -3.0470   -3.8430   -0.9350 O   0  0  0  0  0  0  0  0  0  0  0  0
   -1.8860   -1.7610   -0.9200 N   0  0  0  0  0  0  0  0  0  0  0  0
   -1.3060   -2.2090    0.2840 C   0  0  0  0  0  0  0  0  0  0  0  0
   -1.8240   -0.6190   -1.7190 C   0  0  0  0  0  0  0  0  0  0  0  0
   -0.9680    0.0710   -2.2710 O   0  0  0  0  0  0  0  0  0  0  0  0
   -3.0200    3.2080    0.3740 N   0  0  0  0  0  0  0  0  0  0  0  0
   -4.1740    3.9140    0.4320 C   0  0  0  0  0  0  0  0  0  0  0  0
   -4.2380    4.2900    1.7390 N   0  0  0  0  0  0  0  0  0  0  0  0
   -3.1940    3.8460    2.4210 N   0  0  0  0  0  0  0  0  0  0  0  0
   -2.4040    3.1550    1.5360 C   0  0  0  0  0  0  0  0  0  0  0  0
  2  1  1  1
  2  3  1  0
  2  8  1  0
  2 25  1  0
  3  4  1  0
  4  5  1  0
  5  6  2  0
  5  7  1  0
  8  9  1  0
  9 10  1  0
 10 11  1  0
 10 14  1  0
 11 12  2  0
 11 13  1  0
 14 15  1  0
 14 37  1  1
 15 16  1  0
 16 17  1  0
 17 18  1  0
 18 19  2  0
 18 20  1  0
 20 21  2  0
 20 44  1  0
 21 22  1  0
 21 26  1  0
 22 23  1  0
 23 24  2  0
 23 25  1  0
 26 27  1  0
 26 40  1  1
 27 28  2  0
 27 29  1  0
 29 30  1  0
 30 31  1  1
 30 32  1  0
 30 38  1  0
 32 33  1  0
 33 34  1  0
 34 35  2  0
 34 36  1  0
 36 37  1  0
 36 38  1  0
 38 39  2  0
 40 41  1  0
 40 44  1  0
 41 42  2  0
 42 43  1  0
 43 44  2  0
M  END
