
     RDKit          3D

 11 11  0  0  0  0  0  0  0  0999 V2000
    3.4260   -0.0950   -0.5400 O   0  0  0  0  0  0  0  0  0  0  0  0
    2.0410    0.0740   -0.6670 C   0  0  0  0  0  0  0  0  0  0  0  0
    1.3960   -0.5530    0.5710 C   0  0  1  0  0  0  0  0  0  0  0  0
    1.8890    0.1120    1.6970 O   0  0  0  0  0  0  0  0  0  0  0  0
   -0.0990   -0.3330    0.5610 C   0  0  2  0  0  0  0  0  0  0  0  0
   -0.5930   -0.8740    1.7510 O   0  0  0  0  0  0  0  0  0  0  0  0
   -0.7880   -1.0370   -0.5790 C   0  0  0  0  0  0  0  0  0  0  0  0
   -2.0740   -0.2050   -0.6770 C   0  0  0  0  0  0  0  0  0  0  0  0
   -1.5870    1.1390   -0.2330 C   0  0  1  0  0  0  0  0  0  0  0  0
   -2.5800    1.7430    0.5400 O   0  0  0  0  0  0  0  0  0  0  0  0
   -0.3990    0.9940    0.4220 O   0  0  0  0  0  0  0  0  0  0  0  0
  1  2  1  0
  2  3  1  0
  3  4  1  1
  3  5  1  0
  5  6  1  1
  5  7  1  0
  5 11  1  0
  7  8  1  0
  8  9  1  0
  9 10  1  1
  9 11  1  0
M  END
