
     RDKit          3D

 11 11  0  0  0  0  0  0  0  0999 V2000
    2.2590   -1.6640    0.1730 O   0  0  0  0  0  0  0  0  0  0  0  0
    1.8710   -0.4090    0.6430 C   0  0  0  0  0  0  0  0  0  0  0  0
    0.6820    0.0980   -0.1800 C   0  0  1  0  0  0  0  0  0  0  0  0
    1.1200    0.1760   -1.5170 O   0  0  0  0  0  0  0  0  0  0  0  0
   -0.3860   -0.9400   -0.1150 C   0  0  0  0  0  0  0  0  0  0  0  0
   -1.7220   -0.2680   -0.2720 C   0  0  1  0  0  0  0  0  0  0  0  0
   -2.7040   -1.2460   -0.0750 O   0  0  0  0  0  0  0  0  0  0  0  0
   -1.8860    0.7660    0.7740 C   0  0  0  0  0  0  0  0  0  0  0  0
   -0.8110    1.5190    1.0790 O   0  0  0  0  0  0  0  0  0  0  0  0
    0.2700    1.4550    0.2440 C   0  0  1  0  0  0  0  0  0  0  0  0
    1.3510    2.0360    0.9180 O   0  0  0  0  0  0  0  0  0  0  0  0
  1  2  1  0
  2  3  1  0
  3  4  1  6
  3  5  1  0
  3 10  1  0
  5  6  1  0
  6  7  1  1
  6  8  1  0
  8  9  1  0
  9 10  1  0
 10 11  1  1
M  END
