
     RDKit          3D

 12 12  0  0  0  0  0  0  0  0999 V2000
    2.6440    0.4240   -1.1670 O   0  0  0  0  0  0  0  0  0  0  0  0
    1.7260    1.0260   -0.3200 C   0  0  0  0  0  0  0  0  0  0  0  0
    1.1340    0.0640    0.6690 C   0  0  1  0  0  0  0  0  0  0  0  0
    0.2250    0.6550    1.5120 O   0  0  0  0  0  0  0  0  0  0  0  0
   -0.9950    0.9440    0.9720 C   0  0  1  0  0  0  0  0  0  0  0  0
   -1.0130    2.0820    0.1650 O   0  0  0  0  0  0  0  0  0  0  0  0
   -1.6520   -0.1630    0.2190 C   0  0  2  0  0  0  0  0  0  0  0  0
   -2.2440   -1.0860    1.0960 O   0  0  0  0  0  0  0  0  0  0  0  0
   -0.7330   -0.9000   -0.6960 C   0  0  1  0  0  0  0  0  0  0  0  0
   -0.5310   -0.3070   -1.9160 O   0  0  0  0  0  0  0  0  0  0  0  0
    0.5510   -1.1650    0.0580 C   0  0  1  0  0  0  0  0  0  0  0  0
    1.4700   -1.8690   -0.7230 O   0  0  0  0  0  0  0  0  0  0  0  0
  1  2  1  0
  3  2  1  6
  3  4  1  0
  3 11  1  0
  4  5  1  0
  5  6  1  6
  5  7  1  0
  7  8  1  1
  7  9  1  0
  9 10  1  6
  9 11  1  0
 11 12  1  6
M  END
