
     RDKit          3D

 26 28  0  0  0  0  0  0  0  0999 V2000
    5.8190   -1.1220    0.2380 C   0  0  0  0  0  0  0  0  0  0  0  0
    5.0820   -1.5390    1.3340 O   0  0  0  0  0  0  0  0  0  0  0  0
    3.7770   -1.8360    1.0470 C   0  0  0  0  0  0  0  0  0  0  0  0
    2.9720   -0.6820    0.4880 C   0  0  0  0  0  0  0  0  0  0  0  0
    1.6700   -1.0420    0.2240 O   0  0  0  0  0  0  0  0  0  0  0  0
    0.8950   -0.0400   -0.3010 C   0  0  2  0  0  0  0  0  0  0  0  0
   -0.5040   -0.4830   -0.6140 C   0  0  2  0  0  0  0  0  0  0  0  0
   -0.4510   -1.5620   -1.7040 C   0  0  0  0  0  0  0  0  0  0  0  0
   -1.3180    0.5130   -1.1400 O   0  0  0  0  0  0  0  0  0  0  0  0
   -2.4250    0.6680   -0.4140 C   0  0  1  0  0  0  0  0  0  0  0  0
   -2.3750    1.5820    0.6280 O   0  0  0  0  0  0  0  0  0  0  0  0
   -3.7620    0.7900   -1.0480 C   0  0  0  0  0  0  0  0  0  0  0  0
   -4.6560    0.3380    0.1240 C   0  0  0  0  0  0  0  0  0  0  0  0
   -3.7310   -0.4880    1.0430 C   0  0  0  0  0  0  0  0  0  0  0  0
   -2.6230   -0.7640    0.1460 C   0  0  1  0  0  0  0  0  0  0  0  0
   -3.0100   -1.6070   -0.8680 O   0  0  0  0  0  0  0  0  0  0  0  0
   -1.2550   -1.0200    0.6130 C   0  0  1  0  0  0  0  0  0  0  0  0
   -0.9880   -2.4460    0.6620 N   0  0  0  0  0  0  0  0  0  0  0  0
   -0.8640   -0.4590    1.7750 O   0  0  0  0  0  0  0  0  0  0  0  0
    1.4900    0.3510   -1.5040 O   0  0  0  0  0  0  0  0  0  0  0  0
    1.4450    1.7450   -1.5130 C   0  0  0  0  0  0  0  0  0  0  0  0
    1.5270    2.1100   -0.0450 C   0  0  1  0  0  0  0  0  0  0  0  0
    0.9350    3.4340    0.2120 C   0  0  0  0  0  0  0  0  0  0  0  0
   -0.0940    3.6320    0.8970 O   0  0  0  0  0  0  0  0  0  0  0  0
    1.5200    4.5980   -0.3230 O   0  0  0  0  0  0  0  0  0  0  0  0
    0.8380    1.0630    0.5320 O   0  0  0  0  0  0  0  0  0  0  0  0
  1  2  1  0
  2  3  1  0
  3  4  1  0
  4  5  1  0
  6  5  1  1
  6  7  1  0
  6 20  1  0
  6 26  1  0
  7  8  1  6
  7  9  1  0
  7 17  1  0
  9 10  1  0
 10 11  1  1
 10 12  1  0
 10 15  1  0
 12 13  1  0
 13 14  1  0
 14 15  1  0
 15 16  1  6
 15 17  1  0
 17 18  1  1
 17 19  1  0
 20 21  1  0
 21 22  1  0
 22 23  1  6
 22 26  1  0
 23 24  2  0
 23 25  1  0
M  END
