
     RDKit          3D

 26 26  0  0  0  0  0  0  0  0999 V2000
   -4.3490   -3.4830   -2.1360 C   0  0  0  0  0  0  0  0  0  0  0  0
   -3.6260   -3.4130   -0.9680 O   0  0  0  0  0  0  0  0  0  0  0  0
   -3.5790   -2.1010   -0.5050 C   0  0  1  0  0  0  0  0  0  0  0  0
   -4.2640   -2.0420    0.7310 O   0  0  0  0  0  0  0  0  0  0  0  0
   -2.1340   -1.6410   -0.3330 C   0  0  0  0  0  0  0  0  0  0  0  0
   -2.2270   -0.1910    0.1770 C   0  0  1  0  0  0  0  0  0  0  0  0
   -2.9280   -0.3210    1.3740 O   0  0  0  0  0  0  0  0  0  0  0  0
   -0.8010    0.3320    0.4480 C   0  0  2  0  0  0  0  0  0  0  0  0
   -0.9120    1.6550    1.1580 C   0  0  0  0  0  0  0  0  0  0  0  0
   -1.6360    2.7300    0.4370 C   0  0  1  0  0  0  0  0  0  0  0  0
   -1.0240    3.1030   -0.9080 C   0  0  0  0  0  0  0  0  0  0  0  0
   -2.9830    2.4770    0.1930 O   0  0  0  0  0  0  0  0  0  0  0  0
   -1.6030    4.0480    1.2370 C   0  0  0  0  0  0  0  0  0  0  0  0
   -0.2880    4.4030    1.5410 O   0  0  0  0  0  0  0  0  0  0  0  0
   -0.1750    0.4620   -0.7520 O   0  0  0  0  0  0  0  0  0  0  0  0
    1.1800    0.4660   -0.7950 C   0  0  0  0  0  0  0  0  0  0  0  0
    1.8750    0.0200    0.4610 C   0  0  2  0  0  0  0  0  0  0  0  0
    3.0520   -0.6430    0.0530 O   0  0  0  0  0  0  0  0  0  0  0  0
    4.1700   -0.0980    0.6740 C   0  0  0  0  0  0  0  0  0  0  0  0
    5.3700   -0.8860    0.1620 C   0  0  1  0  0  0  0  0  0  0  0  0
    5.2770   -2.2240    0.4600 O   0  0  0  0  0  0  0  0  0  0  0  0
    5.4940   -0.6610   -1.3300 C   0  0  0  0  0  0  0  0  0  0  0  0
    4.3660   -1.1880   -1.9360 O   0  0  0  0  0  0  0  0  0  0  0  0
    1.0030   -1.0250    1.0890 C   0  0  2  0  0  0  0  0  0  0  0  0
    1.1450   -2.2190    0.2770 N   0  0  0  0  0  0  0  0  0  0  0  0
   -0.2650   -0.6150    1.3110 O   0  0  0  0  0  0  0  0  0  0  0  0
  1  2  1  0
  2  3  1  0
  3  4  1  1
  3  5  1  0
  5  6  1  0
  6  7  1  1
  6  8  1  0
  8  9  1  1
  8 15  1  0
  8 26  1  0
  9 10  1  0
 10 11  1  6
 10 12  1  0
 10 13  1  0
 13 14  1  0
 15 16  1  0
 16 17  1  0
 17 18  1  6
 17 24  1  0
 18 19  1  0
 19 20  1  0
 20 21  1  6
 20 22  1  0
 22 23  1  0
 24 25  1  6
 24 26  1  0
M  END
