
     RDKit          3D

 26 26  0  0  0  0  0  0  0  0999 V2000
   -2.6680   -4.3060   -1.1460 C   0  0  0  0  0  0  0  0  0  0  0  0
   -3.2700   -3.3410   -0.4870 C   0  0  0  0  0  0  0  0  0  0  0  0
   -4.6290   -3.6040   -0.2050 O   0  0  0  0  0  0  0  0  0  0  0  0
   -2.6430   -2.0810   -0.0540 C   0  0  0  0  0  0  0  0  0  0  0  0
   -3.4290   -1.2430    0.6040 C   0  0  0  0  0  0  0  0  0  0  0  0
   -4.7820   -1.5890    0.8460 O   0  0  0  0  0  0  0  0  0  0  0  0
   -3.0240    0.0740    1.1390 C   0  0  1  0  0  0  0  0  0  0  0  0
   -2.0700   -0.0840    2.1430 O   0  0  0  0  0  0  0  0  0  0  0  0
   -2.6740    1.0000    0.1690 O   0  0  0  0  0  0  0  0  0  0  0  0
   -2.6000    2.2440    0.7500 C   0  0  0  0  0  0  0  0  0  0  0  0
   -1.2990    2.9540    0.4300 C   0  0  0  0  0  0  0  0  0  0  0  0
   -0.9180    2.5790   -0.8570 O   0  0  0  0  0  0  0  0  0  0  0  0
    0.4260    2.2680   -0.8420 C   0  0  2  0  0  0  0  0  0  0  0  0
    1.1020    3.2740   -1.7830 C   0  0  0  0  0  0  0  0  0  0  0  0
    0.5630    3.1310   -3.0460 O   0  0  0  0  0  0  0  0  0  0  0  0
    0.7010    1.0020   -1.3490 O   0  0  0  0  0  0  0  0  0  0  0  0
    0.3550   -0.0030   -0.4340 C   0  0  2  0  0  0  0  0  0  0  0  0
    1.6080   -0.8750   -0.2820 C   0  0  1  0  0  0  0  0  0  0  0  0
    2.0030   -1.4380   -1.4700 O   0  0  0  0  0  0  0  0  0  0  0  0
    2.7170   -0.0950    0.3440 C   0  0  2  0  0  0  0  0  0  0  0  0
    3.1070    0.9140   -0.5290 O   0  0  0  0  0  0  0  0  0  0  0  0
    3.8780   -0.9360    0.7630 C   0  0  0  0  0  0  0  0  0  0  0  0
    4.9280   -0.0200    1.3800 C   0  0  0  0  0  0  0  0  0  0  0  0
    6.0400   -0.7660    1.7900 O   0  0  0  0  0  0  0  0  0  0  0  0
   -0.7050   -0.8450   -1.1080 C   0  0  0  0  0  0  0  0  0  0  0  0
   -1.3380   -1.7700   -0.3010 O   0  0  0  0  0  0  0  0  0  0  0  0
  1  2  2  0
  2  3  1  0
  2  4  1  0
  4  5  2  0
  4 26  1  0
  5  6  1  0
  5  7  1  0
  7  8  1  1
  7  9  1  0
  9 10  1  0
 10 11  1  0
 11 12  1  0
 12 13  1  0
 13 14  1  6
 13 16  1  0
 14 15  1  0
 16 17  1  0
 17 18  1  0
 17 25  1  6
 18 19  1  6
 18 20  1  0
 20 21  1  6
 20 22  1  0
 22 23  1  0
 23 24  1  0
 25 26  1  0
M  END
