
     RDKit          3D

 27 27  0  0  0  0  0  0  0  0999 V2000
    0.8760    0.5160    2.1740 C   0  0  0  0  0  0  0  0  0  0  0  0
    0.5880    0.1090    0.7180 C   0  0  2  0  0  0  0  0  0  0  0  0
    1.5790   -0.7940    0.3920 O   0  0  0  0  0  0  0  0  0  0  0  0
    2.8680   -0.3940    0.5010 C   0  0  0  0  0  0  0  0  0  0  0  0
    3.6790   -1.4850    0.1170 O   0  0  0  0  0  0  0  0  0  0  0  0
    5.0150   -1.1780    0.1930 C   0  0  1  0  0  0  0  0  0  0  0  0
    5.5830   -1.9660    1.1970 O   0  0  0  0  0  0  0  0  0  0  0  0
    5.7760   -1.4160   -1.0740 C   0  0  0  0  0  0  0  0  0  0  0  0
    7.1150   -1.0540   -0.8270 O   0  0  0  0  0  0  0  0  0  0  0  0
    0.6300    1.3000   -0.1390 C   0  0  0  0  0  0  0  0  0  0  0  0
   -0.4130    1.3510   -1.2280 C   0  0  1  0  0  0  0  0  0  0  0  0
   -0.0990    0.4350   -2.3860 C   0  0  0  0  0  0  0  0  0  0  0  0
    1.1460    0.8700   -2.8990 O   0  0  0  0  0  0  0  0  0  0  0  0
   -1.7820    1.1890   -0.6730 C   0  0  2  0  0  0  0  0  0  0  0  0
   -2.2400    2.4510   -0.2940 O   0  0  0  0  0  0  0  0  0  0  0  0
   -1.9240    0.1980    0.4290 C   0  0  1  0  0  0  0  0  0  0  0  0
   -2.2770    0.9060    1.7170 C   0  0  0  0  0  0  0  0  0  0  0  0
   -2.4650    0.0770    2.8580 N   0  0  0  0  0  0  0  0  0  0  0  0
   -2.4080    2.1240    1.8400 O   0  0  0  0  0  0  0  0  0  0  0  0
   -3.1400   -0.6640    0.1590 C   0  0  1  0  0  0  0  0  0  0  0  0
   -3.1040   -1.4220   -1.1080 C   0  0  0  0  0  0  0  0  0  0  0  0
   -3.2570   -1.5840    1.2170 O   0  0  0  0  0  0  0  0  0  0  0  0
   -4.3740    0.1740    0.1790 C   0  0  0  0  0  0  0  0  0  0  0  0
   -4.5610    1.0990   -0.6690 O   0  0  0  0  0  0  0  0  0  0  0  0
   -5.3750   -0.0110    1.1170 O   0  0  0  0  0  0  0  0  0  0  0  0
   -6.4480    0.7800    1.0670 O   0  0  0  0  0  0  0  0  0  0  0  0
   -0.7230   -0.6330    0.7100 C   0  0  0  0  0  0  0  0  0  0  0  0
  2  1  1  1
  2  3  1  0
  2 10  1  0
  2 27  1  0
  3  4  1  0
  4  5  1  0
  5  6  1  0
  6  7  1  1
  6  8  1  0
  8  9  1  0
 10 11  1  0
 11 12  1  6
 11 14  1  0
 12 13  1  0
 14 15  1  1
 14 16  1  0
 16 17  1  1
 16 20  1  0
 16 27  1  0
 17 18  1  0
 17 19  2  0
 20 21  1  6
 20 22  1  0
 20 23  1  0
 23 24  2  0
 23 25  1  0
 25 26  1  0
M  END
