
     RDKit          3D

  8  8  0  0  0  0  0  0  0  0999 V2000
   -2.7520    0.7530    0.6270 O   0  0  0  0  0  0  0  0  0  0  0  0
   -2.0270   -0.2110    0.2690 C   0  0  0  0  0  0  0  0  0  0  0  0
   -0.5910   -0.0840    0.0730 C   0  0  0  0  0  0  0  0  0  0  0  0
    0.1480    1.0840    0.2490 C   0  0  0  0  0  0  0  0  0  0  0  0
    1.4230    0.8120   -0.0220 N   0  0  0  0  0  0  0  0  0  0  0  0
    1.4860   -0.4780   -0.3560 C   0  0  0  0  0  0  0  0  0  0  0  0
    2.5340   -1.1340   -0.6880 O   0  0  0  0  0  0  0  0  0  0  0  0
    0.2650   -1.0490   -0.3050 N   0  0  0  0  0  0  0  0  0  0  0  0
  1  2  2  0
  2  3  1  0
  3  4  2  0
  3  8  1  0
  4  5  1  0
  5  6  1  0
  6  7  2  0
  6  8  1  0
M  END
