
     RDKit          3D

  8  8  0  0  0  0  0  0  0  0999 V2000
    2.4280   -0.4310   -0.1770 N   0  0  0  0  0  0  0  0  0  0  0  0
    1.0270   -0.1000   -0.1320 C   0  0  0  0  0  0  0  0  0  0  0  0
    0.1890   -0.9820   -0.4820 N   0  0  0  0  0  0  0  0  0  0  0  0
   -1.2240   -0.7830   -0.4840 C   0  0  0  0  0  0  0  0  0  0  0  0
   -1.6660    0.3390    0.4340 C   0  0  0  0  0  0  0  0  0  0  0  0
   -0.8040    1.4640    0.3230 O   0  0  0  0  0  0  0  0  0  0  0  0
    0.5790    1.2160    0.3060 C   0  0  0  0  0  0  0  0  0  0  0  0
    1.3920    2.0840    0.6500 O   0  0  0  0  0  0  0  0  0  0  0  0
  1  2  1  0
  2  3  2  0
  2  7  1  0
  3  4  1  0
  4  5  1  0
  5  6  1  0
  6  7  1  0
  7  8  2  0
M  END
