
     RDKit          3D

  8  8  0  0  0  0  0  0  0  0999 V2000
    2.8390    0.6750    0.1350 O   0  0  0  0  0  0  0  0  0  0  0  0
    1.6110    0.3290    0.0860 C   0  0  0  0  0  0  0  0  0  0  0  0
    0.6370    1.3690    0.1130 N   0  0  0  0  0  0  0  0  0  0  0  0
   -0.7770    1.3630   -0.0260 C   0  0  0  0  0  0  0  0  0  0  0  0
   -1.4500    0.0540    0.0780 C   0  0  0  0  0  0  0  0  0  0  0  0
   -0.8060   -0.9230    0.7760 O   0  0  0  0  0  0  0  0  0  0  0  0
    0.0350   -1.7230    0.0070 C   0  0  0  0  0  0  0  0  0  0  0  0
    1.3280   -1.0630    0.0080 N   0  0  0  0  0  0  0  0  0  0  0  0
  1  2  2  0
  2  3  1  0
  2  8  1  0
  3  4  1  0
  4  5  1  0
  5  6  1  0
  6  7  1  0
  7  8  1  0
M  END
