
     RDKit          3D

  8  8  0  0  0  0  0  0  0  0999 V2000
    1.6070    1.3660    0.2010 O   0  0  0  0  0  0  0  0  0  0  0  0
    0.4620    0.5880    0.1140 C   0  0  0  0  0  0  0  0  0  0  0  0
   -0.8070    1.1220    0.0660 C   0  0  0  0  0  0  0  0  0  0  0  0
   -1.8720    0.3120   -0.0180 N   0  0  0  0  0  0  0  0  0  0  0  0
   -1.7600   -1.0290   -0.0590 C   0  0  0  0  0  0  0  0  0  0  0  0
   -0.5190   -1.5440   -0.0120 N   0  0  0  0  0  0  0  0  0  0  0  0
    0.6000   -0.7830    0.0740 C   0  0  0  0  0  0  0  0  0  0  0  0
    1.8650   -1.3190    0.1210 O   0  0  0  0  0  0  0  0  0  0  0  0
  1  2  1  0
  2  3  2  0
  2  7  1  0
  3  4  1  0
  4  5  2  0
  5  6  1  0
  6  7  2  0
  7  8  1  0
M  END
