
     RDKit          3D

  8  8  0  0  0  0  0  0  0  0999 V2000
    2.2340   -0.7120   -0.0020 N   0  0  0  0  0  0  0  0  0  0  0  0
    0.8610   -0.3120   -0.0760 C   0  0  0  0  0  0  0  0  0  0  0  0
   -0.0980   -1.1710   -0.1010 N   0  0  0  0  0  0  0  0  0  0  0  0
   -1.5190   -0.7830   -0.1770 C   0  0  0  0  0  0  0  0  0  0  0  0
   -1.7330    0.5070    0.4860 C   0  0  0  0  0  0  0  0  0  0  0  0
   -2.8440    0.9050    0.8560 O   0  0  0  0  0  0  0  0  0  0  0  0
   -0.6270    1.3150    0.7050 O   0  0  0  0  0  0  0  0  0  0  0  0
    0.5010    1.1240   -0.1340 C   0  0  0  0  0  0  0  0  0  0  0  0
  1  2  1  0
  2  3  2  0
  2  8  1  0
  3  4  1  0
  4  5  1  0
  5  6  2  0
  5  7  1  0
  7  8  1  0
M  END
