
     RDKit          3D

  8  8  0  0  0  0  0  0  0  0999 V2000
    2.8860   -0.8370    0.0960 O   0  0  0  0  0  0  0  0  0  0  0  0
    1.6570   -0.5490    0.0290 C   0  0  0  0  0  0  0  0  0  0  0  0
    0.7200   -1.5170    0.0600 N   0  0  0  0  0  0  0  0  0  0  0  0
   -0.6040   -1.2580   -0.0090 C   0  0  0  0  0  0  0  0  0  0  0  0
   -1.0100    0.0580   -0.1150 C   0  0  0  0  0  0  0  0  0  0  0  0
   -2.3660    0.3540   -0.1880 O   0  0  0  0  0  0  0  0  0  0  0  0
   -0.0230    1.0220   -0.1440 C   0  0  0  0  0  0  0  0  0  0  0  0
    1.2900    0.7320   -0.0740 N   0  0  0  0  0  0  0  0  0  0  0  0
  1  2  2  0
  2  3  1  0
  2  8  1  0
  3  4  2  0
  4  5  1  0
  5  6  1  0
  5  7  2  0
  7  8  1  0
M  END
