
     RDKit          3D

  8  8  0  0  0  0  0  0  0  0999 V2000
   -1.8410    2.1710   -0.3060 O   0  0  0  0  0  0  0  0  0  0  0  0
   -1.0600    1.2300   -0.0520 C   0  0  0  0  0  0  0  0  0  0  0  0
   -1.6600   -0.1190   -0.0770 C   0  0  0  0  0  0  0  0  0  0  0  0
   -0.8340   -0.8990   -0.9170 O   0  0  0  0  0  0  0  0  0  0  0  0
    0.2850   -1.3610   -0.2690 C   0  0  0  0  0  0  0  0  0  0  0  0
    1.4400   -0.4110   -0.2640 C   0  0  0  0  0  0  0  0  0  0  0  0
    1.3230    0.6670    0.6590 N   0  0  0  0  0  0  0  0  0  0  0  0
    0.2910    1.5390    0.2280 N   0  0  0  0  0  0  0  0  0  0  0  0
  1  2  2  0
  2  3  1  0
  2  8  1  0
  3  4  1  0
  4  5  1  0
  5  6  1  0
  6  7  1  0
  7  8  1  0
M  END
