
     RDKit          3D

 32 33  0  0  0  0  0  0  0  0999 V2000
   -2.6760    3.7310   -3.1390 C   0  0  0  0  0  0  0  0  0  0  0  0
   -2.2470    3.1410   -2.0410 C   0  0  0  0  0  0  0  0  0  0  0  0
   -0.6910    2.3150   -3.3520 Cl  0  0  0  0  0  0  0  0  0  0  0  0
   -1.7840    2.4780   -1.0550 C   0  0  0  0  0  0  0  0  0  0  0  0
   -1.9740    2.9620    0.2590 C   0  0  0  0  0  0  0  0  0  0  0  0
   -2.7030    4.2140    0.4800 C   0  0  0  0  0  0  0  0  0  0  0  0
   -1.0570    1.1290   -0.9660 C   0  0  2  0  0  0  0  0  0  0  0  0
   -1.8270    0.1640   -1.8100 C   0  0  0  0  0  0  0  0  0  0  0  0
   -3.0840   -0.4460   -0.6100 S   0  0  0  0  0  0  0  0  0  0  0  0
   -2.1290   -0.0970    0.8730 C   0  0  1  0  0  0  0  0  0  0  0  0
   -1.4960   -1.3120    1.3980 N   0  0  0  0  0  0  0  0  0  0  0  0
   -2.1250   -2.5760    1.2840 C   0  0  2  0  0  0  0  0  0  0  0  0
   -1.7790   -3.2730   -0.0590 C   0  0  0  0  0  0  0  0  0  0  0  0
   -3.6910   -2.5430    1.2500 C   0  0  0  0  0  0  0  0  0  0  0  0
   -0.8610    0.7120    0.3730 C   0  0  0  0  0  0  0  0  0  0  0  0
    0.1640    0.5400    1.1700 C   0  0  0  0  0  0  0  0  0  0  0  0
    0.0410    0.1260    2.5820 C   0  0  0  0  0  0  0  0  0  0  0  0
   -0.9940    0.0130    3.3400 O   0  0  0  0  0  0  0  0  0  0  0  0
    1.3040   -0.1870    3.1140 N   0  0  0  0  0  0  0  0  0  0  0  0
    1.6100   -0.6540    4.4810 C   0  0  0  0  0  0  0  0  0  0  0  0
    2.2000    0.0140    2.1210 N   0  0  0  0  0  0  0  0  0  0  0  0
    1.6090    0.4280    0.9760 C   0  0  0  0  0  0  0  0  0  0  0  0
    2.3520    0.4400   -0.2810 C   0  0  0  0  0  0  0  0  0  0  0  0
    2.1330    0.9520   -1.3570 O   0  0  0  0  0  0  0  0  0  0  0  0
    3.5800   -0.2990   -0.3110 O   0  0  0  0  0  0  0  0  0  0  0  0
    4.4320   -0.4320   -1.3720 C   0  0  2  0  0  0  0  0  0  0  0  0
    3.8140   -1.6620   -2.2610 C   0  0  0  0  0  0  0  0  0  0  0  0
    4.7150   -1.8670   -3.2350 O   0  0  0  0  0  0  0  0  0  0  0  0
    5.7390   -1.0140   -0.9380 C   0  0  1  0  0  0  0  0  0  0  0  0
    6.6200   -1.1150   -1.9960 F   0  0  0  0  0  0  0  0  0  0  0  0
    6.2900   -0.2210    0.0340 F   0  0  0  0  0  0  0  0  0  0  0  0
    5.5320   -2.3030   -0.4120 F   0  0  0  0  0  0  0  0  0  0  0  0
  1  2  2  0
  2  3  1  0
  2  4  1  0
  4  5  2  3
  7  4  1  1
  5  6  1  0
  7  8  1  0
  7 15  1  0
  8  9  1  0
  9 10  1  0
 10 11  1  6
 10 15  1  0
 11 12  1  0
 12 13  1  6
 12 14  1  0
 15 16  2  3
 16 17  1  0
 16 22  1  0
 17 18  2  0
 17 19  1  0
 19 20  1  0
 19 21  1  0
 21 22  2  0
 22 23  1  0
 23 24  2  0
 23 25  1  0
 25 26  1  0
 26 27  1  6
 26 29  1  0
 27 28  1  0
 29 30  1  6
 29 31  1  0
 29 32  1  0
M  END
