
     RDKit          3D

 33 36  0  0  0  0  0  0  0  0999 V2000
   -7.1830   -3.9500    1.3430 N   0  0  0  0  0  0  0  0  0  0  0  0
   -6.8300   -3.7400   -0.0100 C   0  0  0  0  0  0  0  0  0  0  0  0
   -7.1810   -4.5950   -0.8550 O   0  0  0  0  0  0  0  0  0  0  0  0
   -6.0790   -2.5600   -0.4050 C   0  0  0  0  0  0  0  0  0  0  0  0
   -5.6250   -1.5370    0.4020 C   0  0  0  0  0  0  0  0  0  0  0  0
   -4.9620   -0.6100   -0.3270 N   0  0  0  0  0  0  0  0  0  0  0  0
   -4.3380    0.6210    0.1910 C   0  0  1  0  0  0  0  0  0  0  0  0
   -5.4430    1.3040    1.0010 C   0  0  0  0  0  0  0  0  0  0  0  0
   -6.4860    1.5470    0.0950 O   0  0  0  0  0  0  0  0  0  0  0  0
   -3.1660    0.2720    1.0520 C   0  0  0  0  0  0  0  0  0  0  0  0
   -2.5260    1.5310    1.5810 C   0  0  0  0  0  0  0  0  0  0  0  0
   -2.0920    2.3170    0.4430 N   0  0  0  0  0  0  0  0  0  0  0  0
   -2.8010    3.2700   -0.2190 C   0  0  0  0  0  0  0  0  0  0  0  0
   -2.0030    3.7600   -1.2280 C   0  0  0  0  0  0  0  0  0  0  0  0
   -0.8020    3.0840   -1.1600 C   0  0  0  0  0  0  0  0  0  0  0  0
    0.3630    3.1300   -1.8830 C   0  0  0  0  0  0  0  0  0  0  0  0
    1.4390    2.2900   -1.5590 C   0  0  0  0  0  0  0  0  0  0  0  0
    1.3950    1.3900   -0.5230 C   0  0  0  0  0  0  0  0  0  0  0  0
    2.4300    0.5250   -0.1270 N   0  0  0  0  0  0  0  0  0  0  0  0
    3.7340    0.5750   -0.6240 C   0  0  0  0  0  0  0  0  0  0  0  0
    4.1210    1.3980   -1.4710 O   0  0  0  0  0  0  0  0  0  0  0  0
    4.7400   -0.4180   -0.1120 C   0  0  0  0  0  0  0  0  0  0  0  0
    6.0430   -0.1600   -0.7890 C   0  0  0  0  0  0  0  0  0  0  0  0
    7.1160   -1.0730   -0.3720 C   0  0  0  0  0  0  0  0  0  0  0  0
    7.9190   -0.7260    0.7060 C   0  0  0  0  0  0  0  0  0  0  0  0
    8.9200   -1.5980    1.0790 C   0  0  0  0  0  0  0  0  0  0  0  0
    9.1470   -2.7900    0.4230 C   0  0  0  0  0  0  0  0  0  0  0  0
    8.3290   -3.0990   -0.6440 C   0  0  0  0  0  0  0  0  0  0  0  0
    7.3140   -2.2620   -1.0560 C   0  0  0  0  0  0  0  0  0  0  0  0
    0.1780    1.3850    0.1830 C   0  0  0  0  0  0  0  0  0  0  0  0
   -0.8790    2.2000   -0.1240 C   0  0  0  0  0  0  0  0  0  0  0  0
   -5.0000   -1.0490   -1.5920 C   0  0  0  0  0  0  0  0  0  0  0  0
   -5.6650   -2.2130   -1.6450 N   0  0  0  0  0  0  0  0  0  0  0  0
  1  2  1  0
  2  3  2  0
  2  4  1  0
  4  5  2  0
  4 33  1  0
  5  6  1  0
  6  7  1  0
  6 32  1  0
  7  8  1  1
  7 10  1  0
  8  9  1  0
 10 11  1  0
 11 12  1  0
 12 13  1  0
 12 31  1  0
 13 14  2  0
 14 15  1  0
 15 16  2  0
 15 31  1  0
 16 17  1  0
 17 18  2  0
 18 19  1  0
 18 30  1  0
 19 20  1  0
 20 21  2  0
 20 22  1  0
 22 23  1  0
 23 24  1  0
 24 25  2  0
 24 29  1  0
 25 26  1  0
 26 27  2  0
 27 28  1  0
 28 29  2  0
 30 31  2  0
 32 33  2  0
M  END
