
     RDKit          3D

 32 37  0  0  0  0  0  0  0  0999 V2000
    4.9800    2.6440    0.7050 N   0  0  0  0  0  0  0  0  0  0  0  0
    5.9000    1.6450    0.3720 C   0  0  0  0  0  0  0  0  0  0  0  0
    7.2520    2.0470    0.3960 C   0  0  0  0  0  0  0  0  0  0  0  0
    8.2820    1.1920    0.0930 C   0  0  0  0  0  0  0  0  0  0  0  0
    8.0050   -0.0950   -0.2460 C   0  0  0  0  0  0  0  0  0  0  0  0
    6.6790   -0.5300   -0.2820 C   0  0  0  0  0  0  0  0  0  0  0  0
    6.4000   -1.8200   -0.6240 C   0  0  0  0  0  0  0  0  0  0  0  0
    5.1390   -2.3400   -0.6900 C   0  0  0  0  0  0  0  0  0  0  0  0
    4.1190   -1.4690   -0.3810 C   0  0  0  0  0  0  0  0  0  0  0  0
    2.8200   -1.9730   -0.4400 C   0  0  0  0  0  0  0  0  0  0  0  0
    1.7780   -1.1380   -0.1410 C   0  0  0  0  0  0  0  0  0  0  0  0
    0.4820   -1.5620   -0.1820 N   0  0  0  0  0  0  0  0  0  0  0  0
   -0.5400   -0.7440    0.1050 C   0  0  0  0  0  0  0  0  0  0  0  0
   -1.8860   -1.2140    0.0500 N   0  0  0  0  0  0  0  0  0  0  0  0
   -2.6110   -1.7060    1.2180 C   0  0  0  0  0  0  0  0  0  0  0  0
   -3.9170   -0.8790    1.2220 C   0  0  0  0  0  0  0  0  0  0  0  0
   -4.6540   -1.3330    0.0840 N   0  0  0  0  0  0  0  0  0  0  0  0
   -6.0330   -1.0130    0.0850 C   0  0  0  0  0  0  0  0  0  0  0  0
   -6.3380    0.4410   -0.0640 C   0  0  0  0  0  0  0  0  0  0  0  0
   -7.0120    0.9940   -1.0690 C   0  0  0  0  0  0  0  0  0  0  0  0
   -7.0910    2.4480   -0.8350 C   0  0  0  0  0  0  0  0  0  0  0  0
   -6.3820    2.6480    0.4470 C   0  0  0  0  0  0  0  0  0  0  0  0
   -5.9580    1.4650    0.8640 C   0  0  0  0  0  0  0  0  0  0  0  0
   -4.0330   -0.8600   -1.1110 C   0  0  0  0  0  0  0  0  0  0  0  0
   -2.5860   -1.2150   -1.2200 C   0  0  0  0  0  0  0  0  0  0  0  0
   -0.3250    0.5410    0.4510 N   0  0  0  0  0  0  0  0  0  0  0  0
    0.9460    1.0270    0.5110 C   0  0  0  0  0  0  0  0  0  0  0  0
    1.1550    2.2270    0.8340 O   0  0  0  0  0  0  0  0  0  0  0  0
    1.9640    0.1600    0.2100 C   0  0  0  0  0  0  0  0  0  0  0  0
    3.2760    0.6790    0.2720 C   0  0  0  0  0  0  0  0  0  0  0  0
    4.3200   -0.1400   -0.0240 C   0  0  0  0  0  0  0  0  0  0  0  0
    5.6310    0.3550    0.0310 C   0  0  0  0  0  0  0  0  0  0  0  0
  1  2  1  0
  2  3  2  0
  2 32  1  0
  3  4  1  0
  4  5  2  0
  5  6  1  0
  6  7  2  0
  6 32  1  0
  7  8  1  0
  8  9  2  0
  9 10  1  0
  9 31  1  0
 10 11  2  0
 11 12  1  0
 11 29  1  0
 12 13  1  0
 13 14  1  0
 13 26  2  0
 14 15  1  0
 14 25  1  0
 15 16  1  0
 16 17  1  0
 17 18  1  0
 17 24  1  0
 18 19  1  0
 19 20  2  0
 19 23  1  0
 20 21  1  0
 21 22  1  0
 22 23  2  0
 24 25  1  0
 26 27  1  0
 27 28  2  0
 27 29  1  0
 29 30  2  0
 30 31  1  0
 31 32  2  0
M  END
