
     RDKit          3D

 16 17  0  0  0  0  0  0  0  0999 V2000
    0.6710   -0.8680   -1.7620 C   0  0  0  0  0  0  0  0  0  0  0  0
    1.2700   -0.2000   -0.6120 N   0  0  0  0  0  0  0  0  0  0  0  0
    2.5900   -0.6690   -0.3510 C   0  0  0  0  0  0  0  0  0  0  0  0
    3.1890    0.0760    0.8100 C   0  0  0  0  0  0  0  0  0  0  0  0
    3.2210    1.4420    0.4920 O   0  0  0  0  0  0  0  0  0  0  0  0
    0.3640   -0.2190    0.5210 C   0  0  2  0  0  0  0  0  0  0  0  0
    0.0800   -1.5840    1.0090 C   0  0  0  0  0  0  0  0  0  0  0  0
   -1.5650   -1.4180    1.6920 S   0  0  1  0  0  0  0  0  0  0  0  0
   -2.3560   -2.6630    1.4190 O   0  0  0  0  0  0  0  0  0  0  0  0
   -1.5170   -1.0690    3.1350 O   0  0  0  0  0  0  0  0  0  0  0  0
   -2.0830   -0.0720    0.6920 C   0  0  0  0  0  0  0  0  0  0  0  0
   -3.2740    0.4390    0.4300 C   0  0  0  0  0  0  0  0  0  0  0  0
   -3.3890    1.5430   -0.4280 N   0  0  0  0  0  0  0  0  0  0  0  0
   -2.2570    2.0990   -1.1040 C   0  0  0  0  0  0  0  0  0  0  0  0
   -1.0080    1.4800   -0.7250 C   0  0  0  0  0  0  0  0  0  0  0  0
   -0.8850    0.4590    0.0970 C   0  0  0  0  0  0  0  0  0  0  0  0
  1  2  1  0
  2  3  1  0
  6  2  1  6
  3  4  1  0
  4  5  1  0
  6  7  1  0
  6 16  1  0
  8  7  1  6
  8  9  2  0
  8 10  2  0
  8 11  1  0
 11 12  2  0
 11 16  1  0
 12 13  1  0
 13 14  1  0
 14 15  1  0
 15 16  2  0
M  END
