
     RDKit          3D

 19 19  0  0  0  0  0  0  0  0999 V2000
   -3.2060    1.8410   -0.3430 C   0  0  0  0  0  0  0  0  0  0  0  0
   -3.5320    0.4160   -0.0160 C   0  0  0  0  0  0  0  0  0  0  0  0
   -4.8940   -0.1000   -0.2530 C   0  0  0  0  0  0  0  0  0  0  0  0
   -2.5880   -0.3590    0.4820 C   0  0  0  0  0  0  0  0  0  0  0  0
   -1.2150    0.1710    0.7170 C   0  0  0  0  0  0  0  0  0  0  0  0
   -0.2560   -0.5650   -0.1480 C   0  0  0  0  0  0  0  0  0  0  0  0
    1.1500   -0.1000    0.0230 C   0  0  0  0  0  0  0  0  0  0  0  0
    1.3560    0.8230    0.8460 O   0  0  0  0  0  0  0  0  0  0  0  0
    2.2240   -0.6230   -0.6660 O   0  0  0  0  0  0  0  0  0  0  0  0
    3.5400   -0.1290   -0.4510 C   0  0  0  0  0  0  0  0  0  0  0  0
    4.1080    0.8560   -1.1040 C   0  0  0  0  0  0  0  0  0  0  0  0
    5.4680    1.0670   -0.5910 C   0  0  0  0  0  0  0  0  0  0  0  0
    5.6140    0.0500    0.4680 C   0  0  0  0  0  0  0  0  0  0  0  0
    7.0370   -0.2230    1.4810 Cl  0  0  0  0  0  0  0  0  0  0  0  0
    4.4850   -0.6270    0.5280 C   0  0  0  0  0  0  0  0  0  0  0  0
    4.1360   -1.9670    1.6390 Cl  0  0  0  0  0  0  0  0  0  0  0  0
   -2.8600   -1.7380    0.8220 C   0  0  0  0  0  0  0  0  0  0  0  0
   -3.9690   -2.3100    0.6780 O   0  0  0  0  0  0  0  0  0  0  0  0
   -1.8510   -2.5320    1.3530 O   0  0  0  0  0  0  0  0  0  0  0  0
  1  2  1  0
  2  3  1  0
  2  4  2  3
  4  5  1  0
  4 17  1  0
  5  6  1  0
  6  7  1  0
  7  8  2  0
  7  9  1  0
  9 10  1  0
 10 11  2  0
 10 15  1  0
 11 12  1  0
 12 13  1  0
 13 14  1  0
 13 15  2  0
 15 16  1  0
 17 18  2  0
 17 19  1  0
M  END
