
     RDKit          3D

 16 16  0  0  0  0  0  0  0  0999 V2000
   -1.4730   -1.7510    1.2250 C   0  0  0  0  0  0  0  0  0  0  0  0
   -1.3720   -0.4710    1.0810 C   0  0  0  0  0  0  0  0  0  0  0  0
   -2.2530    0.3450    1.7500 N   0  0  0  0  0  0  0  0  0  0  0  0
   -2.2180    1.6670    1.6830 C   0  0  0  0  0  0  0  0  0  0  0  0
   -3.0630    2.3370    2.3280 O   0  0  0  0  0  0  0  0  0  0  0  0
   -1.2980    2.2520    0.9410 N   0  0  0  0  0  0  0  0  0  0  0  0
   -0.3930    1.4770    0.2520 C   0  0  0  0  0  0  0  0  0  0  0  0
    0.4250    2.1160   -0.4220 O   0  0  0  0  0  0  0  0  0  0  0  0
   -0.3750    0.1150    0.2800 C   0  0  0  0  0  0  0  0  0  0  0  0
    0.4060   -0.6410   -0.4210 C   0  0  0  0  0  0  0  0  0  0  0  0
    1.4850   -0.6230   -1.3090 C   0  0  0  0  0  0  0  0  0  0  0  0
    1.7510   -2.0520   -1.8200 N   0  0  0  0  0  0  0  0  0  0  0  0
    2.4100    0.1230   -1.7610 C   0  0  0  0  0  0  0  0  0  0  0  0
    3.5240   -0.6420   -3.0310 Cl  0  0  0  0  0  0  0  0  0  0  0  0
    2.8750    1.4380   -1.4700 C   0  0  0  0  0  0  0  0  0  0  0  0
    3.2790    2.5200   -1.2280 N   0  0  0  0  0  0  0  0  0  0  0  0
  1  2  2  0
  2  3  1  0
  2  9  1  0
  3  4  1  0
  4  5  2  0
  4  6  1  0
  6  7  1  0
  7  8  2  0
  7  9  1  0
  9 10  2  3
 10 11  1  0
 11 12  1  0
 11 13  2  3
 13 14  1  0
 13 15  1  0
 15 16  3  0
M  END
