
     RDKit          3D

 16 17  0  0  0  0  0  0  0  0999 V2000
    2.2670   -1.8920    1.0420 N   0  0  0  0  0  0  0  0  0  0  0  0
    2.2810   -0.6070    0.4030 C   0  0  0  0  0  0  0  0  0  0  0  0
    3.3190    0.1970    0.3750 C   0  0  0  0  0  0  0  0  0  0  0  0
    2.9510    1.4290   -0.3830 C   0  0  0  0  0  0  0  0  0  0  0  0
    1.4120    1.3620   -0.3600 C   0  0  0  0  0  0  0  0  0  0  0  0
    1.1410   -0.0570   -0.2790 N   0  0  0  0  0  0  0  0  0  0  0  0
    0.0250   -0.7890   -0.7250 C   0  0  0  0  0  0  0  0  0  0  0  0
   -1.3090   -0.3430   -0.3060 C   0  0  0  0  0  0  0  0  0  0  0  0
   -2.2780   -0.1670   -1.2540 N   0  0  0  0  0  0  0  0  0  0  0  0
   -3.5430    0.1230   -0.9950 C   0  0  0  0  0  0  0  0  0  0  0  0
   -4.4480    0.2770   -1.8930 O   0  0  0  0  0  0  0  0  0  0  0  0
   -3.9120    0.2670    0.2940 N   0  0  0  0  0  0  0  0  0  0  0  0
   -3.0070    0.1150    1.2690 C   0  0  0  0  0  0  0  0  0  0  0  0
   -3.4190    0.2600    2.4640 O   0  0  0  0  0  0  0  0  0  0  0  0
   -1.6940   -0.1930    0.9890 C   0  0  0  0  0  0  0  0  0  0  0  0
   -0.4980   -0.3670    2.2530 Cl  0  0  0  0  0  0  0  0  0  0  0  0
  1  2  1  0
  2  3  2  0
  2  6  1  0
  3  4  1  0
  4  5  1  0
  5  6  1  0
  6  7  1  0
  7  8  1  0
  8  9  1  0
  8 15  2  0
  9 10  1  0
 10 11  2  0
 10 12  1  0
 12 13  1  0
 13 14  2  0
 13 15  1  0
 15 16  1  0
M  END
