
     RDKit          3D

 16 17  0  0  0  0  0  0  0  0999 V2000
   -2.8060    1.5640    0.0380 N   0  0  0  0  0  0  0  0  0  0  0  0
   -1.7280    0.7200   -0.3040 C   0  0  0  0  0  0  0  0  0  0  0  0
   -1.6280   -0.4310    0.3490 C   0  0  0  0  0  0  0  0  0  0  0  0
   -2.6130   -0.8240    1.4020 C   0  0  0  0  0  0  0  0  0  0  0  0
   -3.4330   -2.3500    0.9560 Cl  0  0  0  0  0  0  0  0  0  0  0  0
   -0.5150   -1.3270    0.0130 C   0  0  0  0  0  0  0  0  0  0  0  0
    0.7290   -0.5000   -0.2130 C   0  0  2  0  0  0  0  0  0  0  0  0
    0.5410    0.5150   -1.3120 C   0  0  0  0  0  0  0  0  0  0  0  0
   -0.7910    1.1530   -1.3440 C   0  0  0  0  0  0  0  0  0  0  0  0
    1.8520   -1.3320   -0.6100 N   0  0  0  0  0  0  0  0  0  0  0  0
    3.1430   -0.7330   -0.5910 C   0  0  0  0  0  0  0  0  0  0  0  0
    4.0750   -1.1410   -1.3630 O   0  0  0  0  0  0  0  0  0  0  0  0
    3.4530    0.3440    0.2880 N   0  0  0  0  0  0  0  0  0  0  0  0
    2.3900    0.7660    1.1290 N   0  0  0  0  0  0  0  0  0  0  0  0
    1.1170    0.1360    1.0720 C   0  0  0  0  0  0  0  0  0  0  0  0
    0.3680    0.1280    2.0800 O   0  0  0  0  0  0  0  0  0  0  0  0
  1  2  1  0
  2  3  2  0
  2  9  1  0
  3  4  1  0
  3  6  1  0
  4  5  1  0
  7  6  1  1
  7  8  1  0
  7 10  1  0
  7 15  1  0
  8  9  1  0
 10 11  1  0
 11 12  2  0
 11 13  1  0
 13 14  1  0
 14 15  1  0
 15 16  2  0
M  END
