
     RDKit          3D

 21 22  0  0  0  0  0  0  0  0999 V2000
    0.6690   -3.5810    1.3920 C   0  0  0  0  0  0  0  0  0  0  0  0
    1.7870   -3.0670    0.9570 C   0  0  0  0  0  0  0  0  0  0  0  0
    1.7900   -1.9710   -0.0030 C   0  0  0  0  0  0  0  0  0  0  0  0
    2.9640   -1.4990   -0.4220 C   0  0  0  0  0  0  0  0  0  0  0  0
    3.1960   -0.4390   -1.3530 C   0  0  0  0  0  0  0  0  0  0  0  0
    2.8060    0.7940   -1.2820 C   0  0  0  0  0  0  0  0  0  0  0  0
    3.5980    1.6990   -0.7710 C   0  0  0  0  0  0  0  0  0  0  0  0
    3.8760    1.7250    0.6960 C   0  0  0  0  0  0  0  0  0  0  0  0
    3.0580    2.6600    1.2610 O   0  0  0  0  0  0  0  0  0  0  0  0
    1.7190    2.5140    0.9600 C   0  0  0  0  0  0  0  0  0  0  0  0
    1.1430    1.1850    1.3670 C   0  0  0  0  0  0  0  0  0  0  0  0
    0.0610    0.8080    0.5200 N   0  0  0  0  0  0  0  0  0  0  0  0
   -0.2520   -0.6060    0.5090 C   0  0  1  0  0  0  0  0  0  0  0  0
   -1.7650   -0.7520    0.2360 C   0  0  2  0  0  0  0  0  0  0  0  0
   -2.1260   -0.2490   -1.1100 C   0  0  0  0  0  0  0  0  0  0  0  0
   -3.0380    0.8210   -1.1900 N   0  0  0  0  0  0  0  0  0  0  0  0
   -3.8140    0.8560   -2.4130 C   0  0  0  0  0  0  0  0  0  0  0  0
   -3.8390    1.1220   -0.0640 C   0  0  0  0  0  0  0  0  0  0  0  0
   -3.7540   -0.0170    0.9290 C   0  0  0  0  0  0  0  0  0  0  0  0
   -2.3870   -0.0840    1.2850 O   0  0  0  0  0  0  0  0  0  0  0  0
    0.5000   -1.4330   -0.4620 C   0  0  0  0  0  0  0  0  0  0  0  0
  1  2  2  0
  2  3  1  0
  3  4  2  0
  3 21  1  0
  4  5  1  0
  5  6  2  0
  6  7  2  0
  7  8  1  0
  8  9  1  0
  9 10  1  0
 10 11  1  0
 11 12  1  0
 12 13  1  0
 13 14  1  0
 13 21  1  6
 14 15  1  6
 14 20  1  0
 15 16  1  0
 16 17  1  0
 16 18  1  0
 18 19  1  0
 19 20  1  0
M  CHG  1  12   1
M  END
