
     RDKit          3D

 37 40  0  0  0  0  0  0  0  0999 V2000
    9.5230    1.5110   -1.6780 C   0  0  0  0  0  0  0  0  0  0  0  0
    9.4830    0.9240   -0.4240 O   0  0  0  0  0  0  0  0  0  0  0  0
    8.5980    0.0070    0.0670 C   0  0  0  0  0  0  0  0  0  0  0  0
    7.5670   -0.4660   -0.7490 C   0  0  0  0  0  0  0  0  0  0  0  0
    6.6870   -1.3990   -0.2500 C   0  0  0  0  0  0  0  0  0  0  0  0
    5.5370   -1.8400   -1.1090 C   0  0  0  0  0  0  0  0  0  0  0  0
    4.3020   -1.3640   -0.4660 N   0  0  0  0  0  0  0  0  0  0  0  0
    3.9350   -0.0330   -0.5500 C   0  0  0  0  0  0  0  0  0  0  0  0
    4.7510    0.7410   -1.2270 O   0  0  0  0  0  0  0  0  0  0  0  0
    2.7990    0.5890    0.0030 N   0  0  0  0  0  0  0  0  0  0  0  0
    2.6460    2.0230   -0.0820 C   0  0  0  0  0  0  0  0  0  0  0  0
    2.0050    2.4800    1.2100 C   0  0  0  0  0  0  0  0  0  0  0  0
    2.5180    3.3810    1.8870 O   0  0  0  0  0  0  0  0  0  0  0  0
    0.7630    1.7820    1.5750 C   0  0  0  0  0  0  0  0  0  0  0  0
    0.6460    0.5070    1.2390 C   0  0  0  0  0  0  0  0  0  0  0  0
   -0.6470   -0.1540    1.6220 C   0  0  0  0  0  0  0  0  0  0  0  0
   -1.5260   -0.5130    0.5910 N   0  0  0  0  0  0  0  0  0  0  0  0
   -1.1490   -1.5240   -0.3250 C   0  0  0  0  0  0  0  0  0  0  0  0
   -0.6760   -0.8330   -1.5960 C   0  0  0  0  0  0  0  0  0  0  0  0
   -0.9940    0.6330   -1.3490 C   0  0  0  0  0  0  0  0  0  0  0  0
   -2.0490    0.5730   -0.2020 C   0  0  1  0  0  0  0  0  0  0  0  0
   -3.2870    0.4190   -0.8490 N   0  0  0  0  0  0  0  0  0  0  0  0
   -4.6380    0.4100   -0.4630 C   0  0  0  0  0  0  0  0  0  0  0  0
   -5.4190    1.5850   -0.5520 C   0  0  0  0  0  0  0  0  0  0  0  0
   -6.7680    1.5590   -0.3290 C   0  0  0  0  0  0  0  0  0  0  0  0
   -7.4840    0.3850    0.0030 C   0  0  0  0  0  0  0  0  0  0  0  0
   -8.8970    0.4450    0.3580 C   0  0  1  0  0  0  0  0  0  0  0  0
   -9.8230    0.5520   -0.8370 C   0  0  0  0  0  0  0  0  0  0  0  0
   -9.3970   -0.1430    1.5430 N   0  0  0  0  0  0  0  0  0  0  0  0
   -6.7300   -0.7320    0.0920 C   0  0  0  0  0  0  0  0  0  0  0  0
   -7.3360   -2.0680    0.2830 C   0  0  0  0  0  0  0  0  0  0  0  0
   -5.3450   -0.7240   -0.1330 C   0  0  0  0  0  0  0  0  0  0  0  0
    1.7960   -0.2090    0.6520 C   0  0  0  0  0  0  0  0  0  0  0  0
    6.7960   -1.8830    1.0310 C   0  0  0  0  0  0  0  0  0  0  0  0
    7.8180   -1.3980    1.8010 C   0  0  0  0  0  0  0  0  0  0  0  0
    8.7050   -0.4760    1.3540 C   0  0  0  0  0  0  0  0  0  0  0  0
    9.7290   -0.0180    2.2220 N   0  0  0  0  0  0  0  0  0  0  0  0
  1  2  1  0
  2  3  1  0
  3  4  2  0
  3 36  1  0
  4  5  1  0
  5  6  1  0
  5 34  2  0
  6  7  1  0
  7  8  1  0
  8  9  2  0
  8 10  1  0
 10 11  1  0
 10 33  1  0
 11 12  1  0
 12 13  2  0
 12 14  1  0
 14 15  2  0
 15 16  1  0
 15 33  1  0
 16 17  1  0
 17 18  1  0
 17 21  1  0
 18 19  1  0
 19 20  1  0
 20 21  1  0
 21 22  1  6
 22 23  1  0
 23 24  2  0
 23 32  1  0
 24 25  1  0
 25 26  2  0
 26 27  1  0
 26 30  1  0
 27 28  1  6
 27 29  1  0
 30 31  1  0
 30 32  2  0
 34 35  1  0
 35 36  2  0
 36 37  1  0
M  CHG  1  29   1
M  END
