
     RDKit          3D

 17 18  0  0  0  0  0  0  0  0999 V2000
   -3.7140   -0.1290    0.8870 N   0  0  0  0  0  0  0  0  0  0  0  0
   -2.6610   -0.4580   -0.0870 C   0  0  1  0  0  0  0  0  0  0  0  0
   -2.9430    0.3360   -1.3550 C   0  0  0  0  0  0  0  0  0  0  0  0
   -2.8580    1.7450   -0.9900 N   0  0  0  0  0  0  0  0  0  0  0  0
   -1.4020   -0.0030    0.5190 C   0  0  0  0  0  0  0  0  0  0  0  0
   -0.4540   -0.8570    0.8220 C   0  0  0  0  0  0  0  0  0  0  0  0
    0.7220   -0.3840    1.3940 O   0  0  0  0  0  0  0  0  0  0  0  0
    1.9920   -0.6600    0.8760 C   0  0  0  0  0  0  0  0  0  0  0  0
    2.0490   -0.1120   -0.5360 C   0  0  1  0  0  0  0  0  0  0  0  0
    2.0180    1.3990   -0.5040 C   0  0  0  0  0  0  0  0  0  0  0  0
    3.4320    1.7290   -0.0900 C   0  0  0  0  0  0  0  0  0  0  0  0
    4.1770    0.4620   -0.3990 C   0  0  0  0  0  0  0  0  0  0  0  0
    3.2970   -0.3630   -1.0970 O   0  0  0  0  0  0  0  0  0  0  0  0
   -0.5620   -2.2940    0.5900 C   0  0  0  0  0  0  0  0  0  0  0  0
    0.4580   -3.1700    0.9210 O   0  0  0  0  0  0  0  0  0  0  0  0
   -1.7030   -2.6850    0.0430 C   0  0  0  0  0  0  0  0  0  0  0  0
   -2.7090   -1.8160   -0.2830 O   0  0  0  0  0  0  0  0  0  0  0  0
  2  1  1  1
  2  3  1  0
  2  5  1  0
  2 17  1  0
  3  4  1  0
  5  6  2  0
  6  7  1  0
  6 14  1  0
  7  8  1  0
  9  8  1  1
  9 10  1  0
  9 13  1  0
 10 11  1  0
 11 12  1  0
 12 13  1  0
 14 15  1  0
 14 16  2  0
 16 17  1  0
M  CHG  1   4   1
M  END
