
     RDKit          3D

 19 21  0  0  0  0  0  0  0  0999 V2000
   -3.6050    0.5640   -1.6730 C   0  0  0  0  0  0  0  0  0  0  0  0
   -2.5860   -0.1420   -1.2990 C   0  0  0  0  0  0  0  0  0  0  0  0
   -2.0220   -1.2700   -1.8710 N   0  0  0  0  0  0  0  0  0  0  0  0
   -0.9670   -1.6760   -1.1410 C   0  0  0  0  0  0  0  0  0  0  0  0
    0.0090   -2.6660   -1.1140 C   0  0  0  0  0  0  0  0  0  0  0  0
    0.9340   -2.6490   -0.0810 C   0  0  0  0  0  0  0  0  0  0  0  0
    0.9310   -1.6770    0.9440 C   0  0  0  0  0  0  0  0  0  0  0  0
    1.8350   -1.6240    2.0020 N   0  0  0  0  0  0  0  0  0  0  0  0
    2.4050   -0.5240    2.3200 C   0  0  0  0  0  0  0  0  0  0  0  0
    2.2560    0.7390    1.7290 N   0  0  0  0  0  0  0  0  0  0  0  0
    2.5500    0.9090    0.4990 C   0  0  0  0  0  0  0  0  0  0  0  0
    2.4050    2.1990   -0.1280 N   0  0  0  0  0  0  0  0  0  0  0  0
    3.0410   -0.1510   -0.3210 N   0  0  0  0  0  0  0  0  0  0  0  0
   -0.0540   -0.6830    0.9120 C   0  0  0  0  0  0  0  0  0  0  0  0
   -0.4600    0.3710    1.5800 O   0  0  0  0  0  0  0  0  0  0  0  0
   -1.5390    0.9200    0.9750 C   0  0  0  0  0  0  0  0  0  0  0  0
   -2.3010    2.1030    1.3880 C   0  0  0  0  0  0  0  0  0  0  0  0
   -1.8570    0.1830   -0.1540 C   0  0  0  0  0  0  0  0  0  0  0  0
   -0.9090   -0.7840   -0.1350 C   0  0  0  0  0  0  0  0  0  0  0  0
  1  2  2  0
  2  3  1  0
  2 18  1  0
  3  4  1  0
  4  5  2  0
  4 19  1  0
  5  6  1  0
  6  7  2  0
  7  8  1  0
  7 14  1  0
  8  9  2  3
  9 10  1  0
 10 11  2  3
 11 12  1  0
 11 13  1  0
 14 15  1  0
 14 19  2  0
 15 16  1  0
 16 17  1  0
 16 18  2  0
 18 19  1  0
M  CHG  1  10   1
M  END
