
     RDKit          3D

 22 23  0  0  0  0  0  0  0  0999 V2000
    4.5760   -0.5500   -1.7790 C   0  0  0  0  0  0  0  0  0  0  0  0
    5.1340    0.1230   -0.5730 C   0  0  0  0  0  0  0  0  0  0  0  0
    4.2740    0.1460    0.5800 N   0  0  0  0  0  0  0  0  0  0  0  0
    2.9110    0.7210    0.4990 C   0  0  0  0  0  0  0  0  0  0  0  0
    2.8320    2.0480    0.5840 C   0  0  0  0  0  0  0  0  0  0  0  0
    3.8260    3.1200    0.7620 C   0  0  0  0  0  0  0  0  0  0  0  0
    1.0860    2.4190    0.4320 S   0  0  0  0  0  0  0  0  0  0  0  0
    0.5970    0.5460    0.2430 C   0  0  0  0  0  0  0  0  0  0  0  0
   -0.7650    0.3700    0.0930 N   0  0  0  0  0  0  0  0  0  0  0  0
   -1.5520   -0.4960   -0.6740 C   0  0  0  0  0  0  0  0  0  0  0  0
   -1.0310   -1.2990   -1.4570 O   0  0  0  0  0  0  0  0  0  0  0  0
   -3.0330   -0.4980   -0.5900 C   0  0  0  0  0  0  0  0  0  0  0  0
   -3.6490    0.3060    0.2010 N   0  0  0  0  0  0  0  0  0  0  0  0
   -5.0270    0.3890    0.3580 N   0  0  0  0  0  0  0  0  0  0  0  0
   -5.6600    1.3290    1.2760 C   0  0  0  0  0  0  0  0  0  0  0  0
   -5.8610   -0.4890   -0.4170 C   0  0  0  0  0  0  0  0  0  0  0  0
   -5.1330   -1.3910   -1.3050 C   0  0  0  0  0  0  0  0  0  0  0  0
   -3.8200   -1.4120   -1.4020 C   0  0  0  0  0  0  0  0  0  0  0  0
    1.7790   -0.0380    0.3330 C   0  0  0  0  0  0  0  0  0  0  0  0
    1.9170   -1.5250    0.4410 C   0  0  0  0  0  0  0  0  0  0  0  0
    0.8400   -2.5010    0.4560 C   0  0  0  0  0  0  0  0  0  0  0  0
    3.0830   -2.0600    0.5480 O   0  0  0  0  0  0  0  0  0  0  0  0
  1  2  1  0
  2  3  1  0
  3  4  1  0
  4  5  2  0
  4 19  1  0
  5  6  1  0
  5  7  1  0
  7  8  1  0
  8  9  1  0
  8 19  2  0
  9 10  1  0
 10 11  2  0
 10 12  1  0
 12 13  2  0
 12 18  1  0
 13 14  1  0
 14 15  1  0
 14 16  1  0
 16 17  1  0
 17 18  2  0
 19 20  1  0
 20 21  1  0
 20 22  2  0
M  END
