
     RDKit          3D

 27 28  0  0  0  0  0  0  0  0999 V2000
   -6.5220    0.3210    0.5920 C   0  0  0  0  0  0  0  0  0  0  0  0
   -5.0320    0.2450    0.4900 C   0  0  0  0  0  0  0  0  0  0  0  0
   -4.2970    1.3230    0.5220 C   0  0  0  0  0  0  0  0  0  0  0  0
   -4.9610    2.6580    0.6720 C   0  0  1  0  0  0  0  0  0  0  0  0
   -6.2750    2.6300    0.9230 F   0  0  0  0  0  0  0  0  0  0  0  0
   -4.2670    3.4590    1.5680 F   0  0  0  0  0  0  0  0  0  0  0  0
   -2.8630    1.3270    0.3330 N   0  0  0  0  0  0  0  0  0  0  0  0
   -2.2750    0.2170    0.1080 C   0  0  0  0  0  0  0  0  0  0  0  0
   -0.5130    0.0490   -0.1370 S   0  0  0  0  0  0  0  0  0  0  0  0
    0.0010   -1.5750   -0.5700 C   0  0  0  0  0  0  0  0  0  0  0  0
   -0.7480   -2.6600   -0.7510 N   0  0  0  0  0  0  0  0  0  0  0  0
    0.0270   -3.6850   -1.1140 N   0  0  0  0  0  0  0  0  0  0  0  0
    1.3030   -3.2690   -1.1740 C   0  0  0  0  0  0  0  0  0  0  0  0
    1.2980   -1.9350   -0.8290 C   0  0  0  0  0  0  0  0  0  0  0  0
    2.5510   -1.1670   -0.7170 C   0  0  0  0  0  0  0  0  0  0  0  0
    3.2240   -0.9910   -1.7420 O   0  0  0  0  0  0  0  0  0  0  0  0
    2.9230   -0.6780    0.5610 N   0  0  0  0  0  0  0  0  0  0  0  0
    4.0900    0.0690    0.8060 C   0  0  0  0  0  0  0  0  0  0  0  0
    4.3590    0.5260    2.3760 S   0  0  0  0  0  0  0  0  0  0  0  0
    5.0230    0.5140   -0.1430 N   0  0  0  0  0  0  0  0  0  0  0  0
    6.2040    1.2640    0.2670 C   0  0  0  0  0  0  0  0  0  0  0  0
    6.9850    1.7790   -0.9270 C   0  0  2  0  0  0  0  0  0  0  0  0
    6.1630    2.6220   -1.6760 F   0  0  0  0  0  0  0  0  0  0  0  0
    7.3190    0.7270   -1.7500 F   0  0  0  0  0  0  0  0  0  0  0  0
    8.1180    2.4250   -0.5110 F   0  0  0  0  0  0  0  0  0  0  0  0
   -3.0330   -0.9550    0.0310 O   0  0  0  0  0  0  0  0  0  0  0  0
   -4.3630   -1.0970    0.4090 C   0  0  0  0  0  0  0  0  0  0  0  0
  1  2  1  0
  2  3  2  0
  2 27  1  0
  3  4  1  0
  3  7  1  0
  4  5  1  1
  4  6  1  0
  7  8  2  0
  8  9  1  0
  8 26  1  0
  9 10  1  0
 10 11  1  0
 10 14  2  0
 11 12  1  0
 12 13  2  0
 13 14  1  0
 14 15  1  0
 15 16  2  0
 15 17  1  0
 17 18  1  0
 18 19  2  0
 18 20  1  0
 20 21  1  0
 21 22  1  0
 22 23  1  6
 22 24  1  0
 22 25  1  0
 26 27  1  0
M  END
