
     RDKit          3D

 28 29  0  0  0  0  0  0  0  0999 V2000
    0.7500    0.5770    2.3910 C   0  0  0  0  0  0  0  0  0  0  0  0
    0.0000   -0.2580    1.4170 C   0  0  0  0  0  0  0  0  0  0  0  0
   -1.2970   -0.3800    1.2640 O   0  0  0  0  0  0  0  0  0  0  0  0
   -1.5680   -1.2070    0.3020 C   0  0  0  0  0  0  0  0  0  0  0  0
   -2.9320   -1.6090   -0.1760 C   0  0  0  0  0  0  0  0  0  0  0  0
   -3.3070   -0.6740   -1.2130 N   0  0  0  0  0  0  0  0  0  0  0  0
   -4.7200   -0.5170   -1.3680 C   0  0  0  0  0  0  0  0  0  0  0  0
   -5.2040    0.8540   -1.0020 C   0  0  2  0  0  0  0  0  0  0  0  0
   -4.9010    1.2050    0.4390 C   0  0  0  0  0  0  0  0  0  0  0  0
   -5.5070    0.3090    1.3690 N   0  0  0  0  0  0  0  0  0  0  0  0
   -6.7010    0.9730   -1.1940 C   0  0  0  0  0  0  0  0  0  0  0  0
   -7.1320    2.3050   -0.8320 N   0  0  0  0  0  0  0  0  0  0  0  0
   -0.3910   -1.6620   -0.2150 C   0  0  0  0  0  0  0  0  0  0  0  0
    0.6220   -1.0660    0.4850 C   0  0  0  0  0  0  0  0  0  0  0  0
    2.0340   -1.2770    0.2520 C   0  0  0  0  0  0  0  0  0  0  0  0
    2.4900   -2.1480   -0.7550 N   0  0  0  0  0  0  0  0  0  0  0  0
    2.8590   -0.6290    1.0100 N   0  0  0  0  0  0  0  0  0  0  0  0
    4.2570   -0.7650    0.8640 C   0  0  0  0  0  0  0  0  0  0  0  0
    4.9310    0.2530    0.1750 C   0  0  0  0  0  0  0  0  0  0  0  0
    6.2840    0.1680    0.0050 C   0  0  0  0  0  0  0  0  0  0  0  0
    7.0370    1.1420   -0.6850 N   0  0  0  0  0  0  0  0  0  0  0  0
    6.5210    2.2230   -1.4280 C   0  0  0  0  0  0  0  0  0  0  0  0
    7.4010    3.1630   -2.0920 N   0  0  0  0  0  0  0  0  0  0  0  0
    5.3120    2.4310   -1.5560 O   0  0  0  0  0  0  0  0  0  0  0  0
    6.9610   -0.9350    0.5260 C   0  0  0  0  0  0  0  0  0  0  0  0
    6.2670   -1.9110    1.1940 C   0  0  0  0  0  0  0  0  0  0  0  0
    4.9110   -1.8460    1.3750 C   0  0  0  0  0  0  0  0  0  0  0  0
    4.2350   -2.8550    2.0590 O   0  0  0  0  0  0  0  0  0  0  0  0
  1  2  1  0
  2  3  1  0
  2 14  2  0
  3  4  1  0
  4  5  1  0
  4 13  2  0
  5  6  1  0
  6  7  1  0
  8  7  1  1
  8  9  1  0
  8 11  1  0
  9 10  1  0
 11 12  1  0
 13 14  1  0
 14 15  1  0
 15 16  1  0
 15 17  2  3
 17 18  1  0
 18 19  2  0
 18 27  1  0
 19 20  1  0
 20 21  1  0
 20 25  2  0
 21 22  1  0
 22 23  1  0
 22 24  2  0
 25 26  1  0
 26 27  2  0
 27 28  1  0
M  CHG  2   6   1  12   1
M  END
