
     RDKit          3D

 28 29  0  0  0  0  0  0  0  0999 V2000
   -9.2740    0.1980    0.8180 C   0  0  0  0  0  0  0  0  0  0  0  0
   -7.9720   -0.4430    0.3780 C   0  0  0  0  0  0  0  0  0  0  0  0
   -6.8580    0.3060    1.0760 C   0  0  2  0  0  0  0  0  0  0  0  0
   -6.8810    1.7040    0.7040 N   0  0  0  0  0  0  0  0  0  0  0  0
   -5.5250   -0.3080    0.8390 C   0  0  0  0  0  0  0  0  0  0  0  0
   -4.9750   -1.1310    1.7980 C   0  0  0  0  0  0  0  0  0  0  0  0
   -3.7310   -1.7150    1.5950 C   0  0  0  0  0  0  0  0  0  0  0  0
   -3.0290   -1.4710    0.4140 C   0  0  0  0  0  0  0  0  0  0  0  0
   -3.5470   -0.6570   -0.5570 C   0  0  0  0  0  0  0  0  0  0  0  0
   -2.8490   -0.3630   -1.7430 N   0  0  0  0  0  0  0  0  0  0  0  0
   -1.4640   -0.1620   -1.8700 C   0  0  0  0  0  0  0  0  0  0  0  0
   -0.5500   -0.1130   -0.9090 N   0  0  0  0  0  0  0  0  0  0  0  0
    0.6780    0.0670   -1.4400 C   0  0  0  0  0  0  0  0  0  0  0  0
    1.9060    0.1620   -0.6930 C   0  0  0  0  0  0  0  0  0  0  0  0
    1.9460    0.0810    0.5760 O   0  0  0  0  0  0  0  0  0  0  0  0
    3.1800    0.3540   -1.3160 N   0  0  0  0  0  0  0  0  0  0  0  0
    4.3650    0.4380   -0.5400 N   0  0  0  0  0  0  0  0  0  0  0  0
    5.4720   -0.4390   -0.7580 C   0  0  0  0  0  0  0  0  0  0  0  0
    5.2550   -1.2800   -1.7080 O   0  0  0  0  0  0  0  0  0  0  0  0
    6.7310   -0.4270   -0.0120 C   0  0  1  0  0  0  0  0  0  0  0  0
    7.4340   -1.6000   -0.5170 O   0  0  0  0  0  0  0  0  0  0  0  0
    7.6750    0.6740   -0.3120 C   0  0  0  0  0  0  0  0  0  0  0  0
    7.2860    2.0710   -0.1140 C   0  0  0  0  0  0  0  0  0  0  0  0
    6.5050   -0.7690    1.4160 C   0  0  0  0  0  0  0  0  0  0  0  0
    5.8170    0.1820    2.2180 N   0  0  0  0  0  0  0  0  0  0  0  0
    0.4880    0.1310   -2.7880 C   0  0  0  0  0  0  0  0  0  0  0  0
   -0.8250   -0.0080   -3.0780 N   0  0  0  0  0  0  0  0  0  0  0  0
   -4.8040   -0.0920   -0.3060 C   0  0  0  0  0  0  0  0  0  0  0  0
  1  2  1  0
  2  3  1  0
  3  4  1  6
  3  5  1  0
  5  6  2  0
  5 28  1  0
  6  7  1  0
  7  8  2  0
  8  9  1  0
  9 10  1  0
  9 28  2  0
 10 11  1  0
 11 12  1  0
 11 27  2  0
 12 13  1  0
 13 14  1  0
 13 26  2  0
 14 15  2  0
 14 16  1  0
 16 17  1  0
 17 18  1  0
 18 19  2  0
 18 20  1  0
 20 21  1  6
 20 22  1  0
 20 24  1  0
 22 23  1  0
 24 25  1  0
 26 27  1  0
M  CHG  2  25   1  27   1
M  END
