
     RDKit          3D

 27 28  0  0  0  0  0  0  0  0999 V2000
   -5.1480   -0.3170    1.5330 C   0  0  0  0  0  0  0  0  0  0  0  0
   -5.0560   -1.5770    0.8120 N   0  0  0  0  0  0  0  0  0  0  0  0
   -4.0040   -1.5990   -0.1690 C   0  0  0  0  0  0  0  0  0  0  0  0
   -2.8560   -0.7300    0.0340 C   0  0  0  0  0  0  0  0  0  0  0  0
   -2.8670    0.5260   -0.5710 C   0  0  0  0  0  0  0  0  0  0  0  0
   -3.9100    0.9350   -1.4760 N   0  0  0  0  0  0  0  0  0  0  0  0
   -4.7770    2.0010   -1.2230 C   0  0  0  0  0  0  0  0  0  0  0  0
   -3.9100    0.1710   -2.7280 C   0  0  0  0  0  0  0  0  0  0  0  0
   -1.8180    1.3550   -0.5480 N   0  0  0  0  0  0  0  0  0  0  0  0
   -0.7070    0.9790    0.0440 C   0  0  0  0  0  0  0  0  0  0  0  0
    0.2660    1.7880    0.0500 O   0  0  0  0  0  0  0  0  0  0  0  0
   -0.5980   -0.2730    0.6580 C   0  0  0  0  0  0  0  0  0  0  0  0
    0.8100   -0.7420    0.9180 C   0  0  0  0  0  0  0  0  0  0  0  0
    1.6650    0.0120    0.5080 N   0  0  0  0  0  0  0  0  0  0  0  0
    2.9020    0.4410    0.2770 C   0  0  0  0  0  0  0  0  0  0  0  0
    3.3550    1.6350    0.7660 C   0  0  0  0  0  0  0  0  0  0  0  0
    4.6080    2.1100    0.6290 C   0  0  0  0  0  0  0  0  0  0  0  0
    5.5580    1.3190   -0.0650 C   0  0  0  0  0  0  0  0  0  0  0  0
    6.8850    1.8320   -0.2840 C   0  0  0  0  0  0  0  0  0  0  0  0
    7.1150    3.1840    0.1770 N   0  0  0  0  0  0  0  0  0  0  0  0
    7.8170    1.1900   -0.8400 O   0  0  0  0  0  0  0  0  0  0  0  0
    5.1330    0.1290   -0.5620 C   0  0  0  0  0  0  0  0  0  0  0  0
    3.8330   -0.3270   -0.4150 C   0  0  0  0  0  0  0  0  0  0  0  0
    3.3600   -1.5130   -1.1920 C   0  0  0  0  0  0  0  0  0  0  0  0
    3.9810   -2.7020   -0.6480 N   0  0  0  0  0  0  0  0  0  0  0  0
   -1.6840   -1.1110    0.6550 C   0  0  0  0  0  0  0  0  0  0  0  0
   -1.4730   -2.4160    1.2250 N   0  0  0  0  0  0  0  0  0  0  0  0
  1  2  1  0
  2  3  1  0
  3  4  1  0
  4  5  2  0
  4 26  1  0
  5  6  1  0
  5  9  1  0
  6  7  1  0
  6  8  1  0
  9 10  1  0
 10 11  2  0
 10 12  1  0
 12 13  1  0
 12 26  2  0
 13 14  2  3
 14 15  1  0
 15 16  2  0
 15 23  1  0
 16 17  1  0
 17 18  2  0
 18 19  1  0
 18 22  1  0
 19 20  1  0
 19 21  2  0
 22 23  2  0
 23 24  1  0
 24 25  1  0
 26 27  1  0
M  CHG  2   2   1  25   1
M  END
