
     RDKit          3D

 14 16  0  0  0  0  0  0  0  0999 V2000
   -3.0580    1.0990   -0.0060 C   0  0  0  0  0  0  0  0  0  0  0  0
   -1.7320    1.0450    0.1140 C   0  0  0  0  0  0  0  0  0  0  0  0
   -1.2180   -0.2930   -0.0310 C   0  0  0  0  0  0  0  0  0  0  0  0
    0.1430   -0.8040    0.0260 C   0  0  0  0  0  0  0  0  0  0  0  0
    0.4960   -2.1180   -0.1310 N   0  0  0  0  0  0  0  0  0  0  0  0
    1.7750   -2.2600   -0.0280 O   0  0  0  0  0  0  0  0  0  0  0  0
    2.3590   -1.1130    0.1950 C   0  0  0  0  0  0  0  0  0  0  0  0
    3.6890   -0.8020    0.3680 C   0  0  0  0  0  0  0  0  0  0  0  0
    3.9670    0.4950    0.5830 N   0  0  0  0  0  0  0  0  0  0  0  0
    3.0510    1.4510    0.6340 C   0  0  0  0  0  0  0  0  0  0  0  0
    1.7140    1.1280    0.4580 C   0  0  0  0  0  0  0  0  0  0  0  0
    1.3320   -0.1700    0.2330 C   0  0  0  0  0  0  0  0  0  0  0  0
   -2.2980   -1.0730   -0.2480 C   0  0  0  0  0  0  0  0  0  0  0  0
   -3.5230   -0.2700   -0.2500 C   0  0  0  0  0  0  0  0  0  0  0  0
  1  2  2  0
  1 14  1  0
  2  3  1  0
  3  4  1  0
  3 13  2  0
  4  5  2  0
  4 12  1  0
  5  6  1  0
  6  7  1  0
  7  8  2  0
  7 12  1  0
  8  9  1  0
  9 10  2  0
 10 11  1  0
 11 12  2  0
 13 14  1  0
M  END
