
     RDKit          3D

 10 10  0  0  0  0  0  0  0  0999 V2000
   -3.3770   -0.3990    0.3820 N   0  0  0  0  0  0  0  0  0  0  0  0
   -2.6880    0.7270   -0.1490 C   0  0  0  0  0  0  0  0  0  0  0  0
   -1.2380    0.5340   -0.4030 C   0  0  0  0  0  0  0  0  0  0  0  0
   -0.4710    0.1800    0.8460 C   0  0  0  0  0  0  0  0  0  0  0  0
    0.9560   -0.0060    0.5790 C   0  0  0  0  0  0  0  0  0  0  0  0
    1.4150   -1.2640    0.2440 C   0  0  0  0  0  0  0  0  0  0  0  0
    2.7430   -1.5120   -0.0200 C   0  0  0  0  0  0  0  0  0  0  0  0
    3.6800   -0.4960    0.0420 C   0  0  0  0  0  0  0  0  0  0  0  0
    3.2360    0.7740    0.3780 C   0  0  0  0  0  0  0  0  0  0  0  0
    1.8990    0.9960    0.6380 C   0  0  0  0  0  0  0  0  0  0  0  0
  1  2  1  0
  2  3  1  0
  3  4  1  0
  4  5  1  0
  5  6  2  0
  5 10  1  0
  6  7  1  0
  7  8  2  0
  8  9  1  0
  9 10  2  0
M  CHG  1   1   1
M  END
