
     RDKit          3D

 14 15  0  0  0  0  0  0  0  0999 V2000
    2.2260    1.5040   -0.9950 C   0  0  0  0  0  0  0  0  0  0  0  0
    2.2500    0.5260   -0.1190 C   0  0  0  0  0  0  0  0  0  0  0  0
    3.5130    0.0490    0.5400 C   0  0  0  0  0  0  0  0  0  0  0  0
    3.1350   -0.9720    1.2680 C   0  0  0  0  0  0  0  0  0  0  0  0
    1.7180   -1.1960    1.1360 C   0  0  0  0  0  0  0  0  0  0  0  0
    1.1520   -0.2910    0.2960 C   0  0  0  0  0  0  0  0  0  0  0  0
   -0.2300   -0.3880   -0.0400 N   0  0  0  0  0  0  0  0  0  0  0  0
   -0.8720   -1.6010   -0.0450 N   0  0  0  0  0  0  0  0  0  0  0  0
   -2.1560   -1.4440   -0.2910 C   0  0  0  0  0  0  0  0  0  0  0  0
   -3.2240   -2.5140   -0.3880 C   0  0  0  0  0  0  0  0  0  0  0  0
   -2.3580   -0.1050   -0.4480 C   0  0  0  0  0  0  0  0  0  0  0  0
   -1.1200    0.5650   -0.2830 C   0  0  0  0  0  0  0  0  0  0  0  0
   -1.0200    2.0410   -0.3070 C   0  0  0  0  0  0  0  0  0  0  0  0
   -0.1830    2.5640    0.6790 O   0  0  0  0  0  0  0  0  0  0  0  0
  1  2  2  0
  2  3  1  0
  2  6  1  0
  3  4  2  0
  4  5  1  0
  5  6  2  0
  6  7  1  0
  7  8  1  0
  7 12  1  0
  8  9  2  0
  9 10  1  0
  9 11  1  0
 11 12  2  0
 12 13  1  0
 13 14  1  0
M  END
