
     RDKit          3D

 26 28  0  0  0  0  0  0  0  0999 V2000
    4.8580   -2.7500    0.5740 C   0  0  0  0  0  0  0  0  0  0  0  0
    4.4410   -1.5700    0.9690 C   0  0  0  0  0  0  0  0  0  0  0  0
    4.9470   -0.3500    0.2930 C   0  0  0  0  0  0  0  0  0  0  0  0
    3.8310    0.4280   -0.3190 C   0  0  0  0  0  0  0  0  0  0  0  0
    3.7500    0.6900   -1.6110 C   0  0  0  0  0  0  0  0  0  0  0  0
    4.8620    0.2260   -2.8990 Cl  0  0  0  0  0  0  0  0  0  0  0  0
    2.5220    1.4740   -1.8460 C   0  0  0  0  0  0  0  0  0  0  0  0
    2.0810    1.9190   -2.9170 O   0  0  0  0  0  0  0  0  0  0  0  0
    1.8530    1.6730   -0.5840 N   0  0  0  0  0  0  0  0  0  0  0  0
    0.6100    2.3940   -0.3770 C   0  0  0  0  0  0  0  0  0  0  0  0
   -0.5760    1.5280   -0.4850 C   0  0  0  0  0  0  0  0  0  0  0  0
   -1.0910    0.8820    0.6160 C   0  0  0  0  0  0  0  0  0  0  0  0
   -2.2050    0.0540    0.5790 C   0  0  0  0  0  0  0  0  0  0  0  0
   -2.6660   -0.5790    1.7930 C   0  0  0  0  0  0  0  0  0  0  0  0
   -2.0780   -0.4140    2.9690 C   0  0  0  0  0  0  0  0  0  0  0  0
   -2.7050   -1.1590    4.1260 C   0  0  0  0  0  0  0  0  0  0  0  0
   -2.8430   -0.1380   -0.6360 C   0  0  0  0  0  0  0  0  0  0  0  0
   -3.9210   -0.9270   -0.7250 N   0  0  0  0  0  0  0  0  0  0  0  0
   -4.5380   -1.1060   -1.9300 C   0  0  0  0  0  0  0  0  0  0  0  0
   -5.5590   -1.8600   -1.9850 O   0  0  0  0  0  0  0  0  0  0  0  0
   -4.0620   -0.4830   -3.0530 C   0  0  0  0  0  0  0  0  0  0  0  0
   -2.9550    0.3340   -2.9910 C   0  0  0  0  0  0  0  0  0  0  0  0
   -2.3500    0.4980   -1.7630 C   0  0  0  0  0  0  0  0  0  0  0  0
   -1.2310    1.3160   -1.6720 C   0  0  0  0  0  0  0  0  0  0  0  0
    2.6820    1.0130    0.3670 C   0  0  0  0  0  0  0  0  0  0  0  0
    2.4540    0.9460    1.6140 O   0  0  0  0  0  0  0  0  0  0  0  0
  1  2  2  0
  2  3  1  0
  3  4  1  0
  4  5  2  0
  4 25  1  0
  5  6  1  0
  5  7  1  0
  7  8  2  0
  7  9  1  0
  9 10  1  0
  9 25  1  0
 10 11  1  0
 11 12  2  0
 11 24  1  0
 12 13  1  0
 13 14  1  0
 13 17  2  0
 14 15  2  3
 15 16  1  0
 17 18  1  0
 17 23  1  0
 18 19  1  0
 19 20  2  0
 19 21  1  0
 21 22  2  0
 22 23  1  0
 23 24  2  0
 25 26  2  0
M  END
