
     RDKit          3D

 26 28  0  0  0  0  0  0  0  0999 V2000
    5.9420    2.1010    0.4330 C   0  0  0  0  0  0  0  0  0  0  0  0
    5.8680    0.6850   -0.1490 C   0  0  0  0  0  0  0  0  0  0  0  0
    7.1550    0.1270   -0.5440 C   0  0  0  0  0  0  0  0  0  0  0  0
    4.7120    0.1070   -0.2450 C   0  0  0  0  0  0  0  0  0  0  0  0
    4.3390   -1.1730   -0.7310 C   0  0  0  0  0  0  0  0  0  0  0  0
    5.4510   -2.0840   -1.2420 C   0  0  0  0  0  0  0  0  0  0  0  0
    3.1580   -1.6850   -0.7990 C   0  0  0  0  0  0  0  0  0  0  0  0
    1.8080   -1.3570   -0.4970 C   0  0  0  0  0  0  0  0  0  0  0  0
    0.9270   -2.2980   -0.7810 O   0  0  0  0  0  0  0  0  0  0  0  0
    1.1940   -0.2260    0.0490 N   0  0  0  0  0  0  0  0  0  0  0  0
   -0.1850   -0.0070    0.2990 C   0  0  0  0  0  0  0  0  0  0  0  0
   -0.5000    1.0330    1.1880 C   0  0  0  0  0  0  0  0  0  0  0  0
   -1.7880    1.3740    1.5110 C   0  0  0  0  0  0  0  0  0  0  0  0
   -2.8020    0.6720    0.9440 C   0  0  0  0  0  0  0  0  0  0  0  0
   -2.5220   -0.3490    0.0720 C   0  0  0  0  0  0  0  0  0  0  0  0
   -1.1940   -0.6870   -0.2500 C   0  0  0  0  0  0  0  0  0  0  0  0
   -3.4490   -1.1470   -0.5790 O   0  0  0  0  0  0  0  0  0  0  0  0
   -4.7150   -1.6230   -0.1350 C   0  0  0  0  0  0  0  0  0  0  0  0
   -5.6510   -0.5460    0.2080 C   0  0  0  0  0  0  0  0  0  0  0  0
   -6.8630   -0.8370   -0.1910 C   0  0  0  0  0  0  0  0  0  0  0  0
   -7.8710    0.0790    0.0570 O   0  0  0  0  0  0  0  0  0  0  0  0
   -7.6880    1.2980    0.7070 C   0  0  0  0  0  0  0  0  0  0  0  0
   -6.3070    1.5600    1.1270 C   0  0  0  0  0  0  0  0  0  0  0  0
   -5.9190    3.0470    1.9540 Cl  0  0  0  0  0  0  0  0  0  0  0  0
   -5.3400    0.7070    0.9010 C   0  0  0  0  0  0  0  0  0  0  0  0
   -4.0770    1.1640    1.3940 N   0  0  0  0  0  0  0  0  0  0  0  0
  1  2  1  0
  2  3  1  0
  2  4  2  3
  4  5  1  0
  5  6  1  0
  5  7  2  3
  7  8  1  0
  8  9  2  0
  8 10  1  0
 10 11  1  0
 11 12  2  0
 11 16  1  0
 12 13  1  0
 13 14  2  0
 14 15  1  0
 14 26  1  0
 15 16  2  0
 15 17  1  0
 17 18  1  0
 18 19  1  0
 19 20  2  0
 19 25  1  0
 20 21  1  0
 21 22  1  0
 22 23  1  0
 23 24  1  0
 23 25  2  0
 25 26  1  0
M  END
