
     RDKit          3D

 26 28  0  0  0  0  0  0  0  0999 V2000
   -5.2500    0.3120   -0.7400 C   0  0  0  0  0  0  0  0  0  0  0  0
   -4.3060    0.4340   -1.6420 C   0  0  0  0  0  0  0  0  0  0  0  0
   -4.3390    0.0130   -3.0900 C   0  0  0  0  0  0  0  0  0  0  0  0
   -3.5500    1.0900   -3.6250 O   0  0  0  0  0  0  0  0  0  0  0  0
   -2.5660    1.4020   -2.6870 C   0  0  0  0  0  0  0  0  0  0  0  0
   -2.9830    1.0220   -1.4910 C   0  0  0  0  0  0  0  0  0  0  0  0
   -2.1840    1.2190   -0.2410 C   0  0  0  0  0  0  0  0  0  0  0  0
   -1.8250    0.1780    0.4600 O   0  0  0  0  0  0  0  0  0  0  0  0
   -1.8110   -0.8960    1.1780 C   0  0  0  0  0  0  0  0  0  0  0  0
   -2.9740   -1.5120    1.5780 C   0  0  0  0  0  0  0  0  0  0  0  0
   -2.9770   -2.6560    2.3440 C   0  0  0  0  0  0  0  0  0  0  0  0
   -1.7960   -3.2260    2.7370 C   0  0  0  0  0  0  0  0  0  0  0  0
   -1.7500   -4.6850    3.7140 Cl  0  0  0  0  0  0  0  0  0  0  0  0
   -0.6110   -2.5920    2.3250 C   0  0  0  0  0  0  0  0  0  0  0  0
   -0.5890   -1.4670    1.5730 C   0  0  0  0  0  0  0  0  0  0  0  0
    0.6270   -0.8130    1.1490 N   0  0  0  0  0  0  0  0  0  0  0  0
    1.9420   -1.1550    1.3880 C   0  0  0  0  0  0  0  0  0  0  0  0
    1.9810   -2.2800    2.1290 O   0  0  0  0  0  0  0  0  0  0  0  0
    3.2270   -0.6890    1.0980 C   0  0  0  0  0  0  0  0  0  0  0  0
    3.9730    0.1860    0.5450 C   0  0  0  0  0  0  0  0  0  0  0  0
    5.4360    0.0400    0.6400 N   0  0  0  0  0  0  0  0  0  0  0  0
    6.3390    0.9650    0.0630 C   0  0  0  0  0  0  0  0  0  0  0  0
    5.8950    2.0120   -0.5950 C   0  0  0  0  0  0  0  0  0  0  0  0
    4.4710    2.2310   -0.7350 C   0  0  0  0  0  0  0  0  0  0  0  0
    3.5790    1.3540   -0.1870 C   0  0  0  0  0  0  0  0  0  0  0  0
    2.1550    1.7070   -0.3860 C   0  0  0  0  0  0  0  0  0  0  0  0
  1  2  2  0
  2  3  1  0
  2  6  1  0
  3  4  1  0
  4  5  1  0
  5  6  2  0
  6  7  1  0
  7  8  1  0
  8  9  1  0
  9 10  2  0
  9 15  1  0
 10 11  1  0
 11 12  2  0
 12 13  1  0
 12 14  1  0
 14 15  2  0
 15 16  1  0
 16 17  1  0
 17 18  2  0
 17 19  1  0
 19 20  2  3
 20 21  1  0
 20 25  1  0
 21 22  1  0
 22 23  2  0
 23 24  1  0
 24 25  2  0
 25 26  1  0
M  END
