
     RDKit          3D

  9  9  0  0  0  0  0  0  0  0999 V2000
   -3.1810   -0.2180    0.4360 N   0  0  0  0  0  0  0  0  0  0  0  0
   -1.7400   -0.3370    0.6560 C   0  0  0  0  0  0  0  0  0  0  0  0
   -1.0620    0.2550   -0.5440 C   0  0  0  0  0  0  0  0  0  0  0  0
    0.4130    0.2020   -0.4580 C   0  0  0  0  0  0  0  0  0  0  0  0
    1.1760    1.2150    0.1020 C   0  0  0  0  0  0  0  0  0  0  0  0
    2.5580    1.1400    0.1700 C   0  0  0  0  0  0  0  0  0  0  0  0
    3.2100    0.0380   -0.3270 C   0  0  0  0  0  0  0  0  0  0  0  0
    2.4910   -0.9800   -0.8870 C   0  0  0  0  0  0  0  0  0  0  0  0
    1.1060   -0.8890   -0.9470 C   0  0  0  0  0  0  0  0  0  0  0  0
  1  2  1  0
  2  3  1  0
  3  4  1  0
  4  5  2  0
  4  9  1  0
  5  6  1  0
  6  7  2  0
  7  8  1  0
  8  9  2  0
M  CHG  1   1   1
M  END
