
     RDKit          3D

 21 23  0  0  0  0  0  0  0  0999 V2000
    5.9760    1.4430   -0.5270 C   0  0  0  0  0  0  0  0  0  0  0  0
    4.5180    1.2750   -0.1690 C   0  0  0  0  0  0  0  0  0  0  0  0
    4.0220    0.1340   -0.8030 O   0  0  0  0  0  0  0  0  0  0  0  0
    2.7220   -0.3140   -0.6930 C   0  0  0  0  0  0  0  0  0  0  0  0
    1.7640    0.3240    0.0660 C   0  0  0  0  0  0  0  0  0  0  0  0
    0.4880   -0.1350    0.1610 C   0  0  0  0  0  0  0  0  0  0  0  0
    0.1550   -1.2880   -0.5410 C   0  0  0  0  0  0  0  0  0  0  0  0
    1.0890   -1.9760   -1.3240 C   0  0  0  0  0  0  0  0  0  0  0  0
    2.3560   -1.4690   -1.3800 C   0  0  0  0  0  0  0  0  0  0  0  0
    3.2950   -2.1470   -2.1580 O   0  0  0  0  0  0  0  0  0  0  0  0
   -1.2290   -1.7200   -0.5580 C   0  0  0  0  0  0  0  0  0  0  0  0
   -1.6230   -2.8790   -1.2190 O   0  0  0  0  0  0  0  0  0  0  0  0
   -2.1350   -0.9970    0.0670 C   0  0  0  0  0  0  0  0  0  0  0  0
   -3.5860   -1.0880    0.3070 C   0  0  0  0  0  0  0  0  0  0  0  0
   -4.2850   -2.0460   -0.1440 O   0  0  0  0  0  0  0  0  0  0  0  0
   -3.9660    0.0590    1.0980 C   0  0  0  0  0  0  0  0  0  0  0  0
   -5.3870    0.2860    1.5570 C   0  0  0  0  0  0  0  0  0  0  0  0
   -2.9170    0.8210    1.3290 C   0  0  0  0  0  0  0  0  0  0  0  0
   -2.9450    2.0660    2.1270 C   0  0  0  0  0  0  0  0  0  0  0  0
   -1.7980    0.3710    0.5340 C   0  0  1  0  0  0  0  0  0  0  0  0
   -0.5140    0.4830    0.9440 O   0  0  0  0  0  0  0  0  0  0  0  0
  1  2  1  0
  2  3  1  0
  3  4  1  0
  4  5  2  0
  4  9  1  0
  5  6  1  0
  6  7  2  0
  6 21  1  0
  7  8  1  0
  7 11  1  0
  8  9  2  0
  9 10  1  0
 11 12  1  0
 11 13  2  0
 13 14  1  0
 13 20  1  0
 14 15  2  0
 14 16  1  0
 16 17  1  0
 16 18  2  0
 18 19  1  0
 18 20  1  0
 20 21  1  1
M  END
