
     RDKit          3D

  9  9  0  0  0  0  0  0  0  0999 V2000
   -3.0470   -0.4230   -0.2000 C   0  0  0  0  0  0  0  0  0  0  0  0
   -1.5830   -0.1140   -0.1410 C   0  0  0  0  0  0  0  0  0  0  0  0
   -0.7500   -1.1360   -0.0280 C   0  0  0  0  0  0  0  0  0  0  0  0
    0.7060   -1.1780    0.0530 C   0  0  0  0  0  0  0  0  0  0  0  0
    1.5720   -0.1730    0.1380 C   0  0  0  0  0  0  0  0  0  0  0  0
    3.0250   -0.5240    0.2080 C   0  0  0  0  0  0  0  0  0  0  0  0
    1.2650    1.2150    0.1680 N   0  0  0  0  0  0  0  0  0  0  0  0
   -0.0050    1.8490   -0.0830 C   0  0  0  0  0  0  0  0  0  0  0  0
   -1.1970    1.2910   -0.2120 C   0  0  0  0  0  0  0  0  0  0  0  0
  1  2  1  0
  2  3  2  0
  2  9  1  0
  3  4  1  0
  4  5  2  0
  5  6  1  0
  5  7  1  0
  7  8  1  0
  8  9  2  0
M  END
