
     RDKit          3D

  9  8  0  0  0  0  0  0  0  0999 V2000
   -3.8770    0.9630    0.9670 C   0  0  0  0  0  0  0  0  0  0  0  0
   -2.5850    1.1810    1.0130 C   0  0  0  0  0  0  0  0  0  0  0  0
   -1.5900    0.2740    0.4670 C   0  0  0  0  0  0  0  0  0  0  0  0
   -1.9600   -1.0010   -0.2000 C   0  0  0  0  0  0  0  0  0  0  0  0
   -0.2860    0.5480    0.5430 C   0  0  0  0  0  0  0  0  0  0  0  0
    0.7480   -0.3110    0.0210 C   0  0  0  0  0  0  0  0  0  0  0  0
    2.0160    0.0170    0.1270 C   0  0  0  0  0  0  0  0  0  0  0  0
    3.1220   -0.8230   -0.3890 C   0  0  0  0  0  0  0  0  0  0  0  0
    3.8520   -0.0340   -1.3700 N   0  0  0  0  0  0  0  0  0  0  0  0
  1  2  2  0
  2  3  1  0
  3  4  1  0
  3  5  2  3
  5  6  1  0
  6  7  2  3
  7  8  1  0
  8  9  1  0
M  END
