
     RDKit          3D

  9  9  0  0  0  0  0  0  0  0999 V2000
   -1.9500    0.7500    1.1520 C   0  0  0  0  0  0  0  0  0  0  0  0
   -1.2170    0.0390    0.0030 C   0  0  1  0  0  0  0  0  0  0  0  0
   -2.2940   -0.3950   -0.9690 C   0  0  0  0  0  0  0  0  0  0  0  0
   -0.3890    1.0960   -0.6730 C   0  0  0  0  0  0  0  0  0  0  0  0
    0.9360    1.1310    0.1030 C   0  0  0  0  0  0  0  0  0  0  0  0
    1.6630   -0.1190   -0.4010 C   0  0  1  0  0  0  0  0  0  0  0  0
    3.0360   -0.0590   -0.0150 N   0  0  0  0  0  0  0  0  0  0  0  0
    0.9170   -1.3080    0.0650 C   0  0  0  0  0  0  0  0  0  0  0  0
   -0.4510   -1.0890    0.5670 C   0  0  0  0  0  0  0  0  0  0  0  0
  2  1  1  1
  2  3  1  0
  2  4  1  0
  2  9  1  0
  4  5  1  0
  5  6  1  0
  6  7  1  1
  6  8  1  0
  8  9  1  0
M  CHG  1   7   1
M  END
