
     RDKit          3D

 27 28  0  0  0  0  0  0  0  0999 V2000
   -4.3630   -2.5750    1.1690 C   0  0  0  0  0  0  0  0  0  0  0  0
   -3.6640   -3.1110   -0.0240 N   0  0  0  0  0  0  0  0  0  0  0  0
   -3.3800   -2.0400   -0.9150 C   0  0  0  0  0  0  0  0  0  0  0  0
   -2.5390   -0.9520   -0.4170 C   0  0  0  0  0  0  0  0  0  0  0  0
   -3.1710    0.2000    0.0270 C   0  0  0  0  0  0  0  0  0  0  0  0
   -4.5060    0.5920   -0.1550 N   0  0  0  0  0  0  0  0  0  0  0  0
   -5.3960    0.8270    0.9120 C   0  0  0  0  0  0  0  0  0  0  0  0
   -4.8650    0.9590   -1.5210 C   0  0  0  0  0  0  0  0  0  0  0  0
   -2.4620    1.3330    0.4020 N   0  0  0  0  0  0  0  0  0  0  0  0
   -1.1720    1.3760    0.3910 C   0  0  0  0  0  0  0  0  0  0  0  0
   -0.5470    2.4220    0.7620 O   0  0  0  0  0  0  0  0  0  0  0  0
   -0.4640    0.2620   -0.0240 C   0  0  0  0  0  0  0  0  0  0  0  0
    0.9350    0.2320    0.1310 C   0  0  0  0  0  0  0  0  0  0  0  0
    1.6040    1.1540    0.8250 N   0  0  0  0  0  0  0  0  0  0  0  0
    3.0130    0.8570    0.8520 C   0  0  0  0  0  0  0  0  0  0  0  0
    3.4410   -0.1200    1.6980 C   0  0  0  0  0  0  0  0  0  0  0  0
    4.7950   -0.6050    1.4960 C   0  0  0  0  0  0  0  0  0  0  0  0
    5.4690    0.0340    0.4970 C   0  0  0  0  0  0  0  0  0  0  0  0
    6.9300   -0.4630    0.2640 C   0  0  0  0  0  0  0  0  0  0  0  0
    6.7850   -1.8510    0.1540 N   0  0  0  0  0  0  0  0  0  0  0  0
    7.8070    0.2930    0.2230 O   0  0  0  0  0  0  0  0  0  0  0  0
    5.0610    0.9250   -0.2680 C   0  0  0  0  0  0  0  0  0  0  0  0
    3.7800    1.4200   -0.1610 C   0  0  0  0  0  0  0  0  0  0  0  0
    3.1370    2.3080   -1.0690 C   0  0  0  0  0  0  0  0  0  0  0  0
    3.3020    3.6660   -0.5100 N   0  0  0  0  0  0  0  0  0  0  0  0
   -1.1650   -0.8910   -0.4630 C   0  0  0  0  0  0  0  0  0  0  0  0
   -0.3230   -1.8370   -1.0910 N   0  0  0  0  0  0  0  0  0  0  0  0
  1  2  1  0
  2  3  1  0
  3  4  1  0
  4  5  2  0
  4 26  1  0
  5  6  1  0
  5  9  1  0
  6  7  1  0
  6  8  1  0
  9 10  1  0
 10 11  2  0
 10 12  1  0
 12 13  1  0
 12 26  2  0
 13 14  2  3
 14 15  1  0
 15 16  2  0
 15 23  1  0
 16 17  1  0
 17 18  2  0
 18 19  1  0
 18 22  1  0
 19 20  1  0
 19 21  2  0
 22 23  2  0
 23 24  1  0
 24 25  1  0
 26 27  1  0
M  CHG  2   2   1  25   1
M  END
