
     RDKit          3D

 28 29  0  0  0  0  0  0  0  0999 V2000
   -8.9410   -1.8710    0.8120 C   0  0  0  0  0  0  0  0  0  0  0  0
   -7.9350   -1.1690   -0.0690 C   0  0  0  0  0  0  0  0  0  0  0  0
   -7.0350   -0.2920    0.8000 C   0  0  2  0  0  0  0  0  0  0  0  0
   -7.8640    0.6620    1.4700 N   0  0  0  0  0  0  0  0  0  0  0  0
   -5.9530    0.3190   -0.0090 C   0  0  0  0  0  0  0  0  0  0  0  0
   -6.2250    1.4070   -0.8250 C   0  0  0  0  0  0  0  0  0  0  0  0
   -5.2390    1.9930   -1.5890 C   0  0  0  0  0  0  0  0  0  0  0  0
   -3.9320    1.4880   -1.5470 C   0  0  0  0  0  0  0  0  0  0  0  0
   -3.6680    0.4200   -0.7430 C   0  0  0  0  0  0  0  0  0  0  0  0
   -2.3790   -0.1490   -0.5980 N   0  0  0  0  0  0  0  0  0  0  0  0
   -1.2270    0.6590   -0.5610 C   0  0  0  0  0  0  0  0  0  0  0  0
    0.0290    0.1440   -0.5310 N   0  0  0  0  0  0  0  0  0  0  0  0
    0.9260    1.1170   -0.4600 C   0  0  0  0  0  0  0  0  0  0  0  0
    2.3870    0.9490   -0.4100 C   0  0  0  0  0  0  0  0  0  0  0  0
    3.1240    1.9440   -0.3430 O   0  0  0  0  0  0  0  0  0  0  0  0
    2.9670   -0.3440   -0.4390 N   0  0  0  0  0  0  0  0  0  0  0  0
    4.3410   -0.5820   -0.3960 N   0  0  0  0  0  0  0  0  0  0  0  0
    5.1450   -0.3030    0.7400 C   0  0  0  0  0  0  0  0  0  0  0  0
    4.5780    0.1820    1.7510 O   0  0  0  0  0  0  0  0  0  0  0  0
    6.6070   -0.5810    0.7210 C   0  0  1  0  0  0  0  0  0  0  0  0
    7.1990   -0.2430    1.9130 O   0  0  0  0  0  0  0  0  0  0  0  0
    6.7510   -2.0860    0.5310 C   0  0  0  0  0  0  0  0  0  0  0  0
    8.2020   -2.5110    0.4930 C   0  0  0  0  0  0  0  0  0  0  0  0
    7.2520    0.1380   -0.4270 C   0  0  0  0  0  0  0  0  0  0  0  0
    7.1470    1.5590   -0.2750 N   0  0  0  0  0  0  0  0  0  0  0  0
    0.2180    2.2900   -0.4440 C   0  0  0  0  0  0  0  0  0  0  0  0
   -1.1150    1.9840   -0.5070 N   0  0  0  0  0  0  0  0  0  0  0  0
   -4.6690   -0.1700    0.0280 C   0  0  0  0  0  0  0  0  0  0  0  0
  1  2  1  0
  2  3  1  0
  3  4  1  6
  3  5  1  0
  5  6  2  0
  5 28  1  0
  6  7  1  0
  7  8  2  0
  8  9  1  0
  9 10  1  0
  9 28  2  0
 10 11  1  0
 11 12  1  0
 11 27  2  0
 12 13  1  0
 13 14  1  0
 13 26  2  0
 14 15  2  0
 14 16  1  0
 16 17  1  0
 17 18  1  0
 18 19  2  0
 18 20  1  0
 20 21  1  1
 20 22  1  0
 20 24  1  0
 22 23  1  0
 24 25  1  0
 26 27  1  0
M  CHG  2  25   1  27   1
M  END
