
     RDKit          3D

 28 29  0  0  0  0  0  0  0  0999 V2000
   -0.5330   -4.0220   -2.9550 C   0  0  0  0  0  0  0  0  0  0  0  0
   -0.7350   -3.2300   -1.6680 C   0  0  0  0  0  0  0  0  0  0  0  0
   -1.4460   -1.9170   -1.9750 C   0  0  0  0  0  0  0  0  0  0  0  0
   -1.5980   -1.1600   -0.7700 N   0  0  0  0  0  0  0  0  0  0  0  0
   -0.5120   -0.5680   -0.0280 C   0  0  0  0  0  0  0  0  0  0  0  0
    0.2490    0.3190   -0.6200 C   0  0  0  0  0  0  0  0  0  0  0  0
    0.0540    0.7650   -2.0100 C   0  0  0  0  0  0  0  0  0  0  0  0
   -1.0440    1.4210   -2.5120 C   0  0  0  0  0  0  0  0  0  0  0  0
   -2.2470    1.8930   -1.8110 C   0  0  0  0  0  0  0  0  0  0  0  0
   -3.1520    2.5640   -2.7540 N   0  0  0  0  0  0  0  0  0  0  0  0
   -0.7460    1.5850   -3.8720 C   0  0  0  0  0  0  0  0  0  0  0  0
    0.4570    1.0580   -4.1500 N   0  0  0  0  0  0  0  0  0  0  0  0
    0.9810    0.5460   -3.0390 C   0  0  0  0  0  0  0  0  0  0  0  0
    2.2980   -0.1480   -2.8630 C   0  0  0  0  0  0  0  0  0  0  0  0
   -0.3940   -0.9490    1.3730 C   0  0  0  0  0  0  0  0  0  0  0  0
    0.6370   -0.4130    2.2830 C   0  0  0  0  0  0  0  0  0  0  0  0
    1.5080    0.3860    1.9170 N   0  0  0  0  0  0  0  0  0  0  0  0
    2.5590    1.0270    2.5460 C   0  0  0  0  0  0  0  0  0  0  0  0
    2.5460    1.7780    3.6140 C   0  0  0  0  0  0  0  0  0  0  0  0
    3.7070    2.4010    4.1890 N   0  0  0  0  0  0  0  0  0  0  0  0
    3.3120    3.1300    5.3270 C   0  0  0  0  0  0  0  0  0  0  0  0
    4.0470    3.8210    6.1080 O   0  0  0  0  0  0  0  0  0  0  0  0
    1.9040    3.0050    5.5260 N   0  0  0  0  0  0  0  0  0  0  0  0
    1.4390    2.1700    4.4670 C   0  0  0  0  0  0  0  0  0  0  0  0
    0.2460    1.8070    4.2730 O   0  0  0  0  0  0  0  0  0  0  0  0
   -1.1850   -1.8420    1.8940 C   0  0  0  0  0  0  0  0  0  0  0  0
   -1.0320   -2.1910    3.3000 N   0  0  0  0  0  0  0  0  0  0  0  0
   -2.1690   -2.4760    1.1710 O   0  0  0  0  0  0  0  0  0  0  0  0
  1  2  1  0
  2  3  1  0
  3  4  1  0
  4  5  1  0
  5  6  2  3
  5 15  1  0
  6  7  1  0
  7  8  1  0
  7 13  2  0
  8  9  1  0
  8 11  2  0
  9 10  1  0
 11 12  1  0
 12 13  1  0
 13 14  1  0
 15 16  1  0
 15 26  2  3
 16 17  2  3
 17 18  1  0
 18 19  2  3
 19 20  1  0
 19 24  1  0
 20 21  1  0
 21 22  2  0
 21 23  1  0
 23 24  1  0
 24 25  2  0
 26 27  1  0
 26 28  1  0
M  CHG  1  10   1
M  END
