
     RDKit          3D

 28 29  0  0  0  0  0  0  0  0999 V2000
   -6.6750   -2.5700   -1.7590 C   0  0  0  0  0  0  0  0  0  0  0  0
   -5.6810   -1.7280   -1.1970 O   0  0  0  0  0  0  0  0  0  0  0  0
   -6.0820   -0.6610   -0.4120 C   0  0  0  0  0  0  0  0  0  0  0  0
   -7.3950   -0.3770   -0.1510 C   0  0  0  0  0  0  0  0  0  0  0  0
   -7.7590    0.6630    0.6130 N   0  0  0  0  0  0  0  0  0  0  0  0
   -6.8630    1.4870    1.1660 C   0  0  0  0  0  0  0  0  0  0  0  0
   -7.1920    2.5950    1.9770 N   0  0  0  0  0  0  0  0  0  0  0  0
   -5.5160    1.2370    0.9270 C   0  0  0  0  0  0  0  0  0  0  0  0
   -5.1060    0.1770    0.1480 C   0  0  0  0  0  0  0  0  0  0  0  0
   -3.7590   -0.1470   -0.1440 N   0  0  0  0  0  0  0  0  0  0  0  0
   -2.6230    0.5430    0.2980 C   0  0  0  0  0  0  0  0  0  0  0  0
   -2.7220    1.5480    1.0200 O   0  0  0  0  0  0  0  0  0  0  0  0
   -1.2360    0.0760   -0.0980 C   0  0  0  0  0  0  0  0  0  0  0  0
   -0.1880    0.9490    0.4730 C   0  0  0  0  0  0  0  0  0  0  0  0
    1.1840    0.5990    0.1090 C   0  0  0  0  0  0  0  0  0  0  0  0
    1.8420   -0.6450    0.4560 C   0  0  1  0  0  0  0  0  0  0  0  0
    1.3060   -1.9520    0.0090 C   0  0  0  0  0  0  0  0  0  0  0  0
    1.1900   -2.0880   -1.4330 N   0  0  0  0  0  0  0  0  0  0  0  0
    3.2410   -0.5810    0.0000 N   0  0  0  0  0  0  0  0  0  0  0  0
    4.0580   -1.6120    0.5180 C   0  0  0  0  0  0  0  0  0  0  0  0
    5.4310   -1.2260    0.9000 C   0  0  0  0  0  0  0  0  0  0  0  0
    5.9970   -0.1650    0.3390 C   0  0  0  0  0  0  0  0  0  0  0  0
    7.3440    0.1730    0.7440 C   0  0  0  0  0  0  0  0  0  0  0  0
    8.0020    1.2850    0.1720 N   0  0  0  0  0  0  0  0  0  0  0  0
    7.9590   -0.5340    1.6260 O   0  0  0  0  0  0  0  0  0  0  0  0
    5.2490    0.6000   -0.6330 C   0  0  2  0  0  0  0  0  0  0  0  0
    5.6470    1.9770   -0.8290 N   0  0  0  0  0  0  0  0  0  0  0  0
    3.7980    0.7050   -0.0950 C   0  0  0  0  0  0  0  0  0  0  0  0
  1  2  1  0
  2  3  1  0
  3  4  2  0
  3  9  1  0
  4  5  1  0
  5  6  2  0
  6  7  1  0
  6  8  1  0
  8  9  2  0
  9 10  1  0
 10 11  1  0
 11 12  2  0
 11 13  1  0
 13 14  1  0
 14 15  1  0
 16 15  1  6
 16 17  1  0
 16 19  1  0
 17 18  1  0
 19 20  1  0
 19 28  1  0
 20 21  1  0
 21 22  2  0
 22 23  1  0
 22 26  1  0
 23 24  1  0
 23 25  2  0
 26 27  1  1
 26 28  1  0
M  CHG  3   5   1  18   1  27   1
M  END
