
     RDKit          3D

 28 28  0  0  0  0  0  0  0  0999 V2000
   -3.1710    3.0700    1.0760 C   0  0  0  0  0  0  0  0  0  0  0  0
   -3.0810    2.4400   -0.2780 C   0  0  0  0  0  0  0  0  0  0  0  0
   -1.7240    2.1880   -0.8030 C   0  0  0  0  0  0  0  0  0  0  0  0
   -0.8530    1.2200   -0.0390 C   0  0  1  0  0  0  0  0  0  0  0  0
   -0.5990    1.5860    1.3140 N   0  0  0  0  0  0  0  0  0  0  0  0
    0.0270    2.8010    1.6740 C   0  0  0  0  0  0  0  0  0  0  0  0
   -0.3900    3.5000    2.6500 O   0  0  0  0  0  0  0  0  0  0  0  0
    1.1970    3.2880    0.9110 C   0  0  0  0  0  0  0  0  0  0  0  0
    2.2940    2.2150    0.8390 C   0  0  0  0  0  0  0  0  0  0  0  0
    2.8960    2.2240   -0.4970 C   0  0  0  0  0  0  0  0  0  0  0  0
    2.6640    3.2450   -1.2370 O   0  0  0  0  0  0  0  0  0  0  0  0
    3.7090    1.2340   -1.0740 N   0  0  0  0  0  0  0  0  0  0  0  0
    3.5670   -0.1760   -1.0310 C   0  0  1  0  0  0  0  0  0  0  0  0
    4.8670   -0.8160   -1.4770 C   0  0  0  0  0  0  0  0  0  0  0  0
    4.8250   -2.3150   -1.4680 C   0  0  0  0  0  0  0  0  0  0  0  0
    3.0740   -0.7420    0.2390 C   0  0  0  0  0  0  0  0  0  0  0  0
    3.7540   -0.4510    1.2640 O   0  0  0  0  0  0  0  0  0  0  0  0
    1.9230   -1.5660    0.3760 N   0  0  0  0  0  0  0  0  0  0  0  0
    1.1760   -2.1970   -0.6150 N   0  0  0  0  0  0  0  0  0  0  0  0
    0.2260   -1.6570   -1.5380 C   0  0  0  0  0  0  0  0  0  0  0  0
    0.5280   -1.7760   -2.7980 N   0  0  0  0  0  0  0  0  0  0  0  0
   -1.0310   -1.0550   -1.2550 N   0  0  0  0  0  0  0  0  0  0  0  0
   -1.4050   -0.1830   -0.2000 C   0  0  0  0  0  0  0  0  0  0  0  0
   -2.3010   -0.5410    0.6900 C   0  0  0  0  0  0  0  0  0  0  0  0
   -3.0010   -1.7980    0.7980 C   0  0  0  0  0  0  0  0  0  0  0  0
   -2.8390   -2.9600   -0.1030 C   0  0  0  0  0  0  0  0  0  0  0  0
   -3.8840   -1.9440    1.7990 C   0  0  0  0  0  0  0  0  0  0  0  0
   -4.6210   -3.1310    1.9940 N   0  0  0  0  0  0  0  0  0  0  0  0
  1  2  1  0
  2  3  1  0
  4  3  1  1
  4  5  1  0
  4 23  1  0
  5  6  1  0
  6  7  2  0
  6  8  1  0
  8  9  1  0
  9 10  1  0
 10 11  2  0
 10 12  1  0
 12 13  1  0
 13 14  1  1
 13 16  1  0
 14 15  1  0
 16 17  2  0
 16 18  1  0
 18 19  1  0
 19 20  1  0
 20 21  2  0
 20 22  1  0
 22 23  1  0
 23 24  2  3
 24 25  1  0
 25 26  1  0
 25 27  2  3
 27 28  1  0
M  CHG  2  21   1  28   1
M  END
