
     RDKit          3D

 28 29  0  0  0  0  0  0  0  0999 V2000
   -1.1720    2.5600   -0.1420 C   0  0  0  0  0  0  0  0  0  0  0  0
   -0.2710    1.3800   -0.1460 C   0  0  0  0  0  0  0  0  0  0  0  0
    1.0370    1.3830   -0.0070 O   0  0  0  0  0  0  0  0  0  0  0  0
    1.4950    0.1590   -0.0620 C   0  0  0  0  0  0  0  0  0  0  0  0
    2.9330   -0.1920    0.0610 C   0  0  0  0  0  0  0  0  0  0  0  0
    3.7430    0.9840    0.2470 N   0  0  0  0  0  0  0  0  0  0  0  0
    4.8790    0.6640    1.0570 C   0  0  0  0  0  0  0  0  0  0  0  0
    5.7830   -0.3680    0.4180 C   0  0  2  0  0  0  0  0  0  0  0  0
    6.9330   -0.6040    1.3830 C   0  0  0  0  0  0  0  0  0  0  0  0
    7.6910    0.5810    1.6510 N   0  0  0  0  0  0  0  0  0  0  0  0
    6.3510    0.0840   -0.8900 C   0  0  0  0  0  0  0  0  0  0  0  0
    7.1930   -0.9820   -1.3990 N   0  0  0  0  0  0  0  0  0  0  0  0
    0.4270   -0.6950   -0.2480 C   0  0  0  0  0  0  0  0  0  0  0  0
   -0.7070    0.0830   -0.3020 C   0  0  0  0  0  0  0  0  0  0  0  0
   -2.0900   -0.3600   -0.4860 C   0  0  0  0  0  0  0  0  0  0  0  0
   -2.3890   -1.7410   -0.6340 N   0  0  0  0  0  0  0  0  0  0  0  0
   -3.0290    0.5220   -0.5110 N   0  0  0  0  0  0  0  0  0  0  0  0
   -4.3680    0.1020   -0.6890 C   0  0  0  0  0  0  0  0  0  0  0  0
   -5.2650    0.2280    0.3490 C   0  0  0  0  0  0  0  0  0  0  0  0
   -6.6080   -0.1630    0.2590 C   0  0  0  0  0  0  0  0  0  0  0  0
   -7.4310   -0.0000    1.3770 N   0  0  0  0  0  0  0  0  0  0  0  0
   -8.8250   -0.1730    1.4430 C   0  0  0  0  0  0  0  0  0  0  0  0
   -9.5440    0.0300    2.6860 N   0  0  0  0  0  0  0  0  0  0  0  0
   -9.4510   -0.5080    0.4120 O   0  0  0  0  0  0  0  0  0  0  0  0
   -6.9770   -0.6870   -0.9520 C   0  0  0  0  0  0  0  0  0  0  0  0
   -6.0640   -0.8170   -2.0130 C   0  0  0  0  0  0  0  0  0  0  0  0
   -4.7650   -0.4250   -1.8860 C   0  0  0  0  0  0  0  0  0  0  0  0
   -3.8240   -0.5290   -2.8960 O   0  0  0  0  0  0  0  0  0  0  0  0
  1  2  1  0
  2  3  1  0
  2 14  2  0
  3  4  1  0
  4  5  1  0
  4 13  2  0
  5  6  1  0
  6  7  1  0
  8  7  1  1
  8  9  1  0
  8 11  1  0
  9 10  1  0
 11 12  1  0
 13 14  1  0
 14 15  1  0
 15 16  1  0
 15 17  2  3
 17 18  1  0
 18 19  2  0
 18 27  1  0
 19 20  1  0
 20 21  1  0
 20 25  2  0
 21 22  1  0
 22 23  1  0
 22 24  2  0
 25 26  1  0
 26 27  2  0
 27 28  1  0
M  CHG  2   6   1  12   1
M  END
