
     RDKit          3D

 28 29  0  0  0  0  0  0  0  0999 V2000
    7.8320   -2.2080    0.1200 C   0  0  0  0  0  0  0  0  0  0  0  0
    8.2510   -0.8200    0.1070 C   0  0  0  0  0  0  0  0  0  0  0  0
    7.5920    0.2620    0.1560 C   0  0  0  0  0  0  0  0  0  0  0  0
    6.2410    0.5640    0.2410 N   0  0  0  0  0  0  0  0  0  0  0  0
    5.0990   -0.2310    0.3450 C   0  0  0  0  0  0  0  0  0  0  0  0
    5.2350   -1.4670    0.3760 O   0  0  0  0  0  0  0  0  0  0  0  0
    3.7600    0.3330    0.4190 N   0  0  0  0  0  0  0  0  0  0  0  0
    2.7200   -0.5700    0.5230 N   0  0  0  0  0  0  0  0  0  0  0  0
    1.3510   -0.1630    0.3470 C   0  0  0  0  0  0  0  0  0  0  0  0
    1.1920    1.0480    0.1010 O   0  0  0  0  0  0  0  0  0  0  0  0
    0.3030   -1.1010    0.4560 N   0  0  0  0  0  0  0  0  0  0  0  0
   -1.0460   -0.7880    0.2950 C   0  0  0  0  0  0  0  0  0  0  0  0
   -1.9620   -1.7800    0.6330 C   0  0  0  0  0  0  0  0  0  0  0  0
   -3.2910   -1.5610    0.4900 C   0  0  0  0  0  0  0  0  0  0  0  0
   -3.7930   -0.3420    0.0040 C   0  0  0  0  0  0  0  0  0  0  0  0
   -2.8570    0.6380   -0.3280 C   0  0  0  0  0  0  0  0  0  0  0  0
   -1.5050    0.4090   -0.1820 C   0  0  0  0  0  0  0  0  0  0  0  0
   -3.2870    1.7870   -0.7950 C   0  0  0  0  0  0  0  0  0  0  0  0
   -2.3660    2.8380   -1.1550 N   0  0  0  0  0  0  0  0  0  0  0  0
   -4.7100    2.1010   -1.0000 C   0  0  0  0  0  0  0  0  0  0  0  0
   -5.6760    1.0760   -0.6040 C   0  0  0  0  0  0  0  0  0  0  0  0
   -5.0930   -0.1850   -0.0950 C   0  0  0  0  0  0  0  0  0  0  0  0
   -6.0380   -1.2880    0.3090 C   0  0  2  0  0  0  0  0  0  0  0  0
   -6.7720   -1.8360   -0.8920 C   0  0  0  0  0  0  0  0  0  0  0  0
   -7.1230   -0.5760    1.0710 N   0  0  0  0  0  0  0  0  0  0  0  0
    8.4680    1.5070    0.1220 C   0  0  0  0  0  0  0  0  0  0  0  0
    7.9240    2.8000    0.1680 N   0  0  0  0  0  0  0  0  0  0  0  0
    9.6860    1.3240    0.0540 O   0  0  0  0  0  0  0  0  0  0  0  0
  1  2  1  0
  2  3  2  3
  3  4  1  0
  3 26  1  0
  4  5  1  0
  5  6  2  0
  5  7  1  0
  7  8  1  0
  8  9  1  0
  9 10  2  0
  9 11  1  0
 11 12  1  0
 12 13  1  0
 12 17  2  0
 13 14  2  0
 14 15  1  0
 15 16  1  0
 15 22  2  0
 16 17  1  0
 16 18  2  0
 18 19  1  0
 18 20  1  0
 20 21  1  0
 21 22  1  0
 22 23  1  0
 23 24  1  6
 23 25  1  0
 26 27  1  0
 26 28  2  0
M  CHG  1  25   1
M  END
