
     RDKit          3D

  9  8  0  0  0  0  0  0  0  0999 V2000
   -4.0620   -0.1200    0.0420 C   0  0  0  0  0  0  0  0  0  0  0  0
   -2.9060   -0.3350    0.6010 C   0  0  0  0  0  0  0  0  0  0  0  0
   -1.6620   -0.0830   -0.1090 C   0  0  0  0  0  0  0  0  0  0  0  0
   -1.6540    0.4310   -1.5220 C   0  0  0  0  0  0  0  0  0  0  0  0
   -0.5240   -0.3180    0.5130 C   0  0  0  0  0  0  0  0  0  0  0  0
    0.7780   -0.1090   -0.0790 C   0  0  0  0  0  0  0  0  0  0  0  0
    1.8560   -0.3760    0.6260 C   0  0  0  0  0  0  0  0  0  0  0  0
    3.2220   -0.1770    0.0620 C   0  0  0  0  0  0  0  0  0  0  0  0
    3.8850    0.7870    0.9210 N   0  0  0  0  0  0  0  0  0  0  0  0
  1  2  2  0
  2  3  1  0
  3  4  1  0
  3  5  2  3
  5  6  1  0
  6  7  2  3
  7  8  1  0
  8  9  1  0
M  END
