
     RDKit          3D

  9  9  0  0  0  0  0  0  0  0999 V2000
    2.2510    0.0070    0.9860 N   0  0  0  0  0  0  0  0  0  0  0  0
    2.0890   -0.6480   -0.2980 C   0  0  0  0  0  0  0  0  0  0  0  0
    1.0960    0.0580   -1.1830 C   0  0  0  0  0  0  0  0  0  0  0  0
   -0.2620    0.1260   -0.5720 C   0  0  0  0  0  0  0  0  0  0  0  0
   -0.6640    1.1750    0.2330 C   0  0  0  0  0  0  0  0  0  0  0  0
   -1.9270    1.2370    0.8010 C   0  0  0  0  0  0  0  0  0  0  0  0
   -2.8370    0.2270    0.5700 C   0  0  0  0  0  0  0  0  0  0  0  0
   -2.4510   -0.8260   -0.2310 C   0  0  0  0  0  0  0  0  0  0  0  0
   -1.1950   -0.8910   -0.7970 C   0  0  0  0  0  0  0  0  0  0  0  0
  1  2  1  0
  2  3  1  0
  3  4  1  0
  4  5  2  0
  4  9  1  0
  5  6  1  0
  6  7  2  0
  7  8  1  0
  8  9  2  0
M  CHG  1   1   1
M  END
