
     RDKit          3D

  9  8  0  0  0  0  0  0  0  0999 V2000
   -1.7930   -0.4080    2.9900 C   0  0  0  0  0  0  0  0  0  0  0  0
   -1.4600   -0.5980    1.7250 C   0  0  0  0  0  0  0  0  0  0  0  0
   -2.2460   -1.5480    0.9120 C   0  0  0  0  0  0  0  0  0  0  0  0
   -0.3370    0.1370    1.1960 C   0  0  0  0  0  0  0  0  0  0  0  0
    0.1450    0.0900   -0.0160 C   0  0  0  0  0  0  0  0  0  0  0  0
   -0.4630   -0.7610   -0.9650 N   0  0  0  0  0  0  0  0  0  0  0  0
    1.2840    0.8720   -0.4530 C   0  0  0  0  0  0  0  0  0  0  0  0
    1.7510    0.8090   -1.6760 C   0  0  0  0  0  0  0  0  0  0  0  0
    2.9140    1.6060   -2.1220 C   0  0  0  0  0  0  0  0  0  0  0  0
  1  2  2  0
  2  3  1  0
  2  4  1  0
  4  5  2  3
  5  6  1  0
  5  7  1  0
  7  8  2  3
  8  9  1  0
M  END
