
     RDKit          3D

 21 23  0  0  0  0  0  0  0  0999 V2000
   -5.7920   -0.8680    1.6710 C   0  0  0  0  0  0  0  0  0  0  0  0
   -4.3320   -0.6280    1.3570 C   0  0  0  0  0  0  0  0  0  0  0  0
   -4.1530   -0.2060    0.0260 O   0  0  0  0  0  0  0  0  0  0  0  0
   -2.8790    0.0560   -0.4240 C   0  0  0  0  0  0  0  0  0  0  0  0
   -1.7810   -0.0900    0.4150 C   0  0  0  0  0  0  0  0  0  0  0  0
   -0.5190    0.1690   -0.0280 C   0  0  0  0  0  0  0  0  0  0  0  0
   -0.3010    0.5800   -1.3260 C   0  0  0  0  0  0  0  0  0  0  0  0
   -1.3700    0.7370   -2.1820 C   0  0  0  0  0  0  0  0  0  0  0  0
   -2.6450    0.4720   -1.7170 C   0  0  0  0  0  0  0  0  0  0  0  0
   -3.6970    0.6410   -2.6100 O   0  0  0  0  0  0  0  0  0  0  0  0
    1.0490    0.7410   -1.8370 C   0  0  0  0  0  0  0  0  0  0  0  0
    1.3090    1.1790   -3.1310 O   0  0  0  0  0  0  0  0  0  0  0  0
    2.0680    0.4700   -1.0680 C   0  0  0  0  0  0  0  0  0  0  0  0
    3.5320    0.5110   -1.1520 C   0  0  0  0  0  0  0  0  0  0  0  0
    4.1440    0.8780   -2.1870 O   0  0  0  0  0  0  0  0  0  0  0  0
    4.0610    0.0660    0.1280 C   0  0  0  0  0  0  0  0  0  0  0  0
    5.5110   -0.0120    0.4530 C   0  0  0  0  0  0  0  0  0  0  0  0
    3.0590   -0.2420    0.9150 C   0  0  0  0  0  0  0  0  0  0  0  0
    3.2250   -0.7220    2.3330 C   0  0  0  0  0  0  0  0  0  0  0  0
    1.7920   -0.2670    0.2030 C   0  0  1  0  0  0  0  0  0  0  0  0
    0.6180    0.0430    0.8150 O   0  0  0  0  0  0  0  0  0  0  0  0
  1  2  1  0
  2  3  1  0
  3  4  1  0
  4  5  2  0
  4  9  1  0
  5  6  1  0
  6  7  2  0
  6 21  1  0
  7  8  1  0
  7 11  1  0
  8  9  2  0
  9 10  1  0
 11 12  1  0
 11 13  2  0
 13 14  1  0
 13 20  1  0
 14 15  2  0
 14 16  1  0
 16 17  1  0
 16 18  2  0
 18 19  1  0
 18 20  1  0
 20 21  1  1
M  END
