
     RDKit          3D

  9  9  0  0  0  0  0  0  0  0999 V2000
   -1.8560   -1.2500   -0.0280 C   0  0  0  0  0  0  0  0  0  0  0  0
   -0.5040   -0.6730    0.0620 C   0  0  0  0  0  0  0  0  0  0  0  0
    0.4850   -1.5520    0.2870 C   0  0  0  0  0  0  0  0  0  0  0  0
    1.9180   -1.3090    0.4260 C   0  0  0  0  0  0  0  0  0  0  0  0
    2.5240   -0.1560    0.1290 C   0  0  0  0  0  0  0  0  0  0  0  0
    2.0100    1.0640   -0.3640 N   0  0  0  0  0  0  0  0  0  0  0  0
    0.6400    1.5030   -0.2860 C   0  0  0  0  0  0  0  0  0  0  0  0
   -0.4250    0.7580   -0.1050 C   0  0  0  0  0  0  0  0  0  0  0  0
   -1.7030    1.4700   -0.0660 C   0  0  0  0  0  0  0  0  0  0  0  0
  1  2  1  0
  2  3  2  0
  2  8  1  0
  3  4  1  0
  4  5  2  0
  5  6  1  0
  6  7  1  0
  7  8  2  0
  8  9  1  0
M  END
