
     RDKit          3D

  9  8  0  0  0  0  0  0  0  0999 V2000
   -3.7230    1.3550   -0.0400 C   0  0  0  0  0  0  0  0  0  0  0  0
   -2.8070    0.2040   -0.1250 C   0  0  0  0  0  0  0  0  0  0  0  0
   -1.5000    0.2820   -0.0450 C   0  0  0  0  0  0  0  0  0  0  0  0
   -0.6730   -0.8930   -0.1380 C   0  0  0  0  0  0  0  0  0  0  0  0
    0.6420   -0.9260   -0.0700 C   0  0  0  0  0  0  0  0  0  0  0  0
    1.3830   -2.2070   -0.1800 C   0  0  0  0  0  0  0  0  0  0  0  0
    1.4140    0.2850    0.1140 C   0  0  0  0  0  0  0  0  0  0  0  0
    2.7490    0.2710    0.1850 C   0  0  0  0  0  0  0  0  0  0  0  0
    3.5010    1.4580    0.3660 N   0  0  0  0  0  0  0  0  0  0  0  0
  1  2  1  0
  2  3  2  3
  3  4  1  0
  4  5  2  3
  5  6  1  0
  5  7  1  0
  7  8  2  3
  8  9  1  0
M  END
