
     RDKit          3D

 28 31  0  0  0  0  0  0  0  0999 V2000
   -2.6350   -3.3000    0.6900 O   0  0  0  0  0  0  0  0  0  0  0  0
   -2.4690   -2.0910    0.5330 C   0  0  0  0  0  0  0  0  0  0  0  0
   -1.1950   -1.5160    0.4680 N   0  0  0  0  0  0  0  0  0  0  0  0
    0.0170   -2.2210    0.5680 C   0  0  0  0  0  0  0  0  0  0  0  0
    0.1200   -3.5950    0.6050 C   0  0  0  0  0  0  0  0  0  0  0  0
    1.3430   -4.2710    0.6690 C   0  0  0  0  0  0  0  0  0  0  0  0
    2.5090   -3.5460    0.6960 C   0  0  0  0  0  0  0  0  0  0  0  0
    2.4580   -2.1750    0.6610 C   0  0  0  0  0  0  0  0  0  0  0  0
    1.2460   -1.5350    0.5990 C   0  0  0  0  0  0  0  0  0  0  0  0
    1.2590   -0.1310    0.6200 N   0  0  0  0  0  0  0  0  0  0  0  0
    2.5130    0.6000    0.4430 C   0  0  0  0  0  0  0  0  0  0  0  0
    3.0260    0.5080   -0.9720 C   0  0  0  0  0  0  0  0  0  0  0  0
    4.3070    1.2680   -1.0530 C   0  0  0  0  0  0  0  0  0  0  0  0
    4.8010    1.8820    0.0320 N   0  0  0  0  0  0  0  0  0  0  0  0
    5.9570    2.5810    0.0060 C   0  0  0  0  0  0  0  0  0  0  0  0
    6.6250    2.6450   -1.1970 C   0  0  0  0  0  0  0  0  0  0  0  0
    6.1160    2.0150   -2.3070 C   0  0  0  0  0  0  0  0  0  0  0  0
    4.9580    1.3340   -2.2120 N   0  0  0  0  0  0  0  0  0  0  0  0
   -3.6740   -1.2370    0.4100 C   0  0  0  0  0  0  0  0  0  0  0  0
   -4.8290   -1.7510    0.4680 N   0  0  0  0  0  0  0  0  0  0  0  0
   -6.0250   -1.0350    0.3640 N   0  0  0  0  0  0  0  0  0  0  0  0
   -6.0130    0.2530    0.1950 C   0  0  0  0  0  0  0  0  0  0  0  0
   -7.2120    1.0090    0.0850 N   0  0  0  0  0  0  0  0  0  0  0  0
   -7.1010    2.4160   -0.0980 C   0  0  0  0  0  0  0  0  0  0  0  0
   -5.8970    2.9610   -0.1600 C   0  0  0  0  0  0  0  0  0  0  0  0
   -4.6580    2.2030   -0.0500 C   0  0  0  0  0  0  0  0  0  0  0  0
   -4.7070    0.8940    0.1220 C   0  0  0  0  0  0  0  0  0  0  0  0
   -3.5290    0.1300    0.2320 O   0  0  0  0  0  0  0  0  0  0  0  0
  1  2  2  0
  2  3  1  0
  2 19  1  0
  3  4  1  0
  4  5  2  0
  4  9  1  0
  5  6  1  0
  6  7  2  0
  7  8  1  0
  8  9  2  0
  9 10  1  0
 10 11  1  0
 11 12  1  0
 12 13  1  0
 13 14  2  0
 13 18  1  0
 14 15  1  0
 15 16  2  0
 16 17  1  0
 17 18  2  0
 19 20  2  0
 19 28  1  0
 20 21  1  0
 21 22  2  0
 22 23  1  0
 22 27  1  0
 23 24  1  0
 24 25  2  0
 25 26  1  0
 26 27  2  0
 27 28  1  0
M  END
