
     RDKit          3D

 12 13  0  0  0  0  0  0  0  0999 V2000
    3.0750   -0.3360    0.1770 C   0  0  0  0  0  0  0  0  0  0  0  0
    1.6050   -0.1540    0.0500 C   0  0  0  0  0  0  0  0  0  0  0  0
    1.0020    1.0810    0.1790 C   0  0  0  0  0  0  0  0  0  0  0  0
   -0.3710    1.2340    0.0580 C   0  0  0  0  0  0  0  0  0  0  0  0
   -0.9910    2.5470    0.1970 C   0  0  0  0  0  0  0  0  0  0  0  0
   -2.2340    2.7020    0.0900 O   0  0  0  0  0  0  0  0  0  0  0  0
   -1.1990    0.1600   -0.1970 C   0  0  0  0  0  0  0  0  0  0  0  0
   -0.6050   -1.0760   -0.3270 C   0  0  0  0  0  0  0  0  0  0  0  0
    0.7750   -1.2270   -0.2050 C   0  0  0  0  0  0  0  0  0  0  0  0
   -1.6490   -1.9570   -0.5750 O   0  0  0  0  0  0  0  0  0  0  0  0
   -2.8970   -1.3840   -0.2180 C   0  0  0  0  0  0  0  0  0  0  0  0
   -2.5820    0.0090   -0.3670 O   0  0  0  0  0  0  0  0  0  0  0  0
  1  2  1  0
  2  3  2  0
  2  9  1  0
  3  4  1  0
  4  5  1  0
  4  7  2  0
  5  6  2  0
  7  8  1  0
  7 12  1  0
  8  9  2  0
  8 10  1  0
 10 11  1  0
 11 12  1  0
M  END
