
     RDKit          3D

 28 31  0  0  0  0  0  0  0  0999 V2000
   -1.4410    1.3470   -1.7950 C   0  0  0  0  0  0  0  0  0  0  0  0
   -2.0520    0.5500   -0.6960 C   0  0  0  0  0  0  0  0  0  0  0  0
   -1.2750   -0.0840    0.2490 C   0  0  0  0  0  0  0  0  0  0  0  0
    0.1810   -0.0180    0.2430 C   0  0  0  0  0  0  0  0  0  0  0  0
    0.8820    1.1500    0.0770 C   0  0  0  0  0  0  0  0  0  0  0  0
    2.2800    1.1830    0.0700 C   0  0  0  0  0  0  0  0  0  0  0  0
    3.0040    0.0230    0.2310 C   0  0  0  0  0  0  0  0  0  0  0  0
    4.4680   -0.0100    0.2320 C   0  0  0  0  0  0  0  0  0  0  0  0
    5.2120    0.6790   -0.7030 C   0  0  0  0  0  0  0  0  0  0  0  0
    6.5910    0.6450   -0.6980 C   0  0  0  0  0  0  0  0  0  0  0  0
    7.2840   -0.0900    0.2560 C   0  0  0  0  0  0  0  0  0  0  0  0
    6.5490   -0.7720    1.1830 C   0  0  0  0  0  0  0  0  0  0  0  0
    5.1700   -0.7400    1.1800 C   0  0  0  0  0  0  0  0  0  0  0  0
    4.4580   -1.4210    2.1050 F   0  0  0  0  0  0  0  0  0  0  0  0
    2.2830   -1.1380    0.3960 C   0  0  0  0  0  0  0  0  0  0  0  0
    0.9130   -1.1910    0.4060 C   0  0  0  0  0  0  0  0  0  0  0  0
   -1.8870   -0.8070    1.2280 N   0  0  0  0  0  0  0  0  0  0  0  0
   -3.2200   -0.9370    1.3250 C   0  0  0  0  0  0  0  0  0  0  0  0
   -3.7770   -1.6810    2.3360 C   0  0  0  0  0  0  0  0  0  0  0  0
   -5.1450   -1.8020    2.4180 C   0  0  0  0  0  0  0  0  0  0  0  0
   -5.9750   -1.1760    1.4800 C   0  0  0  0  0  0  0  0  0  0  0  0
   -7.3170   -1.3020    1.5690 F   0  0  0  0  0  0  0  0  0  0  0  0
   -5.3670   -0.4430    0.4860 C   0  0  0  0  0  0  0  0  0  0  0  0
   -4.0000   -0.2930    0.3650 C   0  0  0  0  0  0  0  0  0  0  0  0
   -3.4250    0.4490   -0.6450 C   0  0  0  0  0  0  0  0  0  0  0  0
   -4.2770    1.1050   -1.6250 C   0  0  0  0  0  0  0  0  0  0  0  0
   -4.6380    0.5550   -2.6980 O   0  0  0  0  0  0  0  0  0  0  0  0
   -4.7300    2.4000   -1.4000 O   0  0  0  0  0  0  0  0  0  0  0  0
  1  2  1  0
  2  3  2  0
  2 25  1  0
  3  4  1  0
  3 17  1  0
  4  5  2  0
  4 16  1  0
  5  6  1  0
  6  7  2  0
  7  8  1  0
  7 15  1  0
  8  9  2  0
  8 13  1  0
  9 10  1  0
 10 11  2  0
 11 12  1  0
 12 13  2  0
 13 14  1  0
 15 16  2  0
 17 18  2  0
 18 19  1  0
 18 24  1  0
 19 20  2  0
 20 21  1  0
 21 22  1  0
 21 23  2  0
 23 24  1  0
 24 25  2  0
 25 26  1  0
 26 27  2  0
 26 28  1  0
M  END
