
     RDKit          3D

 28 31  0  0  0  0  0  0  0  0999 V2000
    6.5140   -1.1710    1.6150 C   0  0  0  0  0  0  0  0  0  0  0  0
    6.8630   -1.1520    0.1410 C   0  0  0  0  0  0  0  0  0  0  0  0
    5.8780   -1.7870   -0.7420 C   0  0  0  0  0  0  0  0  0  0  0  0
    4.5210   -1.3380   -0.8930 C   0  0  0  0  0  0  0  0  0  0  0  0
    3.9010   -0.2540   -0.5430 C   0  0  0  0  0  0  0  0  0  0  0  0
    4.4140    0.9050    0.1390 C   0  0  0  0  0  0  0  0  0  0  0  0
    3.6290    1.9640    0.4410 C   0  0  0  0  0  0  0  0  0  0  0  0
    4.2440    3.1230    1.1500 C   0  0  0  0  0  0  0  0  0  0  0  0
    2.2360    1.9290    0.0620 C   0  0  0  0  0  0  0  0  0  0  0  0
    1.7060    0.8880   -0.5710 C   0  0  0  0  0  0  0  0  0  0  0  0
    0.2940    0.9590   -0.9040 C   0  0  0  0  0  0  0  0  0  0  0  0
   -0.4020    1.9590   -0.6040 O   0  0  0  0  0  0  0  0  0  0  0  0
   -0.3710   -0.1060   -1.5890 N   0  0  0  0  0  0  0  0  0  0  0  0
   -1.7580   -0.0720   -1.9350 C   0  0  0  0  0  0  0  0  0  0  0  0
   -2.6390   -0.3320   -0.7720 C   0  0  0  0  0  0  0  0  0  0  0  0
   -2.2060   -0.7360    0.4320 N   0  0  0  0  0  0  0  0  0  0  0  0
   -3.2500   -0.8760    1.2580 N   0  0  0  0  0  0  0  0  0  0  0  0
   -4.3480   -0.5500    0.5480 C   0  0  0  0  0  0  0  0  0  0  0  0
   -5.7070   -0.5730    1.0860 C   0  0  0  0  0  0  0  0  0  0  0  0
   -6.0900   -0.9090    2.3320 N   0  0  0  0  0  0  0  0  0  0  0  0
   -7.4260   -0.7970    2.4260 C   0  0  0  0  0  0  0  0  0  0  0  0
   -7.9360   -0.3860    1.2450 N   0  0  0  0  0  0  0  0  0  0  0  0
   -6.8860   -0.2480    0.4210 C   0  0  0  0  0  0  0  0  0  0  0  0
   -7.4340    0.2020   -0.8740 C   0  0  0  0  0  0  0  0  0  0  0  0
   -8.8870    0.2840   -0.6360 C   0  0  0  0  0  0  0  0  0  0  0  0
   -9.1130   -0.0590    0.5770 N   0  0  0  0  0  0  0  0  0  0  0  0
   -3.9720   -0.2220   -0.6780 N   0  0  0  0  0  0  0  0  0  0  0  0
    2.5110   -0.1640   -0.8620 O   0  0  0  0  0  0  0  0  0  0  0  0
  1  2  1  0
  2  3  1  0
  3  4  1  0
  4  5  2  3
  5  6  1  0
  5 28  1  0
  6  7  2  0
  7  8  1  0
  7  9  1  0
  9 10  2  0
 10 11  1  0
 10 28  1  0
 11 12  2  0
 11 13  1  0
 13 14  1  0
 14 15  1  0
 15 16  2  0
 15 27  1  0
 16 17  1  0
 17 18  1  0
 18 19  1  0
 18 27  2  0
 19 20  1  0
 19 23  2  0
 20 21  2  0
 21 22  1  0
 22 23  1  0
 22 26  1  0
 23 24  1  0
 24 25  1  0
 25 26  2  0
M  END
