
     RDKit          3D

 12 13  0  0  0  0  0  0  0  0999 V2000
    0.4500   -1.2680    0.0200 C   0  0  0  0  0  0  0  0  0  0  0  0
   -0.6460   -0.5550   -0.0870 C   0  0  0  0  0  0  0  0  0  0  0  0
   -0.7720    0.8930   -0.1840 C   0  0  0  0  0  0  0  0  0  0  0  0
   -1.7690    1.2410   -1.0970 O   0  0  0  0  0  0  0  0  0  0  0  0
   -3.0020    0.7340   -0.8600 C   0  0  0  0  0  0  0  0  0  0  0  0
   -3.0430   -0.5170   -0.0260 C   0  0  0  0  0  0  0  0  0  0  0  0
   -1.8560   -1.2670   -0.1130 O   0  0  0  0  0  0  0  0  0  0  0  0
    1.8050   -0.7400    0.0640 C   0  0  0  0  0  0  0  0  0  0  0  0
    2.2420    0.3270    0.7880 C   0  0  0  0  0  0  0  0  0  0  0  0
    3.6080    0.4930    0.5420 C   0  0  0  0  0  0  0  0  0  0  0  0
    3.9110   -0.5150   -0.3430 C   0  0  0  0  0  0  0  0  0  0  0  0
    2.8410   -1.2030   -0.5930 O   0  0  0  0  0  0  0  0  0  0  0  0
  1  2  2  3
  1  8  1  0
  2  3  1  0
  2  7  1  0
  3  4  1  0
  4  5  1  0
  5  6  1  0
  6  7  1  0
  8  9  2  0
  8 12  1  0
  9 10  1  0
 10 11  2  0
 11 12  1  0
M  END
