
     RDKit          3D

 15 15  0  0  0  0  0  0  0  0999 V2000
    3.4470   -1.9700   -0.3610 C   0  0  0  0  0  0  0  0  0  0  0  0
    3.3990   -0.6610   -0.1930 C   0  0  0  0  0  0  0  0  0  0  0  0
    2.1240    0.0660   -0.1480 C   0  0  0  0  0  0  0  0  0  0  0  0
    0.9940   -0.5390   -0.2700 N   0  0  0  0  0  0  0  0  0  0  0  0
   -0.2540    0.1470   -0.2300 C   0  0  0  0  0  0  0  0  0  0  0  0
   -1.4120   -0.4790   -0.3560 C   0  0  0  0  0  0  0  0  0  0  0  0
   -1.4120   -1.8690   -0.5360 N   0  0  0  0  0  0  0  0  0  0  0  0
   -1.2790   -2.7530    0.5970 C   0  0  0  0  0  0  0  0  0  0  0  0
   -2.6160    0.3020   -0.3010 N   0  0  0  0  0  0  0  0  0  0  0  0
   -2.6930    1.6490   -0.8260 C   0  0  0  0  0  0  0  0  0  0  0  0
   -3.8060   -0.2610    0.2970 C   0  0  0  0  0  0  0  0  0  0  0  0
   -0.2050    1.5560   -0.0460 N   0  0  0  0  0  0  0  0  0  0  0  0
    0.8810    2.2200    0.0820 C   0  0  0  0  0  0  0  0  0  0  0  0
    2.1130    1.4750    0.0340 N   0  0  0  0  0  0  0  0  0  0  0  0
    3.3410    2.2170    0.1770 C   0  0  0  0  0  0  0  0  0  0  0  0
  1  2  2  0
  2  3  1  0
  3  4  2  0
  3 14  1  0
  4  5  1  0
  5  6  2  3
  5 12  1  0
  6  7  1  0
  6  9  1  0
  7  8  1  0
  9 10  1  0
  9 11  1  0
 12 13  2  0
 13 14  1  0
 14 15  1  0
M  END
