
     RDKit          3D

 15 16  0  0  0  0  0  0  0  0999 V2000
   -2.2080   -2.0310   -1.2160 C   0  0  0  0  0  0  0  0  0  0  0  0
   -0.9350   -1.4090   -0.7570 C   0  0  0  0  0  0  0  0  0  0  0  0
    0.2890   -1.8730   -0.9590 N   0  0  0  0  0  0  0  0  0  0  0  0
    1.1520   -1.0200   -0.3860 C   0  0  0  0  0  0  0  0  0  0  0  0
    2.5600   -1.1530   -0.3750 N   0  0  0  0  0  0  0  0  0  0  0  0
    3.4040   -0.1820    0.2690 C   0  0  1  0  0  0  0  0  0  0  0  0
    3.1510    1.1530   -0.4100 C   0  0  0  0  0  0  0  0  0  0  0  0
    3.1220   -0.1000    1.7570 C   0  0  0  0  0  0  0  0  0  0  0  0
    0.3970   -0.0330    0.1650 N   0  0  0  0  0  0  0  0  0  0  0  0
   -0.8650   -0.2640   -0.0580 N   0  0  0  0  0  0  0  0  0  0  0  0
   -2.0120    0.5160    0.3410 C   0  0  0  0  0  0  0  0  0  0  0  0
   -2.8030    0.3350    1.4650 C   0  0  0  0  0  0  0  0  0  0  0  0
   -3.8040    1.2860    1.4960 C   0  0  0  0  0  0  0  0  0  0  0  0
   -3.6230    2.0400    0.3980 N   0  0  0  0  0  0  0  0  0  0  0  0
   -2.5600    1.6030   -0.3090 C   0  0  0  0  0  0  0  0  0  0  0  0
  1  2  1  0
  2  3  2  0
  2 10  1  0
  3  4  1  0
  4  5  1  0
  4  9  2  0
  5  6  1  0
  6  7  1  6
  6  8  1  0
  9 10  1  0
 10 11  1  0
 11 12  1  0
 11 15  2  0
 12 13  2  0
 13 14  1  0
 14 15  1  0
M  END
