
     RDKit          3D

 15 16  0  0  0  0  0  0  0  0999 V2000
    3.5360   -0.1020   -1.4790 C   0  0  0  0  0  0  0  0  0  0  0  0
    3.7640    0.5800   -0.1290 C   0  0  0  0  0  0  0  0  0  0  0  0
    2.8000   -0.0020    0.8410 C   0  0  0  0  0  0  0  0  0  0  0  0
    3.0120   -0.9110    1.8260 N   0  0  0  0  0  0  0  0  0  0  0  0
    1.8810   -1.1690    2.4690 N   0  0  0  0  0  0  0  0  0  0  0  0
    0.9020   -0.4360    1.9230 C   0  0  0  0  0  0  0  0  0  0  0  0
    1.4500    0.3010    0.9040 C   0  0  0  0  0  0  0  0  0  0  0  0
    0.7820    1.2210    0.0570 N   0  0  0  0  0  0  0  0  0  0  0  0
   -0.6430    1.4740    0.1410 C   0  0  0  0  0  0  0  0  0  0  0  0
   -1.4290    0.2410   -0.1500 C   0  0  0  0  0  0  0  0  0  0  0  0
   -0.8920   -0.9000   -0.4060 N   0  0  0  0  0  0  0  0  0  0  0  0
   -1.9060   -1.9040   -0.6460 C   0  0  0  0  0  0  0  0  0  0  0  0
   -3.2010   -1.1590   -0.7280 C   0  0  0  0  0  0  0  0  0  0  0  0
   -2.8440    0.1500   -0.1890 N   0  0  0  0  0  0  0  0  0  0  0  0
   -3.8180    1.1640    0.2250 C   0  0  0  0  0  0  0  0  0  0  0  0
  1  2  1  0
  2  3  1  0
  3  4  2  0
  3  7  1  0
  4  5  1  0
  5  6  1  0
  6  7  2  0
  7  8  1  0
  8  9  1  0
  9 10  1  0
 10 11  2  0
 10 14  1  0
 11 12  1  0
 12 13  1  0
 13 14  1  0
 14 15  1  0
M  END
