
     RDKit          3D

 16 17  0  0  0  0  0  0  0  0999 V2000
    2.0060   -2.7550   -0.2690 C   0  0  0  0  0  0  0  0  0  0  0  0
    2.5950   -1.4010   -0.0570 C   0  0  0  0  0  0  0  0  0  0  0  0
    3.8480   -1.1190    0.0570 N   0  0  0  0  0  0  0  0  0  0  0  0
    4.0210    0.2920    0.2500 C   0  0  0  0  0  0  0  0  0  0  0  0
    5.1420    0.9620    0.4070 C   0  0  0  0  0  0  0  0  0  0  0  0
    5.1140    2.6860    0.6280 Cl  0  0  0  0  0  0  0  0  0  0  0  0
    2.6780    0.8120    0.2340 N   0  0  0  0  0  0  0  0  0  0  0  0
    1.8490   -0.1550    0.0580 C   0  0  0  0  0  0  0  0  0  0  0  0
    0.4210    0.0190   -0.0080 N   0  0  0  0  0  0  0  0  0  0  0  0
   -0.0940    1.3240   -0.2490 C   0  0  0  0  0  0  0  0  0  0  0  0
   -1.6180    1.1930   -0.2650 C   0  0  0  0  0  0  0  0  0  0  0  0
   -2.4490    0.3560   -0.1380 N   0  0  0  0  0  0  0  0  0  0  0  0
   -3.7490    0.4930   -0.1950 C   0  0  0  0  0  0  0  0  0  0  0  0
   -4.7320   -0.6530   -0.0180 C   0  0  0  0  0  0  0  0  0  0  0  0
   -4.2050    1.7430   -0.4270 C   0  0  0  0  0  0  0  0  0  0  0  0
   -2.6280    2.6880   -0.5530 S   0  0  0  0  0  0  0  0  0  0  0  0
  1  2  1  0
  2  3  2  0
  2  8  1  0
  3  4  1  0
  4  5  2  3
  4  7  1  0
  5  6  1  0
  7  8  2  0
  8  9  1  0
  9 10  1  0
 10 11  1  0
 11 12  2  0
 11 16  1  0
 12 13  1  0
 13 14  1  0
 13 15  2  0
 15 16  1  0
M  END
