
     RDKit          3D

 27 29  0  0  0  0  0  0  0  0999 V2000
    1.9190   -2.1190   -1.3730 C   0  0  0  0  0  0  0  0  0  0  0  0
    1.4840   -0.8050   -0.8370 C   0  0  0  0  0  0  0  0  0  0  0  0
    2.3790    0.2400   -0.5830 C   0  0  0  0  0  0  0  0  0  0  0  0
    1.9620    1.4430   -0.0890 C   0  0  0  0  0  0  0  0  0  0  0  0
    2.8480    2.5090    0.1450 N   0  0  0  0  0  0  0  0  0  0  0  0
    4.2410    2.2810    1.1130 S   0  0  2  0  0  0  0  0  0  0  0  0
    3.7350    1.9340    2.5050 O   0  0  0  0  0  0  0  0  0  0  0  0
    4.8940    3.6520    1.2850 O   0  0  0  0  0  0  0  0  0  0  0  0
    5.3770    1.1270    0.5410 C   0  0  0  0  0  0  0  0  0  0  0  0
    5.4340   -0.1270    1.0810 C   0  0  0  0  0  0  0  0  0  0  0  0
    6.3330   -1.0510    0.6330 C   0  0  0  0  0  0  0  0  0  0  0  0
    7.2020   -0.7270   -0.3800 C   0  0  0  0  0  0  0  0  0  0  0  0
    7.1530    0.5390   -0.9340 C   0  0  0  0  0  0  0  0  0  0  0  0
    6.2390    1.4580   -0.4690 C   0  0  0  0  0  0  0  0  0  0  0  0
    0.6200    1.6420    0.1690 C   0  0  0  0  0  0  0  0  0  0  0  0
   -0.2860    0.6080   -0.0800 C   0  0  0  0  0  0  0  0  0  0  0  0
   -1.6300    0.8160    0.1830 O   0  0  0  0  0  0  0  0  0  0  0  0
   -2.5450   -0.2140   -0.0640 C   0  0  0  0  0  0  0  0  0  0  0  0
   -3.9620    0.1690    0.2720 C   0  0  0  0  0  0  0  0  0  0  0  0
   -4.8280   -0.9490   -0.0130 N   0  0  0  0  0  0  0  0  0  0  0  0
   -6.2190   -0.8090    0.2310 C   0  0  0  0  0  0  0  0  0  0  0  0
   -7.1160   -1.8400   -0.0180 C   0  0  0  0  0  0  0  0  0  0  0  0
   -8.4660   -1.6910    0.2240 C   0  0  0  0  0  0  0  0  0  0  0  0
   -8.9420   -0.5320    0.7090 N   0  0  0  0  0  0  0  0  0  0  0  0
   -8.0890    0.4900    0.9610 C   0  0  0  0  0  0  0  0  0  0  0  0
   -6.7360    0.3640    0.7270 C   0  0  0  0  0  0  0  0  0  0  0  0
    0.1450   -0.6060   -0.5790 C   0  0  0  0  0  0  0  0  0  0  0  0
  1  2  1  0
  2  3  2  0
  2 27  1  0
  3  4  1  0
  4  5  1  0
  4 15  2  0
  6  5  1  6
  6  7  2  0
  6  8  2  0
  6  9  1  0
  9 10  2  0
  9 14  1  0
 10 11  1  0
 11 12  2  0
 12 13  1  0
 13 14  2  0
 15 16  1  0
 16 17  1  0
 16 27  2  0
 17 18  1  0
 18 19  1  0
 19 20  1  0
 20 21  1  0
 21 22  2  0
 21 26  1  0
 22 23  1  0
 23 24  2  0
 24 25  1  0
 25 26  2  0
M  END
