
     RDKit          3D

 16 17  0  0  0  0  0  0  0  0999 V2000
   -1.7550    3.0400   -1.3360 S   0  0  0  0  0  0  0  0  0  0  0  0
   -1.8280    1.3550   -0.7750 C   0  0  0  0  0  0  0  0  0  0  0  0
   -2.9200    0.6420   -1.0900 C   0  0  0  0  0  0  0  0  0  0  0  0
   -4.0790    1.5690   -2.0230 Cl  0  0  0  0  0  0  0  0  0  0  0  0
   -3.3320   -0.7320   -0.8160 C   0  0  0  0  0  0  0  0  0  0  0  0
   -2.2670   -1.6140   -0.4210 N   0  0  0  0  0  0  0  0  0  0  0  0
   -1.6890   -1.2650    0.8620 C   0  0  0  0  0  0  0  0  0  0  0  0
   -0.6210   -0.2540    0.6800 C   0  0  0  0  0  0  0  0  0  0  0  0
    0.6330   -0.4590    1.3120 N   0  0  0  0  0  0  0  0  0  0  0  0
    1.8470   -0.1370    0.6530 C   0  0  0  0  0  0  0  0  0  0  0  0
    3.0400   -0.1640    1.3920 C   0  0  0  0  0  0  0  0  0  0  0  0
    4.2440    0.1280    0.7990 C   0  0  0  0  0  0  0  0  0  0  0  0
    4.3310    0.4550   -0.5230 C   0  0  0  0  0  0  0  0  0  0  0  0
    3.1870    0.4800   -1.2250 N   0  0  0  0  0  0  0  0  0  0  0  0
    1.9770    0.1950   -0.6680 C   0  0  0  0  0  0  0  0  0  0  0  0
   -0.7420    0.8350   -0.0260 N   0  0  0  0  0  0  0  0  0  0  0  0
  1  2  1  0
  2  3  2  0
  2 16  1  0
  3  4  1  0
  3  5  1  0
  5  6  1  0
  6  7  1  0
  7  8  1  0
  8  9  1  0
  8 16  2  0
  9 10  1  0
 10 11  2  0
 10 15  1  0
 11 12  1  0
 12 13  2  0
 13 14  1  0
 14 15  2  0
M  END
