
     RDKit          3D

 16 17  0  0  0  0  0  0  0  0999 V2000
   -3.6010    0.6330   -0.9130 C   0  0  0  0  0  0  0  0  0  0  0  0
   -2.7550   -0.2510    0.0000 C   0  0  1  0  0  0  0  0  0  0  0  0
   -2.7470    0.3890    1.3680 C   0  0  0  0  0  0  0  0  0  0  0  0
   -3.3290   -1.6160    0.1250 C   0  0  0  0  0  0  0  0  0  0  0  0
   -1.4230   -0.3100   -0.5560 C   0  0  0  0  0  0  0  0  0  0  0  0
   -1.0450   -0.6170   -1.8170 N   0  0  0  0  0  0  0  0  0  0  0  0
    0.1420   -0.5840   -2.1490 N   0  0  0  0  0  0  0  0  0  0  0  0
    1.1350   -0.2630   -1.3790 C   0  0  0  0  0  0  0  0  0  0  0  0
    2.5000   -0.0300   -1.4370 N   0  0  0  0  0  0  0  0  0  0  0  0
    3.3300    0.2290   -0.3070 C   0  0  0  0  0  0  0  0  0  0  0  0
    3.0750   -0.1290    1.0150 C   0  0  0  0  0  0  0  0  0  0  0  0
    4.1660    0.2660    1.7780 C   0  0  0  0  0  0  0  0  0  0  0  0
    5.0590    0.8470    0.9360 N   0  0  0  0  0  0  0  0  0  0  0  0
    4.5850    0.8320   -0.3040 C   0  0  0  0  0  0  0  0  0  0  0  0
    5.3420    1.4660   -1.7900 Cl  0  0  0  0  0  0  0  0  0  0  0  0
    0.1330    0.0490    0.1750 S   0  0  0  0  0  0  0  0  0  0  0  0
  2  1  1  6
  2  3  1  0
  2  4  1  0
  2  5  1  0
  5  6  2  0
  5 16  1  0
  6  7  1  0
  7  8  2  0
  8  9  1  0
  8 16  1  0
  9 10  1  0
 10 11  1  0
 10 14  2  0
 11 12  2  0
 12 13  1  0
 13 14  1  0
 14 15  1  0
M  END
