
     RDKit          3D

 16 17  0  0  0  0  0  0  0  0999 V2000
    4.7800    0.2860    1.3090 N   0  0  0  0  0  0  0  0  0  0  0  0
    3.6340    0.0700    0.4970 C   0  0  0  0  0  0  0  0  0  0  0  0
    3.7000   -0.5970   -0.6990 C   0  0  0  0  0  0  0  0  0  0  0  0
    2.5630   -0.7780   -1.4440 C   0  0  0  0  0  0  0  0  0  0  0  0
    1.3050   -0.3110   -1.0450 C   0  0  0  0  0  0  0  0  0  0  0  0
    0.1700   -0.5240   -1.8650 N   0  0  0  0  0  0  0  0  0  0  0  0
   -1.1470   -0.1780   -1.4680 C   0  0  0  0  0  0  0  0  0  0  0  0
   -2.2360    0.5510   -2.6380 Cl  0  0  0  0  0  0  0  0  0  0  0  0
   -1.4700   -0.4290   -0.2520 N   0  0  0  0  0  0  0  0  0  0  0  0
   -2.7920   -0.1140    0.2570 C   0  0  0  0  0  0  0  0  0  0  0  0
   -3.7890   -0.1080   -0.4670 N   0  0  0  0  0  0  0  0  0  0  0  0
   -5.0750    0.2040    0.0550 C   0  0  0  0  0  0  0  0  0  0  0  0
   -4.6370    0.9370    1.6630 S   0  0  0  0  0  0  0  0  0  0  0  0
   -2.9450    0.2110    1.6890 C   0  0  0  0  0  0  0  0  0  0  0  0
    1.2850    0.3520    0.1600 C   0  0  0  0  0  0  0  0  0  0  0  0
    2.4140    0.5450    0.9230 C   0  0  0  0  0  0  0  0  0  0  0  0
  1  2  1  0
  2  3  2  0
  2 16  1  0
  3  4  1  0
  4  5  2  0
  5  6  1  0
  5 15  1  0
  6  7  1  0
  7  8  1  0
  7  9  2  3
  9 10  1  0
 10 11  2  0
 10 14  1  0
 11 12  1  0
 12 13  1  0
 13 14  1  0
 15 16  2  0
M  END
