
     RDKit          3D

 27 28  0  0  0  0  0  0  0  0999 V2000
    6.1550    0.8220   -0.3200 O   0  0  0  0  0  0  0  0  0  0  0  0
    5.6370    1.9220    0.0240 C   0  0  0  0  0  0  0  0  0  0  0  0
    4.4530    2.2810   -0.5990 O   0  0  0  0  0  0  0  0  0  0  0  0
    3.8340    1.4650   -1.5790 C   0  0  0  0  0  0  0  0  0  0  0  0
    2.5810    2.1290   -2.0530 C   0  0  0  0  0  0  0  0  0  0  0  0
    1.5270    2.3380   -0.9940 C   0  0  0  0  0  0  0  0  0  0  0  0
    1.0550    1.1080   -0.4370 N   0  0  0  0  0  0  0  0  0  0  0  0
    1.6020    0.4380    0.7440 C   0  0  0  0  0  0  0  0  0  0  0  0
    2.5300    1.0060    1.3230 O   0  0  0  0  0  0  0  0  0  0  0  0
    1.1230   -0.8160    1.2560 N   0  0  0  0  0  0  0  0  0  0  0  0
    0.7830   -2.0450    0.5920 C   0  0  0  0  0  0  0  0  0  0  0  0
   -0.5130   -2.7170    0.8730 C   0  0  0  0  0  0  0  0  0  0  0  0
   -1.3860   -2.9120   -0.1460 O   0  0  0  0  0  0  0  0  0  0  0  0
   -2.6860   -3.1380   -0.0590 C   0  0  0  0  0  0  0  0  0  0  0  0
   -3.3600   -2.6200   -1.4040 C   0  0  0  0  0  0  0  0  0  0  0  0
   -2.2160   -2.1060   -2.2090 C   0  0  0  0  0  0  0  0  0  0  0  0
   -1.3990   -1.1040   -1.8260 C   0  0  0  0  0  0  0  0  0  0  0  0
   -0.4280   -0.9010   -2.7660 O   0  0  0  0  0  0  0  0  0  0  0  0
    0.3760   -0.0350   -2.4340 N   0  0  0  0  0  0  0  0  0  0  0  0
   -0.0310    0.4190   -1.1850 C   0  0  0  0  0  0  0  0  0  0  0  0
   -1.1810   -0.2200   -0.7870 C   0  0  0  0  0  0  0  0  0  0  0  0
   -2.0780    0.1370    0.2080 C   0  0  0  0  0  0  0  0  0  0  0  0
   -2.1990    0.9500    1.3490 C   0  0  0  0  0  0  0  0  0  0  0  0
   -3.4520    0.8780    1.9750 C   0  0  0  0  0  0  0  0  0  0  0  0
   -3.7440    1.5870    3.0770 O   0  0  0  0  0  0  0  0  0  0  0  0
   -1.3730    1.9410    2.0140 C   0  0  0  0  0  0  0  0  0  0  0  0
   -0.2160    1.6040    2.6040 O   0  0  0  0  0  0  0  0  0  0  0  0
  1  2  2  0
  2  3  1  0
  3  4  1  0
  4  5  1  0
  5  6  1  0
  6  7  1  0
  7  8  1  0
  7 20  1  0
  8  9  2  0
  8 10  1  0
 10 11  1  0
 11 12  1  0
 12 13  1  0
 13 14  1  0
 14 15  1  0
 15 16  1  0
 16 17  2  0
 17 18  1  0
 17 21  1  0
 18 19  1  0
 19 20  2  0
 20 21  1  0
 21 22  2  3
 22 23  1  0
 23 24  2  3
 23 26  1  0
 24 25  1  0
 26 27  1  0
M  END
