
     RDKit          3D

 27 28  0  0  0  0  0  0  0  0999 V2000
   -4.1930   -0.8420   -1.4360 C   0  0  0  0  0  0  0  0  0  0  0  0
   -2.8100   -0.5900   -1.3470 O   0  0  0  0  0  0  0  0  0  0  0  0
   -1.9370   -1.4030   -0.6710 C   0  0  0  0  0  0  0  0  0  0  0  0
   -2.4090   -2.4410   -0.0940 O   0  0  0  0  0  0  0  0  0  0  0  0
   -0.4820   -1.1100   -0.5960 C   0  0  0  0  0  0  0  0  0  0  0  0
    0.2790   -1.9440    0.0530 C   0  0  0  0  0  0  0  0  0  0  0  0
    1.6550   -1.7930    0.2040 N   0  0  0  0  0  0  0  0  0  0  0  0
    2.2630   -1.8040    1.4970 C   0  0  0  0  0  0  0  0  0  0  0  0
    1.8380   -1.1470    2.4500 N   0  0  0  0  0  0  0  0  0  0  0  0
    0.7620   -0.2900    2.5480 C   0  0  0  0  0  0  0  0  0  0  0  0
   -0.4310   -0.7490    2.6040 O   0  0  0  0  0  0  0  0  0  0  0  0
    0.8910    1.1750    2.5970 C   0  0  0  0  0  0  0  0  0  0  0  0
   -0.2160    1.9720    2.7100 C   0  0  0  0  0  0  0  0  0  0  0  0
   -0.1120    3.3650    2.7650 C   0  0  0  0  0  0  0  0  0  0  0  0
    1.0780    3.8960    2.7060 O   0  0  0  0  0  0  0  0  0  0  0  0
    2.1620    3.1780    2.5980 C   0  0  0  0  0  0  0  0  0  0  0  0
    3.2790    3.7790    2.5480 O   0  0  0  0  0  0  0  0  0  0  0  0
    2.1190    1.7880    2.5390 C   0  0  0  0  0  0  0  0  0  0  0  0
   -0.3720   -3.0590    0.6210 O   0  0  0  0  0  0  0  0  0  0  0  0
   -0.1390   -4.3440    0.0340 C   0  0  0  0  0  0  0  0  0  0  0  0
   -0.0440    0.0940   -1.2950 C   0  0  0  0  0  0  0  0  0  0  0  0
    0.9500    0.1220   -2.2240 C   0  0  0  0  0  0  0  0  0  0  0  0
    1.3310    1.3290   -2.8260 C   0  0  0  0  0  0  0  0  0  0  0  0
    0.7130    2.5260   -2.4980 C   0  0  0  0  0  0  0  0  0  0  0  0
   -0.2610    2.4490   -1.5790 N   0  0  0  0  0  0  0  0  0  0  0  0
   -0.6430    1.3250   -0.9930 C   0  0  0  0  0  0  0  0  0  0  0  0
   -1.5710    1.3270   -0.1330 O   0  0  0  0  0  0  0  0  0  0  0  0
  1  2  1  0
  2  3  1  0
  3  4  2  0
  3  5  1  0
  5  6  2  3
  5 21  1  0
  6  7  1  0
  6 19  1  0
  7  8  1  0
  8  9  2  3
  9 10  1  0
 10 11  2  0
 10 12  1  0
 12 13  1  0
 12 18  2  0
 13 14  2  0
 14 15  1  0
 15 16  1  0
 16 17  2  0
 16 18  1  0
 19 20  1  0
 21 22  2  0
 21 26  1  0
 22 23  1  0
 23 24  2  0
 24 25  1  0
 25 26  1  0
 26 27  2  0
M  END
