
     RDKit          3D

 27 28  0  0  0  0  0  0  0  0999 V2000
    6.9540    1.6270    0.9730 C   0  0  0  0  0  0  0  0  0  0  0  0
    6.3220    0.9110   -0.0810 O   0  0  0  0  0  0  0  0  0  0  0  0
    7.0410    0.1370   -0.9720 C   0  0  0  0  0  0  0  0  0  0  0  0
    8.2840    0.0750   -0.8340 O   0  0  0  0  0  0  0  0  0  0  0  0
    6.4130   -0.6190   -2.0790 C   0  0  0  0  0  0  0  0  0  0  0  0
    4.9990   -0.4210   -2.0680 O   0  0  0  0  0  0  0  0  0  0  0  0
    4.2500   -0.7960   -0.9450 C   0  0  0  0  0  0  0  0  0  0  0  0
    4.8770   -1.2920    0.0010 O   0  0  0  0  0  0  0  0  0  0  0  0
    2.8600   -0.6340   -0.8580 N   0  0  0  0  0  0  0  0  0  0  0  0
    2.0590   -0.9950    0.2480 C   0  0  0  0  0  0  0  0  0  0  0  0
    2.4470   -1.5430    1.3970 N   0  0  0  0  0  0  0  0  0  0  0  0
    1.3920   -1.7440    2.2150 C   0  0  0  0  0  0  0  0  0  0  0  0
    0.3130   -1.3070    1.5570 N   0  0  0  0  0  0  0  0  0  0  0  0
    0.6970   -0.8470    0.3580 C   0  0  0  0  0  0  0  0  0  0  0  0
   -0.1700   -0.2650   -0.7080 C   0  0  0  0  0  0  0  0  0  0  0  0
   -1.5190   -0.2760   -0.2320 O   0  0  0  0  0  0  0  0  0  0  0  0
   -2.5730    0.1950   -0.9790 C   0  0  0  0  0  0  0  0  0  0  0  0
   -2.3440    0.6520   -2.1200 O   0  0  0  0  0  0  0  0  0  0  0  0
   -3.9530    0.1850   -0.4960 C   0  0  0  0  0  0  0  0  0  0  0  0
   -4.8360    0.6770   -1.3470 C   0  0  0  0  0  0  0  0  0  0  0  0
   -6.2970    0.8830   -1.3400 C   0  0  0  0  0  0  0  0  0  0  0  0
   -7.1850    1.1040   -0.4040 C   0  0  0  0  0  0  0  0  0  0  0  0
   -7.1890    1.2550    1.0700 C   0  0  0  0  0  0  0  0  0  0  0  0
   -6.4610    0.1630    1.7580 C   0  0  0  0  0  0  0  0  0  0  0  0
   -7.1800   -0.4540    2.5510 O   0  0  0  0  0  0  0  0  0  0  0  0
   -5.1060   -0.3710    1.7370 C   0  0  0  0  0  0  0  0  0  0  0  0
   -4.0920   -0.3760    0.8570 C   0  0  0  0  0  0  0  0  0  0  0  0
  1  2  1  0
  2  3  1  0
  3  4  2  0
  3  5  1  0
  5  6  1  0
  6  7  1  0
  7  8  2  0
  7  9  1  0
  9 10  1  0
 10 11  1  0
 10 14  2  0
 11 12  1  0
 12 13  2  0
 13 14  1  0
 14 15  1  0
 15 16  1  0
 16 17  1  0
 17 18  2  0
 17 19  1  0
 19 20  2  0
 19 27  1  0
 20 21  1  0
 21 22  2  0
 22 23  1  0
 23 24  1  0
 24 25  2  0
 24 26  1  0
 26 27  2  0
M  END
