
     RDKit          3D

 27 28  0  0  0  0  0  0  0  0999 V2000
    3.3010   -0.5640    2.8210 C   0  0  0  0  0  0  0  0  0  0  0  0
    3.7310    0.0210    1.4630 C   0  0  1  0  0  0  0  0  0  0  0  0
    5.2270    0.0050    1.3510 C   0  0  0  0  0  0  0  0  0  0  0  0
    5.6030    0.5400    0.1070 O   0  0  0  0  0  0  0  0  0  0  0  0
    5.3420    1.8100   -0.3460 C   0  0  0  0  0  0  0  0  0  0  0  0
    4.7100    2.6000    0.3960 O   0  0  0  0  0  0  0  0  0  0  0  0
    5.7330    2.2930   -1.5880 O   0  0  0  0  0  0  0  0  0  0  0  0
    3.1090   -0.8730    0.4500 C   0  0  0  0  0  0  0  0  0  0  0  0
    3.8760   -1.4710   -0.3440 O   0  0  0  0  0  0  0  0  0  0  0  0
    1.7550   -1.0730    0.3430 O   0  0  0  0  0  0  0  0  0  0  0  0
    1.1820   -1.9410   -0.6440 C   0  0  0  0  0  0  0  0  0  0  0  0
   -0.3340   -1.8560   -0.3940 C   0  0  0  0  0  0  0  0  0  0  0  0
   -1.0360   -2.6560   -1.2860 O   0  0  0  0  0  0  0  0  0  0  0  0
   -2.4070   -2.7320   -1.2810 C   0  0  0  0  0  0  0  0  0  0  0  0
   -3.0440   -1.6510   -1.5460 N   0  0  0  0  0  0  0  0  0  0  0  0
   -2.4720   -0.4000   -1.8420 C   0  0  0  0  0  0  0  0  0  0  0  0
   -1.5680   -0.0880   -2.8640 C   0  0  0  0  0  0  0  0  0  0  0  0
   -1.3260    1.2160   -2.7540 N   0  0  0  0  0  0  0  0  0  0  0  0
   -2.0330    1.7100   -1.7240 C   0  0  0  0  0  0  0  0  0  0  0  0
   -2.0280    2.9310   -1.3470 O   0  0  0  0  0  0  0  0  0  0  0  0
   -2.7510    0.7360   -1.1410 N   0  0  0  0  0  0  0  0  0  0  0  0
   -3.6300    0.8230   -0.0260 C   0  0  0  0  0  0  0  0  0  0  0  0
   -3.3610    1.6860    1.0270 C   0  0  0  0  0  0  0  0  0  0  0  0
   -4.1820    1.8010    2.1200 C   0  0  0  0  0  0  0  0  0  0  0  0
   -5.3300    1.0440    2.2110 C   0  0  0  0  0  0  0  0  0  0  0  0
   -5.6240    0.1730    1.1730 C   0  0  0  0  0  0  0  0  0  0  0  0
   -4.7850    0.0720    0.0810 C   0  0  0  0  0  0  0  0  0  0  0  0
  2  1  1  1
  2  3  1  0
  2  8  1  0
  3  4  1  0
  4  5  1  0
  5  6  2  0
  5  7  1  0
  8  9  2  0
  8 10  1  0
 10 11  1  0
 11 12  1  0
 12 13  1  0
 13 14  1  0
 14 15  2  3
 15 16  1  0
 16 17  2  0
 16 21  1  0
 17 18  1  0
 18 19  1  0
 19 20  2  0
 19 21  1  0
 21 22  1  0
 22 23  2  0
 22 27  1  0
 23 24  1  0
 24 25  2  0
 25 26  1  0
 26 27  2  0
M  END
