
     RDKit          3D

 27 29  0  0  0  0  0  0  0  0999 V2000
   -6.6000   -1.9260   -1.8270 N   0  0  0  0  0  0  0  0  0  0  0  0
   -5.6050   -1.5420   -0.8870 C   0  0  0  0  0  0  0  0  0  0  0  0
   -5.5850   -2.0090    0.3740 N   0  0  0  0  0  0  0  0  0  0  0  0
   -4.6220   -1.6270    1.2580 C   0  0  0  0  0  0  0  0  0  0  0  0
   -3.6470   -0.7650    0.9080 N   0  0  0  0  0  0  0  0  0  0  0  0
   -3.6240   -0.2750   -0.3280 C   0  0  0  0  0  0  0  0  0  0  0  0
   -4.6040   -0.6580   -1.2430 C   0  0  0  0  0  0  0  0  0  0  0  0
   -4.3240   -0.0160   -2.3740 N   0  0  0  0  0  0  0  0  0  0  0  0
   -3.2230    0.7330   -2.1800 C   0  0  0  0  0  0  0  0  0  0  0  0
   -2.7740    0.5860   -0.9180 N   0  0  0  0  0  0  0  0  0  0  0  0
   -1.6180    1.2460   -0.3850 C   0  0  2  0  0  0  0  0  0  0  0  0
   -0.4550    0.9530   -1.0880 O   0  0  0  0  0  0  0  0  0  0  0  0
    0.5740    1.4040   -0.2910 C   0  0  2  0  0  0  0  0  0  0  0  0
    1.8590    0.6370   -0.5120 C   0  0  0  0  0  0  0  0  0  0  0  0
    2.8620    1.1330    0.3160 O   0  0  0  0  0  0  0  0  0  0  0  0
    4.2820    0.2740    0.0610 P   0  0  2  0  0  0  0  0  0  0  0  0
    5.1820    1.1210   -0.8410 O   0  0  0  0  0  0  0  0  0  0  0  0
    3.9710   -1.2220   -0.7010 O   0  0  0  0  0  0  0  0  0  0  0  0
    5.0060   -0.0230    1.5440 O   0  0  0  0  0  0  0  0  0  0  0  0
    6.5120   -0.7230    1.3030 P   0  0  1  0  0  0  0  0  0  0  0  0
    6.6410   -1.9620    2.1950 O   0  0  0  0  0  0  0  0  0  0  0  0
    6.6700   -1.1760   -0.3180 O   0  0  0  0  0  0  0  0  0  0  0  0
    7.7060    0.4000    1.7030 O   0  0  0  0  0  0  0  0  0  0  0  0
    0.1580    1.1850    1.1450 C   0  0  1  0  0  0  0  0  0  0  0  0
    0.1680    2.4050    1.8260 O   0  0  0  0  0  0  0  0  0  0  0  0
   -1.2790    0.6970    0.9940 C   0  0  1  0  0  0  0  0  0  0  0  0
   -2.0980    1.1860    1.9810 O   0  0  0  0  0  0  0  0  0  0  0  0
  1  2  1  0
  2  3  2  0
  2  7  1  0
  3  4  1  0
  4  5  2  0
  5  6  1  0
  6  7  2  0
  6 10  1  0
  7  8  1  0
  8  9  2  0
  9 10  1  0
 11 10  1  6
 11 12  1  0
 11 26  1  0
 12 13  1  0
 13 14  1  6
 13 24  1  0
 14 15  1  0
 15 16  1  0
 16 17  2  0
 16 18  1  6
 16 19  1  0
 19 20  1  0
 20 21  2  0
 20 22  1  6
 20 23  1  0
 24 25  1  1
 24 26  1  0
 26 27  1  1
M  END
