
     RDKit          3D

 17 17  0  0  0  0  0  0  0  0999 V2000
    2.9860    0.2550    1.8670 C   0  0  0  0  0  0  0  0  0  0  0  0
    3.4430   -0.3380    0.5490 C   0  0  0  0  0  0  0  0  0  0  0  0
    2.8150    0.3060   -0.5530 N   0  0  0  0  0  0  0  0  0  0  0  0
    1.4120    0.3150   -0.7980 C   0  0  0  0  0  0  0  0  0  0  0  0
    0.4210   -0.2540   -0.0870 N   0  0  0  0  0  0  0  0  0  0  0  0
   -0.7830   -0.0330   -0.6390 C   0  0  0  0  0  0  0  0  0  0  0  0
   -2.1390   -0.2600   -0.2340 C   0  0  0  0  0  0  0  0  0  0  0  0
   -3.1460   -0.8650   -1.1130 C   0  0  0  0  0  0  0  0  0  0  0  0
   -3.0540   -1.3330   -2.3090 C   0  0  0  0  0  0  0  0  0  0  0  0
   -1.5570   -1.4470   -3.4370 Br  0  0  0  0  0  0  0  0  0  0  0  0
   -4.7110   -2.0470   -3.1140 Br  0  0  0  0  0  0  0  0  0  0  0  0
   -2.5620    0.0410    0.9870 C   0  0  0  0  0  0  0  0  0  0  0  0
   -1.8690    0.6190    2.1270 C   0  0  1  0  0  0  0  0  0  0  0  0
   -1.1320   -0.8050    3.2310 Br  0  0  0  0  0  0  0  0  0  0  0  0
   -0.5170    1.9120    1.6770 Br  0  0  0  0  0  0  0  0  0  0  0  0
   -0.5130    0.7410   -1.7870 C   0  0  0  0  0  0  0  0  0  0  0  0
    0.7970    0.9100   -1.8260 N   0  0  0  0  0  0  0  0  0  0  0  0
  1  2  1  0
  2  3  1  0
  3  4  1  0
  4  5  1  0
  4 17  2  0
  5  6  1  0
  6  7  1  0
  6 16  2  0
  7  8  1  0
  7 12  2  3
  8  9  2  3
  9 10  1  0
  9 11  1  0
 12 13  1  0
 13 14  1  6
 13 15  1  0
 16 17  1  0
M  CHG  1  17   1
M  END
