
     RDKit          3D

 12 13  0  0  0  0  0  0  0  0999 V2000
   -2.0330   -0.5370    1.5720 C   0  0  0  0  0  0  0  0  0  0  0  0
   -1.1050    0.2790    0.8120 N   0  0  2  0  0  0  0  0  0  0  0  0
   -1.8610    1.2670    0.1010 C   0  0  0  0  0  0  0  0  0  0  0  0
   -2.0770    0.6600   -1.2470 C   0  0  0  0  0  0  0  0  0  0  0  0
   -0.8630   -0.2180   -1.4850 C   0  0  0  0  0  0  0  0  0  0  0  0
   -0.3370   -0.4850   -0.1150 C   0  0  1  0  0  0  0  0  0  0  0  0
    1.1310   -0.2720    0.0060 C   0  0  0  0  0  0  0  0  0  0  0  0
    2.0340   -1.3290   -0.0030 C   0  0  0  0  0  0  0  0  0  0  0  0
    3.3800   -1.1110    0.1100 C   0  0  0  0  0  0  0  0  0  0  0  0
    3.8400    0.1800    0.2350 C   0  0  0  0  0  0  0  0  0  0  0  0
    2.9860    1.2090    0.2450 N   0  0  0  0  0  0  0  0  0  0  0  0
    1.6570    0.9950    0.1340 C   0  0  0  0  0  0  0  0  0  0  0  0
  2  1  1  6
  2  3  1  0
  2  6  1  0
  3  4  1  0
  4  5  1  0
  5  6  1  0
  6  7  1  6
  7  8  2  0
  7 12  1  0
  8  9  1  0
  9 10  2  0
 10 11  1  0
 11 12  2  0
M  CHG  1   2   1
M  END
