
     RDKit          3D

 13 13  0  0  0  0  0  0  0  0999 V2000
    3.4500    1.1500   -0.2160 C   0  0  0  0  0  0  0  0  0  0  0  0
    2.7200    0.0360    0.3990 C   0  0  0  0  0  0  0  0  0  0  0  0
    1.4930   -0.3210   -0.1460 O   0  0  0  0  0  0  0  0  0  0  0  0
    0.4110    0.5730    0.0830 C   0  0  0  0  0  0  0  0  0  0  0  0
   -0.8310    0.0200   -0.5820 C   0  0  1  0  0  0  0  0  0  0  0  0
   -0.6690   -0.1300   -1.9580 O   0  0  0  0  0  0  0  0  0  0  0  0
   -1.3190   -1.2370    0.0780 C   0  0  0  0  0  0  0  0  0  0  0  0
   -2.7890   -1.0670    0.3500 C   0  0  0  0  0  0  0  0  0  0  0  0
   -3.1670    0.0870   -0.5430 C   0  0  0  0  0  0  0  0  0  0  0  0
   -1.9720    1.0110   -0.3640 C   0  0  0  0  0  0  0  0  0  0  0  0
    3.1910   -0.6310    1.4470 C   0  0  0  0  0  0  0  0  0  0  0  0
    2.2690   -1.9510    2.1340 Cl  0  0  0  0  0  0  0  0  0  0  0  0
    4.7310   -0.2040    2.1530 Cl  0  0  0  0  0  0  0  0  0  0  0  0
  1  2  1  0
  2  3  1  0
  2 11  2  3
  3  4  1  0
  4  5  1  0
  5  6  1  6
  5  7  1  0
  5 10  1  0
  7  8  1  0
  8  9  1  0
  9 10  1  0
 11 12  1  0
 11 13  1  0
M  END
