
     RDKit          3D

 13 13  0  0  0  0  0  0  0  0999 V2000
   -3.9530    0.4980   -0.0480 C   0  0  0  0  0  0  0  0  0  0  0  0
   -2.8460   -0.4870   -0.1710 C   0  0  0  0  0  0  0  0  0  0  0  0
   -1.6600   -0.0280   -0.5280 C   0  0  0  0  0  0  0  0  0  0  0  0
   -0.6220   -0.9100   -0.6490 O   0  0  0  0  0  0  0  0  0  0  0  0
    0.6860   -0.6450   -0.2840 C   0  0  0  0  0  0  0  0  0  0  0  0
    0.9630    0.6010    0.2420 C   0  0  0  0  0  0  0  0  0  0  0  0
    2.2700    0.8770    0.6110 C   0  0  0  0  0  0  0  0  0  0  0  0
    2.5760    2.1210    1.1420 O   0  0  0  0  0  0  0  0  0  0  0  0
    3.2440   -0.0800    0.4480 C   0  0  0  0  0  0  0  0  0  0  0  0
    4.8780    0.3270    0.9330 Cl  0  0  0  0  0  0  0  0  0  0  0  0
    2.9490   -1.3220   -0.0790 C   0  0  0  0  0  0  0  0  0  0  0  0
    1.6670   -1.5940   -0.4420 C   0  0  0  0  0  0  0  0  0  0  0  0
    1.2460   -3.1640   -1.1180 Cl  0  0  0  0  0  0  0  0  0  0  0  0
  1  2  1  0
  2  3  2  3
  3  4  1  0
  4  5  1  0
  5  6  2  0
  5 12  1  0
  6  7  1  0
  7  8  1  0
  7  9  2  0
  9 10  1  0
  9 11  1  0
 11 12  2  0
 12 13  1  0
M  END
