
     RDKit          3D

 11 11  0  0  0  0  0  0  0  0999 V2000
   -0.6470   -0.9680   -1.1790 N   0  0  0  0  0  0  0  0  0  0  0  0
   -0.5520    0.0040   -0.1250 C   0  0  2  0  0  0  0  0  0  0  0  0
   -1.4270   -0.4330    1.0090 C   0  0  0  0  0  0  0  0  0  0  0  0
   -1.0330   -1.6620    1.4900 O   0  0  0  0  0  0  0  0  0  0  0  0
   -1.1520    1.3050   -0.6820 C   0  0  0  0  0  0  0  0  0  0  0  0
   -0.0050    2.2970   -0.4540 C   0  0  0  0  0  0  0  0  0  0  0  0
    1.0920    1.4630   -0.6700 O   0  0  0  0  0  0  0  0  0  0  0  0
    0.8080    0.4250    0.2380 C   0  0  2  0  0  0  0  0  0  0  0  0
    1.8720   -0.6190    0.1930 C   0  0  1  0  0  0  0  0  0  0  0  0
    1.5710   -1.6290    1.0950 O   0  0  0  0  0  0  0  0  0  0  0  0
    2.1440   -1.0970   -1.0730 O   0  0  0  0  0  0  0  0  0  0  0  0
  2  1  1  6
  2  3  1  0
  2  5  1  0
  2  8  1  0
  3  4  1  0
  5  6  1  0
  6  7  1  0
  8  7  1  6
  8  9  1  0
  9 10  1  1
  9 11  1  0
M  CHG  1   1   1
M  END
