
     RDKit          3D

 11 11  0  0  0  0  0  0  0  0999 V2000
    0.9890   -0.7740   -1.1790 N   0  0  0  0  0  0  0  0  0  0  0  0
    0.2990   -0.2120   -0.0050 C   0  0  2  0  0  0  0  0  0  0  0  0
    1.4330    0.2310    0.9300 C   0  0  2  0  0  0  0  0  0  0  0  0
    2.1700    1.1750    0.2170 O   0  0  0  0  0  0  0  0  0  0  0  0
    2.2490   -0.8180    1.2710 O   0  0  0  0  0  0  0  0  0  0  0  0
   -0.5090   -1.3030    0.5940 C   0  0  0  0  0  0  0  0  0  0  0  0
   -1.9790   -1.0980    0.5850 C   0  0  0  0  0  0  0  0  0  0  0  0
   -2.2240    0.2270    1.0070 O   0  0  0  0  0  0  0  0  0  0  0  0
   -1.8940    1.0150   -0.0940 C   0  0  0  0  0  0  0  0  0  0  0  0
   -0.4370    1.0010   -0.4230 C   0  0  1  0  0  0  0  0  0  0  0  0
    0.1120    2.1810    0.1330 O   0  0  0  0  0  0  0  0  0  0  0  0
  2  1  1  6
  2  3  1  0
  2  6  1  0
  2 10  1  0
  3  4  1  6
  3  5  1  0
  6  7  1  0
  7  8  1  0
  8  9  1  0
  9 10  1  0
 10 11  1  1
M  CHG  1   1   1
M  END
