
     RDKit          3D

 13 13  0  0  0  0  0  0  0  0999 V2000
    2.9620    1.4190    0.3040 O   0  0  0  0  0  0  0  0  0  0  0  0
    2.3610    0.2660   -0.1420 C   0  0  0  0  0  0  0  0  0  0  0  0
    1.0120    0.0220    0.5130 C   0  0  1  0  0  0  0  0  0  0  0  0
    0.1510    1.1350    0.2060 N   0  0  0  0  0  0  0  0  0  0  0  0
   -1.2110    0.9020   -0.0810 C   0  0  0  0  0  0  0  0  0  0  0  0
   -1.9350    1.7400   -0.7570 N   0  0  0  0  0  0  0  0  0  0  0  0
   -1.4590    2.9120   -1.2500 O   0  0  0  0  0  0  0  0  0  0  0  0
   -1.8170   -0.3500    0.4160 C   0  0  2  0  0  0  0  0  0  0  0  0
   -2.0360   -0.1600    1.7990 O   0  0  0  0  0  0  0  0  0  0  0  0
   -0.9430   -1.5420    0.2640 C   0  0  1  0  0  0  0  0  0  0  0  0
   -1.4620   -2.3050   -0.8080 O   0  0  0  0  0  0  0  0  0  0  0  0
    0.4880   -1.2830   -0.0320 C   0  0  1  0  0  0  0  0  0  0  0  0
    0.6940   -1.3250   -1.4080 O   0  0  0  0  0  0  0  0  0  0  0  0
  1  2  1  0
  3  2  1  6
  3  4  1  0
  3 12  1  0
  4  5  1  0
  5  6  2  3
  5  8  1  0
  6  7  1  0
  8  9  1  1
  8 10  1  0
 10 11  1  6
 10 12  1  0
 12 13  1  6
M  END
