
     RDKit          3D

 27 30  0  0  0  0  0  0  0  0999 V2000
    4.4550    3.6230   -0.3680 C   0  0  0  0  0  0  0  0  0  0  0  0
    5.0810    2.6100    0.4460 N   0  0  0  0  0  0  0  0  0  0  0  0
    4.6640    1.2840    0.3730 C   0  0  0  0  0  0  0  0  0  0  0  0
    5.4450    0.2360    0.4550 C   0  0  0  0  0  0  0  0  0  0  0  0
    5.0330   -1.1540    0.3650 C   0  0  0  0  0  0  0  0  0  0  0  0
    6.0040   -2.0320    0.5530 N   0  0  0  0  0  0  0  0  0  0  0  0
    5.7520   -3.4070    0.5280 C   0  0  0  0  0  0  0  0  0  0  0  0
    6.6660   -4.2810    0.6920 O   0  0  0  0  0  0  0  0  0  0  0  0
    4.4180   -3.8970    0.3090 C   0  0  0  0  0  0  0  0  0  0  0  0
    4.1200   -5.1110    0.2780 O   0  0  0  0  0  0  0  0  0  0  0  0
    3.3570   -2.8740    0.1110 C   0  0  0  0  0  0  0  0  0  0  0  0
    3.6680   -1.5870    0.1350 C   0  0  0  0  0  0  0  0  0  0  0  0
    2.6170   -0.6270   -0.2370 C   0  0  2  0  0  0  0  0  0  0  0  0
    2.8530    1.0330    0.3700 S   0  0  0  0  0  0  0  0  0  0  0  0
    1.2590   -1.1340   -0.3380 C   0  0  0  0  0  0  0  0  0  0  0  0
    0.1270   -0.2070   -0.5120 C   0  0  0  0  0  0  0  0  0  0  0  0
   -1.1040   -0.9690   -0.5830 N   0  0  0  0  0  0  0  0  0  0  0  0
   -2.2310   -0.1730   -0.9580 C   0  0  0  0  0  0  0  0  0  0  0  0
   -2.9160    0.4910    0.1960 C   0  0  1  0  0  0  0  0  0  0  0  0
   -4.1120    1.3350   -0.1950 C   0  0  1  0  0  0  0  0  0  0  0  0
   -4.1010    2.7180    0.4110 C   0  0  0  0  0  0  0  0  0  0  0  0
   -4.6810    1.2380   -1.5730 C   0  0  0  0  0  0  0  0  0  0  0  0
   -4.2560    0.1310    0.6630 C   0  0  1  0  0  0  0  0  0  0  0  0
   -5.0140   -1.0500    0.0990 C   0  0  0  0  0  0  0  0  0  0  0  0
   -4.6150    0.4400    2.1130 C   0  0  0  0  0  0  0  0  0  0  0  0
    1.0120   -2.4130   -0.2750 N   0  0  0  0  0  0  0  0  0  0  0  0
    2.0260   -3.3350   -0.0780 N   0  0  0  0  0  0  0  0  0  0  0  0
  1  2  1  0
  2  3  1  0
  3  4  2  0
  3 14  1  0
  4  5  1  0
  5  6  2  0
  5 12  1  0
  6  7  1  0
  7  8  2  0
  7  9  1  0
  9 10  2  0
  9 11  1  0
 11 12  2  0
 11 27  1  0
 12 13  1  0
 13 14  1  1
 13 15  1  0
 15 16  1  0
 15 26  2  0
 16 17  1  0
 17 18  1  0
 19 18  1  6
 19 20  1  0
 19 23  1  0
 20 21  1  1
 20 22  1  0
 20 23  1  0
 23 24  1  6
 23 25  1  0
 26 27  1  0
M  CHG  1  17   1
M  END
