
     RDKit          3D

 28 31  0  0  0  0  0  0  0  0999 V2000
   -3.1340    4.8080   -0.3340 C   0  0  0  0  0  0  0  0  0  0  0  0
   -2.2630    3.6110   -0.4650 C   0  0  0  0  0  0  0  0  0  0  0  0
   -2.0220    2.6060    0.4360 C   0  0  0  0  0  0  0  0  0  0  0  0
   -1.1400    1.7360   -0.1700 C   0  0  0  0  0  0  0  0  0  0  0  0
   -0.5670    0.4940    0.3750 C   0  0  1  0  0  0  0  0  0  0  0  0
   -1.1550   -0.7330   -0.3260 C   0  0  0  0  0  0  0  0  0  0  0  0
   -2.6200   -0.7900   -0.1460 C   0  0  0  0  0  0  0  0  0  0  0  0
   -3.2250    0.0800    0.5050 O   0  0  0  0  0  0  0  0  0  0  0  0
   -3.3410   -1.8520   -0.7250 N   0  0  0  0  0  0  0  0  0  0  0  0
   -4.7630   -1.8870   -0.5380 C   0  0  0  0  0  0  0  0  0  0  0  0
   -5.4250   -2.8730    0.0560 C   0  0  0  0  0  0  0  0  0  0  0  0
   -6.8670   -2.5530    0.0610 C   0  0  0  0  0  0  0  0  0  0  0  0
   -6.9010   -1.2380   -0.6230 C   0  0  0  0  0  0  0  0  0  0  0  0
   -5.7070   -0.9210   -0.9310 N   0  0  0  0  0  0  0  0  0  0  0  0
    0.8660    0.4030    0.1560 N   0  0  0  0  0  0  0  0  0  0  0  0
    1.5990    1.4930    0.7210 C   0  0  2  0  0  0  0  0  0  0  0  0
    2.2460    2.3830   -0.3150 C   0  0  0  0  0  0  0  0  0  0  0  0
    2.6520    1.0590    1.7040 C   0  0  0  0  0  0  0  0  0  0  0  0
    3.6640    0.1660    1.0850 C   0  0  0  0  0  0  0  0  0  0  0  0
    3.7840   -1.0690    0.9270 N   0  0  0  0  0  0  0  0  0  0  0  0
    4.8010   -1.6350    0.3310 C   0  0  0  0  0  0  0  0  0  0  0  0
    5.7830   -0.8720   -0.1480 C   0  0  0  0  0  0  0  0  0  0  0  0
    5.1960    0.7540    0.2930 S   0  0  0  0  0  0  0  0  0  0  0  0
    6.8840   -1.6060   -0.8020 C   0  0  0  0  0  0  0  0  0  0  0  0
    6.2240   -2.9330   -1.1020 C   0  0  0  0  0  0  0  0  0  0  0  0
    5.2040   -3.0590    0.0050 C   0  0  0  0  0  0  0  0  0  0  0  0
   -0.9030    2.2380   -1.3560 O   0  0  0  0  0  0  0  0  0  0  0  0
   -1.5480    3.3390   -1.5550 N   0  0  0  0  0  0  0  0  0  0  0  0
  1  2  1  0
  2  3  1  0
  2 28  2  0
  3  4  2  0
  4  5  1  0
  4 27  1  0
  5  6  1  6
  5 15  1  0
  6  7  1  0
  7  8  2  0
  7  9  1  0
  9 10  1  0
 10 11  2  0
 10 14  1  0
 11 12  1  0
 12 13  1  0
 13 14  2  0
 15 16  1  0
 16 17  1  6
 16 18  1  0
 18 19  1  0
 19 20  2  0
 19 23  1  0
 20 21  1  0
 21 22  2  0
 21 26  1  0
 22 23  1  0
 22 24  1  0
 24 25  1  0
 25 26  1  0
 27 28  1  0
M  CHG  2  14   1  15   1
M  END
