
     RDKit          3D

 28 31  0  0  0  0  0  0  0  0999 V2000
    4.7950    0.5620    3.4720 N   0  0  0  0  0  0  0  0  0  0  0  0
    3.6690   -0.3410    3.3050 C   0  0  2  0  0  0  0  0  0  0  0  0
    4.0730   -1.5560    2.5110 C   0  0  0  0  0  0  0  0  0  0  0  0
    4.6450   -1.2460    1.1680 C   0  0  0  0  0  0  0  0  0  0  0  0
    3.5570   -1.1270    0.1250 C   0  0  0  0  0  0  0  0  0  0  0  0
    2.8340    0.1210    0.4120 N   0  0  1  0  0  0  0  0  0  0  0  0
    2.2670    0.6860   -0.7680 C   0  0  0  0  0  0  0  0  0  0  0  0
    0.9960    0.1080   -1.2110 C   0  0  0  0  0  0  0  0  0  0  0  0
    0.9990   -1.0340   -1.9730 C   0  0  0  0  0  0  0  0  0  0  0  0
   -0.2060   -1.6010   -2.4120 C   0  0  0  0  0  0  0  0  0  0  0  0
   -1.4050   -0.9880   -2.0630 C   0  0  0  0  0  0  0  0  0  0  0  0
   -2.6400   -1.5360   -2.4930 N   0  0  0  0  0  0  0  0  0  0  0  0
   -2.7480   -2.6960   -3.2710 C   0  0  0  0  0  0  0  0  0  0  0  0
   -2.0850   -3.5810   -3.8240 N   0  0  0  0  0  0  0  0  0  0  0  0
   -2.5220   -4.5560   -4.4960 N   0  0  0  0  0  0  0  0  0  0  0  0
   -3.7620   -4.7730   -4.7080 C   0  0  0  0  0  0  0  0  0  0  0  0
   -4.4630   -3.3080   -3.7710 S   0  0  0  0  0  0  0  0  0  0  0  0
   -1.4140    0.1780   -1.2860 C   0  0  0  0  0  0  0  0  0  0  0  0
   -2.5940    0.7420   -0.9700 O   0  0  0  0  0  0  0  0  0  0  0  0
   -2.9370    1.8570   -0.2420 C   0  0  1  0  0  0  0  0  0  0  0  0
   -3.6930    2.8990   -1.0390 C   0  0  0  0  0  0  0  0  0  0  0  0
   -5.1680    2.8510   -0.7270 C   0  0  0  0  0  0  0  0  0  0  0  0
   -5.4320    3.2300    0.5890 O   0  0  0  0  0  0  0  0  0  0  0  0
   -4.3940    2.8520    1.4430 C   0  0  0  0  0  0  0  0  0  0  0  0
   -3.7610    1.5480    0.9940 C   0  0  0  0  0  0  0  0  0  0  0  0
   -0.2120    0.7010   -0.8770 C   0  0  0  0  0  0  0  0  0  0  0  0
    1.9350   -0.1610    1.4810 C   0  0  0  0  0  0  0  0  0  0  0  0
    2.4510    0.3460    2.8090 C   0  0  0  0  0  0  0  0  0  0  0  0
  2  1  1  6
  2  3  1  0
  2 28  1  0
  3  4  1  0
  4  5  1  0
  5  6  1  0
  6  7  1  6
  6 27  1  0
  7  8  1  0
  8  9  2  0
  8 26  1  0
  9 10  1  0
 10 11  2  0
 11 12  1  0
 11 18  1  0
 12 13  1  0
 13 14  2  0
 13 17  1  0
 14 15  1  0
 15 16  2  0
 16 17  1  0
 18 19  1  0
 18 26  2  0
 20 19  1  6
 20 21  1  0
 20 25  1  0
 21 22  1  0
 22 23  1  0
 23 24  1  0
 24 25  1  0
 27 28  1  0
M  CHG  2   1   1   6   1
M  END
