
     RDKit          3D

 15 17  0  0  0  0  0  0  0  0999 V2000
   -4.1230    0.3510    0.4650 C   0  0  0  0  0  0  0  0  0  0  0  0
   -3.6030   -0.9280    0.4400 C   0  0  0  0  0  0  0  0  0  0  0  0
   -2.2330   -1.1670    0.2890 C   0  0  0  0  0  0  0  0  0  0  0  0
   -1.3870   -0.0920    0.1620 C   0  0  0  0  0  0  0  0  0  0  0  0
    0.0530   -0.2050   -0.0010 C   0  0  0  0  0  0  0  0  0  0  0  0
    0.6870   -1.4260   -0.0410 C   0  0  0  0  0  0  0  0  0  0  0  0
    2.0800   -1.4960   -0.1990 C   0  0  0  0  0  0  0  0  0  0  0  0
    2.8220   -0.3430   -0.3160 C   0  0  0  0  0  0  0  0  0  0  0  0
    4.1410   -0.1400   -0.4730 N   0  0  0  0  0  0  0  0  0  0  0  0
    4.3700    1.1770   -0.5350 N   0  0  0  0  0  0  0  0  0  0  0  0
    3.2080    1.8380   -0.4190 C   0  0  0  0  0  0  0  0  0  0  0  0
    2.2050    0.9040   -0.2780 C   0  0  0  0  0  0  0  0  0  0  0  0
    0.8510    0.9130   -0.1230 C   0  0  0  0  0  0  0  0  0  0  0  0
   -1.9260    1.1480    0.1910 N   0  0  0  0  0  0  0  0  0  0  0  0
   -3.2220    1.4000    0.3330 C   0  0  0  0  0  0  0  0  0  0  0  0
  1  2  2  0
  1 15  1  0
  2  3  1  0
  3  4  2  0
  4  5  1  0
  4 14  1  0
  5  6  2  0
  5 13  1  0
  6  7  1  0
  7  8  2  0
  8  9  1  0
  8 12  1  0
  9 10  1  0
 10 11  2  0
 11 12  1  0
 12 13  2  0
 14 15  2  0
M  END
