
     RDKit          3D

 15 17  0  0  0  0  0  0  0  0999 V2000
    4.6880   -0.2890    0.2240 C   0  0  0  0  0  0  0  0  0  0  0  0
    3.3530    0.3430    0.1710 C   0  0  0  0  0  0  0  0  0  0  0  0
    3.0460    1.6600   -0.0980 C   0  0  0  0  0  0  0  0  0  0  0  0
    1.7170    1.8080   -0.0460 N   0  0  0  0  0  0  0  0  0  0  0  0
    1.1590    0.6620    0.2400 N   0  0  0  0  0  0  0  0  0  0  0  0
   -0.2210    0.4250    0.3800 C   0  0  0  0  0  0  0  0  0  0  0  0
   -0.9320    0.8470    1.4660 C   0  0  0  0  0  0  0  0  0  0  0  0
   -2.2740    0.5790    1.5310 C   0  0  0  0  0  0  0  0  0  0  0  0
   -2.8680   -0.1100    0.4970 C   0  0  0  0  0  0  0  0  0  0  0  0
   -4.1930   -0.5100    0.3090 C   0  0  0  0  0  0  0  0  0  0  0  0
   -4.2290   -1.1630   -0.8930 C   0  0  0  0  0  0  0  0  0  0  0  0
   -3.0000   -1.1670   -1.4190 N   0  0  0  0  0  0  0  0  0  0  0  0
   -2.1630   -0.5370   -0.5970 C   0  0  0  0  0  0  0  0  0  0  0  0
   -0.8270   -0.2730   -0.6670 C   0  0  0  0  0  0  0  0  0  0  0  0
    2.1260   -0.2480    0.3780 C   0  0  0  0  0  0  0  0  0  0  0  0
  1  2  1  0
  2  3  1  0
  2 15  2  0
  3  4  2  0
  4  5  1  0
  5  6  1  0
  5 15  1  0
  6  7  2  0
  6 14  1  0
  7  8  1  0
  8  9  2  0
  9 10  1  0
  9 13  1  0
 10 11  2  0
 11 12  1  0
 12 13  1  0
 13 14  2  0
M  END
