
     RDKit          3D

 13 13  0  0  0  0  0  0  0  0999 V2000
    1.3680    2.9230   -0.1500 O   0  0  0  0  0  0  0  0  0  0  0  0
    1.7750    2.2250    0.7420 N   0  0  0  0  0  0  0  0  0  0  0  0
    1.1570    0.9090    0.8160 C   0  0  1  0  0  0  0  0  0  0  0  0
   -0.2580    1.0050    0.7190 N   0  0  0  0  0  0  0  0  0  0  0  0
   -0.8780    0.1350   -0.2190 C   0  0  2  0  0  0  0  0  0  0  0  0
   -2.3440   -0.0220    0.2060 C   0  0  0  0  0  0  0  0  0  0  0  0
   -3.0050    1.1890    0.2180 O   0  0  0  0  0  0  0  0  0  0  0  0
   -0.2990   -1.2500   -0.2710 C   0  0  1  0  0  0  0  0  0  0  0  0
   -0.6940   -1.8090   -1.5030 O   0  0  0  0  0  0  0  0  0  0  0  0
    1.1920   -1.2900   -0.2250 C   0  0  2  0  0  0  0  0  0  0  0  0
    1.5730   -1.9370    0.9680 O   0  0  0  0  0  0  0  0  0  0  0  0
    1.8040    0.0740   -0.2520 C   0  0  1  0  0  0  0  0  0  0  0  0
    1.7100    0.6190   -1.5090 O   0  0  0  0  0  0  0  0  0  0  0  0
  1  2  2  0
  3  2  1  6
  3  4  1  0
  3 12  1  0
  4  5  1  0
  5  6  1  1
  5  8  1  0
  6  7  1  0
  8  9  1  6
  8 10  1  0
 10 11  1  1
 10 12  1  0
 12 13  1  6
M  CHG  1   4   1
M  END
