
     RDKit          3D

 19 21  0  0  0  0  0  0  0  0999 V2000
    5.6150    0.2840    0.7780 C   0  0  0  0  0  0  0  0  0  0  0  0
    4.1370   -0.1430    0.9710 C   0  0  2  0  0  0  0  0  0  0  0  0
    3.8660   -1.2690    0.0210 C   0  0  0  0  0  0  0  0  0  0  0  0
    2.7400   -0.9420   -0.9330 C   0  0  0  0  0  0  0  0  0  0  0  0
    1.5400   -0.5270   -0.1880 C   0  0  0  0  0  0  0  0  0  0  0  0
    1.8420    0.7820    0.7000 C   0  0  2  0  0  0  0  0  0  0  0  0
    1.1040    1.7840   -0.0020 O   0  0  0  0  0  0  0  0  0  0  0  0
   -0.0520    1.4690   -0.4830 C   0  0  0  0  0  0  0  0  0  0  0  0
   -1.0910    0.7410    0.1850 C   0  0  0  0  0  0  0  0  0  0  0  0
   -1.3570    0.2120    1.3210 O   0  0  0  0  0  0  0  0  0  0  0  0
   -2.5290   -0.3930    1.3970 C   0  0  0  0  0  0  0  0  0  0  0  0
   -3.1480   -0.2490    0.1460 C   0  0  0  0  0  0  0  0  0  0  0  0
   -2.2590    0.4570   -0.6010 C   0  0  0  0  0  0  0  0  0  0  0  0
   -2.2920    0.7510   -2.0770 C   0  0  0  0  0  0  0  0  0  0  0  0
   -3.3450    1.7590   -2.2560 N   0  0  0  0  0  0  0  0  0  0  0  0
   -4.3990   -1.0400    0.0660 C   0  0  0  0  0  0  0  0  0  0  0  0
   -4.5790   -1.6700    1.4020 C   0  0  0  0  0  0  0  0  0  0  0  0
   -3.4430   -1.1900    2.3080 C   0  0  0  0  0  0  0  0  0  0  0  0
    3.2490    1.0030    0.6540 C   0  0  0  0  0  0  0  0  0  0  0  0
  2  1  1  6
  2  3  1  0
  2 19  1  0
  3  4  1  0
  4  5  1  0
  5  6  1  0
  6  7  1  6
  6 19  1  0
  7  8  1  0
  8  9  1  0
  9 10  1  0
  9 13  2  0
 10 11  1  0
 11 12  2  0
 11 18  1  0
 12 13  1  0
 12 16  1  0
 13 14  1  0
 14 15  1  0
 16 17  1  0
 17 18  1  0
M  CHG  1  15   1
M  END
