
     RDKit          3D

 19 21  0  0  0  0  0  0  0  0999 V2000
   -6.3900    0.2620   -1.5020 N   0  0  0  0  0  0  0  0  0  0  0  0
   -5.8570   -0.5280   -0.4270 C   0  0  0  0  0  0  0  0  0  0  0  0
   -4.3860   -0.3830   -0.3390 C   0  0  0  0  0  0  0  0  0  0  0  0
   -3.6190   -1.0170    0.5900 C   0  0  0  0  0  0  0  0  0  0  0  0
   -2.2560   -0.8230    0.5970 C   0  0  0  0  0  0  0  0  0  0  0  0
   -1.6110   -0.0090   -0.2980 C   0  0  0  0  0  0  0  0  0  0  0  0
   -0.1390    0.1470   -0.2230 C   0  0  0  0  0  0  0  0  0  0  0  0
    0.5090    0.9170   -1.0690 C   0  0  0  0  0  0  0  0  0  0  0  0
    1.9560    1.0730   -0.9990 C   0  0  0  0  0  0  0  0  0  0  0  0
    2.6140    0.4380   -0.0810 C   0  0  0  0  0  0  0  0  0  0  0  0
    4.0300    0.5800    0.0010 O   0  0  0  0  0  0  0  0  0  0  0  0
    4.8140   -0.4810    0.5160 C   0  0  0  0  0  0  0  0  0  0  0  0
    6.2550   -0.0190    0.4690 C   0  0  2  0  0  0  0  0  0  0  0  0
    7.0050   -0.0430    1.7110 C   0  0  0  0  0  0  0  0  0  0  0  0
    6.4230    1.2020    1.2930 O   0  0  0  0  0  0  0  0  0  0  0  0
    2.0010   -0.4400    0.9040 C   0  0  0  0  0  0  0  0  0  0  0  0
    0.5470   -0.5950    0.8410 C   0  0  0  0  0  0  0  0  0  0  0  0
   -2.3690    0.6350   -1.2370 C   0  0  0  0  0  0  0  0  0  0  0  0
   -3.7600    0.4470   -1.2570 C   0  0  0  0  0  0  0  0  0  0  0  0
  1  2  1  0
  2  3  1  0
  3  4  2  0
  3 19  1  0
  4  5  1  0
  5  6  2  0
  6  7  1  0
  6 18  1  0
  7  8  2  0
  7 17  1  0
  8  9  1  0
  9 10  2  0
 10 11  1  0
 10 16  1  0
 11 12  1  0
 13 12  1  1
 13 14  1  0
 13 15  1  0
 14 15  1  0
 16 17  1  0
 18 19  2  0
M  CHG  1   1   1
M  END
