
     RDKit          3D

 19 20  0  0  0  0  0  0  0  0999 V2000
   -2.7920   -0.9800   -1.3330 C   0  0  0  0  0  0  0  0  0  0  0  0
   -3.3170   -1.0420    0.0730 C   0  0  2  0  0  0  0  0  0  0  0  0
   -4.7100   -1.6290    0.0260 C   0  0  0  0  0  0  0  0  0  0  0  0
   -3.3010    0.2830    0.8020 C   0  0  1  0  0  0  0  0  0  0  0  0
   -4.1480    1.2820    0.0580 C   0  0  0  0  0  0  0  0  0  0  0  0
   -3.8220    0.0580    2.1570 N   0  0  0  0  0  0  0  0  0  0  0  0
   -1.9440    0.8450    0.9810 C   0  0  0  0  0  0  0  0  0  0  0  0
   -1.3970    0.9130    2.0860 O   0  0  0  0  0  0  0  0  0  0  0  0
   -1.1320    1.3710   -0.1500 C   0  0  1  0  0  0  0  0  0  0  0  0
   -0.2010    2.4860    0.0280 C   0  0  0  0  0  0  0  0  0  0  0  0
    0.3130    1.0640   -0.1950 C   0  0  0  0  0  0  0  0  0  0  0  0
    1.3920    0.3120   -0.3100 C   0  0  0  0  0  0  0  0  0  0  0  0
    2.7410    0.8510   -0.2210 C   0  0  0  0  0  0  0  0  0  0  0  0
    3.8220    0.1320   -0.3320 C   0  0  0  0  0  0  0  0  0  0  0  0
    3.7230   -1.3390   -0.5640 C   0  0  0  0  0  0  0  0  0  0  0  0
    5.1090   -1.7650   -1.0650 C   0  0  0  0  0  0  0  0  0  0  0  0
    6.0470   -1.5630   -0.0910 O   0  0  0  0  0  0  0  0  0  0  0  0
    6.0950   -0.3050    0.4400 C   0  0  0  0  0  0  0  0  0  0  0  0
    5.1950    0.6920   -0.2400 C   0  0  0  0  0  0  0  0  0  0  0  0
  2  1  1  6
  2  3  1  0
  2  4  1  0
  4  5  1  6
  4  6  1  0
  4  7  1  0
  7  8  2  0
  9  7  1  1
  9 10  1  0
  9 11  1  0
 10 11  1  0
 11 12  2  3
 12 13  1  0
 13 14  2  3
 14 15  1  0
 14 19  1  0
 15 16  1  0
 16 17  1  0
 17 18  1  0
 18 19  1  0
M  CHG  1   6   1
M  END
