
     RDKit          3D

 19 20  0  0  0  0  0  0  0  0999 V2000
    4.3090   -2.9730   -0.2010 C   0  0  0  0  0  0  0  0  0  0  0  0
    3.0610   -2.3430    0.0510 O   0  0  0  0  0  0  0  0  0  0  0  0
    2.8020   -1.0500   -0.3360 C   0  0  0  0  0  0  0  0  0  0  0  0
    3.6810   -0.4060   -0.9230 O   0  0  0  0  0  0  0  0  0  0  0  0
    1.4870   -0.4470   -0.0490 C   0  0  0  0  0  0  0  0  0  0  0  0
    0.4740   -1.0540    0.5760 C   0  0  0  0  0  0  0  0  0  0  0  0
    0.6340   -2.4720    1.0680 C   0  0  0  0  0  0  0  0  0  0  0  0
   -0.6550   -0.1610    0.6900 C   0  0  2  0  0  0  0  0  0  0  0  0
   -1.8470   -0.4720   -0.1890 C   0  0  0  0  0  0  0  0  0  0  0  0
   -2.5080   -1.7610   -0.0120 C   0  0  0  0  0  0  0  0  0  0  0  0
   -1.8740   -2.9690   -0.4030 N   0  0  0  0  0  0  0  0  0  0  0  0
   -0.1190    1.1800    0.1410 C   0  0  0  0  0  0  0  0  0  0  0  0
   -0.9360    2.4020    0.1380 C   0  0  0  0  0  0  0  0  0  0  0  0
   -2.1480    2.5470    0.6670 C   0  0  0  0  0  0  0  0  0  0  0  0
   -2.6710    3.9240    0.4650 C   0  0  0  0  0  0  0  0  0  0  0  0
   -1.5960    4.5790   -0.2650 C   0  0  0  0  0  0  0  0  0  0  0  0
   -0.6110    3.6900   -0.4410 C   0  0  0  0  0  0  0  0  0  0  0  0
    1.0810    0.9220   -0.2780 C   0  0  0  0  0  0  0  0  0  0  0  0
    1.9620    1.9590   -0.9250 C   0  0  0  0  0  0  0  0  0  0  0  0
  1  2  1  0
  2  3  1  0
  3  4  2  0
  3  5  1  0
  5  6  2  0
  5 18  1  0
  6  7  1  0
  6  8  1  0
  8  9  1  6
  8 12  1  0
  9 10  1  0
 10 11  1  0
 12 13  1  0
 12 18  2  0
 13 14  2  0
 13 17  1  0
 14 15  1  0
 15 16  1  0
 16 17  2  0
 18 19  1  0
M  CHG  1  11   1
M  END
