
     RDKit          3D

 19 20  0  0  0  0  0  0  0  0999 V2000
    3.4420    4.2050   -0.1000 C   0  0  0  0  0  0  0  0  0  0  0  0
    2.7800    2.8470    0.0700 C   0  0  0  0  0  0  0  0  0  0  0  0
    1.5040    2.8330    0.0860 C   0  0  0  0  0  0  0  0  0  0  0  0
    0.6270    1.6880    0.2330 C   0  0  0  0  0  0  0  0  0  0  0  0
   -0.7090    1.8420    0.2550 O   0  0  0  0  0  0  0  0  0  0  0  0
   -1.3210    0.7230    0.3920 C   0  0  0  0  0  0  0  0  0  0  0  0
   -0.3800   -0.2730    0.4700 C   0  0  0  0  0  0  0  0  0  0  0  0
    0.8770    0.3470    0.3680 C   0  0  0  0  0  0  0  0  0  0  0  0
    2.2050   -0.2490    0.3840 C   0  0  0  0  0  0  0  0  0  0  0  0
    2.3050   -1.6720    0.5480 N   0  0  0  0  0  0  0  0  0  0  0  0
    2.4580   -2.2900   -0.7650 C   0  0  0  0  0  0  0  0  0  0  0  0
    3.8530   -1.9540   -1.2610 C   0  0  0  0  0  0  0  0  0  0  0  0
   -0.7300   -1.6930    0.6280 C   0  0  0  0  0  0  0  0  0  0  0  0
   -2.2580   -1.8710    0.4370 C   0  0  0  0  0  0  0  0  0  0  0  0
   -2.9440   -0.8090    1.2340 C   0  0  0  0  0  0  0  0  0  0  0  0
   -2.8060    0.4780    0.4620 C   0  0  2  0  0  0  0  0  0  0  0  0
   -3.4250    0.4830   -0.8880 C   0  0  0  0  0  0  0  0  0  0  0  0
   -4.8900    0.2450   -0.8160 C   0  0  0  0  0  0  0  0  0  0  0  0
   -5.2870   -0.9510   -0.2700 O   0  0  0  0  0  0  0  0  0  0  0  0
  1  2  1  0
  2  3  2  3
  3  4  1  0
  4  5  1  0
  4  8  2  0
  5  6  1  0
  6  7  2  0
  6 16  1  0
  7  8  1  0
  7 13  1  0
  8  9  1  0
  9 10  1  0
 10 11  1  0
 11 12  1  0
 13 14  1  0
 14 15  1  0
 15 16  1  0
 16 17  1  6
 17 18  1  0
 18 19  1  0
M  CHG  1  10   1
M  END
