
     RDKit          3D

 11 11  0  0  0  0  0  0  0  0999 V2000
    3.0820   -1.3300    0.1520 O   0  0  0  0  0  0  0  0  0  0  0  0
    1.9340   -0.9240   -0.1340 C   0  0  0  0  0  0  0  0  0  0  0  0
    0.9000   -1.8200   -0.4890 N   0  0  0  0  0  0  0  0  0  0  0  0
   -0.4500   -1.3640   -0.4130 C   0  0  0  0  0  0  0  0  0  0  0  0
   -0.6680   -0.2460    0.5530 C   0  0  2  0  0  0  0  0  0  0  0  0
   -2.0570    0.3160    0.3370 C   0  0  0  0  0  0  0  0  0  0  0  0
   -2.2480    0.8070   -0.9380 O   0  0  0  0  0  0  0  0  0  0  0  0
    0.3080    0.8640    0.4810 C   0  0  1  0  0  0  0  0  0  0  0  0
    0.5250    1.3610    1.7670 O   0  0  0  0  0  0  0  0  0  0  0  0
    1.6410    0.5080   -0.1060 C   0  0  2  0  0  0  0  0  0  0  0  0
    1.6600    0.9650   -1.4440 O   0  0  0  0  0  0  0  0  0  0  0  0
  1  2  2  0
  2  3  1  0
  2 10  1  0
  3  4  1  0
  4  5  1  0
  5  6  1  6
  5  8  1  0
  6  7  1  0
  8  9  1  1
  8 10  1  0
 10 11  1  6
M  END
