
     RDKit          3D

 19 21  0  0  0  0  0  0  0  0999 V2000
   -0.9090   -0.9250   -0.5790 O   0  0  0  0  0  0  0  0  0  0  0  0
   -0.8970   -0.0180    0.4800 C   0  0  2  0  0  0  0  0  0  0  0  0
    0.5440    0.2880    0.8190 C   0  0  0  0  0  0  0  0  0  0  0  0
    1.2590   -0.9570    1.2110 C   0  0  0  0  0  0  0  0  0  0  0  0
    2.5810   -0.7260    1.5100 O   0  0  0  0  0  0  0  0  0  0  0  0
    3.5720   -0.3310    0.6660 C   0  0  0  0  0  0  0  0  0  0  0  0
    4.8370   -0.1110    1.2360 C   0  0  0  0  0  0  0  0  0  0  0  0
    5.8610    0.2790    0.4390 C   0  0  0  0  0  0  0  0  0  0  0  0
    5.7020    0.4690   -0.9220 C   0  0  0  0  0  0  0  0  0  0  0  0
    4.4540    0.2470   -1.4610 C   0  0  0  0  0  0  0  0  0  0  0  0
    3.3840   -0.1530   -0.6770 C   0  0  0  0  0  0  0  0  0  0  0  0
   -1.7200   -0.4690    1.6510 C   0  0  0  0  0  0  0  0  0  0  0  0
   -2.9110   -1.1890    1.0710 C   0  0  0  0  0  0  0  0  0  0  0  0
   -3.5550   -0.2580    0.0840 C   0  0  0  0  0  0  0  0  0  0  0  0
   -2.9830    0.8160   -0.3840 C   0  0  0  0  0  0  0  0  0  0  0  0
   -3.8990    1.4730   -1.3170 C   0  0  0  0  0  0  0  0  0  0  0  0
   -4.9780    0.7380   -1.3470 C   0  0  0  0  0  0  0  0  0  0  0  0
   -4.8430   -0.3670   -0.4970 N   0  0  0  0  0  0  0  0  0  0  0  0
   -1.5940    1.2660    0.0070 C   0  0  0  0  0  0  0  0  0  0  0  0
  2  1  1  6
  2  3  1  0
  2 12  1  0
  2 19  1  0
  3  4  1  0
  4  5  1  0
  5  6  1  0
  6  7  2  0
  6 11  1  0
  7  8  1  0
  8  9  2  0
  9 10  1  0
 10 11  2  0
 12 13  1  0
 13 14  1  0
 14 15  2  0
 14 18  1  0
 15 16  1  0
 15 19  1  0
 16 17  2  0
 17 18  1  0
M  CHG  1  18   1
M  END
