
     RDKit          3D

 19 20  0  0  0  0  0  0  0  0999 V2000
    3.3460    2.0860   -0.3710 C   0  0  0  0  0  0  0  0  0  0  0  0
    2.7400    1.1290    0.6180 C   0  0  1  0  0  0  0  0  0  0  0  0
    1.3290    0.9130    0.4230 N   0  0  0  0  0  0  0  0  0  0  0  0
    0.9260    0.8070   -0.9390 C   0  0  0  0  0  0  0  0  0  0  0  0
   -0.1120    1.8370   -1.2900 C   0  0  0  0  0  0  0  0  0  0  0  0
   -1.2630    1.7760   -0.5730 O   0  0  0  0  0  0  0  0  0  0  0  0
   -1.9760    0.6020   -0.6630 C   0  0  2  0  0  0  0  0  0  0  0  0
   -3.3150    0.8780   -1.2800 C   0  0  0  0  0  0  0  0  0  0  0  0
   -4.1440   -0.3190   -1.5500 C   0  0  0  0  0  0  0  0  0  0  0  0
   -3.7140   -1.5660   -0.8470 C   0  0  0  0  0  0  0  0  0  0  0  0
   -4.0350   -1.4750    0.6250 C   0  0  0  0  0  0  0  0  0  0  0  0
   -3.4470   -0.2240    1.1970 C   0  0  0  0  0  0  0  0  0  0  0  0
   -2.0450    0.0180    0.7060 C   0  0  1  0  0  0  0  0  0  0  0  0
   -1.3550   -1.2070    0.7390 O   0  0  0  0  0  0  0  0  0  0  0  0
    3.5170   -0.1340    0.5530 C   0  0  0  0  0  0  0  0  0  0  0  0
    4.1730   -0.6800    1.5610 C   0  0  0  0  0  0  0  0  0  0  0  0
    4.8280   -1.9280    1.1380 C   0  0  0  0  0  0  0  0  0  0  0  0
    4.4630   -2.0460   -0.2760 C   0  0  0  0  0  0  0  0  0  0  0  0
    3.7150   -1.0140   -0.5920 C   0  0  0  0  0  0  0  0  0  0  0  0
  2  1  1  6
  2  3  1  0
  2 15  1  0
  3  4  1  0
  4  5  1  0
  5  6  1  0
  7  6  1  1
  7  8  1  0
  7 13  1  0
  8  9  1  0
  9 10  1  0
 10 11  1  0
 11 12  1  0
 12 13  1  0
 13 14  1  6
 15 16  2  0
 15 19  1  0
 16 17  1  0
 17 18  1  0
 18 19  2  0
M  CHG  1   3   1
M  END
