
     RDKit          3D

 11 11  0  0  0  0  0  0  0  0999 V2000
   -3.3340    0.7450    0.0770 O   0  0  0  0  0  0  0  0  0  0  0  0
   -2.0870    0.5670    0.0850 C   0  0  0  0  0  0  0  0  0  0  0  0
   -1.2550    1.7000    0.2170 N   0  0  0  0  0  0  0  0  0  0  0  0
    0.1450    1.5330   -0.1840 C   0  0  0  0  0  0  0  0  0  0  0  0
    0.6440    0.2520    0.3890 C   0  0  2  0  0  0  0  0  0  0  0  0
    2.0870    0.0450   -0.0910 C   0  0  0  0  0  0  0  0  0  0  0  0
    2.9110    1.0650    0.3140 O   0  0  0  0  0  0  0  0  0  0  0  0
   -0.1230   -0.9590    0.0030 C   0  0  1  0  0  0  0  0  0  0  0  0
    0.1770   -1.9670    0.9470 O   0  0  0  0  0  0  0  0  0  0  0  0
   -1.5940   -0.8110   -0.0440 C   0  0  2  0  0  0  0  0  0  0  0  0
   -2.0480   -1.2920   -1.2900 O   0  0  0  0  0  0  0  0  0  0  0  0
  1  2  2  0
  2  3  1  0
  2 10  1  0
  3  4  1  0
  4  5  1  0
  5  6  1  6
  5  8  1  0
  6  7  1  0
  8  9  1  1
  8 10  1  0
 10 11  1  6
M  END
