
     RDKit          3D

 19 20  0  0  0  0  0  0  0  0999 V2000
    5.4250    1.5470   -0.2100 C   0  0  0  0  0  0  0  0  0  0  0  0
    4.1940    1.7910    0.4660 O   0  0  0  0  0  0  0  0  0  0  0  0
    3.4660    0.7280    0.9960 C   0  0  0  0  0  0  0  0  0  0  0  0
    3.9360   -0.4040    0.8490 O   0  0  0  0  0  0  0  0  0  0  0  0
    2.1880    0.9220    1.7050 C   0  0  0  0  0  0  0  0  0  0  0  0
    1.5380   -0.3600    2.1380 C   0  0  0  0  0  0  0  0  0  0  0  0
    1.1640   -1.2940    1.0470 C   0  0  0  0  0  0  0  0  0  0  0  0
    0.1790   -0.7080    0.0290 C   0  0  1  0  0  0  0  0  0  0  0  0
   -0.0580   -1.7750   -0.9650 C   0  0  0  0  0  0  0  0  0  0  0  0
   -1.2870   -2.6090   -0.7740 C   0  0  0  0  0  0  0  0  0  0  0  0
   -2.5650   -1.8510   -0.9000 C   0  0  0  0  0  0  0  0  0  0  0  0
   -2.9700   -1.4900    0.4870 C   0  0  0  0  0  0  0  0  0  0  0  0
   -1.9730   -0.8670    1.2580 N   0  0  0  0  0  0  0  0  0  0  0  0
   -0.9880   -0.0480    0.6620 C   0  0  2  0  0  0  0  0  0  0  0  0
   -1.5470    1.0880   -0.1350 C   0  0  0  0  0  0  0  0  0  0  0  0
   -1.0670    1.4930   -1.3000 C   0  0  0  0  0  0  0  0  0  0  0  0
   -1.8780    2.6580   -1.8090 C   0  0  0  0  0  0  0  0  0  0  0  0
   -2.8810    2.8200   -0.7260 C   0  0  0  0  0  0  0  0  0  0  0  0
   -2.6810    1.9250    0.2120 C   0  0  0  0  0  0  0  0  0  0  0  0
  1  2  1  0
  2  3  1  0
  3  4  2  0
  3  5  1  0
  5  6  1  0
  6  7  1  0
  8  7  1  1
  8  9  1  0
  8 14  1  0
  9 10  1  0
 10 11  1  0
 11 12  1  0
 12 13  1  0
 13 14  1  0
 14 15  1  6
 15 16  2  0
 15 19  1  0
 16 17  1  0
 17 18  1  0
 18 19  2  0
M  CHG  1  13   1
M  END
