
     RDKit          3D

 19 20  0  0  0  0  0  0  0  0999 V2000
    4.6950   -3.0280    0.1820 C   0  0  0  0  0  0  0  0  0  0  0  0
    3.3590   -2.5480    0.2170 O   0  0  0  0  0  0  0  0  0  0  0  0
    3.0780   -1.1720    0.2540 C   0  0  0  0  0  0  0  0  0  0  0  0
    4.0280   -0.4100    0.2550 O   0  0  0  0  0  0  0  0  0  0  0  0
    1.6840   -0.7020    0.2900 C   0  0  0  0  0  0  0  0  0  0  0  0
    0.6500   -1.4920    0.2840 C   0  0  0  0  0  0  0  0  0  0  0  0
    0.6980   -2.9790    0.2450 C   0  0  0  0  0  0  0  0  0  0  0  0
   -0.6210   -0.6630    0.2860 C   0  0  2  0  0  0  0  0  0  0  0  0
   -1.1900   -0.9850   -1.0910 C   0  0  0  0  0  0  0  0  0  0  0  0
   -2.4500   -0.4890   -1.5790 C   0  0  0  0  0  0  0  0  0  0  0  0
   -3.6310   -0.9120   -0.8490 N   0  0  0  0  0  0  0  0  0  0  0  0
   -0.0890    0.7280    0.3820 C   0  0  0  0  0  0  0  0  0  0  0  0
   -0.9400    1.9520    0.4780 C   0  0  0  0  0  0  0  0  0  0  0  0
   -2.2620    1.9910    0.5780 C   0  0  0  0  0  0  0  0  0  0  0  0
   -2.7630    3.3860    0.6420 C   0  0  0  0  0  0  0  0  0  0  0  0
   -1.5350    4.1700    0.5540 C   0  0  0  0  0  0  0  0  0  0  0  0
   -0.5020    3.3300    0.4620 C   0  0  0  0  0  0  0  0  0  0  0  0
    1.2350    0.6780    0.3630 C   0  0  0  0  0  0  0  0  0  0  0  0
    2.1570    1.8740    0.4350 C   0  0  0  0  0  0  0  0  0  0  0  0
  1  2  1  0
  2  3  1  0
  3  4  2  0
  3  5  1  0
  5  6  2  0
  5 18  1  0
  6  7  1  0
  6  8  1  0
  8  9  1  6
  8 12  1  0
  9 10  1  0
 10 11  1  0
 12 13  1  0
 12 18  2  0
 13 14  2  0
 13 17  1  0
 14 15  1  0
 15 16  1  0
 16 17  2  0
 18 19  1  0
M  CHG  1  11   1
M  END
