
     RDKit          3D

 19 21  0  0  0  0  0  0  0  0999 V2000
   -6.4160    0.1830    1.2020 N   0  0  0  0  0  0  0  0  0  0  0  0
   -5.9000   -0.0360   -0.1290 C   0  0  0  0  0  0  0  0  0  0  0  0
   -4.4180   -0.0520   -0.0820 C   0  0  0  0  0  0  0  0  0  0  0  0
   -3.7370   -0.2490   -1.2610 C   0  0  0  0  0  0  0  0  0  0  0  0
   -2.3620   -0.2770   -1.3030 C   0  0  0  0  0  0  0  0  0  0  0  0
   -1.6140   -0.1030   -0.1300 C   0  0  0  0  0  0  0  0  0  0  0  0
   -0.1460   -0.1360   -0.1970 C   0  0  0  0  0  0  0  0  0  0  0  0
    0.5720    0.0240    0.8820 C   0  0  0  0  0  0  0  0  0  0  0  0
    2.0460   -0.0110    0.8110 C   0  0  0  0  0  0  0  0  0  0  0  0
    2.6310   -0.2030   -0.3470 C   0  0  0  0  0  0  0  0  0  0  0  0
    4.0150   -0.2320   -0.3900 O   0  0  0  0  0  0  0  0  0  0  0  0
    4.8250   -0.0840    0.7570 C   0  0  0  0  0  0  0  0  0  0  0  0
    6.2740   -0.1760    0.2670 C   0  0  2  0  0  0  0  0  0  0  0  0
    7.1600    0.9470    0.6440 C   0  0  0  0  0  0  0  0  0  0  0  0
    6.7000    0.7590   -0.6600 O   0  0  0  0  0  0  0  0  0  0  0  0
    1.9060   -0.3940   -1.6180 C   0  0  0  0  0  0  0  0  0  0  0  0
    0.4350   -0.3590   -1.5450 C   0  0  0  0  0  0  0  0  0  0  0  0
   -2.2940    0.0950    1.0510 C   0  0  0  0  0  0  0  0  0  0  0  0
   -3.6840    0.1190    1.0660 C   0  0  0  0  0  0  0  0  0  0  0  0
  1  2  1  0
  2  3  1  0
  3  4  2  0
  3 19  1  0
  4  5  1  0
  5  6  2  0
  6  7  1  0
  6 18  1  0
  7  8  2  0
  7 17  1  0
  8  9  1  0
  9 10  2  0
 10 11  1  0
 10 16  1  0
 11 12  1  0
 13 12  1  1
 13 14  1  0
 13 15  1  0
 14 15  1  0
 16 17  1  0
 18 19  2  0
M  CHG  1   1   1
M  END
