
     RDKit          3D

 37 41  0  0  0  0  0  0  0  0999 V2000
    8.1370   -0.3700   -2.3050 C   0  0  0  0  0  0  0  0  0  0  0  0
    8.1820   -1.7680   -1.7130 C   0  0  0  0  0  0  0  0  0  0  0  0
    7.7860   -1.6690   -0.2520 C   0  0  0  0  0  0  0  0  0  0  0  0
    6.4270   -1.1160   -0.1180 C   0  0  0  0  0  0  0  0  0  0  0  0
    5.3040   -1.8470   -0.0920 N   0  0  0  0  0  0  0  0  0  0  0  0
    4.2930   -1.0180    0.0380 O   0  0  0  0  0  0  0  0  0  0  0  0
    4.6870    0.2120    0.0990 C   0  0  0  0  0  0  0  0  0  0  0  0
    3.9220    1.4160    0.2380 C   0  0  0  0  0  0  0  0  0  0  0  0
    2.6220    1.4590    0.3320 C   0  0  0  0  0  0  0  0  0  0  0  0
    1.7560    0.3110    0.3090 C   0  0  0  0  0  0  0  0  0  0  0  0
    0.4430    0.4520    0.4110 C   0  0  0  0  0  0  0  0  0  0  0  0
   -0.4460   -0.6770    0.3910 N   0  0  0  0  0  0  0  0  0  0  0  0
   -1.7590   -0.1700    0.5190 C   0  0  0  0  0  0  0  0  0  0  0  0
   -2.8820   -0.8120    0.5510 N   0  0  0  0  0  0  0  0  0  0  0  0
   -3.0210   -2.2080    0.4600 C   0  0  0  0  0  0  0  0  0  0  0  0
   -1.9910   -3.0810    0.3260 N   0  0  0  0  0  0  0  0  0  0  0  0
   -2.1770   -4.3940    0.2440 C   0  0  0  0  0  0  0  0  0  0  0  0
   -1.1430   -5.3050    0.1070 O   0  0  0  0  0  0  0  0  0  0  0  0
   -3.4330   -4.9010    0.2950 N   0  0  0  0  0  0  0  0  0  0  0  0
   -4.4850   -4.0710    0.4280 C   0  0  0  0  0  0  0  0  0  0  0  0
   -6.1120   -4.7540    0.4920 Cl  0  0  0  0  0  0  0  0  0  0  0  0
   -4.3280   -2.7090    0.5150 C   0  0  0  0  0  0  0  0  0  0  0  0
   -5.4580   -1.7650    0.6620 C   0  0  1  0  0  0  0  0  0  0  0  0
   -5.2650   -1.0710    1.8590 F   0  0  0  0  0  0  0  0  0  0  0  0
   -5.4460   -0.9130   -0.4180 F   0  0  0  0  0  0  0  0  0  0  0  0
   -7.0050   -2.5860    0.7730 Cl  0  0  0  0  0  0  0  0  0  0  0  0
   -1.7360    1.2700    0.6210 N   0  0  0  0  0  0  0  0  0  0  0  0
   -2.8710    2.1480    0.7630 C   0  0  0  0  0  0  0  0  0  0  0  0
   -3.4270    2.6030   -0.5530 C   0  0  0  0  0  0  0  0  0  0  0  0
   -4.5820    3.4940   -0.2930 C   0  0  0  0  0  0  0  0  0  0  0  0
   -5.3540    4.1100   -1.2030 N   0  0  0  0  0  0  0  0  0  0  0  0
   -6.3130    4.8430   -0.6030 C   0  0  0  0  0  0  0  0  0  0  0  0
   -6.1290    4.6760    0.7430 C   0  0  0  0  0  0  0  0  0  0  0  0
   -5.0830    3.8610    0.9050 N   0  0  0  0  0  0  0  0  0  0  0  0
   -0.3700    1.6430    0.5530 C   0  0  0  0  0  0  0  0  0  0  0  0
    0.0420    2.8240    0.6090 O   0  0  0  0  0  0  0  0  0  0  0  0
    6.0580    0.1630   -0.0000 N   0  0  0  0  0  0  0  0  0  0  0  0
  1  2  1  0
  2  3  1  0
  3  4  1  0
  4  5  2  0
  4 37  1  0
  5  6  1  0
  6  7  1  0
  7  8  1  0
  7 37  2  0
  8  9  2  3
  9 10  1  0
 10 11  2  3
 11 12  1  0
 11 35  1  0
 12 13  1  0
 13 14  2  3
 13 27  1  0
 14 15  1  0
 15 16  2  0
 15 22  1  0
 16 17  1  0
 17 18  1  0
 17 19  2  0
 19 20  1  0
 20 21  1  0
 20 22  2  0
 22 23  1  0
 23 24  1  1
 23 25  1  0
 23 26  1  0
 27 28  1  0
 27 35  1  0
 28 29  1  0
 29 30  1  0
 30 31  2  0
 30 34  1  0
 31 32  1  0
 32 33  2  0
 33 34  1  0
 35 36  2  0
 26 21  1  0
M  CHG  2  18  -1  19   1
M  END
