
     RDKit          3D

 36 39  0  0  0  0  0  0  0  0999 V2000
   -6.5070    2.9450   -1.8520 C   0  0  0  0  0  0  0  0  0  0  0  0
   -5.3060    2.3810   -1.2040 C   0  0  0  0  0  0  0  0  0  0  0  0
   -4.1120    2.2060   -1.8140 N   0  0  0  0  0  0  0  0  0  0  0  0
   -3.0540    1.6990   -1.2080 C   0  0  0  0  0  0  0  0  0  0  0  0
   -1.7870    1.5090   -1.8920 C   0  0  0  0  0  0  0  0  0  0  0  0
   -1.6280    1.8330   -3.2260 C   0  0  0  0  0  0  0  0  0  0  0  0
   -0.4420    1.6450   -3.8860 C   0  0  0  0  0  0  0  0  0  0  0  0
    0.6400    1.1110   -3.1980 C   0  0  0  0  0  0  0  0  0  0  0  0
    1.8440    0.8980   -3.7860 C   0  0  0  0  0  0  0  0  0  0  0  0
    2.8620    0.3640   -3.0220 N   0  0  0  0  0  0  0  0  0  0  0  0
    4.0290    0.2050   -3.7110 O   0  0  0  0  0  0  0  0  0  0  0  0
    2.7180    0.0510   -1.7440 C   0  0  0  0  0  0  0  0  0  0  0  0
    3.7170   -0.5110   -0.9190 N   0  0  0  0  0  0  0  0  0  0  0  0
    5.0160   -0.9180   -1.2300 C   0  0  0  0  0  0  0  0  0  0  0  0
    5.4440   -0.8270   -2.3870 O   0  0  0  0  0  0  0  0  0  0  0  0
    5.9210   -1.4570   -0.2480 N   0  0  0  0  0  0  0  0  0  0  0  0
    7.2800   -1.8740   -0.6270 C   0  0  2  0  0  0  0  0  0  0  0  0
    7.4270   -3.2780   -0.2200 C   0  0  0  0  0  0  0  0  0  0  0  0
    8.4080   -3.3230    0.6680 C   0  0  0  0  0  0  0  0  0  0  0  0
    8.9380   -1.9740    0.8770 C   0  0  0  0  0  0  0  0  0  0  0  0
   10.2470   -1.5690    1.9760 Cl  0  0  0  0  0  0  0  0  0  0  0  0
    8.2890   -1.1170    0.1270 C   0  0  0  0  0  0  0  0  0  0  0  0
    1.4900    0.2740   -1.1620 N   0  0  0  0  0  0  0  0  0  0  0  0
    0.4800    0.7890   -1.8690 C   0  0  0  0  0  0  0  0  0  0  0  0
   -0.7190    1.0000   -1.2780 N   0  0  0  0  0  0  0  0  0  0  0  0
   -3.1750    1.3380    0.0820 N   0  0  0  0  0  0  0  0  0  0  0  0
   -4.3030    1.4750    0.7490 N   0  0  0  0  0  0  0  0  0  0  0  0
   -4.4590    1.0720    2.1550 C   0  0  0  0  0  0  0  0  0  0  0  0
   -4.9100   -0.3860    2.2070 C   0  0  0  0  0  0  0  0  0  0  0  0
   -5.0770   -0.7770    3.5650 N   0  0  0  0  0  0  0  0  0  0  0  0
   -3.8530   -0.8530    4.2820 C   0  0  0  0  0  0  0  0  0  0  0  0
   -2.9800   -1.9960    3.8000 C   0  0  1  0  0  0  0  0  0  0  0  0
   -1.8120   -1.9940    4.5630 F   0  0  0  0  0  0  0  0  0  0  0  0
   -3.6310   -3.2100    3.9350 F   0  0  0  0  0  0  0  0  0  0  0  0
   -5.3810    1.9970    0.1150 C   0  0  0  0  0  0  0  0  0  0  0  0
   -6.4620    2.1230    0.7710 O   0  0  0  0  0  0  0  0  0  0  0  0
  1  2  1  0
  2  3  2  0
  2 35  1  0
  3  4  1  0
  4  5  1  0
  4 26  2  0
  5  6  2  0
  5 25  1  0
  6  7  1  0
  7  8  2  0
  8  9  1  0
  8 24  1  0
  9 10  2  0
 10 11  1  0
 10 12  1  0
 12 13  1  0
 12 23  2  0
 13 14  1  0
 14 15  2  0
 14 16  1  0
 17 16  1  1
 17 18  1  0
 17 22  1  0
 18 19  2  0
 19 20  1  0
 20 21  1  0
 20 22  2  0
 23 24  1  0
 24 25  2  0
 26 27  1  0
 27 28  1  0
 27 35  1  0
 28 29  1  0
 29 30  1  0
 30 31  1  0
 31 32  1  0
 32 33  1  1
 32 34  1  0
 35 36  2  0
M  CHG  2  10   1  11  -1
M  END
