
     RDKit          3D

 37 40  0  0  0  0  0  0  0  0999 V2000
    7.1710   -1.5780    0.7830 C   0  0  0  0  0  0  0  0  0  0  0  0
    5.6810   -1.5490    0.5870 C   0  0  0  0  0  0  0  0  0  0  0  0
    5.3220   -0.6860   -0.5240 N   0  0  0  0  0  0  0  0  0  0  0  0
    6.1290    0.0080   -1.3550 C   0  0  0  0  0  0  0  0  0  0  0  0
    5.3760    0.6890   -2.2650 C   0  0  0  0  0  0  0  0  0  0  0  0
    5.9380    1.7470   -3.5750 Cl  0  0  0  0  0  0  0  0  0  0  0  0
    4.0720    0.3700   -1.9640 C   0  0  0  0  0  0  0  0  0  0  0  0
    4.0620   -0.4960   -0.8540 C   0  0  0  0  0  0  0  0  0  0  0  0
    2.7800   -0.9420   -0.2740 C   0  0  0  0  0  0  0  0  0  0  0  0
    2.1750   -1.8500   -0.8160 O   0  0  0  0  0  0  0  0  0  0  0  0
    2.2720   -0.2850    0.8620 N   0  0  0  0  0  0  0  0  0  0  0  0
    1.0180   -0.4590    1.5450 C   0  0  0  0  0  0  0  0  0  0  0  0
   -0.0660   -0.6510    0.5670 C   0  0  0  0  0  0  0  0  0  0  0  0
   -0.0860   -1.7240   -0.2160 N   0  0  0  0  0  0  0  0  0  0  0  0
   -1.1050   -2.0570   -0.9310 N   0  0  0  0  0  0  0  0  0  0  0  0
   -2.2450   -1.3030   -0.9040 N   0  0  0  0  0  0  0  0  0  0  0  0
   -3.2510   -1.8140   -1.8280 C   0  0  0  0  0  0  0  0  0  0  0  0
   -4.0630   -2.9450   -1.4000 C   0  0  0  0  0  0  0  0  0  0  0  0
   -3.4120   -4.1730   -1.3010 N   0  0  0  0  0  0  0  0  0  0  0  0
   -4.0980   -5.2520   -0.8780 C   0  0  0  0  0  0  0  0  0  0  0  0
   -5.4390   -5.1700   -0.5480 C   0  0  0  0  0  0  0  0  0  0  0  0
   -6.0430   -3.9770   -0.6510 N   0  0  0  0  0  0  0  0  0  0  0  0
   -5.3610   -2.8790   -1.0710 C   0  0  0  0  0  0  0  0  0  0  0  0
   -6.3030   -1.4070   -1.2330 Cl  0  0  0  0  0  0  0  0  0  0  0  0
   -2.3030   -0.2400   -0.1610 C   0  0  0  0  0  0  0  0  0  0  0  0
   -3.3500    0.4210   -0.1560 O   0  0  0  0  0  0  0  0  0  0  0  0
   -1.2190    0.1600    0.6160 C   0  0  0  0  0  0  0  0  0  0  0  0
   -1.0510    1.5040    0.9940 N   0  0  0  0  0  0  0  0  0  0  0  0
   -1.9390    2.5390    1.2150 C   0  0  0  0  0  0  0  0  0  0  0  0
   -1.5440    3.7750    0.5720 C   0  0  0  0  0  0  0  0  0  0  0  0
   -2.1860    4.9320    0.7010 C   0  0  0  0  0  0  0  0  0  0  0  0
   -3.3250    4.9390    1.5330 C   0  0  0  0  0  0  0  0  0  0  0  0
   -4.0600    6.2350    1.6990 C   0  0  1  0  0  0  0  0  0  0  0  0
   -3.5250    6.9540    2.7570 F   0  0  0  0  0  0  0  0  0  0  0  0
   -3.8510    6.9600    0.5590 F   0  0  0  0  0  0  0  0  0  0  0  0
   -3.6820    3.7890    2.1280 N   0  0  0  0  0  0  0  0  0  0  0  0
   -3.0240    2.6470    1.9710 N   0  0  0  0  0  0  0  0  0  0  0  0
  1  2  1  0
  2  3  1  0
  3  4  1  0
  3  8  1  0
  4  5  2  0
  5  6  1  0
  5  7  1  0
  7  8  2  0
  8  9  1  0
  9 10  2  0
  9 11  1  0
 11 12  1  0
 12 13  1  0
 13 14  1  0
 13 27  2  0
 14 15  2  0
 15 16  1  0
 16 17  1  0
 16 25  1  0
 17 18  1  0
 18 19  2  0
 18 23  1  0
 19 20  1  0
 20 21  2  0
 21 22  1  0
 22 23  2  0
 23 24  1  0
 25 26  2  0
 25 27  1  0
 27 28  1  0
 28 29  1  0
 29 30  2  0
 29 37  1  0
 30 31  1  0
 31 32  2  0
 32 33  1  0
 32 36  1  0
 33 34  1  1
 33 35  1  0
 36 37  2  0
M  END
