
     RDKit          3D

 37 40  0  0  0  0  0  0  0  0999 V2000
    6.0790    4.3450   -1.0930 N   0  0  0  0  0  0  0  0  0  0  0  0
    5.9670    2.9690   -0.8240 C   0  0  0  0  0  0  0  0  0  0  0  0
    5.1360    2.1340   -1.4880 N   0  0  0  0  0  0  0  0  0  0  0  0
    5.2790    0.9240   -0.9900 N   0  0  0  0  0  0  0  0  0  0  0  0
    6.1870    0.9550   -0.0160 C   0  0  0  0  0  0  0  0  0  0  0  0
    6.6460   -0.1420    0.7910 C   0  0  0  0  0  0  0  0  0  0  0  0
    7.8970    0.3060    2.0050 Cl  0  0  0  0  0  0  0  0  0  0  0  0
    6.2810   -1.3940    0.7580 C   0  0  0  0  0  0  0  0  0  0  0  0
    5.3190   -2.0660   -0.0770 C   0  0  0  0  0  0  0  0  0  0  0  0
    5.1280   -3.3830    0.0970 C   0  0  0  0  0  0  0  0  0  0  0  0
    5.8200   -4.2230    1.0740 C   0  0  1  0  0  0  0  0  0  0  0  0
    5.6130   -3.7530    2.3400 F   0  0  0  0  0  0  0  0  0  0  0  0
    5.3490   -5.5410    0.9480 F   0  0  0  0  0  0  0  0  0  0  0  0
    7.5760   -4.2900    0.6840 Cl  0  0  0  0  0  0  0  0  0  0  0  0
    4.5530   -1.4700   -1.0660 O   0  0  0  0  0  0  0  0  0  0  0  0
    3.1670   -1.5500   -1.1970 C   0  0  0  0  0  0  0  0  0  0  0  0
    2.3790   -0.9950   -0.0510 C   0  0  0  0  0  0  0  0  0  0  0  0
    0.9650   -1.1150   -0.2390 N   0  0  0  0  0  0  0  0  0  0  0  0
    0.4680   -0.2900   -1.3130 C   0  0  0  0  0  0  0  0  0  0  0  0
   -1.0380   -0.5320   -1.4200 C   0  0  0  0  0  0  0  0  0  0  0  0
   -1.6620    0.0670   -0.2380 N   0  0  0  0  0  0  0  0  0  0  0  0
   -2.9700    0.5860   -0.2460 C   0  0  0  0  0  0  0  0  0  0  0  0
   -3.2850    1.7190   -0.9800 C   0  0  0  0  0  0  0  0  0  0  0  0
   -4.5400    2.2530   -1.0140 C   0  0  0  0  0  0  0  0  0  0  0  0
   -5.5600    1.6420   -0.2820 C   0  0  0  0  0  0  0  0  0  0  0  0
   -6.8560    2.2040   -0.3300 N   0  0  0  0  0  0  0  0  0  0  0  0
   -7.9590    1.5710    0.2870 C   0  0  0  0  0  0  0  0  0  0  0  0
   -8.1720    0.3290    0.3770 N   0  0  0  0  0  0  0  0  0  0  0  0
   -9.4030    0.0560    1.0750 C   0  0  0  0  0  0  0  0  0  0  0  0
   -9.9080    1.4010    1.3890 C   0  0  0  0  0  0  0  0  0  0  0  0
   -9.0680    2.2290    0.9320 N   0  0  0  0  0  0  0  0  0  0  0  0
   -5.2390    0.5240    0.4420 C   0  0  0  0  0  0  0  0  0  0  0  0
   -3.9680    0.0320    0.4400 N   0  0  0  0  0  0  0  0  0  0  0  0
   -3.7150   -1.1070    1.1970 O   0  0  0  0  0  0  0  0  0  0  0  0
   -0.8520    0.0830    0.9510 C   0  0  0  0  0  0  0  0  0  0  0  0
    0.1970   -1.0030    0.9660 C   0  0  0  0  0  0  0  0  0  0  0  0
    6.5750    2.2210    0.0460 O   0  0  0  0  0  0  0  0  0  0  0  0
  1  2  1  0
  2  3  2  0
  2 37  1  0
  3  4  1  0
  4  5  2  0
  5  6  1  0
  5 37  1  0
  6  7  1  0
  6  8  2  3
  8  9  1  0
  9 10  2  3
  9 15  1  0
 10 11  1  0
 11 12  1  1
 11 13  1  0
 11 14  1  0
 15 16  1  0
 16 17  1  0
 17 18  1  0
 18 19  1  0
 18 36  1  0
 19 20  1  0
 20 21  1  0
 21 22  1  0
 21 35  1  0
 22 23  2  0
 22 33  1  0
 23 24  1  0
 24 25  2  0
 25 26  1  0
 25 32  1  0
 26 27  1  0
 27 28  2  0
 27 31  1  0
 28 29  1  0
 29 30  1  0
 30 31  2  0
 32 33  2  0
 33 34  1  0
 35 36  1  0
M  CHG  2  33   1  34  -1
M  END
