
     RDKit          3D

 13 14  0  0  0  0  0  0  0  0999 V2000
    4.9880    0.0360    0.0130 O   0  0  0  0  0  0  0  0  0  0  0  0
    3.7340    0.0740   -0.2530 C   0  0  0  0  0  0  0  0  0  0  0  0
    3.1000    0.2840   -1.4640 N   0  0  0  0  0  0  0  0  0  0  0  0
    1.6740    0.2370   -1.2600 C   0  0  0  0  0  0  0  0  0  0  0  0
    0.9210    0.4010   -2.2160 O   0  0  0  0  0  0  0  0  0  0  0  0
    1.4040   -0.0110    0.1380 C   0  0  0  0  0  0  0  0  0  0  0  0
    0.3310   -0.1440    0.8460 C   0  0  0  0  0  0  0  0  0  0  0  0
   -1.0690   -0.1000    0.5370 C   0  0  0  0  0  0  0  0  0  0  0  0
   -2.0240   -0.2740    1.4850 C   0  0  0  0  0  0  0  0  0  0  0  0
   -3.3350   -0.1730    0.8580 C   0  0  0  0  0  0  0  0  0  0  0  0
   -3.0730    0.0780   -0.5520 C   0  0  0  0  0  0  0  0  0  0  0  0
   -1.7350    0.1200   -0.7330 C   0  0  0  0  0  0  0  0  0  0  0  0
    2.7330   -0.1050    0.7220 N   0  0  0  0  0  0  0  0  0  0  0  0
  1  2  2  0
  2  3  1  0
  2 13  1  0
  3  4  1  0
  4  5  2  0
  4  6  1  0
  6  7  2  3
  6 13  1  0
  7  8  1  0
  8  9  2  0
  8 12  1  0
  9 10  1  0
 10 11  1  0
 11 12  2  0
M  END
