
     RDKit          3D

 19 20  0  0  0  0  0  0  0  0999 V2000
    1.1230    0.3560   -2.4110 C   0  0  0  0  0  0  0  0  0  0  0  0
    1.5330    0.5370   -0.9710 C   0  0  0  0  0  0  0  0  0  0  0  0
    0.6260    0.3790    0.0220 C   0  0  0  0  0  0  0  0  0  0  0  0
   -0.7010    0.0420   -0.3440 C   0  0  0  0  0  0  0  0  0  0  0  0
   -1.8770   -0.2090    0.1040 C   0  0  0  0  0  0  0  0  0  0  0  0
   -2.3980   -0.2480    1.4430 C   0  0  0  0  0  0  0  0  0  0  0  0
   -1.6980   -0.0050    2.4250 O   0  0  0  0  0  0  0  0  0  0  0  0
   -3.7900   -0.5770    1.7170 N   0  0  0  0  0  0  0  0  0  0  0  0
   -4.6780   -0.8690    0.6770 C   0  0  0  0  0  0  0  0  0  0  0  0
   -5.8810   -1.1560    0.8850 O   0  0  0  0  0  0  0  0  0  0  0  0
   -4.2450   -0.8510   -0.6560 N   0  0  0  0  0  0  0  0  0  0  0  0
   -2.9010   -0.5350   -0.9450 C   0  0  0  0  0  0  0  0  0  0  0  0
   -2.5580   -0.5300   -2.1410 O   0  0  0  0  0  0  0  0  0  0  0  0
    1.1550    0.5650    1.3510 C   0  0  0  0  0  0  0  0  0  0  0  0
    0.5160    0.4720    2.4100 O   0  0  0  0  0  0  0  0  0  0  0  0
    2.5520    0.8960    1.6230 N   0  0  0  0  0  0  0  0  0  0  0  0
    3.5120    0.6260    0.5800 C   0  0  1  0  0  0  0  0  0  0  0  0
    3.9370   -0.7550    0.7150 N   0  0  0  0  0  0  0  0  0  0  0  0
    2.8770    0.8760   -0.6880 N   0  0  0  0  0  0  0  0  0  0  0  0
  1  2  1  0
  2  3  2  0
  2 19  1  0
  3  4  1  0
  3 14  1  0
  4  5  2  3
  5  6  1  0
  5 12  1  0
  6  7  2  0
  6  8  1  0
  8  9  1  0
  9 10  2  0
  9 11  1  0
 11 12  1  0
 12 13  2  0
 14 15  2  0
 14 16  1  0
 16 17  1  0
 17 18  1  6
 17 19  1  0
M  END
