
     RDKit          3D

 19 20  0  0  0  0  0  0  0  0999 V2000
    1.4620   -1.7850    2.2330 O   0  0  0  0  0  0  0  0  0  0  0  0
    1.2550   -2.0060    0.9750 C   0  0  0  0  0  0  0  0  0  0  0  0
   -0.0690   -2.4410    0.6810 N   0  0  0  0  0  0  0  0  0  0  0  0
   -0.9100   -1.9670   -0.3580 C   0  0  0  0  0  0  0  0  0  0  0  0
   -1.4930   -0.8040   -0.5010 C   0  0  0  0  0  0  0  0  0  0  0  0
   -2.3700   -0.1720   -1.4880 C   0  0  0  0  0  0  0  0  0  0  0  0
   -3.1680    0.6690   -0.8660 C   0  0  0  0  0  0  0  0  0  0  0  0
   -2.8620    0.6470    0.6030 C   0  0  0  0  0  0  0  0  0  0  0  0
   -1.3490    0.2800    0.5370 C   0  0  2  0  0  0  0  0  0  0  0  0
   -0.6380    1.3930   -0.0620 N   0  0  0  0  0  0  0  0  0  0  0  0
    0.3060    2.2450    0.5630 C   0  0  0  0  0  0  0  0  0  0  0  0
   -0.1670    3.4490    0.7620 O   0  0  0  0  0  0  0  0  0  0  0  0
    1.6240    1.9180    0.9570 N   0  0  0  0  0  0  0  0  0  0  0  0
    2.7040    1.4640    0.2020 N   0  0  0  0  0  0  0  0  0  0  0  0
    2.7440    0.5680   -0.8890 C   0  0  0  0  0  0  0  0  0  0  0  0
    2.9890    1.1250   -2.0320 O   0  0  0  0  0  0  0  0  0  0  0  0
    2.5610   -0.8780   -0.9390 C   0  0  0  0  0  0  0  0  0  0  0  0
    2.5870   -1.4400   -2.1220 O   0  0  0  0  0  0  0  0  0  0  0  0
    2.3580   -1.7830    0.1230 N   0  0  0  0  0  0  0  0  0  0  0  0
  1  2  2  0
  2  3  1  0
  2 19  1  0
  3  4  1  0
  4  5  2  0
  5  6  1  0
  5  9  1  0
  6  7  2  0
  7  8  1  0
  9  8  1  6
  9 10  1  0
 10 11  1  0
 11 12  2  0
 11 13  1  0
 13 14  1  0
 14 15  1  0
 15 16  2  0
 15 17  1  0
 17 18  2  0
 17 19  1  0
M  END
