
     RDKit          3D

 23 26  0  0  0  0  0  0  0  0999 V2000
    7.2180    0.3820    0.3860 O   0  0  0  0  0  0  0  0  0  0  0  0
    5.9770    0.3610    0.1870 C   0  0  0  0  0  0  0  0  0  0  0  0
    5.2640    1.3660   -0.3100 N   0  0  0  0  0  0  0  0  0  0  0  0
    3.9470    1.3520   -0.5260 C   0  0  0  0  0  0  0  0  0  0  0  0
    3.3770    2.3640   -1.0010 O   0  0  0  0  0  0  0  0  0  0  0  0
    3.2160    0.1790   -0.2070 C   0  0  0  0  0  0  0  0  0  0  0  0
    1.9070    0.0020   -0.3600 C   0  0  0  0  0  0  0  0  0  0  0  0
    1.3910   -1.2470    0.0220 C   0  0  0  0  0  0  0  0  0  0  0  0
    2.7680   -2.1150    0.5790 S   0  0  0  0  0  0  0  0  0  0  0  0
    3.9870   -0.8250    0.2990 C   0  0  0  0  0  0  0  0  0  0  0  0
    5.3030   -0.7760    0.5010 N   0  0  0  0  0  0  0  0  0  0  0  0
   -0.0740   -1.4950   -0.1290 C   0  0  0  0  0  0  0  0  0  0  0  0
   -0.7950   -0.3880    0.5950 C   0  0  2  0  0  0  0  0  0  0  0  0
   -2.2260   -0.3150    0.2770 C   0  0  0  0  0  0  0  0  0  0  0  0
   -3.1510   -0.5050    1.2820 C   0  0  0  0  0  0  0  0  0  0  0  0
   -4.5080   -0.4500    1.0540 C   0  0  0  0  0  0  0  0  0  0  0  0
   -5.0160   -0.1930   -0.2280 C   0  0  0  0  0  0  0  0  0  0  0  0
   -6.3900   -0.1480   -0.3990 O   0  0  0  0  0  0  0  0  0  0  0  0
   -4.1120   -0.0020   -1.2350 C   0  0  0  0  0  0  0  0  0  0  0  0
   -4.5540    0.2560   -2.5230 O   0  0  0  0  0  0  0  0  0  0  0  0
   -2.7510   -0.0650   -0.9680 C   0  0  0  0  0  0  0  0  0  0  0  0
   -0.1930    0.9730    0.2810 C   0  0  0  0  0  0  0  0  0  0  0  0
    0.7710    0.8890   -0.8840 C   0  0  0  0  0  0  0  0  0  0  0  0
  1  2  2  0
  2  3  1  0
  2 11  1  0
  3  4  1  0
  4  5  2  0
  4  6  1  0
  6  7  1  0
  6 10  2  0
  7  8  2  0
  7 23  1  0
  8  9  1  0
  8 12  1  0
  9 10  1  0
 10 11  1  0
 12 13  1  0
 13 14  1  6
 13 22  1  0
 14 15  2  0
 14 21  1  0
 15 16  1  0
 16 17  2  0
 17 18  1  0
 17 19  1  0
 19 20  1  0
 19 21  2  0
 22 23  1  0
M  END
