
     RDKit          3D

 23 26  0  0  0  0  0  0  0  0999 V2000
   -5.2130   -1.4980   -1.1380 C   0  0  0  0  0  0  0  0  0  0  0  0
   -4.3630   -0.4130   -0.5370 C   0  0  0  0  0  0  0  0  0  0  0  0
   -4.9480    0.7400   -0.0580 C   0  0  0  0  0  0  0  0  0  0  0  0
   -4.1490    1.7220    0.4900 C   0  0  0  0  0  0  0  0  0  0  0  0
   -2.7560    1.5880    0.5770 C   0  0  0  0  0  0  0  0  0  0  0  0
   -2.2000    0.4670    0.1090 C   0  0  0  0  0  0  0  0  0  0  0  0
   -2.9980   -0.5380   -0.4500 C   0  0  0  0  0  0  0  0  0  0  0  0
   -0.7210    0.4270    0.2410 C   0  0  0  0  0  0  0  0  0  0  0  0
    0.0920   -0.3830   -0.3930 C   0  0  0  0  0  0  0  0  0  0  0  0
    1.5170   -0.4610   -0.3070 C   0  0  0  0  0  0  0  0  0  0  0  0
    2.4160    0.5630   -0.4800 C   0  0  0  0  0  0  0  0  0  0  0  0
    3.7840    0.4180   -0.3380 C   0  0  0  0  0  0  0  0  0  0  0  0
    4.8960    1.2190   -0.4380 C   0  0  0  0  0  0  0  0  0  0  0  0
    6.0090    0.5130   -0.1810 N   0  0  0  0  0  0  0  0  0  0  0  0
    5.6510   -0.7720    0.0940 C   0  0  0  0  0  0  0  0  0  0  0  0
    6.4130   -1.7290    0.3810 O   0  0  0  0  0  0  0  0  0  0  0  0
    4.2850   -0.8970    0.0130 C   0  0  0  0  0  0  0  0  0  0  0  0
    3.3490   -1.8930    0.1750 C   0  0  0  0  0  0  0  0  0  0  0  0
    2.0440   -1.6830    0.0240 N   0  0  0  0  0  0  0  0  0  0  0  0
   -0.4390    1.6610    1.4500 S   0  0  2  0  0  0  0  0  0  0  0  0
    0.7420    2.4930    1.2640 O   0  0  0  0  0  0  0  0  0  0  0  0
   -0.5780    1.1040    2.8390 O   0  0  0  0  0  0  0  0  0  0  0  0
   -1.8980    2.5320    1.1150 O   0  0  0  0  0  0  0  0  0  0  0  0
  1  2  1  0
  2  3  2  0
  2  7  1  0
  3  4  1  0
  4  5  2  0
  5  6  1  0
  5 23  1  0
  6  7  2  0
  6  8  1  0
  8  9  2  3
  8 20  1  0
  9 10  1  0
 10 11  2  0
 10 19  1  0
 11 12  1  0
 12 13  2  0
 12 17  1  0
 13 14  1  0
 14 15  1  0
 15 16  2  0
 15 17  1  0
 17 18  2  0
 18 19  1  0
 20 21  2  0
 20 22  2  0
 20 23  1  6
M  END
