
     RDKit          3D

 24 26  0  0  0  0  0  0  0  0999 V2000
    4.0790    2.8430   -0.4530 C   0  0  0  0  0  0  0  0  0  0  0  0
    4.3690    1.3810   -0.1170 C   0  0  0  0  0  0  0  0  0  0  0  0
    4.1230    0.5060   -1.2810 C   0  0  0  0  0  0  0  0  0  0  0  0
    5.0490    0.4570   -2.1560 O   0  0  0  0  0  0  0  0  0  0  0  0
    2.9230   -0.2600   -1.4510 C   0  0  0  0  0  0  0  0  0  0  0  0
    1.9460   -0.2500   -0.5940 C   0  0  0  0  0  0  0  0  0  0  0  0
    0.7480   -1.0340   -0.7960 N   0  0  0  0  0  0  0  0  0  0  0  0
    0.2700   -1.7980    0.2410 C   0  0  0  0  0  0  0  0  0  0  0  0
    1.3320   -2.8230    0.5290 N   0  0  0  0  0  0  0  0  0  0  0  0
   -0.7780   -1.9080    1.0120 C   0  0  0  0  0  0  0  0  0  0  0  0
   -0.7510   -2.9970    2.0270 C   0  0  0  0  0  0  0  0  0  0  0  0
    0.3530   -3.6470    2.1640 O   0  0  0  0  0  0  0  0  0  0  0  0
   -1.7960   -3.3760    2.8400 O   0  0  0  0  0  0  0  0  0  0  0  0
   -2.9720   -2.6680    2.6840 C   0  0  0  0  0  0  0  0  0  0  0  0
   -3.9600   -2.9750    3.3970 O   0  0  0  0  0  0  0  0  0  0  0  0
   -3.0400   -1.5970    1.7120 C   0  0  0  0  0  0  0  0  0  0  0  0
   -4.4570   -0.5370    1.2900 S   0  0  0  0  0  0  0  0  0  0  0  0
   -3.6970    0.3630    0.1220 C   0  0  0  0  0  0  0  0  0  0  0  0
   -2.3680   -0.1280    0.0460 C   0  0  0  0  0  0  0  0  0  0  0  0
   -2.0620   -1.1450    0.8680 C   0  0  0  0  0  0  0  0  0  0  0  0
   -1.5920    0.8100   -0.8700 C   0  0  0  0  0  0  0  0  0  0  0  0
   -1.8610    2.1640   -0.5110 O   0  0  0  0  0  0  0  0  0  0  0  0
   -3.1310    2.5680   -0.6220 C   0  0  0  0  0  0  0  0  0  0  0  0
   -4.1060    1.4530   -0.8660 C   0  0  0  0  0  0  0  0  0  0  0  0
  1  2  1  0
  2  3  1  0
  3  4  2  0
  3  5  1  0
  5  6  2  3
  6  7  1  0
  7  8  1  0
  8  9  1  0
  8 10  2  3
 10 11  1  0
 10 20  1  0
 11 12  2  0
 11 13  1  0
 13 14  1  0
 14 15  2  0
 14 16  1  0
 16 17  1  0
 16 20  2  0
 17 18  1  0
 18 19  2  0
 18 24  1  0
 19 20  1  0
 19 21  1  0
 21 22  1  0
 22 23  1  0
 23 24  1  0
M  END
