
     RDKit          3D

 24 26  0  0  0  0  0  0  0  0999 V2000
   -4.8460   -2.1870   -0.8430 C   0  0  0  0  0  0  0  0  0  0  0  0
   -3.6580   -1.4780   -0.3870 C   0  0  0  0  0  0  0  0  0  0  0  0
   -3.5080   -0.3080    0.1420 C   0  0  0  0  0  0  0  0  0  0  0  0
   -4.5140    0.5600    0.3940 C   0  0  0  0  0  0  0  0  0  0  0  0
   -5.7920    0.3320    0.1320 C   0  0  0  0  0  0  0  0  0  0  0  0
   -6.7530    1.3460    0.4540 O   0  0  0  0  0  0  0  0  0  0  0  0
   -4.3670    1.7740    0.9440 O   0  0  0  0  0  0  0  0  0  0  0  0
   -3.1850    2.1950    1.2780 C   0  0  0  0  0  0  0  0  0  0  0  0
   -2.9930    3.3370    1.8020 O   0  0  0  0  0  0  0  0  0  0  0  0
   -2.1050    1.3520    1.0460 C   0  0  0  0  0  0  0  0  0  0  0  0
   -0.3450    1.5570    1.3580 S   0  0  0  0  0  0  0  0  0  0  0  0
    0.1110   -0.0660    0.7060 C   0  0  0  0  0  0  0  0  0  0  0  0
    1.3130   -0.5180    0.6590 N   0  0  0  0  0  0  0  0  0  0  0  0
    2.4130    0.2490    1.1340 C   0  0  0  0  0  0  0  0  0  0  0  0
    2.2450    0.9840    2.1390 O   0  0  0  0  0  0  0  0  0  0  0  0
    3.7240    0.2070    0.4920 C   0  0  0  0  0  0  0  0  0  0  0  0
    4.8470    0.9090    0.8730 C   0  0  0  0  0  0  0  0  0  0  0  0
    5.8670    0.5790   -0.0040 C   0  0  0  0  0  0  0  0  0  0  0  0
    7.2650    1.1130    0.0430 C   0  0  0  0  0  0  0  0  0  0  0  0
    5.3940   -0.2670   -0.8600 O   0  0  0  0  0  0  0  0  0  0  0  0
    4.1160   -0.5250   -0.6110 C   0  0  0  0  0  0  0  0  0  0  0  0
    3.2470   -1.4470   -1.3840 C   0  0  0  0  0  0  0  0  0  0  0  0
   -1.0630   -0.5660    0.3380 N   0  0  0  0  0  0  0  0  0  0  0  0
   -2.1590    0.1160    0.4980 C   0  0  0  0  0  0  0  0  0  0  0  0
  1  2  1  0
  2  3  2  3
  3  4  1  0
  3 24  1  0
  4  5  2  3
  4  7  1  0
  5  6  1  0
  7  8  1  0
  8  9  2  0
  8 10  1  0
 10 11  1  0
 10 24  2  0
 11 12  1  0
 12 13  2  3
 12 23  1  0
 13 14  1  0
 14 15  2  0
 14 16  1  0
 16 17  1  0
 16 21  2  0
 17 18  2  0
 18 19  1  0
 18 20  1  0
 20 21  1  0
 21 22  1  0
 23 24  1  0
M  END
