
     RDKit          3D

 24 27  0  0  0  0  0  0  0  0999 V2000
    0.4440   -0.2760    0.4860 O   0  0  0  0  0  0  0  0  0  0  0  0
    0.4710    0.2770   -0.6150 C   0  0  0  0  0  0  0  0  0  0  0  0
   -0.7130    0.6560   -1.2490 N   0  0  0  0  0  0  0  0  0  0  0  0
   -2.0380    0.4810   -0.7810 C   0  0  0  0  0  0  0  0  0  0  0  0
   -3.1160    1.0570   -1.4580 C   0  0  0  0  0  0  0  0  0  0  0  0
   -4.4230    0.9190   -1.0620 C   0  0  0  0  0  0  0  0  0  0  0  0
   -4.7490    0.1810    0.0600 C   0  0  0  0  0  0  0  0  0  0  0  0
   -3.7190   -0.3990    0.7480 C   0  0  0  0  0  0  0  0  0  0  0  0
   -2.3860   -0.2460    0.3270 C   0  0  0  0  0  0  0  0  0  0  0  0
   -4.0000   -1.2150    1.9420 C   0  0  0  0  0  0  0  0  0  0  0  0
   -3.0490   -1.7410    2.5670 O   0  0  0  0  0  0  0  0  0  0  0  0
   -5.3410   -1.3400    2.2880 O   0  0  0  0  0  0  0  0  0  0  0  0
   -6.2810   -1.3150    1.2040 C   0  0  0  0  0  0  0  0  0  0  0  0
   -6.1320    0.0220    0.5310 C   0  0  0  0  0  0  0  0  0  0  0  0
    1.7240    0.5370   -1.2580 N   0  0  0  0  0  0  0  0  0  0  0  0
    2.9820    0.1770   -0.6700 C   0  0  1  0  0  0  0  0  0  0  0  0
    3.7210   -0.8710   -1.4760 C   0  0  0  0  0  0  0  0  0  0  0  0
    4.8110   -1.2870   -0.7090 O   0  0  0  0  0  0  0  0  0  0  0  0
    5.5930   -0.3660    0.0490 C   0  0  0  0  0  0  0  0  0  0  0  0
    5.1350    0.8610    0.1970 C   0  0  0  0  0  0  0  0  0  0  0  0
    3.8650    1.3580   -0.3630 C   0  0  0  0  0  0  0  0  0  0  0  0
    6.4330    1.6710    1.1790 S   0  0  0  0  0  0  0  0  0  0  0  0
    7.6710    0.5280    0.6940 O   0  0  0  0  0  0  0  0  0  0  0  0
    6.8850   -0.6160    0.7110 C   0  0  0  0  0  0  0  0  0  0  0  0
  1  2  2  0
  2  3  1  0
  2 15  1  0
  3  4  1  0
  4  5  2  0
  4  9  1  0
  5  6  1  0
  6  7  2  0
  7  8  1  0
  7 14  1  0
  8  9  2  0
  8 10  1  0
 10 11  2  0
 10 12  1  0
 12 13  1  0
 13 14  1  0
 16 15  1  6
 16 17  1  0
 16 21  1  0
 17 18  1  0
 18 19  1  0
 19 20  2  0
 19 24  1  0
 20 21  1  0
 20 22  1  0
 22 23  1  0
 23 24  1  0
M  END
