
     RDKit          3D

 24 26  0  0  0  0  0  0  0  0999 V2000
   -6.2490    0.7790   -0.3540 C   0  0  0  0  0  0  0  0  0  0  0  0
   -5.9280   -0.2720    0.3630 C   0  0  0  0  0  0  0  0  0  0  0  0
   -6.8080   -1.4910    0.3360 C   0  0  0  0  0  0  0  0  0  0  0  0
   -4.7250   -0.2730    1.1810 C   0  0  0  0  0  0  0  0  0  0  0  0
   -4.4630   -1.3010    1.8500 O   0  0  0  0  0  0  0  0  0  0  0  0
   -3.8830    0.8870    1.1990 N   0  0  0  0  0  0  0  0  0  0  0  0
   -2.8180    0.8880    0.5320 C   0  0  0  0  0  0  0  0  0  0  0  0
   -2.2400   -0.0920   -0.2920 N   0  0  0  0  0  0  0  0  0  0  0  0
   -0.8760    0.0400   -0.5430 C   0  0  0  0  0  0  0  0  0  0  0  0
   -0.2090   -0.7760   -1.2810 O   0  0  0  0  0  0  0  0  0  0  0  0
   -0.2250    1.1790    0.0840 C   0  0  0  0  0  0  0  0  0  0  0  0
    1.0160    1.4570    0.3780 C   0  0  0  0  0  0  0  0  0  0  0  0
    1.2950    2.6960    0.9990 O   0  0  0  0  0  0  0  0  0  0  0  0
    2.1650    0.6210    0.1400 C   0  0  0  0  0  0  0  0  0  0  0  0
    2.1140   -0.7120    0.4630 C   0  0  0  0  0  0  0  0  0  0  0  0
    3.2500   -1.4680    0.1900 C   0  0  0  0  0  0  0  0  0  0  0  0
    3.2140   -2.8190    0.5090 O   0  0  0  0  0  0  0  0  0  0  0  0
    4.3920   -0.9400   -0.3750 C   0  0  0  0  0  0  0  0  0  0  0  0
    4.4070    0.4030   -0.6860 C   0  0  0  0  0  0  0  0  0  0  0  0
    3.2930    1.1760   -0.4250 C   0  0  0  0  0  0  0  0  0  0  0  0
    5.7340    0.6920   -1.2670 C   0  0  0  0  0  0  0  0  0  0  0  0
    6.5690   -0.4320   -0.6380 C   0  0  0  0  0  0  0  0  0  0  0  0
    5.6300   -1.5110   -0.7300 O   0  0  0  0  0  0  0  0  0  0  0  0
   -1.6520    2.2600    0.4620 S   0  0  0  0  0  0  0  0  0  0  0  0
  1  2  2  0
  2  3  1  0
  2  4  1  0
  4  5  2  0
  4  6  1  0
  6  7  2  3
  7  8  1  0
  7 24  1  0
  8  9  1  0
  9 10  2  0
  9 11  1  0
 11 12  2  3
 11 24  1  0
 12 13  1  0
 12 14  1  0
 14 15  2  0
 14 20  1  0
 15 16  1  0
 16 17  1  0
 16 18  2  0
 18 19  1  0
 18 23  1  0
 19 20  2  0
 19 21  1  0
 21 22  1  0
 22 23  1  0
M  END
