
     RDKit          3D

 26 28  0  0  0  0  0  0  0  0999 V2000
   -4.9010   -0.2410    2.8720 C   0  0  0  0  0  0  0  0  0  0  0  0
   -4.1550   -1.0720    1.8860 C   0  0  0  0  0  0  0  0  0  0  0  0
   -3.6540   -0.3030    0.7700 N   0  0  0  0  0  0  0  0  0  0  0  0
   -4.5830    0.2540   -0.1520 C   0  0  0  0  0  0  0  0  0  0  0  0
   -3.9930    1.0040   -1.3040 C   0  0  0  0  0  0  0  0  0  0  0  0
   -5.1370    1.4740   -2.1060 N   0  0  0  0  0  0  0  0  0  0  0  0
   -2.2210   -0.1770    0.6880 C   0  0  0  0  0  0  0  0  0  0  0  0
   -1.7270    0.9670    1.1260 C   0  0  0  0  0  0  0  0  0  0  0  0
   -2.5430    2.0580    1.6660 C   0  0  0  0  0  0  0  0  0  0  0  0
   -1.9450    3.0960    2.0540 O   0  0  0  0  0  0  0  0  0  0  0  0
   -0.3140    1.0800    1.0450 N   0  0  0  0  0  0  0  0  0  0  0  0
    0.3510    0.1350    0.5850 C   0  0  0  0  0  0  0  0  0  0  0  0
    2.1800    0.0300    0.3740 S   0  0  0  0  0  0  0  0  0  0  0  0
    2.1880   -1.5920   -0.3150 C   0  0  0  0  0  0  0  0  0  0  0  0
    3.2510   -2.2740   -0.6990 C   0  0  0  0  0  0  0  0  0  0  0  0
    4.5570   -1.7020   -0.5720 N   0  0  0  0  0  0  0  0  0  0  0  0
    4.8270   -0.4950   -0.9160 C   0  0  0  0  0  0  0  0  0  0  0  0
    6.1790    0.0010   -0.7520 C   0  0  0  0  0  0  0  0  0  0  0  0
    7.2170   -0.6760   -0.2660 C   0  0  0  0  0  0  0  0  0  0  0  0
    8.4130    0.1230   -0.2430 C   0  0  0  0  0  0  0  0  0  0  0  0
    8.1040    1.3260   -0.7280 C   0  0  0  0  0  0  0  0  0  0  0  0
    6.6790    1.3640   -1.0920 C   0  0  0  0  0  0  0  0  0  0  0  0
    0.8510   -1.9120   -0.3290 C   0  0  0  0  0  0  0  0  0  0  0  0
    0.5360   -3.0940   -0.8020 O   0  0  0  0  0  0  0  0  0  0  0  0
   -0.0080   -1.0380    0.1200 N   0  0  0  0  0  0  0  0  0  0  0  0
   -1.4800   -1.2900    0.1460 C   0  0  0  0  0  0  0  0  0  0  0  0
  1  2  1  0
  2  3  1  0
  3  4  1  0
  3  7  1  0
  4  5  1  0
  5  6  1  0
  7  8  2  0
  7 26  1  0
  8  9  1  0
  8 11  1  0
  9 10  2  0
 11 12  2  0
 12 13  1  0
 12 25  1  0
 13 14  1  0
 14 15  2  3
 14 23  1  0
 15 16  1  0
 16 17  2  3
 17 18  1  0
 18 19  2  0
 18 22  1  0
 19 20  1  0
 20 21  2  0
 21 22  1  0
 23 24  2  0
 23 25  1  0
 25 26  1  0
M  CHG  1   6   1
M  END
