
     RDKit          3D

 26 28  0  0  0  0  0  0  0  0999 V2000
    5.4580   -3.1580    0.2370 C   0  0  0  0  0  0  0  0  0  0  0  0
    5.9880   -1.7670   -0.0800 C   0  0  0  0  0  0  0  0  0  0  0  0
    4.8030   -0.8390   -0.0970 C   0  0  0  0  0  0  0  0  0  0  0  0
    5.2150    0.5920   -0.4040 C   0  0  0  0  0  0  0  0  0  0  0  0
    3.9680    1.4040   -0.3910 C   0  0  0  0  0  0  0  0  0  0  0  0
    3.2770    1.4250   -1.3720 O   0  0  0  0  0  0  0  0  0  0  0  0
    3.6020    2.1630    0.8150 C   0  0  0  0  0  0  0  0  0  0  0  0
    2.0700    3.0510    0.5670 S   0  0  0  0  0  0  0  0  0  0  0  0
    0.6720    1.9880    0.3540 C   0  0  0  0  0  0  0  0  0  0  0  0
   -0.5650    2.5500    0.1700 C   0  0  0  0  0  0  0  0  0  0  0  0
   -1.7080    1.7630   -0.0070 C   0  0  0  0  0  0  0  0  0  0  0  0
   -3.0140    2.3570   -0.2010 C   0  0  0  0  0  0  0  0  0  0  0  0
   -4.1070    1.7110   -0.3690 N   0  0  0  0  0  0  0  0  0  0  0  0
   -5.2420    2.5810   -0.5360 C   0  0  0  0  0  0  0  0  0  0  0  0
   -4.7770    3.8450   -0.0380 N   0  0  0  0  0  0  0  0  0  0  0  0
   -3.3280    3.7920   -0.2390 C   0  0  0  0  0  0  0  0  0  0  0  0
   -1.5040    0.4360    0.0170 N   0  0  0  0  0  0  0  0  0  0  0  0
   -0.3120   -0.1510    0.1940 C   0  0  0  0  0  0  0  0  0  0  0  0
   -0.2140   -1.6320    0.1980 C   0  0  0  0  0  0  0  0  0  0  0  0
   -1.4770   -2.2890    0.1530 N   0  0  0  0  0  0  0  0  0  0  0  0
   -2.3660   -2.0420    1.2370 C   0  0  0  0  0  0  0  0  0  0  0  0
   -3.3950   -3.1560    1.3220 C   0  0  0  0  0  0  0  0  0  0  0  0
   -3.8810   -3.4900    0.0680 O   0  0  0  0  0  0  0  0  0  0  0  0
   -3.5940   -2.5580   -0.9160 C   0  0  0  0  0  0  0  0  0  0  0  0
   -2.1080   -2.3540   -1.1250 C   0  0  0  0  0  0  0  0  0  0  0  0
    0.7540    0.6450    0.3590 N   0  0  0  0  0  0  0  0  0  0  0  0
  1  2  1  0
  2  3  1  0
  3  4  1  0
  4  5  1  0
  5  6  2  0
  5  7  1  0
  7  8  1  0
  8  9  1  0
  9 10  2  0
  9 26  1  0
 10 11  1  0
 11 12  1  0
 11 17  2  0
 12 13  2  0
 12 16  1  0
 13 14  1  0
 14 15  1  0
 15 16  1  0
 17 18  1  0
 18 19  1  0
 18 26  2  0
 19 20  1  0
 20 21  1  0
 20 25  1  0
 21 22  1  0
 22 23  1  0
 23 24  1  0
 24 25  1  0
M  CHG  1  15   1
M  END
