
     RDKit          3D

 26 29  0  0  0  0  0  0  0  0999 V2000
   -0.1850   -4.6010   -0.7890 C   0  0  0  0  0  0  0  0  0  0  0  0
   -0.2040   -3.1570   -0.6860 N   0  0  0  0  0  0  0  0  0  0  0  0
   -1.2660   -2.4060   -0.4420 N   0  0  0  0  0  0  0  0  0  0  0  0
   -0.8810   -1.1250   -0.4230 C   0  0  0  0  0  0  0  0  0  0  0  0
   -1.8110    0.0040   -0.1770 C   0  0  1  0  0  0  0  0  0  0  0  0
   -3.0870   -0.0430   -1.0130 C   0  0  0  0  0  0  0  0  0  0  0  0
   -3.8020    0.3900    0.1600 N   0  0  0  0  0  0  0  0  0  0  0  0
   -4.9800    1.1320    0.4100 C   0  0  0  0  0  0  0  0  0  0  0  0
   -6.0610    1.1370   -0.3660 C   0  0  0  0  0  0  0  0  0  0  0  0
   -7.0920    2.0250    0.2090 C   0  0  0  0  0  0  0  0  0  0  0  0
   -6.4720    2.5520    1.4430 C   0  0  0  0  0  0  0  0  0  0  0  0
   -5.2690    2.0230    1.5280 C   0  0  0  0  0  0  0  0  0  0  0  0
   -2.8000   -0.2570    0.9660 C   0  0  0  0  0  0  0  0  0  0  0  0
    0.4430   -1.0710   -0.6580 N   0  0  0  0  0  0  0  0  0  0  0  0
    1.2450    0.1140   -0.7290 C   0  0  0  0  0  0  0  0  0  0  0  0
    1.8240    0.5880    0.5520 C   0  0  0  0  0  0  0  0  0  0  0  0
    2.9380   -0.4810    1.3880 S   0  0  0  0  0  0  0  0  0  0  0  0
    2.3060   -1.6000    2.1570 O   0  0  0  0  0  0  0  0  0  0  0  0
    4.4080   -0.9190    0.5160 C   0  0  0  0  0  0  0  0  0  0  0  0
    5.1770    0.3230    0.2060 C   0  0  0  0  0  0  0  0  0  0  0  0
    5.4800    0.7200   -1.0130 C   0  0  0  0  0  0  0  0  0  0  0  0
    6.2100    1.9310   -0.9370 N   0  0  0  0  0  0  0  0  0  0  0  0
    6.3080    2.2070    0.4340 C   0  0  0  0  0  0  0  0  0  0  0  0
    5.7120    1.2840    1.1510 C   0  0  0  0  0  0  0  0  0  0  0  0
    0.8710   -2.3230   -0.8220 C   0  0  0  0  0  0  0  0  0  0  0  0
    2.0140   -2.7870   -1.0610 O   0  0  0  0  0  0  0  0  0  0  0  0
  1  2  1  0
  2  3  1  0
  2 25  1  0
  3  4  2  0
  5  4  1  6
  4 14  1  0
  5  6  1  0
  5 13  1  0
  6  7  1  0
  7  8  1  0
  7 13  1  0
  8  9  2  0
  8 12  1  0
  9 10  1  0
 10 11  1  0
 11 12  2  0
 14 15  1  0
 14 25  1  0
 15 16  1  0
 17 16  1  6
 17 18  2  0
 17 19  1  0
 19 20  1  0
 20 21  2  0
 20 24  1  0
 21 22  1  0
 22 23  1  0
 23 24  2  0
 25 26  2  0
M  CHG  1  22   1
M  END
