
     RDKit          3D

  9  9  0  0  0  0  0  0  0  0999 V2000
    2.9910   -0.0460    0.7460 C   0  0  0  0  0  0  0  0  0  0  0  0
    2.0460    0.0980   -0.3390 N   0  0  0  0  0  0  0  0  0  0  0  0
    0.8150   -0.6070   -0.4110 C   0  0  0  0  0  0  0  0  0  0  0  0
   -0.3390    0.0320   -0.3300 C   0  0  0  0  0  0  0  0  0  0  0  0
   -0.4850    1.4850   -0.1640 C   0  0  0  0  0  0  0  0  0  0  0  0
   -1.7940    1.6970   -0.1310 C   0  0  0  0  0  0  0  0  0  0  0  0
   -2.5400    0.4510   -0.2670 C   0  0  0  0  0  0  0  0  0  0  0  0
   -1.6760   -0.5400   -0.3860 C   0  0  0  0  0  0  0  0  0  0  0  0
   -2.0320   -1.9030   -0.5380 N   0  0  0  0  0  0  0  0  0  0  0  0
  1  2  1  0
  2  3  1  0
  3  4  2  3
  4  5  1  0
  4  8  1  0
  5  6  2  0
  6  7  1  0
  7  8  2  0
  8  9  1  0
M  END
