
     RDKit          3D

  9  9  0  0  0  0  0  0  0  0999 V2000
    3.2960    0.1440   -0.2070 C   0  0  0  0  0  0  0  0  0  0  0  0
    2.2380   -0.7850    0.0170 N   0  0  0  0  0  0  0  0  0  0  0  0
    0.8730   -0.4380    0.0660 C   0  0  0  0  0  0  0  0  0  0  0  0
    0.4580    0.8600   -0.1050 C   0  0  0  0  0  0  0  0  0  0  0  0
   -0.9030    1.1710   -0.0510 C   0  0  0  0  0  0  0  0  0  0  0  0
   -1.8540    0.1980    0.1730 C   0  0  0  0  0  0  0  0  0  0  0  0
   -3.2420    0.5530    0.2220 N   0  0  0  0  0  0  0  0  0  0  0  0
   -1.4410   -1.1040    0.3450 C   0  0  0  0  0  0  0  0  0  0  0  0
   -0.0970   -1.3900    0.2880 C   0  0  0  0  0  0  0  0  0  0  0  0
  1  2  1  0
  2  3  1  0
  3  4  2  0
  3  9  1  0
  4  5  1  0
  5  6  2  0
  6  7  1  0
  6  8  1  0
  8  9  2  0
M  CHG  1   7   1
M  END
