
     RDKit          3D

  9  9  0  0  0  0  0  0  0  0999 V2000
   -0.6280   -2.1560   -0.2320 C   0  0  0  0  0  0  0  0  0  0  0  0
   -0.6720   -0.6840   -0.0280 C   0  0  0  0  0  0  0  0  0  0  0  0
   -1.8280   -0.1250    0.1540 C   0  0  0  0  0  0  0  0  0  0  0  0
   -2.1870    1.2050    0.3680 N   0  0  0  0  0  0  0  0  0  0  0  0
    0.5730    0.0390   -0.0450 C   0  0  0  0  0  0  0  0  0  0  0  0
    1.8060   -0.6160   -0.2490 C   0  0  0  0  0  0  0  0  0  0  0  0
    2.7950    0.3440   -0.2090 C   0  0  0  0  0  0  0  0  0  0  0  0
    2.1940    1.5350    0.0110 C   0  0  0  0  0  0  0  0  0  0  0  0
    0.8540    1.3470    0.1090 N   0  0  0  0  0  0  0  0  0  0  0  0
  1  2  1  0
  2  3  2  3
  2  5  1  0
  3  4  1  0
  5  6  2  0
  5  9  1  0
  6  7  1  0
  7  8  2  0
  8  9  1  0
M  CHG  1   4   1
M  END
