
     RDKit          3D

  9  9  0  0  0  0  0  0  0  0999 V2000
   -2.3140   -0.3960    1.1650 C   0  0  0  0  0  0  0  0  0  0  0  0
   -1.7360   -0.0480    0.0570 C   0  0  0  0  0  0  0  0  0  0  0  0
   -2.5300    0.2780   -1.0640 N   0  0  0  0  0  0  0  0  0  0  0  0
   -0.2760    0.0070   -0.0360 C   0  0  0  0  0  0  0  0  0  0  0  0
    0.2930    0.3730   -1.2020 C   0  0  0  0  0  0  0  0  0  0  0  0
    1.7360    0.4250   -1.2860 C   0  0  0  0  0  0  0  0  0  0  0  0
    2.5750    0.1430   -0.3060 C   0  0  0  0  0  0  0  0  0  0  0  0
    2.0240   -0.2650    1.0020 C   0  0  0  0  0  0  0  0  0  0  0  0
    0.5860   -0.3020    1.0340 N   0  0  0  0  0  0  0  0  0  0  0  0
  1  2  2  0
  2  3  1  0
  2  4  1  0
  4  5  2  0
  4  9  1  0
  5  6  1  0
  6  7  2  0
  7  8  1  0
  8  9  1  0
M  END
