
     RDKit          3D

  9  9  0  0  0  0  0  0  0  0999 V2000
    3.1070   -0.0520   -0.9230 N   0  0  0  0  0  0  0  0  0  0  0  0
    2.1700   -0.2500    0.2060 C   0  0  0  0  0  0  0  0  0  0  0  0
    1.0490    0.6520    0.0190 C   0  0  0  0  0  0  0  0  0  0  0  0
   -0.1950    0.3190   -0.1080 C   0  0  0  0  0  0  0  0  0  0  0  0
   -0.6160   -1.0640   -0.0750 C   0  0  0  0  0  0  0  0  0  0  0  0
   -1.9220   -1.3470   -0.2140 C   0  0  0  0  0  0  0  0  0  0  0  0
   -2.8980   -0.2910   -0.3940 C   0  0  0  0  0  0  0  0  0  0  0  0
   -2.5470    0.9830   -0.4290 C   0  0  0  0  0  0  0  0  0  0  0  0
   -1.1950    1.3630   -0.2900 N   0  0  0  0  0  0  0  0  0  0  0  0
  1  2  1  0
  2  3  1  0
  3  4  2  3
  4  5  1  0
  4  9  1  0
  5  6  2  0
  6  7  1  0
  7  8  2  0
  8  9  1  0
M  END
