
     RDKit          3D

 34 36  0  0  0  0  0  0  0  0999 V2000
   -4.5170   -4.1210   -3.1680 C   0  0  0  0  0  0  0  0  0  0  0  0
   -3.2830   -3.5300   -2.5100 C   0  0  0  0  0  0  0  0  0  0  0  0
   -2.2490   -4.2060   -2.4180 O   0  0  0  0  0  0  0  0  0  0  0  0
   -3.3260   -2.1990   -2.0040 N   0  0  0  0  0  0  0  0  0  0  0  0
   -2.2530   -1.5120   -1.3770 C   0  0  0  0  0  0  0  0  0  0  0  0
   -0.9450   -1.9340   -1.5310 C   0  0  0  0  0  0  0  0  0  0  0  0
    0.1380   -1.2560   -0.9990 C   0  0  0  0  0  0  0  0  0  0  0  0
   -0.0690   -0.1080   -0.2830 C   0  0  0  0  0  0  0  0  0  0  0  0
    0.9970    0.6250    0.2670 N   0  0  0  0  0  0  0  0  0  0  0  0
    2.3400    0.2390    0.1890 C   0  0  0  0  0  0  0  0  0  0  0  0
    2.7070   -0.7880   -0.3730 O   0  0  0  0  0  0  0  0  0  0  0  0
    3.3280    1.1710    0.8450 C   0  0  0  0  0  0  0  0  0  0  0  0
    4.6050    0.6940    0.7980 O   0  0  0  0  0  0  0  0  0  0  0  0
    4.8670   -0.4700    1.4790 C   0  0  0  0  0  0  0  0  0  0  0  0
    6.3600   -0.7720    1.2840 C   0  0  0  0  0  0  0  0  0  0  0  0
    6.5970   -0.9340   -0.1880 C   0  0  1  0  0  0  0  0  0  0  0  0
    6.2630    0.2730   -0.9960 C   0  0  0  0  0  0  0  0  0  0  0  0
    8.0050   -1.3920   -0.4980 C   0  0  0  0  0  0  0  0  0  0  0  0
   -1.3860    0.3610   -0.1000 C   0  0  0  0  0  0  0  0  0  0  0  0
   -1.6380    1.4740    0.6080 N   0  0  0  0  0  0  0  0  0  0  0  0
   -2.8910    1.9670    0.8310 C   0  0  0  0  0  0  0  0  0  0  0  0
   -3.0800    3.1300    1.5760 C   0  0  0  0  0  0  0  0  0  0  0  0
   -4.3620    3.6170    1.7940 C   0  0  0  0  0  0  0  0  0  0  0  0
   -5.4490    2.9620    1.2810 C   0  0  0  0  0  0  0  0  0  0  0  0
   -6.7610    3.3730    1.4470 O   0  0  0  0  0  0  0  0  0  0  0  0
   -7.5650    2.9470    2.5380 C   0  0  2  0  0  0  0  0  0  0  0  0
   -7.0450    3.3000    3.7520 F   0  0  0  0  0  0  0  0  0  0  0  0
   -7.6800    1.5570    2.4160 F   0  0  0  0  0  0  0  0  0  0  0  0
   -8.8220    3.5010    2.3780 F   0  0  0  0  0  0  0  0  0  0  0  0
   -5.2360    1.7990    0.5380 C   0  0  0  0  0  0  0  0  0  0  0  0
   -3.9610    1.3190    0.3240 C   0  0  0  0  0  0  0  0  0  0  0  0
   -3.7260    0.1500   -0.4210 C   0  0  0  0  0  0  0  0  0  0  0  0
   -4.7540   -0.3950   -0.8530 O   0  0  0  0  0  0  0  0  0  0  0  0
   -2.4620   -0.3440   -0.6460 C   0  0  0  0  0  0  0  0  0  0  0  0
  1  2  1  0
  2  3  2  0
  2  4  1  0
  4  5  1  0
  5  6  2  0
  5 34  1  0
  6  7  1  0
  7  8  2  0
  8  9  1  0
  8 19  1  0
  9 10  1  0
 10 11  2  0
 10 12  1  0
 12 13  1  0
 13 14  1  0
 14 15  1  0
 15 16  1  0
 16 17  1  6
 16 18  1  0
 19 20  1  0
 19 34  2  0
 20 21  1  0
 21 22  2  0
 21 31  1  0
 22 23  1  0
 23 24  2  0
 24 25  1  0
 24 30  1  0
 25 26  1  0
 26 27  1  1
 26 28  1  0
 26 29  1  0
 30 31  2  0
 31 32  1  0
 32 33  2  0
 32 34  1  0
M  END
