
     RDKit          3D

 34 36  0  0  0  0  0  0  0  0999 V2000
   -3.5500    2.9800   -3.2070 C   0  0  0  0  0  0  0  0  0  0  0  0
   -2.2480    2.2120   -3.1980 C   0  0  0  0  0  0  0  0  0  0  0  0
   -1.9900    1.5760   -1.9760 O   0  0  0  0  0  0  0  0  0  0  0  0
   -2.8330    0.5980   -1.4430 C   0  0  0  0  0  0  0  0  0  0  0  0
   -3.9700    0.1950   -2.0960 C   0  0  0  0  0  0  0  0  0  0  0  0
   -4.8390   -0.7600   -1.6270 C   0  0  0  0  0  0  0  0  0  0  0  0
   -4.5330   -1.3440   -0.4170 C   0  0  0  0  0  0  0  0  0  0  0  0
   -5.3850   -2.3610    0.1740 C   0  0  0  0  0  0  0  0  0  0  0  0
   -6.5360   -2.5170   -0.3610 O   0  0  0  0  0  0  0  0  0  0  0  0
   -5.0220   -3.1610    1.2730 N   0  0  0  0  0  0  0  0  0  0  0  0
   -5.9710   -4.1580    1.7850 C   0  0  0  0  0  0  0  0  0  0  0  0
   -3.3680   -0.9410    0.2680 C   0  0  0  0  0  0  0  0  0  0  0  0
   -2.5200    0.0090   -0.2170 C   0  0  0  0  0  0  0  0  0  0  0  0
   -1.3640    0.4230    0.4400 N   0  0  0  0  0  0  0  0  0  0  0  0
   -0.8500   -0.0130    1.6670 C   0  0  0  0  0  0  0  0  0  0  0  0
   -1.4710   -0.8930    2.3140 O   0  0  0  0  0  0  0  0  0  0  0  0
    0.3940    0.5560    2.1810 C   0  0  0  0  0  0  0  0  0  0  0  0
    0.7140    0.4490    3.5400 C   0  0  0  0  0  0  0  0  0  0  0  0
    1.8830    0.9700    4.0380 C   0  0  0  0  0  0  0  0  0  0  0  0
    2.7440    1.5930    3.2270 N   0  0  0  0  0  0  0  0  0  0  0  0
    2.4600    1.7080    1.9200 C   0  0  0  0  0  0  0  0  0  0  0  0
    3.3830    2.3660    1.1050 O   0  0  0  0  0  0  0  0  0  0  0  0
    4.2930    1.5540    0.4350 C   0  0  0  0  0  0  0  0  0  0  0  0
    3.9400    1.0880   -0.8210 C   0  0  0  0  0  0  0  0  0  0  0  0
    4.8220    0.2830   -1.5050 C   0  0  0  0  0  0  0  0  0  0  0  0
    6.0670   -0.0920   -0.9920 C   0  0  0  0  0  0  0  0  0  0  0  0
    6.8410   -0.8900   -1.7720 O   0  0  0  0  0  0  0  0  0  0  0  0
    8.0890   -1.4370   -1.5890 C   0  0  1  0  0  0  0  0  0  0  0  0
    7.9920   -2.8260   -1.8040 F   0  0  0  0  0  0  0  0  0  0  0  0
    8.9230   -0.9300   -2.6020 F   0  0  0  0  0  0  0  0  0  0  0  0
    6.3800    0.3870    0.2510 C   0  0  0  0  0  0  0  0  0  0  0  0
    7.5560    0.0690    0.8070 F   0  0  0  0  0  0  0  0  0  0  0  0
    5.5060    1.2040    0.9670 C   0  0  0  0  0  0  0  0  0  0  0  0
    1.2800    1.1940    1.3600 C   0  0  0  0  0  0  0  0  0  0  0  0
  1  2  1  0
  2  3  1  0
  3  4  1  0
  4  5  2  0
  4 13  1  0
  5  6  1  0
  6  7  2  0
  7  8  1  0
  7 12  1  0
  8  9  2  0
  8 10  1  0
 10 11  1  0
 12 13  2  0
 13 14  1  0
 14 15  1  0
 15 16  2  0
 15 17  1  0
 17 18  2  0
 17 34  1  0
 18 19  1  0
 19 20  2  0
 20 21  1  0
 21 22  1  0
 21 34  2  0
 22 23  1  0
 23 24  2  0
 23 33  1  0
 24 25  1  0
 25 26  2  0
 26 27  1  0
 26 31  1  0
 27 28  1  0
 28 29  1  6
 28 30  1  0
 31 32  1  0
 31 33  2  0
M  END
