
     RDKit          3D

 34 36  0  0  0  0  0  0  0  0999 V2000
   -5.0940   -4.1290   -3.1320 C   0  0  0  0  0  0  0  0  0  0  0  0
   -4.7440   -3.3460   -2.1440 O   0  0  0  0  0  0  0  0  0  0  0  0
   -4.0110   -2.5490   -1.4220 C   0  0  0  0  0  0  0  0  0  0  0  0
   -2.7310   -2.0580   -1.7150 C   0  0  0  0  0  0  0  0  0  0  0  0
   -2.0310   -1.2240   -0.9500 C   0  0  0  0  0  0  0  0  0  0  0  0
   -0.8180   -0.5790   -1.1330 N   0  0  0  0  0  0  0  0  0  0  0  0
    0.3570   -0.8850   -1.8660 C   0  0  0  0  0  0  0  0  0  0  0  0
    0.2980   -1.8350   -2.6350 O   0  0  0  0  0  0  0  0  0  0  0  0
    1.5020   -0.0540   -1.6110 N   0  0  0  0  0  0  0  0  0  0  0  0
    2.7640   -0.3250   -2.2900 C   0  0  0  0  0  0  0  0  0  0  0  0
    3.8240    0.3790   -1.4850 C   0  0  0  0  0  0  0  0  0  0  0  0
    5.1580    0.2740   -1.9730 O   0  0  0  0  0  0  0  0  0  0  0  0
    6.0010    0.7070   -0.6660 C   0  0  0  0  0  0  0  0  0  0  0  0
    5.8260   -0.2430    0.1140 C   0  0  0  0  0  0  0  0  0  0  0  0
    6.5750    0.0170    1.4600 C   0  0  1  0  0  0  0  0  0  0  0  0
    7.3110   -1.1050    1.6610 F   0  0  0  0  0  0  0  0  0  0  0  0
    7.2800    1.2080    1.3010 O   0  0  0  0  0  0  0  0  0  0  0  0
    7.3610    2.2020    0.3820 C   0  0  0  0  0  0  0  0  0  0  0  0
    6.5790    1.8930   -0.8440 C   0  0  0  0  0  0  0  0  0  0  0  0
    6.6690    2.8640   -1.7630 F   0  0  0  0  0  0  0  0  0  0  0  0
   -2.6590   -0.7890    0.3330 C   0  0  0  0  0  0  0  0  0  0  0  0
   -1.7350    0.0360    1.1980 C   0  0  0  0  0  0  0  0  0  0  0  0
   -0.5220   -0.1070    1.1540 O   0  0  0  0  0  0  0  0  0  0  0  0
   -2.3280    1.0310    2.0650 C   0  0  0  0  0  0  0  0  0  0  0  0
   -1.5710    2.2370    2.3340 C   0  0  0  0  0  0  0  0  0  0  0  0
   -1.9810    3.2810    2.8240 C   0  0  0  0  0  0  0  0  0  0  0  0
   -3.3610    3.4760    3.2520 C   0  0  0  0  0  0  0  0  0  0  0  0
   -4.1670    2.3480    3.0240 C   0  0  0  0  0  0  0  0  0  0  0  0
   -5.4940    2.3740    3.4630 C   0  0  0  0  0  0  0  0  0  0  0  0
   -6.6950    2.3850    3.8470 N   0  0  0  0  0  0  0  0  0  0  0  0
   -3.6100    1.1880    2.4490 C   0  0  0  0  0  0  0  0  0  0  0  0
   -3.8620   -1.2250    0.6740 C   0  0  0  0  0  0  0  0  0  0  0  0
   -4.4890   -2.0780   -0.1950 C   0  0  0  0  0  0  0  0  0  0  0  0
   -5.7350   -2.5350    0.1490 F   0  0  0  0  0  0  0  0  0  0  0  0
  1  2  1  0
  2  3  1  0
  3  4  2  0
  3 33  1  0
  4  5  1  0
  5  6  1  0
  5 21  2  0
  6  7  1  0
  7  8  2  0
  7  9  1  0
  9 10  1  0
 10 11  1  0
 11 12  1  0
 12 13  1  0
 13 14  2  0
 13 19  1  0
 14 15  1  0
 15 16  1  6
 15 17  1  0
 17 18  1  0
 18 19  2  0
 19 20  1  0
 21 22  1  0
 21 32  1  0
 22 23  2  0
 22 24  1  0
 24 25  2  0
 24 31  1  0
 25 26  1  0
 26 27  2  0
 27 28  1  0
 28 29  1  0
 28 31  2  0
 29 30  3  0
 32 33  2  0
 33 34  1  0
M  END
