
     RDKit          3D

 34 38  0  0  0  0  0  0  0  0999 V2000
   -2.1200   -0.2100   -1.5220 O   0  0  0  0  0  0  0  0  0  0  0  0
   -1.9020    0.5880   -0.5380 C   0  0  0  0  0  0  0  0  0  0  0  0
   -2.9310    1.5940   -0.2920 C   0  0  2  0  0  0  0  0  0  0  0  0
   -3.6050    1.3550    1.0230 C   0  0  0  0  0  0  0  0  0  0  0  0
   -5.0990    1.2810    0.7900 C   0  0  0  0  0  0  0  0  0  0  0  0
   -5.3170    0.2570   -0.1930 N   0  0  0  0  0  0  0  0  0  0  0  0
   -5.9080   -0.9800    0.0870 C   0  0  0  0  0  0  0  0  0  0  0  0
   -6.2680   -1.3840    1.3640 C   0  0  0  0  0  0  0  0  0  0  0  0
   -6.8580   -2.6160    1.6150 C   0  0  0  0  0  0  0  0  0  0  0  0
   -7.1040   -3.4720    0.6120 N   0  0  0  0  0  0  0  0  0  0  0  0
   -6.7730   -3.1220   -0.6340 C   0  0  0  0  0  0  0  0  0  0  0  0
   -6.1820   -1.8980   -0.9180 C   0  0  0  0  0  0  0  0  0  0  0  0
   -4.8680    0.5970   -1.5330 C   0  0  0  0  0  0  0  0  0  0  0  0
   -3.8780    1.7490   -1.4630 C   0  0  0  0  0  0  0  0  0  0  0  0
   -0.7370    0.4790    0.2410 N   0  0  0  0  0  0  0  0  0  0  0  0
    0.2610   -0.5600   -0.0140 C   0  0  0  0  0  0  0  0  0  0  0  0
    1.5790    0.1330   -0.2140 C   0  0  0  0  0  0  0  0  0  0  0  0
    1.9430    1.0020    0.8480 N   0  0  0  0  0  0  0  0  0  0  0  0
    3.1780    0.4770    1.8690 S   0  0  1  0  0  0  0  0  0  0  0  0
    3.4530    1.5240    2.9080 O   0  0  0  0  0  0  0  0  0  0  0  0
    2.9030   -0.8440    2.5240 O   0  0  0  0  0  0  0  0  0  0  0  0
    4.6510    0.2750    0.9270 C   0  0  0  0  0  0  0  0  0  0  0  0
    5.4960    1.3600    0.7980 C   0  0  0  0  0  0  0  0  0  0  0  0
    6.6520    1.2100    0.0620 C   0  0  0  0  0  0  0  0  0  0  0  0
    7.0010    0.0200   -0.5540 C   0  0  0  0  0  0  0  0  0  0  0  0
    8.1790   -0.0730   -1.2840 C   0  0  0  0  0  0  0  0  0  0  0  0
    8.5210   -1.2630   -1.8960 C   0  0  0  0  0  0  0  0  0  0  0  0
   10.0070   -1.4000   -2.8230 Cl  0  0  0  0  0  0  0  0  0  0  0  0
    7.6510   -2.3440   -1.7510 C   0  0  0  0  0  0  0  0  0  0  0  0
    6.4870   -2.2580   -1.0320 C   0  0  0  0  0  0  0  0  0  0  0  0
    6.1550   -1.0630   -0.4240 C   0  0  0  0  0  0  0  0  0  0  0  0
    4.9860   -0.9110    0.3200 C   0  0  0  0  0  0  0  0  0  0  0  0
    0.9500    1.8320    1.3820 C   0  0  0  0  0  0  0  0  0  0  0  0
   -0.4690    1.3800    1.3180 C   0  0  0  0  0  0  0  0  0  0  0  0
  1  2  2  0
  3  2  1  6
  2 15  1  0
  3  4  1  0
  3 14  1  0
  4  5  1  0
  5  6  1  0
  6  7  1  0
  6 13  1  0
  7  8  2  0
  7 12  1  0
  8  9  1  0
  9 10  2  0
 10 11  1  0
 11 12  2  0
 13 14  1  0
 15 16  1  0
 15 34  1  0
 16 17  1  0
 17 18  1  0
 19 18  1  6
 18 33  1  0
 19 20  2  0
 19 21  2  0
 19 22  1  0
 22 23  2  0
 22 32  1  0
 23 24  1  0
 24 25  2  0
 25 26  1  0
 25 31  1  0
 26 27  2  0
 27 28  1  0
 27 29  1  0
 29 30  2  0
 30 31  1  0
 31 32  2  0
 33 34  1  0
M  END
