
     RDKit          3D

  9  9  0  0  0  0  0  0  0  0999 V2000
    3.2260   -0.4060    0.6250 C   0  0  0  0  0  0  0  0  0  0  0  0
    2.3730    0.1520   -0.4020 N   0  0  0  0  0  0  0  0  0  0  0  0
    0.9540    0.1260   -0.2980 C   0  0  0  0  0  0  0  0  0  0  0  0
    0.3270   -0.4420    0.7910 C   0  0  0  0  0  0  0  0  0  0  0  0
   -1.0530   -0.4660    0.8890 C   0  0  0  0  0  0  0  0  0  0  0  0
   -1.8750    0.0670   -0.0790 C   0  0  0  0  0  0  0  0  0  0  0  0
   -3.2970    0.0490    0.0110 N   0  0  0  0  0  0  0  0  0  0  0  0
   -1.2470    0.6350   -1.1660 C   0  0  0  0  0  0  0  0  0  0  0  0
    0.1300    0.6600   -1.2670 C   0  0  0  0  0  0  0  0  0  0  0  0
  1  2  1  0
  2  3  1  0
  3  4  2  0
  3  9  1  0
  4  5  1  0
  5  6  2  0
  6  7  1  0
  6  8  1  0
  8  9  2  0
M  CHG  1   7   1
M  END
