
     RDKit          3D

  9  9  0  0  0  0  0  0  0  0999 V2000
    2.3170    1.2000   -0.4810 C   0  0  0  0  0  0  0  0  0  0  0  0
    1.7330    0.0960   -0.1140 C   0  0  0  0  0  0  0  0  0  0  0  0
    2.5130   -1.0440    0.2020 N   0  0  0  0  0  0  0  0  0  0  0  0
    0.2750   -0.0280   -0.0090 C   0  0  0  0  0  0  0  0  0  0  0  0
   -0.2520   -1.2000    0.3760 C   0  0  0  0  0  0  0  0  0  0  0  0
   -1.6930   -1.2950    0.4720 C   0  0  0  0  0  0  0  0  0  0  0  0
   -2.5390   -0.3250    0.2110 C   0  0  0  0  0  0  0  0  0  0  0  0
   -2.0510    0.9880   -0.2160 C   0  0  0  0  0  0  0  0  0  0  0  0
   -0.6210    1.0220   -0.2920 N   0  0  0  0  0  0  0  0  0  0  0  0
  1  2  2  0
  2  3  1  0
  2  4  1  0
  4  5  2  0
  4  9  1  0
  5  6  1  0
  6  7  2  0
  7  8  1  0
  8  9  1  0
M  END
