
     RDKit          3D

 22 23  0  0  0  0  0  0  0  0999 V2000
    6.1610   -1.6440    0.2420 C   0  0  0  0  0  0  0  0  0  0  0  0
    4.7410   -1.3100    0.4610 C   0  0  0  0  0  0  0  0  0  0  0  0
    4.2540   -0.1520    0.0130 C   0  0  0  0  0  0  0  0  0  0  0  0
    5.1200    0.7780   -0.6870 C   0  0  0  0  0  0  0  0  0  0  0  0
    4.7780    1.9370   -1.1630 C   0  0  0  0  0  0  0  0  0  0  0  0
    5.9950    3.0910   -2.0730 Br  0  0  0  0  0  0  0  0  0  0  0  0
    2.8960    0.2030    0.2120 N   0  0  0  0  0  0  0  0  0  0  0  0
    1.9390    0.4030   -0.8080 C   0  0  0  0  0  0  0  0  0  0  0  0
    2.3070    0.2510   -2.0010 O   0  0  0  0  0  0  0  0  0  0  0  0
    0.5270    0.7820   -0.5350 C   0  0  0  0  0  0  0  0  0  0  0  0
   -0.4970   -0.7050   -0.3570 S   0  0  0  0  0  0  0  0  0  0  0  0
   -2.2020   -0.2030   -0.0280 C   0  0  0  0  0  0  0  0  0  0  0  0
   -2.5240    1.1300    0.0480 C   0  0  0  0  0  0  0  0  0  0  0  0
   -3.8080    1.5560    0.2960 C   0  0  0  0  0  0  0  0  0  0  0  0
   -4.7940    0.6090    0.4720 C   0  0  0  0  0  0  0  0  0  0  0  0
   -4.4760   -0.7510    0.3960 C   0  0  0  0  0  0  0  0  0  0  0  0
   -3.1890   -1.1310    0.1480 C   0  0  0  0  0  0  0  0  0  0  0  0
   -2.8650   -2.4600    0.0720 O   0  0  0  0  0  0  0  0  0  0  0  0
   -3.8630   -3.4370    0.2500 C   0  0  0  0  0  0  0  0  0  0  0  0
   -5.9640    1.3140    0.7010 O   0  0  0  0  0  0  0  0  0  0  0  0
   -5.6260    2.6410    1.0600 C   0  0  0  0  0  0  0  0  0  0  0  0
   -4.3840    2.8320    0.4190 O   0  0  0  0  0  0  0  0  0  0  0  0
  1  2  1  0
  2  3  2  3
  3  4  1  0
  3  7  1  0
  4  5  2  3
  5  6  1  0
  7  8  1  0
  8  9  2  0
  8 10  1  0
 10 11  1  0
 11 12  1  0
 12 13  2  0
 12 17  1  0
 13 14  1  0
 14 15  2  0
 14 22  1  0
 15 16  1  0
 15 20  1  0
 16 17  2  0
 17 18  1  0
 18 19  1  0
 20 21  1  0
 21 22  1  0
M  END
