
     RDKit          3D

 22 23  0  0  0  0  0  0  0  0999 V2000
    1.2770   -0.6880    1.0330 O   0  0  0  0  0  0  0  0  0  0  0  0
    1.5390   -0.3850   -0.1480 C   0  0  0  0  0  0  0  0  0  0  0  0
    0.4550    0.2000   -1.0380 C   0  0  0  0  0  0  0  0  0  0  0  0
   -0.7920    0.2800   -0.2010 C   0  0  0  0  0  0  0  0  0  0  0  0
   -1.9620    0.8400   -0.9370 C   0  0  0  0  0  0  0  0  0  0  0  0
   -3.1340    0.8710   -0.0280 C   0  0  0  0  0  0  0  0  0  0  0  0
   -3.1270    0.4650    1.2180 C   0  0  0  0  0  0  0  0  0  0  0  0
   -4.2900    0.4920    2.1340 C   0  0  0  0  0  0  0  0  0  0  0  0
   -5.4010    1.0040    1.5070 O   0  0  0  0  0  0  0  0  0  0  0  0
   -5.4400    1.4350    0.2120 C   0  0  0  0  0  0  0  0  0  0  0  0
   -4.3800    1.3930   -0.5680 C   0  0  0  0  0  0  0  0  0  0  0  0
   -4.4400    1.9510   -2.2360 S   0  0  2  0  0  0  0  0  0  0  0  0
   -3.3680    2.9650   -2.5090 O   0  0  0  0  0  0  0  0  0  0  0  0
   -5.7600    2.6460   -2.4320 O   0  0  0  0  0  0  0  0  0  0  0  0
    2.8360   -0.5830   -0.6620 N   0  0  0  0  0  0  0  0  0  0  0  0
    3.9170   -1.1150    0.0490 C   0  0  0  0  0  0  0  0  0  0  0  0
    3.8690   -1.7520    1.2670 C   0  0  0  0  0  0  0  0  0  0  0  0
    5.0040   -2.2370    1.9100 C   0  0  0  0  0  0  0  0  0  0  0  0
    6.2490   -2.1090    1.3640 C   0  0  0  0  0  0  0  0  0  0  0  0
    7.7820   -2.7860    2.2720 Br  0  0  0  0  0  0  0  0  0  0  0  0
    6.3340   -1.4770    0.1450 C   0  0  0  0  0  0  0  0  0  0  0  0
    5.2100   -0.9990   -0.4860 C   0  0  0  0  0  0  0  0  0  0  0  0
  1  2  2  0
  2  3  1  0
  2 15  1  0
  3  4  1  0
  4  5  1  0
  5  6  1  0
  6  7  2  0
  6 11  1  0
  7  8  1  0
  8  9  1  0
  9 10  1  0
 10 11  2  0
 12 11  1  1
 12 13  2  0
 12 14  2  0
 15 16  1  0
 16 17  2  0
 16 22  1  0
 17 18  1  0
 18 19  2  0
 19 20  1  0
 19 21  1  0
 21 22  2  0
M  END
