
     RDKit          3D

 22 23  0  0  0  0  0  0  0  0999 V2000
    5.7980   -0.1210   -0.5140 C   0  0  0  0  0  0  0  0  0  0  0  0
    4.6940   -0.6720   -1.3960 C   0  0  0  0  0  0  0  0  0  0  0  0
    3.4460   -0.7700   -0.4950 C   0  0  0  0  0  0  0  0  0  0  0  0
    3.1910    0.5060   -0.0590 O   0  0  0  0  0  0  0  0  0  0  0  0
    2.1100    0.6750    0.7690 C   0  0  0  0  0  0  0  0  0  0  0  0
    0.8600    0.3700    0.0810 C   0  0  0  0  0  0  0  0  0  0  0  0
    0.8770    0.0170   -1.1360 O   0  0  0  0  0  0  0  0  0  0  0  0
   -0.4550    0.4430    0.7050 C   0  0  0  0  0  0  0  0  0  0  0  0
   -0.5740    0.8500    2.0750 C   0  0  0  0  0  0  0  0  0  0  0  0
   -1.6490    0.9480    2.7320 O   0  0  0  0  0  0  0  0  0  0  0  0
    0.5920    1.1860    2.8020 O   0  0  0  0  0  0  0  0  0  0  0  0
    0.5080    1.5950    4.1630 C   0  0  0  0  0  0  0  0  0  0  0  0
   -1.5160    0.1280   -0.0190 C   0  0  0  0  0  0  0  0  0  0  0  0
   -2.8920    0.0940    0.2690 N   0  0  0  0  0  0  0  0  0  0  0  0
   -3.7520   -0.2920   -0.7420 C   0  0  0  0  0  0  0  0  0  0  0  0
   -5.1620   -0.3930   -0.6600 C   0  0  0  0  0  0  0  0  0  0  0  0
   -5.8710   -0.7930   -1.7570 C   0  0  0  0  0  0  0  0  0  0  0  0
   -7.7900   -0.9190   -1.6100 Br  0  0  0  0  0  0  0  0  0  0  0  0
   -5.2970   -1.1100   -2.9620 C   0  0  0  0  0  0  0  0  0  0  0  0
   -3.9480   -1.0200   -3.0640 C   0  0  0  0  0  0  0  0  0  0  0  0
   -3.2020   -0.6130   -1.9510 C   0  0  0  0  0  0  0  0  0  0  0  0
   -1.4420   -0.3970   -1.7630 S   0  0  0  0  0  0  0  0  0  0  0  0
  1  2  1  0
  2  3  1  0
  3  4  1  0
  4  5  1  0
  5  6  1  0
  6  7  2  0
  6  8  1  0
  8  9  1  0
  8 13  2  3
  9 10  2  0
  9 11  1  0
 11 12  1  0
 13 14  1  0
 13 22  1  0
 14 15  1  0
 15 16  2  0
 15 21  1  0
 16 17  1  0
 17 18  1  0
 17 19  2  0
 19 20  1  0
 20 21  2  0
 21 22  1  0
M  END
