
     RDKit          3D

 22 23  0  0  0  0  0  0  0  0999 V2000
   -0.9440   -0.7090    2.2670 C   0  0  0  0  0  0  0  0  0  0  0  0
   -0.0280   -0.1430    1.2350 C   0  0  0  0  0  0  0  0  0  0  0  0
    1.2670    0.0590    1.4800 N   0  0  0  0  0  0  0  0  0  0  0  0
    2.0720    0.5650    0.5460 C   0  0  0  0  0  0  0  0  0  0  0  0
    3.8010    0.8420    0.8410 S   0  0  0  0  0  0  0  0  0  0  0  0
    4.7780   -0.6060    0.3700 C   0  0  0  0  0  0  0  0  0  0  0  0
    6.2310   -0.2970    0.6380 C   0  0  0  0  0  0  0  0  0  0  0  0
    6.5780    0.7630    1.1220 O   0  0  0  0  0  0  0  0  0  0  0  0
    1.5360    0.8840   -0.7050 C   0  0  0  0  0  0  0  0  0  0  0  0
    2.4510    1.4670   -1.7260 C   0  0  0  0  0  0  0  0  0  0  0  0
    2.7280    3.3350   -1.2500 Br  0  0  0  0  0  0  0  0  0  0  0  0
    0.2160    0.6790   -0.9640 C   0  0  0  0  0  0  0  0  0  0  0  0
   -0.2550    0.9660   -2.0870 O   0  0  0  0  0  0  0  0  0  0  0  0
   -0.5940    0.1570    0.0160 C   0  0  0  0  0  0  0  0  0  0  0  0
   -2.0190   -0.0490   -0.1990 C   0  0  0  0  0  0  0  0  0  0  0  0
   -2.9090    1.0160   -0.3240 C   0  0  0  0  0  0  0  0  0  0  0  0
   -4.2630    0.8390   -0.5080 C   0  0  0  0  0  0  0  0  0  0  0  0
   -5.0840    1.9540   -0.6240 O   0  0  0  0  0  0  0  0  0  0  0  0
   -4.7880   -0.4340   -0.5740 C   0  0  0  0  0  0  0  0  0  0  0  0
   -3.9190   -1.4970   -0.4500 C   0  0  0  0  0  0  0  0  0  0  0  0
   -4.4950   -2.7820   -0.5200 O   0  0  0  0  0  0  0  0  0  0  0  0
   -2.5650   -1.3150   -0.2670 C   0  0  0  0  0  0  0  0  0  0  0  0
  1  2  1  0
  2  3  1  0
  2 14  2  0
  3  4  1  0
  4  5  1  0
  4  9  2  0
  5  6  1  0
  6  7  1  0
  7  8  2  0
  9 10  1  0
  9 12  1  0
 10 11  1  0
 12 13  2  0
 12 14  1  0
 14 15  1  0
 15 16  2  0
 15 22  1  0
 16 17  1  0
 17 18  1  0
 17 19  2  0
 19 20  1  0
 20 21  1  0
 20 22  2  0
M  END
