
     RDKit          3D

 22 23  0  0  0  0  0  0  0  0999 V2000
   -0.2370    1.2970   -1.1390 O   0  0  0  0  0  0  0  0  0  0  0  0
    0.3240    1.0740   -0.0360 C   0  0  0  0  0  0  0  0  0  0  0  0
    1.6700    0.6310    0.0400 N   0  0  0  0  0  0  0  0  0  0  0  0
    2.4460    0.4200   -1.1560 C   0  0  0  0  0  0  0  0  0  0  0  0
    3.8260   -0.0440   -0.7950 C   0  0  0  0  0  0  0  0  0  0  0  0
    4.3090   -1.3140   -0.6100 C   0  0  0  0  0  0  0  0  0  0  0  0
    5.5920   -1.4760   -0.2900 C   0  0  0  0  0  0  0  0  0  0  0  0
    6.3760   -0.3250   -0.1620 C   0  0  0  0  0  0  0  0  0  0  0  0
    7.8180   -0.2170    0.1820 C   0  0  0  0  0  0  0  0  0  0  0  0
    8.3050   -1.4890    0.3670 O   0  0  0  0  0  0  0  0  0  0  0  0
    5.2590    0.9520   -0.5010 S   0  0  0  0  0  0  0  0  0  0  0  0
   -0.3840    1.2630    1.1360 O   0  0  0  0  0  0  0  0  0  0  0  0
   -1.7130    1.6920    1.2190 C   0  0  0  0  0  0  0  0  0  0  0  0
   -2.6300    0.7310    0.5380 C   0  0  0  0  0  0  0  0  0  0  0  0
   -3.9730    1.1920    0.6390 O   0  0  0  0  0  0  0  0  0  0  0  0
   -4.9950    0.4210    0.0570 C   0  0  0  0  0  0  0  0  0  0  0  0
   -4.6930   -0.7570   -0.5970 C   0  0  0  0  0  0  0  0  0  0  0  0
   -5.6720   -1.5110   -1.1630 C   0  0  0  0  0  0  0  0  0  0  0  0
   -6.9820   -1.0810   -1.0760 C   0  0  0  0  0  0  0  0  0  0  0  0
   -7.3140    0.0850   -0.4330 C   0  0  0  0  0  0  0  0  0  0  0  0
   -9.1420    0.6500   -0.3320 Br  0  0  0  0  0  0  0  0  0  0  0  0
   -6.3010    0.8470    0.1430 C   0  0  0  0  0  0  0  0  0  0  0  0
  1  2  2  0
  2  3  1  0
  2 12  1  0
  3  4  1  0
  4  5  1  0
  5  6  2  0
  5 11  1  0
  6  7  1  0
  7  8  2  0
  8  9  1  0
  8 11  1  0
  9 10  1  0
 12 13  1  0
 13 14  1  0
 14 15  1  0
 15 16  1  0
 16 17  2  0
 16 22  1  0
 17 18  1  0
 18 19  2  0
 19 20  1  0
 20 21  1  0
 20 22  2  0
M  END
