
     RDKit          3D

 22 23  0  0  0  0  0  0  0  0999 V2000
    3.5350   -0.6960   -0.8920 O   0  0  0  0  0  0  0  0  0  0  0  0
    4.1340    0.0710   -0.1060 C   0  0  0  0  0  0  0  0  0  0  0  0
    3.4160    0.7330    1.0020 C   0  0  0  0  0  0  0  0  0  0  0  0
    1.6850    0.2310    0.9420 S   0  0  0  0  0  0  0  0  0  0  0  0
    0.9540    0.9150   -0.5770 C   0  0  0  0  0  0  0  0  0  0  0  0
   -0.4420    0.5110   -0.6370 N   0  0  0  0  0  0  0  0  0  0  0  0
   -1.3730    0.8640    0.3740 C   0  0  0  0  0  0  0  0  0  0  0  0
   -0.9240    1.5510    1.3360 O   0  0  0  0  0  0  0  0  0  0  0  0
   -2.7610    0.4540    0.2990 C   0  0  0  0  0  0  0  0  0  0  0  0
   -3.6100    0.7570    1.3580 C   0  0  0  0  0  0  0  0  0  0  0  0
   -4.9340    0.4090    1.3690 C   0  0  0  0  0  0  0  0  0  0  0  0
   -5.4490   -0.2850    0.2590 C   0  0  0  0  0  0  0  0  0  0  0  0
   -4.6390   -0.6000   -0.8020 C   0  0  0  0  0  0  0  0  0  0  0  0
   -3.2930   -0.2150   -0.7520 C   0  0  0  0  0  0  0  0  0  0  0  0
   -5.4320   -1.3060   -1.7890 C   0  0  0  0  0  0  0  0  0  0  0  0
   -6.6670   -1.4250   -1.3680 C   0  0  0  0  0  0  0  0  0  0  0  0
   -6.7970   -0.7950   -0.0410 C   0  0  1  0  0  0  0  0  0  0  0  0
   -7.3950   -2.0580    1.2960 Br  0  0  0  0  0  0  0  0  0  0  0  0
    5.4920    0.2620   -0.3310 O   0  0  0  0  0  0  0  0  0  0  0  0
    6.1340   -0.4050   -1.4160 C   0  0  0  0  0  0  0  0  0  0  0  0
    7.5940    0.0200   -1.3810 C   0  0  0  0  0  0  0  0  0  0  0  0
    8.1960   -0.3380   -0.1760 O   0  0  0  0  0  0  0  0  0  0  0  0
  1  2  2  0
  2  3  1  0
  2 19  1  0
  3  4  1  0
  4  5  1  0
  5  6  1  0
  6  7  1  0
  7  8  2  0
  7  9  1  0
  9 10  2  0
  9 14  1  0
 10 11  1  0
 11 12  2  0
 12 13  1  0
 12 17  1  0
 13 14  2  0
 13 15  1  0
 15 16  2  0
 16 17  1  0
 17 18  1  1
 19 20  1  0
 20 21  1  0
 21 22  1  0
M  END
