
     RDKit          3D

 30 31  0  0  0  0  0  0  0  0999 V2000
   -2.8730    3.2090   -2.3120 C   0  0  0  0  0  0  0  0  0  0  0  0
   -2.8060    1.7960   -2.4270 O   0  0  0  0  0  0  0  0  0  0  0  0
   -1.7940    1.0940   -1.7870 C   0  0  0  0  0  0  0  0  0  0  0  0
   -0.9690    1.7650   -1.1230 O   0  0  0  0  0  0  0  0  0  0  0  0
   -1.6710   -0.3630   -1.8690 C   0  0  2  0  0  0  0  0  0  0  0  0
   -2.9350   -1.0240   -1.4240 C   0  0  0  0  0  0  0  0  0  0  0  0
   -3.3290   -0.7220   -0.0310 C   0  0  0  0  0  0  0  0  0  0  0  0
   -2.8740   -1.5290    1.0040 C   0  0  0  0  0  0  0  0  0  0  0  0
   -3.2070   -1.3020    2.3130 C   0  0  0  0  0  0  0  0  0  0  0  0
   -4.0300   -0.2320    2.6550 C   0  0  0  0  0  0  0  0  0  0  0  0
   -4.4970    0.5830    1.6660 C   0  0  0  0  0  0  0  0  0  0  0  0
   -5.3530    1.7030    1.9620 C   0  0  0  0  0  0  0  0  0  0  0  0
   -5.8210    2.5370    0.8810 N   0  0  0  0  0  0  0  0  0  0  0  0
   -5.7380    2.0220    3.1320 N   0  0  0  0  0  0  0  0  0  0  0  0
   -4.1390    0.3230    0.3470 C   0  0  0  0  0  0  0  0  0  0  0  0
   -0.5150   -0.8030   -1.1050 N   0  0  0  0  0  0  0  0  0  0  0  0
    0.5550   -1.4940   -1.7080 C   0  0  0  0  0  0  0  0  0  0  0  0
    0.4770   -1.7240   -2.9570 O   0  0  0  0  0  0  0  0  0  0  0  0
    1.7160   -1.9240   -0.8860 C   0  0  0  0  0  0  0  0  0  0  0  0
    2.6370   -2.6020   -1.7730 N   0  0  0  0  0  0  0  0  0  0  0  0
    4.0410   -3.1570   -0.9440 S   0  0  1  0  0  0  0  0  0  0  0  0
    3.7200   -4.1130    0.1440 O   0  0  0  0  0  0  0  0  0  0  0  0
    4.9390   -3.8220   -1.9500 O   0  0  0  0  0  0  0  0  0  0  0  0
    4.8430   -1.7340   -0.2960 C   0  0  0  0  0  0  0  0  0  0  0  0
    5.8000   -1.0610   -1.0270 C   0  0  0  0  0  0  0  0  0  0  0  0
    6.4460    0.0600   -0.5460 C   0  0  0  0  0  0  0  0  0  0  0  0
    6.1550    0.5590    0.7070 C   0  0  0  0  0  0  0  0  0  0  0  0
    6.8430    1.7690    1.2410 C   0  0  0  0  0  0  0  0  0  0  0  0
    5.2000   -0.1100    1.4410 C   0  0  0  0  0  0  0  0  0  0  0  0
    4.5540   -1.2340    0.9560 C   0  0  0  0  0  0  0  0  0  0  0  0
  1  2  1  0
  2  3  1  0
  3  4  2  0
  3  5  1  0
  5  6  1  1
  5 16  1  0
  6  7  1  0
  7  8  2  0
  7 15  1  0
  8  9  1  0
  9 10  2  0
 10 11  1  0
 11 12  1  0
 11 15  2  0
 12 13  1  0
 12 14  2  0
 16 17  1  0
 17 18  2  0
 17 19  1  0
 19 20  1  0
 21 20  1  6
 21 22  2  0
 21 23  2  0
 21 24  1  0
 24 25  2  0
 24 30  1  0
 25 26  1  0
 26 27  2  0
 27 28  1  0
 27 29  1  0
 29 30  2  0
M  CHG  1  14   1
M  END
