
     RDKit          3D

 30 33  0  0  0  0  0  0  0  0999 V2000
    9.6320    0.8540    0.1700 C   0  0  0  0  0  0  0  0  0  0  0  0
    8.3830    0.0310    0.3500 C   0  0  0  0  0  0  0  0  0  0  0  0
    7.1400    0.5250    0.6940 C   0  0  0  0  0  0  0  0  0  0  0  0
    6.2630   -0.5430    0.7590 C   0  0  0  0  0  0  0  0  0  0  0  0
    4.8950   -0.4910    1.0760 O   0  0  0  0  0  0  0  0  0  0  0  0
    3.9310   -0.3220    0.1080 C   0  0  0  0  0  0  0  0  0  0  0  0
    4.3250   -0.2150   -1.0850 O   0  0  0  0  0  0  0  0  0  0  0  0
    2.4680   -0.2670    0.4500 C   0  0  0  0  0  0  0  0  0  0  0  0
    1.6680   -0.0770   -0.8050 C   0  0  0  0  0  0  0  0  0  0  0  0
    0.2640   -0.0150   -0.5410 N   0  0  0  0  0  0  0  0  0  0  0  0
   -0.4170   -1.0810    0.0560 C   0  0  0  0  0  0  0  0  0  0  0  0
    0.1920   -2.1290    0.3760 O   0  0  0  0  0  0  0  0  0  0  0  0
   -1.8870   -1.0430    0.3460 C   0  0  0  0  0  0  0  0  0  0  0  0
   -2.4370    0.1970   -0.0690 O   0  0  0  0  0  0  0  0  0  0  0  0
   -3.7920    0.3890    0.1310 C   0  0  0  0  0  0  0  0  0  0  0  0
   -4.6150    0.7610   -0.8520 C   0  0  0  0  0  0  0  0  0  0  0  0
   -4.4180    1.0510   -2.2590 C   0  0  0  0  0  0  0  0  0  0  0  0
   -5.3970    1.4070   -3.0550 C   0  0  0  0  0  0  0  0  0  0  0  0
   -6.7640    1.5310   -2.5500 C   0  0  0  0  0  0  0  0  0  0  0  0
   -6.9290    1.2290   -1.1180 C   0  0  0  0  0  0  0  0  0  0  0  0
   -5.9570    0.8750   -0.3230 C   0  0  0  0  0  0  0  0  0  0  0  0
   -5.9210    0.5370    1.1120 C   0  0  0  0  0  0  0  0  0  0  0  0
   -6.6370    0.4080    2.2130 C   0  0  0  0  0  0  0  0  0  0  0  0
   -5.7300   -0.0030    3.3060 C   0  0  0  0  0  0  0  0  0  0  0  0
   -4.4140   -0.0850    2.6570 C   0  0  0  0  0  0  0  0  0  0  0  0
   -4.5210    0.2300    1.3760 C   0  0  0  0  0  0  0  0  0  0  0  0
    7.0250   -1.6500    0.4470 C   0  0  0  0  0  0  0  0  0  0  0  0
    6.4830   -3.0080    0.4000 C   0  0  0  0  0  0  0  0  0  0  0  0
    5.2810   -3.2530    0.6420 O   0  0  0  0  0  0  0  0  0  0  0  0
    8.2560   -1.2610    0.2160 O   0  0  0  0  0  0  0  0  0  0  0  0
  1  2  1  0
  2  3  2  0
  2 30  1  0
  3  4  1  0
  4  5  1  0
  4 27  2  0
  5  6  1  0
  6  7  2  0
  6  8  1  0
  8  9  1  0
  9 10  1  0
 10 11  1  0
 11 12  2  0
 11 13  1  0
 13 14  1  0
 14 15  1  0
 15 16  2  0
 15 26  1  0
 16 17  1  0
 16 21  1  0
 17 18  2  0
 18 19  1  0
 19 20  1  0
 20 21  2  0
 21 22  1  0
 22 23  2  0
 22 26  1  0
 23 24  1  0
 24 25  1  0
 25 26  2  0
 27 28  1  0
 27 30  1  0
 28 29  2  0
M  END
