
     RDKit          3D

 30 33  0  0  0  0  0  0  0  0999 V2000
   -8.8640    0.2750   -0.0430 C   0  0  0  0  0  0  0  0  0  0  0  0
   -8.1080    1.2510    0.8030 C   0  0  0  0  0  0  0  0  0  0  0  0
   -6.7950    1.3850    0.3350 O   0  0  0  0  0  0  0  0  0  0  0  0
   -5.9340    0.3080    0.3380 C   0  0  0  0  0  0  0  0  0  0  0  0
   -6.2810   -0.9350    0.8110 C   0  0  0  0  0  0  0  0  0  0  0  0
   -5.3440   -1.9740    0.7730 C   0  0  0  0  0  0  0  0  0  0  0  0
   -4.0630   -1.7800    0.2650 C   0  0  0  0  0  0  0  0  0  0  0  0
   -3.1670   -2.9450    0.2730 C   0  0  0  0  0  0  0  0  0  0  0  0
   -1.8480   -2.5230    0.0030 O   0  0  0  0  0  0  0  0  0  0  0  0
   -1.1610   -1.6270    0.8060 C   0  0  0  0  0  0  0  0  0  0  0  0
   -1.7490   -1.1760    1.8150 O   0  0  0  0  0  0  0  0  0  0  0  0
    0.2150   -1.2030    0.5030 C   0  0  0  0  0  0  0  0  0  0  0  0
    0.9640   -1.5880   -0.5170 C   0  0  0  0  0  0  0  0  0  0  0  0
    2.2570   -0.9300   -0.4400 C   0  0  0  0  0  0  0  0  0  0  0  0
    3.2570   -1.0790   -1.2940 C   0  0  0  0  0  0  0  0  0  0  0  0
    4.5160   -0.3690   -1.1210 C   0  0  0  0  0  0  0  0  0  0  0  0
    4.7250    0.9190   -0.6580 C   0  0  0  0  0  0  0  0  0  0  0  0
    6.0800    1.1780   -0.6600 C   0  0  0  0  0  0  0  0  0  0  0  0
    6.6490    0.0140   -1.1340 C   0  0  0  0  0  0  0  0  0  0  0  0
    5.6920   -0.8670   -1.3920 O   0  0  0  0  0  0  0  0  0  0  0  0
    8.1350    0.0060   -1.2440 C   0  0  0  0  0  0  0  0  0  0  0  0
    8.5230    1.4240   -1.6690 C   0  0  0  0  0  0  0  0  0  0  0  0
    8.2210    2.3200   -0.5860 N   0  0  0  0  0  0  0  0  0  0  0  0
    6.8150    2.3890   -0.2640 C   0  0  0  0  0  0  0  0  0  0  0  0
    2.2280   -0.1380    0.6800 O   0  0  0  0  0  0  0  0  0  0  0  0
    0.9880   -0.2640    1.3060 C   0  0  1  0  0  0  0  0  0  0  0  0
    0.3520    1.1160    1.3420 C   0  0  0  0  0  0  0  0  0  0  0  0
   -3.7040   -0.5360   -0.2120 C   0  0  0  0  0  0  0  0  0  0  0  0
   -4.6290    0.4560   -0.1650 C   0  0  0  0  0  0  0  0  0  0  0  0
   -4.3150    1.7310   -0.6350 O   0  0  0  0  0  0  0  0  0  0  0  0
  1  2  1  0
  2  3  1  0
  3  4  1  0
  4  5  2  0
  4 29  1  0
  5  6  1  0
  6  7  2  0
  7  8  1  0
  7 28  1  0
  8  9  1  0
  9 10  1  0
 10 11  2  0
 10 12  1  0
 12 13  2  0
 12 26  1  0
 13 14  1  0
 14 15  2  3
 14 25  1  0
 15 16  1  0
 16 17  2  0
 16 20  1  0
 17 18  1  0
 18 19  2  0
 18 24  1  0
 19 20  1  0
 19 21  1  0
 21 22  1  0
 22 23  1  0
 23 24  1  0
 25 26  1  0
 26 27  1  6
 28 29  2  0
 29 30  1  0
M  END
