
     RDKit          3D

 30 33  0  0  0  0  0  0  0  0999 V2000
   -0.2500   -4.5300    0.8650 C   0  0  0  0  0  0  0  0  0  0  0  0
   -0.2280   -3.0890    1.3720 C   0  0  0  0  0  0  0  0  0  0  0  0
   -1.3170   -2.3390    0.7360 C   0  0  0  0  0  0  0  0  0  0  0  0
   -1.1470   -1.2740   -0.0030 C   0  0  0  0  0  0  0  0  0  0  0  0
    0.1450   -0.6790   -0.3050 C   0  0  0  0  0  0  0  0  0  0  0  0
    0.2010    0.3670   -1.0680 O   0  0  0  0  0  0  0  0  0  0  0  0
    1.3830   -1.0790    0.1180 O   0  0  0  0  0  0  0  0  0  0  0  0
    2.5710   -0.4500   -0.2190 C   0  0  0  0  0  0  0  0  0  0  0  0
    3.3120   -0.7940   -1.3320 C   0  0  0  0  0  0  0  0  0  0  0  0
    4.4970   -0.1830   -1.6880 C   0  0  0  0  0  0  0  0  0  0  0  0
    5.2190   -0.5490   -2.8120 O   0  0  0  0  0  0  0  0  0  0  0  0
    4.9770    0.8320   -0.8890 C   0  0  0  0  0  0  0  0  0  0  0  0
    6.2670    1.5280   -1.2370 C   0  0  0  0  0  0  0  0  0  0  0  0
    4.2560    1.2060    0.2440 C   0  0  0  0  0  0  0  0  0  0  0  0
    3.0760    0.5680    0.5620 C   0  0  0  0  0  0  0  0  0  0  0  0
    2.3950    0.9740    1.6960 O   0  0  0  0  0  0  0  0  0  0  0  0
    2.8630    2.0130    2.5360 C   0  0  0  0  0  0  0  0  0  0  0  0
   -2.3150   -0.5970   -0.5820 C   0  0  1  0  0  0  0  0  0  0  0  0
   -3.6230   -1.1970   -0.3520 C   0  0  0  0  0  0  0  0  0  0  0  0
   -3.7620   -2.2730    0.3770 C   0  0  0  0  0  0  0  0  0  0  0  0
   -2.6450   -2.9040    0.9670 N   0  0  0  0  0  0  0  0  0  0  0  0
   -4.7570   -0.5050   -1.0040 C   0  0  0  0  0  0  0  0  0  0  0  0
   -5.8390   -1.0940   -1.1050 O   0  0  0  0  0  0  0  0  0  0  0  0
   -4.5040    0.9000   -1.5070 C   0  0  0  0  0  0  0  0  0  0  0  0
   -3.4920    1.4900   -0.5830 C   0  0  0  0  0  0  0  0  0  0  0  0
   -2.4430    0.8180   -0.1210 C   0  0  0  0  0  0  0  0  0  0  0  0
   -1.5430    1.5260    0.8140 C   0  0  0  0  0  0  0  0  0  0  0  0
   -2.3020    2.1610    1.8060 O   0  0  0  0  0  0  0  0  0  0  0  0
   -3.3570    2.8930    1.3600 C   0  0  0  0  0  0  0  0  0  0  0  0
   -3.6010    2.8940   -0.1140 C   0  0  0  0  0  0  0  0  0  0  0  0
  1  2  1  0
  2  3  1  0
  3  4  2  0
  3 21  1  0
  4  5  1  0
 18  4  1  1
  5  6  2  0
  5  7  1  0
  7  8  1  0
  8  9  2  0
  8 15  1  0
  9 10  1  0
 10 11  1  0
 10 12  2  0
 12 13  1  0
 12 14  1  0
 14 15  2  0
 15 16  1  0
 16 17  1  0
 18 19  1  0
 18 26  1  0
 19 20  2  0
 19 22  1  0
 20 21  1  0
 22 23  2  0
 22 24  1  0
 24 25  1  0
 25 26  2  0
 25 30  1  0
 26 27  1  0
 27 28  1  0
 28 29  1  0
 29 30  1  0
M  END
