
     RDKit          3D

 30 33  0  0  0  0  0  0  0  0999 V2000
   -6.4760   -1.7230   -1.8670 C   0  0  0  0  0  0  0  0  0  0  0  0
   -6.3890   -1.7710   -0.3550 C   0  0  0  0  0  0  0  0  0  0  0  0
   -6.1540   -0.3940    0.2260 C   0  0  0  0  0  0  0  0  0  0  0  0
   -4.9100    0.2370   -0.2290 C   0  0  0  0  0  0  0  0  0  0  0  0
   -3.7050   -0.0940    0.3050 C   0  0  0  0  0  0  0  0  0  0  0  0
   -3.5470   -1.0710    1.4250 C   0  0  0  0  0  0  0  0  0  0  0  0
   -2.5650    0.5350   -0.2040 C   0  0  0  0  0  0  0  0  0  0  0  0
   -2.6220    1.4640   -1.2110 C   0  0  0  0  0  0  0  0  0  0  0  0
   -3.8300    1.7500   -1.6940 O   0  0  0  0  0  0  0  0  0  0  0  0
   -4.9210    1.1890   -1.2520 C   0  0  0  0  0  0  0  0  0  0  0  0
   -6.0610    1.4730   -1.7240 O   0  0  0  0  0  0  0  0  0  0  0  0
   -1.5000    2.1800   -1.8170 C   0  0  0  0  0  0  0  0  0  0  0  0
   -0.1900    1.8340   -1.2700 C   0  0  0  0  0  0  0  0  0  0  0  0
    1.0440    2.3070   -1.6100 N   0  0  0  0  0  0  0  0  0  0  0  0
    1.9520    1.6930   -0.8300 C   0  0  0  0  0  0  0  0  0  0  0  0
    1.2540    0.8220    0.0090 C   0  0  0  0  0  0  0  0  0  0  0  0
   -0.0820    0.9150   -0.2710 C   0  0  0  0  0  0  0  0  0  0  0  0
   -1.2190    0.2270    0.3120 C   0  0  0  0  0  0  0  0  0  0  0  0
   -1.0910   -0.6180    1.2330 O   0  0  0  0  0  0  0  0  0  0  0  0
    1.8380   -0.0730    1.0380 C   0  0  0  0  0  0  0  0  0  0  0  0
    3.0900   -0.6530    0.3680 C   0  0  0  0  0  0  0  0  0  0  0  0
    4.3420    0.1210    0.6810 C   0  0  1  0  0  0  0  0  0  0  0  0
    5.4190   -0.5150   -0.1150 C   0  0  0  0  0  0  0  0  0  0  0  0
    5.3060   -0.4870   -1.5430 O   0  0  0  0  0  0  0  0  0  0  0  0
    6.4790   -1.1110    0.3260 C   0  0  0  0  0  0  0  0  0  0  0  0
    6.8120   -1.2650    1.7440 C   0  0  0  0  0  0  0  0  0  0  0  0
    6.8960   -2.6590    2.0170 O   0  0  0  0  0  0  0  0  0  0  0  0
    4.3140    1.5700    0.2740 C   0  0  0  0  0  0  0  0  0  0  0  0
    3.3930    1.8840   -0.8380 C   0  0  0  0  0  0  0  0  0  0  0  0
    3.8420    2.3630   -1.9110 O   0  0  0  0  0  0  0  0  0  0  0  0
  1  2  1  0
  2  3  1  0
  3  4  1  0
  4  5  2  0
  4 10  1  0
  5  6  1  0
  5  7  1  0
  7  8  2  0
  7 18  1  0
  8  9  1  0
  8 12  1  0
  9 10  1  0
 10 11  2  0
 12 13  1  0
 13 14  1  0
 13 17  2  0
 14 15  1  0
 15 16  2  0
 15 29  1  0
 16 17  1  0
 16 20  1  0
 17 18  1  0
 18 19  2  0
 20 21  1  0
 21 22  1  0
 22 23  1  6
 22 28  1  0
 23 24  1  0
 23 25  2  3
 25 26  1  0
 26 27  1  0
 28 29  1  0
 29 30  2  0
M  END
