
     RDKit          3D

 30 33  0  0  0  0  0  0  0  0999 V2000
   -6.4710   -2.7650    2.3650 C   0  0  0  0  0  0  0  0  0  0  0  0
   -5.4400   -2.1240    1.6680 O   0  0  0  0  0  0  0  0  0  0  0  0
   -5.3730   -0.7550    1.3600 C   0  0  0  0  0  0  0  0  0  0  0  0
   -6.2980   -0.0360    1.7770 O   0  0  0  0  0  0  0  0  0  0  0  0
   -4.2730   -0.1560    0.6080 C   0  0  0  0  0  0  0  0  0  0  0  0
   -3.1860   -0.7160    0.1990 O   0  0  0  0  0  0  0  0  0  0  0  0
   -2.4020    0.1200   -0.4960 C   0  0  0  0  0  0  0  0  0  0  0  0
   -1.1860   -0.1710   -1.0990 C   0  0  0  0  0  0  0  0  0  0  0  0
   -0.0450   -0.4610   -1.6540 O   0  0  0  0  0  0  0  0  0  0  0  0
    1.1520   -0.4620   -0.8920 C   0  0  0  0  0  0  0  0  0  0  0  0
    1.1050   -0.0550    0.4340 C   0  0  0  0  0  0  0  0  0  0  0  0
    2.2700   -0.0480    1.1810 C   0  0  0  0  0  0  0  0  0  0  0  0
    3.4560   -0.4590    0.6070 C   0  0  0  0  0  0  0  0  0  0  0  0
    3.4550   -0.8630   -0.7270 C   0  0  0  0  0  0  0  0  0  0  0  0
    2.3100   -0.8710   -1.5070 C   0  0  0  0  0  0  0  0  0  0  0  0
    2.2450   -1.1870   -2.8650 C   0  0  0  0  0  0  0  0  0  0  0  0
    1.6470   -1.1520   -3.9500 C   0  0  0  0  0  0  0  0  0  0  0  0
    2.3120   -1.8170   -5.1980 C   0  0  0  0  0  0  0  0  0  0  0  0
    1.4850   -2.8070   -5.6730 O   0  0  0  0  0  0  0  0  0  0  0  0
    4.7330   -0.4440    1.2890 C   0  0  0  0  0  0  0  0  0  0  0  0
    4.7030   -0.0190    2.7160 C   0  0  1  0  0  0  0  0  0  0  0  0
    5.3320    1.3650    2.8620 C   0  0  0  0  0  0  0  0  0  0  0  0
    3.4000   -0.0170    3.3910 C   0  0  0  0  0  0  0  0  0  0  0  0
    2.3040    0.3910    2.5010 N   0  0  0  0  0  0  0  0  0  0  0  0
   -3.0650    1.3750   -0.5300 C   0  0  0  0  0  0  0  0  0  0  0  0
   -3.0670    2.6960   -0.9310 C   0  0  0  0  0  0  0  0  0  0  0  0
   -4.2510    3.2050   -0.4540 C   0  0  0  0  0  0  0  0  0  0  0  0
   -4.6650    4.6240   -0.6680 C   0  0  0  0  0  0  0  0  0  0  0  0
   -4.9120    2.2810    0.1900 O   0  0  0  0  0  0  0  0  0  0  0  0
   -4.2100    1.1360    0.1680 C   0  0  0  0  0  0  0  0  0  0  0  0
  1  2  1  0
  2  3  1  0
  3  4  2  0
  3  5  1  0
  5  6  1  0
  5 30  2  0
  6  7  1  0
  7  8  1  0
  7 25  2  0
  8  9  1  0
  9 10  1  0
 10 11  2  0
 10 15  1  0
 11 12  1  0
 12 13  2  0
 12 24  1  0
 13 14  1  0
 13 20  1  0
 14 15  2  0
 15 16  1  0
 16 17  2  3
 17 18  1  0
 18 19  1  0
 20 21  1  0
 21 22  1  6
 21 23  1  0
 23 24  1  0
 25 26  1  0
 25 30  1  0
 26 27  2  0
 27 28  1  0
 27 29  1  0
 29 30  1  0
M  END
