
     RDKit          3D

 30 31  0  0  0  0  0  0  0  0999 V2000
   -1.1700   -6.3180   -0.1750 C   0  0  0  0  0  0  0  0  0  0  0  0
   -1.5640   -5.0450    0.2370 O   0  0  0  0  0  0  0  0  0  0  0  0
   -0.8760   -3.8770   -0.0850 C   0  0  0  0  0  0  0  0  0  0  0  0
    0.1550   -3.9460   -0.7820 O   0  0  0  0  0  0  0  0  0  0  0  0
   -1.4430   -2.6050    0.4430 C   0  0  2  0  0  0  0  0  0  0  0  0
   -2.8740   -2.5010   -0.0770 C   0  0  0  0  0  0  0  0  0  0  0  0
   -3.4060   -1.2080    0.4780 C   0  0  0  0  0  0  0  0  0  0  0  0
   -4.0400   -1.1960    1.6930 C   0  0  0  0  0  0  0  0  0  0  0  0
   -4.5090    0.0140    2.1550 C   0  0  0  0  0  0  0  0  0  0  0  0
   -4.3510    1.1990    1.4200 C   0  0  0  0  0  0  0  0  0  0  0  0
   -3.7160    1.1910    0.2020 C   0  0  0  0  0  0  0  0  0  0  0  0
   -3.5190    2.3810   -0.6080 C   0  0  0  0  0  0  0  0  0  0  0  0
   -2.8470    2.2630   -1.8580 N   0  0  0  0  0  0  0  0  0  0  0  0
   -3.9390    3.5200   -0.2120 N   0  0  0  0  0  0  0  0  0  0  0  0
   -3.2480   -0.0510   -0.2470 C   0  0  0  0  0  0  0  0  0  0  0  0
   -0.6960   -1.4510    0.0800 N   0  0  0  0  0  0  0  0  0  0  0  0
   -0.1160   -0.6270    1.0720 C   0  0  0  0  0  0  0  0  0  0  0  0
   -0.2780   -0.9410    2.2790 O   0  0  0  0  0  0  0  0  0  0  0  0
    0.6550    0.5670    0.6700 C   0  0  0  0  0  0  0  0  0  0  0  0
    1.1710    1.2860    1.8080 N   0  0  0  0  0  0  0  0  0  0  0  0
    2.0480    2.6480    1.2610 S   0  0  2  0  0  0  0  0  0  0  0  0
    2.4760    3.4670    2.4550 O   0  0  0  0  0  0  0  0  0  0  0  0
    1.0820    3.5160    0.4720 O   0  0  0  0  0  0  0  0  0  0  0  0
    3.4250    2.2030    0.2710 C   0  0  0  0  0  0  0  0  0  0  0  0
    3.3210    2.0670   -1.1000 C   0  0  0  0  0  0  0  0  0  0  0  0
    4.4150    1.7160   -1.8640 C   0  0  0  0  0  0  0  0  0  0  0  0
    5.6570    1.4840   -1.3110 C   0  0  0  0  0  0  0  0  0  0  0  0
    6.8300    1.1040   -2.1570 C   0  0  0  0  0  0  0  0  0  0  0  0
    5.7630    1.6190    0.0570 C   0  0  0  0  0  0  0  0  0  0  0  0
    4.6710    1.9700    0.8230 C   0  0  0  0  0  0  0  0  0  0  0  0
  1  2  1  0
  2  3  1  0
  3  4  2  0
  3  5  1  0
  5  6  1  6
  5 16  1  0
  6  7  1  0
  7  8  2  0
  7 15  1  0
  8  9  1  0
  9 10  2  0
 10 11  1  0
 11 12  1  0
 11 15  2  0
 12 13  1  0
 12 14  2  0
 16 17  1  0
 17 18  2  0
 17 19  1  0
 19 20  1  0
 21 20  1  1
 21 22  2  0
 21 23  2  0
 21 24  1  0
 24 25  2  0
 24 30  1  0
 25 26  1  0
 26 27  2  0
 27 28  1  0
 27 29  1  0
 29 30  2  0
M  CHG  1  14   1
M  END
