
     RDKit          3D

 30 33  0  0  0  0  0  0  0  0999 V2000
    9.1870   -2.2000    0.2860 C   0  0  0  0  0  0  0  0  0  0  0  0
    8.1240   -1.1700    0.1190 C   0  0  0  0  0  0  0  0  0  0  0  0
    6.7610   -1.3330    0.0090 C   0  0  0  0  0  0  0  0  0  0  0  0
    6.1870   -0.0660   -0.1320 C   0  0  0  0  0  0  0  0  0  0  0  0
    4.8330    0.2100   -0.2720 O   0  0  0  0  0  0  0  0  0  0  0  0
    4.0050    0.4400    0.7900 C   0  0  0  0  0  0  0  0  0  0  0  0
    4.4720    0.4030    1.9510 O   0  0  0  0  0  0  0  0  0  0  0  0
    2.5370    0.7400    0.6450 C   0  0  0  0  0  0  0  0  0  0  0  0
    2.1240    0.7510   -0.7950 C   0  0  0  0  0  0  0  0  0  0  0  0
    0.7200    1.0460   -0.8910 N   0  0  0  0  0  0  0  0  0  0  0  0
   -0.2970    0.2470   -0.3230 C   0  0  0  0  0  0  0  0  0  0  0  0
    0.0090   -0.7930    0.3090 O   0  0  0  0  0  0  0  0  0  0  0  0
   -1.7490    0.6360   -0.4720 C   0  0  0  0  0  0  0  0  0  0  0  0
   -2.5340   -0.3300    0.1860 O   0  0  0  0  0  0  0  0  0  0  0  0
   -3.9220   -0.1460    0.1610 C   0  0  0  0  0  0  0  0  0  0  0  0
   -4.7570   -1.0540   -0.3200 C   0  0  0  0  0  0  0  0  0  0  0  0
   -4.5380   -2.3630   -0.9020 C   0  0  0  0  0  0  0  0  0  0  0  0
   -5.5260   -3.1240   -1.3280 C   0  0  0  0  0  0  0  0  0  0  0  0
   -6.9200   -2.6570   -1.2230 C   0  0  0  0  0  0  0  0  0  0  0  0
   -7.0810   -1.3240   -0.6250 C   0  0  0  0  0  0  0  0  0  0  0  0
   -6.1080   -0.5680   -0.2030 C   0  0  0  0  0  0  0  0  0  0  0  0
   -6.0430    0.7700    0.4150 C   0  0  0  0  0  0  0  0  0  0  0  0
   -6.7740    1.7930    0.8270 C   0  0  0  0  0  0  0  0  0  0  0  0
   -5.8660    2.8130    1.3650 C   0  0  0  0  0  0  0  0  0  0  0  0
   -4.5310    2.2290    1.2020 C   0  0  0  0  0  0  0  0  0  0  0  0
   -4.6360    1.0220    0.6410 C   0  0  0  0  0  0  0  0  0  0  0  0
    7.2660    0.7920   -0.0970 C   0  0  0  0  0  0  0  0  0  0  0  0
    7.1480    2.2400   -0.2100 C   0  0  0  0  0  0  0  0  0  0  0  0
    8.1730    2.9860   -0.1720 O   0  0  0  0  0  0  0  0  0  0  0  0
    8.3690    0.1370    0.0480 O   0  0  0  0  0  0  0  0  0  0  0  0
  1  2  1  0
  2  3  2  0
  2 30  1  0
  3  4  1  0
  4  5  1  0
  4 27  2  0
  5  6  1  0
  6  7  2  0
  6  8  1  0
  8  9  1  0
  9 10  1  0
 10 11  1  0
 11 12  2  0
 11 13  1  0
 13 14  1  0
 14 15  1  0
 15 16  2  0
 15 26  1  0
 16 17  1  0
 16 21  1  0
 17 18  2  0
 18 19  1  0
 19 20  1  0
 20 21  2  0
 21 22  1  0
 22 23  2  0
 22 26  1  0
 23 24  1  0
 24 25  1  0
 25 26  2  0
 27 28  1  0
 27 30  1  0
 28 29  2  0
M  END
