
     RDKit          3D

 31 34  0  0  0  0  0  0  0  0999 V2000
   -1.3890   -4.5550    0.9190 O   0  0  0  0  0  0  0  0  0  0  0  0
   -1.8460   -3.4420    0.7320 C   0  0  0  0  0  0  0  0  0  0  0  0
   -3.2970   -3.2690    0.4430 C   0  0  0  0  0  0  0  0  0  0  0  0
   -3.4480   -2.5340   -0.8650 C   0  0  0  0  0  0  0  0  0  0  0  0
   -2.3930   -1.4980   -1.0270 C   0  0  0  0  0  0  0  0  0  0  0  0
   -2.1410   -1.0490   -2.1470 O   0  0  0  0  0  0  0  0  0  0  0  0
   -1.6720   -1.0360    0.1860 C   0  0  2  0  0  0  0  0  0  0  0  0
   -0.7660   -0.0010   -0.1690 O   0  0  0  0  0  0  0  0  0  0  0  0
   -0.8370    1.2540    0.3660 C   0  0  0  0  0  0  0  0  0  0  0  0
   -1.7440    1.4440    1.1920 O   0  0  0  0  0  0  0  0  0  0  0  0
    0.0700    2.3910    0.0190 C   0  0  0  0  0  0  0  0  0  0  0  0
    1.0950    2.1380   -0.8330 C   0  0  0  0  0  0  0  0  0  0  0  0
    1.8860    1.0680   -1.2550 N   0  0  0  0  0  0  0  0  0  0  0  0
    2.2060   -0.1510   -0.6510 C   0  0  0  0  0  0  0  0  0  0  0  0
    1.7960   -0.4390    0.4810 O   0  0  0  0  0  0  0  0  0  0  0  0
    3.0680   -1.1760   -1.3450 C   0  0  0  0  0  0  0  0  0  0  0  0
    3.2620   -2.3770   -0.4370 C   0  0  0  0  0  0  0  0  0  0  0  0
    2.5280   -3.4850   -0.5040 C   0  0  0  0  0  0  0  0  0  0  0  0
    2.7210   -4.5350    0.3200 C   0  0  0  0  0  0  0  0  0  0  0  0
    4.1340   -3.9430    1.3760 S   0  0  0  0  0  0  0  0  0  0  0  0
    4.2480   -2.3150    0.5110 C   0  0  0  0  0  0  0  0  0  0  0  0
    1.6990    3.8430   -1.2530 S   0  0  0  0  0  0  0  0  0  0  0  0
    0.4810    4.6690   -0.1980 C   0  0  0  0  0  0  0  0  0  0  0  0
    0.3210    6.0310    0.0160 C   0  0  0  0  0  0  0  0  0  0  0  0
   -0.6810    6.4650    0.8840 C   0  0  0  0  0  0  0  0  0  0  0  0
   -1.0080    8.2870    1.2670 Br  0  0  0  0  0  0  0  0  0  0  0  0
   -1.4340    5.4810    1.4580 C   0  0  0  0  0  0  0  0  0  0  0  0
   -2.7110    5.9980    2.5630 Cl  0  0  0  0  0  0  0  0  0  0  0  0
   -1.2470    4.1410    1.2210 C   0  0  0  0  0  0  0  0  0  0  0  0
   -0.2280    3.6820    0.3370 C   0  0  0  0  0  0  0  0  0  0  0  0
   -0.9760   -2.2410    0.7870 C   0  0  0  0  0  0  0  0  0  0  0  0
  1  2  2  0
  2  3  1  0
  2 31  1  0
  3  4  1  0
  4  5  1  0
  5  6  2  0
  5  7  1  0
  7  8  1  6
  7 31  1  0
  8  9  1  0
  9 10  2  0
  9 11  1  0
 11 12  2  0
 11 30  1  0
 12 13  1  0
 12 22  1  0
 13 14  1  0
 14 15  2  0
 14 16  1  0
 16 17  1  0
 17 18  1  0
 17 21  2  0
 18 19  2  0
 19 20  1  0
 20 21  1  0
 22 23  1  0
 23 24  2  0
 23 30  1  0
 24 25  1  0
 25 26  1  0
 25 27  2  0
 27 28  1  0
 27 29  1  0
 29 30  2  0
M  END
