
     RDKit          3D

 31 34  0  0  0  0  0  0  0  0999 V2000
   -0.1040   -1.5480   -0.1810 O   0  0  0  0  0  0  0  0  0  0  0  0
   -0.0910   -1.4190   -1.4130 C   0  0  0  0  0  0  0  0  0  0  0  0
   -1.1590   -2.0970   -2.1870 C   0  0  0  0  0  0  0  0  0  0  0  0
   -2.3430   -2.9510   -1.1160 S   0  0  0  0  0  0  0  0  0  0  0  0
   -3.3370   -1.8200   -0.1570 C   0  0  0  0  0  0  0  0  0  0  0  0
   -3.0170   -1.3910    1.1090 C   0  0  0  0  0  0  0  0  0  0  0  0
   -3.8420   -0.4960    1.7910 C   0  0  0  0  0  0  0  0  0  0  0  0
   -5.0070   -0.0160    1.2080 C   0  0  0  0  0  0  0  0  0  0  0  0
   -5.8230    0.8610    1.8650 C   0  0  0  0  0  0  0  0  0  0  0  0
   -6.9940    1.3330    1.2620 C   0  0  0  0  0  0  0  0  0  0  0  0
   -7.3370    0.9170   -0.0080 C   0  0  0  0  0  0  0  0  0  0  0  0
   -6.4970    0.0370   -0.6420 C   0  0  0  0  0  0  0  0  0  0  0  0
   -5.3270   -0.4470   -0.0600 C   0  0  0  0  0  0  0  0  0  0  0  0
   -4.5070   -1.3210   -0.7080 C   0  0  0  0  0  0  0  0  0  0  0  0
    0.8750   -0.6680   -2.1130 N   0  0  0  0  0  0  0  0  0  0  0  0
    1.9420    0.0230   -1.5270 C   0  0  0  0  0  0  0  0  0  0  0  0
    2.2250    0.0430   -0.1970 C   0  0  0  0  0  0  0  0  0  0  0  0
    3.3190    0.7590    0.2800 C   0  0  0  0  0  0  0  0  0  0  0  0
    4.1570    1.4720   -0.5400 C   0  0  0  0  0  0  0  0  0  0  0  0
    3.8530    1.4400   -1.8840 C   0  0  0  0  0  0  0  0  0  0  0  0
    2.7850    0.7450   -2.3830 C   0  0  0  0  0  0  0  0  0  0  0  0
    2.4930    0.7780   -4.1240 Cl  0  0  0  0  0  0  0  0  0  0  0  0
    5.2490    2.1880   -0.0640 O   0  0  0  0  0  0  0  0  0  0  0  0
    5.4390    2.2820    1.3320 C   0  0  0  0  0  0  0  0  0  0  0  0
    4.9010    1.0590    2.0520 C   0  0  2  0  0  0  0  0  0  0  0  0
    5.7400   -0.1290    1.7680 C   0  0  0  0  0  0  0  0  0  0  0  0
    6.9730   -0.1080    2.0220 O   0  0  0  0  0  0  0  0  0  0  0  0
    5.2060   -1.2770    1.2250 O   0  0  0  0  0  0  0  0  0  0  0  0
    6.2490   -2.6290    0.9190 S   0  0  0  0  0  0  0  0  0  0  0  0
    8.1940   -1.8030    0.1040 Br  0  0  0  0  0  0  0  0  0  0  0  0
    3.5710    0.7480    1.6620 O   0  0  0  0  0  0  0  0  0  0  0  0
  1  2  2  0
  2  3  1  0
  2 15  1  0
  3  4  1  0
  4  5  1  0
  5  6  2  0
  5 14  1  0
  6  7  1  0
  7  8  2  0
  8  9  1  0
  8 13  1  0
  9 10  2  0
 10 11  1  0
 11 12  2  0
 12 13  1  0
 13 14  2  0
 15 16  1  0
 16 17  2  0
 16 21  1  0
 17 18  1  0
 18 19  2  0
 18 31  1  0
 19 20  1  0
 19 23  1  0
 20 21  2  0
 21 22  1  0
 23 24  1  0
 24 25  1  0
 25 26  1  6
 25 31  1  0
 26 27  2  0
 26 28  1  0
 28 29  1  0
 29 30  1  0
M  END
