
     RDKit          3D

 31 33  0  0  0  0  0  0  0  0999 V2000
    8.1910   -1.3240    1.5460 C   0  0  0  0  0  0  0  0  0  0  0  0
    7.9380   -1.2230    0.0570 C   0  0  0  0  0  0  0  0  0  0  0  0
    6.8290   -0.3650   -0.1920 O   0  0  0  0  0  0  0  0  0  0  0  0
    6.3740   -0.0930   -1.4670 C   0  0  0  0  0  0  0  0  0  0  0  0
    6.9440   -0.6080   -2.4600 O   0  0  0  0  0  0  0  0  0  0  0  0
    5.2360    0.7900   -1.6850 C   0  0  0  0  0  0  0  0  0  0  0  0
    4.5770    1.3780   -0.6710 N   0  0  0  0  0  0  0  0  0  0  0  0
    3.5270    2.1970   -0.8170 C   0  0  0  0  0  0  0  0  0  0  0  0
    2.6970    2.9480    0.5750 S   0  0  0  0  0  0  0  0  0  0  0  0
    1.3470    1.9130    1.1770 C   0  0  0  0  0  0  0  0  0  0  0  0
    0.2850    1.8610    0.1030 C   0  0  0  0  0  0  0  0  0  0  0  0
   -0.8130    1.0170    0.6000 C   0  0  0  0  0  0  0  0  0  0  0  0
   -1.0150   -0.3410    0.4810 C   0  0  0  0  0  0  0  0  0  0  0  0
   -2.1240   -0.8640    1.0390 C   0  0  0  0  0  0  0  0  0  0  0  0
   -2.9810   -0.0640    1.6810 C   0  0  0  0  0  0  0  0  0  0  0  0
   -4.2600   -0.3410    2.3830 C   0  0  2  0  0  0  0  0  0  0  0  0
   -4.0950   -1.4570    3.1760 O   0  0  0  0  0  0  0  0  0  0  0  0
   -5.3630   -0.5030    1.3860 C   0  0  0  0  0  0  0  0  0  0  0  0
   -6.6150   -1.0130    1.6140 C   0  0  0  0  0  0  0  0  0  0  0  0
   -7.2890   -0.9670    0.4000 C   0  0  0  0  0  0  0  0  0  0  0  0
   -8.5340   -1.3740    0.2130 C   0  0  0  0  0  0  0  0  0  0  0  0
   -9.4600   -2.0350    1.5630 Cl  0  0  0  0  0  0  0  0  0  0  0  0
   -6.4120   -0.4270   -0.5180 C   0  0  0  0  0  0  0  0  0  0  0  0
   -6.5920   -0.1880   -1.7900 C   0  0  0  0  0  0  0  0  0  0  0  0
   -7.7850   -0.4740   -2.4050 O   0  0  0  0  0  0  0  0  0  0  0  0
   -5.2890   -0.1740    0.1290 O   0  0  0  0  0  0  0  0  0  0  0  0
   -2.2370    1.5690    1.5300 S   0  0  0  0  0  0  0  0  0  0  0  0
    3.0830    2.4610   -2.1020 C   0  0  0  0  0  0  0  0  0  0  0  0
    3.7180    1.8870   -3.1840 C   0  0  0  0  0  0  0  0  0  0  0  0
    4.8030    1.0460   -2.9680 C   0  0  0  0  0  0  0  0  0  0  0  0
    5.7020    0.2370   -4.4490 Br  0  0  0  0  0  0  0  0  0  0  0  0
  1  2  1  0
  2  3  1  0
  3  4  1  0
  4  5  2  0
  4  6  1  0
  6  7  2  0
  6 30  1  0
  7  8  1  0
  8  9  1  0
  8 28  2  0
  9 10  1  0
 10 11  1  0
 11 12  1  0
 12 13  2  0
 12 27  1  0
 13 14  1  0
 14 15  2  0
 15 16  1  0
 15 27  1  0
 16 17  1  6
 16 18  1  0
 18 19  2  0
 18 26  1  0
 19 20  1  0
 20 21  2  3
 20 23  1  0
 21 22  1  0
 23 24  2  3
 23 26  1  0
 24 25  1  0
 28 29  1  0
 29 30  2  0
 30 31  1  0
M  END
