
     RDKit          3D

  9  9  0  0  0  0  0  0  0  0999 V2000
   -1.7720   -1.3830   -1.3420 C   0  0  0  0  0  0  0  0  0  0  0  0
   -1.5880   -0.4950   -0.4180 C   0  0  0  0  0  0  0  0  0  0  0  0
   -2.7240    0.0780    0.2540 N   0  0  0  0  0  0  0  0  0  0  0  0
   -0.2330   -0.0470   -0.0280 C   0  0  0  0  0  0  0  0  0  0  0  0
   -0.1530    0.8840    0.9470 C   0  0  0  0  0  0  0  0  0  0  0  0
    1.1870    1.3080    1.3120 C   0  0  0  0  0  0  0  0  0  0  0  0
    2.2640    0.8350    0.7480 C   0  0  0  0  0  0  0  0  0  0  0  0
    2.2250   -0.1680   -0.3050 C   0  0  0  0  0  0  0  0  0  0  0  0
    0.8990   -0.5730   -0.6510 N   0  0  0  0  0  0  0  0  0  0  0  0
  1  2  2  0
  2  3  1  0
  2  4  1  0
  4  5  2  0
  4  9  1  0
  5  6  1  0
  6  7  2  0
  7  8  1  0
  8  9  1  0
M  END
