
     RDKit          3D

  9  9  0  0  0  0  0  0  0  0999 V2000
    3.2460   -0.0860   -0.2610 C   0  0  0  0  0  0  0  0  0  0  0  0
    1.8810   -0.4470   -0.5730 N   0  0  0  0  0  0  0  0  0  0  0  0
    0.7890    0.3780   -0.2750 C   0  0  0  0  0  0  0  0  0  0  0  0
   -0.4420   -0.1020   -0.0290 C   0  0  0  0  0  0  0  0  0  0  0  0
   -0.8590   -1.4970   -0.0260 C   0  0  0  0  0  0  0  0  0  0  0  0
   -2.1500   -1.5430    0.2610 C   0  0  0  0  0  0  0  0  0  0  0  0
   -2.6560   -0.1900    0.4620 C   0  0  0  0  0  0  0  0  0  0  0  0
   -1.6370    0.6720    0.2890 C   0  0  0  0  0  0  0  0  0  0  0  0
   -1.6730    2.0800    0.3880 N   0  0  0  0  0  0  0  0  0  0  0  0
  1  2  1  0
  2  3  1  0
  3  4  2  3
  4  5  1  0
  4  8  1  0
  5  6  2  0
  6  7  1  0
  7  8  2  0
  8  9  1  0
M  END
