
     RDKit          3D

  9  9  0  0  0  0  0  0  0  0999 V2000
    2.3040   -1.2320    0.0640 C   0  0  0  0  0  0  0  0  0  0  0  0
    1.8120   -0.1310   -0.7140 N   0  0  0  0  0  0  0  0  0  0  0  0
    0.6630    0.6230   -0.2770 C   0  0  0  0  0  0  0  0  0  0  0  0
    0.6320    1.9000    0.0530 C   0  0  0  0  0  0  0  0  0  0  0  0
   -0.7020    2.3200    0.4460 C   0  0  0  0  0  0  0  0  0  0  0  0
   -1.5030    1.2810    0.3560 C   0  0  0  0  0  0  0  0  0  0  0  0
   -0.7030    0.1410   -0.1040 C   0  0  0  0  0  0  0  0  0  0  0  0
   -1.1380   -1.0700   -0.3160 C   0  0  0  0  0  0  0  0  0  0  0  0
   -2.4880   -1.4320   -0.1170 N   0  0  0  0  0  0  0  0  0  0  0  0
  1  2  1  0
  2  3  1  0
  3  4  2  0
  3  7  1  0
  4  5  1  0
  5  6  2  0
  6  7  1  0
  7  8  2  3
  8  9  1  0
M  END
