
     RDKit          3D

  9  9  0  0  0  0  0  0  0  0999 V2000
   -3.1920   -0.2710    0.6220 N   0  0  0  0  0  0  0  0  0  0  0  0
   -2.1710    0.6240    0.1110 C   0  0  0  0  0  0  0  0  0  0  0  0
   -1.1360   -0.0510   -0.6530 C   0  0  0  0  0  0  0  0  0  0  0  0
    0.1340   -0.0400   -0.3330 C   0  0  0  0  0  0  0  0  0  0  0  0
    1.0890   -0.7690   -1.1970 C   0  0  0  0  0  0  0  0  0  0  0  0
    2.3610   -0.7680   -0.8890 C   0  0  0  0  0  0  0  0  0  0  0  0
    2.8800   -0.0610    0.2960 C   0  0  0  0  0  0  0  0  0  0  0  0
    2.0740    0.6040    1.1000 C   0  0  0  0  0  0  0  0  0  0  0  0
    0.6730    0.6210    0.7880 N   0  0  0  0  0  0  0  0  0  0  0  0
  1  2  1  0
  2  3  1  0
  3  4  2  3
  4  5  1  0
  4  9  1  0
  5  6  2  0
  6  7  1  0
  7  8  2  0
  8  9  1  0
M  END
