
     RDKit          3D

  9  9  0  0  0  0  0  0  0  0999 V2000
    2.8730   -0.4580   -0.3280 C   0  0  0  0  0  0  0  0  0  0  0  0
    2.0420    0.5590    0.2820 N   0  0  0  0  0  0  0  0  0  0  0  0
    0.6530    0.3160    0.0520 C   0  0  0  0  0  0  0  0  0  0  0  0
    0.1120   -0.9580    0.1200 C   0  0  0  0  0  0  0  0  0  0  0  0
   -1.2300   -1.1870   -0.1030 C   0  0  0  0  0  0  0  0  0  0  0  0
   -2.0850   -0.1220   -0.4070 C   0  0  0  0  0  0  0  0  0  0  0  0
   -3.4540   -0.3020   -0.6420 N   0  0  0  0  0  0  0  0  0  0  0  0
   -1.5660    1.1480   -0.4780 C   0  0  0  0  0  0  0  0  0  0  0  0
   -0.2220    1.3390   -0.2490 C   0  0  0  0  0  0  0  0  0  0  0  0
  1  2  1  0
  2  3  1  0
  3  4  2  0
  3  9  1  0
  4  5  1  0
  5  6  2  0
  6  7  1  0
  6  8  1  0
  8  9  2  0
M  CHG  1   2   1
M  END
