
     RDKit          3D

 30 33  0  0  0  0  0  0  0  0999 V2000
    6.7110    0.1370    4.1430 C   0  0  0  0  0  0  0  0  0  0  0  0
    5.7290   -0.4430    3.1340 C   0  0  0  0  0  0  0  0  0  0  0  0
    5.5850    0.4910    1.9540 C   0  0  0  0  0  0  0  0  0  0  0  0
    4.6600    0.0400    0.9230 C   0  0  0  0  0  0  0  0  0  0  0  0
    3.2990    0.1610    1.0820 C   0  0  0  0  0  0  0  0  0  0  0  0
    2.7270    0.7800    2.2880 C   0  0  0  0  0  0  0  0  0  0  0  0
    2.4540   -0.2980    0.0620 C   0  0  0  0  0  0  0  0  0  0  0  0
    2.9320   -0.8720   -1.1040 C   0  0  0  0  0  0  0  0  0  0  0  0
    4.2650   -0.9580   -1.1900 O   0  0  0  0  0  0  0  0  0  0  0  0
    5.0790   -0.5450   -0.2700 C   0  0  0  0  0  0  0  0  0  0  0  0
    6.3390   -0.6710   -0.4470 O   0  0  0  0  0  0  0  0  0  0  0  0
    2.1260   -1.3770   -2.2110 C   0  0  0  0  0  0  0  0  0  0  0  0
    0.6770   -1.2000   -2.0120 C   0  0  0  0  0  0  0  0  0  0  0  0
   -0.3760   -1.5230   -2.8330 N   0  0  0  0  0  0  0  0  0  0  0  0
   -1.5110   -1.1910   -2.2590 C   0  0  0  0  0  0  0  0  0  0  0  0
   -1.2130   -0.6330   -1.0250 C   0  0  0  0  0  0  0  0  0  0  0  0
    0.1490   -0.6400   -0.8770 C   0  0  0  0  0  0  0  0  0  0  0  0
    0.9980   -0.1710    0.1950 C   0  0  0  0  0  0  0  0  0  0  0  0
    0.5440    0.3450    1.2490 O   0  0  0  0  0  0  0  0  0  0  0  0
   -2.1880   -0.1090   -0.0230 C   0  0  0  0  0  0  0  0  0  0  0  0
   -3.1580    0.7300   -0.8240 C   0  0  0  0  0  0  0  0  0  0  0  0
   -4.3930   -0.0080   -1.2860 C   0  0  1  0  0  0  0  0  0  0  0  0
   -5.0810    0.9190   -2.2120 C   0  0  0  0  0  0  0  0  0  0  0  0
   -4.3200    1.2360   -3.3650 O   0  0  0  0  0  0  0  0  0  0  0  0
   -6.2550    1.4610   -2.1040 C   0  0  0  0  0  0  0  0  0  0  0  0
   -7.1830    1.2550   -0.9910 C   0  0  0  0  0  0  0  0  0  0  0  0
   -7.4140    2.5210   -0.4140 O   0  0  0  0  0  0  0  0  0  0  0  0
   -4.1310   -1.2610   -2.0610 C   0  0  0  0  0  0  0  0  0  0  0  0
   -2.8650   -1.3490   -2.7710 C   0  0  0  0  0  0  0  0  0  0  0  0
   -2.9320   -1.5960   -4.0000 O   0  0  0  0  0  0  0  0  0  0  0  0
  1  2  1  0
  2  3  1  0
  3  4  1  0
  4  5  2  0
  4 10  1  0
  5  6  1  0
  5  7  1  0
  7  8  2  0
  7 18  1  0
  8  9  1  0
  8 12  1  0
  9 10  1  0
 10 11  2  0
 12 13  1  0
 13 14  1  0
 13 17  2  0
 14 15  1  0
 15 16  2  0
 15 29  1  0
 16 17  1  0
 16 20  1  0
 17 18  1  0
 18 19  2  0
 20 21  1  0
 21 22  1  0
 22 23  1  6
 22 28  1  0
 23 24  1  0
 23 25  2  3
 25 26  1  0
 26 27  1  0
 28 29  1  0
 29 30  2  0
M  END
