
     RDKit          3D

 30 31  0  0  0  0  0  0  0  0999 V2000
   -2.9640   -1.7710    2.3610 C   0  0  0  0  0  0  0  0  0  0  0  0
   -2.6330   -0.7160    1.4880 O   0  0  0  0  0  0  0  0  0  0  0  0
   -1.4920   -0.6250    0.7500 C   0  0  0  0  0  0  0  0  0  0  0  0
   -0.6480   -1.5750    0.8560 O   0  0  0  0  0  0  0  0  0  0  0  0
   -1.1890    0.5070   -0.1520 C   0  0  2  0  0  0  0  0  0  0  0  0
   -2.2380    0.7200   -1.2280 C   0  0  0  0  0  0  0  0  0  0  0  0
   -3.5650    0.9950   -0.6250 C   0  0  0  0  0  0  0  0  0  0  0  0
   -3.9410    2.2910   -0.2690 C   0  0  0  0  0  0  0  0  0  0  0  0
   -5.1730    2.5580    0.2750 C   0  0  0  0  0  0  0  0  0  0  0  0
   -6.1020    1.5520    0.4950 C   0  0  0  0  0  0  0  0  0  0  0  0
   -5.7550    0.2700    0.1530 C   0  0  0  0  0  0  0  0  0  0  0  0
   -6.6630   -0.8400    0.3480 C   0  0  0  0  0  0  0  0  0  0  0  0
   -6.2500   -2.1450   -0.0240 N   0  0  0  0  0  0  0  0  0  0  0  0
   -7.8180   -0.6910    0.8400 N   0  0  0  0  0  0  0  0  0  0  0  0
   -4.4920    0.0090   -0.4030 C   0  0  0  0  0  0  0  0  0  0  0  0
    0.1280    0.3430   -0.7650 N   0  0  0  0  0  0  0  0  0  0  0  0
    1.1590    1.2970   -0.5590 C   0  0  0  0  0  0  0  0  0  0  0  0
    0.9190    2.2930    0.1660 O   0  0  0  0  0  0  0  0  0  0  0  0
    2.5160    1.1440   -1.1810 C   0  0  0  0  0  0  0  0  0  0  0  0
    2.5890   -0.0610   -1.9740 N   0  0  0  0  0  0  0  0  0  0  0  0
    4.1930   -0.1280   -2.6360 S   0  0  1  0  0  0  0  0  0  0  0  0
    4.3740   -1.3430   -3.4870 O   0  0  0  0  0  0  0  0  0  0  0  0
    4.4730    1.1460   -3.4000 O   0  0  0  0  0  0  0  0  0  0  0  0
    5.3250   -0.2130   -1.2810 C   0  0  0  0  0  0  0  0  0  0  0  0
    5.7150   -1.4380   -0.7710 C   0  0  0  0  0  0  0  0  0  0  0  0
    6.5890   -1.5090    0.2750 C   0  0  0  0  0  0  0  0  0  0  0  0
    7.1140   -0.3570    0.8600 C   0  0  0  0  0  0  0  0  0  0  0  0
    8.0690   -0.4540    2.0040 C   0  0  0  0  0  0  0  0  0  0  0  0
    6.7250    0.8440    0.3520 C   0  0  0  0  0  0  0  0  0  0  0  0
    5.8440    0.9250   -0.7030 C   0  0  0  0  0  0  0  0  0  0  0  0
  1  2  1  0
  2  3  1  0
  3  4  2  0
  3  5  1  0
  5  6  1  6
  5 16  1  0
  6  7  1  0
  7  8  2  0
  7 15  1  0
  8  9  1  0
  9 10  2  0
 10 11  1  0
 11 12  1  0
 11 15  2  0
 12 13  1  0
 12 14  2  0
 16 17  1  0
 17 18  2  0
 17 19  1  0
 19 20  1  0
 21 20  1  1
 21 22  2  0
 21 23  2  0
 21 24  1  0
 24 25  2  0
 24 30  1  0
 25 26  1  0
 26 27  2  0
 27 28  1  0
 27 29  1  0
 29 30  2  0
M  CHG  1  14   1
M  END
