
     RDKit          3D

 30 33  0  0  0  0  0  0  0  0999 V2000
    5.8670   -0.7000   -1.1120 C   0  0  0  0  0  0  0  0  0  0  0  0
    4.6610   -0.3320   -1.0690 O   0  0  0  0  0  0  0  0  0  0  0  0
    3.3840    0.0580   -1.0240 C   0  0  0  0  0  0  0  0  0  0  0  0
    2.5660   -0.7730   -0.3840 C   0  0  0  0  0  0  0  0  0  0  0  0
    1.2470   -0.9600   -0.0030 C   0  0  0  0  0  0  0  0  0  0  0  0
    1.0150   -2.1190    0.6850 O   0  0  0  0  0  0  0  0  0  0  0  0
    0.0160   -0.2980   -0.1070 N   0  0  0  0  0  0  0  0  0  0  0  0
   -1.2350   -0.7520    0.3890 C   0  0  0  0  0  0  0  0  0  0  0  0
   -1.5760   -2.0500    0.5380 C   0  0  0  0  0  0  0  0  0  0  0  0
   -2.8170   -2.4460    1.0660 C   0  0  0  0  0  0  0  0  0  0  0  0
   -3.7190   -1.4810    1.4450 C   0  0  0  0  0  0  0  0  0  0  0  0
   -4.9830   -1.7950    1.9830 C   0  0  0  0  0  0  0  0  0  0  0  0
   -5.8690   -0.7840    2.3540 C   0  0  0  0  0  0  0  0  0  0  0  0
   -5.4790    0.5180    2.1830 C   0  0  0  0  0  0  0  0  0  0  0  0
   -4.2760    0.8840    1.6720 C   0  0  0  0  0  0  0  0  0  0  0  0
   -3.4000   -0.1320    1.3040 C   0  0  0  0  0  0  0  0  0  0  0  0
   -2.1620    0.1920    0.7780 C   0  0  0  0  0  0  0  0  0  0  0  0
   -7.0810   -1.0570    2.8650 C   0  0  0  0  0  0  0  0  0  0  0  0
   -7.4430   -2.3660    3.0190 O   0  0  0  0  0  0  0  0  0  0  0  0
   -6.6210   -3.4460    2.6860 C   0  0  0  0  0  0  0  0  0  0  0  0
   -5.3080   -3.0580    2.1270 C   0  0  0  0  0  0  0  0  0  0  0  0
    2.9630    1.3070   -1.6450 C   0  0  0  0  0  0  0  0  0  0  0  0
    1.6020    1.6280   -1.5590 O   0  0  0  0  0  0  0  0  0  0  0  0
    3.6870    2.1920   -2.2860 C   0  0  0  0  0  0  0  0  0  0  0  0
    5.0890    2.2530   -2.5950 C   0  0  0  0  0  0  0  0  0  0  0  0
    5.3860    3.3790   -3.2890 C   0  0  0  0  0  0  0  0  0  0  0  0
    6.7480    3.7340   -3.7560 C   0  0  0  0  0  0  0  0  0  0  0  0
    4.2260    4.0880   -3.4610 O   0  0  0  0  0  0  0  0  0  0  0  0
    3.1480    3.4460   -2.8870 C   0  0  0  0  0  0  0  0  0  0  0  0
    1.9640    3.8280   -2.8700 O   0  0  0  0  0  0  0  0  0  0  0  0
  1  2  1  0
  2  3  1  0
  3  4  2  3
  3 22  1  0
  4  5  1  0
  5  6  2  0
  5  7  1  0
  7  8  1  0
  8  9  2  0
  8 17  1  0
  9 10  1  0
 10 11  2  0
 11 12  1  0
 11 16  1  0
 12 13  1  0
 12 21  2  0
 13 14  1  0
 13 18  2  0
 14 15  2  0
 15 16  1  0
 16 17  2  0
 18 19  1  0
 19 20  1  0
 20 21  1  0
 22 23  1  0
 22 24  2  3
 24 25  1  0
 24 29  1  0
 25 26  2  0
 26 27  1  0
 26 28  1  0
 28 29  1  0
 29 30  2  0
M  END
