
     RDKit          3D

 30 33  0  0  0  0  0  0  0  0999 V2000
   -5.5560    4.2010    1.4880 C   0  0  0  0  0  0  0  0  0  0  0  0
   -4.7490    3.1070    1.1340 O   0  0  0  0  0  0  0  0  0  0  0  0
   -5.2250    1.8240    0.9250 C   0  0  0  0  0  0  0  0  0  0  0  0
   -6.4570    1.6300    1.0630 O   0  0  0  0  0  0  0  0  0  0  0  0
   -4.3270    0.7260    0.5570 C   0  0  0  0  0  0  0  0  0  0  0  0
   -3.0400    0.7530    0.3760 O   0  0  0  0  0  0  0  0  0  0  0  0
   -2.5240   -0.3860    0.0540 C   0  0  0  0  0  0  0  0  0  0  0  0
   -1.1260   -0.7840   -0.2350 C   0  0  0  0  0  0  0  0  0  0  0  0
   -0.2210    0.2860   -0.1350 O   0  0  0  0  0  0  0  0  0  0  0  0
    1.1140    0.0220   -0.3860 C   0  0  0  0  0  0  0  0  0  0  0  0
    1.6110   -1.2240   -0.7280 C   0  0  0  0  0  0  0  0  0  0  0  0
    2.9550   -1.4270   -0.9670 C   0  0  0  0  0  0  0  0  0  0  0  0
    3.8570   -0.3960   -0.8750 C   0  0  0  0  0  0  0  0  0  0  0  0
    3.3780    0.8580   -0.5340 C   0  0  0  0  0  0  0  0  0  0  0  0
    2.0350    1.0540   -0.2960 C   0  0  0  0  0  0  0  0  0  0  0  0
    1.5270    2.3820    0.0650 C   0  0  0  0  0  0  0  0  0  0  0  0
    2.2680    3.4510    0.1880 C   0  0  0  0  0  0  0  0  0  0  0  0
    1.6740    4.7510    0.5560 C   0  0  0  0  0  0  0  0  0  0  0  0
    0.3030    4.5810    0.7190 O   0  0  0  0  0  0  0  0  0  0  0  0
    5.3180   -0.6120   -1.1360 C   0  0  0  0  0  0  0  0  0  0  0  0
    5.6520   -1.9760   -0.5700 C   0  0  1  0  0  0  0  0  0  0  0  0
    5.3150   -1.9440    0.9050 C   0  0  0  0  0  0  0  0  0  0  0  0
    4.8370   -3.0560   -1.2430 C   0  0  0  0  0  0  0  0  0  0  0  0
    3.4360   -2.7120   -1.3150 N   0  0  0  0  0  0  0  0  0  0  0  0
   -3.5750   -1.2780    0.0140 C   0  0  0  0  0  0  0  0  0  0  0  0
   -4.0050   -2.5710   -0.2030 C   0  0  0  0  0  0  0  0  0  0  0  0
   -5.3690   -2.6300   -0.0180 C   0  0  0  0  0  0  0  0  0  0  0  0
   -6.2340   -3.8520   -0.1570 C   0  0  0  0  0  0  0  0  0  0  0  0
   -5.7490   -1.4180    0.3000 O   0  0  0  0  0  0  0  0  0  0  0  0
   -4.7260   -0.5860    0.3310 C   0  0  0  0  0  0  0  0  0  0  0  0
  1  2  1  0
  2  3  1  0
  3  4  2  0
  3  5  1  0
  5  6  1  0
  5 30  2  0
  6  7  1  0
  7  8  1  0
  7 25  2  0
  8  9  1  0
  9 10  1  0
 10 11  2  0
 10 15  1  0
 11 12  1  0
 12 13  2  0
 12 24  1  0
 13 14  1  0
 13 20  1  0
 14 15  2  0
 15 16  1  0
 16 17  2  3
 17 18  1  0
 18 19  1  0
 20 21  1  0
 21 22  1  1
 21 23  1  0
 23 24  1  0
 25 26  1  0
 25 30  1  0
 26 27  2  0
 27 28  1  0
 27 29  1  0
 29 30  1  0
M  END
