
     RDKit          3D

  9  9  0  0  0  0  0  0  0  0999 V2000
    2.0400   -1.6060    0.4130 C   0  0  0  0  0  0  0  0  0  0  0  0
    1.6820   -0.3580    0.2820 C   0  0  0  0  0  0  0  0  0  0  0  0
    2.6550    0.6910    0.3640 N   0  0  0  0  0  0  0  0  0  0  0  0
    0.2600   -0.0270    0.0470 C   0  0  0  0  0  0  0  0  0  0  0  0
   -0.0620    1.2570   -0.0810 C   0  0  0  0  0  0  0  0  0  0  0  0
   -1.4340    1.6310   -0.3110 C   0  0  0  0  0  0  0  0  0  0  0  0
   -2.4280    0.7640   -0.4070 C   0  0  0  0  0  0  0  0  0  0  0  0
   -2.1430   -0.6680   -0.2760 C   0  0  0  0  0  0  0  0  0  0  0  0
   -0.7600   -0.9880   -0.0470 N   0  0  0  0  0  0  0  0  0  0  0  0
  1  2  2  0
  2  3  1  0
  2  4  1  0
  4  5  2  0
  4  9  1  0
  5  6  1  0
  6  7  2  0
  7  8  1  0
  8  9  1  0
M  END
