
     RDKit          3D

  9  9  0  0  0  0  0  0  0  0999 V2000
    2.1480    1.0690    0.9060 N   0  0  0  0  0  0  0  0  0  0  0  0
    1.6030   -0.0270    0.1910 C   0  0  0  0  0  0  0  0  0  0  0  0
    2.3890   -0.9440   -0.2470 N   0  0  0  0  0  0  0  0  0  0  0  0
    0.1640   -0.0690   -0.0190 C   0  0  0  0  0  0  0  0  0  0  0  0
   -0.4880   -1.0760   -0.6950 C   0  0  0  0  0  0  0  0  0  0  0  0
   -1.8630   -1.0570   -0.8620 C   0  0  0  0  0  0  0  0  0  0  0  0
   -2.6310   -0.0180   -0.3500 C   0  0  0  0  0  0  0  0  0  0  0  0
   -1.9970    1.0070    0.3350 C   0  0  0  0  0  0  0  0  0  0  0  0
   -0.6280    0.9670    0.4880 C   0  0  0  0  0  0  0  0  0  0  0  0
  1  2  1  0
  2  3  2  0
  2  4  1  0
  4  5  2  0
  4  9  1  0
  5  6  1  0
  6  7  2  0
  7  8  1  0
  8  9  2  0
M  CHG  1   3   1
M  END
