
     RDKit          3D

 30 33  0  0  0  0  0  0  0  0999 V2000
   -0.1720   -3.1730    3.7020 C   0  0  0  0  0  0  0  0  0  0  0  0
   -0.2120   -1.6470    3.4540 C   0  0  0  0  0  0  0  0  0  0  0  0
   -1.1630   -1.4690    2.3430 C   0  0  0  0  0  0  0  0  0  0  0  0
   -0.9280   -0.9380    1.1640 C   0  0  0  0  0  0  0  0  0  0  0  0
    0.4030   -0.4520    0.8510 C   0  0  0  0  0  0  0  0  0  0  0  0
    1.3400   -0.4830    1.6390 O   0  0  0  0  0  0  0  0  0  0  0  0
    0.7160    0.0970   -0.4110 O   0  0  0  0  0  0  0  0  0  0  0  0
    1.9890    0.5580   -0.7130 C   0  0  0  0  0  0  0  0  0  0  0  0
    2.3550    1.8720   -0.4750 C   0  0  0  0  0  0  0  0  0  0  0  0
    3.6230    2.3220   -0.7790 C   0  0  0  0  0  0  0  0  0  0  0  0
    3.9550    3.6270   -0.5320 O   0  0  0  0  0  0  0  0  0  0  0  0
    4.5690    1.4580   -1.3350 C   0  0  0  0  0  0  0  0  0  0  0  0
    5.9330    1.9050   -1.6710 C   0  0  0  0  0  0  0  0  0  0  0  0
    4.2200    0.1470   -1.5770 C   0  0  0  0  0  0  0  0  0  0  0  0
    2.9590   -0.2740   -1.2680 C   0  0  0  0  0  0  0  0  0  0  0  0
    2.5720   -1.5870   -1.4980 O   0  0  0  0  0  0  0  0  0  0  0  0
    3.5080   -2.5140   -2.0680 C   0  0  0  0  0  0  0  0  0  0  0  0
   -1.9640   -0.7980    0.1010 C   0  0  1  0  0  0  0  0  0  0  0  0
   -3.2540   -1.3910    0.4760 C   0  0  0  0  0  0  0  0  0  0  0  0
   -3.4780   -1.9350    1.6340 C   0  0  0  0  0  0  0  0  0  0  0  0
   -2.4790   -1.9970    2.6060 N   0  0  0  0  0  0  0  0  0  0  0  0
   -4.3100   -1.3290   -0.5500 C   0  0  0  0  0  0  0  0  0  0  0  0
   -5.3000   -2.0940   -0.5050 O   0  0  0  0  0  0  0  0  0  0  0  0
   -4.1260   -0.3120   -1.6300 C   0  0  0  0  0  0  0  0  0  0  0  0
   -3.3390    0.7760   -1.0660 C   0  0  0  0  0  0  0  0  0  0  0  0
   -2.2930    0.6120   -0.2340 C   0  0  0  0  0  0  0  0  0  0  0  0
   -1.5750    1.7640    0.2970 C   0  0  0  0  0  0  0  0  0  0  0  0
   -2.3980    2.8560    0.5670 O   0  0  0  0  0  0  0  0  0  0  0  0
   -3.6180    2.9020    0.0060 C   0  0  0  0  0  0  0  0  0  0  0  0
   -3.6510    2.2210   -1.3460 C   0  0  0  0  0  0  0  0  0  0  0  0
  1  2  1  0
  2  3  1  0
  3  4  2  0
  3 21  1  0
  4  5  1  0
 18  4  1  1
  5  6  2  0
  5  7  1  0
  7  8  1  0
  8  9  2  0
  8 15  1  0
  9 10  1  0
 10 11  1  0
 10 12  2  0
 12 13  1  0
 12 14  1  0
 14 15  2  0
 15 16  1  0
 16 17  1  0
 18 19  1  0
 18 26  1  0
 19 20  2  0
 19 22  1  0
 20 21  1  0
 22 23  2  0
 22 24  1  0
 24 25  1  0
 25 26  2  0
 25 30  1  0
 26 27  1  0
 27 28  1  0
 28 29  1  0
 29 30  1  0
M  END
