
     RDKit          3D

 30 33  0  0  0  0  0  0  0  0999 V2000
    3.1100    1.6160   -0.8060 C   0  0  0  0  0  0  0  0  0  0  0  0
    3.1410    0.5700    0.1860 O   0  0  0  0  0  0  0  0  0  0  0  0
    3.2540   -0.7320   -0.3050 C   0  0  0  0  0  0  0  0  0  0  0  0
    2.0870   -1.3480   -0.5060 C   0  0  0  0  0  0  0  0  0  0  0  0
    0.7850   -0.7570   -0.2410 C   0  0  0  0  0  0  0  0  0  0  0  0
    0.7080    0.4010    0.2290 O   0  0  0  0  0  0  0  0  0  0  0  0
   -0.4190   -1.4440   -0.4940 N   0  0  0  0  0  0  0  0  0  0  0  0
   -1.7320   -1.0120   -0.2970 C   0  0  0  0  0  0  0  0  0  0  0  0
   -2.7780   -1.9130   -0.4000 C   0  0  0  0  0  0  0  0  0  0  0  0
   -4.1140   -1.5860   -0.2330 C   0  0  0  0  0  0  0  0  0  0  0  0
   -4.4100   -0.2730    0.0550 C   0  0  0  0  0  0  0  0  0  0  0  0
   -5.7410    0.1110    0.2340 C   0  0  0  0  0  0  0  0  0  0  0  0
   -6.0040    1.4540    0.5260 C   0  0  0  0  0  0  0  0  0  0  0  0
   -4.9890    2.3760    0.6350 C   0  0  0  0  0  0  0  0  0  0  0  0
   -3.6820    1.9930    0.4580 C   0  0  0  0  0  0  0  0  0  0  0  0
   -3.4070    0.6770    0.1710 C   0  0  0  0  0  0  0  0  0  0  0  0
   -2.0700    0.2810   -0.0100 C   0  0  0  0  0  0  0  0  0  0  0  0
   -7.2420    1.8860    0.7070 C   0  0  0  0  0  0  0  0  0  0  0  0
   -8.2850    0.9960    0.6070 O   0  0  0  0  0  0  0  0  0  0  0  0
   -8.1390   -0.3630    0.3220 C   0  0  0  0  0  0  0  0  0  0  0  0
   -6.7220   -0.7630    0.1340 C   0  0  0  0  0  0  0  0  0  0  0  0
    4.4920   -1.4070   -0.5930 C   0  0  0  0  0  0  0  0  0  0  0  0
    4.3780   -2.7060   -1.1220 O   0  0  0  0  0  0  0  0  0  0  0  0
    5.6940   -0.9310   -0.4110 C   0  0  0  0  0  0  0  0  0  0  0  0
    6.1640    0.3430    0.1110 C   0  0  0  0  0  0  0  0  0  0  0  0
    7.5020    0.3860    0.0900 C   0  0  0  0  0  0  0  0  0  0  0  0
    8.2920    1.5720    0.5640 C   0  0  0  0  0  0  0  0  0  0  0  0
    7.9970   -0.7900   -0.4170 O   0  0  0  0  0  0  0  0  0  0  0  0
    6.9640   -1.6440   -0.7450 C   0  0  0  0  0  0  0  0  0  0  0  0
    7.0080   -2.7890   -1.2260 O   0  0  0  0  0  0  0  0  0  0  0  0
  1  2  1  0
  2  3  1  0
  3  4  2  3
  3 22  1  0
  4  5  1  0
  5  6  2  0
  5  7  1  0
  7  8  1  0
  8  9  2  0
  8 17  1  0
  9 10  1  0
 10 11  2  0
 11 12  1  0
 11 16  1  0
 12 13  1  0
 12 21  2  0
 13 14  1  0
 13 18  2  0
 14 15  2  0
 15 16  1  0
 16 17  2  0
 18 19  1  0
 19 20  1  0
 20 21  1  0
 22 23  1  0
 22 24  2  3
 24 25  1  0
 24 29  1  0
 25 26  2  0
 26 27  1  0
 26 28  1  0
 28 29  1  0
 29 30  2  0
M  END
