
     RDKit          3D

 30 33  0  0  0  0  0  0  0  0999 V2000
   -8.1100    2.0540   -1.6300 C   0  0  0  0  0  0  0  0  0  0  0  0
   -7.8400    0.7680   -2.3700 C   0  0  0  0  0  0  0  0  0  0  0  0
   -7.5860   -0.3260   -1.5350 O   0  0  0  0  0  0  0  0  0  0  0  0
   -6.5250   -0.3580   -0.6440 C   0  0  0  0  0  0  0  0  0  0  0  0
   -5.6140    0.6460   -0.4720 C   0  0  0  0  0  0  0  0  0  0  0  0
   -4.5760    0.5330    0.4480 C   0  0  0  0  0  0  0  0  0  0  0  0
   -4.4140   -0.5900    1.2270 C   0  0  0  0  0  0  0  0  0  0  0  0
   -3.3040   -0.6890    2.2080 C   0  0  0  0  0  0  0  0  0  0  0  0
   -2.0410   -0.6020    1.5730 O   0  0  0  0  0  0  0  0  0  0  0  0
   -0.9020   -0.6780    2.3430 C   0  0  0  0  0  0  0  0  0  0  0  0
   -1.0220   -0.8260    3.5730 O   0  0  0  0  0  0  0  0  0  0  0  0
    0.4330   -0.5850    1.7070 C   0  0  0  0  0  0  0  0  0  0  0  0
    0.6300   -0.4280    0.4150 C   0  0  0  0  0  0  0  0  0  0  0  0
    2.0630   -0.3780    0.1550 C   0  0  0  0  0  0  0  0  0  0  0  0
    2.6280   -0.2280   -1.0410 C   0  0  0  0  0  0  0  0  0  0  0  0
    4.0790   -0.1940   -1.1590 C   0  0  0  0  0  0  0  0  0  0  0  0
    4.7680    0.6310   -2.0540 C   0  0  0  0  0  0  0  0  0  0  0  0
    6.0980    0.3770   -1.8670 C   0  0  0  0  0  0  0  0  0  0  0  0
    6.1940   -0.5920   -0.8680 C   0  0  0  0  0  0  0  0  0  0  0  0
    4.9840   -0.8660   -0.5140 O   0  0  0  0  0  0  0  0  0  0  0  0
    7.5910   -0.9900   -0.5340 C   0  0  0  0  0  0  0  0  0  0  0  0
    8.3170    0.3290   -0.2810 C   0  0  0  0  0  0  0  0  0  0  0  0
    8.4040    1.1140   -1.4800 N   0  0  0  0  0  0  0  0  0  0  0  0
    7.3770    0.8530   -2.4330 C   0  0  0  0  0  0  0  0  0  0  0  0
    2.6900   -0.5160    1.3780 O   0  0  0  0  0  0  0  0  0  0  0  0
    1.7250   -0.6500    2.3740 C   0  0  1  0  0  0  0  0  0  0  0  0
    1.8770    0.3970    3.4660 C   0  0  0  0  0  0  0  0  0  0  0  0
   -5.3320   -1.6050    1.0540 C   0  0  0  0  0  0  0  0  0  0  0  0
   -6.3660   -1.5050    0.1460 C   0  0  0  0  0  0  0  0  0  0  0  0
   -7.2980   -2.5440   -0.0230 O   0  0  0  0  0  0  0  0  0  0  0  0
  1  2  1  0
  2  3  1  0
  3  4  1  0
  4  5  2  0
  4 29  1  0
  5  6  1  0
  6  7  2  0
  7  8  1  0
  7 28  1  0
  8  9  1  0
  9 10  1  0
 10 11  2  0
 10 12  1  0
 12 13  2  0
 12 26  1  0
 13 14  1  0
 14 15  2  3
 14 25  1  0
 15 16  1  0
 16 17  2  0
 16 20  1  0
 17 18  1  0
 18 19  2  0
 18 24  1  0
 19 20  1  0
 19 21  1  0
 21 22  1  0
 22 23  1  0
 23 24  1  0
 25 26  1  0
 26 27  1  1
 28 29  2  0
 29 30  1  0
M  END
