
     RDKit          3D

 31 33  0  0  0  0  0  0  0  0999 V2000
    5.6600   -3.6140   -1.3510 C   0  0  0  0  0  0  0  0  0  0  0  0
    6.1490   -2.7140   -0.2390 C   0  0  0  0  0  0  0  0  0  0  0  0
    5.4330   -1.4840   -0.3470 O   0  0  0  0  0  0  0  0  0  0  0  0
    5.6970   -0.4830    0.5600 C   0  0  0  0  0  0  0  0  0  0  0  0
    6.5620   -0.6930    1.4520 O   0  0  0  0  0  0  0  0  0  0  0  0
    4.9980    0.8100    0.5090 C   0  0  0  0  0  0  0  0  0  0  0  0
    4.0740    1.0500   -0.4360 N   0  0  0  0  0  0  0  0  0  0  0  0
    3.4230    2.2300   -0.4990 C   0  0  0  0  0  0  0  0  0  0  0  0
    2.1830    2.5260   -1.7800 S   0  0  0  0  0  0  0  0  0  0  0  0
    0.5450    2.0140   -1.1900 C   0  0  0  0  0  0  0  0  0  0  0  0
    0.1880    2.9500   -0.0570 C   0  0  0  0  0  0  0  0  0  0  0  0
   -1.1200    2.6160    0.4850 C   0  0  0  0  0  0  0  0  0  0  0  0
   -1.8450    3.1700    1.4970 C   0  0  0  0  0  0  0  0  0  0  0  0
   -3.0320    2.7090    1.8380 C   0  0  0  0  0  0  0  0  0  0  0  0
   -3.5030    1.5840    1.0680 C   0  0  0  0  0  0  0  0  0  0  0  0
   -4.7850    0.9230    1.2860 C   0  0  2  0  0  0  0  0  0  0  0  0
   -4.9230    0.8100    2.6950 O   0  0  0  0  0  0  0  0  0  0  0  0
   -4.8990   -0.3910    0.6430 C   0  0  0  0  0  0  0  0  0  0  0  0
   -4.2630   -0.9800   -0.3940 C   0  0  0  0  0  0  0  0  0  0  0  0
   -4.7870   -2.2740   -0.5740 C   0  0  0  0  0  0  0  0  0  0  0  0
   -4.3790   -3.0980   -1.4980 C   0  0  0  0  0  0  0  0  0  0  0  0
   -3.1070   -2.6640   -2.6360 Cl  0  0  0  0  0  0  0  0  0  0  0  0
   -5.7340   -2.3910    0.3920 C   0  0  0  0  0  0  0  0  0  0  0  0
   -6.5060   -3.4600    0.6140 C   0  0  0  0  0  0  0  0  0  0  0  0
   -6.3830   -4.5710   -0.1670 O   0  0  0  0  0  0  0  0  0  0  0  0
   -5.7750   -1.2730    1.0880 O   0  0  0  0  0  0  0  0  0  0  0  0
   -2.2240    1.3120   -0.0390 S   0  0  0  0  0  0  0  0  0  0  0  0
    3.6700    3.2550    0.4040 C   0  0  0  0  0  0  0  0  0  0  0  0
    4.6150    3.0280    1.3800 C   0  0  0  0  0  0  0  0  0  0  0  0
    5.2630    1.8110    1.4180 C   0  0  0  0  0  0  0  0  0  0  0  0
    6.5750    1.4780    2.7640 Br  0  0  0  0  0  0  0  0  0  0  0  0
  1  2  1  0
  2  3  1  0
  3  4  1  0
  4  5  2  0
  4  6  1  0
  6  7  2  0
  6 30  1  0
  7  8  1  0
  8  9  1  0
  8 28  2  0
  9 10  1  0
 10 11  1  0
 11 12  1  0
 12 13  2  0
 12 27  1  0
 13 14  1  0
 14 15  2  0
 15 16  1  0
 15 27  1  0
 16 17  1  1
 16 18  1  0
 18 19  2  0
 18 26  1  0
 19 20  1  0
 20 21  2  3
 20 23  1  0
 21 22  1  0
 23 24  2  3
 23 26  1  0
 24 25  1  0
 28 29  1  0
 29 30  2  0
 30 31  1  0
M  END
