
     RDKit          3D

 30 33  0  0  0  0  0  0  0  0999 V2000
   -6.7570    0.1850   -3.1860 C   0  0  0  0  0  0  0  0  0  0  0  0
   -6.0570   -0.2540   -2.0170 O   0  0  0  0  0  0  0  0  0  0  0  0
   -5.6260    0.6400   -1.0530 C   0  0  0  0  0  0  0  0  0  0  0  0
   -5.8640    1.8580   -1.2260 O   0  0  0  0  0  0  0  0  0  0  0  0
   -4.9140    0.2290    0.1430 C   0  0  0  0  0  0  0  0  0  0  0  0
   -5.6270   -0.0850    1.2810 C   0  0  0  0  0  0  0  0  0  0  0  0
   -7.1140   -0.0050    1.2900 C   0  0  0  0  0  0  0  0  0  0  0  0
   -7.6370   -0.3600    2.5310 O   0  0  0  0  0  0  0  0  0  0  0  0
   -4.9370   -0.4500    2.3330 O   0  0  0  0  0  0  0  0  0  0  0  0
   -3.6200   -0.5330    2.3650 C   0  0  0  0  0  0  0  0  0  0  0  0
   -3.0280   -0.8960    3.4260 O   0  0  0  0  0  0  0  0  0  0  0  0
   -2.8560   -0.2330    1.2590 C   0  0  0  0  0  0  0  0  0  0  0  0
   -3.5250    0.1540    0.1330 C   0  0  0  0  0  0  0  0  0  0  0  0
   -2.7180    0.4790   -1.0590 C   0  0  0  0  0  0  0  0  0  0  0  0
   -1.4110    1.0970   -0.7810 C   0  0  0  0  0  0  0  0  0  0  0  0
   -0.6910    0.6970    0.4560 C   0  0  2  0  0  0  0  0  0  0  0  0
    0.6860    0.2060    0.2070 C   0  0  0  0  0  0  0  0  0  0  0  0
    0.9020   -0.9090   -0.5560 C   0  0  0  0  0  0  0  0  0  0  0  0
    2.1830   -1.3790   -0.7960 C   0  0  0  0  0  0  0  0  0  0  0  0
    3.2480   -0.6890   -0.2430 C   0  0  0  0  0  0  0  0  0  0  0  0
    4.5740   -0.9520   -0.3360 N   0  0  0  0  0  0  0  0  0  0  0  0
    5.2500   -0.0120    0.3650 C   0  0  0  0  0  0  0  0  0  0  0  0
    6.7270    0.0220    0.4890 C   0  0  0  0  0  0  0  0  0  0  0  0
    7.3370    0.8450   -0.6310 C   0  0  0  0  0  0  0  0  0  0  0  0
    8.8580    0.8740   -0.4930 C   0  0  0  0  0  0  0  0  0  0  0  0
    9.2370    1.4350    0.7200 O   0  0  0  0  0  0  0  0  0  0  0  0
    4.3030    0.8580    0.9080 C   0  0  0  0  0  0  0  0  0  0  0  0
    3.0640    0.4360    0.5300 C   0  0  0  0  0  0  0  0  0  0  0  0
    1.7910    0.8780    0.7510 C   0  0  0  0  0  0  0  0  0  0  0  0
   -1.3870   -0.3280    1.3010 C   0  0  0  0  0  0  0  0  0  0  0  0
  1  2  1  0
  2  3  1  0
  3  4  2  0
  3  5  1  0
  5  6  2  0
  5 13  1  0
  6  7  1  0
  6  9  1  0
  7  8  1  0
  9 10  1  0
 10 11  2  0
 10 12  1  0
 12 13  2  0
 12 30  1  0
 13 14  1  0
 14 15  1  0
 15 16  1  0
 16 17  1  6
 16 30  1  0
 17 18  2  0
 17 29  1  0
 18 19  1  0
 19 20  2  0
 20 21  1  0
 20 28  1  0
 21 22  1  0
 22 23  1  0
 22 27  2  0
 23 24  1  0
 24 25  1  0
 25 26  1  0
 27 28  1  0
 28 29  2  0
M  END
