
     RDKit          3D

 30 31  0  0  0  0  0  0  0  0999 V2000
   -3.0210    1.9950    2.6750 C   0  0  0  0  0  0  0  0  0  0  0  0
   -2.7980    1.2960    1.4520 O   0  0  0  0  0  0  0  0  0  0  0  0
   -1.5650    0.7140    1.1680 C   0  0  0  0  0  0  0  0  0  0  0  0
   -0.6810    0.8580    2.0700 O   0  0  0  0  0  0  0  0  0  0  0  0
   -1.2760   -0.0150   -0.0700 C   0  0  2  0  0  0  0  0  0  0  0  0
   -2.1300   -1.2420   -0.2810 C   0  0  0  0  0  0  0  0  0  0  0  0
   -3.5700   -0.9720   -0.3490 C   0  0  0  0  0  0  0  0  0  0  0  0
   -4.3300   -1.0010    0.7980 C   0  0  0  0  0  0  0  0  0  0  0  0
   -5.6850   -0.7470    0.7500 C   0  0  0  0  0  0  0  0  0  0  0  0
   -6.3410   -0.4580   -0.4230 C   0  0  0  0  0  0  0  0  0  0  0  0
   -5.5850   -0.4250   -1.5920 C   0  0  0  0  0  0  0  0  0  0  0  0
   -6.2770   -0.1180   -2.8350 C   0  0  0  0  0  0  0  0  0  0  0  0
   -7.6940    0.1350   -2.8070 N   0  0  0  0  0  0  0  0  0  0  0  0
   -5.6940   -0.0590   -3.9770 N   0  0  0  0  0  0  0  0  0  0  0  0
   -4.2320   -0.6790   -1.5370 C   0  0  0  0  0  0  0  0  0  0  0  0
    0.0970   -0.4760   -0.0310 N   0  0  0  0  0  0  0  0  0  0  0  0
    1.1000   -0.0940   -0.9580 C   0  0  0  0  0  0  0  0  0  0  0  0
    0.7770    0.7030   -1.8850 O   0  0  0  0  0  0  0  0  0  0  0  0
    2.4740   -0.6170   -0.8350 C   0  0  0  0  0  0  0  0  0  0  0  0
    2.5450   -1.4980    0.3080 N   0  0  0  0  0  0  0  0  0  0  0  0
    4.1480   -2.1220    0.4700 S   0  0  1  0  0  0  0  0  0  0  0  0
    4.1590   -3.0100    1.6980 O   0  0  0  0  0  0  0  0  0  0  0  0
    4.5850   -2.9070   -0.7060 O   0  0  0  0  0  0  0  0  0  0  0  0
    5.2850   -0.8120    0.7360 C   0  0  0  0  0  0  0  0  0  0  0  0
    5.9050   -0.1750   -0.3180 C   0  0  0  0  0  0  0  0  0  0  0  0
    6.7990    0.8550   -0.1110 C   0  0  0  0  0  0  0  0  0  0  0  0
    7.1160    1.2970    1.1580 C   0  0  0  0  0  0  0  0  0  0  0  0
    8.0800    2.4090    1.3820 C   0  0  0  0  0  0  0  0  0  0  0  0
    6.4920    0.6560    2.2100 C   0  0  0  0  0  0  0  0  0  0  0  0
    5.5970   -0.3740    2.0060 C   0  0  0  0  0  0  0  0  0  0  0  0
  1  2  1  0
  2  3  1  0
  3  4  2  0
  3  5  1  0
  5  6  1  1
  5 16  1  0
  6  7  1  0
  7  8  2  0
  7 15  1  0
  8  9  1  0
  9 10  2  0
 10 11  1  0
 11 12  1  0
 11 15  2  0
 12 13  1  0
 12 14  2  0
 16 17  1  0
 17 18  2  0
 17 19  1  0
 19 20  1  0
 21 20  1  6
 21 22  2  0
 21 23  2  0
 21 24  1  0
 24 25  2  0
 24 30  1  0
 25 26  1  0
 26 27  2  0
 27 28  1  0
 27 29  1  0
 29 30  2  0
M  CHG  1  14   1
M  END
