
     RDKit          3D

 30 33  0  0  0  0  0  0  0  0999 V2000
    7.5830    1.9450    0.6980 C   0  0  0  0  0  0  0  0  0  0  0  0
    6.3060    1.5980    0.2300 O   0  0  0  0  0  0  0  0  0  0  0  0
    5.7720    0.3450    0.1330 C   0  0  0  0  0  0  0  0  0  0  0  0
    6.4970   -0.6350    0.4950 O   0  0  0  0  0  0  0  0  0  0  0  0
    4.4010    0.1080   -0.3750 C   0  0  0  0  0  0  0  0  0  0  0  0
    3.5100    1.0160   -0.7010 O   0  0  0  0  0  0  0  0  0  0  0  0
    2.4220    0.4450   -1.1200 C   0  0  0  0  0  0  0  0  0  0  0  0
    1.1560    1.1320   -1.6030 C   0  0  0  0  0  0  0  0  0  0  0  0
    0.4320    1.4800   -0.4600 O   0  0  0  0  0  0  0  0  0  0  0  0
   -0.8240    1.0550   -0.1760 C   0  0  0  0  0  0  0  0  0  0  0  0
   -1.2990    0.0620   -1.0440 C   0  0  0  0  0  0  0  0  0  0  0  0
   -2.5230   -0.5510   -0.9000 C   0  0  0  0  0  0  0  0  0  0  0  0
   -3.3190   -0.1720    0.1410 C   0  0  0  0  0  0  0  0  0  0  0  0
   -2.8840    0.8190    1.0210 C   0  0  0  0  0  0  0  0  0  0  0  0
   -1.6280    1.4280    0.8450 C   0  0  0  0  0  0  0  0  0  0  0  0
   -1.3670    2.5720    1.6940 C   0  0  0  0  0  0  0  0  0  0  0  0
   -0.4220    3.4340    1.4420 C   0  0  0  0  0  0  0  0  0  0  0  0
   -0.1620    4.6270    2.3350 C   0  0  0  0  0  0  0  0  0  0  0  0
   -0.3450    5.7290    1.4920 O   0  0  0  0  0  0  0  0  0  0  0  0
   -4.6290   -0.8170    0.4110 C   0  0  0  0  0  0  0  0  0  0  0  0
   -4.9060   -1.9570   -0.5250 C   0  0  1  0  0  0  0  0  0  0  0  0
   -6.3650   -2.3570   -0.5280 C   0  0  0  0  0  0  0  0  0  0  0  0
   -4.4100   -1.6870   -1.9300 C   0  0  0  0  0  0  0  0  0  0  0  0
   -2.9470   -1.5790   -1.7810 N   0  0  0  0  0  0  0  0  0  0  0  0
    2.6080   -0.9270   -1.0680 C   0  0  0  0  0  0  0  0  0  0  0  0
    2.0240   -2.1580   -1.2770 C   0  0  0  0  0  0  0  0  0  0  0  0
    2.9790   -3.0750   -0.9030 C   0  0  0  0  0  0  0  0  0  0  0  0
    2.7670   -4.5560   -0.9560 C   0  0  0  0  0  0  0  0  0  0  0  0
    4.0620   -2.4290   -0.5020 O   0  0  0  0  0  0  0  0  0  0  0  0
    3.8730   -1.1210   -0.5830 C   0  0  0  0  0  0  0  0  0  0  0  0
  1  2  1  0
  2  3  1  0
  3  4  2  0
  3  5  1  0
  5  6  1  0
  5 30  2  0
  6  7  1  0
  7  8  1  0
  7 25  2  0
  8  9  1  0
  9 10  1  0
 10 11  2  0
 10 15  1  0
 11 12  1  0
 12 13  2  0
 12 24  1  0
 13 14  1  0
 13 20  1  0
 14 15  2  0
 15 16  1  0
 16 17  2  3
 17 18  1  0
 18 19  1  0
 20 21  1  0
 21 22  1  6
 21 23  1  0
 23 24  1  0
 25 26  1  0
 25 30  1  0
 26 27  2  0
 27 28  1  0
 27 29  1  0
 29 30  1  0
M  END
