
     RDKit          3D

 17 16  0  0  0  0  0  0  0  0999 V2000
   -1.1060    2.8750    1.5320 C   0  0  0  0  0  0  0  0  0  0  0  0
   -1.5700    3.2710    0.4060 C   0  0  0  0  0  0  0  0  0  0  0  0
   -1.5140    2.5510   -0.8390 C   0  0  0  0  0  0  0  0  0  0  0  0
   -2.0210    3.0400   -1.9800 C   0  0  0  0  0  0  0  0  0  0  0  0
   -2.6720    4.2830   -2.1910 C   0  0  0  0  0  0  0  0  0  0  0  0
   -2.8980    5.1600   -1.3780 O   0  0  0  0  0  0  0  0  0  0  0  0
   -0.9100    1.2400   -0.9310 C   0  0  0  0  0  0  0  0  0  0  0  0
   -0.8710    0.6390   -2.0570 O   0  0  0  0  0  0  0  0  0  0  0  0
   -0.3380    0.5160    0.1080 O   0  0  0  0  0  0  0  0  0  0  0  0
    0.2170   -0.7300   -0.0960 C   0  0  0  0  0  0  0  0  0  0  0  0
    0.2220   -1.2370   -1.2350 O   0  0  0  0  0  0  0  0  0  0  0  0
    0.7990   -1.4360    1.0800 C   0  0  0  0  0  0  0  0  0  0  0  0
    1.4050   -2.7360    0.7050 C   0  0  0  0  0  0  0  0  0  0  0  0
    2.2680   -2.6870   -0.2410 O   0  0  0  0  0  0  0  0  0  0  0  0
    1.1210   -3.9430    1.2670 O   0  0  0  0  0  0  0  0  0  0  0  0
    1.7000   -5.0660    0.8750 O   0  0  0  0  0  0  0  0  0  0  0  0
    3.0510   -4.9650    0.6030 C   0  0  0  0  0  0  0  0  0  0  0  0
  1  2  2  0
  2  3  1  0
  3  4  2  3
  3  7  1  0
  4  5  1  0
  5  6  2  0
  7  8  2  0
  7  9  1  0
  9 10  1  0
 10 11  2  0
 10 12  1  0
 12 13  1  0
 13 14  2  0
 13 15  1  0
 15 16  1  0
 16 17  1  0
M  END
