
     RDKit          3D

 22 23  0  0  0  0  0  0  0  0999 V2000
    4.1110    2.8390   -1.5060 N   0  0  0  0  0  0  0  0  0  0  0  0
    4.0160    1.5750   -0.8690 C   0  0  0  0  0  0  0  0  0  0  0  0
    2.8480    1.0290   -0.5120 N   0  0  0  0  0  0  0  0  0  0  0  0
    2.7830   -0.1840    0.0970 C   0  0  0  0  0  0  0  0  0  0  0  0
    3.9400   -0.8940    0.3650 C   0  0  0  0  0  0  0  0  0  0  0  0
    3.6030   -2.0490    0.9650 N   0  0  0  0  0  0  0  0  0  0  0  0
    2.2520   -2.0700    1.0740 C   0  0  0  0  0  0  0  0  0  0  0  0
    1.7810   -0.9460    0.5490 N   0  0  0  0  0  0  0  0  0  0  0  0
    0.3670   -0.5810    0.4700 C   0  0  0  0  0  0  0  0  0  0  0  0
   -0.2500   -1.0630   -0.8000 C   0  0  0  0  0  0  0  0  0  0  0  0
   -1.6930   -0.6490   -0.8740 C   0  0  0  0  0  0  0  0  0  0  0  0
   -2.4660   -1.2310    0.2580 C   0  0  0  0  0  0  0  0  0  0  0  0
   -3.9630   -0.9330    0.2340 C   0  0  2  0  0  0  0  0  0  0  0  0
   -4.4130   -1.5990    1.4100 F   0  0  0  0  0  0  0  0  0  0  0  0
   -4.4490   -1.8170   -0.7520 F   0  0  0  0  0  0  0  0  0  0  0  0
   -4.4080    0.6320    0.0880 P   0  0  0  0  0  0  0  0  0  0  0  0
   -3.4050    1.0420    1.3480 O   0  0  0  0  0  0  0  0  0  0  0  0
   -3.9010    0.7040   -1.4520 O   0  0  0  0  0  0  0  0  0  0  0  0
   -4.9740    2.0890    0.0610 O   0  0  0  0  0  0  0  0  0  0  0  0
    5.1370   -0.3090   -0.0130 C   0  0  0  0  0  0  0  0  0  0  0  0
    6.2000   -0.9180    0.2120 O   0  0  0  0  0  0  0  0  0  0  0  0
    5.1470    0.9000   -0.6160 N   0  0  0  0  0  0  0  0  0  0  0  0
  1  2  1  0
  2  3  2  0
  2 22  1  0
  3  4  1  0
  4  5  2  0
  4  8  1  0
  5  6  1  0
  5 20  1  0
  6  7  2  0
  7  8  1  0
  8  9  1  0
  9 10  1  0
 10 11  1  0
 11 12  1  0
 12 13  1  0
 13 14  1  1
 13 15  1  0
 13 16  1  0
 16 17  1  0
 16 18  1  0
 16 19  1  0
 20 21  2  0
 20 22  1  0
M  END
