
     RDKit          3D

 17 17  0  0  0  0  0  0  0  0999 V2000
   -3.1600   -1.7530   -0.5150 C   0  0  0  0  0  0  0  0  0  0  0  0
   -3.1200   -0.5020    0.5470 C   0  0  2  0  0  0  0  0  0  0  0  0
   -3.9290    0.5840   -0.2150 C   0  0  0  0  0  0  0  0  0  0  0  0
   -4.9080    0.9220    0.5760 O   0  0  0  0  0  0  0  0  0  0  0  0
   -5.9700    0.1770    0.7680 O   0  0  0  0  0  0  0  0  0  0  0  0
   -1.9320   -0.0750    0.5150 O   0  0  0  0  0  0  0  0  0  0  0  0
   -0.6000   -0.1770    0.3400 C   0  0  0  0  0  0  0  0  0  0  0  0
    0.2110   -1.1050   -0.1120 C   0  0  0  0  0  0  0  0  0  0  0  0
    1.5170   -0.5780   -0.1480 C   0  0  0  0  0  0  0  0  0  0  0  0
    1.4440    0.7060    0.3320 C   0  0  0  0  0  0  0  0  0  0  0  0
    2.3790    1.7780    0.4860 C   0  0  0  0  0  0  0  0  0  0  0  0
    2.0590    2.6710    1.3180 O   0  0  0  0  0  0  0  0  0  0  0  0
    3.6140    1.8410   -0.3000 C   0  0  0  0  0  0  0  0  0  0  0  0
    4.3040    0.5660   -0.5420 C   0  0  0  0  0  0  0  0  0  0  0  0
    4.6260   -0.0320    0.6490 O   0  0  0  0  0  0  0  0  0  0  0  0
    5.2770   -1.1570    0.4840 O   0  0  0  0  0  0  0  0  0  0  0  0
    0.1580    0.9100    0.6220 O   0  0  0  0  0  0  0  0  0  0  0  0
  2  1  1  6
  2  3  1  0
  2  6  1  0
  3  4  1  0
  4  5  1  0
  6  7  1  0
  7  8  2  0
  7 17  1  0
  8  9  1  0
  9 10  2  0
 10 11  1  0
 10 17  1  0
 11 12  2  0
 11 13  1  0
 13 14  1  0
 14 15  1  0
 15 16  1  0
M  END
