
     RDKit          3D

 17 16  0  0  0  0  0  0  0  0999 V2000
   -2.6270    3.3670   -0.1300 C   0  0  0  0  0  0  0  0  0  0  0  0
   -2.2520    1.9150    0.0350 C   0  0  0  0  0  0  0  0  0  0  0  0
   -1.7690    1.3620   -1.1540 O   0  0  0  0  0  0  0  0  0  0  0  0
   -1.3800   -0.2710   -0.8500 P   0  0  0  0  0  0  0  0  0  0  0  0
    0.3990   -0.5860   -0.5560 C   0  0  0  0  0  0  0  0  0  0  0  0
    1.0420    0.4760    0.3030 C   0  0  0  0  0  0  0  0  0  0  0  0
    2.3810    0.2790    0.5500 O   0  0  0  0  0  0  0  0  0  0  0  0
    3.1790    0.2710   -0.5680 C   0  0  1  0  0  0  0  0  0  0  0  0
    4.2640    1.2920   -0.4620 C   0  0  0  0  0  0  0  0  0  0  0  0
    5.0690    1.3930   -1.4190 O   0  0  0  0  0  0  0  0  0  0  0  0
    4.4110    2.1210    0.6410 O   0  0  0  0  0  0  0  0  0  0  0  0
    3.7540   -1.0810   -0.7330 C   0  0  0  0  0  0  0  0  0  0  0  0
    4.5200   -1.3280   -1.6920 O   0  0  0  0  0  0  0  0  0  0  0  0
    3.4600   -2.0880    0.1620 O   0  0  0  0  0  0  0  0  0  0  0  0
   -2.4490   -1.1030    0.1540 O   0  0  0  0  0  0  0  0  0  0  0  0
   -2.7820   -2.3810   -0.2660 C   0  0  0  0  0  0  0  0  0  0  0  0
   -3.7410   -2.9900    0.7330 C   0  0  0  0  0  0  0  0  0  0  0  0
  1  2  1  0
  2  3  1  0
  3  4  1  0
  4  5  1  0
  4 15  1  0
  5  6  1  0
  6  7  1  0
  8  7  1  1
  8  9  1  0
  8 12  1  0
  9 10  2  0
  9 11  1  0
 12 13  2  0
 12 14  1  0
 15 16  1  0
 16 17  1  0
M  END
