
     RDKit          3D

 17 16  0  0  0  0  0  0  0  0999 V2000
    2.0520   -1.1060    2.8470 C   0  0  0  0  0  0  0  0  0  0  0  0
    2.8270   -0.9100    1.7690 C   0  0  0  0  0  0  0  0  0  0  0  0
    2.7450    0.2820    0.9810 C   0  0  0  0  0  0  0  0  0  0  0  0
    3.4670    0.5230   -0.0650 C   0  0  0  0  0  0  0  0  0  0  0  0
    4.4700   -0.3480   -0.6240 C   0  0  0  0  0  0  0  0  0  0  0  0
    5.0950    0.0550   -1.6760 O   0  0  0  0  0  0  0  0  0  0  0  0
    4.8710   -1.5870   -0.1850 O   0  0  0  0  0  0  0  0  0  0  0  0
    1.8180    1.2510    1.3750 O   0  0  0  0  0  0  0  0  0  0  0  0
    0.6880    1.5740    0.5880 C   0  0  0  0  0  0  0  0  0  0  0  0
   -0.1940    0.3670    0.3880 C   0  0  0  0  0  0  0  0  0  0  0  0
   -1.3230    0.6700   -0.3920 O   0  0  0  0  0  0  0  0  0  0  0  0
   -2.2870   -0.2630   -0.7210 C   0  0  0  0  0  0  0  0  0  0  0  0
   -2.1670   -1.4460   -0.3110 O   0  0  0  0  0  0  0  0  0  0  0  0
   -3.4520    0.0940   -1.5380 C   0  0  2  0  0  0  0  0  0  0  0  0
   -3.4670    1.4140   -1.9220 O   0  0  0  0  0  0  0  0  0  0  0  0
   -4.6990   -0.2290   -0.7450 C   0  0  0  0  0  0  0  0  0  0  0  0
   -4.7190    0.5890    0.3760 O   0  0  0  0  0  0  0  0  0  0  0  0
  1  2  2  0
  2  3  1  0
  3  4  2  3
  3  8  1  0
  4  5  1  0
  5  6  2  0
  5  7  1  0
  8  9  1  0
  9 10  1  0
 10 11  1  0
 11 12  1  0
 12 13  2  0
 12 14  1  0
 14 15  1  1
 14 16  1  0
 16 17  1  0
M  END
