
     RDKit          3D

 17 16  0  0  0  0  0  0  0  0999 V2000
    5.6940    0.1290   -0.4450 C   0  0  0  0  0  0  0  0  0  0  0  0
    4.2150    0.1300   -0.0370 C   0  0  2  0  0  0  0  0  0  0  0  0
    4.2190   -0.0950    1.4750 C   0  0  0  0  0  0  0  0  0  0  0  0
    3.5520   -1.0000   -0.7530 C   0  0  0  0  0  0  0  0  0  0  0  0
    2.1820   -1.1500   -0.4950 O   0  0  0  0  0  0  0  0  0  0  0  0
    1.2860   -0.1390   -0.7920 C   0  0  0  0  0  0  0  0  0  0  0  0
    1.7460    0.9140   -1.3010 O   0  0  0  0  0  0  0  0  0  0  0  0
   -0.0900   -0.2740   -0.5380 O   0  0  0  0  0  0  0  0  0  0  0  0
   -0.8900    0.8370   -0.8910 C   0  0  0  0  0  0  0  0  0  0  0  0
   -2.3120    0.6340   -0.6030 C   0  0  0  0  0  0  0  0  0  0  0  0
   -3.1310    1.5430   -0.8680 O   0  0  0  0  0  0  0  0  0  0  0  0
   -2.8040   -0.5290   -0.0430 O   0  0  0  0  0  0  0  0  0  0  0  0
   -4.1670   -0.7420    0.2430 C   0  0  0  0  0  0  0  0  0  0  0  0
   -4.7390    0.2340    1.2050 C   0  0  0  0  0  0  0  0  0  0  0  0
   -6.0970   -0.0530    1.4320 O   0  0  0  0  0  0  0  0  0  0  0  0
   -7.0710   -0.0340    0.4640 C   0  0  0  0  0  0  0  0  0  0  0  0
   -6.7830    0.2560   -0.7200 O   0  0  0  0  0  0  0  0  0  0  0  0
  2  1  1  6
  2  3  1  0
  2  4  1  0
  4  5  1  0
  5  6  1  0
  6  7  2  0
  6  8  1  0
  8  9  1  0
  9 10  1  0
 10 11  2  0
 10 12  1  0
 12 13  1  0
 13 14  1  0
 14 15  1  0
 15 16  1  0
 16 17  2  0
M  END
