
     RDKit          3D

 17 17  0  0  0  0  0  0  0  0999 V2000
   -1.9580   -1.3160   -1.5400 O   0  0  0  0  0  0  0  0  0  0  0  0
   -1.5860   -0.3560   -0.8580 C   0  0  0  0  0  0  0  0  0  0  0  0
   -0.1760    0.1730   -1.0150 C   0  0  0  0  0  0  0  0  0  0  0  0
    0.5370   -0.0780    0.2840 C   0  0  0  0  0  0  0  0  0  0  0  0
    1.9730    0.3900    0.2740 C   0  0  0  0  0  0  0  0  0  0  0  0
    2.7550   -0.3650   -0.7760 C   0  0  0  0  0  0  0  0  0  0  0  0
    4.0820   -0.0160   -0.8660 O   0  0  0  0  0  0  0  0  0  0  0  0
    4.8090   -0.2110    0.2990 C   0  0  0  0  0  0  0  0  0  0  0  0
    6.1270    0.1820    0.0410 O   0  0  0  0  0  0  0  0  0  0  0  0
    6.1270    1.4540   -0.3120 O   0  0  0  0  0  0  0  0  0  0  0  0
   -2.3630    0.2570    0.0320 O   0  0  0  0  0  0  0  0  0  0  0  0
   -3.6550   -0.0320    0.3570 C   0  0  0  0  0  0  0  0  0  0  0  0
   -4.3850    0.6280    1.2870 C   0  0  0  0  0  0  0  0  0  0  0  0
   -5.7390    0.0620    1.3900 C   0  0  0  0  0  0  0  0  0  0  0  0
   -5.7750   -0.9770    0.4630 O   0  0  0  0  0  0  0  0  0  0  0  0
   -4.5210   -1.0580   -0.1800 C   0  0  0  0  0  0  0  0  0  0  0  0
   -4.2710   -1.9140   -1.0710 O   0  0  0  0  0  0  0  0  0  0  0  0
  1  2  2  0
  2  3  1  0
  2 11  1  0
  3  4  1  0
  4  5  1  0
  5  6  1  0
  6  7  1  0
  7  8  1  0
  8  9  1  0
  9 10  1  0
 11 12  1  0
 12 13  2  0
 12 16  1  0
 13 14  1  0
 14 15  1  0
 15 16  1  0
 16 17  2  0
M  END
