
     RDKit          3D

 25 27  0  0  0  0  0  0  0  0999 V2000
    2.9470    4.0010    0.4730 C   0  0  0  0  0  0  0  0  0  0  0  0
    3.3410    2.6660   -0.1620 C   0  0  2  0  0  0  0  0  0  0  0  0
    3.3180    2.7550   -1.5500 O   0  0  0  0  0  0  0  0  0  0  0  0
    2.3570    1.6020    0.2540 C   0  0  1  0  0  0  0  0  0  0  0  0
    0.9520    1.9460   -0.1870 C   0  0  0  0  0  0  0  0  0  0  0  0
    0.0110    0.8480    0.2550 C   0  0  0  0  0  0  0  0  0  0  0  0
   -1.3220    1.1170   -0.1320 O   0  0  0  0  0  0  0  0  0  0  0  0
   -2.3190    0.2140    0.1920 C   0  0  0  0  0  0  0  0  0  0  0  0
   -2.0560   -0.9480    0.8840 C   0  0  0  0  0  0  0  0  0  0  0  0
   -3.0480   -1.8480    1.2070 C   0  0  0  0  0  0  0  0  0  0  0  0
   -4.3610   -1.5840    0.8270 C   0  0  0  0  0  0  0  0  0  0  0  0
   -5.3550   -2.4630    1.1380 C   0  0  0  0  0  0  0  0  0  0  0  0
   -6.6430   -2.2060    0.7660 C   0  0  0  0  0  0  0  0  0  0  0  0
   -6.9220   -1.0400    0.0690 C   0  0  0  0  0  0  0  0  0  0  0  0
   -5.9180   -0.1720   -0.2340 C   0  0  0  0  0  0  0  0  0  0  0  0
   -4.6090   -0.4250    0.1390 C   0  0  0  0  0  0  0  0  0  0  0  0
   -3.6140    0.4780   -0.1850 C   0  0  0  0  0  0  0  0  0  0  0  0
    2.8050    0.3510   -0.2890 N   0  0  0  0  0  0  0  0  0  0  0  0
    2.4740   -0.1960   -1.4590 C   0  0  0  0  0  0  0  0  0  0  0  0
    3.1050   -1.3690   -1.5960 N   0  0  0  0  0  0  0  0  0  0  0  0
    3.8440   -1.5670   -0.4990 C   0  0  0  0  0  0  0  0  0  0  0  0
    4.6870   -2.7400   -0.2610 C   0  0  0  0  0  0  0  0  0  0  0  0
    4.7730   -3.7830   -1.2220 N   0  0  0  0  0  0  0  0  0  0  0  0
    5.3230   -2.7950    0.8060 O   0  0  0  0  0  0  0  0  0  0  0  0
    3.6550   -0.4870    0.3200 C   0  0  0  0  0  0  0  0  0  0  0  0
  2  1  1  1
  2  3  1  0
  2  4  1  0
  4  5  1  6
  4 18  1  0
  5  6  1  0
  6  7  1  0
  7  8  1  0
  8  9  2  0
  8 17  1  0
  9 10  1  0
 10 11  2  0
 11 12  1  0
 11 16  1  0
 12 13  2  0
 13 14  1  0
 14 15  2  0
 15 16  1  0
 16 17  2  0
 18 19  1  0
 18 25  1  0
 19 20  2  0
 20 21  1  0
 21 22  1  0
 21 25  2  0
 22 23  1  0
 22 24  2  0
M  END
