
     RDKit          3D

 25 27  0  0  0  0  0  0  0  0999 V2000
   -6.7510    0.9260   -1.4940 C   0  0  0  0  0  0  0  0  0  0  0  0
   -5.8710    1.6200   -0.4550 C   0  0  0  0  0  0  0  0  0  0  0  0
   -4.6880    0.7710   -0.1530 C   0  0  0  0  0  0  0  0  0  0  0  0
   -3.4150    0.9030   -0.5500 N   0  0  0  0  0  0  0  0  0  0  0  0
   -2.6580   -0.0790   -0.0530 N   0  0  0  0  0  0  0  0  0  0  0  0
   -1.2310   -0.2600   -0.2690 C   0  0  0  0  0  0  0  0  0  0  0  0
   -0.4110    0.4430    0.7660 C   0  0  0  0  0  0  0  0  0  0  0  0
    0.9760    0.2840    0.5830 O   0  0  0  0  0  0  0  0  0  0  0  0
    1.6940    0.6850   -0.5290 C   0  0  0  0  0  0  0  0  0  0  0  0
    1.0500    1.2410   -1.4560 O   0  0  0  0  0  0  0  0  0  0  0  0
    3.1320    0.4860   -0.6500 C   0  0  0  0  0  0  0  0  0  0  0  0
    3.8680   -0.1190    0.3470 C   0  0  0  0  0  0  0  0  0  0  0  0
    5.2410   -0.2890    0.1920 C   0  0  0  0  0  0  0  0  0  0  0  0
    5.8920    0.1350   -0.9440 C   0  0  0  0  0  0  0  0  0  0  0  0
    5.1440    0.7370   -1.9310 C   0  0  0  0  0  0  0  0  0  0  0  0
    3.7620    0.9140   -1.7880 C   0  0  0  0  0  0  0  0  0  0  0  0
    3.0140    1.5330   -2.8100 N   0  0  0  0  0  0  0  0  0  0  0  0
    7.1970   -0.0230   -1.0990 C   0  0  0  0  0  0  0  0  0  0  0  0
    7.9620   -0.6230   -0.1210 O   0  0  0  0  0  0  0  0  0  0  0  0
    7.3830   -1.0800    1.0550 C   0  0  0  0  0  0  0  0  0  0  0  0
    5.9260   -0.8630    1.1420 C   0  0  0  0  0  0  0  0  0  0  0  0
   -3.4220   -0.8910    0.6910 C   0  0  0  0  0  0  0  0  0  0  0  0
   -2.9960   -2.1200    1.4390 C   0  0  0  0  0  0  0  0  0  0  0  0
   -4.7000   -0.3690    0.6370 C   0  0  0  0  0  0  0  0  0  0  0  0
   -5.8760   -0.9710    1.3350 C   0  0  0  0  0  0  0  0  0  0  0  0
  1  2  1  0
  2  3  1  0
  3  4  2  0
  3 24  1  0
  4  5  1  0
  5  6  1  0
  5 22  1  0
  6  7  1  0
  7  8  1  0
  8  9  1  0
  9 10  2  0
  9 11  1  0
 11 12  2  0
 11 16  1  0
 12 13  1  0
 13 14  1  0
 13 21  2  0
 14 15  1  0
 14 18  2  0
 15 16  2  0
 16 17  1  0
 18 19  1  0
 19 20  1  0
 20 21  1  0
 22 23  1  0
 22 24  2  0
 24 25  1  0
M  END
