
     RDKit          3D

 25 26  0  0  0  0  0  0  0  0999 V2000
   -2.8630    0.3800    4.3580 C   0  0  0  0  0  0  0  0  0  0  0  0
   -2.1720   -0.0830    3.1130 C   0  0  0  0  0  0  0  0  0  0  0  0
   -2.4910    0.4450    1.9260 C   0  0  0  0  0  0  0  0  0  0  0  0
   -3.5590    1.4860    1.9750 C   0  0  0  0  0  0  0  0  0  0  0  0
   -1.8680    0.0510    0.6930 C   0  0  0  0  0  0  0  0  0  0  0  0
   -0.4190   -0.3990    0.9480 C   0  0  0  0  0  0  0  0  0  0  0  0
   -0.0980   -1.0110    1.9550 O   0  0  0  0  0  0  0  0  0  0  0  0
    0.6210   -0.0790    0.0130 C   0  0  0  0  0  0  0  0  0  0  0  0
    1.8780   -0.4900    0.2630 C   0  0  0  0  0  0  0  0  0  0  0  0
    2.1220   -1.2290    1.4520 N   0  0  0  0  0  0  0  0  0  0  0  0
    2.9340   -0.1860   -0.6520 C   0  0  0  0  0  0  0  0  0  0  0  0
    4.1990   -0.4650   -0.6340 C   0  0  0  0  0  0  0  0  0  0  0  0
    5.1550   -0.0730   -1.6630 N   0  0  0  0  0  0  0  0  0  0  0  0
    6.3210   -0.4910   -1.3670 C   0  0  0  0  0  0  0  0  0  0  0  0
    7.5000   -0.2740   -2.1770 N   0  0  0  0  0  0  0  0  0  0  0  0
    6.3130   -1.1710   -0.1880 O   0  0  0  0  0  0  0  0  0  0  0  0
    4.9920   -1.1840    0.3210 C   0  0  0  0  0  0  0  0  0  0  0  0
    4.6630   -1.7360    1.3970 O   0  0  0  0  0  0  0  0  0  0  0  0
   -2.0940    0.4660   -0.5290 C   0  0  0  0  0  0  0  0  0  0  0  0
   -2.9990    1.4950   -0.9870 C   0  0  0  0  0  0  0  0  0  0  0  0
   -3.4360    1.7040   -2.2060 C   0  0  0  0  0  0  0  0  0  0  0  0
   -3.0130    0.8590   -3.2930 C   0  0  0  0  0  0  0  0  0  0  0  0
   -2.1070   -0.1940   -2.8600 C   0  0  0  0  0  0  0  0  0  0  0  0
   -1.6560   -0.4350   -1.6520 C   0  0  0  0  0  0  0  0  0  0  0  0
   -0.9460   -1.7360   -1.4320 C   0  0  0  0  0  0  0  0  0  0  0  0
  1  2  1  0
  2  3  2  3
  3  4  1  0
  3  5  1  0
  5  6  1  0
  5 19  2  3
  6  7  2  0
  6  8  1  0
  8  9  2  3
  9 10  1  0
  9 11  1  0
 11 12  2  3
 12 13  1  0
 12 17  1  0
 13 14  2  0
 14 15  1  0
 14 16  1  0
 16 17  1  0
 17 18  2  0
 19 20  1  0
 19 24  1  0
 20 21  2  0
 21 22  1  0
 22 23  1  0
 23 24  2  0
 24 25  1  0
M  END
