
     RDKit          3D

 25 27  0  0  0  0  0  0  0  0999 V2000
   -4.8450   -0.4110   -0.7530 C   0  0  0  0  0  0  0  0  0  0  0  0
   -4.6400    0.6740   -0.0680 C   0  0  0  0  0  0  0  0  0  0  0  0
   -3.3920    1.1540    0.4570 C   0  0  0  0  0  0  0  0  0  0  0  0
   -3.3820    2.3050    1.1270 C   0  0  0  0  0  0  0  0  0  0  0  0
   -4.5670    3.1400    1.3850 C   0  0  0  0  0  0  0  0  0  0  0  0
   -2.1690    0.4050    0.3140 N   0  0  0  0  0  0  0  0  0  0  0  0
   -1.9410   -0.8020    1.0240 C   0  0  0  0  0  0  0  0  0  0  0  0
   -0.5740   -1.3280    1.0510 C   0  0  0  0  0  0  0  0  0  0  0  0
   -0.4090   -2.5420    1.7350 C   0  0  0  0  0  0  0  0  0  0  0  0
   -1.5550   -3.2310    2.3180 C   0  0  0  0  0  0  0  0  0  0  0  0
   -2.4660   -3.7860    2.7630 N   0  0  0  0  0  0  0  0  0  0  0  0
    0.8500   -3.0710    1.8300 C   0  0  0  0  0  0  0  0  0  0  0  0
    0.9780   -4.1630    2.4500 O   0  0  0  0  0  0  0  0  0  0  0  0
    1.9490   -2.5000    1.3070 N   0  0  0  0  0  0  0  0  0  0  0  0
    1.7980   -1.3470    0.6560 C   0  0  0  0  0  0  0  0  0  0  0  0
    2.7330   -0.5420    0.0260 C   0  0  0  0  0  0  0  0  0  0  0  0
    2.0050    0.5130   -0.4690 C   0  0  0  0  0  0  0  0  0  0  0  0
    0.7420    0.3590   -0.1640 O   0  0  0  0  0  0  0  0  0  0  0  0
    0.5450   -0.7420    0.5150 C   0  0  0  0  0  0  0  0  0  0  0  0
    2.7710    1.5600   -1.2120 C   0  0  0  0  0  0  0  0  0  0  0  0
    3.8980    1.0260   -2.0310 C   0  0  2  0  0  0  0  0  0  0  0  0
    3.3540    0.3180   -3.2320 C   0  0  0  0  0  0  0  0  0  0  0  0
    4.8660    0.1690   -1.2320 C   0  0  0  0  0  0  0  0  0  0  0  0
    4.1660   -0.5880   -0.1830 C   0  0  0  0  0  0  0  0  0  0  0  0
    4.8250   -1.3260    0.5920 O   0  0  0  0  0  0  0  0  0  0  0  0
  1  2  2  0
  2  3  1  0
  3  4  2  3
  3  6  1  0
  4  5  1  0
  6  7  1  0
  7  8  1  0
  8  9  2  0
  8 19  1  0
  9 10  1  0
  9 12  1  0
 10 11  3  0
 12 13  2  0
 12 14  1  0
 14 15  1  0
 15 16  1  0
 15 19  2  0
 16 17  2  0
 16 24  1  0
 17 18  1  0
 17 20  1  0
 18 19  1  0
 20 21  1  0
 21 22  1  6
 21 23  1  0
 23 24  1  0
 24 25  2  0
M  END
