
     RDKit          3D

 31 33  0  0  0  0  0  0  0  0999 V2000
   -7.0970    2.9430    0.2520 N   0  0  0  0  0  0  0  0  0  0  0  0
   -5.8270    2.4580    0.6520 C   0  0  0  0  0  0  0  0  0  0  0  0
   -5.0520    3.0860    1.5380 N   0  0  0  0  0  0  0  0  0  0  0  0
   -3.8450    2.6130    1.9080 C   0  0  0  0  0  0  0  0  0  0  0  0
   -3.3610    1.4680    1.3930 N   0  0  0  0  0  0  0  0  0  0  0  0
   -4.0970    0.8030    0.5040 C   0  0  0  0  0  0  0  0  0  0  0  0
   -5.3260    1.2730    0.1180 C   0  0  0  0  0  0  0  0  0  0  0  0
   -5.8080    0.4070   -0.7640 N   0  0  0  0  0  0  0  0  0  0  0  0
   -4.9020   -0.5770   -0.9230 C   0  0  0  0  0  0  0  0  0  0  0  0
   -3.8400   -0.3390   -0.1410 N   0  0  0  0  0  0  0  0  0  0  0  0
   -2.6890   -1.2050   -0.0770 C   0  0  2  0  0  0  0  0  0  0  0  0
   -1.5950   -0.6140    0.5020 O   0  0  0  0  0  0  0  0  0  0  0  0
   -0.5090   -1.3900    0.1840 C   0  0  2  0  0  0  0  0  0  0  0  0
    0.7530   -0.5820   -0.0290 C   0  0  0  0  0  0  0  0  0  0  0  0
    1.7820   -1.4700   -0.3450 O   0  0  0  0  0  0  0  0  0  0  0  0
    3.2370   -0.6490   -0.6010 P   0  0  1  0  0  0  0  0  0  0  0  0
    3.2210    0.0970   -1.9270 O   0  0  0  0  0  0  0  0  0  0  0  0
    3.4090    0.5000    0.6540 O   0  0  0  0  0  0  0  0  0  0  0  0
    4.5170   -1.7360   -0.5690 O   0  0  0  0  0  0  0  0  0  0  0  0
    5.8170   -0.9660    0.2060 P   0  0  2  0  0  0  0  0  0  0  0  0
    7.1080   -1.6140   -0.1710 O   0  0  0  0  0  0  0  0  0  0  0  0
    5.6220   -1.0890    1.8800 O   0  0  0  0  0  0  0  0  0  0  0  0
    5.8140    0.6670   -0.2130 O   0  0  0  0  0  0  0  0  0  0  0  0
    6.7840    1.5820    0.8050 P   0  0  1  0  0  0  0  0  0  0  0  0
    5.9740    2.0350    1.9980 O   0  0  0  0  0  0  0  0  0  0  0  0
    8.1130    0.6440    1.2910 O   0  0  0  0  0  0  0  0  0  0  0  0
    7.3660    2.9170   -0.0570 O   0  0  0  0  0  0  0  0  0  0  0  0
   -0.8030   -2.1210   -1.0930 C   0  0  1  0  0  0  0  0  0  0  0  0
   -1.0710   -3.4730   -0.8190 O   0  0  0  0  0  0  0  0  0  0  0  0
   -2.1560   -1.5110   -1.4830 C   0  0  1  0  0  0  0  0  0  0  0  0
   -2.9230   -2.4440   -2.1350 O   0  0  0  0  0  0  0  0  0  0  0  0
  1  2  1  0
  2  3  2  0
  2  7  1  0
  3  4  1  0
  4  5  2  0
  5  6  1  0
  6  7  2  0
  6 10  1  0
  7  8  1  0
  8  9  2  0
  9 10  1  0
 11 10  1  6
 11 12  1  0
 11 30  1  0
 12 13  1  0
 13 14  1  6
 13 28  1  0
 14 15  1  0
 15 16  1  0
 16 17  2  0
 16 18  1  1
 16 19  1  0
 19 20  1  0
 20 21  2  0
 20 22  1  1
 20 23  1  0
 23 24  1  0
 24 25  2  0
 24 26  1  1
 24 27  1  0
 28 29  1  1
 28 30  1  0
 30 31  1  1
M  END
