
     RDKit          3D

 30 31  0  0  0  0  0  0  0  0999 V2000
    5.5080   -1.1380   -0.0830 N   0  0  0  0  0  0  0  0  0  0  0  0
    5.6120    0.1160   -0.3590 C   0  0  0  0  0  0  0  0  0  0  0  0
    4.4210    0.8350   -0.5770 N   0  0  0  0  0  0  0  0  0  0  0  0
    3.1670    0.4090   -0.2150 O   0  0  0  0  0  0  0  0  0  0  0  0
    2.6170   -0.7180   -0.8060 C   0  0  0  0  0  0  0  0  0  0  0  0
    3.3230   -1.3020   -1.6680 O   0  0  0  0  0  0  0  0  0  0  0  0
    1.2510   -1.1990   -0.4240 C   0  0  1  0  0  0  0  0  0  0  0  0
    1.2470   -1.5270    1.0690 C   0  0  0  0  0  0  0  0  0  0  0  0
    1.4280   -0.3410    1.7770 O   0  0  0  0  0  0  0  0  0  0  0  0
    0.4450    0.5740    1.4710 C   0  0  0  0  0  0  0  0  0  0  0  0
    0.4670    0.9880    0.1400 O   0  0  0  0  0  0  0  0  0  0  0  0
    0.2910   -0.0790   -0.7300 C   0  0  2  0  0  0  0  0  0  0  0  0
   -1.1050   -0.5960   -0.5440 C   0  0  0  0  0  0  0  0  0  0  0  0
   -1.4770   -1.8850   -0.4390 N   0  0  0  0  0  0  0  0  0  0  0  0
   -2.7830   -1.9360   -0.2850 O   0  0  0  0  0  0  0  0  0  0  0  0
   -3.2740   -0.7280   -0.2860 C   0  0  0  0  0  0  0  0  0  0  0  0
   -4.7280   -0.3800   -0.1340 C   0  0  1  0  0  0  0  0  0  0  0  0
   -4.8290    0.5710    1.0280 C   0  0  0  0  0  0  0  0  0  0  0  0
   -4.0440    1.6960    0.6920 O   0  0  0  0  0  0  0  0  0  0  0  0
   -4.0630    2.5880    1.6370 O   0  0  0  0  0  0  0  0  0  0  0  0
   -5.2250    0.5600   -1.6710 P   0  0  0  0  0  0  0  0  0  0  0  0
   -5.2230   -0.4660   -3.0610 O   0  0  0  0  0  0  0  0  0  0  0  0
   -7.1800    1.5240   -1.3830 P   0  0  0  0  0  0  0  0  0  0  0  0
   -8.0560    0.6050   -0.1990 O   0  0  0  0  0  0  0  0  0  0  0  0
   -6.9100    3.1500   -0.8490 O   0  0  0  0  0  0  0  0  0  0  0  0
   -2.2410    0.1160   -0.4460 N   0  0  0  0  0  0  0  0  0  0  0  0
    6.9100    0.6810   -0.4220 N   0  0  0  0  0  0  0  0  0  0  0  0
    8.3340   -0.0700    0.3780 P   0  0  0  0  0  0  0  0  0  0  0  0
    7.8680   -0.4410    2.0090 O   0  0  0  0  0  0  0  0  0  0  0  0
    8.6380   -1.5790   -0.4250 O   0  0  0  0  0  0  0  0  0  0  0  0
  1  2  2  0
  2  3  1  0
  2 27  1  0
  3  4  1  0
  4  5  1  0
  5  6  2  0
  7  5  1  1
  7  8  1  0
  7 12  1  0
  8  9  1  0
  9 10  1  0
 10 11  1  0
 11 12  1  0
 12 13  1  1
 13 14  2  0
 13 26  1  0
 14 15  1  0
 15 16  1  0
 16 17  1  0
 16 26  2  0
 17 18  1  1
 17 21  1  0
 18 19  1  0
 19 20  1  0
 21 22  1  0
 21 23  1  0
 23 24  1  0
 23 25  1  0
 27 28  1  0
 28 29  1  0
 28 30  1  0
M  END
