
     RDKit          3D

 31 32  0  0  0  0  0  0  0  0999 V2000
    2.6450   -1.0580   -1.7190 N   0  0  0  0  0  0  0  0  0  0  0  0
    2.3100   -0.1060   -0.9070 C   0  0  0  0  0  0  0  0  0  0  0  0
    0.9730   -0.1330   -0.3960 N   0  0  0  0  0  0  0  0  0  0  0  0
   -0.0760    0.3540   -1.1950 C   0  0  0  0  0  0  0  0  0  0  0  0
   -1.4340    0.1590   -0.5980 C   0  0  0  0  0  0  0  0  0  0  0  0
   -2.1830    1.1100   -0.1310 N   0  0  0  0  0  0  0  0  0  0  0  0
   -3.3930    0.6330    0.3620 N   0  0  0  0  0  0  0  0  0  0  0  0
   -4.4670    1.4300    0.9540 C   0  0  1  0  0  0  0  0  0  0  0  0
   -5.8560    1.1120    0.4430 C   0  0  0  0  0  0  0  0  0  0  0  0
   -6.2740    1.5010    1.7620 O   0  0  0  0  0  0  0  0  0  0  0  0
   -5.0650    0.9000    2.1870 C   0  0  0  0  0  0  0  0  0  0  0  0
   -4.8060    0.2380    3.2100 O   0  0  0  0  0  0  0  0  0  0  0  0
   -3.4170   -0.7660    0.1930 C   0  0  0  0  0  0  0  0  0  0  0  0
   -4.3480   -1.5850    0.5190 O   0  0  0  0  0  0  0  0  0  0  0  0
   -2.1260   -1.1280   -0.4530 C   0  0  1  0  0  0  0  0  0  0  0  0
   -2.5120   -1.6820   -1.6970 O   0  0  0  0  0  0  0  0  0  0  0  0
   -2.1860   -2.9750   -1.7190 O   0  0  0  0  0  0  0  0  0  0  0  0
   -1.1880   -3.3740   -3.0660 P   0  0  0  0  0  0  0  0  0  0  0  0
   -1.1980   -2.4130   -4.2950 O   0  0  0  0  0  0  0  0  0  0  0  0
    0.8280   -0.6530    0.9390 C   0  0  0  0  0  0  0  0  0  0  0  0
    1.3830   -2.4070    1.0760 P   0  0  0  0  0  0  0  0  0  0  0  0
    3.1110   -2.5580    1.0910 O   0  0  0  0  0  0  0  0  0  0  0  0
    0.7040   -3.1010    2.4970 O   0  0  0  0  0  0  0  0  0  0  0  0
    3.2580    0.9020   -0.5470 N   0  0  0  0  0  0  0  0  0  0  0  0
    3.8200    1.6830   -1.5770 C   0  0  0  0  0  0  0  0  0  0  0  0
    3.4820    1.4850   -2.7660 O   0  0  0  0  0  0  0  0  0  0  0  0
    4.7480    2.6800   -1.3350 O   0  0  0  0  0  0  0  0  0  0  0  0
    5.2490    3.3890   -2.3640 O   0  0  0  0  0  0  0  0  0  0  0  0
    3.7520    1.2240    1.1220 P   0  0  0  0  0  0  0  0  0  0  0  0
    3.5280    2.8340    1.6430 O   0  0  0  0  0  0  0  0  0  0  0  0
    5.1980    0.4790    1.6180 O   0  0  0  0  0  0  0  0  0  0  0  0
  1  2  2  0
  2  3  1  0
  2 24  1  0
  3  4  1  0
  3 20  1  0
  4  5  1  0
  5  6  2  0
  5 15  1  0
  6  7  1  0
  8  7  1  6
  7 13  1  0
  8  9  1  0
  8 11  1  0
  9 10  1  0
 10 11  1  0
 11 12  2  0
 13 14  2  0
 13 15  1  0
 15 16  1  6
 16 17  1  0
 17 18  1  0
 18 19  2  0
 20 21  1  0
 21 22  1  0
 21 23  1  0
 24 25  1  0
 24 29  1  0
 25 26  2  0
 25 27  1  0
 27 28  1  0
 29 30  1  0
 29 31  1  0
M  END
