
     RDKit          3D

 30 31  0  0  0  0  0  0  0  0999 V2000
    7.3350    1.7350   -0.7680 O   0  0  0  0  0  0  0  0  0  0  0  0
    6.5570    1.1810    0.0520 C   0  0  0  0  0  0  0  0  0  0  0  0
    7.0440    0.1560    0.8370 O   0  0  0  0  0  0  0  0  0  0  0  0
    5.1880    1.6280    0.1460 N   0  0  0  0  0  0  0  0  0  0  0  0
    4.6860    2.6710   -0.6500 C   0  0  0  0  0  0  0  0  0  0  0  0
    5.5050    3.2120   -1.4580 O   0  0  0  0  0  0  0  0  0  0  0  0
    3.3250    3.1960   -0.6430 C   0  0  0  0  0  0  0  0  0  0  0  0
    2.4170    2.5380    0.1990 O   0  0  0  0  0  0  0  0  0  0  0  0
    2.0370    1.2100    0.0830 C   0  0  0  0  0  0  0  0  0  0  0  0
    2.5200    0.5260   -0.8360 O   0  0  0  0  0  0  0  0  0  0  0  0
    1.1180    0.5870    0.9650 N   0  0  0  0  0  0  0  0  0  0  0  0
    0.7130   -0.8020    0.8510 C   0  0  2  0  0  0  0  0  0  0  0  0
    2.2600   -1.8350    0.8380 P   0  0  0  0  0  0  0  0  0  0  0  0
    1.9690   -3.3830    1.5640 O   0  0  0  0  0  0  0  0  0  0  0  0
    2.7680   -2.1060   -0.7970 O   0  0  0  0  0  0  0  0  0  0  0  0
    0.0670   -0.9600   -0.5060 C   0  0  0  0  0  0  0  0  0  0  0  0
   -1.3670   -1.1680   -0.4150 N   0  0  0  0  0  0  0  0  0  0  0  0
   -2.2800   -0.4480   -1.2730 C   0  0  0  0  0  0  0  0  0  0  0  0
   -3.6770   -0.9730   -1.0030 C   0  0  1  0  0  0  0  0  0  0  0  0
   -4.5310   -0.6500   -2.0320 O   0  0  0  0  0  0  0  0  0  0  0  0
   -5.8060    0.3440   -1.4040 P   0  0  0  0  0  0  0  0  0  0  0  0
   -6.9900   -0.7020   -0.6800 O   0  0  0  0  0  0  0  0  0  0  0  0
   -5.0020    1.6780    0.1520 P   0  0  0  0  0  0  0  0  0  0  0  0
   -5.9510    1.5270    1.6150 O   0  0  0  0  0  0  0  0  0  0  0  0
   -5.0160    3.3370   -0.3720 O   0  0  0  0  0  0  0  0  0  0  0  0
   -3.6190   -2.3790   -0.7720 O   0  0  0  0  0  0  0  0  0  0  0  0
   -2.9560   -2.7420    0.4010 N   0  0  0  0  0  0  0  0  0  0  0  0
   -1.8160   -2.1120    0.5570 C   0  0  0  0  0  0  0  0  0  0  0  0
   -0.9360   -2.3320    1.7270 C   0  0  0  0  0  0  0  0  0  0  0  0
   -0.1510   -1.1420    1.9450 N   0  0  0  0  0  0  0  0  0  0  0  0
  1  2  2  0
  2  3  1  0
  2  4  1  0
  4  5  1  0
  5  6  2  0
  5  7  1  0
  7  8  1  0
  8  9  1  0
  9 10  2  0
  9 11  1  0
 12 11  1  1
 12 13  1  0
 12 16  1  0
 12 30  1  0
 13 14  1  0
 13 15  1  0
 16 17  1  0
 17 18  1  0
 17 28  1  0
 18 19  1  0
 19 20  1  6
 19 26  1  0
 20 21  1  0
 21 22  1  0
 21 23  1  0
 23 24  1  0
 23 25  1  0
 26 27  1  0
 27 28  2  0
 28 29  1  0
 29 30  1  0
M  END
