
     RDKit          3D

 10 11  0  0  0  0  0  0  0  0999 V2000
   -0.7360    2.2700    0.1910 O   0  0  0  0  0  0  0  0  0  0  0  0
   -0.8020    1.0170    0.0580 C   0  0  0  0  0  0  0  0  0  0  0  0
   -1.9530    0.3500   -0.0770 N   0  0  0  0  0  0  0  0  0  0  0  0
   -1.9970   -0.9870   -0.2170 C   0  0  0  0  0  0  0  0  0  0  0  0
   -0.8380   -1.6530   -0.2190 N   0  0  0  0  0  0  0  0  0  0  0  0
    0.3470   -1.0260   -0.0860 C   0  0  0  0  0  0  0  0  0  0  0  0
    1.6420   -1.4380   -0.0530 N   0  0  0  0  0  0  0  0  0  0  0  0
    2.4680   -0.3890    0.1030 C   0  0  0  0  0  0  0  0  0  0  0  0
    1.6990    0.7160    0.1720 N   0  0  0  0  0  0  0  0  0  0  0  0
    0.4110    0.3440    0.0590 C   0  0  0  0  0  0  0  0  0  0  0  0
  1  2  2  0
  2  3  1  0
  2 10  1  0
  3  4  1  0
  4  5  2  0
  5  6  1  0
  6  7  1  0
  6 10  2  0
  7  8  2  0
  8  9  1  0
  9 10  1  0
M  END
