
     RDKit          3D

 28 29  0  0  0  0  0  0  0  0999 V2000
    8.3030   -0.7350   -1.2560 C   0  0  0  0  0  0  0  0  0  0  0  0
    7.1730   -0.3090   -1.7760 C   0  0  0  0  0  0  0  0  0  0  0  0
    6.7070   -0.9440   -3.0170 C   0  0  0  0  0  0  0  0  0  0  0  0
    5.5880   -0.5660   -3.5890 C   0  0  0  0  0  0  0  0  0  0  0  0
    4.8210    0.4670   -3.0050 N   0  0  0  0  0  0  0  0  0  0  0  0
    4.0920    0.1880   -1.9750 C   0  0  0  0  0  0  0  0  0  0  0  0
    4.0260   -1.1770   -1.3750 C   0  0  0  0  0  0  0  0  0  0  0  0
    2.6300   -1.3450   -0.9050 C   0  0  0  0  0  0  0  0  0  0  0  0
    2.0570   -2.4720   -0.9750 O   0  0  0  0  0  0  0  0  0  0  0  0
    1.8630   -0.2190   -0.3440 C   0  0  0  0  0  0  0  0  0  0  0  0
    2.2370    1.0130   -0.6100 C   0  0  0  0  0  0  0  0  0  0  0  0
    1.5420    2.2140   -0.0980 C   0  0  0  0  0  0  0  0  0  0  0  0
    0.8240    1.8530    1.1770 C   0  0  0  0  0  0  0  0  0  0  0  0
   -0.0080    0.7000    0.8900 N   0  0  0  0  0  0  0  0  0  0  0  0
   -1.3980    0.8240    0.9530 C   0  0  0  0  0  0  0  0  0  0  0  0
   -1.8710    1.9880    1.2080 O   0  0  0  0  0  0  0  0  0  0  0  0
   -2.4060   -0.2450    0.7580 C   0  0  2  0  0  0  0  0  0  0  0  0
   -3.7080    0.3330    0.7000 N   0  0  0  0  0  0  0  0  0  0  0  0
   -4.4870    0.2500   -0.4690 C   0  0  0  0  0  0  0  0  0  0  0  0
   -3.9570   -0.3580   -1.4350 O   0  0  0  0  0  0  0  0  0  0  0  0
   -5.8080    0.7960   -0.6360 C   0  0  0  0  0  0  0  0  0  0  0  0
   -6.4800    1.4550    0.2910 C   0  0  0  0  0  0  0  0  0  0  0  0
   -7.8430    1.9900    0.0450 C   0  0  0  0  0  0  0  0  0  0  0  0
   -2.2460   -1.2850    1.8320 C   0  0  2  0  0  0  0  0  0  0  0  0
   -3.2510   -2.3900    1.6730 C   0  0  0  0  0  0  0  0  0  0  0  0
   -2.2880   -0.6720    3.2260 C   0  0  0  0  0  0  0  0  0  0  0  0
    0.6530   -0.5170    0.5150 C   0  0  0  0  0  0  0  0  0  0  0  0
    3.3550    1.2050   -1.4270 O   0  0  0  0  0  0  0  0  0  0  0  0
  1  2  2  0
  2  3  1  0
  3  4  2  3
  4  5  1  0
  5  6  2  3
  6  7  1  0
  6 28  1  0
  7  8  1  0
  8  9  2  0
  8 10  1  0
 10 11  2  0
 10 27  1  0
 11 12  1  0
 11 28  1  0
 12 13  1  0
 13 14  1  0
 14 15  1  0
 14 27  1  0
 15 16  2  0
 15 17  1  0
 17 18  1  1
 17 24  1  0
 18 19  1  0
 19 20  2  0
 19 21  1  0
 21 22  2  3
 22 23  1  0
 24 25  1  1
 24 26  1  0
M  END
