
     RDKit          3D

 28 29  0  0  0  0  0  0  0  0999 V2000
   -3.3490   -0.6100    1.6160 C   0  0  0  0  0  0  0  0  0  0  0  0
   -3.0270   -0.5310    0.1580 C   0  0  0  0  0  0  0  0  0  0  0  0
   -1.7780   -0.8150   -0.2780 C   0  0  0  0  0  0  0  0  0  0  0  0
   -0.7630   -1.1930    0.7000 C   0  0  2  0  0  0  0  0  0  0  0  0
    0.6950   -1.3200    0.4020 C   0  0  2  0  0  0  0  0  0  0  0  0
    1.1990   -0.9270   -0.9040 C   0  0  0  0  0  0  0  0  0  0  0  0
    0.4310   -1.2730   -1.8900 O   0  0  0  0  0  0  0  0  0  0  0  0
    2.3820   -0.2330   -1.2860 N   0  0  0  0  0  0  0  0  0  0  0  0
    2.5200   -0.0670   -2.7200 C   0  0  0  0  0  0  0  0  0  0  0  0
    3.2850    0.2260   -0.3450 C   0  0  0  0  0  0  0  0  0  0  0  0
    2.8480   -0.0610    0.8750 O   0  0  0  0  0  0  0  0  0  0  0  0
    4.5450    0.9170   -0.3400 C   0  0  0  0  0  0  0  0  0  0  0  0
    5.1200    1.2030    0.9060 C   0  0  0  0  0  0  0  0  0  0  0  0
    4.4810    0.8380    2.1920 C   0  0  0  0  0  0  0  0  0  0  0  0
    6.3120    1.8440    0.9870 N   0  0  0  0  0  0  0  0  0  0  0  0
    6.9620    2.2150   -0.1090 C   0  0  0  0  0  0  0  0  0  0  0  0
    8.0660    2.8070    0.0530 O   0  0  0  0  0  0  0  0  0  0  0  0
    6.4420    1.9580   -1.3060 N   0  0  0  0  0  0  0  0  0  0  0  0
    5.2440    1.3140   -1.4210 C   0  0  0  0  0  0  0  0  0  0  0  0
    4.8870    1.1430   -2.5920 O   0  0  0  0  0  0  0  0  0  0  0  0
   -0.1590   -2.5690    0.5190 C   0  0  1  0  0  0  0  0  0  0  0  0
   -0.0870   -3.3790    1.8100 C   0  0  0  0  0  0  0  0  0  0  0  0
   -0.3770   -3.3260   -0.7490 C   0  0  0  0  0  0  0  0  0  0  0  0
   -4.0650   -0.1620   -0.8040 C   0  0  0  0  0  0  0  0  0  0  0  0
   -4.6680    1.1900   -0.6450 C   0  0  2  0  0  0  0  0  0  0  0  0
   -5.7110    1.3760   -1.7450 C   0  0  0  0  0  0  0  0  0  0  0  0
   -3.6330    2.2690   -0.8500 C   0  0  0  0  0  0  0  0  0  0  0  0
   -5.3760    1.4420    0.6480 C   0  0  0  0  0  0  0  0  0  0  0  0
  1  2  1  0
  2  3  2  3
  2 24  1  0
  4  3  1  6
  4  5  1  0
  4 21  1  0
  5  6  1  6
  5 21  1  0
  6  7  2  0
  6  8  1  0
  8  9  1  0
  8 10  1  0
 10 11  2  0
 10 12  1  0
 12 13  2  0
 12 19  1  0
 13 14  1  0
 13 15  1  0
 15 16  1  0
 16 17  2  0
 16 18  1  0
 18 19  1  0
 19 20  2  0
 21 22  1  1
 21 23  1  0
 24 25  1  0
 25 26  1  6
 25 27  1  0
 25 28  1  0
M  END
