
     RDKit          3D

 28 31  0  0  0  0  0  0  0  0999 V2000
   -2.9810   -5.4140   -1.6200 C   0  0  0  0  0  0  0  0  0  0  0  0
   -2.0360   -4.3290   -1.5250 N   0  0  0  0  0  0  0  0  0  0  0  0
   -2.3780   -3.1170   -0.8690 C   0  0  0  0  0  0  0  0  0  0  0  0
   -3.6360   -2.9550   -0.2970 C   0  0  0  0  0  0  0  0  0  0  0  0
   -3.9770   -1.7930    0.3360 C   0  0  0  0  0  0  0  0  0  0  0  0
   -3.0940   -0.7380    0.4350 C   0  0  0  0  0  0  0  0  0  0  0  0
   -1.8440   -0.8500   -0.1120 C   0  0  0  0  0  0  0  0  0  0  0  0
   -1.5260   -2.0590   -0.7560 C   0  0  0  0  0  0  0  0  0  0  0  0
   -0.7910    0.1800   -0.0900 C   0  0  2  0  0  0  0  0  0  0  0  0
    0.3980   -0.4070    0.5590 C   0  0  0  0  0  0  0  0  0  0  0  0
    0.5140   -1.0310    1.7810 C   0  0  0  0  0  0  0  0  0  0  0  0
    1.8180   -1.4070    1.9400 N   0  0  0  0  0  0  0  0  0  0  0  0
    2.5110   -1.0460    0.8760 N   0  0  0  0  0  0  0  0  0  0  0  0
    1.6620   -0.4300    0.0120 C   0  0  0  0  0  0  0  0  0  0  0  0
    2.2520    0.0580   -1.2630 C   0  0  0  0  0  0  0  0  0  0  0  0
    3.5560    0.7850   -1.0380 C   0  0  0  0  0  0  0  0  0  0  0  0
    4.3430    0.2710    0.1210 C   0  0  2  0  0  0  0  0  0  0  0  0
    5.7120    0.3490   -0.0400 O   0  0  0  0  0  0  0  0  0  0  0  0
    3.8920   -1.1560    0.4540 C   0  0  0  0  0  0  0  0  0  0  0  0
   -1.2330    1.4300    0.6180 C   0  0  0  0  0  0  0  0  0  0  0  0
   -0.3470    2.4110    0.6810 C   0  0  0  0  0  0  0  0  0  0  0  0
   -0.4470    3.7110    1.2730 C   0  0  0  0  0  0  0  0  0  0  0  0
   -0.2270    4.7660    0.1850 C   0  0  0  0  0  0  0  0  0  0  0  0
   -0.3240    6.1310    0.7570 C   0  0  0  0  0  0  0  0  0  0  0  0
   -0.1680    7.0720    0.0010 O   0  0  0  0  0  0  0  0  0  0  0  0
   -2.5720    1.4640    1.1670 C   0  0  0  0  0  0  0  0  0  0  0  0
   -2.9330    2.5430    1.7730 O   0  0  0  0  0  0  0  0  0  0  0  0
   -3.4960    0.4360    1.0970 O   0  0  0  0  0  0  0  0  0  0  0  0
  1  2  1  0
  2  3  1  0
  3  4  2  0
  3  8  1  0
  4  5  1  0
  5  6  2  0
  6  7  1  0
  6 28  1  0
  7  8  2  0
  7  9  1  0
  9 10  1  1
  9 20  1  0
 10 11  1  0
 10 14  2  0
 11 12  2  0
 12 13  1  0
 13 14  1  0
 13 19  1  0
 14 15  1  0
 15 16  1  0
 16 17  1  0
 17 18  1  6
 17 19  1  0
 20 21  2  3
 20 26  1  0
 21 22  1  0
 22 23  1  0
 23 24  1  0
 24 25  2  0
 26 27  2  0
 26 28  1  0
M  END
