
     RDKit          3D

 19 19  0  0  0  0  0  0  0  0999 V2000
   -1.1560   -3.3970    1.4470 C   0  0  0  0  0  0  0  0  0  0  0  0
   -0.6520   -2.2360    1.0850 C   0  0  0  0  0  0  0  0  0  0  0  0
   -0.2170   -1.2420    1.9330 O   0  0  0  0  0  0  0  0  0  0  0  0
   -0.2350    0.0680    1.7430 O   0  0  0  0  0  0  0  0  0  0  0  0
   -1.0320    0.4550    0.6300 C   0  0  2  0  0  0  0  0  0  0  0  0
   -1.2160    1.9250    0.7330 C   0  0  0  0  0  0  0  0  0  0  0  0
   -2.1860   -0.2720    0.8370 O   0  0  0  0  0  0  0  0  0  0  0  0
   -3.2180   -0.2270    0.0090 C   0  0  0  0  0  0  0  0  0  0  0  0
   -3.9320    1.0510   -0.2530 C   0  0  0  0  0  0  0  0  0  0  0  0
   -0.2550    0.0400   -0.5580 C   0  0  1  0  0  0  0  0  0  0  0  0
   -0.6500    0.5690   -1.7550 O   0  0  0  0  0  0  0  0  0  0  0  0
    0.1400    0.1010   -2.6990 O   0  0  0  0  0  0  0  0  0  0  0  0
    1.0980    0.1570   -0.4060 O   0  0  0  0  0  0  0  0  0  0  0  0
    1.9710    1.1670   -0.2120 C   0  0  0  0  0  0  0  0  0  0  0  0
    1.5410    2.3400   -0.1550 O   0  0  0  0  0  0  0  0  0  0  0  0
    3.4520    0.9180   -0.0630 C   0  0  0  0  0  0  0  0  0  0  0  0
    3.6750   -0.4440   -0.1610 O   0  0  0  0  0  0  0  0  0  0  0  0
    5.0280   -0.7300   -0.0300 C   0  0  0  0  0  0  0  0  0  0  0  0
   -0.4870   -1.8410   -0.6890 S   0  0  0  0  0  0  0  0  0  0  0  0
  1  2  2  0
  2  3  1  0
  2 19  1  0
  3  4  1  0
  4  5  1  0
  5  6  1  6
  5  7  1  0
  5 10  1  0
  7  8  1  0
  8  9  1  0
 10 11  1  6
 10 13  1  0
 10 19  1  0
 11 12  1  0
 13 14  1  0
 14 15  2  0
 14 16  1  0
 16 17  1  0
 17 18  1  0
M  END
