
     RDKit          3D

 20 21  0  0  0  0  0  0  0  0999 V2000
   -4.2760   -0.5270   -0.8410 C   0  0  0  0  0  0  0  0  0  0  0  0
   -3.1000    0.2360   -0.9590 O   0  0  0  0  0  0  0  0  0  0  0  0
   -2.1540    0.0860    0.0770 C   0  0  0  0  0  0  0  0  0  0  0  0
   -2.0820    1.0040    1.0220 C   0  0  0  0  0  0  0  0  0  0  0  0
   -3.0320    2.1680    0.9260 C   0  0  0  0  0  0  0  0  0  0  0  0
   -2.3720    3.3660    0.8300 O   0  0  0  0  0  0  0  0  0  0  0  0
   -1.1800    0.9470    2.0890 O   0  0  0  0  0  0  0  0  0  0  0  0
    0.2460   -0.0710    1.9590 P   0  0  0  0  0  0  0  0  0  0  0  0
    1.6410    0.8600    1.3520 O   0  0  0  0  0  0  0  0  0  0  0  0
    1.9470    0.3180    0.1220 C   0  0  0  0  0  0  0  0  0  0  0  0
    3.1680    0.3160   -0.3750 C   0  0  0  0  0  0  0  0  0  0  0  0
    3.5300   -0.4050   -1.9950 S   0  0  0  0  0  0  0  0  0  0  0  0
    4.3490    0.8940    0.3260 C   0  0  0  0  0  0  0  0  0  0  0  0
    4.9100    1.8990   -0.4290 O   0  0  0  0  0  0  0  0  0  0  0  0
    0.7770   -0.2520   -0.5700 C   0  0  0  0  0  0  0  0  0  0  0  0
   -0.0070   -1.0970    0.3990 C   0  0  1  0  0  0  0  0  0  0  0  0
    0.6010   -2.8020    0.5890 P   0  0  0  0  0  0  0  0  0  0  0  0
    2.0410   -3.1250   -0.3150 O   0  0  0  0  0  0  0  0  0  0  0  0
   -0.6710   -3.9100    0.1910 O   0  0  0  0  0  0  0  0  0  0  0  0
   -1.3650   -1.0360    0.0120 O   0  0  0  0  0  0  0  0  0  0  0  0
  1  2  1  0
  2  3  1  0
  3  4  2  0
  3 20  1  0
  4  5  1  0
  4  7  1  0
  5  6  1  0
  7  8  1  0
  8  9  1  0
  8 16  1  0
  9 10  1  0
 10 11  2  3
 10 15  1  0
 11 12  1  0
 11 13  1  0
 13 14  1  0
 15 16  1  0
 16 17  1  1
 16 20  1  0
 17 18  1  0
 17 19  1  0
M  END
