
     RDKit          3D

 27 29  0  0  0  0  0  0  0  0999 V2000
   -6.1140   -2.8420    0.1040 C   0  0  0  0  0  0  0  0  0  0  0  0
   -5.0880   -2.3210   -0.8930 C   0  0  0  0  0  0  0  0  0  0  0  0
   -4.3440   -1.1640   -0.3460 C   0  0  0  0  0  0  0  0  0  0  0  0
   -3.0530   -1.3210    0.1070 C   0  0  0  0  0  0  0  0  0  0  0  0
   -2.2990   -0.3000    0.6280 C   0  0  0  0  0  0  0  0  0  0  0  0
   -0.9720   -0.5220    1.0810 N   0  0  0  0  0  0  0  0  0  0  0  0
    0.1800   -0.5630    0.4140 C   0  0  0  0  0  0  0  0  0  0  0  0
    1.2060   -0.8090    1.2950 C   0  0  0  0  0  0  0  0  0  0  0  0
    2.6450   -0.9400    1.0240 C   0  0  0  0  0  0  0  0  0  0  0  0
    3.1250   -0.8260   -0.1950 C   0  0  0  0  0  0  0  0  0  0  0  0
    4.5290   -0.9410   -0.5530 C   0  0  0  0  0  0  0  0  0  0  0  0
    4.8640   -0.8110   -1.7670 O   0  0  0  0  0  0  0  0  0  0  0  0
    5.5530   -1.1940    0.3980 N   0  0  0  0  0  0  0  0  0  0  0  0
    6.9350   -1.3060    0.0350 C   0  0  0  0  0  0  0  0  0  0  0  0
    7.4900   -0.0700   -0.6120 C   0  0  0  0  0  0  0  0  0  0  0  0
    7.3810    1.1170    0.3210 C   0  0  0  0  0  0  0  0  0  0  0  0
    7.9410    2.3690   -0.3260 C   0  0  0  0  0  0  0  0  0  0  0  0
    7.8450    3.4620    0.5180 O   0  0  0  0  0  0  0  0  0  0  0  0
    0.6370   -0.9170    2.5340 C   0  0  0  0  0  0  0  0  0  0  0  0
   -0.6860   -0.7370    2.3680 N   0  0  0  0  0  0  0  0  0  0  0  0
   -2.8870    0.9670    0.6950 C   0  0  0  0  0  0  0  0  0  0  0  0
   -4.1770    1.1630    0.2520 C   0  0  0  0  0  0  0  0  0  0  0  0
   -4.9010    0.0940   -0.2690 C   0  0  0  0  0  0  0  0  0  0  0  0
   -6.2350    0.2330   -0.7420 N   0  0  0  0  0  0  0  0  0  0  0  0
   -6.7050    1.5910   -0.7300 C   0  0  0  0  0  0  0  0  0  0  0  0
   -6.2440    2.3760    0.4820 C   0  0  0  0  0  0  0  0  0  0  0  0
   -4.7420    2.5300    0.3530 C   0  0  0  0  0  0  0  0  0  0  0  0
  1  2  1  0
  2  3  1  0
  3  4  2  0
  3 23  1  0
  4  5  1  0
  5  6  1  0
  5 21  2  0
  6  7  1  0
  6 20  1  0
  7  8  2  0
  8  9  1  0
  8 19  1  0
  9 10  2  3
 10 11  1  0
 11 12  2  0
 11 13  1  0
 13 14  1  0
 14 15  1  0
 15 16  1  0
 16 17  1  0
 17 18  1  0
 19 20  2  0
 21 22  1  0
 22 23  2  0
 22 27  1  0
 23 24  1  0
 24 25  1  0
 25 26  1  0
 26 27  1  0
M  CHG  1  24   1
M  END
