
     RDKit          3D

 27 29  0  0  0  0  0  0  0  0999 V2000
   -7.9050    2.9520   -0.1690 C   0  0  0  0  0  0  0  0  0  0  0  0
   -7.6850    1.5460   -0.1250 O   0  0  0  0  0  0  0  0  0  0  0  0
   -6.3680    1.0880   -0.0470 C   0  0  0  0  0  0  0  0  0  0  0  0
   -5.3020    1.9860   -0.0140 C   0  0  0  0  0  0  0  0  0  0  0  0
   -4.0070    1.5900    0.0600 C   0  0  0  0  0  0  0  0  0  0  0  0
   -3.6830    0.2210    0.1090 C   0  0  0  0  0  0  0  0  0  0  0  0
   -2.2630   -0.1070    0.1180 C   0  0  0  0  0  0  0  0  0  0  0  0
   -1.4510    0.6320    0.7680 O   0  0  0  0  0  0  0  0  0  0  0  0
   -1.7540   -1.2020   -0.5670 N   0  0  0  0  0  0  0  0  0  0  0  0
   -0.4280   -1.6670   -0.6470 C   0  0  0  0  0  0  0  0  0  0  0  0
    0.6200   -1.0830    0.0190 C   0  0  0  0  0  0  0  0  0  0  0  0
    1.9180   -1.6080   -0.0980 C   0  0  0  0  0  0  0  0  0  0  0  0
    3.0180   -0.9300    0.6530 C   0  0  0  0  0  0  0  0  0  0  0  0
    3.6300   -0.0120   -0.2430 N   0  0  0  0  0  0  0  0  0  0  0  0
    4.7260    0.6750    0.3440 C   0  0  2  0  0  0  0  0  0  0  0  0
    4.2990    1.5450    1.4900 C   0  0  0  0  0  0  0  0  0  0  0  0
    5.5030    2.0200    2.1660 N   0  0  0  0  0  0  0  0  0  0  0  0
    6.6750    1.8820    1.3710 C   0  0  0  0  0  0  0  0  0  0  0  0
    6.5210    2.2790   -0.0120 N   0  0  0  0  0  0  0  0  0  0  0  0
    5.4290    1.5890   -0.6540 C   0  0  0  0  0  0  0  0  0  0  0  0
    2.1880   -2.7070   -0.8690 C   0  0  0  0  0  0  0  0  0  0  0  0
    1.1480   -3.3050   -1.5430 C   0  0  0  0  0  0  0  0  0  0  0  0
   -0.1430   -2.7810   -1.4260 C   0  0  0  0  0  0  0  0  0  0  0  0
   -1.2550   -3.4240   -2.1520 C   0  0  0  0  0  0  0  0  0  0  0  0
   -4.7190   -0.6590    0.0800 C   0  0  0  0  0  0  0  0  0  0  0  0
   -4.4900   -2.1240    0.2040 C   0  0  0  0  0  0  0  0  0  0  0  0
   -6.0510   -0.2370    0.0020 C   0  0  0  0  0  0  0  0  0  0  0  0
  1  2  1  0
  2  3  1  0
  3  4  2  0
  3 27  1  0
  4  5  1  0
  5  6  2  0
  6  7  1  0
  6 25  1  0
  7  8  2  0
  7  9  1  0
  9 10  1  0
 10 11  2  0
 10 23  1  0
 11 12  1  0
 12 13  1  0
 12 21  2  0
 13 14  1  0
 15 14  1  6
 15 16  1  0
 15 20  1  0
 16 17  1  0
 17 18  1  0
 18 19  1  0
 19 20  1  0
 21 22  1  0
 22 23  2  0
 23 24  1  0
 25 26  1  0
 25 27  2  0
M  CHG  1  19   1
M  END
