
     RDKit          3D

 21 22  0  0  0  0  0  0  0  0999 V2000
   -4.6510   -1.6390   -0.4600 C   0  0  0  0  0  0  0  0  0  0  0  0
   -5.3730   -0.6110   -0.1150 C   0  0  0  0  0  0  0  0  0  0  0  0
   -4.8820    0.7750   -0.1910 C   0  0  0  0  0  0  0  0  0  0  0  0
   -5.6530    1.7690    0.1680 C   0  0  0  0  0  0  0  0  0  0  0  0
   -3.4870    1.0150   -0.6890 C   0  0  0  0  0  0  0  0  0  0  0  0
   -2.6000    0.3420    0.1910 N   0  0  0  0  0  0  0  0  0  0  0  0
   -2.5110    0.8950    1.5240 C   0  0  0  0  0  0  0  0  0  0  0  0
   -1.8390   -0.1060    2.4030 C   0  0  0  0  0  0  0  0  0  0  0  0
   -0.6120   -0.4660    1.9160 O   0  0  0  0  0  0  0  0  0  0  0  0
   -0.2270    0.1520    0.7560 C   0  0  1  0  0  0  0  0  0  0  0  0
    0.9600   -0.5840    0.1870 C   0  0  0  0  0  0  0  0  0  0  0  0
    1.3920   -1.5960    0.7750 O   0  0  0  0  0  0  0  0  0  0  0  0
    1.6020   -0.1550   -1.0000 N   0  0  0  0  0  0  0  0  0  0  0  0
    2.7490   -0.8260   -1.5940 C   0  0  0  0  0  0  0  0  0  0  0  0
    3.8980   -0.8590   -0.6470 C   0  0  0  0  0  0  0  0  0  0  0  0
    4.7950   -1.5610    0.0700 C   0  0  0  0  0  0  0  0  0  0  0  0
    5.2720   -2.9100    0.4230 C   0  0  0  0  0  0  0  0  0  0  0  0
    4.8530   -0.1210    0.1680 C   0  0  0  0  0  0  0  0  0  0  0  0
    5.3630    1.0090    0.6330 C   0  0  0  0  0  0  0  0  0  0  0  0
    4.8220    2.3250    0.2410 C   0  0  0  0  0  0  0  0  0  0  0  0
   -1.2870    0.0570   -0.3310 C   0  0  0  0  0  0  0  0  0  0  0  0
  1  2  2  0
  2  3  1  0
  3  4  2  0
  3  5  1  0
  5  6  1  0
  6  7  1  0
  6 21  1  0
  7  8  1  0
  8  9  1  0
  9 10  1  0
 10 11  1  6
 10 21  1  0
 11 12  2  0
 11 13  1  0
 13 14  1  0
 14 15  1  0
 15 16  2  0
 15 18  1  0
 16 17  1  0
 16 18  1  0
 18 19  2  3
 19 20  1  0
M  END
