
     RDKit          3D

 20 23  0  0  0  0  0  0  0  0999 V2000
   -5.2390    1.1540    0.0280 O   0  0  0  0  0  0  0  0  0  0  0  0
   -4.2540    0.1910    0.0040 C   0  0  1  0  0  0  0  0  0  0  0  0
   -4.0070   -0.3290   -1.4110 C   0  0  0  0  0  0  0  0  0  0  0  0
   -3.1660   -1.5720   -1.3630 C   0  0  0  0  0  0  0  0  0  0  0  0
   -2.2670   -1.5980   -0.1170 C   0  0  0  0  0  0  0  0  0  0  0  0
   -1.8020   -0.2140    0.1110 C   0  0  2  0  0  0  0  0  0  0  0  0
   -0.7040   -0.0300    1.0860 C   0  0  1  0  0  0  0  0  0  0  0  0
    0.4100   -1.0210    1.0020 C   0  0  0  0  0  0  0  0  0  0  0  0
    1.1050   -1.0470   -0.2860 C   0  0  0  0  0  0  0  0  0  0  0  0
    2.4040   -0.7850   -0.3490 C   0  0  0  0  0  0  0  0  0  0  0  0
    3.3260   -0.4430    0.7860 C   0  0  0  0  0  0  0  0  0  0  0  0
    4.6980   -0.4150    0.1830 C   0  0  2  0  0  0  0  0  0  0  0  0
    4.8260    0.8540   -0.6210 C   0  0  0  0  0  0  0  0  0  0  0  0
    3.8300    0.6320   -1.7600 C   0  0  0  0  0  0  0  0  0  0  0  0
    3.2820   -0.7630   -1.5530 C   0  0  1  0  0  0  0  0  0  0  0  0
    4.5320   -1.4370   -0.9560 C   0  0  0  0  0  0  0  0  0  0  0  0
   -0.2390    1.4060    0.9590 C   0  0  0  0  0  0  0  0  0  0  0  0
   -1.3720    2.3350    1.2780 C   0  0  0  0  0  0  0  0  0  0  0  0
   -2.6330    2.0390    0.5250 C   0  0  0  0  0  0  0  0  0  0  0  0
   -2.9880    0.5930    0.6570 C   0  0  1  0  0  0  0  0  0  0  0  0
  2  1  1  6
  2  3  1  0
  2 20  1  0
  3  4  1  0
  4  5  1  0
  6  5  1  1
  6  7  1  0
  6 20  1  0
  7  8  1  6
  7 17  1  0
  8  9  1  0
  9 10  2  3
 10 11  1  0
 10 15  1  0
 12 11  1  1
 12 13  1  0
 12 16  1  0
 13 14  1  0
 15 14  1  1
 15 16  1  0
 17 18  1  0
 18 19  1  0
 20 19  1  6
M  END
