
     RDKit          3D

 21 24  0  0  0  0  0  0  0  0999 V2000
   -2.3960    2.2900   -0.5400 C   0  0  0  0  0  0  0  0  0  0  0  0
   -3.1280    1.0550   -0.1820 C   0  0  1  0  0  0  0  0  0  0  0  0
   -4.0020    0.7260   -1.3840 C   0  0  0  0  0  0  0  0  0  0  0  0
   -2.3890   -0.1240    0.2800 C   0  0  2  0  0  0  0  0  0  0  0  0
   -3.3930   -1.0980    0.5270 O   0  0  0  0  0  0  0  0  0  0  0  0
   -1.8040    0.1720    1.6760 C   0  0  0  0  0  0  0  0  0  0  0  0
   -0.2970   -0.1120    1.5630 C   0  0  0  0  0  0  0  0  0  0  0  0
   -0.0680   -0.0030    0.1210 C   0  0  1  0  0  0  0  0  0  0  0  0
    0.9450   -0.8100   -0.5400 C   0  0  0  0  0  0  0  0  0  0  0  0
    2.3160   -1.0440    0.0160 C   0  0  1  0  0  0  0  0  0  0  0  0
    3.1340   -1.8960   -0.8350 C   0  0  0  0  0  0  0  0  0  0  0  0
    4.2370   -1.2410   -1.1370 C   0  0  0  0  0  0  0  0  0  0  0  0
    4.1780    0.0580   -0.4950 C   0  0  0  0  0  0  0  0  0  0  0  0
    3.0630    0.2190    0.1970 C   0  0  0  0  0  0  0  0  0  0  0  0
    3.1400    1.5760    0.7930 C   0  0  0  0  0  0  0  0  0  0  0  0
    3.9140    2.2690   -0.1230 O   0  0  0  0  0  0  0  0  0  0  0  0
    4.9590    1.3370   -0.3280 C   0  0  0  0  0  0  0  0  0  0  0  0
    0.4250   -1.2660   -1.6720 C   0  0  0  0  0  0  0  0  0  0  0  0
   -0.9970   -0.7660   -1.8100 C   0  0  0  0  0  0  0  0  0  0  0  0
   -1.3230   -0.7370   -0.3890 C   0  0  2  0  0  0  0  0  0  0  0  0
   -1.1470   -2.1800    0.1280 C   0  0  0  0  0  0  0  0  0  0  0  0
  2  1  1  6
  2  3  1  0
  2  4  1  0
  4  5  1  1
  4  6  1  0
  4 20  1  0
  6  7  1  0
  8  7  1  1
  8  9  1  0
  8 20  1  0
 10  9  1  6
  9 18  2  0
 10 11  1  0
 10 14  1  0
 11 12  2  0
 12 13  1  0
 13 14  2  0
 13 17  1  0
 14 15  1  0
 15 16  1  0
 16 17  1  0
 18 19  1  0
 19 20  1  0
 20 21  1  1
M  END
