
     RDKit          3D

 21 24  0  0  0  0  0  0  0  0999 V2000
    5.4210    1.3890    1.2400 C   0  0  0  0  0  0  0  0  0  0  0  0
    4.4980    0.8290    0.5170 C   0  0  0  0  0  0  0  0  0  0  0  0
    3.0210    0.6380    0.8720 C   0  0  0  0  0  0  0  0  0  0  0  0
    2.4650    0.6890   -0.5030 C   0  0  2  0  0  0  0  0  0  0  0  0
    1.0350    0.4710   -0.7360 C   0  0  0  0  0  0  0  0  0  0  0  0
    0.4210   -0.8130   -0.3180 C   0  0  1  0  0  0  0  0  0  0  0  0
    1.1180   -1.8410   -0.9740 O   0  0  0  0  0  0  0  0  0  0  0  0
    0.4080   -0.9370    1.1800 C   0  0  0  0  0  0  0  0  0  0  0  0
   -0.9540   -1.2950    1.7550 C   0  0  0  0  0  0  0  0  0  0  0  0
   -1.9560   -0.2060    1.4330 C   0  0  2  0  0  0  0  0  0  0  0  0
   -3.3260   -0.5030    1.9120 C   0  0  0  0  0  0  0  0  0  0  0  0
   -4.4480    0.1420    1.2100 C   0  0  0  0  0  0  0  0  0  0  0  0
   -4.1580    0.6480   -0.1880 C   0  0  0  0  0  0  0  0  0  0  0  0
   -3.1670   -0.2900   -0.7570 C   0  0  1  0  0  0  0  0  0  0  0  0
   -2.7240   -0.0430   -2.1530 C   0  0  0  0  0  0  0  0  0  0  0  0
   -1.3480   -0.7470   -2.1630 C   0  0  0  0  0  0  0  0  0  0  0  0
   -1.0070   -0.9800   -0.7520 C   0  0  2  0  0  0  0  0  0  0  0  0
   -1.8430    0.0440   -0.0380 C   0  0  2  0  0  0  0  0  0  0  0  0
    3.3530   -0.1910   -1.1840 O   0  0  0  0  0  0  0  0  0  0  0  0
    4.6430    0.2460   -0.8080 C   0  0  0  0  0  0  0  0  0  0  0  0
    5.7520    0.1390   -1.5310 C   0  0  0  0  0  0  0  0  0  0  0  0
  1  2  2  0
  2  3  1  0
  2 20  1  0
  3  4  1  0
  4  5  1  1
  4 19  1  0
  5  6  1  0
  6  7  1  6
  6  8  1  0
  6 17  1  0
  8  9  1  0
 10  9  1  6
 10 11  1  0
 18 10  1  1
 11 12  1  0
 12 13  1  0
 14 13  1  1
 14 15  1  0
 14 18  1  0
 15 16  1  0
 17 16  1  6
 17 18  1  0
 19 20  1  0
 20 21  2  0
M  END
