
     RDKit          3D

 21 24  0  0  0  0  0  0  0  0999 V2000
    5.3920   -1.1150    0.2010 C   0  0  0  0  0  0  0  0  0  0  0  0
    4.3140   -0.0880    0.4770 C   0  0  1  0  0  0  0  0  0  0  0  0
    4.5220    1.1750   -0.3260 C   0  0  0  0  0  0  0  0  0  0  0  0
    3.4840    2.1750    0.1390 C   0  0  0  0  0  0  0  0  0  0  0  0
    2.1560    1.4680    0.4460 C   0  0  0  0  0  0  0  0  0  0  0  0
    2.1530    0.1930   -0.3110 C   0  0  2  0  0  0  0  0  0  0  0  0
    0.8310   -0.5070   -0.3910 C   0  0  1  0  0  0  0  0  0  0  0  0
    0.2610   -0.8800    0.9370 C   0  0  0  0  0  0  0  0  0  0  0  0
   -0.8990   -0.0460    1.3760 C   0  0  0  0  0  0  0  0  0  0  0  0
   -2.0000    0.0620    0.3660 C   0  0  2  0  0  0  0  0  0  0  0  0
   -2.4430    1.5270    0.3830 C   0  0  0  0  0  0  0  0  0  0  0  0
   -3.9370    1.5160    0.3550 C   0  0  0  0  0  0  0  0  0  0  0  0
   -4.2570    0.3180    1.2210 C   0  0  0  0  0  0  0  0  0  0  0  0
   -3.2040   -0.6610    0.8380 C   0  0  1  0  0  0  0  0  0  0  0  0
   -3.7820   -1.6060   -0.1950 C   0  0  0  0  0  0  0  0  0  0  0  0
   -2.6140   -2.4970   -0.5990 C   0  0  0  0  0  0  0  0  0  0  0  0
   -1.7330   -1.6550   -1.4680 C   0  0  0  0  0  0  0  0  0  0  0  0
   -1.5680   -0.2510   -1.0310 C   0  0  2  0  0  0  0  0  0  0  0  0
   -0.1480    0.2780   -1.1910 C   0  0  2  0  0  0  0  0  0  0  0  0
    0.1570    0.3090   -2.5530 O   0  0  0  0  0  0  0  0  0  0  0  0
    3.0900   -0.6700    0.2520 O   0  0  0  0  0  0  0  0  0  0  0  0
  2  1  1  6
  2  3  1  0
  2 21  1  0
  3  4  1  0
  4  5  1  0
  6  5  1  1
  6  7  1  0
  6 21  1  0
  7  8  1  1
  7 19  1  0
  8  9  1  0
 10  9  1  1
 10 11  1  0
 10 14  1  0
 10 18  1  0
 11 12  1  0
 12 13  1  0
 14 13  1  6
 14 15  1  0
 15 16  1  0
 16 17  1  0
 18 17  1  1
 18 19  1  0
 19 20  1  6
M  END
