
     RDKit          3D

 21 24  0  0  0  0  0  0  0  0999 V2000
    1.8990   -1.4010    1.7770 C   0  0  0  0  0  0  0  0  0  0  0  0
    1.3030   -0.8090    0.5320 C   0  0  1  0  0  0  0  0  0  0  0  0
    1.2360   -1.8300   -0.5990 C   0  0  0  0  0  0  0  0  0  0  0  0
   -0.0990   -0.3670    0.8180 C   0  0  2  0  0  0  0  0  0  0  0  0
   -1.0110   -1.5000    1.1310 C   0  0  0  0  0  0  0  0  0  0  0  0
   -2.4540   -1.0440    1.3590 C   0  0  0  0  0  0  0  0  0  0  0  0
   -2.9820   -0.4200    0.0740 C   0  0  1  0  0  0  0  0  0  0  0  0
   -4.4170   -0.1480    0.1620 C   0  0  0  0  0  0  0  0  0  0  0  0
   -4.8230    1.1770   -0.2880 C   0  0  0  0  0  0  0  0  0  0  0  0
   -3.9890    2.0960   -0.6800 C   0  0  0  0  0  0  0  0  0  0  0  0
   -2.5540    1.8530   -0.7060 C   0  0  0  0  0  0  0  0  0  0  0  0
   -2.0940    0.6820   -0.3440 C   0  0  0  0  0  0  0  0  0  0  0  0
   -0.6230    0.4640   -0.3010 C   0  0  0  0  0  0  0  0  0  0  0  0
    0.1060    1.0140   -1.2440 C   0  0  0  0  0  0  0  0  0  0  0  0
    1.5670    0.8370   -1.2670 C   0  0  0  0  0  0  0  0  0  0  0  0
    2.1430    0.3380    0.0020 C   0  0  1  0  0  0  0  0  0  0  0  0
    2.8430    1.2820    0.8800 C   0  0  0  0  0  0  0  0  0  0  0  0
    3.6020    0.1940    0.2180 C   0  0  2  0  0  0  0  0  0  0  0  0
    4.5040    0.4640   -0.9140 C   0  0  0  0  0  0  0  0  0  0  0  0
    5.5590   -0.2070   -1.0170 O   0  0  0  0  0  0  0  0  0  0  0  0
    4.2600    1.4220   -1.8830 O   0  0  0  0  0  0  0  0  0  0  0  0
  2  1  1  1
  2  3  1  0
  2  4  1  0
  2 16  1  0
  4  5  1  6
  4 13  1  0
  5  6  1  0
  7  6  1  1
  7  8  1  0
  7 12  1  0
  8  9  1  0
  9 10  2  0
 10 11  1  0
 11 12  2  0
 12 13  1  0
 13 14  2  0
 14 15  1  0
 16 15  1  6
 16 17  1  0
 16 18  1  0
 17 18  1  0
 18 19  1  6
 19 20  2  0
 19 21  1  0
M  END
