
     RDKit          3D

 21 21  0  0  0  0  0  0  0  0999 V2000
   -3.1640    2.7390    1.0820 C   0  0  0  0  0  0  0  0  0  0  0  0
   -2.6780    1.5830    0.1770 C   0  0  2  0  0  0  0  0  0  0  0  0
   -2.9680    2.0620   -1.2480 C   0  0  0  0  0  0  0  0  0  0  0  0
   -3.5740    0.4500    0.4720 C   0  0  0  0  0  0  0  0  0  0  0  0
   -1.2470    1.4130    0.4170 C   0  0  0  0  0  0  0  0  0  0  0  0
   -0.5260    2.1370    1.2820 O   0  0  0  0  0  0  0  0  0  0  0  0
    0.6910    1.7750    1.2840 N   0  0  0  0  0  0  0  0  0  0  0  0
    0.9260    0.7750    0.4280 C   0  0  0  0  0  0  0  0  0  0  0  0
    2.0810    0.0820    0.1070 O   0  0  0  0  0  0  0  0  0  0  0  0
    3.2590    0.4420    0.7610 C   0  0  0  0  0  0  0  0  0  0  0  0
    4.7540   -0.3510    0.4420 P   0  0  0  0  0  0  0  0  0  0  0  0
    5.2280   -1.6800    1.3440 O   0  0  0  0  0  0  0  0  0  0  0  0
    5.7200    0.1020   -0.8360 O   0  0  0  0  0  0  0  0  0  0  0  0
    5.6650    0.4760    1.3870 O   0  0  0  0  0  0  0  0  0  0  0  0
   -0.3460    0.5340   -0.1420 C   0  0  0  0  0  0  0  0  0  0  0  0
   -0.5870   -0.5060   -1.1340 C   0  0  0  0  0  0  0  0  0  0  0  0
   -1.0970   -1.8190   -0.6240 C   0  0  2  0  0  0  0  0  0  0  0  0
   -0.1590   -2.4240    0.3260 N   0  0  0  0  0  0  0  0  0  0  0  0
   -1.2680   -2.8120   -1.7250 C   0  0  0  0  0  0  0  0  0  0  0  0
   -2.0290   -2.5660   -2.6960 O   0  0  0  0  0  0  0  0  0  0  0  0
   -0.6080   -4.0290   -1.7290 O   0  0  0  0  0  0  0  0  0  0  0  0
  2  1  1  1
  2  3  1  0
  2  4  1  0
  2  5  1  0
  5  6  1  0
  5 15  2  0
  6  7  1  0
  7  8  2  0
  8  9  1  0
  8 15  1  0
  9 10  1  0
 10 11  1  0
 11 12  1  0
 11 13  1  0
 11 14  1  0
 15 16  1  0
 16 17  1  0
 17 18  1  1
 17 19  1  0
 19 20  2  0
 19 21  1  0
M  CHG  1  18   1
M  END
