
     RDKit          3D

 13 13  0  0  0  0  0  0  0  0999 V2000
    0.8370   -2.0260   -0.4380 N   0  0  0  0  0  0  0  0  0  0  0  0
    0.4820   -0.9140    0.3890 C   0  0  1  0  0  0  0  0  0  0  0  0
    1.4970    0.2010    0.1220 C   0  0  0  0  0  0  0  0  0  0  0  0
    2.7500   -0.3090    0.4550 O   0  0  0  0  0  0  0  0  0  0  0  0
    3.9740    0.8890    0.1860 P   0  0  0  0  0  0  0  0  0  0  0  0
    5.2750    0.1500   -0.6870 O   0  0  0  0  0  0  0  0  0  0  0  0
    3.3060    2.1930   -0.7550 O   0  0  0  0  0  0  0  0  0  0  0  0
   -0.8980   -0.4400    0.0450 C   0  0  0  0  0  0  0  0  0  0  0  0
   -1.5970   -1.0100   -0.8790 N   0  0  0  0  0  0  0  0  0  0  0  0
   -2.8820   -0.5610   -1.1930 N   0  0  0  0  0  0  0  0  0  0  0  0
   -3.6470    0.0900   -0.1490 C   0  0  0  0  0  0  0  0  0  0  0  0
   -2.7500    1.1570    0.4430 C   0  0  0  0  0  0  0  0  0  0  0  0
   -1.4770    0.6270    0.7040 O   0  0  0  0  0  0  0  0  0  0  0  0
  2  1  1  6
  2  3  1  0
  2  8  1  0
  3  4  1  0
  4  5  1  0
  5  6  1  0
  5  7  1  0
  8  9  2  0
  8 13  1  0
  9 10  1  0
 10 11  1  0
 11 12  1  0
 12 13  1  0
M  END
