
     RDKit          3D

 12 12  0  0  0  0  0  0  0  0999 V2000
   -4.3150   -1.3810    0.3360 O   0  0  0  0  0  0  0  0  0  0  0  0
   -3.0770   -0.2410    0.7500 P   0  0  0  0  0  0  0  0  0  0  0  0
   -3.8460    1.1570    1.4230 O   0  0  0  0  0  0  0  0  0  0  0  0
   -2.1150    0.2100   -0.7910 C   0  0  0  0  0  0  0  0  0  0  0  0
   -0.7200    0.3580   -0.5140 N   0  0  0  0  0  0  0  0  0  0  0  0
    0.1300   -0.5980   -0.6850 C   0  0  0  0  0  0  0  0  0  0  0  0
    1.5530   -0.4260   -0.3950 C   0  0  0  0  0  0  0  0  0  0  0  0
    2.0400    0.7170    0.0560 C   0  0  0  0  0  0  0  0  0  0  0  0
    3.4390    0.8510    0.3290 N   0  0  0  0  0  0  0  0  0  0  0  0
    4.3240   -0.2430    0.1190 C   0  0  0  0  0  0  0  0  0  0  0  0
    3.7980   -1.3350   -0.3220 N   0  0  0  0  0  0  0  0  0  0  0  0
    2.4480   -1.4660   -0.5860 O   0  0  0  0  0  0  0  0  0  0  0  0
  1  2  1  0
  2  3  1  0
  2  4  1  0
  4  5  1  0
  5  6  2  3
  6  7  1  0
  7  8  2  0
  7 12  1  0
  8  9  1  0
  9 10  1  0
 10 11  2  0
 11 12  1  0
M  END
