
     RDKit          3D

 13 13  0  0  0  0  0  0  0  0999 V2000
   -2.1380   -1.6960    0.0700 O   0  0  0  0  0  0  0  0  0  0  0  0
   -2.4860   -0.5410   -0.1870 C   0  0  0  0  0  0  0  0  0  0  0  0
   -3.6960   -0.2930   -0.7910 O   0  0  0  0  0  0  0  0  0  0  0  0
   -1.6270    0.5840    0.1410 C   0  0  0  0  0  0  0  0  0  0  0  0
   -1.9190    1.9340   -0.1130 C   0  0  0  0  0  0  0  0  0  0  0  0
   -0.8650    2.6110    0.3410 N   0  0  0  0  0  0  0  0  0  0  0  0
    0.0220    1.7810    0.8400 N   0  0  0  0  0  0  0  0  0  0  0  0
   -0.4300    0.5350    0.7260 N   0  0  0  0  0  0  0  0  0  0  0  0
    0.2730   -0.6720    1.1810 C   0  0  0  0  0  0  0  0  0  0  0  0
    1.1090   -1.2480    0.0830 C   0  0  0  0  0  0  0  0  0  0  0  0
    2.3490    0.0470   -0.4230 P   0  0  0  0  0  0  0  0  0  0  0  0
    2.7870   -0.0750   -2.0720 O   0  0  0  0  0  0  0  0  0  0  0  0
    3.6790    0.1400    0.6480 O   0  0  0  0  0  0  0  0  0  0  0  0
  1  2  2  0
  2  3  1  0
  2  4  1  0
  4  5  2  0
  4  8  1  0
  5  6  1  0
  6  7  2  0
  7  8  1  0
  8  9  1  0
  9 10  1  0
 10 11  1  0
 11 12  1  0
 11 13  1  0
M  END
