
     RDKit          3D

 13 13  0  0  0  0  0  0  0  0999 V2000
   -4.1960    1.9930    0.4100 O   0  0  0  0  0  0  0  0  0  0  0  0
   -3.9180    0.7620   -0.1180 C   0  0  0  0  0  0  0  0  0  0  0  0
   -2.5560    0.7110   -0.7530 C   0  0  0  0  0  0  0  0  0  0  0  0
   -1.6880   -0.1620   -0.2440 C   0  0  0  0  0  0  0  0  0  0  0  0
   -0.2980   -0.4010   -0.6130 N   0  0  0  0  0  0  0  0  0  0  0  0
    0.2080   -1.2840    0.1500 C   0  0  0  0  0  0  0  0  0  0  0  0
    1.6250   -1.7150    0.0800 N   0  0  0  0  0  0  0  0  0  0  0  0
    2.3690   -0.7050   -0.0360 C   0  0  0  0  0  0  0  0  0  0  0  0
    3.8590   -0.5720   -0.1570 C   0  0  0  0  0  0  0  0  0  0  0  0
    4.2060    0.4780    0.7180 O   0  0  0  0  0  0  0  0  0  0  0  0
    4.8620    1.3960    0.0290 O   0  0  0  0  0  0  0  0  0  0  0  0
   -0.7880   -1.7550    1.0970 N   0  0  0  0  0  0  0  0  0  0  0  0
   -1.8350   -1.0740    0.7940 O   0  0  0  0  0  0  0  0  0  0  0  0
  1  2  1  0
  2  3  1  0
  3  4  2  3
  4  5  1  0
  4 13  1  0
  5  6  2  0
  6  7  1  0
  6 12  1  0
  7  8  2  3
  8  9  1  0
  9 10  1  0
 10 11  1  0
 12 13  1  0
M  END
