
     RDKit          3D

 13 13  0  0  0  0  0  0  0  0999 V2000
    3.1220    1.0770   -0.7880 N   0  0  0  0  0  0  0  0  0  0  0  0
    2.1400    0.2940   -0.5180 C   0  0  0  0  0  0  0  0  0  0  0  0
    2.4100   -1.0360   -0.0720 N   0  0  0  0  0  0  0  0  0  0  0  0
    1.3110   -1.7550    0.3240 O   0  0  0  0  0  0  0  0  0  0  0  0
    0.4610   -0.9720    1.0840 C   0  0  0  0  0  0  0  0  0  0  0  0
   -0.2700    0.0010    0.1640 C   0  0  2  0  0  0  0  0  0  0  0  0
   -0.9420    1.0830    0.9820 C   0  0  0  0  0  0  0  0  0  0  0  0
   -1.6600    2.0130    0.0820 C   0  0  0  0  0  0  0  0  0  0  0  0
   -1.7080    1.8690   -1.1140 O   0  0  0  0  0  0  0  0  0  0  0  0
   -1.5310   -0.8150   -0.8840 P   0  0  0  0  0  0  0  0  0  0  0  0
   -2.7890   -1.4360    0.0940 O   0  0  0  0  0  0  0  0  0  0  0  0
   -0.8780   -1.9700   -1.9710 O   0  0  0  0  0  0  0  0  0  0  0  0
    0.7720    0.6680   -0.6340 N   0  0  0  0  0  0  0  0  0  0  0  0
  1  2  2  0
  2  3  1  0
  2 13  1  0
  3  4  1  0
  4  5  1  0
  5  6  1  0
  6  7  1  1
  6 10  1  0
  6 13  1  0
  7  8  1  0
  8  9  2  0
 10 11  1  0
 10 12  1  0
M  END
