
     RDKit          3D

 12 12  0  0  0  0  0  0  0  0999 V2000
   -2.6090   -1.4460    0.6990 C   0  0  0  0  0  0  0  0  0  0  0  0
   -1.3910   -0.8580    0.1630 N   0  0  0  0  0  0  0  0  0  0  0  0
   -0.2210   -1.4490   -0.0160 N   0  0  0  0  0  0  0  0  0  0  0  0
    0.6440   -0.5530   -0.5360 C   0  0  0  0  0  0  0  0  0  0  0  0
    2.0840   -0.8000   -0.8960 C   0  0  0  0  0  0  0  0  0  0  0  0
    3.1810   -0.4330    0.5740 P   0  0  0  0  0  0  0  0  0  0  0  0
    3.3150    1.2750    0.8440 O   0  0  0  0  0  0  0  0  0  0  0  0
    4.7700   -1.0240    0.1950 O   0  0  0  0  0  0  0  0  0  0  0  0
   -0.0520    0.5890   -0.6590 N   0  0  0  0  0  0  0  0  0  0  0  0
   -1.3190    0.4290   -0.2320 C   0  0  0  0  0  0  0  0  0  0  0  0
   -2.4050    1.4610   -0.2060 C   0  0  0  0  0  0  0  0  0  0  0  0
   -1.8870    2.6470   -0.7060 O   0  0  0  0  0  0  0  0  0  0  0  0
  1  2  1  0
  2  3  1  0
  2 10  1  0
  3  4  2  0
  4  5  1  0
  4  9  1  0
  5  6  1  0
  6  7  1  0
  6  8  1  0
  9 10  2  0
 10 11  1  0
 11 12  1  0
M  END
