
     RDKit          3D

 20 20  0  0  0  0  0  0  0  0999 V2000
    5.1000   -2.4340    0.5800 C   0  0  0  0  0  0  0  0  0  0  0  0
    5.0210   -1.4080   -0.5010 C   0  0  0  0  0  0  0  0  0  0  0  0
    3.6490   -0.8740   -0.7770 C   0  0  0  0  0  0  0  0  0  0  0  0
    3.0180   -0.2060    0.4230 C   0  0  0  0  0  0  0  0  0  0  0  0
    1.6590    0.3160    0.0970 C   0  0  0  0  0  0  0  0  0  0  0  0
    1.4720    1.5930   -0.3740 C   0  0  0  0  0  0  0  0  0  0  0  0
    0.2160    2.0890   -0.6850 C   0  0  0  0  0  0  0  0  0  0  0  0
    0.1190    3.5070   -1.1930 C   0  0  0  0  0  0  0  0  0  0  0  0
   -0.8950    1.2940   -0.5250 C   0  0  0  0  0  0  0  0  0  0  0  0
   -2.2240    1.8130   -0.8410 C   0  0  0  0  0  0  0  0  0  0  0  0
   -2.7500    2.7720    0.2290 C   0  0  0  0  0  0  0  0  0  0  0  0
   -4.1240    3.2680   -0.1730 C   0  0  0  0  0  0  0  0  0  0  0  0
   -4.6210    4.1360    0.7760 O   0  0  0  0  0  0  0  0  0  0  0  0
   -0.7560   -0.0250   -0.0450 C   0  0  0  0  0  0  0  0  0  0  0  0
   -1.9140   -0.8840    0.1350 C   0  0  0  0  0  0  0  0  0  0  0  0
   -1.6050   -2.2940    0.5470 C   0  0  2  0  0  0  0  0  0  0  0  0
   -0.7560   -2.9730   -0.5220 C   0  0  0  0  0  0  0  0  0  0  0  0
   -2.9040   -3.0880    0.7440 C   0  0  0  0  0  0  0  0  0  0  0  0
   -0.9750   -2.3440    1.7860 O   0  0  0  0  0  0  0  0  0  0  0  0
    0.5060   -0.4740    0.2510 C   0  0  0  0  0  0  0  0  0  0  0  0
  1  2  1  0
  2  3  1  0
  3  4  1  0
  4  5  1  0
  5  6  2  0
  5 20  1  0
  6  7  1  0
  7  8  1  0
  7  9  2  0
  9 10  1  0
  9 14  1  0
 10 11  1  0
 11 12  1  0
 12 13  1  0
 14 15  1  0
 14 20  2  0
 15 16  1  0
 16 17  1  6
 16 18  1  0
 16 19  1  0
M  END
