
     RDKit          3D

 20 20  0  0  0  0  0  0  0  0999 V2000
    6.3720    2.2380    0.3140 C   0  0  0  0  0  0  0  0  0  0  0  0
    6.0850    1.0740   -0.2730 C   0  0  0  0  0  0  0  0  0  0  0  0
    4.7970    0.8120   -0.9300 C   0  0  0  0  0  0  0  0  0  0  0  0
    4.1270   -0.3740   -0.2390 C   0  0  0  0  0  0  0  0  0  0  0  0
    3.9370    0.0200    1.1940 C   0  0  0  0  0  0  0  0  0  0  0  0
    3.2920   -1.0950    1.9490 C   0  0  0  0  0  0  0  0  0  0  0  0
    1.9450   -1.3990    1.3400 C   0  0  0  0  0  0  0  0  0  0  0  0
    1.1720   -0.2070    1.4250 O   0  0  0  0  0  0  0  0  0  0  0  0
   -0.1240   -0.1580    0.9490 C   0  0  0  0  0  0  0  0  0  0  0  0
   -0.9050    0.9750    1.0110 C   0  0  0  0  0  0  0  0  0  0  0  0
   -2.2020    0.9740    0.5180 C   0  0  0  0  0  0  0  0  0  0  0  0
   -2.7550   -0.1610   -0.0530 C   0  0  0  0  0  0  0  0  0  0  0  0
   -4.1180   -0.1960   -0.5820 C   0  0  2  0  0  0  0  0  0  0  0  0
   -4.0240   -0.5070   -1.9590 O   0  0  0  0  0  0  0  0  0  0  0  0
   -4.8800    1.0730   -0.4690 C   0  0  0  0  0  0  0  0  0  0  0  0
   -6.2360    0.8570   -1.0530 C   0  0  0  0  0  0  0  0  0  0  0  0
   -6.7030    1.5410   -2.0720 C   0  0  0  0  0  0  0  0  0  0  0  0
   -1.9660   -1.2890   -0.1110 C   0  0  0  0  0  0  0  0  0  0  0  0
   -2.5390   -2.5030   -0.7150 C   0  0  0  0  0  0  0  0  0  0  0  0
   -0.6560   -1.2930    0.3860 C   0  0  0  0  0  0  0  0  0  0  0  0
  1  2  2  0
  2  3  1  0
  3  4  1  0
  4  5  1  0
  5  6  1  0
  6  7  1  0
  7  8  1  0
  8  9  1  0
  9 10  2  0
  9 20  1  0
 10 11  1  0
 11 12  2  0
 12 13  1  0
 12 18  1  0
 13 14  1  6
 13 15  1  0
 15 16  1  0
 16 17  2  0
 18 19  1  0
 18 20  2  0
M  END
