
     RDKit          3D

 20 20  0  0  0  0  0  0  0  0999 V2000
   -2.1190   -2.0270    2.4030 C   0  0  0  0  0  0  0  0  0  0  0  0
   -1.7340   -1.1310    1.4650 O   0  0  0  0  0  0  0  0  0  0  0  0
   -2.3040   -1.2490    0.2020 C   0  0  2  0  0  0  0  0  0  0  0  0
   -3.8190   -1.0940    0.3750 C   0  0  0  0  0  0  0  0  0  0  0  0
   -2.1440   -2.6360   -0.4080 C   0  0  0  0  0  0  0  0  0  0  0  0
   -1.6730   -0.1720   -0.6250 C   0  0  2  0  0  0  0  0  0  0  0  0
   -2.1140   -0.2200   -1.9580 O   0  0  0  0  0  0  0  0  0  0  0  0
   -0.1740   -0.2300   -0.5020 C   0  0  0  0  0  0  0  0  0  0  0  0
    0.5180   -1.4610   -0.9230 C   0  0  0  0  0  0  0  0  0  0  0  0
    2.0530   -1.3330   -0.7640 C   0  0  0  0  0  0  0  0  0  0  0  0
    2.4730   -1.0790    0.6370 C   0  0  0  0  0  0  0  0  0  0  0  0
    3.9720   -0.9640    0.7950 C   0  0  0  0  0  0  0  0  0  0  0  0
    4.5540    0.1630   -0.0240 C   0  0  1  0  0  0  0  0  0  0  0  0
    3.9670    1.4990    0.3770 C   0  0  0  0  0  0  0  0  0  0  0  0
    6.0400    0.2280    0.3270 C   0  0  0  0  0  0  0  0  0  0  0  0
   -1.9980    1.2360   -0.1330 C   0  0  2  0  0  0  0  0  0  0  0  0
   -3.3900    1.6630   -0.1200 C   0  0  0  0  0  0  0  0  0  0  0  0
   -3.2020    3.2000    0.0850 C   0  0  0  0  0  0  0  0  0  0  0  0
   -2.1230    3.4780   -0.9210 C   0  0  0  0  0  0  0  0  0  0  0  0
   -1.3050    2.2160   -1.0330 C   0  0  0  0  0  0  0  0  0  0  0  0
  1  2  1  0
  2  3  1  0
  3  4  1  1
  3  5  1  0
  3  6  1  0
  6  7  1  6
  6  8  1  0
  6 16  1  0
  8  9  1  0
  9 10  1  0
 10 11  1  0
 11 12  1  0
 12 13  1  0
 13 14  1  1
 13 15  1  0
 16 17  1  6
 16 20  1  0
 17 18  1  0
 18 19  1  0
 19 20  1  0
M  END
