
     RDKit          3D

 20 20  0  0  0  0  0  0  0  0999 V2000
   -2.5140   -0.0180    2.5160 C   0  0  0  0  0  0  0  0  0  0  0  0
   -1.4280    0.8070    1.8760 C   0  0  0  0  0  0  0  0  0  0  0  0
   -1.7130    1.0660    0.4020 C   0  0  0  0  0  0  0  0  0  0  0  0
   -1.8140   -0.1880   -0.3820 C   0  0  1  0  0  0  0  0  0  0  0  0
   -2.0460    0.1160   -1.8310 C   0  0  0  0  0  0  0  0  0  0  0  0
   -3.2420    0.8460   -2.2530 C   0  0  0  0  0  0  0  0  0  0  0  0
   -3.4680    2.2420   -1.8360 C   0  0  0  0  0  0  0  0  0  0  0  0
   -0.5240   -0.9660   -0.3300 C   0  0  0  0  0  0  0  0  0  0  0  0
    0.7020   -0.3550   -0.1310 C   0  0  0  0  0  0  0  0  0  0  0  0
    1.9070   -1.0470   -0.1370 C   0  0  0  0  0  0  0  0  0  0  0  0
    3.1520   -0.2790    0.0860 C   0  0  2  0  0  0  0  0  0  0  0  0
    4.2450   -1.2230    0.5620 C   0  0  0  0  0  0  0  0  0  0  0  0
    3.7780   -1.8240    1.7220 O   0  0  0  0  0  0  0  0  0  0  0  0
    2.9330    0.6910    1.0810 O   0  0  0  0  0  0  0  0  0  0  0  0
    3.1930    1.9610    0.5620 C   0  0  0  0  0  0  0  0  0  0  0  0
    2.9480    2.9970    1.6330 C   0  0  0  0  0  0  0  0  0  0  0  0
    1.9080   -2.3930   -0.3480 C   0  0  0  0  0  0  0  0  0  0  0  0
    0.7060   -3.0360   -0.5500 C   0  0  0  0  0  0  0  0  0  0  0  0
   -0.4840   -2.3270   -0.5380 C   0  0  0  0  0  0  0  0  0  0  0  0
   -1.7780   -3.0740   -0.7000 C   0  0  0  0  0  0  0  0  0  0  0  0
  1  2  1  0
  2  3  1  0
  4  3  1  1
  4  5  1  0
  4  8  1  0
  5  6  1  0
  6  7  1  0
  8  9  2  0
  8 19  1  0
  9 10  1  0
 10 11  1  0
 10 17  2  0
 11 12  1  1
 11 14  1  0
 12 13  1  0
 14 15  1  0
 15 16  1  0
 17 18  1  0
 18 19  2  0
 19 20  1  0
M  END
