
     RDKit          3D

 17 18  0  0  0  0  0  0  0  0999 V2000
    4.4930    2.9790    0.2610 N   0  0  0  0  0  0  0  0  0  0  0  0
    4.1790    1.6970    0.2360 C   0  0  0  0  0  0  0  0  0  0  0  0
    5.5330    0.6200    0.1940 Cl  0  0  0  0  0  0  0  0  0  0  0  0
    2.7840    1.3460    0.2620 C   0  0  0  0  0  0  0  0  0  0  0  0
    2.2410    0.1540    0.2360 C   0  0  0  0  0  0  0  0  0  0  0  0
    2.9350   -1.1360    0.1720 C   0  0  0  0  0  0  0  0  0  0  0  0
    3.9360   -1.4460   -0.4510 O   0  0  0  0  0  0  0  0  0  0  0  0
    2.1380   -2.0360    1.0580 C   0  0  0  0  0  0  0  0  0  0  0  0
    0.7060   -1.5240    0.8920 C   0  0  0  0  0  0  0  0  0  0  0  0
    0.7860   -0.1710    0.2990 C   0  0  0  0  0  0  0  0  0  0  0  0
   -0.1960    0.5760   -0.0940 C   0  0  0  0  0  0  0  0  0  0  0  0
    0.1660    1.8490   -0.6510 O   0  0  0  0  0  0  0  0  0  0  0  0
   -1.6290    0.3710   -0.0780 C   0  0  1  0  0  0  0  0  0  0  0  0
   -2.2740    0.3880   -1.4820 C   0  0  0  0  0  0  0  0  0  0  0  0
   -3.7240    0.1800   -1.0990 C   0  0  0  0  0  0  0  0  0  0  0  0
   -3.7140   -0.6460    0.1490 C   0  0  0  0  0  0  0  0  0  0  0  0
   -2.1990   -0.8870    0.4470 C   0  0  0  0  0  0  0  0  0  0  0  0
  1  2  2  0
  2  3  1  0
  2  4  1  0
  4  5  2  3
  5  6  1  0
  5 10  1  0
  6  7  2  0
  6  8  1  0
  8  9  1  0
  9 10  1  0
 10 11  2  3
 11 12  1  0
 13 11  1  6
 13 14  1  0
 13 17  1  0
 14 15  1  0
 15 16  1  0
 16 17  1  0
M  END
