
     RDKit          3D

 17 18  0  0  0  0  0  0  0  0999 V2000
    6.1160   -1.1720    0.7430 C   0  0  0  0  0  0  0  0  0  0  0  0
    5.0270   -0.5380    0.3180 C   0  0  0  0  0  0  0  0  0  0  0  0
    3.6220   -0.9740    0.5180 C   0  0  0  0  0  0  0  0  0  0  0  0
    2.8260    0.2760    0.2220 C   0  0  2  0  0  0  0  0  0  0  0  0
    1.6400   -0.0660   -0.5610 N   0  0  0  0  0  0  0  0  0  0  0  0
    0.3700    0.2030   -0.0260 C   0  0  0  0  0  0  0  0  0  0  0  0
    0.2940    0.7310    1.1110 O   0  0  0  0  0  0  0  0  0  0  0  0
   -0.8200   -0.0770   -0.6760 O   0  0  0  0  0  0  0  0  0  0  0  0
   -2.0940    0.1980   -0.1290 C   0  0  1  0  0  0  0  0  0  0  0  0
   -2.8800    1.1800   -0.9270 C   0  0  0  0  0  0  0  0  0  0  0  0
   -4.3730    0.9240   -0.8960 C   0  0  0  0  0  0  0  0  0  0  0  0
   -4.6890    0.4610    0.5330 C   0  0  0  0  0  0  0  0  0  0  0  0
   -4.1900   -0.9710    0.6170 C   0  0  0  0  0  0  0  0  0  0  0  0
   -2.7880   -1.1040    0.1150 C   0  0  0  0  0  0  0  0  0  0  0  0
    3.7310    1.1720   -0.4880 C   0  0  0  0  0  0  0  0  0  0  0  0
    4.9580    0.7070   -0.4280 C   0  0  0  0  0  0  0  0  0  0  0  0
    6.3910    1.4460   -1.1380 Cl  0  0  0  0  0  0  0  0  0  0  0  0
  1  2  2  0
  2  3  1  0
  2 16  1  0
  3  4  1  0
  4  5  1  6
  4 15  1  0
  5  6  1  0
  6  7  2  0
  6  8  1  0
  9  8  1  6
  9 10  1  0
  9 14  1  0
 10 11  1  0
 11 12  1  0
 12 13  1  0
 13 14  1  0
 15 16  2  0
 16 17  1  0
M  END
