
     RDKit          3D

 17 18  0  0  0  0  0  0  0  0999 V2000
   -3.3570    1.9730   -0.0940 C   0  0  0  0  0  0  0  0  0  0  0  0
   -3.8970    0.6020   -0.3170 C   0  0  0  0  0  0  0  0  0  0  0  0
   -5.5740    0.4670   -0.8840 Cl  0  0  0  0  0  0  0  0  0  0  0  0
   -3.2100   -0.4970   -0.1390 C   0  0  0  0  0  0  0  0  0  0  0  0
   -3.9160   -1.8120   -0.4080 C   0  0  0  0  0  0  0  0  0  0  0  0
   -1.8020   -0.5830    0.2250 C   0  0  0  0  0  0  0  0  0  0  0  0
   -1.3820   -1.2890    1.3640 C   0  0  0  0  0  0  0  0  0  0  0  0
   -0.0120   -1.2520    1.4290 C   0  0  0  0  0  0  0  0  0  0  0  0
    0.4150   -0.5160    0.3130 C   0  0  0  0  0  0  0  0  0  0  0  0
    1.8560   -0.3040    0.0440 C   0  0  2  0  0  0  0  0  0  0  0  0
    2.4920   -1.5730    0.1160 O   0  0  0  0  0  0  0  0  0  0  0  0
    2.4450    0.4710    1.1810 C   0  0  0  0  0  0  0  0  0  0  0  0
    3.8930    0.7830    0.7980 C   0  0  0  0  0  0  0  0  0  0  0  0
    3.7890    1.6490   -0.2960 O   0  0  0  0  0  0  0  0  0  0  0  0
    3.3950    1.0070   -1.4430 C   0  0  0  0  0  0  0  0  0  0  0  0
    2.1210    0.2250   -1.3160 C   0  0  0  0  0  0  0  0  0  0  0  0
   -0.6870   -0.1420   -0.3650 N   0  0  0  0  0  0  0  0  0  0  0  0
  1  2  1  0
  2  3  1  0
  2  4  2  3
  4  5  1  0
  4  6  1  0
  6  7  2  0
  6 17  1  0
  7  8  1  0
  8  9  2  0
  9 10  1  0
  9 17  1  0
 10 11  1  6
 10 12  1  0
 10 16  1  0
 12 13  1  0
 13 14  1  0
 14 15  1  0
 15 16  1  0
M  END
