
     RDKit          3D

 17 17  0  0  0  0  0  0  0  0999 V2000
   -3.5190   -1.7610   -0.4620 C   0  0  0  0  0  0  0  0  0  0  0  0
   -2.3780   -1.1090   -0.4210 C   0  0  0  0  0  0  0  0  0  0  0  0
   -2.4780    0.3760   -0.3510 C   0  0  0  0  0  0  0  0  0  0  0  0
   -1.3070    1.0150    0.3060 C   0  0  0  0  0  0  0  0  0  0  0  0
   -1.5400    2.3300    0.5000 C   0  0  0  0  0  0  0  0  0  0  0  0
   -2.7960    2.9810    0.0940 C   0  0  0  0  0  0  0  0  0  0  0  0
   -0.0050    0.5320    0.7720 C   0  0  0  0  0  0  0  0  0  0  0  0
    0.6830   -0.4770    0.1520 N   0  0  0  0  0  0  0  0  0  0  0  0
    2.0480   -0.6990    0.5030 C   0  0  0  0  0  0  0  0  0  0  0  0
    3.0270    0.3410    0.0930 C   0  0  1  0  0  0  0  0  0  0  0  0
    4.4260   -0.2240    0.3820 C   0  0  0  0  0  0  0  0  0  0  0  0
    2.9790    0.4510   -1.3140 O   0  0  0  0  0  0  0  0  0  0  0  0
    2.9640    1.5420    0.7420 O   0  0  0  0  0  0  0  0  0  0  0  0
    0.1650   -1.2840   -0.8610 C   0  0  0  0  0  0  0  0  0  0  0  0
   -1.1550   -1.8790   -0.4490 C   0  0  0  0  0  0  0  0  0  0  0  0
   -1.2050   -3.1370   -0.0880 C   0  0  0  0  0  0  0  0  0  0  0  0
    0.2600   -4.1400   -0.1010 Cl  0  0  0  0  0  0  0  0  0  0  0  0
  1  2  2  0
  2  3  1  0
  2 15  1  0
  3  4  1  0
  4  5  2  3
  4  7  1  0
  5  6  1  0
  7  8  1  0
  8  9  1  0
  8 14  1  0
  9 10  1  0
 10 11  1  6
 10 12  1  0
 10 13  1  0
 14 15  1  0
 15 16  2  3
 16 17  1  0
M  END
