
     RDKit          3D

 17 19  0  0  0  0  0  0  0  0999 V2000
   -4.5700   -0.0200   -1.4370 O   0  0  0  0  0  0  0  0  0  0  0  0
   -3.4100   -0.1360   -0.6740 C   0  0  0  0  0  0  0  0  0  0  0  0
   -3.4390   -0.5620    0.6360 C   0  0  0  0  0  0  0  0  0  0  0  0
   -2.2750   -0.6670    1.3660 C   0  0  0  0  0  0  0  0  0  0  0  0
   -1.0360   -0.3470    0.8080 C   0  0  0  0  0  0  0  0  0  0  0  0
   -1.0050    0.0750   -0.4870 C   0  0  0  0  0  0  0  0  0  0  0  0
   -2.2070    0.1810   -1.2370 C   0  0  0  0  0  0  0  0  0  0  0  0
    0.2580    0.4320   -1.1530 C   0  0  2  0  0  0  0  0  0  0  0  0
    0.3970   -0.4080   -2.2780 O   0  0  0  0  0  0  0  0  0  0  0  0
    1.4260    0.2820   -0.2820 C   0  0  0  0  0  0  0  0  0  0  0  0
    2.6910    0.5990   -0.8210 C   0  0  0  0  0  0  0  0  0  0  0  0
    3.8490    0.4980   -0.1050 C   0  0  0  0  0  0  0  0  0  0  0  0
    5.3970    0.9170   -0.8610 Cl  0  0  0  0  0  0  0  0  0  0  0  0
    3.8150    0.0720    1.2010 C   0  0  0  0  0  0  0  0  0  0  0  0
    2.5970   -0.2440    1.7580 C   0  0  0  0  0  0  0  0  0  0  0  0
    1.4160   -0.1400    1.0240 C   0  0  0  0  0  0  0  0  0  0  0  0
    0.1530   -0.4630    1.5810 N   0  0  0  0  0  0  0  0  0  0  0  0
  1  2  1  0
  2  3  2  0
  2  7  1  0
  3  4  1  0
  4  5  2  0
  5  6  1  0
  5 17  1  0
  6  7  2  0
  6  8  1  0
  8  9  1  6
  8 10  1  0
 10 11  2  0
 10 16  1  0
 11 12  1  0
 12 13  1  0
 12 14  2  0
 14 15  1  0
 15 16  2  0
 16 17  1  0
M  END
