
     RDKit          3D

 17 18  0  0  0  0  0  0  0  0999 V2000
    5.2180    0.5760    0.4890 C   0  0  0  0  0  0  0  0  0  0  0  0
    4.5180   -0.6290    0.9570 C   0  0  0  0  0  0  0  0  0  0  0  0
    5.4290   -1.7570    1.9460 Cl  0  0  0  0  0  0  0  0  0  0  0  0
    3.2860   -0.9080    0.6970 C   0  0  0  0  0  0  0  0  0  0  0  0
    2.4250   -0.0480   -0.0860 C   0  0  0  0  0  0  0  0  0  0  0  0
    1.1920   -0.2550   -0.4370 C   0  0  0  0  0  0  0  0  0  0  0  0
    0.1950   -1.3030   -0.2760 C   0  0  0  0  0  0  0  0  0  0  0  0
   -1.1310   -0.5380   -0.2680 C   0  0  0  0  0  0  0  0  0  0  0  0
   -2.4140   -0.9330    0.1590 C   0  0  0  0  0  0  0  0  0  0  0  0
   -3.3610    0.0140    0.3070 C   0  0  0  0  0  0  0  0  0  0  0  0
   -4.7690   -0.2900    0.7930 C   0  0  0  0  0  0  0  0  0  0  0  0
   -5.4890   -0.8350   -0.3430 O   0  0  0  0  0  0  0  0  0  0  0  0
   -3.0280    1.3490    0.0350 C   0  0  0  0  0  0  0  0  0  0  0  0
   -3.9460    2.2100    0.1980 O   0  0  0  0  0  0  0  0  0  0  0  0
   -1.8470    1.7060   -0.3590 N   0  0  0  0  0  0  0  0  0  0  0  0
   -0.8770    0.7660   -0.5290 C   0  0  0  0  0  0  0  0  0  0  0  0
    0.4520    0.8370   -1.1530 C   0  0  0  0  0  0  0  0  0  0  0  0
  1  2  1  0
  2  3  1  0
  2  4  2  3
  4  5  1  0
  5  6  2  3
  6  7  1  0
  6 17  1  0
  7  8  1  0
  8  9  1  0
  8 16  2  0
  9 10  2  0
 10 11  1  0
 10 13  1  0
 11 12  1  0
 13 14  2  0
 13 15  1  0
 15 16  1  0
 16 17  1  0
M  END
