
     RDKit          3D

 31 33  0  0  0  0  0  0  0  0999 V2000
    5.9260   -2.5860    1.9970 O   0  0  0  0  0  0  0  0  0  0  0  0
    5.7900   -2.3230    0.7820 C   0  0  0  0  0  0  0  0  0  0  0  0
    6.7970   -2.6510   -0.0860 O   0  0  0  0  0  0  0  0  0  0  0  0
    4.5580   -1.6720    0.3290 C   0  0  0  0  0  0  0  0  0  0  0  0
    3.5650   -1.3510    1.2100 C   0  0  0  0  0  0  0  0  0  0  0  0
    2.3800   -0.7270    0.7860 C   0  0  0  0  0  0  0  0  0  0  0  0
    2.2130   -0.4310   -0.5420 C   0  0  0  0  0  0  0  0  0  0  0  0
    1.0590    0.1760   -1.0380 N   0  0  0  0  0  0  0  0  0  0  0  0
   -0.1480    0.4100   -0.3560 C   0  0  0  0  0  0  0  0  0  0  0  0
   -0.3160    0.0780    0.8190 O   0  0  0  0  0  0  0  0  0  0  0  0
   -1.2880    1.0920   -1.0760 C   0  0  2  0  0  0  0  0  0  0  0  0
   -0.8230    2.4050   -1.6450 C   0  0  0  0  0  0  0  0  0  0  0  0
   -0.3210    3.3570   -0.5970 C   0  0  0  0  0  0  0  0  0  0  0  0
    0.2150    4.9250   -1.4390 P   0  0  0  0  0  0  0  0  0  0  0  0
   -0.3040    6.2550   -0.4270 O   0  0  0  0  0  0  0  0  0  0  0  0
    1.9490    4.9830   -1.4930 O   0  0  0  0  0  0  0  0  0  0  0  0
   -2.4180    1.2260   -0.1950 N   0  0  0  0  0  0  0  0  0  0  0  0
   -3.0190    0.0650    0.3640 C   0  0  0  0  0  0  0  0  0  0  0  0
   -2.8300   -1.1210   -0.1570 N   0  0  0  0  0  0  0  0  0  0  0  0
   -3.5120   -2.1210    0.5480 C   0  0  0  0  0  0  0  0  0  0  0  0
   -3.6160   -3.4610    0.3900 N   0  0  0  0  0  0  0  0  0  0  0  0
   -4.3680   -4.1600    1.2580 C   0  0  0  0  0  0  0  0  0  0  0  0
   -4.4440   -5.4080    1.0830 O   0  0  0  0  0  0  0  0  0  0  0  0
   -5.0100   -3.5710    2.2630 O   0  0  0  0  0  0  0  0  0  0  0  0
   -4.9400   -2.2720    2.4580 C   0  0  0  0  0  0  0  0  0  0  0  0
   -5.5390   -1.6970    3.4010 O   0  0  0  0  0  0  0  0  0  0  0  0
   -4.1920   -1.5100    1.6090 C   0  0  0  0  0  0  0  0  0  0  0  0
   -3.8810   -0.0910    1.5020 C   0  0  0  0  0  0  0  0  0  0  0  0
   -4.2760    0.8280    2.2450 O   0  0  0  0  0  0  0  0  0  0  0  0
    3.2210   -0.7540   -1.4460 C   0  0  0  0  0  0  0  0  0  0  0  0
    4.3590   -1.3600   -0.9980 C   0  0  0  0  0  0  0  0  0  0  0  0
  1  2  2  0
  2  3  1  0
  2  4  1  0
  4  5  2  0
  4 31  1  0
  5  6  1  0
  6  7  2  0
  7  8  1  0
  7 30  1  0
  8  9  1  0
  9 10  2  0
  9 11  1  0
 11 12  1  1
 11 17  1  0
 12 13  1  0
 13 14  1  0
 14 15  1  0
 14 16  1  0
 17 18  1  0
 18 19  2  0
 18 28  1  0
 19 20  1  0
 20 21  1  0
 20 27  2  0
 21 22  1  0
 22 23  2  0
 22 24  1  0
 24 25  1  0
 25 26  2  0
 25 27  1  0
 27 28  1  0
 28 29  2  0
 30 31  2  0
M  END
