
     RDKit          3D

 31 33  0  0  0  0  0  0  0  0999 V2000
   -3.8520    2.9650    2.3360 C   0  0  0  0  0  0  0  0  0  0  0  0
   -3.1600    1.9300    1.5090 C   0  0  0  0  0  0  0  0  0  0  0  0
   -3.2580    0.5860    1.7830 C   0  0  0  0  0  0  0  0  0  0  0  0
   -2.6140   -0.3870    1.0150 C   0  0  0  0  0  0  0  0  0  0  0  0
   -2.7440   -1.7030    1.3280 N   0  0  0  0  0  0  0  0  0  0  0  0
   -2.1560   -2.6710    0.6340 C   0  0  0  0  0  0  0  0  0  0  0  0
   -2.2630   -4.0150    0.8980 C   0  0  0  0  0  0  0  0  0  0  0  0
   -2.9630   -4.3660    1.8820 O   0  0  0  0  0  0  0  0  0  0  0  0
   -1.6380   -4.9470    0.1290 N   0  0  0  0  0  0  0  0  0  0  0  0
   -0.8910   -4.5620   -0.9210 C   0  0  0  0  0  0  0  0  0  0  0  0
   -0.3310   -5.4620   -1.6060 O   0  0  0  0  0  0  0  0  0  0  0  0
   -0.7500   -3.2590   -1.2280 N   0  0  0  0  0  0  0  0  0  0  0  0
   -1.3390   -2.2700   -0.5130 C   0  0  0  0  0  0  0  0  0  0  0  0
   -1.2190   -0.9620   -0.8100 N   0  0  0  0  0  0  0  0  0  0  0  0
   -0.4070   -0.5490   -1.9030 C   0  0  0  0  0  0  0  0  0  0  0  0
    1.0120   -0.1590   -1.5530 C   0  0  2  0  0  0  0  0  0  0  0  0
    1.5890    0.1930   -2.8070 O   0  0  0  0  0  0  0  0  0  0  0  0
    1.8500   -1.2660   -1.0140 C   0  0  2  0  0  0  0  0  0  0  0  0
    1.4260   -1.6730    0.2430 O   0  0  0  0  0  0  0  0  0  0  0  0
    3.3290   -0.9530   -0.9480 C   0  0  2  0  0  0  0  0  0  0  0  0
    4.0190   -2.1350   -0.5630 O   0  0  0  0  0  0  0  0  0  0  0  0
    3.6780    0.0600    0.1130 C   0  0  0  0  0  0  0  0  0  0  0  0
    3.1040    1.3040   -0.0950 O   0  0  0  0  0  0  0  0  0  0  0  0
    3.5090    2.4030    1.0950 P   0  0  1  0  0  0  0  0  0  0  0  0
    2.5700    2.2090    2.2780 O   0  0  0  0  0  0  0  0  0  0  0  0
    5.0930    2.2120    1.6450 O   0  0  0  0  0  0  0  0  0  0  0  0
    3.3190    3.9800    0.5010 O   0  0  0  0  0  0  0  0  0  0  0  0
   -1.8450   -0.0080   -0.0650 C   0  0  0  0  0  0  0  0  0  0  0  0
   -1.7370    1.3360   -0.3510 C   0  0  0  0  0  0  0  0  0  0  0  0
   -2.3900    2.2980    0.4300 C   0  0  0  0  0  0  0  0  0  0  0  0
   -2.2720    3.7460    0.1180 C   0  0  0  0  0  0  0  0  0  0  0  0
  1  2  1  0
  2  3  2  0
  2 30  1  0
  3  4  1  0
  4  5  1  0
  4 28  2  0
  5  6  2  0
  6  7  1  0
  6 13  1  0
  7  8  2  0
  7  9  1  0
  9 10  1  0
 10 11  2  0
 10 12  1  0
 12 13  2  0
 13 14  1  0
 14 15  1  0
 14 28  1  0
 15 16  1  0
 16 17  1  6
 16 18  1  0
 18 19  1  1
 18 20  1  0
 20 21  1  1
 20 22  1  0
 22 23  1  0
 23 24  1  0
 24 25  2  0
 24 26  1  1
 24 27  1  0
 28 29  1  0
 29 30  2  0
 30 31  1  0
M  END
