
     RDKit          3D

 31 33  0  0  0  0  0  0  0  0999 V2000
    5.5480   -2.6460    3.6980 O   0  0  0  0  0  0  0  0  0  0  0  0
    4.3620   -2.9090    4.0770 C   0  0  0  0  0  0  0  0  0  0  0  0
    3.2010   -2.4740    3.3380 C   0  0  0  0  0  0  0  0  0  0  0  0
    3.2940   -1.7700    2.2140 C   0  0  0  0  0  0  0  0  0  0  0  0
    2.1300   -1.3390    1.4820 C   0  0  0  0  0  0  0  0  0  0  0  0
    2.0340   -0.6520    0.3950 C   0  0  0  0  0  0  0  0  0  0  0  0
    3.0960   -0.0760   -0.4480 C   0  0  0  0  0  0  0  0  0  0  0  0
    4.2390    0.4290   -0.0300 C   0  0  0  0  0  0  0  0  0  0  0  0
    5.2450    0.9800   -0.9550 C   0  0  0  0  0  0  0  0  0  0  0  0
    5.1800    1.0550   -2.2320 N   0  0  0  0  0  0  0  0  0  0  0  0
    6.3210    1.6370   -2.7590 O   0  0  0  0  0  0  0  0  0  0  0  0
    6.9850    2.2850   -1.6730 C   0  0  0  0  0  0  0  0  0  0  0  0
    6.4800    1.5330   -0.5860 O   0  0  0  0  0  0  0  0  0  0  0  0
    2.5980   -0.1240   -1.8020 N   0  0  0  0  0  0  0  0  0  0  0  0
    1.2790   -0.7080   -1.7370 C   0  0  0  0  0  0  0  0  0  0  0  0
    0.7280   -1.3710   -2.6220 O   0  0  0  0  0  0  0  0  0  0  0  0
    0.8000   -0.3030   -0.3660 C   0  0  1  0  0  0  0  0  0  0  0  0
   -0.4430   -0.9840    0.0410 C   0  0  0  0  0  0  0  0  0  0  0  0
   -1.2230    0.0220    0.7850 N   0  0  0  0  0  0  0  0  0  0  0  0
   -2.3660   -0.1690    1.6450 C   0  0  0  0  0  0  0  0  0  0  0  0
   -3.6460   -0.0990    0.9330 C   0  0  0  0  0  0  0  0  0  0  0  0
   -4.7250   -0.2490    1.5600 O   0  0  0  0  0  0  0  0  0  0  0  0
   -3.7590    0.1350   -0.4640 N   0  0  0  0  0  0  0  0  0  0  0  0
   -5.0260    0.2040   -1.1630 C   0  0  0  0  0  0  0  0  0  0  0  0
   -5.9260    1.2890   -0.6640 C   0  0  0  0  0  0  0  0  0  0  0  0
   -7.4930    1.2300   -1.6690 P   0  0  0  0  0  0  0  0  0  0  0  0
   -7.3510    2.3950   -2.9460 O   0  0  0  0  0  0  0  0  0  0  0  0
   -7.7600   -0.3240   -2.3630 O   0  0  0  0  0  0  0  0  0  0  0  0
   -0.5920    1.2540    0.4660 C   0  0  0  0  0  0  0  0  0  0  0  0
   -0.9510    2.3920    0.8940 O   0  0  0  0  0  0  0  0  0  0  0  0
    0.5030    1.0510   -0.4000 O   0  0  0  0  0  0  0  0  0  0  0  0
  1  2  2  0
  2  3  1  0
  3  4  2  3
  4  5  1  0
  5  6  2  3
  6  7  1  0
  6 17  1  0
  7  8  2  3
  7 14  1  0
  8  9  1  0
  9 10  2  0
  9 13  1  0
 10 11  1  0
 11 12  1  0
 12 13  1  0
 14 15  1  0
 15 16  2  0
 15 17  1  0
 17 18  1  1
 17 31  1  0
 18 19  1  0
 19 20  1  0
 19 29  1  0
 20 21  1  0
 21 22  2  0
 21 23  1  0
 23 24  1  0
 24 25  1  0
 25 26  1  0
 26 27  1  0
 26 28  1  0
 29 30  2  0
 29 31  1  0
M  END
