
     RDKit          3D

 33 37  0  0  0  0  0  0  0  0999 V2000
   -3.7990   -0.4290   -2.6230 C   0  0  0  0  0  0  0  0  0  0  0  0
   -3.8630   -0.3370   -1.1720 N   0  0  0  0  0  0  0  0  0  0  0  0
   -4.6360    0.8240   -0.7630 C   0  0  1  0  0  0  0  0  0  0  0  0
   -6.0680    0.7220   -1.2020 C   0  0  0  0  0  0  0  0  0  0  0  0
   -6.9600    0.0020   -0.2560 C   0  0  0  0  0  0  0  0  0  0  0  0
   -6.3530   -0.4490    1.0230 C   0  0  0  0  0  0  0  0  0  0  0  0
   -5.4560    0.5790    1.6030 C   0  0  0  0  0  0  0  0  0  0  0  0
   -4.4630    1.2000    0.6690 C   0  0  1  0  0  0  0  0  0  0  0  0
   -3.0550    0.9670    1.0770 C   0  0  0  0  0  0  0  0  0  0  0  0
   -2.2660    2.0320    1.2930 N   0  0  0  0  0  0  0  0  0  0  0  0
   -0.9760    1.8250    1.6570 C   0  0  0  0  0  0  0  0  0  0  0  0
    0.3310    3.0160    2.0650 S   0  0  0  0  0  0  0  0  0  0  0  0
    1.5580    1.7960    2.4280 C   0  0  0  0  0  0  0  0  0  0  0  0
    0.9110    0.5650    2.2190 C   0  0  0  0  0  0  0  0  0  0  0  0
    1.8100   -0.6760    2.3230 C   0  0  0  0  0  0  0  0  0  0  0  0
    2.5590   -0.8230    1.0470 C   0  0  0  0  0  0  0  0  0  0  0  0
    3.7090   -0.0950    0.8110 N   0  0  0  0  0  0  0  0  0  0  0  0
    4.2170   -0.3800   -0.3840 C   0  0  0  0  0  0  0  0  0  0  0  0
    5.4180    0.0690   -1.0830 C   0  0  0  0  0  0  0  0  0  0  0  0
    5.5430   -0.2320   -2.4540 C   0  0  0  0  0  0  0  0  0  0  0  0
    6.6280    0.1200   -3.2050 C   0  0  0  0  0  0  0  0  0  0  0  0
    7.6370    0.8030   -2.5650 C   0  0  0  0  0  0  0  0  0  0  0  0
    8.6510    1.1390   -3.2470 O   0  0  0  0  0  0  0  0  0  0  0  0
    7.5430    1.1000   -1.2710 N   0  0  0  0  0  0  0  0  0  0  0  0
    6.4540    0.7470   -0.5130 C   0  0  0  0  0  0  0  0  0  0  0  0
    6.4350    1.0840    0.9260 C   0  0  0  0  0  0  0  0  0  0  0  0
    3.3300   -1.3300   -0.9000 C   0  0  0  0  0  0  0  0  0  0  0  0
    2.3300   -1.5810   -0.0060 N   0  0  0  0  0  0  0  0  0  0  0  0
    1.2480   -2.5540   -0.2590 C   0  0  0  0  0  0  0  0  0  0  0  0
   -0.3710    0.6440    1.8330 C   0  0  0  0  0  0  0  0  0  0  0  0
   -1.2310   -0.4660    1.6020 C   0  0  0  0  0  0  0  0  0  0  0  0
   -0.8890   -1.6400    1.7140 O   0  0  0  0  0  0  0  0  0  0  0  0
   -2.5020   -0.2300    1.2430 N   0  0  0  0  0  0  0  0  0  0  0  0
  1  2  1  0
  3  2  1  1
  3  4  1  0
  3  8  1  0
  4  5  1  0
  5  6  1  0
  6  7  1  0
  7  8  1  0
  8  9  1  1
  9 10  2  0
  9 33  1  0
 10 11  1  0
 11 12  1  0
 11 30  2  0
 12 13  1  0
 13 14  2  0
 14 15  1  0
 14 30  1  0
 15 16  1  0
 16 17  2  0
 16 28  1  0
 17 18  1  0
 18 19  1  0
 18 27  2  0
 19 20  1  0
 19 25  2  0
 20 21  2  0
 21 22  1  0
 22 23  2  0
 22 24  1  0
 24 25  1  0
 25 26  1  0
 27 28  1  0
 28 29  1  0
 30 31  1  0
 31 32  2  0
 31 33  1  0
M  CHG  1  17   1
M  END
