
     RDKit          3D

 32 36  0  0  0  0  0  0  0  0999 V2000
   -2.1970   -4.2960   -1.2630 C   0  0  0  0  0  0  0  0  0  0  0  0
   -3.0500   -4.8590   -0.2300 N   0  0  0  0  0  0  0  0  0  0  0  0
   -3.5870   -3.8020    0.6420 C   0  0  0  0  0  0  0  0  0  0  0  0
   -2.5330   -2.9360    1.0990 C   0  0  0  0  0  0  0  0  0  0  0  0
   -2.1400   -1.7260    1.0240 C   0  0  0  0  0  0  0  0  0  0  0  0
   -0.9200   -1.3240    1.7330 N   0  0  0  0  0  0  0  0  0  0  0  0
   -0.3950   -0.0220    1.7040 C   0  0  0  0  0  0  0  0  0  0  0  0
    0.8630    0.2770    2.4710 C   0  0  0  0  0  0  0  0  0  0  0  0
    1.9270   -0.5640    1.9650 N   0  0  0  0  0  0  0  0  0  0  0  0
    2.2560   -1.7880    2.4040 C   0  0  0  0  0  0  0  0  0  0  0  0
    3.3210   -2.2290    1.6490 C   0  0  0  0  0  0  0  0  0  0  0  0
    3.5860   -1.2390    0.7800 N   0  0  0  0  0  0  0  0  0  0  0  0
    2.7440   -0.2180    0.9610 C   0  0  0  0  0  0  0  0  0  0  0  0
    2.7400    1.0620    0.1720 C   0  0  2  0  0  0  0  0  0  0  0  0
    2.5830    0.8030   -1.2930 C   0  0  0  0  0  0  0  0  0  0  0  0
    3.9600    0.8670   -1.8420 C   0  0  0  0  0  0  0  0  0  0  0  0
    4.2870    0.5510   -3.0150 O   0  0  0  0  0  0  0  0  0  0  0  0
    4.8640    1.3350   -0.8580 N   0  0  0  0  0  0  0  0  0  0  0  0
    6.2990    1.3910   -0.9530 C   0  0  0  0  0  0  0  0  0  0  0  0
    4.0800    1.7460    0.2630 C   0  0  0  0  0  0  0  0  0  0  0  0
   -0.9890    0.8800    1.0320 N   0  0  0  0  0  0  0  0  0  0  0  0
   -2.1960    0.6070    0.2910 C   0  0  0  0  0  0  0  0  0  0  0  0
   -2.7820    1.6260   -0.4350 C   0  0  0  0  0  0  0  0  0  0  0  0
   -2.2170    2.9910   -0.4510 C   0  0  0  0  0  0  0  0  0  0  0  0
   -2.7450    4.0070   -1.1390 C   0  0  0  0  0  0  0  0  0  0  0  0
   -1.9530    5.2500   -0.9550 C   0  0  0  0  0  0  0  0  0  0  0  0
   -0.8790    4.8230   -0.0570 C   0  0  0  0  0  0  0  0  0  0  0  0
   -1.0600    3.5360    0.2080 C   0  0  0  0  0  0  0  0  0  0  0  0
   -3.9300    1.3650   -1.1680 C   0  0  0  0  0  0  0  0  0  0  0  0
   -4.4930    0.1210   -1.1870 C   0  0  0  0  0  0  0  0  0  0  0  0
   -3.9190   -0.8840   -0.4730 C   0  0  0  0  0  0  0  0  0  0  0  0
   -2.7690   -0.6640    0.2770 C   0  0  0  0  0  0  0  0  0  0  0  0
  1  2  1  0
  2  3  1  0
  3  4  1  0
  4  5  2  3
  5  6  1  0
  5 32  1  0
  6  7  1  0
  7  8  1  0
  7 21  2  0
  8  9  1  0
  9 10  1  0
  9 13  1  0
 10 11  2  0
 11 12  1  0
 12 13  2  0
 14 13  1  1
 14 15  1  0
 14 20  1  0
 15 16  1  0
 16 17  2  0
 16 18  1  0
 18 19  1  0
 18 20  1  0
 21 22  1  0
 22 23  2  0
 22 32  1  0
 23 24  1  0
 23 29  1  0
 24 25  2  0
 24 28  1  0
 25 26  1  0
 26 27  1  0
 27 28  2  0
 29 30  2  0
 30 31  1  0
 31 32  2  0
M  CHG  2   2   1  12   1
M  END
