
     RDKit          3D

 33 37  0  0  0  0  0  0  0  0999 V2000
    6.5380    2.5230    2.5550 C   0  0  0  0  0  0  0  0  0  0  0  0
    5.8540    1.7210    1.5020 C   0  0  0  0  0  0  0  0  0  0  0  0
    6.3960    0.4940    1.1800 C   0  0  0  0  0  0  0  0  0  0  0  0
    5.7710   -0.2480    0.2140 C   0  0  0  0  0  0  0  0  0  0  0  0
    4.6280    0.1790   -0.4450 C   0  0  0  0  0  0  0  0  0  0  0  0
    4.0010   -0.6480   -1.4600 C   0  0  0  0  0  0  0  0  0  0  0  0
    2.9250   -0.2370   -2.0770 N   0  0  0  0  0  0  0  0  0  0  0  0
    2.3590   -1.0380   -3.0290 N   0  0  0  0  0  0  0  0  0  0  0  0
    1.2900   -1.7120   -3.0150 C   0  0  0  0  0  0  0  0  0  0  0  0
    0.8210   -2.6930   -4.4770 S   0  0  0  0  0  0  0  0  0  0  0  0
   -0.0900   -4.1120   -3.8070 C   0  0  0  0  0  0  0  0  0  0  0  0
   -0.9610   -3.6920   -2.6460 C   0  0  0  0  0  0  0  0  0  0  0  0
   -0.1490   -3.0340   -1.5470 C   0  0  0  0  0  0  0  0  0  0  0  0
    0.3980   -1.7580   -1.9090 N   0  0  0  0  0  0  0  0  0  0  0  0
    0.0870   -0.5470   -1.1850 C   0  0  0  0  0  0  0  0  0  0  0  0
    0.4980    0.6320   -1.6500 N   0  0  0  0  0  0  0  0  0  0  0  0
    0.2760    1.8130   -1.0630 C   0  0  0  0  0  0  0  0  0  0  0  0
    0.6780    2.9150   -1.5250 O   0  0  0  0  0  0  0  0  0  0  0  0
   -0.4500    1.7670    0.1340 C   0  0  0  0  0  0  0  0  0  0  0  0
   -0.8950    0.5730    0.6530 C   0  0  0  0  0  0  0  0  0  0  0  0
   -1.6500    0.5460    1.9120 C   0  0  1  0  0  0  0  0  0  0  0  0
   -2.3020    1.8810    2.2310 C   0  0  0  0  0  0  0  0  0  0  0  0
   -3.3040    2.1850    1.2720 O   0  0  0  0  0  0  0  0  0  0  0  0
   -4.2940    1.1860    1.0770 C   0  0  0  0  0  0  0  0  0  0  0  0
   -5.5160    1.2660    0.5840 C   0  0  0  0  0  0  0  0  0  0  0  0
   -6.1210    2.4750    0.1150 N   0  0  0  0  0  0  0  0  0  0  0  0
   -6.1080   -0.0920    0.6200 C   0  0  0  0  0  0  0  0  0  0  0  0
   -5.0150   -0.9100    1.2020 C   0  0  0  0  0  0  0  0  0  0  0  0
   -3.9720   -0.1690    1.4650 C   0  0  0  0  0  0  0  0  0  0  0  0
   -2.6610   -0.5490    2.0520 C   0  0  0  0  0  0  0  0  0  0  0  0
   -0.6000   -0.5440   -0.0440 N   0  0  0  0  0  0  0  0  0  0  0  0
    4.1190    1.4130   -0.0920 C   0  0  0  0  0  0  0  0  0  0  0  0
    4.7160    2.1880    0.8700 C   0  0  0  0  0  0  0  0  0  0  0  0
  1  2  1  0
  2  3  2  0
  2 33  1  0
  3  4  1  0
  4  5  2  0
  5  6  1  0
  5 32  1  0
  6  7  2  3
  7  8  1  0
  8  9  2  3
  9 10  1  0
  9 14  1  0
 10 11  1  0
 11 12  1  0
 12 13  1  0
 13 14  1  0
 14 15  1  0
 15 16  2  0
 15 31  1  0
 16 17  1  0
 17 18  2  0
 17 19  1  0
 19 20  2  0
 21 20  1  6
 20 31  1  0
 21 22  1  0
 21 30  1  0
 22 23  1  0
 23 24  1  0
 24 25  2  0
 24 29  1  0
 25 26  1  0
 25 27  1  0
 27 28  1  0
 28 29  2  0
 29 30  1  0
 32 33  2  0
M  CHG  1  26   1
M  END
