
     RDKit          3D

 19 19  0  0  0  0  0  0  0  0999 V2000
   -5.1290    0.4710    1.6580 N   0  0  0  0  0  0  0  0  0  0  0  0
   -4.3600   -0.1760    0.6000 C   0  0  0  0  0  0  0  0  0  0  0  0
   -2.9270    0.3110    0.7680 C   0  0  2  0  0  0  0  0  0  0  0  0
   -2.9090    1.7130    0.6410 O   0  0  0  0  0  0  0  0  0  0  0  0
   -2.0740   -0.2220   -0.3700 C   0  0  2  0  0  0  0  0  0  0  0  0
   -2.6570    0.2030   -1.5510 O   0  0  0  0  0  0  0  0  0  0  0  0
   -1.9980   -1.7080   -0.3290 C   0  0  0  0  0  0  0  0  0  0  0  0
   -1.2480   -2.2000   -1.4060 O   0  0  0  0  0  0  0  0  0  0  0  0
   -0.7090    0.4600   -0.2260 C   0  0  0  0  0  0  0  0  0  0  0  0
    0.1030    0.1220   -1.2630 O   0  0  0  0  0  0  0  0  0  0  0  0
    1.3280    0.7070   -1.3690 C   0  0  0  0  0  0  0  0  0  0  0  0
    2.2070    0.4670   -0.2060 C   0  0  2  0  0  0  0  0  0  0  0  0
    1.6740    0.9920    0.9480 O   0  0  0  0  0  0  0  0  0  0  0  0
    3.5700    1.1700   -0.3760 C   0  0  0  0  0  0  0  0  0  0  0  0
    4.3720    0.7880    0.8500 C   0  0  0  0  0  0  0  0  0  0  0  0
    3.6130    0.1580    1.8120 O   0  0  0  0  0  0  0  0  0  0  0  0
    3.1490   -1.0840    1.4250 C   0  0  0  0  0  0  0  0  0  0  0  0
    2.5840   -0.9970    0.0080 C   0  0  1  0  0  0  0  0  0  0  0  0
    1.5430   -1.8660   -0.1840 O   0  0  0  0  0  0  0  0  0  0  0  0
  1  2  1  0
  2  3  1  0
  3  4  1  6
  3  5  1  0
  5  6  1  6
  5  7  1  0
  5  9  1  0
  7  8  1  0
  9 10  1  0
 10 11  1  0
 11 12  1  0
 12 13  1  1
 12 14  1  0
 12 18  1  0
 14 15  1  0
 15 16  1  0
 16 17  1  0
 17 18  1  0
 18 19  1  1
M  END
