
     RDKit          3D

 19 19  0  0  0  0  0  0  0  0999 V2000
    5.9770    1.1410   -0.5410 N   0  0  0  0  0  0  0  0  0  0  0  0
    5.5080    0.4250    0.6200 C   0  0  0  0  0  0  0  0  0  0  0  0
    3.9880    0.4510    0.7100 C   0  0  2  0  0  0  0  0  0  0  0  0
    3.6450   -0.2510    1.8390 O   0  0  0  0  0  0  0  0  0  0  0  0
    3.3450    0.0170   -0.5570 C   0  0  0  0  0  0  0  0  0  0  0  0
    1.9580    0.1310   -0.5060 O   0  0  0  0  0  0  0  0  0  0  0  0
    1.0910   -0.5370    0.3090 C   0  0  0  0  0  0  0  0  0  0  0  0
    1.5000   -1.3760    1.1340 O   0  0  0  0  0  0  0  0  0  0  0  0
   -0.3620   -0.2700    0.2200 C   0  0  0  0  0  0  0  0  0  0  0  0
   -1.0580   -1.3570   -0.5670 C   0  0  2  0  0  0  0  0  0  0  0  0
   -0.5050   -1.3790   -1.8460 O   0  0  0  0  0  0  0  0  0  0  0  0
   -2.5190   -1.0250   -0.7180 C   0  0  1  0  0  0  0  0  0  0  0  0
   -3.1310   -2.0040   -1.5060 O   0  0  0  0  0  0  0  0  0  0  0  0
   -3.2390   -1.0710    0.6300 C   0  0  0  0  0  0  0  0  0  0  0  0
   -4.5560   -0.4220    0.1790 C   0  0  0  0  0  0  0  0  0  0  0  0
   -3.9680    0.6880   -0.7020 C   0  0  1  0  0  0  0  0  0  0  0  0
   -3.7750    1.8800    0.2460 C   0  0  0  0  0  0  0  0  0  0  0  0
   -3.1310    2.9350   -0.3970 O   0  0  0  0  0  0  0  0  0  0  0  0
   -2.7500    0.2530   -1.1400 O   0  0  0  0  0  0  0  0  0  0  0  0
  1  2  1  0
  2  3  1  0
  3  4  1  1
  3  5  1  0
  5  6  1  0
  6  7  1  0
  7  8  2  0
  7  9  1  0
  9 10  1  0
 10 11  1  6
 10 12  1  0
 12 13  1  6
 12 14  1  0
 12 19  1  0
 14 15  1  0
 15 16  1  0
 16 17  1  1
 16 19  1  0
 17 18  1  0
M  END
