
     RDKit          3D

 20 20  0  0  0  0  0  0  0  0999 V2000
   -2.0410   -2.5060    0.5410 C   0  0  0  0  0  0  0  0  0  0  0  0
   -1.3030   -1.3870   -0.1910 C   0  0  2  0  0  0  0  0  0  0  0  0
   -1.0870   -1.8820   -1.4900 O   0  0  0  0  0  0  0  0  0  0  0  0
    0.0030   -1.2020    0.5190 C   0  0  0  0  0  0  0  0  0  0  0  0
    0.8840   -0.1370   -0.0520 C   0  0  2  0  0  0  0  0  0  0  0  0
    1.2200   -0.4000   -1.3920 O   0  0  0  0  0  0  0  0  0  0  0  0
    2.1980   -0.1870    0.7080 C   0  0  0  0  0  0  0  0  0  0  0  0
    3.0740    0.7810    0.2010 O   0  0  0  0  0  0  0  0  0  0  0  0
    4.2710    0.7340    0.8940 C   0  0  2  0  0  0  0  0  0  0  0  0
    4.8700   -0.4980    0.7760 O   0  0  0  0  0  0  0  0  0  0  0  0
    4.0030    0.9630    2.2400 O   0  0  0  0  0  0  0  0  0  0  0  0
    5.1320    1.8080    0.4250 N   0  0  0  0  0  0  0  0  0  0  0  0
    5.3790    1.6710   -0.9070 O   0  0  0  0  0  0  0  0  0  0  0  0
   -2.1540   -0.1680   -0.2880 C   0  0  1  0  0  0  0  0  0  0  0  0
   -3.5070   -0.5970   -0.8180 C   0  0  0  0  0  0  0  0  0  0  0  0
   -2.3910    0.4260    1.0850 C   0  0  0  0  0  0  0  0  0  0  0  0
   -3.2140    1.5110    1.0690 O   0  0  0  0  0  0  0  0  0  0  0  0
   -3.2160    2.2930   -0.0270 C   0  0  0  0  0  0  0  0  0  0  0  0
   -2.3730    1.9290   -1.1700 C   0  0  0  0  0  0  0  0  0  0  0  0
   -1.5760    0.8210   -1.0450 O   0  0  0  0  0  0  0  0  0  0  0  0
  2  1  1  1
  2  3  1  0
  2  4  1  0
  2 14  1  0
  4  5  1  0
  5  6  1  6
  5  7  1  0
  7  8  1  0
  8  9  1  0
  9 10  1  1
  9 11  1  0
  9 12  1  0
 12 13  1  0
 14 15  1  6
 14 16  1  0
 14 20  1  0
 16 17  1  0
 17 18  1  0
 18 19  1  0
 19 20  1  0
M  END
