
     RDKit          3D

 23 24  0  0  0  0  0  0  0  0999 V2000
    7.7370    1.1910    1.6750 C   0  0  0  0  0  0  0  0  0  0  0  0
    6.6900    1.6100    0.9860 C   0  0  0  0  0  0  0  0  0  0  0  0
    6.5000    1.0940   -0.3850 C   0  0  0  0  0  0  0  0  0  0  0  0
    5.2650    0.4040   -0.5230 O   0  0  0  0  0  0  0  0  0  0  0  0
    4.0370    0.9910   -0.3030 C   0  0  0  0  0  0  0  0  0  0  0  0
    4.0370    2.2020    0.0370 O   0  0  0  0  0  0  0  0  0  0  0  0
    2.7750    0.2570   -0.4520 C   0  0  0  0  0  0  0  0  0  0  0  0
    1.5120    0.7690   -0.2520 C   0  0  0  0  0  0  0  0  0  0  0  0
    0.5810   -0.2290   -0.4900 C   0  0  0  0  0  0  0  0  0  0  0  0
   -0.8860   -0.1250   -0.3950 C   0  0  0  0  0  0  0  0  0  0  0  0
   -1.4270    0.9380   -0.0720 O   0  0  0  0  0  0  0  0  0  0  0  0
   -1.6540   -1.2240   -0.6680 O   0  0  0  0  0  0  0  0  0  0  0  0
   -3.0700   -1.2810   -0.6180 C   0  0  0  0  0  0  0  0  0  0  0  0
   -3.5840   -0.9830    0.7580 C   0  0  0  0  0  0  0  0  0  0  0  0
   -4.9430   -1.0190    0.9020 O   0  0  0  0  0  0  0  0  0  0  0  0
   -5.9160   -0.2120    0.2620 C   0  0  0  0  0  0  0  0  0  0  0  0
   -6.7820    0.4990    0.9060 C   0  0  0  0  0  0  0  0  0  0  0  0
   -7.7510    1.3000    0.1510 C   0  0  0  0  0  0  0  0  0  0  0  0
   -7.7580    0.2920   -1.4030 S   0  0  0  0  0  0  0  0  0  0  0  0
   -5.9660   -0.1640   -1.2170 C   0  0  0  0  0  0  0  0  0  0  0  0
    1.2940   -1.3120   -0.8250 N   0  0  0  0  0  0  0  0  0  0  0  0
    2.6150   -1.0620   -0.8150 C   0  0  0  0  0  0  0  0  0  0  0  0
    3.7240   -2.0300   -1.1360 C   0  0  0  0  0  0  0  0  0  0  0  0
  1  2  2  0
  2  3  1  0
  3  4  1  0
  4  5  1  0
  5  6  2  0
  5  7  1  0
  7  8  1  0
  7 22  2  0
  8  9  2  0
  9 10  1  0
  9 21  1  0
 10 11  2  0
 10 12  1  0
 12 13  1  0
 13 14  1  0
 14 15  1  0
 15 16  1  0
 16 17  2  0
 16 20  1  0
 17 18  1  0
 18 19  1  0
 19 20  1  0
 21 22  1  0
 22 23  1  0
M  END
