
     RDKit          3D

 19 19  0  0  0  0  0  0  0  0999 V2000
    1.2540   -0.7100    1.7740 O   0  0  0  0  0  0  0  0  0  0  0  0
    1.4480   -0.8520    0.5500 C   0  0  0  0  0  0  0  0  0  0  0  0
    0.3580   -0.8120   -0.3060 O   0  0  0  0  0  0  0  0  0  0  0  0
   -0.9540   -0.6230    0.1240 C   0  0  1  0  0  0  0  0  0  0  0  0
   -1.3950   -1.6990    1.0550 C   0  0  0  0  0  0  0  0  0  0  0  0
   -1.3060   -2.9250    0.3740 O   0  0  0  0  0  0  0  0  0  0  0  0
   -1.0970    0.7620    0.7120 C   0  0  0  0  0  0  0  0  0  0  0  0
   -2.5290    1.1450    0.9410 C   0  0  1  0  0  0  0  0  0  0  0  0
   -2.5320    2.4040    1.5480 O   0  0  0  0  0  0  0  0  0  0  0  0
   -3.3290    1.2480   -0.3210 C   0  0  0  0  0  0  0  0  0  0  0  0
   -3.0940    0.0490   -1.1050 N   0  0  0  0  0  0  0  0  0  0  0  0
   -1.8710   -0.6650   -1.0670 C   0  0  0  0  0  0  0  0  0  0  0  0
   -1.5620   -1.3510   -2.0760 O   0  0  0  0  0  0  0  0  0  0  0  0
    2.8360   -1.0570    0.0710 C   0  0  2  0  0  0  0  0  0  0  0  0
    3.6800   -1.0440    1.1760 O   0  0  0  0  0  0  0  0  0  0  0  0
    3.2010    0.1030   -0.7880 C   0  0  0  0  0  0  0  0  0  0  0  0
    2.4570    0.3830   -1.9400 O   0  0  0  0  0  0  0  0  0  0  0  0
    4.2240    0.8780   -0.4760 C   0  0  0  0  0  0  0  0  0  0  0  0
    5.0110    0.6740    0.6430 O   0  0  0  0  0  0  0  0  0  0  0  0
  1  2  2  0
  2  3  1  0
  2 14  1  0
  3  4  1  0
  4  5  1  1
  4  7  1  0
  4 12  1  0
  5  6  1  0
  7  8  1  0
  8  9  1  6
  8 10  1  0
 10 11  1  0
 11 12  1  0
 12 13  2  0
 14 15  1  1
 14 16  1  0
 16 17  1  0
 16 18  2  3
 18 19  1  0
M  END
