
     RDKit          3D

 20 20  0  0  0  0  0  0  0  0999 V2000
    0.8550    4.1150    0.5050 C   0  0  0  0  0  0  0  0  0  0  0  0
    0.2580    2.8340    0.6460 O   0  0  0  0  0  0  0  0  0  0  0  0
    0.6360    1.7640   -0.1430 C   0  0  0  0  0  0  0  0  0  0  0  0
    1.5370    1.9740   -0.9970 O   0  0  0  0  0  0  0  0  0  0  0  0
    0.0110    0.4010   -0.0030 C   0  0  2  0  0  0  0  0  0  0  0  0
    1.1250   -0.5270    0.3240 C   0  0  0  0  0  0  0  0  0  0  0  0
    1.1080   -1.1180    1.4320 O   0  0  0  0  0  0  0  0  0  0  0  0
    2.1990   -0.7650   -0.5710 N   0  0  0  0  0  0  0  0  0  0  0  0
    3.2950   -1.6590   -0.2860 C   0  0  0  0  0  0  0  0  0  0  0  0
    4.0740   -1.2610    0.9400 C   0  0  0  0  0  0  0  0  0  0  0  0
    5.0980   -2.2120    1.0910 O   0  0  0  0  0  0  0  0  0  0  0  0
   -0.5560   -0.0470   -1.3330 C   0  0  0  0  0  0  0  0  0  0  0  0
   -1.7690   -0.9410   -1.1510 C   0  0  0  0  0  0  0  0  0  0  0  0
   -2.7680   -0.3330   -0.1960 C   0  0  1  0  0  0  0  0  0  0  0  0
   -3.9450   -0.0530   -0.8450 O   0  0  0  0  0  0  0  0  0  0  0  0
   -3.0440   -1.3570    0.8860 C   0  0  0  0  0  0  0  0  0  0  0  0
   -3.5500   -2.5230    0.3570 O   0  0  0  0  0  0  0  0  0  0  0  0
   -2.1400    0.8720    0.4560 C   0  0  2  0  0  0  0  0  0  0  0  0
   -1.9960    1.9480   -0.3930 O   0  0  0  0  0  0  0  0  0  0  0  0
   -0.9230    0.4880    0.9950 O   0  0  0  0  0  0  0  0  0  0  0  0
  1  2  1  0
  2  3  1  0
  3  4  2  0
  5  3  1  6
  5  6  1  0
  5 12  1  0
  5 20  1  0
  6  7  2  0
  6  8  1  0
  8  9  1  0
  9 10  1  0
 10 11  1  0
 12 13  1  0
 13 14  1  0
 14 15  1  6
 14 16  1  0
 14 18  1  0
 16 17  1  0
 18 19  1  6
 18 20  1  0
M  END
