
     RDKit          3D

 30 31  0  0  0  0  0  0  0  0999 V2000
   10.5130   -0.5110    0.2500 C   0  0  0  0  0  0  0  0  0  0  0  0
    9.7920    0.1320    1.4250 C   0  0  0  0  0  0  0  0  0  0  0  0
    8.2530   -0.7530    1.8200 S   0  0  0  0  0  0  0  0  0  0  0  0
    7.1470   -0.5260    0.4100 C   0  0  0  0  0  0  0  0  0  0  0  0
    5.8590   -1.1640    0.6130 N   0  0  0  0  0  0  0  0  0  0  0  0
    4.9310   -0.4960   -0.2400 C   0  0  0  0  0  0  0  0  0  0  0  0
    5.3400   -0.0350   -1.4900 C   0  0  0  0  0  0  0  0  0  0  0  0
    4.4600    0.6180   -2.3190 C   0  0  0  0  0  0  0  0  0  0  0  0
    3.1680    0.8260   -1.9300 C   0  0  0  0  0  0  0  0  0  0  0  0
    2.7270    0.3840   -0.7030 C   0  0  0  0  0  0  0  0  0  0  0  0
    1.3960    0.6090   -0.3310 N   0  0  0  0  0  0  0  0  0  0  0  0
    0.3290   -0.2910   -0.5980 C   0  0  0  0  0  0  0  0  0  0  0  0
    0.5770   -1.3490   -1.1980 O   0  0  0  0  0  0  0  0  0  0  0  0
   -1.0510    0.0280   -0.1680 C   0  0  0  0  0  0  0  0  0  0  0  0
   -2.1750   -0.7400   -0.3050 C   0  0  0  0  0  0  0  0  0  0  0  0
   -3.2450   -0.0120    0.2570 C   0  0  0  0  0  0  0  0  0  0  0  0
   -4.6000   -0.4990    0.3020 C   0  0  0  0  0  0  0  0  0  0  0  0
   -4.8780   -1.6040   -0.3340 O   0  0  0  0  0  0  0  0  0  0  0  0
   -5.7090    0.0650    0.9610 N   0  0  0  0  0  0  0  0  0  0  0  0
   -6.9910   -0.5450    0.9060 N   0  0  0  0  0  0  0  0  0  0  0  0
   -7.7050   -0.6040   -0.3040 C   0  0  0  0  0  0  0  0  0  0  0  0
   -7.1630   -0.0950   -1.3320 O   0  0  0  0  0  0  0  0  0  0  0  0
   -9.0290   -1.2080   -0.4720 C   0  0  2  0  0  0  0  0  0  0  0  0
   -9.1490   -2.6190    0.0260 C   0  0  0  0  0  0  0  0  0  0  0  0
   -9.5090   -1.1400   -1.7600 O   0  0  0  0  0  0  0  0  0  0  0  0
   -2.7160    1.1490    0.7000 C   0  0  0  0  0  0  0  0  0  0  0  0
   -3.3680    2.3250    1.3920 C   0  0  0  0  0  0  0  0  0  0  0  0
   -4.1860    3.0560    0.3630 C   0  0  0  0  0  0  0  0  0  0  0  0
   -1.4130    1.1230    0.4230 O   0  0  0  0  0  0  0  0  0  0  0  0
    3.6240   -0.2690    0.1140 C   0  0  0  0  0  0  0  0  0  0  0  0
  1  2  1  0
  2  3  1  0
  3  4  1  0
  4  5  1  0
  5  6  1  0
  6  7  2  0
  6 30  1  0
  7  8  1  0
  8  9  2  0
  9 10  1  0
 10 11  1  0
 10 30  2  0
 11 12  1  0
 12 13  2  0
 12 14  1  0
 14 15  2  0
 14 29  1  0
 15 16  1  0
 16 17  1  0
 16 26  2  0
 17 18  2  0
 17 19  1  0
 19 20  1  0
 20 21  1  0
 21 22  2  0
 21 23  1  0
 23 24  1  6
 23 25  1  0
 26 27  1  0
 26 29  1  0
 27 28  1  0
M  CHG  1   5   1
M  END
