
     RDKit          3D

 31 33  0  0  0  0  0  0  0  0999 V2000
    9.9060    1.1640   -0.2670 C   0  0  0  0  0  0  0  0  0  0  0  0
    8.6950    0.4380   -0.3200 O   0  0  0  0  0  0  0  0  0  0  0  0
    7.5320    0.9580    0.1730 C   0  0  0  0  0  0  0  0  0  0  0  0
    7.5640    2.1050    0.6770 O   0  0  0  0  0  0  0  0  0  0  0  0
    6.2620    0.2530    0.1460 C   0  0  0  0  0  0  0  0  0  0  0  0
    5.9140   -0.9520   -0.3180 C   0  0  0  0  0  0  0  0  0  0  0  0
    4.6380   -1.3740   -0.2120 C   0  0  0  0  0  0  0  0  0  0  0  0
    3.7400   -0.5530    0.3690 C   0  0  0  0  0  0  0  0  0  0  0  0
    2.3310   -0.6870    0.6540 C   0  0  0  0  0  0  0  0  0  0  0  0
    1.7400    0.2440    1.2500 O   0  0  0  0  0  0  0  0  0  0  0  0
    1.6410   -1.8590    0.2590 N   0  0  0  0  0  0  0  0  0  0  0  0
    0.2080   -1.9780    0.5690 C   0  0  0  0  0  0  0  0  0  0  0  0
   -0.5590   -0.8720   -0.0750 C   0  0  0  0  0  0  0  0  0  0  0  0
   -0.2740   -0.3300   -1.1590 O   0  0  0  0  0  0  0  0  0  0  0  0
   -1.7020   -0.3640    0.5570 O   0  0  0  0  0  0  0  0  0  0  0  0
   -2.4650    0.6820   -0.0010 C   0  0  2  0  0  0  0  0  0  0  0  0
   -2.0550    1.9080    0.7810 C   0  0  0  0  0  0  0  0  0  0  0  0
   -1.1210    1.8560    1.6420 O   0  0  0  0  0  0  0  0  0  0  0  0
   -2.6950    3.1500    0.5760 N   0  0  0  0  0  0  0  0  0  0  0  0
   -4.1050    3.2490    0.4980 C   0  0  0  0  0  0  0  0  0  0  0  0
   -4.6700    4.3420    0.3290 O   0  0  0  0  0  0  0  0  0  0  0  0
   -4.9820    1.6750    0.6640 S   0  0  0  0  0  0  0  0  0  0  0  0
   -3.8890    0.4820   -0.0940 C   0  0  0  0  0  0  0  0  0  0  0  0
   -4.4130   -0.5410   -0.7140 C   0  0  0  0  0  0  0  0  0  0  0  0
   -5.8430   -0.8100   -0.8500 C   0  0  0  0  0  0  0  0  0  0  0  0
   -6.7750    0.1920   -1.0730 C   0  0  0  0  0  0  0  0  0  0  0  0
   -8.0210   -0.4370   -1.1450 C   0  0  0  0  0  0  0  0  0  0  0  0
   -7.7710   -1.7860   -0.9620 C   0  0  0  0  0  0  0  0  0  0  0  0
   -8.7500   -2.7680   -0.9630 O   0  0  0  0  0  0  0  0  0  0  0  0
   -6.4940   -1.9490   -0.7950 O   0  0  0  0  0  0  0  0  0  0  0  0
    4.7200    0.9220    0.8090 S   0  0  0  0  0  0  0  0  0  0  0  0
  1  2  1  0
  2  3  1  0
  3  4  2  0
  3  5  1  0
  5  6  2  0
  5 31  1  0
  6  7  1  0
  7  8  2  0
  8  9  1  0
  8 31  1  0
  9 10  2  0
  9 11  1  0
 11 12  1  0
 12 13  1  0
 13 14  2  0
 13 15  1  0
 16 15  1  1
 16 17  1  0
 16 23  1  0
 17 18  2  0
 17 19  1  0
 19 20  1  0
 20 21  2  0
 20 22  1  0
 22 23  1  0
 23 24  2  3
 24 25  1  0
 25 26  2  0
 25 30  1  0
 26 27  1  0
 27 28  2  0
 28 29  1  0
 28 30  1  0
M  END
