
     RDKit          3D

 30 32  0  0  0  0  0  0  0  0999 V2000
    3.6550   -2.1330    4.4540 C   0  0  0  0  0  0  0  0  0  0  0  0
    2.6610   -1.9960    3.4610 O   0  0  0  0  0  0  0  0  0  0  0  0
    1.6210   -2.8520    3.2960 C   0  0  0  0  0  0  0  0  0  0  0  0
    1.6140   -3.8220    4.1380 O   0  0  0  0  0  0  0  0  0  0  0  0
    0.5560   -2.7990    2.3130 C   0  0  0  0  0  0  0  0  0  0  0  0
   -0.4230   -3.6780    2.2260 N   0  0  0  0  0  0  0  0  0  0  0  0
   -1.2740   -3.3910    1.2290 C   0  0  0  0  0  0  0  0  0  0  0  0
   -0.8190   -2.2290    0.6120 C   0  0  0  0  0  0  0  0  0  0  0  0
    0.3210   -1.8780    1.3000 C   0  0  0  0  0  0  0  0  0  0  0  0
    1.1950   -0.7370    1.0390 C   0  0  0  0  0  0  0  0  0  0  0  0
   -1.5660   -1.6600   -0.5540 C   0  0  0  0  0  0  0  0  0  0  0  0
   -1.1160   -0.5250   -1.0790 C   0  0  0  0  0  0  0  0  0  0  0  0
   -1.7460    0.1160   -2.2080 C   0  0  0  0  0  0  0  0  0  0  0  0
   -1.6590    1.1270   -2.9260 C   0  0  0  0  0  0  0  0  0  0  0  0
   -0.9030    2.3300   -3.1130 C   0  0  0  0  0  0  0  0  0  0  0  0
   -1.1420    3.0960   -4.2340 C   0  0  0  0  0  0  0  0  0  0  0  0
   -0.2600    4.2330   -4.1830 C   0  0  0  0  0  0  0  0  0  0  0  0
   -0.1550    5.1820   -5.0340 O   0  0  0  0  0  0  0  0  0  0  0  0
    0.5150    4.1450   -2.9910 C   0  0  0  0  0  0  0  0  0  0  0  0
    1.5080    5.0230   -2.5150 O   0  0  0  0  0  0  0  0  0  0  0  0
    0.1110    3.0090   -2.3620 C   0  0  0  0  0  0  0  0  0  0  0  0
    0.5850    2.7670   -0.6900 S   0  0  1  0  0  0  0  0  0  0  0  0
    0.7050    4.4010    0.1220 C   0  0  0  0  0  0  0  0  0  0  0  0
   -0.6010    2.1870    0.0950 O   0  0  0  0  0  0  0  0  0  0  0  0
    1.7910    1.9900   -0.5260 O   0  0  0  0  0  0  0  0  0  0  0  0
   -2.7730   -2.3120   -1.0590 C   0  0  0  0  0  0  0  0  0  0  0  0
   -3.3340   -3.3620   -0.6360 N   0  0  0  0  0  0  0  0  0  0  0  0
   -2.7150   -4.2260    0.6810 S   0  0  1  0  0  0  0  0  0  0  0  0
   -2.2890   -5.6210    0.2990 O   0  0  0  0  0  0  0  0  0  0  0  0
   -3.7620   -4.2650    1.7630 O   0  0  0  0  0  0  0  0  0  0  0  0
  1  2  1  0
  2  3  1  0
  3  4  2  0
  3  5  1  0
  5  6  1  0
  5  9  2  0
  6  7  1  0
  7  8  2  0
  7 28  1  0
  8  9  1  0
  8 11  1  0
  9 10  1  0
 11 12  2  3
 11 26  1  0
 12 13  1  0
 13 14  2  3
 14 15  1  0
 15 16  2  0
 15 21  1  0
 16 17  1  0
 17 18  2  0
 17 19  1  0
 19 20  1  0
 19 21  2  0
 21 22  1  0
 22 23  1  1
 22 24  2  0
 22 25  2  0
 26 27  2  0
 28 27  1  6
 28 29  2  0
 28 30  2  0
M  END
