
     RDKit          3D

 31 34  0  0  0  0  0  0  0  0999 V2000
    2.2920    1.6090    3.0770 O   0  0  0  0  0  0  0  0  0  0  0  0
    1.3490    1.3020    2.3160 C   0  0  0  0  0  0  0  0  0  0  0  0
   -0.0090    1.2970    2.9270 C   0  0  0  0  0  0  0  0  0  0  0  0
   -1.0230    0.8490    2.0850 O   0  0  0  0  0  0  0  0  0  0  0  0
   -1.0780   -0.4140    1.5760 C   0  0  0  0  0  0  0  0  0  0  0  0
   -0.1570   -1.2660    1.8780 O   0  0  0  0  0  0  0  0  0  0  0  0
   -2.0990   -0.9050    0.6890 C   0  0  0  0  0  0  0  0  0  0  0  0
   -1.6190   -1.7580   -0.3280 C   0  0  0  0  0  0  0  0  0  0  0  0
   -2.4940   -2.1970   -1.2830 C   0  0  0  0  0  0  0  0  0  0  0  0
   -3.8110   -1.8450   -1.2930 C   0  0  0  0  0  0  0  0  0  0  0  0
   -4.2630   -1.0160   -0.2950 C   0  0  0  0  0  0  0  0  0  0  0  0
   -3.4270   -0.5360    0.7060 C   0  0  0  0  0  0  0  0  0  0  0  0
   -3.9260    0.2900    1.7850 C   0  0  0  0  0  0  0  0  0  0  0  0
   -3.1890    0.7240    2.6990 O   0  0  0  0  0  0  0  0  0  0  0  0
   -5.3020    0.6710    1.8960 N   0  0  0  0  0  0  0  0  0  0  0  0
   -6.1540    0.8940    0.7570 C   0  0  0  0  0  0  0  0  0  0  0  0
   -6.0060   -0.5610   -0.3420 S   0  0  0  0  0  0  0  0  0  0  0  0
   -4.4130   -2.4560   -2.3880 O   0  0  0  0  0  0  0  0  0  0  0  0
   -3.3820   -3.0210   -3.1940 C   0  0  0  0  0  0  0  0  0  0  0  0
   -2.2300   -3.0410   -2.3690 O   0  0  0  0  0  0  0  0  0  0  0  0
    1.6190    0.9930    0.9740 N   0  0  0  0  0  0  0  0  0  0  0  0
    2.8790    0.9780    0.3290 C   0  0  0  0  0  0  0  0  0  0  0  0
    4.0600    1.4330    0.8610 C   0  0  0  0  0  0  0  0  0  0  0  0
    5.2690    1.3630    0.1470 C   0  0  0  0  0  0  0  0  0  0  0  0
    5.3330    0.8370   -1.1190 C   0  0  0  0  0  0  0  0  0  0  0  0
    6.8310    0.7420   -2.0220 S   0  0  2  0  0  0  0  0  0  0  0  0
    7.9900    1.1110   -1.1490 O   0  0  0  0  0  0  0  0  0  0  0  0
    6.7880    1.6180   -3.2390 O   0  0  0  0  0  0  0  0  0  0  0  0
    4.1540    0.3780   -1.6650 C   0  0  0  0  0  0  0  0  0  0  0  0
    4.1810   -0.1630   -2.9500 O   0  0  0  0  0  0  0  0  0  0  0  0
    2.9710    0.4480   -0.9620 C   0  0  0  0  0  0  0  0  0  0  0  0
  1  2  2  0
  2  3  1  0
  2 21  1  0
  3  4  1  0
  4  5  1  0
  5  6  2  0
  5  7  1  0
  7  8  2  0
  7 12  1  0
  8  9  1  0
  9 10  2  0
  9 20  1  0
 10 11  1  0
 10 18  1  0
 11 12  2  0
 11 17  1  0
 12 13  1  0
 13 14  2  0
 13 15  1  0
 15 16  1  0
 16 17  1  0
 18 19  1  0
 19 20  1  0
 21 22  1  0
 22 23  2  0
 22 31  1  0
 23 24  1  0
 24 25  2  0
 26 25  1  1
 25 29  1  0
 26 27  2  0
 26 28  2  0
 29 30  1  0
 29 31  2  0
M  END
