
     RDKit          3D

 33 36  0  0  0  0  0  0  0  0999 V2000
    6.1750    1.5430   -2.9090 C   0  0  0  0  0  0  0  0  0  0  0  0
    6.6120    2.8870   -2.5340 N   0  0  0  0  0  0  0  0  0  0  0  0
    6.9780    2.9280   -1.1450 C   0  0  0  0  0  0  0  0  0  0  0  0
    6.7580    1.6020   -0.4970 C   0  0  0  0  0  0  0  0  0  0  0  0
    7.8160    0.7410   -0.3060 C   0  0  0  0  0  0  0  0  0  0  0  0
    7.5670   -0.4940    0.3020 C   0  0  0  0  0  0  0  0  0  0  0  0
    6.2870   -0.8480    0.7040 C   0  0  0  0  0  0  0  0  0  0  0  0
    6.1040   -2.1830    1.3490 C   0  0  0  0  0  0  0  0  0  0  0  0
    5.2370    0.0170    0.5090 C   0  0  0  0  0  0  0  0  0  0  0  0
    3.9840   -0.3590    0.9150 O   0  0  0  0  0  0  0  0  0  0  0  0
    2.8230    0.4390    0.7720 C   0  0  0  0  0  0  0  0  0  0  0  0
    1.6210   -0.2350    1.2960 C   0  0  0  0  0  0  0  0  0  0  0  0
    0.8710   -1.0580    0.4920 C   0  0  0  0  0  0  0  0  0  0  0  0
   -0.2480   -1.6830    0.9870 C   0  0  0  0  0  0  0  0  0  0  0  0
   -0.6480   -1.5090    2.2840 C   0  0  0  0  0  0  0  0  0  0  0  0
   -1.8350   -2.1760    2.8000 C   0  0  0  0  0  0  0  0  0  0  0  0
   -3.0410   -1.3920    2.7970 N   0  0  0  0  0  0  0  0  0  0  0  0
   -3.8250   -1.1110    1.6290 C   0  0  0  0  0  0  0  0  0  0  0  0
   -3.4360   -1.5720    0.5580 O   0  0  0  0  0  0  0  0  0  0  0  0
   -5.0000   -0.3330    1.7290 N   0  0  0  0  0  0  0  0  0  0  0  0
   -5.8380    0.0070    0.6400 C   0  0  0  0  0  0  0  0  0  0  0  0
   -7.1160    0.4970    0.9680 C   0  0  0  0  0  0  0  0  0  0  0  0
   -8.0030    0.8710   -0.0370 C   0  0  0  0  0  0  0  0  0  0  0  0
   -9.3560    1.3930    0.2940 C   0  0  0  0  0  0  0  0  0  0  0  0
   -7.6130    0.7530   -1.3440 C   0  0  0  0  0  0  0  0  0  0  0  0
   -6.3840    0.2850   -1.7150 C   0  0  0  0  0  0  0  0  0  0  0  0
   -5.5130   -0.0840   -0.6770 C   0  0  0  0  0  0  0  0  0  0  0  0
   -6.1170    0.2410   -3.1460 C   0  0  0  0  0  0  0  0  0  0  0  0
   -7.3810    0.0770   -3.9310 C   0  0  0  0  0  0  0  0  0  0  0  0
   -8.4900    1.1040   -2.8570 S   0  0  0  0  0  0  0  0  0  0  0  0
    0.1000   -0.6860    3.0930 C   0  0  0  0  0  0  0  0  0  0  0  0
    1.2450   -0.0400    2.6020 C   0  0  0  0  0  0  0  0  0  0  0  0
    5.4830    1.2270   -0.0860 C   0  0  0  0  0  0  0  0  0  0  0  0
  1  2  1  0
  2  3  1  0
  3  4  1  0
  4  5  2  0
  4 33  1  0
  5  6  1  0
  6  7  2  0
  7  8  1  0
  7  9  1  0
  9 10  1  0
  9 33  2  0
 10 11  1  0
 11 12  1  0
 12 13  2  0
 12 32  1  0
 13 14  1  0
 14 15  2  0
 15 16  1  0
 15 31  1  0
 16 17  1  0
 17 18  1  0
 18 19  2  0
 18 20  1  0
 20 21  1  0
 21 22  2  0
 21 27  1  0
 22 23  1  0
 23 24  1  0
 23 25  2  0
 25 26  1  0
 25 30  1  0
 26 27  2  0
 26 28  1  0
 28 29  1  0
 29 30  1  0
 31 32  2  0
M  CHG  1   2   1
M  END
