
     RDKit          3D

 33 36  0  0  0  0  0  0  0  0999 V2000
    6.0110   -2.0810   -1.1920 C   0  0  0  0  0  0  0  0  0  0  0  0
    4.7570   -1.3200   -0.9430 C   0  0  0  0  0  0  0  0  0  0  0  0
    4.8050    0.0480   -1.0380 C   0  0  0  0  0  0  0  0  0  0  0  0
    3.6900    0.7870   -0.8190 C   0  0  0  0  0  0  0  0  0  0  0  0
    3.6900    2.1350   -0.8960 O   0  0  0  0  0  0  0  0  0  0  0  0
    4.6880    3.0280   -1.1500 C   0  0  0  0  0  0  0  0  0  0  0  0
    5.7910    3.1290   -0.1870 C   0  0  0  0  0  0  0  0  0  0  0  0
    6.2110    4.1830    0.5360 C   0  0  0  0  0  0  0  0  0  0  0  0
    7.5280    3.2870    1.3310 S   0  0  0  0  0  0  0  0  0  0  0  0
    6.7760    2.2960    0.3500 N   0  0  0  0  0  0  0  0  0  0  0  0
    2.4830    0.1170   -0.4930 C   0  0  0  0  0  0  0  0  0  0  0  0
    2.4020   -1.2320   -0.3910 C   0  0  0  0  0  0  0  0  0  0  0  0
    1.1860   -1.9710   -0.0400 C   0  0  0  0  0  0  0  0  0  0  0  0
    1.1060   -3.3350   -0.0210 N   0  0  0  0  0  0  0  0  0  0  0  0
   -0.1110   -3.7470    0.3440 C   0  0  0  0  0  0  0  0  0  0  0  0
   -0.5620   -5.1760    0.4750 C   0  0  0  0  0  0  0  0  0  0  0  0
   -0.8410   -2.6130    0.5680 C   0  0  0  0  0  0  0  0  0  0  0  0
   -0.0370   -1.5190    0.3300 C   0  0  0  0  0  0  0  0  0  0  0  0
   -0.5120   -0.1390    0.4930 C   0  0  0  0  0  0  0  0  0  0  0  0
   -1.9350   -0.1430    0.9110 N   0  0  0  0  0  0  0  0  0  0  0  0
   -2.3640    1.2230    1.1830 C   0  0  2  0  0  0  0  0  0  0  0  0
   -1.6910    2.1930    0.2700 C   0  0  0  0  0  0  0  0  0  0  0  0
   -1.8690    1.5770    2.6020 C   0  0  0  0  0  0  0  0  0  0  0  0
   -3.8410    1.3500    1.1850 C   0  0  0  0  0  0  0  0  0  0  0  0
   -4.5390    0.9940   -0.0650 C   0  0  0  0  0  0  0  0  0  0  0  0
   -4.9410   -0.3380   -0.2780 C   0  0  0  0  0  0  0  0  0  0  0  0
   -5.5280   -0.7720   -1.4350 C   0  0  0  0  0  0  0  0  0  0  0  0
   -5.9270   -2.1890   -1.5940 C   0  0  0  0  0  0  0  0  0  0  0  0
   -5.7540    0.1050   -2.4630 C   0  0  0  0  0  0  0  0  0  0  0  0
   -5.3800    1.4130   -2.2990 C   0  0  0  0  0  0  0  0  0  0  0  0
   -4.7800    1.8420   -1.1050 C   0  0  0  0  0  0  0  0  0  0  0  0
   -4.4560    3.1800   -1.0400 O   0  0  0  0  0  0  0  0  0  0  0  0
    3.5750   -1.9380   -0.6260 C   0  0  0  0  0  0  0  0  0  0  0  0
  1  2  1  0
  2  3  2  0
  2 33  1  0
  3  4  1  0
  4  5  1  0
  4 11  2  0
  5  6  1  0
  6  7  1  0
  7  8  2  0
  7 10  1  0
  8  9  1  0
  9 10  2  0
 11 12  1  0
 12 13  1  0
 12 33  2  0
 13 14  1  0
 13 18  2  0
 14 15  1  0
 15 16  1  0
 15 17  2  0
 17 18  1  0
 18 19  1  0
 19 20  1  0
 20 21  1  0
 21 22  1  6
 21 23  1  0
 21 24  1  0
 24 25  1  0
 25 26  2  0
 25 31  1  0
 26 27  1  0
 27 28  1  0
 27 29  2  0
 29 30  1  0
 30 31  2  0
 31 32  1  0
M  CHG  1  20   1
M  END
