
     RDKit          3D

 33 34  0  0  0  0  0  0  0  0999 V2000
    0.6260   -1.0330    2.0900 C   0  0  0  0  0  0  0  0  0  0  0  0
    1.1780    0.1740    2.8280 C   0  0  0  0  0  0  0  0  0  0  0  0
    0.5350    1.4590    2.4260 C   0  0  0  0  0  0  0  0  0  0  0  0
    0.6590    1.8380    0.9950 C   0  0  1  0  0  0  0  0  0  0  0  0
    2.0250    1.9880    0.5480 N   0  0  0  0  0  0  0  0  0  0  0  0
    2.6030    3.1850    0.0900 C   0  0  0  0  0  0  0  0  0  0  0  0
    1.8120    4.1890    0.0900 O   0  0  0  0  0  0  0  0  0  0  0  0
    3.9630    3.3530   -0.3620 C   0  0  0  0  0  0  0  0  0  0  0  0
    4.8940    2.5230   -0.4450 N   0  0  0  0  0  0  0  0  0  0  0  0
    5.0240    1.2040   -0.1680 N   0  0  0  0  0  0  0  0  0  0  0  0
    5.4340    0.8260    1.0670 C   0  0  0  0  0  0  0  0  0  0  0  0
    5.6010   -0.4890    1.4330 C   0  0  0  0  0  0  0  0  0  0  0  0
    5.3500   -1.4750    0.5270 C   0  0  0  0  0  0  0  0  0  0  0  0
    5.5050   -2.6830    0.8650 O   0  0  0  0  0  0  0  0  0  0  0  0
    4.9320   -1.1180   -0.7370 C   0  0  0  0  0  0  0  0  0  0  0  0
    4.6800   -2.1290   -1.6410 C   0  0  0  0  0  0  0  0  0  0  0  0
    4.2590   -1.7990   -2.9120 C   0  0  0  0  0  0  0  0  0  0  0  0
    3.9950   -2.8440   -3.8490 N   0  0  0  0  0  0  0  0  0  0  0  0
    4.1050   -0.4690   -3.2330 C   0  0  0  0  0  0  0  0  0  0  0  0
    4.3570    0.5150   -2.3300 C   0  0  0  0  0  0  0  0  0  0  0  0
    4.7790    0.2280   -1.0530 C   0  0  0  0  0  0  0  0  0  0  0  0
   -0.1810    1.0830    0.0560 C   0  0  0  0  0  0  0  0  0  0  0  0
    0.3030    0.6610   -1.0140 O   0  0  0  0  0  0  0  0  0  0  0  0
   -1.5380    0.8390    0.3670 N   0  0  0  0  0  0  0  0  0  0  0  0
   -2.3410    0.0970   -0.5870 C   0  0  0  0  0  0  0  0  0  0  0  0
   -3.7520   -0.0480   -0.0400 C   0  0  2  0  0  0  0  0  0  0  0  0
   -4.3430    1.3210    0.1830 C   0  0  0  0  0  0  0  0  0  0  0  0
   -3.7350   -0.8820    1.2150 C   0  0  0  0  0  0  0  0  0  0  0  0
   -4.6400   -0.7670   -1.0390 C   0  0  0  0  0  0  0  0  0  0  0  0
   -5.9910   -0.8730   -0.4350 C   0  0  0  0  0  0  0  0  0  0  0  0
   -6.2510   -0.4190    0.7130 O   0  0  0  0  0  0  0  0  0  0  0  0
   -7.0820   -1.4950   -1.1120 N   0  0  0  0  0  0  0  0  0  0  0  0
   -8.4050   -1.5880   -0.4960 C   0  0  0  0  0  0  0  0  0  0  0  0
  1  2  1  0
  2  3  1  0
  4  3  1  1
  4  5  1  0
  4 22  1  0
  5  6  1  0
  6  7  2  0
  6  8  1  0
  8  9  2  3
  9 10  1  0
 10 11  1  0
 10 21  1  0
 11 12  2  0
 12 13  1  0
 13 14  2  0
 13 15  1  0
 15 16  2  0
 15 21  1  0
 16 17  1  0
 17 18  1  0
 17 19  2  0
 19 20  1  0
 20 21  2  0
 22 23  2  0
 22 24  1  0
 24 25  1  0
 25 26  1  0
 26 27  1  1
 26 28  1  0
 26 29  1  0
 29 30  1  0
 30 31  2  0
 30 32  1  0
 32 33  1  0
M  END
