
     RDKit          3D

 33 34  0  0  0  0  0  0  0  0999 V2000
    9.3990    0.5690   -1.5440 C   0  0  0  0  0  0  0  0  0  0  0  0
    9.6610    0.1230   -0.1120 C   0  0  0  0  0  0  0  0  0  0  0  0
    9.0660    1.1360    0.8410 C   0  0  0  0  0  0  0  0  0  0  0  0
    7.6520    1.2900    0.6820 N   0  0  0  0  0  0  0  0  0  0  0  0
    6.7360    0.2160    0.8550 C   0  0  0  0  0  0  0  0  0  0  0  0
    7.1840   -0.8960    1.1560 O   0  0  0  0  0  0  0  0  0  0  0  0
    5.2810    0.4160    0.6820 C   0  0  0  0  0  0  0  0  0  0  0  0
    4.8130    1.5210    0.3800 O   0  0  0  0  0  0  0  0  0  0  0  0
    4.4360   -0.6930    0.8700 N   0  0  0  0  0  0  0  0  0  0  0  0
    3.0420   -0.7470    0.7650 C   0  0  0  0  0  0  0  0  0  0  0  0
    2.3980   -1.9630    0.8150 C   0  0  0  0  0  0  0  0  0  0  0  0
    1.0120   -2.0580    0.7260 C   0  0  0  0  0  0  0  0  0  0  0  0
    0.2400   -0.8920    0.5800 C   0  0  0  0  0  0  0  0  0  0  0  0
   -1.1430   -1.0860    0.4760 N   0  0  0  0  0  0  0  0  0  0  0  0
   -2.0740   -0.0410    0.6980 C   0  0  0  0  0  0  0  0  0  0  0  0
   -1.7130    1.1370    1.0080 O   0  0  0  0  0  0  0  0  0  0  0  0
   -3.4630   -0.3420    0.5620 N   0  0  0  0  0  0  0  0  0  0  0  0
   -3.9080   -1.6630    0.2520 C   0  0  0  0  0  0  0  0  0  0  0  0
   -3.9850   -1.9110   -1.2440 C   0  0  0  0  0  0  0  0  0  0  0  0
   -4.4270   -3.2530   -1.4700 N   0  0  0  0  0  0  0  0  0  0  0  0
   -5.6700   -3.7700   -1.0540 C   0  0  0  0  0  0  0  0  0  0  0  0
   -6.0490   -5.1330   -1.3100 N   0  0  0  0  0  0  0  0  0  0  0  0
   -6.4690   -3.0050   -0.4370 O   0  0  0  0  0  0  0  0  0  0  0  0
   -4.4100    0.7430    0.7450 C   0  0  1  0  0  0  0  0  0  0  0  0
   -4.3210    1.3740    2.0880 C   0  0  0  0  0  0  0  0  0  0  0  0
   -4.2620    1.7920   -0.3270 C   0  0  0  0  0  0  0  0  0  0  0  0
   -5.1880    2.9160   -0.2220 C   0  0  0  0  0  0  0  0  0  0  0  0
   -6.0910    3.2430   -1.1660 C   0  0  0  0  0  0  0  0  0  0  0  0
   -6.8110    4.4080   -0.6860 C   0  0  0  0  0  0  0  0  0  0  0  0
   -6.4820    4.4840    0.5890 C   0  0  0  0  0  0  0  0  0  0  0  0
   -5.3230    3.8920    0.8460 C   0  0  0  0  0  0  0  0  0  0  0  0
    0.8610    0.2990    0.5290 C   0  0  0  0  0  0  0  0  0  0  0  0
    2.2670    0.3680    0.6230 C   0  0  0  0  0  0  0  0  0  0  0  0
  1  2  1  0
  2  3  1  0
  3  4  1  0
  4  5  1  0
  5  6  2  0
  5  7  1  0
  7  8  2  0
  7  9  1  0
  9 10  1  0
 10 11  2  0
 10 33  1  0
 11 12  1  0
 12 13  2  0
 13 14  1  0
 13 32  1  0
 14 15  1  0
 15 16  2  0
 15 17  1  0
 17 18  1  0
 17 24  1  0
 18 19  1  0
 19 20  1  0
 20 21  1  0
 21 22  1  0
 21 23  2  0
 24 25  1  1
 24 26  1  0
 26 27  1  0
 27 28  2  0
 27 31  1  0
 28 29  1  0
 29 30  2  0
 30 31  2  0
 32 33  2  0
M  END
