
     RDKit          3D

 33 35  0  0  0  0  0  0  0  0999 V2000
    5.8030   -0.1320    2.4750 C   0  0  0  0  0  0  0  0  0  0  0  0
    5.3020   -0.1850    1.0570 C   0  0  0  0  0  0  0  0  0  0  0  0
    3.9920    0.2330    0.8200 C   0  0  0  0  0  0  0  0  0  0  0  0
    3.4760    0.2110   -0.4450 C   0  0  0  0  0  0  0  0  0  0  0  0
    2.1530    0.6020   -0.7610 N   0  0  0  0  0  0  0  0  0  0  0  0
    1.0960    0.8110    0.1460 C   0  0  0  0  0  0  0  0  0  0  0  0
    1.3070    0.6290    1.3710 O   0  0  0  0  0  0  0  0  0  0  0  0
   -0.2600    1.2390   -0.3220 C   0  0  1  0  0  0  0  0  0  0  0  0
   -1.1360    1.2310    0.8610 N   0  0  0  0  0  0  0  0  0  0  0  0
   -2.3070    0.4450    0.8270 C   0  0  0  0  0  0  0  0  0  0  0  0
   -2.6050   -0.2400   -0.1920 O   0  0  0  0  0  0  0  0  0  0  0  0
   -3.2310    0.3680    1.9290 N   0  0  0  0  0  0  0  0  0  0  0  0
   -4.3910   -0.4290    1.8530 C   0  0  0  0  0  0  0  0  0  0  0  0
   -4.6410   -1.1270    0.7410 N   0  0  0  0  0  0  0  0  0  0  0  0
   -5.7580   -1.9090    0.6320 C   0  0  0  0  0  0  0  0  0  0  0  0
   -6.0750   -2.6960   -0.5700 C   0  0  0  0  0  0  0  0  0  0  0  0
   -6.9360   -1.9550   -1.5320 C   0  0  0  0  0  0  0  0  0  0  0  0
   -6.3000   -0.7030   -2.0170 C   0  0  0  0  0  0  0  0  0  0  0  0
   -6.0340    0.2010   -1.0100 O   0  0  0  0  0  0  0  0  0  0  0  0
   -6.6330   -1.9700    1.6950 C   0  0  0  0  0  0  0  0  0  0  0  0
   -6.3560   -1.2440    2.8260 C   0  0  0  0  0  0  0  0  0  0  0  0
   -7.1410   -1.2870    3.8040 O   0  0  0  0  0  0  0  0  0  0  0  0
   -5.2310   -0.4770    2.8930 N   0  0  0  0  0  0  0  0  0  0  0  0
   -0.2830    2.6860   -0.7810 C   0  0  2  0  0  0  0  0  0  0  0  0
    0.6360    2.9700   -1.9220 C   0  0  0  0  0  0  0  0  0  0  0  0
    0.0310    3.5570    0.4210 C   0  0  0  0  0  0  0  0  0  0  0  0
    4.3280   -0.2470   -1.4650 C   0  0  0  0  0  0  0  0  0  0  0  0
    5.6130   -0.6600   -1.2560 C   0  0  0  0  0  0  0  0  0  0  0  0
    6.1140   -0.6290    0.0350 C   0  0  0  0  0  0  0  0  0  0  0  0
    7.4430   -1.0440    0.3520 N   0  0  0  0  0  0  0  0  0  0  0  0
    8.3160   -1.4950   -0.6820 C   0  0  0  0  0  0  0  0  0  0  0  0
    7.7030   -1.4960   -2.0170 C   0  0  0  0  0  0  0  0  0  0  0  0
    6.4900   -1.1270   -2.3120 C   0  0  0  0  0  0  0  0  0  0  0  0
  1  2  1  0
  2  3  2  0
  2 29  1  0
  3  4  1  0
  4  5  1  0
  4 27  2  0
  5  6  1  0
  6  7  2  0
  6  8  1  0
  8  9  1  1
  8 24  1  0
  9 10  1  0
 10 11  2  0
 10 12  1  0
 12 13  1  0
 13 14  2  0
 13 23  1  0
 14 15  1  0
 15 16  1  0
 15 20  2  0
 16 17  1  0
 17 18  1  0
 18 19  1  0
 20 21  1  0
 21 22  2  0
 21 23  1  0
 24 25  1  6
 24 26  1  0
 27 28  1  0
 28 29  2  0
 28 33  1  0
 29 30  1  0
 30 31  1  0
 31 32  1  0
 32 33  2  0
M  END
