
     RDKit          3D

 32 35  0  0  0  0  0  0  0  0999 V2000
    9.1150   -2.4730   -0.9330 C   0  0  0  0  0  0  0  0  0  0  0  0
    9.1720   -1.5140    0.2280 C   0  0  0  0  0  0  0  0  0  0  0  0
    7.9200   -0.7020    0.3720 C   0  0  0  0  0  0  0  0  0  0  0  0
    6.6830   -1.5440    0.5970 C   0  0  0  0  0  0  0  0  0  0  0  0
    5.5420   -0.5990    0.7160 C   0  0  0  0  0  0  0  0  0  0  0  0
    5.0510    0.0010    1.8640 C   0  0  0  0  0  0  0  0  0  0  0  0
    4.0180    0.7830    1.5570 O   0  0  0  0  0  0  0  0  0  0  0  0
    3.8030    0.7290    0.2700 C   0  0  0  0  0  0  0  0  0  0  0  0
    2.7310    1.4710   -0.4500 C   0  0  0  0  0  0  0  0  0  0  0  0
    1.5910    1.6100    0.1390 C   0  0  0  0  0  0  0  0  0  0  0  0
    1.4510    1.0380    1.4380 O   0  0  0  0  0  0  0  0  0  0  0  0
    1.1780   -0.3690    1.3990 C   0  0  0  0  0  0  0  0  0  0  0  0
    0.4300    2.2960   -0.3940 C   0  0  0  0  0  0  0  0  0  0  0  0
   -0.6390    2.3160    0.3970 C   0  0  0  0  0  0  0  0  0  0  0  0
   -1.8730    2.9120    0.1110 N   0  0  0  0  0  0  0  0  0  0  0  0
   -3.0610    2.1010    0.0410 C   0  0  0  0  0  0  0  0  0  0  0  0
   -4.2890    2.6440   -0.2740 C   0  0  0  0  0  0  0  0  0  0  0  0
   -5.4160    1.8500   -0.3320 C   0  0  0  0  0  0  0  0  0  0  0  0
   -5.3570    0.4830   -0.0770 C   0  0  0  0  0  0  0  0  0  0  0  0
   -6.2650   -0.5360   -0.0560 C   0  0  0  0  0  0  0  0  0  0  0  0
   -5.5640   -1.6720    0.2720 C   0  0  0  0  0  0  0  0  0  0  0  0
   -4.2600   -1.3450    0.4450 N   0  0  0  0  0  0  0  0  0  0  0  0
   -4.1100   -0.0260    0.2350 C   0  0  0  0  0  0  0  0  0  0  0  0
   -2.9720    0.7510    0.2980 C   0  0  0  0  0  0  0  0  0  0  0  0
   -6.2620   -2.9690    0.3840 C   0  0  0  0  0  0  0  0  0  0  0  0
   -7.6520   -2.6520    0.9500 C   0  0  0  0  0  0  0  0  0  0  0  0
   -8.3710   -1.8480   -0.1120 C   0  0  0  0  0  0  0  0  0  0  0  0
   -7.7280   -0.5160   -0.3200 C   0  0  0  0  0  0  0  0  0  0  0  0
    0.4500    2.9020   -1.6960 C   0  0  0  0  0  0  0  0  0  0  0  0
   -0.6990    3.6090   -2.3120 C   0  0  0  0  0  0  0  0  0  0  0  0
    1.4900    2.8540   -2.3980 O   0  0  0  0  0  0  0  0  0  0  0  0
    4.7190   -0.1140   -0.3100 C   0  0  0  0  0  0  0  0  0  0  0  0
  1  2  1  0
  2  3  1  0
  3  4  1  0
  4  5  1  0
  5  6  2  0
  5 32  1  0
  6  7  1  0
  7  8  1  0
  8  9  1  0
  8 32  2  0
  9 10  2  3
 10 11  1  0
 10 13  1  0
 11 12  1  0
 13 14  2  3
 13 29  1  0
 14 15  1  0
 15 16  1  0
 16 17  2  0
 16 24  1  0
 17 18  1  0
 18 19  2  0
 19 20  1  0
 19 23  1  0
 20 21  2  0
 20 28  1  0
 21 22  1  0
 21 25  1  0
 22 23  1  0
 23 24  2  0
 25 26  1  0
 26 27  1  0
 27 28  1  0
 29 30  1  0
 29 31  2  0
M  END
