
     RDKit          3D

 33 35  0  0  0  0  0  0  0  0999 V2000
    0.0210   -2.3500   -2.2570 C   0  0  0  0  0  0  0  0  0  0  0  0
    0.1500   -1.0760   -1.4240 C   0  0  1  0  0  0  0  0  0  0  0  0
   -1.0620   -0.8580   -0.5940 C   0  0  0  0  0  0  0  0  0  0  0  0
   -0.9320   -0.8120    0.6550 O   0  0  0  0  0  0  0  0  0  0  0  0
   -2.3560   -0.7000   -1.1410 N   0  0  0  0  0  0  0  0  0  0  0  0
   -3.5380   -0.4900   -0.3790 C   0  0  0  0  0  0  0  0  0  0  0  0
   -3.7330   -0.3920    0.9570 C   0  0  0  0  0  0  0  0  0  0  0  0
   -5.0520   -0.1900    1.1820 N   0  0  0  0  0  0  0  0  0  0  0  0
   -5.6550   -0.0350    2.4850 C   0  0  0  0  0  0  0  0  0  0  0  0
   -5.6870    1.3930    2.9100 C   0  0  0  0  0  0  0  0  0  0  0  0
   -5.1940    2.4580    2.1410 N   0  0  0  0  0  0  0  0  0  0  0  0
   -6.1930    1.6400    4.0350 O   0  0  0  0  0  0  0  0  0  0  0  0
   -5.7140   -0.1560    0.0040 C   0  0  0  0  0  0  0  0  0  0  0  0
   -7.0590    0.0210   -0.3160 C   0  0  0  0  0  0  0  0  0  0  0  0
   -7.4860    0.0140   -1.6220 C   0  0  0  0  0  0  0  0  0  0  0  0
   -6.5320   -0.1740   -2.5980 C   0  0  0  0  0  0  0  0  0  0  0  0
   -5.1990   -0.3510   -2.3070 C   0  0  0  0  0  0  0  0  0  0  0  0
   -4.7940   -0.3400   -0.9800 C   0  0  0  0  0  0  0  0  0  0  0  0
    1.3840   -1.0900   -0.6140 C   0  0  0  0  0  0  0  0  0  0  0  0
    2.3230   -0.1940   -0.8670 C   0  0  0  0  0  0  0  0  0  0  0  0
    3.6360    0.0090   -0.2140 C   0  0  0  0  0  0  0  0  0  0  0  0
    4.2800   -0.7420    0.6570 C   0  0  0  0  0  0  0  0  0  0  0  0
    5.5850   -0.3540    1.1850 C   0  0  1  0  0  0  0  0  0  0  0  0
    6.6330   -1.4520    0.9730 C   0  0  0  0  0  0  0  0  0  0  0  0
    6.1400    0.9060    0.7100 C   0  0  0  0  0  0  0  0  0  0  0  0
    7.2410    0.8790    0.0700 O   0  0  0  0  0  0  0  0  0  0  0  0
    5.5650    2.1920    0.8940 N   0  0  0  0  0  0  0  0  0  0  0  0
    6.2230    3.3670    0.3800 C   0  0  0  0  0  0  0  0  0  0  0  0
    6.4000    3.3070   -1.0820 C   0  0  0  0  0  0  0  0  0  0  0  0
    6.0360    2.3660   -1.7580 O   0  0  0  0  0  0  0  0  0  0  0  0
    3.7600   -1.9910    1.1550 N   0  0  0  0  0  0  0  0  0  0  0  0
    2.4580   -2.4970    1.1600 N   0  0  0  0  0  0  0  0  0  0  0  0
    1.4500   -2.1230    0.4170 C   0  0  0  0  0  0  0  0  0  0  0  0
  2  1  1  1
  2  3  1  0
  2 19  1  0
  3  4  2  0
  3  5  1  0
  5  6  1  0
  6  7  2  0
  6 18  1  0
  7  8  1  0
  8  9  1  0
  8 13  1  0
  9 10  1  0
 10 11  1  0
 10 12  2  0
 13 14  2  0
 13 18  1  0
 14 15  1  0
 15 16  2  0
 16 17  1  0
 17 18  2  0
 19 20  2  0
 19 33  1  0
 20 21  1  0
 21 22  2  0
 22 23  1  0
 22 31  1  0
 23 24  1  6
 23 25  1  0
 25 26  2  0
 25 27  1  0
 27 28  1  0
 28 29  1  0
 29 30  2  0
 31 32  1  0
 32 33  2  0
M  END
