
     RDKit          3D

 33 36  0  0  0  0  0  0  0  0999 V2000
   -5.0610   -2.3840    0.9750 C   0  0  0  0  0  0  0  0  0  0  0  0
   -4.2620   -1.8000   -0.1960 C   0  0  0  0  0  0  0  0  0  0  0  0
   -3.5170   -0.6010    0.2560 C   0  0  0  0  0  0  0  0  0  0  0  0
   -2.2940   -0.7500    0.9590 C   0  0  0  0  0  0  0  0  0  0  0  0
   -1.9040   -2.1640    1.1750 C   0  0  0  0  0  0  0  0  0  0  0  0
   -1.5930    0.3450    1.4010 C   0  0  0  0  0  0  0  0  0  0  0  0
   -0.3530    0.2110    2.0690 C   0  0  0  0  0  0  0  0  0  0  0  0
    0.9760    0.1430    1.5680 C   0  0  0  0  0  0  0  0  0  0  0  0
    1.2960   -0.8890    0.6230 N   0  0  0  0  0  0  0  0  0  0  0  0
    2.6340   -1.1570    0.2040 C   0  0  0  0  0  0  0  0  0  0  0  0
    3.7190   -0.4930    0.7160 C   0  0  0  0  0  0  0  0  0  0  0  0
    5.0400   -0.7550    0.3250 C   0  0  0  0  0  0  0  0  0  0  0  0
    6.1260   -0.0350    0.9500 C   0  0  0  0  0  0  0  0  0  0  0  0
    7.0540    0.5990    0.2970 C   0  0  0  0  0  0  0  0  0  0  0  0
    8.0900    1.2790    0.9570 O   0  0  0  0  0  0  0  0  0  0  0  0
    8.9170    1.8550    0.0170 C   0  0  0  0  0  0  0  0  0  0  0  0
    9.9390    2.5330    0.3540 O   0  0  0  0  0  0  0  0  0  0  0  0
    8.4410    1.5660   -1.2800 N   0  0  0  0  0  0  0  0  0  0  0  0
    7.2720    0.7790   -1.1110 C   0  0  0  0  0  0  0  0  0  0  0  0
    6.6000    0.3530   -2.0740 O   0  0  0  0  0  0  0  0  0  0  0  0
    5.2450   -1.7330   -0.6210 C   0  0  0  0  0  0  0  0  0  0  0  0
    4.1480   -2.3970   -1.1320 C   0  0  0  0  0  0  0  0  0  0  0  0
    2.8450   -2.1290   -0.7380 C   0  0  0  0  0  0  0  0  0  0  0  0
    1.6990   -2.8900   -1.3400 C   0  0  0  0  0  0  0  0  0  0  0  0
   -2.1280    1.5970    1.1360 C   0  0  0  0  0  0  0  0  0  0  0  0
   -1.3670    2.7490    1.5910 C   0  0  0  0  0  0  0  0  0  0  0  0
   -3.3170    1.7410    0.4540 C   0  0  0  0  0  0  0  0  0  0  0  0
   -3.8330    2.9940    0.2090 C   0  0  0  0  0  0  0  0  0  0  0  0
   -5.0400    3.1870   -0.4730 C   0  0  0  0  0  0  0  0  0  0  0  0
   -5.7120    2.0890   -0.9000 C   0  0  0  0  0  0  0  0  0  0  0  0
   -6.9920    2.2300   -1.6250 C   0  0  0  0  0  0  0  0  0  0  0  0
   -5.2070    0.8050   -0.6630 C   0  0  0  0  0  0  0  0  0  0  0  0
   -4.0290    0.6250    0.0030 C   0  0  0  0  0  0  0  0  0  0  0  0
  1  2  1  0
  2  3  1  0
  3  4  2  0
  3 33  1  0
  4  5  1  0
  4  6  1  0
  6  7  1  0
  6 25  2  0
  7  8  1  0
  8  9  1  0
  9 10  1  0
 10 11  2  0
 10 23  1  0
 11 12  1  0
 12 13  1  0
 12 21  2  0
 13 14  2  3
 14 15  1  0
 14 19  1  0
 15 16  1  0
 16 17  2  0
 16 18  1  0
 18 19  1  0
 19 20  2  0
 21 22  1  0
 22 23  2  0
 23 24  1  0
 25 26  1  0
 25 27  1  0
 27 28  2  0
 27 33  1  0
 28 29  1  0
 29 30  2  0
 30 31  1  0
 30 32  1  0
 32 33  2  0
M  END
