
     RDKit          3D

  7  6  0  0  0  0  0  0  0  0999 V2000
    2.9510   -0.8480   -0.5410 C   0  0  0  0  0  0  0  0  0  0  0  0
    2.1890    0.0940   -0.0530 C   0  0  0  0  0  0  0  0  0  0  0  0
    0.7630    0.1500   -0.4030 C   0  0  0  0  0  0  0  0  0  0  0  0
   -0.0700    0.0440    0.7260 O   0  0  0  0  0  0  0  0  0  0  0  0
   -1.3840    0.1150    0.2130 C   0  0  0  0  0  0  0  0  0  0  0  0
   -2.3970    0.0190    1.2720 C   0  0  0  0  0  0  0  0  0  0  0  0
   -2.9760    1.0460    1.7010 N   0  0  0  0  0  0  0  0  0  0  0  0
  1  2  2  0
  2  3  1  0
  3  4  1  0
  4  5  1  0
  5  6  1  0
  6  7  2  0
M  END
