
     RDKit          3D

  7  6  0  0  0  0  0  0  0  0999 V2000
   -2.3850   -0.4490    0.5120 C   0  0  0  0  0  0  0  0  0  0  0  0
   -1.8710    0.7200   -0.1590 N   0  0  0  0  0  0  0  0  0  0  0  0
   -0.5870    1.2760    0.0910 C   0  0  0  0  0  0  0  0  0  0  0  0
    0.5100    0.5710   -0.0830 C   0  0  0  0  0  0  0  0  0  0  0  0
    0.3930   -0.8280   -0.5490 C   0  0  0  0  0  0  0  0  0  0  0  0
    1.7790    1.0670    0.1470 O   0  0  0  0  0  0  0  0  0  0  0  0
    2.7030    0.2060    0.7890 C   0  0  0  0  0  0  0  0  0  0  0  0
  1  2  1  0
  2  3  1  0
  3  4  2  3
  4  5  1  0
  4  6  1  0
  6  7  1  0
M  END
