
     RDKit          3D

 20 20  0  0  0  0  0  0  0  0999 V2000
   -4.3210   -1.3780    2.0970 C   0  0  0  0  0  0  0  0  0  0  0  0
   -4.4510   -1.7170    0.6370 C   0  0  1  0  0  0  0  0  0  0  0  0
   -4.2190   -3.1930    0.3860 C   0  0  0  0  0  0  0  0  0  0  0  0
   -5.9020   -1.4330    0.2520 C   0  0  0  0  0  0  0  0  0  0  0  0
   -3.6350   -0.9280   -0.1940 O   0  0  0  0  0  0  0  0  0  0  0  0
   -2.2540   -0.9070   -0.0710 C   0  0  0  0  0  0  0  0  0  0  0  0
   -1.6650   -1.5880    0.7830 O   0  0  0  0  0  0  0  0  0  0  0  0
   -1.5150   -0.0940   -0.9390 N   0  0  0  0  0  0  0  0  0  0  0  0
   -0.0580    0.0270   -0.9230 C   0  0  1  0  0  0  0  0  0  0  0  0
    0.3970   -0.5190   -2.2680 C   0  0  0  0  0  0  0  0  0  0  0  0
   -0.1640    0.2300   -3.3640 N   0  0  0  0  0  0  0  0  0  0  0  0
    0.3790    1.4150   -0.6810 C   0  0  0  0  0  0  0  0  0  0  0  0
    1.6710    1.7110   -0.6310 O   0  0  0  0  0  0  0  0  0  0  0  0
    2.5010    1.1640    0.2610 C   0  0  1  0  0  0  0  0  0  0  0  0
    3.6450    0.4740   -0.4470 C   0  0  0  0  0  0  0  0  0  0  0  0
    4.9730    1.1520   -0.2030 C   0  0  0  0  0  0  0  0  0  0  0  0
    5.3200    1.3070    1.2400 C   0  0  0  0  0  0  0  0  0  0  0  0
    4.1060    1.6860    2.0780 C   0  0  0  0  0  0  0  0  0  0  0  0
    3.1080    2.2990    1.1000 C   0  0  2  0  0  0  0  0  0  0  0  0
    2.1470    3.0430    1.7370 O   0  0  0  0  0  0  0  0  0  0  0  0
  2  1  1  1
  2  3  1  0
  2  4  1  0
  2  5  1  0
  5  6  1  0
  6  7  2  0
  6  8  1  0
  8  9  1  0
  9 10  1  6
  9 12  1  0
 10 11  1  0
 12 13  1  0
 14 13  1  6
 14 15  1  0
 14 19  1  0
 15 16  1  0
 16 17  1  0
 17 18  1  0
 18 19  1  0
 19 20  1  1
M  CHG  1  11   1
M  END
