
     RDKit          3D

 19 19  0  0  0  0  0  0  0  0999 V2000
    5.8950   -1.2000    0.2590 C   0  0  0  0  0  0  0  0  0  0  0  0
    5.5930    0.2940    0.4240 C   0  0  2  0  0  0  0  0  0  0  0  0
    6.6200    1.0060   -0.4670 C   0  0  0  0  0  0  0  0  0  0  0  0
    5.7710    0.7420    1.8080 C   0  0  0  0  0  0  0  0  0  0  0  0
    6.8100    0.5660    2.4100 O   0  0  0  0  0  0  0  0  0  0  0  0
    4.3340    0.5800   -0.1100 O   0  0  0  0  0  0  0  0  0  0  0  0
    3.1480    0.0070    0.3290 C   0  0  0  0  0  0  0  0  0  0  0  0
    3.2100   -0.8170    1.2640 O   0  0  0  0  0  0  0  0  0  0  0  0
    1.8900    0.3290   -0.2450 N   0  0  0  0  0  0  0  0  0  0  0  0
    0.6570   -0.2720    0.2180 C   0  0  0  0  0  0  0  0  0  0  0  0
   -0.4920    0.2840   -0.6000 C   0  0  0  0  0  0  0  0  0  0  0  0
   -1.8120   -0.3130   -0.1550 C   0  0  1  0  0  0  0  0  0  0  0  0
   -2.0190    0.0020    1.2050 O   0  0  0  0  0  0  0  0  0  0  0  0
   -2.9650    0.2070   -0.9600 C   0  0  0  0  0  0  0  0  0  0  0  0
   -4.2500   -0.4150   -0.4840 C   0  0  2  0  0  0  0  0  0  0  0  0
   -5.4840    0.0350   -1.2240 C   0  0  0  0  0  0  0  0  0  0  0  0
   -6.1850    0.1950    0.1040 C   0  0  0  0  0  0  0  0  0  0  0  0
   -4.8360    0.1570    0.7830 C   0  0  1  0  0  0  0  0  0  0  0  0
   -4.8000   -0.7210    1.9400 N   0  0  0  0  0  0  0  0  0  0  0  0
  2  1  1  1
  2  3  1  0
  2  4  1  0
  2  6  1  0
  4  5  2  0
  6  7  1  0
  7  8  2  0
  7  9  1  0
  9 10  1  0
 10 11  1  0
 11 12  1  0
 12 13  1  1
 12 14  1  0
 15 14  1  6
 15 16  1  0
 15 18  1  0
 16 17  1  0
 17 18  1  0
 18 19  1  1
M  CHG  1  19   1
M  END
