
     RDKit          3D

 20 20  0  0  0  0  0  0  0  0999 V2000
   -0.8270   -2.9660    0.0610 C   0  0  0  0  0  0  0  0  0  0  0  0
   -0.1320   -1.8780    0.7860 C   0  0  0  0  0  0  0  0  0  0  0  0
   -0.2210   -0.5330    0.3080 N   0  0  0  0  0  0  0  0  0  0  0  0
   -1.0920    0.3890    0.9540 C   0  0  0  0  0  0  0  0  0  0  0  0
   -2.3290    0.9030    0.3740 C   0  0  1  0  0  0  0  0  0  0  0  0
   -3.3960   -0.0270   -0.0360 C   0  0  0  0  0  0  0  0  0  0  0  0
   -3.0490   -0.9550   -1.0980 N   0  0  0  0  0  0  0  0  0  0  0  0
   -2.9380    1.9390    1.3510 C   0  0  0  0  0  0  0  0  0  0  0  0
   -4.1980    2.5160    0.8380 C   0  0  0  0  0  0  0  0  0  0  0  0
   -4.6140    3.4800    1.8050 O   0  0  0  0  0  0  0  0  0  0  0  0
    0.6630    0.0080   -0.6750 C   0  0  0  0  0  0  0  0  0  0  0  0
    0.4500    1.2020   -1.0310 O   0  0  0  0  0  0  0  0  0  0  0  0
    1.7940   -0.6980   -1.3110 C   0  0  2  0  0  0  0  0  0  0  0  0
    2.8490   -0.9720   -0.2780 C   0  0  0  0  0  0  0  0  0  0  0  0
    4.2100   -0.4520   -0.6390 C   0  0  2  0  0  0  0  0  0  0  0  0
    5.0760   -0.5080    0.6050 C   0  0  0  0  0  0  0  0  0  0  0  0
    4.2320    0.9320   -1.1580 C   0  0  0  0  0  0  0  0  0  0  0  0
    3.0860    1.2000   -2.0620 C   0  0  0  0  0  0  0  0  0  0  0  0
    2.8990    2.3820   -2.5260 O   0  0  0  0  0  0  0  0  0  0  0  0
    2.2770    0.1290   -2.3500 O   0  0  0  0  0  0  0  0  0  0  0  0
  1  2  1  0
  2  3  1  0
  3  4  1  0
  3 11  1  0
  5  4  1  1
  5  6  1  0
  5  8  1  0
  6  7  1  0
  8  9  1  0
  9 10  1  0
 11 12  2  0
 13 11  1  1
 13 14  1  0
 13 20  1  0
 14 15  1  0
 15 16  1  1
 15 17  1  0
 17 18  1  0
 18 19  2  0
 18 20  1  0
M  CHG  1   7   1
M  END
