
     RDKit          3D

 20 20  0  0  0  0  0  0  0  0999 V2000
    5.8590    2.1710    0.5260 C   0  0  0  0  0  0  0  0  0  0  0  0
    5.4700    1.8040   -0.8820 C   0  0  0  0  0  0  0  0  0  0  0  0
    4.2910    1.0210   -0.9340 O   0  0  0  0  0  0  0  0  0  0  0  0
    4.2020   -0.2090   -0.3110 C   0  0  0  0  0  0  0  0  0  0  0  0
    5.2080   -0.6270    0.3150 O   0  0  0  0  0  0  0  0  0  0  0  0
    2.9980   -1.0600   -0.3370 C   0  0  1  0  0  0  0  0  0  0  0  0
    3.3760   -2.3740   -1.0220 C   0  0  0  0  0  0  0  0  0  0  0  0
    2.4980   -1.3800    1.0510 C   0  0  0  0  0  0  0  0  0  0  0  0
    1.1320   -0.7280    1.0360 C   0  0  0  0  0  0  0  0  0  0  0  0
    0.7760   -0.9230   -0.4410 C   0  0  1  0  0  0  0  0  0  0  0  0
   -0.3630   -0.0450   -0.7690 C   0  0  0  0  0  0  0  0  0  0  0  0
   -0.2710    0.9640   -1.5150 O   0  0  0  0  0  0  0  0  0  0  0  0
   -1.6270   -0.3690   -0.2040 N   0  0  0  0  0  0  0  0  0  0  0  0
   -2.7750    0.4770   -0.5060 C   0  0  0  0  0  0  0  0  0  0  0  0
   -4.0050   -0.0320    0.1810 C   0  0  2  0  0  0  0  0  0  0  0  0
   -3.8910   -0.0760    1.6740 C   0  0  0  0  0  0  0  0  0  0  0  0
   -4.2420   -1.4560   -0.3020 C   0  0  0  0  0  0  0  0  0  0  0  0
   -5.1840    0.8080   -0.2610 C   0  0  0  0  0  0  0  0  0  0  0  0
   -4.9920    2.1870    0.0790 N   0  0  0  0  0  0  0  0  0  0  0  0
    1.9570   -0.5120   -1.0470 O   0  0  0  0  0  0  0  0  0  0  0  0
  1  2  1  0
  2  3  1  0
  3  4  1  0
  4  5  2  0
  4  6  1  0
  6  7  1  6
  6  8  1  0
  6 20  1  0
  8  9  1  0
  9 10  1  0
 10 11  1  6
 10 20  1  0
 11 12  2  0
 11 13  1  0
 13 14  1  0
 14 15  1  0
 15 16  1  1
 15 17  1  0
 15 18  1  0
 18 19  1  0
M  CHG  1  19   1
M  END
