
     RDKit          3D

 10 10  0  0  0  0  0  0  0  0999 V2000
    2.8180    0.7860    0.1370 O   0  0  0  0  0  0  0  0  0  0  0  0
    2.1390   -0.3600   -0.2540 C   0  0  0  0  0  0  0  0  0  0  0  0
    0.7980    0.0560   -0.8050 C   0  0  1  0  0  0  0  0  0  0  0  0
    0.0210   -0.9860   -1.2300 O   0  0  0  0  0  0  0  0  0  0  0  0
   -0.6060   -1.6590   -0.2580 N   0  0  0  0  0  0  0  0  0  0  0  0
   -1.4660   -0.8580    0.5600 C   0  0  0  0  0  0  0  0  0  0  0  0
   -1.3840    0.5840    0.1130 C   0  0  1  0  0  0  0  0  0  0  0  0
   -2.1440    1.4060    0.9090 O   0  0  0  0  0  0  0  0  0  0  0  0
    0.1010    0.9570    0.1940 C   0  0  2  0  0  0  0  0  0  0  0  0
    0.2350    2.3020   -0.1190 O   0  0  0  0  0  0  0  0  0  0  0  0
  1  2  1  0
  3  2  1  1
  3  4  1  0
  3  9  1  0
  4  5  1  0
  5  6  1  0
  6  7  1  0
  7  8  1  1
  7  9  1  0
  9 10  1  6
M  CHG  1   5   1
M  END
