
     RDKit          3D

 18 24  0  0  0  0  0  0  0  0999 V2000
   -5.9370    0.7360   -0.5850 O   0  0  0  0  0  0  0  0  0  0  0  0
   -4.9490   -0.0100   -0.7510 C   0  0  0  0  0  0  0  0  0  0  0  0
   -3.9810   -0.4020   -0.7940 C   0  0  0  0  0  0  0  0  0  0  0  0
   -3.3160   -0.6590   -0.8170 C   0  0  0  0  0  0  0  0  0  0  0  0
   -2.4260   -0.9970   -0.8510 C   0  0  0  0  0  0  0  0  0  0  0  0
   -1.1010   -1.2530   -0.8240 C   0  0  0  0  0  0  0  0  0  0  0  0
    0.0100   -0.5100   -0.4710 C   0  0  0  0  0  0  0  0  0  0  0  0
   -0.0750    0.8030   -0.0330 C   0  0  0  0  0  0  0  0  0  0  0  0
    0.9590    1.6770    0.4290 C   0  0  0  0  0  0  0  0  0  0  0  0
    2.1400    1.4190    0.6760 N   0  0  0  0  0  0  0  0  0  0  0  0
    2.9620    0.2810    0.6460 C   0  0  0  0  0  0  0  0  0  0  0  0
    2.8540   -1.0120    1.0400 C   0  0  0  0  0  0  0  0  0  0  0  0
    4.0530   -1.7010    0.7380 C   0  0  0  0  0  0  0  0  0  0  0  0
    4.8520   -0.7630    0.1620 C   0  0  0  0  0  0  0  0  0  0  0  0
    4.2060    0.3660    0.1200 O   0  0  0  0  0  0  0  0  0  0  0  0
   -1.3870    1.2490   -0.0100 C   0  0  0  0  0  0  0  0  0  0  0  0
   -2.4900    0.7100   -0.2890 C   0  0  0  0  0  0  0  0  0  0  0  0
   -3.7560    1.2100   -0.2290 N   0  0  0  0  0  0  0  0  0  0  0  0
  1  2  2  0
  2  3  1  0
  2 18  1  0
  3  4  3  0
  4  5  1  0
  5  6  2  0
  5 17  1  0
  6  7  1  0
  7  8  2  0
  8  9  1  0
  8 16  1  0
  9 10  2  3
 10 11  1  0
 11 12  2  0
 11 15  1  0
 12 13  1  0
 13 14  2  0
 14 15  1  0
 16 17  2  0
 17 18  1  0
  4  2  1  0
  5  3  1  0
 17  4  1  0
 18  3  1  0
M  END
