
     RDKit          3D

 22 24  0  0  0  0  0  0  0  0999 V2000
   -2.6870    2.1410   -1.4460 C   0  0  0  0  0  0  0  0  0  0  0  0
   -2.5630    1.1800   -0.3430 C   0  0  0  0  0  0  0  0  0  0  0  0
   -1.4050    0.7420    0.3280 C   0  0  0  0  0  0  0  0  0  0  0  0
   -0.2060    1.4650    0.1180 C   0  0  0  0  0  0  0  0  0  0  0  0
    0.2730    2.4890    0.4050 O   0  0  0  0  0  0  0  0  0  0  0  0
    0.8790    0.4970   -0.8720 N   0  0  0  0  0  0  0  0  0  0  0  0
    2.0010    1.4670   -0.7950 C   0  0  0  0  0  0  0  0  0  0  0  0
    2.2680    2.4250   -0.7400 O   0  0  0  0  0  0  0  0  0  0  0  0
    3.2200    0.4710   -0.8740 N   0  0  0  0  0  0  0  0  0  0  0  0
    4.5500    0.9050   -0.7920 C   0  0  0  0  0  0  0  0  0  0  0  0
    5.3120   -0.2420   -0.2780 C   0  0  0  0  0  0  0  0  0  0  0  0
    5.3010   -0.6910    1.1030 C   0  0  0  0  0  0  0  0  0  0  0  0
    6.2060   -1.7600    1.1240 N   0  0  0  0  0  0  0  0  0  0  0  0
    6.7200   -1.9610   -0.1020 N   0  0  0  0  0  0  0  0  0  0  0  0
    6.2030   -1.0700   -0.9650 C   0  0  0  0  0  0  0  0  0  0  0  0
   -1.7320   -0.3190    1.0940 N   0  0  0  0  0  0  0  0  0  0  0  0
   -3.0370   -0.6360    0.9640 C   0  0  0  0  0  0  0  0  0  0  0  0
   -3.5740    0.2560    0.0840 C   0  0  0  0  0  0  0  0  0  0  0  0
   -5.0300    0.2790   -0.0700 C   0  0  0  0  0  0  0  0  0  0  0  0
   -5.3540   -1.1670   -0.4830 C   0  0  0  0  0  0  0  0  0  0  0  0
   -4.8810   -2.1210    0.4460 C   0  0  0  0  0  0  0  0  0  0  0  0
   -3.7570   -1.8700    1.1430 C   0  0  0  0  0  0  0  0  0  0  0  0
  1  2  1  0
  2  3  2  0
  2 18  1  0
  3  4  1  0
  3 16  1  0
  4  5  2  0
  4  6  1  0
  6  7  1  0
  7  8  2  0
  7  9  1  0
  9 10  1  0
 10 11  1  0
 11 12  1  0
 11 15  2  0
 12 13  2  0
 13 14  1  0
 14 15  1  0
 16 17  1  0
 17 18  2  0
 17 22  1  0
 18 19  1  0
 19 20  1  0
 20 21  1  0
 21 22  2  0
M  END
