
     RDKit          3D

 22 24  0  0  0  0  0  0  0  0999 V2000
   -5.1580    1.8530    1.0260 N   0  0  0  0  0  0  0  0  0  0  0  0
   -4.9910    0.6170    0.8050 C   0  0  0  0  0  0  0  0  0  0  0  0
   -6.0610   -0.4090    0.8670 C   0  0  0  0  0  0  0  0  0  0  0  0
   -5.5210   -1.3860   -0.1620 C   0  0  0  0  0  0  0  0  0  0  0  0
   -4.0300   -1.1780   -0.1080 C   0  0  0  0  0  0  0  0  0  0  0  0
   -3.1800   -2.1350   -0.6050 O   0  0  0  0  0  0  0  0  0  0  0  0
   -3.6990   -0.0410    0.4410 C   0  0  0  0  0  0  0  0  0  0  0  0
   -2.4370    0.5710    0.7050 N   0  0  0  0  0  0  0  0  0  0  0  0
   -1.1660    0.0400    0.4080 C   0  0  0  0  0  0  0  0  0  0  0  0
   -1.0760   -1.0690   -0.1390 O   0  0  0  0  0  0  0  0  0  0  0  0
    0.0690    0.7480    0.7200 C   0  0  0  0  0  0  0  0  0  0  0  0
    1.2190    0.1940    0.4150 C   0  0  0  0  0  0  0  0  0  0  0  0
    1.2170   -1.0830   -0.2110 N   0  0  0  0  0  0  0  0  0  0  0  0
    2.0790   -1.6300   -0.9940 C   0  0  0  0  0  0  0  0  0  0  0  0
    3.2990   -1.0500   -1.4350 N   0  0  0  0  0  0  0  0  0  0  0  0
    4.1150   -0.0450   -0.8370 C   0  0  0  0  0  0  0  0  0  0  0  0
    5.3980   -0.0300   -1.3310 C   0  0  0  0  0  0  0  0  0  0  0  0
    6.2840    0.8970   -0.8310 C   0  0  0  0  0  0  0  0  0  0  0  0
    5.8880    1.7820    0.1370 C   0  0  0  0  0  0  0  0  0  0  0  0
    4.5990    1.7570    0.6250 C   0  0  0  0  0  0  0  0  0  0  0  0
    3.6800    0.8300    0.1390 C   0  0  0  0  0  0  0  0  0  0  0  0
    2.4030    0.9460    0.7500 N   0  0  0  0  0  0  0  0  0  0  0  0
  1  2  2  0
  2  3  1  0
  2  7  1  0
  3  4  1  0
  4  5  1  0
  5  6  1  0
  5  7  2  0
  7  8  1  0
  8  9  1  0
  9 10  2  0
  9 11  1  0
 11 12  2  3
 12 13  1  0
 12 22  1  0
 13 14  2  0
 14 15  1  0
 15 16  1  0
 16 17  2  0
 16 21  1  0
 17 18  1  0
 18 19  2  0
 19 20  1  0
 20 21  2  0
 21 22  1  0
M  END
