
     RDKit          3D

 18 19  0  0  0  0  0  0  0  0999 V2000
   -3.2690    2.2420   -0.2540 C   0  0  0  0  0  0  0  0  0  0  0  0
   -3.5010    1.0090    0.1070 C   0  0  0  0  0  0  0  0  0  0  0  0
   -4.8220    0.6390    0.6560 C   0  0  0  0  0  0  0  0  0  0  0  0
   -5.1110   -0.5700    1.0370 C   0  0  0  0  0  0  0  0  0  0  0  0
   -4.1460   -1.6600    0.9500 C   0  0  0  0  0  0  0  0  0  0  0  0
   -2.8660   -1.2480    0.4070 C   0  0  0  0  0  0  0  0  0  0  0  0
   -2.4870   -0.0180   -0.0110 C   0  0  0  0  0  0  0  0  0  0  0  0
   -1.1720    0.1460   -0.5030 N   0  0  0  0  0  0  0  0  0  0  0  0
   -0.3410    1.2800   -0.4890 C   0  0  0  0  0  0  0  0  0  0  0  0
    1.1380    0.9070   -0.7430 C   0  0  0  0  0  0  0  0  0  0  0  0
    1.6100   -0.0530    0.3330 C   0  0  0  0  0  0  0  0  0  0  0  0
    3.0040   -0.3730    0.0780 N   0  0  0  0  0  0  0  0  0  0  0  0
    3.4710   -1.4260   -0.7310 C   0  0  0  0  0  0  0  0  0  0  0  0
    2.7980   -2.3220   -1.3300 O   0  0  0  0  0  0  0  0  0  0  0  0
    4.9480   -1.3550   -0.8030 C   0  0  0  0  0  0  0  0  0  0  0  0
    5.3310   -0.1450   -0.0100 C   0  0  0  0  0  0  0  0  0  0  0  0
    4.0900    0.3310    0.6170 C   0  0  0  0  0  0  0  0  0  0  0  0
    4.0650    1.2530    1.5150 O   0  0  0  0  0  0  0  0  0  0  0  0
  1  2  2  0
  2  3  1  0
  2  7  1  0
  3  4  2  0
  4  5  1  0
  5  6  1  0
  6  7  2  0
  7  8  1  0
  8  9  1  0
  9 10  1  0
 10 11  1  0
 11 12  1  0
 12 13  1  0
 12 17  1  0
 13 14  2  0
 13 15  1  0
 15 16  1  0
 16 17  1  0
 17 18  2  0
M  END
