
     RDKit          3D

 21 22  0  0  0  0  0  0  0  0999 V2000
    3.3870   -1.1660    2.4800 O   0  0  0  0  0  0  0  0  0  0  0  0
    3.8280   -0.2530    1.5240 C   0  0  0  0  0  0  0  0  0  0  0  0
    2.7970   -0.0910    0.4340 C   0  0  1  0  0  0  0  0  0  0  0  0
    1.5750    0.3720    0.9220 O   0  0  0  0  0  0  0  0  0  0  0  0
    0.6140    0.0280   -0.0350 C   0  0  1  0  0  0  0  0  0  0  0  0
   -0.6510    0.4190    0.2820 O   0  0  0  0  0  0  0  0  0  0  0  0
   -1.5900   -0.5270    0.5130 C   0  0  1  0  0  0  0  0  0  0  0  0
   -2.2480   -0.5120    1.8480 C   0  0  2  0  0  0  0  0  0  0  0  0
   -3.1720   -1.5480    1.9610 O   0  0  0  0  0  0  0  0  0  0  0  0
   -3.0640    0.7890    1.9220 C   0  0  0  0  0  0  0  0  0  0  0  0
   -3.9190    0.9030    0.7520 N   0  0  0  0  0  0  0  0  0  0  0  0
   -3.9210   -0.2450    0.0350 O   0  0  0  0  0  0  0  0  0  0  0  0
   -2.6630   -0.3980   -0.5430 C   0  0  2  0  0  0  0  0  0  0  0  0
   -2.6100   -1.6030   -1.4410 C   0  0  0  0  0  0  0  0  0  0  0  0
   -1.3320   -1.6980   -1.9830 O   0  0  0  0  0  0  0  0  0  0  0  0
    1.0500    0.4390   -1.4270 C   0  0  2  0  0  0  0  0  0  0  0  0
    1.5810   -0.6500   -2.1440 O   0  0  0  0  0  0  0  0  0  0  0  0
    2.1880    1.4670   -1.3690 C   0  0  1  0  0  0  0  0  0  0  0  0
    1.7910    2.5590   -0.5900 O   0  0  0  0  0  0  0  0  0  0  0  0
    3.3430    0.8010   -0.6560 C   0  0  2  0  0  0  0  0  0  0  0  0
    4.0630    0.0870   -1.5930 O   0  0  0  0  0  0  0  0  0  0  0  0
  1  2  1  0
  3  2  1  1
  3  4  1  0
  3 20  1  0
  4  5  1  0
  5  6  1  1
  5 16  1  0
  7  6  1  1
  7  8  1  0
  7 13  1  0
  8  9  1  6
  8 10  1  0
 10 11  1  0
 11 12  1  0
 12 13  1  0
 13 14  1  1
 14 15  1  0
 16 17  1  6
 16 18  1  0
 18 19  1  1
 18 20  1  0
 20 21  1  6
M  CHG  1  11   1
M  END
