
     RDKit          3D

 22 24  0  0  0  0  0  0  0  0999 V2000
   -3.7890    1.1140   -1.8300 C   0  0  0  0  0  0  0  0  0  0  0  0
   -3.0660    0.3680   -1.0510 C   0  0  0  0  0  0  0  0  0  0  0  0
   -2.1250   -0.6280   -1.6020 C   0  0  0  0  0  0  0  0  0  0  0  0
   -0.7280   -0.3560   -1.0370 C   0  0  0  0  0  0  0  0  0  0  0  0
   -0.7080   -0.1890    0.4140 C   0  0  0  0  0  0  0  0  0  0  0  0
   -1.8340    0.1650    1.1250 C   0  0  0  0  0  0  0  0  0  0  0  0
   -1.5750    0.1850    2.4020 O   0  0  0  0  0  0  0  0  0  0  0  0
   -0.3300   -0.1330    2.6040 C   0  0  0  0  0  0  0  0  0  0  0  0
    0.3390   -0.2250    3.8550 N   0  0  0  0  0  0  0  0  0  0  0  0
    0.2780   -0.3820    1.3620 C   0  0  0  0  0  0  0  0  0  0  0  0
    1.6590   -0.7680    1.1900 C   0  0  0  0  0  0  0  0  0  0  0  0
    2.3830   -0.9740    2.2430 O   0  0  0  0  0  0  0  0  0  0  0  0
    2.3560   -0.9550   -0.0190 N   0  0  0  0  0  0  0  0  0  0  0  0
    3.7170   -1.3510   -0.0560 N   0  0  0  0  0  0  0  0  0  0  0  0
    4.7380   -0.5460   -0.6040 C   0  0  0  0  0  0  0  0  0  0  0  0
    6.0760   -0.8630   -0.6940 C   0  0  0  0  0  0  0  0  0  0  0  0
    6.6840    0.1770   -1.2760 N   0  0  0  0  0  0  0  0  0  0  0  0
    5.7790    1.1080   -1.5430 N   0  0  0  0  0  0  0  0  0  0  0  0
    4.5700    0.7250   -1.1550 C   0  0  0  0  0  0  0  0  0  0  0  0
   -3.0840    0.4580    0.3890 C   0  0  0  0  0  0  0  0  0  0  0  0
   -4.1390    0.7130    1.0770 C   0  0  0  0  0  0  0  0  0  0  0  0
   -5.4760    0.9390    0.4860 C   0  0  0  0  0  0  0  0  0  0  0  0
  1  2  2  0
  2  3  1  0
  2 20  1  0
  3  4  1  0
  4  5  1  0
  5  6  2  0
  5 10  1  0
  6  7  1  0
  6 20  1  0
  7  8  1  0
  8  9  1  0
  8 10  2  0
 10 11  1  0
 11 12  2  0
 11 13  1  0
 13 14  1  0
 14 15  1  0
 15 16  1  0
 15 19  2  0
 16 17  2  0
 17 18  1  0
 18 19  1  0
 20 21  2  3
 21 22  1  0
M  END
