
     RDKit          3D

 36 38  0  0  0  0  0  0  0  0999 V2000
   -7.4770   -4.1240   -2.0070 C   0  0  0  0  0  0  0  0  0  0  0  0
   -6.2960   -3.1920   -1.9180 C   0  0  0  0  0  0  0  0  0  0  0  0
   -5.3640   -3.3560   -2.7290 O   0  0  0  0  0  0  0  0  0  0  0  0
   -6.3000   -2.1970   -0.9420 N   0  0  0  0  0  0  0  0  0  0  0  0
   -5.1740   -1.2560   -0.7920 C   0  0  0  0  0  0  0  0  0  0  0  0
   -3.9880   -2.0300   -0.4460 C   0  0  0  0  0  0  0  0  0  0  0  0
   -2.7070   -1.2950   -0.3050 N   0  0  0  0  0  0  0  0  0  0  0  0
   -2.3060   -0.9160    0.9920 C   0  0  0  0  0  0  0  0  0  0  0  0
   -2.4310    0.4470    1.4970 C   0  0  0  0  0  0  0  0  0  0  0  0
   -3.7750    1.0860    1.5320 C   0  0  2  0  0  0  0  0  0  0  0  0
   -3.6570    2.3900    2.0930 N   0  0  0  0  0  0  0  0  0  0  0  0
   -4.3850    2.7480    3.0090 C   0  0  0  0  0  0  0  0  0  0  0  0
   -5.4020    1.8040    3.5360 C   0  0  0  0  0  0  0  0  0  0  0  0
   -4.8050    0.2630    2.7700 S   0  0  0  0  0  0  0  0  0  0  0  0
   -1.9990   -1.1800   -1.5160 C   0  0  0  0  0  0  0  0  0  0  0  0
   -2.5640   -1.7030   -2.5530 O   0  0  0  0  0  0  0  0  0  0  0  0
   -0.7070   -0.5500   -1.7710 C   0  0  0  0  0  0  0  0  0  0  0  0
    0.2460    0.0790   -1.0870 C   0  0  0  0  0  0  0  0  0  0  0  0
    1.3410    0.5560   -1.6870 C   0  0  0  0  0  0  0  0  0  0  0  0
    2.4250    1.2630   -0.9610 C   0  0  0  0  0  0  0  0  0  0  0  0
    3.4130    1.6720   -1.6110 O   0  0  0  0  0  0  0  0  0  0  0  0
    2.3780    1.4830    0.4130 O   0  0  0  0  0  0  0  0  0  0  0  0
    3.4510    2.1590    1.0110 C   0  0  0  0  0  0  0  0  0  0  0  0
    4.7160    1.4050    0.8210 C   0  0  0  0  0  0  0  0  0  0  0  0
    4.7100    0.3150    0.2110 O   0  0  0  0  0  0  0  0  0  0  0  0
    5.9610    1.8720    1.3100 N   0  0  0  0  0  0  0  0  0  0  0  0
    7.1890    1.1670    1.1420 C   0  0  0  0  0  0  0  0  0  0  0  0
    7.9170    0.7560    2.1610 C   0  0  0  0  0  0  0  0  0  0  0  0
    9.1920    0.0250    2.0410 C   0  0  0  0  0  0  0  0  0  0  0  0
    9.5590   -0.1930    0.7090 O   0  0  0  0  0  0  0  0  0  0  0  0
    8.8130    0.2280   -0.3750 C   0  0  0  0  0  0  0  0  0  0  0  0
    7.6670    0.8860   -0.2040 C   0  0  0  0  0  0  0  0  0  0  0  0
    6.7580    1.3980   -1.6080 Cl  0  0  0  0  0  0  0  0  0  0  0  0
    1.4400    0.3630   -3.0620 C   0  0  0  0  0  0  0  0  0  0  0  0
    2.5310    0.7780   -3.9980 C   0  0  0  0  0  0  0  0  0  0  0  0
   -0.0320   -0.5020   -3.5160 S   0  0  0  0  0  0  0  0  0  0  0  0
  1  2  1  0
  2  3  2  0
  2  4  1  0
  4  5  1  0
  5  6  1  0
  6  7  1  0
  7  8  1  0
  7 15  1  0
  8  9  1  0
 10  9  1  1
 10 11  1  0
 10 14  1  0
 11 12  2  0
 12 13  1  0
 13 14  1  0
 15 16  2  0
 15 17  1  0
 17 18  2  0
 17 36  1  0
 18 19  1  0
 19 20  1  0
 19 34  2  0
 20 21  2  0
 20 22  1  0
 22 23  1  0
 23 24  1  0
 24 25  2  0
 24 26  1  0
 26 27  1  0
 27 28  2  0
 27 32  1  0
 28 29  1  0
 29 30  1  0
 30 31  1  0
 31 32  2  0
 32 33  1  0
 34 35  1  0
 34 36  1  0
M  END
