
     RDKit          3D

 36 39  0  0  0  0  0  0  0  0999 V2000
    2.9700    1.7730   -0.0150 O   0  0  0  0  0  0  0  0  0  0  0  0
    3.1890    1.6400   -1.1580 C   0  0  0  0  0  0  0  0  0  0  0  0
    4.3350    1.7170   -2.0240 C   0  0  0  0  0  0  0  0  0  0  0  0
    5.0420    0.2210   -2.6030 S   0  0  0  0  0  0  0  0  0  0  0  0
    5.9150   -0.8320   -1.4920 C   0  0  2  0  0  0  0  0  0  0  0  0
    5.1510   -1.5500   -0.4490 C   0  0  0  0  0  0  0  0  0  0  0  0
    5.9760   -1.5810    0.8340 C   0  0  0  0  0  0  0  0  0  0  0  0
    7.5590   -1.3290    0.3680 S   0  0  0  0  0  0  0  0  0  0  0  0
    8.0730   -2.0720   -1.0910 O   0  0  0  0  0  0  0  0  0  0  0  0
    8.5800   -0.2450    1.0980 C   0  0  0  0  0  0  0  0  0  0  0  0
    9.4530    0.5790    0.1580 C   0  0  2  0  0  0  0  0  0  0  0  0
   10.4140   -0.1050   -0.7660 C   0  0  0  0  0  0  0  0  0  0  0  0
   10.9190    0.6710    0.3840 C   0  0  0  0  0  0  0  0  0  0  0  0
    6.9980   -0.1130   -0.7030 C   0  0  0  0  0  0  0  0  0  0  0  0
    1.7370    1.2630   -2.0440 N   0  0  0  0  0  0  0  0  0  0  0  0
    0.8480    1.4610   -1.0420 C   0  0  0  0  0  0  0  0  0  0  0  0
    0.8410    1.8100    0.1210 O   0  0  0  0  0  0  0  0  0  0  0  0
   -0.5430    1.1600   -1.5590 N   0  0  0  0  0  0  0  0  0  0  0  0
   -1.6720    1.3870   -0.7770 C   0  0  0  0  0  0  0  0  0  0  0  0
   -1.9610    0.5390    0.3710 C   0  0  0  0  0  0  0  0  0  0  0  0
   -1.2870    0.3980    1.5070 N   0  0  0  0  0  0  0  0  0  0  0  0
   -1.9190   -0.3770    2.2940 O   0  0  0  0  0  0  0  0  0  0  0  0
   -3.0450   -0.8030    1.7400 C   0  0  0  0  0  0  0  0  0  0  0  0
   -3.9440   -1.7100    2.4670 C   0  0  0  0  0  0  0  0  0  0  0  0
   -5.1430   -2.0880    1.6840 C   0  0  0  0  0  0  0  0  0  0  0  0
   -6.0260   -0.9590    1.3140 C   0  0  0  0  0  0  0  0  0  0  0  0
   -5.5630    0.1970    1.5220 O   0  0  0  0  0  0  0  0  0  0  0  0
   -7.3030   -1.1390    0.7710 O   0  0  0  0  0  0  0  0  0  0  0  0
   -8.1250   -0.0020    0.4380 C   0  0  1  0  0  0  0  0  0  0  0  0
   -8.4440   -0.0180   -1.0040 C   0  0  0  0  0  0  0  0  0  0  0  0
   -9.9150    0.0830   -1.3340 C   0  0  0  0  0  0  0  0  0  0  0  0
  -10.7370   -0.7430   -0.3580 C   0  0  2  0  0  0  0  0  0  0  0  0
  -12.4220   -0.7530   -0.9140 Cl  0  0  0  0  0  0  0  0  0  0  0  0
  -10.6340   -0.0130    0.9570 C   0  0  0  0  0  0  0  0  0  0  0  0
   -9.2400    0.0460    1.4120 C   0  0  0  0  0  0  0  0  0  0  0  0
   -3.0860   -0.2310    0.5160 N   0  0  0  0  0  0  0  0  0  0  0  0
  1  2  2  0
  2  3  1  0
  2 15  1  0
  3  4  1  0
  5  4  1  1
  5  6  1  0
  5 14  1  0
  6  7  1  0
  7  8  1  0
  8  9  2  0
  8 10  1  0
  8 14  1  0
 11 10  1  1
 11 12  1  0
 11 13  1  0
 12 13  1  0
 15 16  1  0
 16 17  2  0
 16 18  1  0
 18 19  1  0
 19 20  1  0
 20 21  2  0
 20 36  1  0
 21 22  1  0
 22 23  1  0
 23 24  1  0
 23 36  2  0
 24 25  1  0
 25 26  1  0
 26 27  2  0
 26 28  1  0
 29 28  1  1
 29 30  1  0
 29 35  1  0
 30 31  1  0
 31 32  1  0
 32 33  1  6
 32 34  1  0
 34 35  1  0
M  END
