
     RDKit          3D

 27 28  0  0  0  0  0  0  0  0999 V2000
   -3.6570   -1.1160   -1.6910 C   0  0  0  0  0  0  0  0  0  0  0  0
   -2.9820    0.1200   -1.1650 C   0  0  2  0  0  0  0  0  0  0  0  0
   -1.6540    0.1410   -1.5640 O   0  0  0  0  0  0  0  0  0  0  0  0
   -0.7320   -0.3640   -0.5760 C   0  0  0  0  0  0  0  0  0  0  0  0
    0.3890    0.1540   -0.7070 N   0  0  0  0  0  0  0  0  0  0  0  0
    1.6460    0.0570   -0.0670 C   0  0  0  0  0  0  0  0  0  0  0  0
    2.7000   -0.6360   -0.7400 O   0  0  0  0  0  0  0  0  0  0  0  0
    3.6720   -0.1110   -1.5380 C   0  0  0  0  0  0  0  0  0  0  0  0
    3.2540    0.6470   -2.7520 C   0  0  0  0  0  0  0  0  0  0  0  0
    4.6940    1.2800   -3.7330 P   0  0  0  0  0  0  0  0  0  0  0  0
    5.7030    2.2580   -2.7690 O   0  0  0  0  0  0  0  0  0  0  0  0
    5.5290    0.0380   -4.5940 O   0  0  0  0  0  0  0  0  0  0  0  0
    1.8730    0.5810    1.1210 C   0  0  0  0  0  0  0  0  0  0  0  0
    1.0270    1.3180    2.0290 C   0  0  0  0  0  0  0  0  0  0  0  0
    0.2700    2.3590    1.8590 C   0  0  0  0  0  0  0  0  0  0  0  0
    0.0150    3.1580    0.6430 C   0  0  0  0  0  0  0  0  0  0  0  0
   -1.3960    3.1570    0.1890 C   0  0  0  0  0  0  0  0  0  0  0  0
   -2.3950    2.5740    1.1060 C   0  0  0  0  0  0  0  0  0  0  0  0
   -2.4100    3.1190    2.2840 O   0  0  0  0  0  0  0  0  0  0  0  0
   -3.2110    1.5830    0.7550 O   0  0  0  0  0  0  0  0  0  0  0  0
   -3.1900    0.3030    0.3180 C   0  0  2  0  0  0  0  0  0  0  0  0
   -2.3090   -0.6010    1.1700 C   0  0  0  0  0  0  0  0  0  0  0  0
   -1.3110   -1.3060    0.2990 N   0  0  0  0  0  0  0  0  0  0  0  0
   -1.1580   -2.6930    0.5070 C   0  0  0  0  0  0  0  0  0  0  0  0
   -0.4720   -3.0360    1.7850 C   0  0  1  0  0  0  0  0  0  0  0  0
   -1.2220   -2.6960    3.0560 C   0  0  0  0  0  0  0  0  0  0  0  0
   -0.2970   -4.4600    1.8590 O   0  0  0  0  0  0  0  0  0  0  0  0
  2  1  1  1
  2  3  1  0
  2 21  1  0
  3  4  1  0
  4  5  2  0
  4 23  1  0
  5  6  1  0
  6  7  1  0
  6 13  2  0
  7  8  1  0
  8  9  1  0
  9 10  1  0
 10 11  1  0
 10 12  1  0
 13 14  1  0
 14 15  2  0
 15 16  1  0
 16 17  1  0
 17 18  1  0
 18 19  2  0
 18 20  1  0
 20 21  1  0
 21 22  1  1
 22 23  1  0
 23 24  1  0
 24 25  1  0
 25 26  1  1
 25 27  1  0
M  END
