
     RDKit          3D

 27 30  0  0  0  0  0  0  0  0999 V2000
   -5.0910    0.9890   -2.2460 C   0  0  0  0  0  0  0  0  0  0  0  0
   -3.9770    1.0420   -1.3460 N   0  0  0  0  0  0  0  0  0  0  0  0
   -2.6540    0.5810   -1.5960 C   0  0  0  0  0  0  0  0  0  0  0  0
   -2.1280    0.2710   -2.6940 O   0  0  0  0  0  0  0  0  0  0  0  0
   -2.0310    0.5510   -0.2230 C   0  0  2  0  0  0  0  0  0  0  0  0
   -0.5670    0.5880   -0.2950 C   0  0  0  0  0  0  0  0  0  0  0  0
    0.1810   -0.3230    0.3060 C   0  0  0  0  0  0  0  0  0  0  0  0
    1.6220   -0.2610    0.2170 C   0  0  0  0  0  0  0  0  0  0  0  0
    2.2750    0.6910   -0.4150 C   0  0  0  0  0  0  0  0  0  0  0  0
    3.7380    0.6400   -0.4310 C   0  0  0  0  0  0  0  0  0  0  0  0
    4.3990    1.5880   -1.0610 C   0  0  0  0  0  0  0  0  0  0  0  0
    5.8730    1.5780   -1.1040 C   0  0  0  0  0  0  0  0  0  0  0  0
    6.5370    0.6070   -0.5040 C   0  0  0  0  0  0  0  0  0  0  0  0
    5.8570   -0.4820    0.2160 C   0  0  0  0  0  0  0  0  0  0  0  0
    4.4530   -0.3660    0.1890 O   0  0  0  0  0  0  0  0  0  0  0  0
    2.3220   -1.2890    0.8540 O   0  0  0  0  0  0  0  0  0  0  0  0
    1.6770   -2.5710    0.9250 C   0  0  0  0  0  0  0  0  0  0  0  0
    0.4170   -2.3530    1.6890 C   0  0  0  0  0  0  0  0  0  0  0  0
   -0.4100   -1.3990    1.0220 N   0  0  0  0  0  0  0  0  0  0  0  0
   -1.8320   -1.4690    1.0710 C   0  0  0  0  0  0  0  0  0  0  0  0
   -2.2980   -2.4450    1.7210 O   0  0  0  0  0  0  0  0  0  0  0  0
   -2.5770   -0.5260    0.4440 O   0  0  0  0  0  0  0  0  0  0  0  0
   -2.5790    1.7170    0.3140 O   0  0  0  0  0  0  0  0  0  0  0  0
   -3.9350    1.5720    0.0130 C   0  0  2  0  0  0  0  0  0  0  0  0
   -4.6860    0.4310    1.2430 P   0  0  0  0  0  0  0  0  0  0  0  0
   -6.4010    0.4190    1.1940 O   0  0  0  0  0  0  0  0  0  0  0  0
   -4.0510    0.6680    2.8250 O   0  0  0  0  0  0  0  0  0  0  0  0
  1  2  1  0
  2  3  1  0
  2 24  1  0
  3  4  2  0
  3  5  1  0
  5  6  1  0
  5 22  1  1
  5 23  1  0
  6  7  2  0
  7  8  1  0
  7 19  1  0
  8  9  2  3
  8 16  1  0
  9 10  1  0
 10 11  2  0
 10 15  1  0
 11 12  1  0
 12 13  2  0
 13 14  1  0
 14 15  1  0
 16 17  1  0
 17 18  1  0
 18 19  1  0
 19 20  1  0
 20 21  2  0
 20 22  1  0
 23 24  1  0
 24 25  1  1
 25 26  1  0
 25 27  1  0
M  END
