
     RDKit          3D

 28 29  0  0  0  0  0  0  0  0999 V2000
   -3.2850    3.4370   -0.0140 C   0  0  0  0  0  0  0  0  0  0  0  0
   -3.5030    2.3380    1.0400 C   0  0  1  0  0  0  0  0  0  0  0  0
   -4.4200    1.2420    0.5220 C   0  0  0  0  0  0  0  0  0  0  0  0
   -4.2740    0.9910   -0.9550 C   0  0  0  0  0  0  0  0  0  0  0  0
   -4.6570    2.0880   -1.5580 O   0  0  0  0  0  0  0  0  0  0  0  0
   -3.8680   -0.0320   -1.6610 O   0  0  0  0  0  0  0  0  0  0  0  0
   -3.4160   -1.2720   -1.8120 C   0  0  0  0  0  0  0  0  0  0  0  0
   -4.0410   -2.0040   -2.7250 O   0  0  0  0  0  0  0  0  0  0  0  0
   -2.4070   -2.0540   -1.2380 N   0  0  0  0  0  0  0  0  0  0  0  0
   -0.9610   -1.9640   -1.1510 C   0  0  0  0  0  0  0  0  0  0  0  0
   -0.6050   -1.9310    0.3260 C   0  0  2  0  0  0  0  0  0  0  0  0
   -0.8880   -3.2930    0.9090 C   0  0  0  0  0  0  0  0  0  0  0  0
   -1.6830   -0.9230    0.7770 C   0  0  0  0  0  0  0  0  0  0  0  0
   -1.0950    0.3440    0.2160 C   0  0  0  0  0  0  0  0  0  0  0  0
   -0.4540    0.8060    1.4890 N   0  0  0  0  0  0  0  0  0  0  0  0
    0.5740   -0.1360    1.7490 C   0  0  0  0  0  0  0  0  0  0  0  0
    0.6510   -1.3080    0.7550 C   0  0  2  0  0  0  0  0  0  0  0  0
    1.5870   -1.0840   -0.2450 O   0  0  0  0  0  0  0  0  0  0  0  0
    2.7230   -1.8310   -0.1890 C   0  0  0  0  0  0  0  0  0  0  0  0
    3.5980   -1.4290   -1.3630 C   0  0  0  0  0  0  0  0  0  0  0  0
    3.9540    0.0410   -1.3010 C   0  0  0  0  0  0  0  0  0  0  0  0
    4.7140    0.2950    0.0070 C   0  0  0  0  0  0  0  0  0  0  0  0
    5.1590    2.0820    0.1060 P   0  0  0  0  0  0  0  0  0  0  0  0
    4.9540    2.8160   -1.4310 O   0  0  0  0  0  0  0  0  0  0  0  0
    6.7790    2.2650    0.6470 O   0  0  0  0  0  0  0  0  0  0  0  0
   -1.1100    1.9250    1.9840 C   0  0  0  0  0  0  0  0  0  0  0  0
   -0.5710    2.9530    2.5910 O   0  0  0  0  0  0  0  0  0  0  0  0
   -2.5010    2.0720    1.8780 O   0  0  0  0  0  0  0  0  0  0  0  0
  2  1  1  6
  2  3  1  0
  2 28  1  0
  3  4  1  0
  4  5  2  0
  4  6  1  0
  6  7  1  0
  7  8  2  0
  7  9  1  0
  9 10  1  0
 10 11  1  0
 11 12  1  1
 11 13  1  0
 11 17  1  0
 13 14  1  0
 14 15  1  0
 15 16  1  0
 15 26  1  0
 16 17  1  0
 17 18  1  6
 18 19  1  0
 19 20  1  0
 20 21  1  0
 21 22  1  0
 22 23  1  0
 23 24  1  0
 23 25  1  0
 26 27  2  0
 26 28  1  0
M  END
