
     RDKit          3D

 28 30  0  0  0  0  0  0  0  0999 V2000
   -6.3520    1.7920   -1.4860 C   0  0  0  0  0  0  0  0  0  0  0  0
   -4.9060    1.4990   -1.3700 C   0  0  0  0  0  0  0  0  0  0  0  0
   -4.1680    1.8940   -2.2560 O   0  0  0  0  0  0  0  0  0  0  0  0
   -4.2820    0.7570   -0.2510 C   0  0  2  0  0  0  0  0  0  0  0  0
   -3.5580   -0.4740   -0.6920 C   0  0  0  0  0  0  0  0  0  0  0  0
   -2.7300   -0.9520    0.5140 C   0  0  1  0  0  0  0  0  0  0  0  0
   -3.1680   -0.2740    1.7940 C   0  0  0  0  0  0  0  0  0  0  0  0
   -4.6480   -0.1780    1.8800 C   0  0  0  0  0  0  0  0  0  0  0  0
   -5.2990   -0.5290    2.8770 O   0  0  0  0  0  0  0  0  0  0  0  0
   -5.2540    0.3510    0.7180 O   0  0  0  0  0  0  0  0  0  0  0  0
   -2.7740   -2.4130    0.6100 C   0  0  0  0  0  0  0  0  0  0  0  0
   -3.7670   -3.1590    0.8880 O   0  0  0  0  0  0  0  0  0  0  0  0
   -1.4840   -2.9140    0.3350 N   0  0  0  0  0  0  0  0  0  0  0  0
   -0.6370   -1.8020    0.0720 C   0  0  0  0  0  0  0  0  0  0  0  0
    0.7260   -1.7360   -0.2510 C   0  0  0  0  0  0  0  0  0  0  0  0
    1.3930   -0.5790   -0.4730 C   0  0  0  0  0  0  0  0  0  0  0  0
    2.7420   -0.5020   -0.7940 O   0  0  0  0  0  0  0  0  0  0  0  0
    3.7420   -0.3960    0.1740 C   0  0  0  0  0  0  0  0  0  0  0  0
    3.3360   -0.3740    1.3650 O   0  0  0  0  0  0  0  0  0  0  0  0
    5.1220   -0.3170   -0.1610 N   0  0  0  0  0  0  0  0  0  0  0  0
    5.5650   -0.3430   -1.5180 C   0  0  0  0  0  0  0  0  0  0  0  0
    6.0710   -0.2090    0.9210 C   0  0  0  0  0  0  0  0  0  0  0  0
    6.4450    1.5140    1.4070 P   0  0  0  0  0  0  0  0  0  0  0  0
    5.0710    2.4850    1.6870 O   0  0  0  0  0  0  0  0  0  0  0  0
    7.6740    2.2610    0.4980 O   0  0  0  0  0  0  0  0  0  0  0  0
    0.6720    0.5920   -0.3700 C   0  0  0  0  0  0  0  0  0  0  0  0
   -0.6650    0.5730   -0.0560 C   0  0  0  0  0  0  0  0  0  0  0  0
   -1.3300   -0.6300    0.1680 C   0  0  0  0  0  0  0  0  0  0  0  0
  1  2  1  0
  2  3  2  0
  4  2  1  6
  4  5  1  0
  4 10  1  0
  6  5  1  6
  6  7  1  0
  6 11  1  0
  6 28  1  0
  7  8  1  0
  8  9  2  0
  8 10  1  0
 11 12  2  0
 11 13  1  0
 13 14  1  0
 14 15  2  0
 14 28  1  0
 15 16  1  0
 16 17  1  0
 16 26  2  0
 17 18  1  0
 18 19  2  0
 18 20  1  0
 20 21  1  0
 20 22  1  0
 22 23  1  0
 23 24  1  0
 23 25  1  0
 26 27  1  0
 27 28  2  0
M  END
