
     RDKit          3D

 16 16  0  0  0  0  0  0  0  0999 V2000
    0.1560   -2.0380   -0.9890 O   0  0  0  0  0  0  0  0  0  0  0  0
    0.7820   -1.0140   -0.6540 C   0  0  0  0  0  0  0  0  0  0  0  0
    0.0080    0.0540   -0.2380 O   0  0  0  0  0  0  0  0  0  0  0  0
   -1.3790    0.0570   -0.1720 C   0  0  2  0  0  0  0  0  0  0  0  0
   -2.0580    1.0410   -1.0150 C   0  0  0  0  0  0  0  0  0  0  0  0
   -1.4890    1.6720   -1.8510 O   0  0  0  0  0  0  0  0  0  0  0  0
   -3.4980    1.2440   -0.8090 C   0  0  0  0  0  0  0  0  0  0  0  0
   -3.7430    1.6200    0.4990 O   0  0  0  0  0  0  0  0  0  0  0  0
   -2.8160    1.2680    1.3590 O   0  0  0  0  0  0  0  0  0  0  0  0
   -1.9300    0.2090    1.1980 C   0  0  0  0  0  0  0  0  0  0  0  0
   -1.6060   -0.5720    2.1270 O   0  0  0  0  0  0  0  0  0  0  0  0
    2.2720   -0.9140   -0.6880 C   0  0  2  0  0  0  0  0  0  0  0  0
    2.8410   -2.1030   -1.1380 O   0  0  0  0  0  0  0  0  0  0  0  0
    2.7850   -0.5760    0.7160 C   0  0  0  0  0  0  0  0  0  0  0  0
    2.1750    0.6270    1.1060 O   0  0  0  0  0  0  0  0  0  0  0  0
    2.5630    0.9880    2.3040 O   0  0  0  0  0  0  0  0  0  0  0  0
  1  2  2  0
  2  3  1  0
  2 12  1  0
  4  3  1  1
  4  5  1  0
  4 10  1  0
  5  6  2  0
  5  7  1  0
  7  8  1  0
  8  9  1  0
  9 10  1  0
 10 11  2  0
 12 13  1  1
 12 14  1  0
 14 15  1  0
 15 16  1  0
M  END
