
     RDKit          3D

 25 25  0  0  0  0  0  0  0  0999 V2000
   -5.8090    2.9230    0.9010 C   0  0  0  0  0  0  0  0  0  0  0  0
   -4.7490    2.3310    0.2190 O   0  0  0  0  0  0  0  0  0  0  0  0
   -3.6600    1.7220    0.8150 C   0  0  0  0  0  0  0  0  0  0  0  0
   -3.5990    1.6870    2.0590 O   0  0  0  0  0  0  0  0  0  0  0  0
   -2.6270    1.1460   -0.0850 C   0  0  1  0  0  0  0  0  0  0  0  0
   -1.9820    2.2020   -0.9610 C   0  0  0  0  0  0  0  0  0  0  0  0
   -1.0630    1.5810   -1.7800 O   0  0  0  0  0  0  0  0  0  0  0  0
   -1.0290    0.2130   -1.6670 C   0  0  0  0  0  0  0  0  0  0  0  0
   -0.8950   -0.2620   -0.2380 C   0  0  1  0  0  0  0  0  0  0  0  0
   -1.5160   -1.6450   -0.1010 C   0  0  0  0  0  0  0  0  0  0  0  0
   -0.9160   -2.5660   -0.9390 O   0  0  0  0  0  0  0  0  0  0  0  0
   -1.7080   -4.0910   -0.6900 P   0  0  0  0  0  0  0  0  0  0  0  0
   -3.0750   -3.9170    0.3950 O   0  0  0  0  0  0  0  0  0  0  0  0
   -0.5740   -5.1650    0.0670 O   0  0  0  0  0  0  0  0  0  0  0  0
    0.5430   -0.3480    0.0820 C   0  0  0  0  0  0  0  0  0  0  0  0
    0.9950    0.2820    1.0590 O   0  0  0  0  0  0  0  0  0  0  0  0
    1.3960   -1.1140   -0.6800 O   0  0  0  0  0  0  0  0  0  0  0  0
    2.7830   -1.2390   -0.4250 C   0  0  0  0  0  0  0  0  0  0  0  0
    3.3780    0.0190   -0.4980 O   0  0  0  0  0  0  0  0  0  0  0  0
    5.0670   -0.0290   -0.2020 P   0  0  0  0  0  0  0  0  0  0  0  0
    5.6240   -1.5650    0.3280 O   0  0  0  0  0  0  0  0  0  0  0  0
    5.5160    1.3300    0.9770 C   0  0  0  0  0  0  0  0  0  0  0  0
    6.9020    1.4410    1.0880 O   0  0  0  0  0  0  0  0  0  0  0  0
    7.1420    2.4280    1.9440 O   0  0  0  0  0  0  0  0  0  0  0  0
   -1.5840    0.5620    0.6500 O   0  0  0  0  0  0  0  0  0  0  0  0
  1  2  1  0
  2  3  1  0
  3  4  2  0
  5  3  1  1
  5  6  1  0
  5 25  1  0
  6  7  1  0
  7  8  1  0
  8  9  1  0
  9 10  1  6
  9 15  1  0
  9 25  1  0
 10 11  1  0
 11 12  1  0
 12 13  1  0
 12 14  1  0
 15 16  2  0
 15 17  1  0
 17 18  1  0
 18 19  1  0
 19 20  1  0
 20 21  1  0
 20 22  1  0
 22 23  1  0
 23 24  1  0
M  END
