
     RDKit          3D

 24 25  0  0  0  0  0  0  0  0999 V2000
   -0.6010    2.7890    0.2410 O   0  0  0  0  0  0  0  0  0  0  0  0
   -0.9750    1.9470    0.9300 C   0  0  0  0  0  0  0  0  0  0  0  0
   -2.1520    1.7270    1.7320 C   0  0  0  0  0  0  0  0  0  0  0  0
   -2.5820    0.4470    1.9600 O   0  0  0  0  0  0  0  0  0  0  0  0
   -3.1430   -0.2090    0.9220 C   0  0  2  0  0  0  0  0  0  0  0  0
   -4.6710    0.6430    0.2750 P   0  0  0  0  0  0  0  0  0  0  0  0
   -4.2980    2.1650   -0.4840 O   0  0  0  0  0  0  0  0  0  0  0  0
   -5.3050   -0.3630   -1.0240 O   0  0  0  0  0  0  0  0  0  0  0  0
   -3.6390   -1.6010    1.3880 C   0  0  0  0  0  0  0  0  0  0  0  0
   -3.7680   -2.2520    0.1780 O   0  0  0  0  0  0  0  0  0  0  0  0
   -3.2090   -1.5890   -0.7850 O   0  0  0  0  0  0  0  0  0  0  0  0
   -2.2810   -0.7260   -0.1880 C   0  0  0  0  0  0  0  0  0  0  0  0
    0.1270    0.6120    1.0590 N   0  0  0  0  0  0  0  0  0  0  0  0
    1.0600    1.1000    0.1780 C   0  0  0  0  0  0  0  0  0  0  0  0
    1.2480    2.0490   -0.5310 O   0  0  0  0  0  0  0  0  0  0  0  0
    2.1920    0.0930    0.1130 N   0  0  0  0  0  0  0  0  0  0  0  0
    3.3190    0.3250   -0.7160 C   0  0  2  0  0  0  0  0  0  0  0  0
    3.4180   -0.7830   -1.7320 C   0  0  0  0  0  0  0  0  0  0  0  0
    4.6610   -1.1770   -2.0780 O   0  0  0  0  0  0  0  0  0  0  0  0
    5.8460    0.1110   -2.0790 P   0  0  0  0  0  0  0  0  0  0  0  0
    7.4330   -0.6420   -2.1060 O   0  0  0  0  0  0  0  0  0  0  0  0
    5.6850    0.7710   -0.4210 O   0  0  0  0  0  0  0  0  0  0  0  0
    4.5040    0.4280    0.1800 C   0  0  0  0  0  0  0  0  0  0  0  0
    4.4220    0.2130    1.4100 O   0  0  0  0  0  0  0  0  0  0  0  0
  1  2  2  0
  2  3  1  0
  2 13  1  0
  3  4  1  0
  5  4  1  1
  5  6  1  0
  5  9  1  0
  5 12  1  0
  6  7  1  0
  6  8  1  0
  9 10  1  0
 10 11  1  0
 11 12  1  0
 13 14  1  0
 14 15  2  0
 14 16  1  0
 17 16  1  1
 17 18  1  0
 17 23  1  0
 18 19  1  0
 19 20  1  0
 20 21  1  0
 20 22  1  0
 22 23  1  0
 23 24  2  0
M  END
