
     RDKit          3D

 25 25  0  0  0  0  0  0  0  0999 V2000
   -2.0270    1.0520   -2.9850 O   0  0  0  0  0  0  0  0  0  0  0  0
   -1.5680    0.9090   -1.7980 C   0  0  0  0  0  0  0  0  0  0  0  0
   -2.4400    1.3980   -0.7810 N   0  0  0  0  0  0  0  0  0  0  0  0
   -2.2130    1.1470    0.6170 C   0  0  0  0  0  0  0  0  0  0  0  0
   -2.6800    1.9860    1.4230 O   0  0  0  0  0  0  0  0  0  0  0  0
   -1.4950    0.0090    1.1920 C   0  0  1  0  0  0  0  0  0  0  0  0
   -2.4930   -1.1780    1.0070 C   0  0  0  0  0  0  0  0  0  0  0  0
   -2.6980   -1.2610   -0.3520 O   0  0  0  0  0  0  0  0  0  0  0  0
   -3.7950   -2.4800   -0.8650 P   0  0  0  0  0  0  0  0  0  0  0  0
   -4.6920   -1.9780   -2.2740 O   0  0  0  0  0  0  0  0  0  0  0  0
   -4.8130   -3.0590    0.3910 O   0  0  0  0  0  0  0  0  0  0  0  0
   -0.1900   -0.3740    0.6710 C   0  0  0  0  0  0  0  0  0  0  0  0
    0.4470    0.4220   -0.4300 C   0  0  1  0  0  0  0  0  0  0  0  0
    0.4480    1.8440   -0.0520 C   0  0  0  0  0  0  0  0  0  0  0  0
   -0.1350    2.6980   -0.8190 O   0  0  0  0  0  0  0  0  0  0  0  0
    1.0230    2.3590    1.0660 O   0  0  0  0  0  0  0  0  0  0  0  0
    1.8230   -0.0150   -0.7100 C   0  0  0  0  0  0  0  0  0  0  0  0
    2.0850   -0.4930   -1.8810 O   0  0  0  0  0  0  0  0  0  0  0  0
    2.9360    0.0390    0.2000 C   0  0  0  0  0  0  0  0  0  0  0  0
    2.8350    0.5190    1.3520 O   0  0  0  0  0  0  0  0  0  0  0  0
    4.2380   -0.4640   -0.1790 N   0  0  0  0  0  0  0  0  0  0  0  0
    5.5620   -0.3330    1.0200 P   0  0  0  0  0  0  0  0  0  0  0  0
    6.9300   -1.1990    0.3420 O   0  0  0  0  0  0  0  0  0  0  0  0
    5.9880    1.3420    1.2740 O   0  0  0  0  0  0  0  0  0  0  0  0
   -0.3140    0.3100   -1.6590 O   0  0  0  0  0  0  0  0  0  0  0  0
  1  2  2  0
  2  3  1  0
  2 25  1  0
  3  4  1  0
  4  5  2  0
  4  6  1  0
  6  7  1  6
  6 12  1  0
  7  8  1  0
  8  9  1  0
  9 10  1  0
  9 11  1  0
 12 13  1  0
 13 14  1  1
 13 17  1  0
 13 25  1  0
 14 15  2  0
 14 16  1  0
 17 18  2  0
 17 19  1  0
 19 20  2  0
 19 21  1  0
 21 22  1  0
 22 23  1  0
 22 24  1  0
M  END
