
     RDKit          3D

  9  8  0  0  0  0  0  0  0  0999 V2000
   -2.8760    0.4730   -0.4270 C   0  0  0  0  0  0  0  0  0  0  0  0
   -2.0410    1.2730    0.3440 O   0  0  0  0  0  0  0  0  0  0  0  0
   -0.5890    0.4280    0.7570 P   0  0  0  0  0  0  0  0  0  0  0  0
   -0.4890   -1.1070   -0.0530 O   0  0  0  0  0  0  0  0  0  0  0  0
    0.7880    1.3730    0.3350 O   0  0  0  0  0  0  0  0  0  0  0  0
    1.6890    0.6870   -0.3760 O   0  0  0  0  0  0  0  0  0  0  0  0
    2.6620   -0.1110    0.1590 C   0  0  0  0  0  0  0  0  0  0  0  0
    2.7440   -0.2290    1.4100 O   0  0  0  0  0  0  0  0  0  0  0  0
    3.5980   -0.8250   -0.5880 O   0  0  0  0  0  0  0  0  0  0  0  0
  1  2  1  0
  2  3  1  0
  3  4  1  0
  3  5  1  0
  5  6  1  0
  6  7  1  0
  7  8  2  0
  7  9  1  0
M  END
