
     RDKit          3D

 25 25  0  0  0  0  0  0  0  0999 V2000
   -3.6560   -3.2590   -0.6820 C   0  0  0  0  0  0  0  0  0  0  0  0
   -2.7250   -2.2550   -0.2840 O   0  0  0  0  0  0  0  0  0  0  0  0
   -1.4970   -2.1080   -0.8940 C   0  0  0  0  0  0  0  0  0  0  0  0
   -1.2310   -2.9200   -1.8370 O   0  0  0  0  0  0  0  0  0  0  0  0
   -0.5400   -1.1380   -0.5440 N   0  0  0  0  0  0  0  0  0  0  0  0
    0.7560   -0.9580   -1.1610 C   0  0  0  0  0  0  0  0  0  0  0  0
    1.5640   -0.5100    0.0520 C   0  0  2  0  0  0  0  0  0  0  0  0
    2.8350    0.1900   -0.3640 C   0  0  0  0  0  0  0  0  0  0  0  0
    3.6700   -0.6920   -1.0150 O   0  0  0  0  0  0  0  0  0  0  0  0
    5.1360    0.0800   -1.5050 P   0  0  0  0  0  0  0  0  0  0  0  0
    4.7730    1.2000   -2.8000 O   0  0  0  0  0  0  0  0  0  0  0  0
    5.8860    0.9320   -0.1840 O   0  0  0  0  0  0  0  0  0  0  0  0
    1.9360   -1.7180    0.8050 C   0  0  0  0  0  0  0  0  0  0  0  0
    1.4960   -1.9840    1.9490 O   0  0  0  0  0  0  0  0  0  0  0  0
    2.8210   -2.6200    0.2320 O   0  0  0  0  0  0  0  0  0  0  0  0
    0.6870    0.3110    0.7060 O   0  0  0  0  0  0  0  0  0  0  0  0
   -0.6130   -0.1210    0.4790 C   0  0  1  0  0  0  0  0  0  0  0  0
   -1.4990    0.9420    0.0960 N   0  0  0  0  0  0  0  0  0  0  0  0
   -1.5850    2.0230    1.0150 C   0  0  0  0  0  0  0  0  0  0  0  0
   -2.5720    3.0340    0.4390 C   0  0  0  0  0  0  0  0  0  0  0  0
   -2.1060    3.4810   -0.8060 O   0  0  0  0  0  0  0  0  0  0  0  0
   -2.9080    4.3460   -1.3450 O   0  0  0  0  0  0  0  0  0  0  0  0
   -1.2420   -0.8330    2.0750 P   0  0  0  0  0  0  0  0  0  0  0  0
   -0.7610    0.2050    3.3730 O   0  0  0  0  0  0  0  0  0  0  0  0
   -2.9740   -0.8320    2.0050 O   0  0  0  0  0  0  0  0  0  0  0  0
  1  2  1  0
  2  3  1  0
  3  4  2  0
  3  5  1  0
  5  6  1  0
  5 17  1  0
  6  7  1  0
  7  8  1  6
  7 13  1  0
  7 16  1  0
  8  9  1  0
  9 10  1  0
 10 11  1  0
 10 12  1  0
 13 14  2  0
 13 15  1  0
 16 17  1  0
 17 18  1  6
 17 23  1  0
 18 19  1  0
 19 20  1  0
 20 21  1  0
 21 22  1  0
 23 24  1  0
 23 25  1  0
M  END
