
     RDKit          3D

 24 24  0  0  0  0  0  0  0  0999 V2000
   -5.0370   -0.3880   -1.7350 C   0  0  0  0  0  0  0  0  0  0  0  0
   -4.1560    0.3980   -0.7820 C   0  0  2  0  0  0  0  0  0  0  0  0
   -3.1190   -0.4650   -0.3830 O   0  0  0  0  0  0  0  0  0  0  0  0
   -1.8210   -0.1440   -0.6670 C   0  0  0  0  0  0  0  0  0  0  0  0
   -1.5170    0.9100   -1.2810 O   0  0  0  0  0  0  0  0  0  0  0  0
   -0.6640   -1.0220   -0.2690 C   0  0  2  0  0  0  0  0  0  0  0  0
   -1.2070   -2.1260    0.3920 O   0  0  0  0  0  0  0  0  0  0  0  0
    0.2120   -0.2190    0.6260 C   0  0  0  0  0  0  0  0  0  0  0  0
    1.5630   -0.0400    0.1750 N   0  0  0  0  0  0  0  0  0  0  0  0
    2.3660    0.9670    0.8570 C   0  0  0  0  0  0  0  0  0  0  0  0
    3.2110    0.1030    2.2740 P   0  0  0  0  0  0  0  0  0  0  0  0
    3.8840   -1.3910    1.7640 O   0  0  0  0  0  0  0  0  0  0  0  0
    4.4140    1.1200    2.9510 O   0  0  0  0  0  0  0  0  0  0  0  0
    5.7430    1.3680    1.8990 P   0  0  0  0  0  0  0  0  0  0  0  0
    5.6360    2.8140    0.9820 O   0  0  0  0  0  0  0  0  0  0  0  0
    6.1680   -0.0090    0.9710 O   0  0  0  0  0  0  0  0  0  0  0  0
    2.1760   -0.7620   -0.8740 C   0  0  0  0  0  0  0  0  0  0  0  0
    3.4120   -0.7370   -1.0340 O   0  0  0  0  0  0  0  0  0  0  0  0
    1.3450   -1.5260   -1.7560 N   0  0  0  0  0  0  0  0  0  0  0  0
   -0.0400   -1.4970   -1.5020 C   0  0  0  0  0  0  0  0  0  0  0  0
   -0.8010   -1.9190   -2.4240 O   0  0  0  0  0  0  0  0  0  0  0  0
   -4.9030    0.8320    0.4130 C   0  0  0  0  0  0  0  0  0  0  0  0
   -4.5580    0.4210    1.5370 O   0  0  0  0  0  0  0  0  0  0  0  0
   -5.9930    1.6940    0.3470 O   0  0  0  0  0  0  0  0  0  0  0  0
  2  1  1  6
  2  3  1  0
  2 22  1  0
  3  4  1  0
  4  5  2  0
  4  6  1  0
  6  7  1  1
  6  8  1  0
  6 20  1  0
  8  9  1  0
  9 10  1  0
  9 17  1  0
 10 11  1  0
 11 12  1  0
 11 13  1  0
 13 14  1  0
 14 15  1  0
 14 16  1  0
 17 18  2  0
 17 19  1  0
 19 20  1  0
 20 21  2  0
 22 23  2  0
 22 24  1  0
M  END
