
     RDKit          3D

 24 24  0  0  0  0  0  0  0  0999 V2000
   -7.8450    0.6860    1.4830 O   0  0  0  0  0  0  0  0  0  0  0  0
   -7.0110    0.5600    0.5100 C   0  0  0  0  0  0  0  0  0  0  0  0
   -7.2270    1.4290   -0.5650 O   0  0  0  0  0  0  0  0  0  0  0  0
   -5.9440   -0.4490    0.5650 C   0  0  0  0  0  0  0  0  0  0  0  0
   -4.8260    0.0540   -0.3230 C   0  0  2  0  0  0  0  0  0  0  0  0
   -3.7750   -0.8550   -0.2870 O   0  0  0  0  0  0  0  0  0  0  0  0
   -2.6440   -0.0470   -0.5020 C   0  0  2  0  0  0  0  0  0  0  0  0
   -1.4690   -0.7850    0.0130 C   0  0  0  0  0  0  0  0  0  0  0  0
   -1.2220   -1.8370    0.3260 O   0  0  0  0  0  0  0  0  0  0  0  0
   -0.1630    0.3590    0.1700 N   0  0  0  0  0  0  0  0  0  0  0  0
    0.8420   -0.5180    0.0540 C   0  0  0  0  0  0  0  0  0  0  0  0
    1.1860   -1.5650   -0.4760 O   0  0  0  0  0  0  0  0  0  0  0  0
    2.0890   -0.0140    0.9250 N   0  0  0  0  0  0  0  0  0  0  0  0
    3.1880   -0.8270    0.5130 C   0  0  0  0  0  0  0  0  0  0  0  0
    3.5860   -0.3760   -0.9310 C   0  0  0  0  0  0  0  0  0  0  0  0
    4.5120   -1.2410   -1.4070 O   0  0  0  0  0  0  0  0  0  0  0  0
    6.0620   -1.2310   -0.7310 P   0  0  0  0  0  0  0  0  0  0  0  0
    6.1580   -2.7430    0.2790 O   0  0  0  0  0  0  0  0  0  0  0  0
    6.6090    0.4500    0.5110 P   0  0  0  0  0  0  0  0  0  0  0  0
    8.1310    1.1440    0.1020 O   0  0  0  0  0  0  0  0  0  0  0  0
    5.3640    1.5810    0.6860 O   0  0  0  0  0  0  0  0  0  0  0  0
   -2.8430    1.1900    0.0030 O   0  0  0  0  0  0  0  0  0  0  0  0
   -4.2050    1.2440    0.3910 C   0  0  0  0  0  0  0  0  0  0  0  0
   -4.7840    2.0510    1.1420 O   0  0  0  0  0  0  0  0  0  0  0  0
  1  2  2  0
  2  3  1  0
  2  4  1  0
  5  4  1  1
  5  6  1  0
  5 23  1  0
  6  7  1  0
  7  8  1  1
  7 22  1  0
  8  9  2  0
  8 10  1  0
 10 11  1  0
 11 12  2  0
 11 13  1  0
 13 14  1  0
 14 15  1  0
 15 16  1  0
 16 17  1  0
 17 18  1  0
 17 19  1  0
 19 20  1  0
 19 21  1  0
 22 23  1  0
 23 24  2  0
M  END
