
     RDKit          3D

 24 24  0  0  0  0  0  0  0  0999 V2000
    3.3470   -3.6950   -0.0540 O   0  0  0  0  0  0  0  0  0  0  0  0
    2.8970   -4.0260    1.3900 P   0  0  0  0  0  0  0  0  0  0  0  0
    2.4820   -2.7670    2.5370 O   0  0  0  0  0  0  0  0  0  0  0  0
    2.9920   -1.2660    1.8480 P   0  0  0  0  0  0  0  0  0  0  0  0
    4.7020   -1.1400    1.7130 O   0  0  0  0  0  0  0  0  0  0  0  0
    2.1570   -0.8800    0.4040 O   0  0  0  0  0  0  0  0  0  0  0  0
    2.1000    0.4780    0.1370 C   0  0  1  0  0  0  0  0  0  0  0  0
    2.5790    0.7110   -1.2660 C   0  0  0  0  0  0  0  0  0  0  0  0
    2.5500    2.1190   -1.6250 N   0  0  0  0  0  0  0  0  0  0  0  0
    3.3130    3.0650   -0.8880 C   0  0  0  0  0  0  0  0  0  0  0  0
    4.0350    2.7400    0.0900 O   0  0  0  0  0  0  0  0  0  0  0  0
    3.2910    4.4140   -1.2250 O   0  0  0  0  0  0  0  0  0  0  0  0
    0.6510    0.8700    0.1710 C   0  0  0  0  0  0  0  0  0  0  0  0
    0.3120    2.0690   -0.0420 O   0  0  0  0  0  0  0  0  0  0  0  0
   -0.3570   -0.0480    0.4320 O   0  0  0  0  0  0  0  0  0  0  0  0
   -1.7020    0.2860    0.4700 C   0  0  0  0  0  0  0  0  0  0  0  0
   -2.0010    1.4920    0.2530 O   0  0  0  0  0  0  0  0  0  0  0  0
   -2.7520   -0.7400    0.7560 C   0  0  1  0  0  0  0  0  0  0  0  0
   -4.0460   -0.1050    0.7300 N   0  0  0  0  0  0  0  0  0  0  0  0
   -4.6200   -0.1330   -0.6000 C   0  0  0  0  0  0  0  0  0  0  0  0
   -5.0760   -1.5670   -0.8570 C   0  0  0  0  0  0  0  0  0  0  0  0
   -3.9250   -2.3780   -0.7140 O   0  0  0  0  0  0  0  0  0  0  0  0
   -2.7230   -1.8540   -0.2070 C   0  0  0  0  0  0  0  0  0  0  0  0
   -1.6040   -2.3130   -0.5530 O   0  0  0  0  0  0  0  0  0  0  0  0
  1  2  2  0
  2  3  1  0
  3  4  1  0
  4  5  1  0
  4  6  1  0
  6  7  1  0
  7  8  1  6
  7 13  1  0
  8  9  1  0
  9 10  1  0
 10 11  2  0
 10 12  1  0
 13 14  2  0
 13 15  1  0
 15 16  1  0
 16 17  2  0
 18 16  1  6
 18 19  1  0
 18 23  1  0
 19 20  1  0
 20 21  1  0
 21 22  1  0
 22 23  1  0
 23 24  2  0
M  END
