
     RDKit          3D

  8  7  0  0  0  0  0  0  0  0999 V2000
   -4.1440    0.3700   -0.3040 O   0  0  0  0  0  0  0  0  0  0  0  0
   -3.1320   -0.6580   -0.8610 P   0  0  0  0  0  0  0  0  0  0  0  0
   -1.5860   -0.1100   -1.3690 O   0  0  0  0  0  0  0  0  0  0  0  0
   -0.6070   -0.3080   -0.3660 C   0  0  0  0  0  0  0  0  0  0  0  0
    0.5890    0.1760   -0.9050 O   0  0  0  0  0  0  0  0  0  0  0  0
    1.8040    0.1890   -0.2860 C   0  0  0  0  0  0  0  0  0  0  0  0
    1.8860   -0.2730    0.8810 O   0  0  0  0  0  0  0  0  0  0  0  0
    2.9210    0.6860   -0.9000 O   0  0  0  0  0  0  0  0  0  0  0  0
  1  2  2  0
  2  3  1  0
  3  4  1  0
  4  5  1  0
  5  6  1  0
  6  7  2  0
  6  8  1  0
M  END
