
     RDKit          3D

 24 24  0  0  0  0  0  0  0  0999 V2000
   -7.0480    1.0720    1.7080 O   0  0  0  0  0  0  0  0  0  0  0  0
   -6.6630    2.0340    1.0070 C   0  0  0  0  0  0  0  0  0  0  0  0
   -6.6050    1.9440   -0.3440 O   0  0  0  0  0  0  0  0  0  0  0  0
   -6.9330    0.8410   -1.0920 C   0  0  0  0  0  0  0  0  0  0  0  0
   -6.0370   -0.3160   -0.8380 C   0  0  2  0  0  0  0  0  0  0  0  0
   -6.0050   -0.8290    0.4510 O   0  0  0  0  0  0  0  0  0  0  0  0
   -4.7020   -1.2890    0.7080 C   0  0  0  0  0  0  0  0  0  0  0  0
   -3.8950   -0.7630   -0.1890 C   0  0  0  0  0  0  0  0  0  0  0  0
   -2.4330   -0.9910   -0.2760 C   0  0  0  0  0  0  0  0  0  0  0  0
   -1.8440   -1.7370    0.5390 O   0  0  0  0  0  0  0  0  0  0  0  0
   -1.6740   -0.3850   -1.2630 O   0  0  0  0  0  0  0  0  0  0  0  0
   -0.3180   -0.5900   -1.3510 N   0  0  0  0  0  0  0  0  0  0  0  0
    0.5420   -0.3550   -0.2630 C   0  0  0  0  0  0  0  0  0  0  0  0
    0.0710    0.0520    0.8150 O   0  0  0  0  0  0  0  0  0  0  0  0
    1.9530   -0.5740   -0.3760 N   0  0  0  0  0  0  0  0  0  0  0  0
    2.8320   -0.3300    0.7470 C   0  0  0  0  0  0  0  0  0  0  0  0
    4.2530   -0.6450    0.3370 C   0  0  0  0  0  0  0  0  0  0  0  0
    5.0760   -0.4070    1.4170 O   0  0  0  0  0  0  0  0  0  0  0  0
    6.7120   -0.7630    0.9720 P   0  0  0  0  0  0  0  0  0  0  0  0
    6.7380   -1.5360   -0.6040 O   0  0  0  0  0  0  0  0  0  0  0  0
    7.8240    1.1360    0.9020 P   0  0  0  0  0  0  0  0  0  0  0  0
    6.9280    2.3760    1.7140 O   0  0  0  0  0  0  0  0  0  0  0  0
    7.9650    1.6050   -0.7640 O   0  0  0  0  0  0  0  0  0  0  0  0
   -4.6560    0.0330   -1.0230 O   0  0  0  0  0  0  0  0  0  0  0  0
  1  2  2  0
  2  3  1  0
  3  4  1  0
  5  4  1  1
  5  6  1  0
  5 24  1  0
  6  7  1  0
  7  8  2  0
  8  9  1  0
  8 24  1  0
  9 10  2  0
  9 11  1  0
 11 12  1  0
 12 13  1  0
 13 14  2  0
 13 15  1  0
 15 16  1  0
 16 17  1  0
 17 18  1  0
 18 19  1  0
 19 20  1  0
 19 21  1  0
 21 22  1  0
 21 23  1  0
M  END
