
     RDKit          3D

  8  8  0  0  0  0  0  0  0  0999 V2000
    2.7100    0.9190    0.3010 O   0  0  0  0  0  0  0  0  0  0  0  0
    1.9870   -0.0670    0.0070 C   0  0  0  0  0  0  0  0  0  0  0  0
    2.5030   -1.2990   -0.3440 O   0  0  0  0  0  0  0  0  0  0  0  0
    0.5380    0.0970    0.0380 C   0  0  0  0  0  0  0  0  0  0  0  0
   -0.3000   -0.8830   -0.2550 C   0  0  0  0  0  0  0  0  0  0  0  0
   -1.6620   -0.3100   -0.1040 C   0  0  0  0  0  0  0  0  0  0  0  0
   -1.4220    1.0610    0.2950 N   0  0  0  0  0  0  0  0  0  0  0  0
   -0.1790    1.3140    0.3820 C   0  0  0  0  0  0  0  0  0  0  0  0
  1  2  2  0
  2  3  1  0
  2  4  1  0
  4  5  2  0
  4  8  1  0
  5  6  1  0
  6  7  1  0
  7  8  2  0
M  CHG  1   3  -1
M  END
