
     RDKit          3D

  8  8  0  0  0  0  0  0  0  0999 V2000
    1.8240    0.2510   -2.2400 O   0  0  0  0  0  0  0  0  0  0  0  0
    1.6650   -0.0930   -0.8990 C   0  0  0  0  0  0  0  0  0  0  0  0
    2.7180   -0.4940   -0.0950 O   0  0  0  0  0  0  0  0  0  0  0  0
    0.4520   -0.0320   -0.3690 C   0  0  0  0  0  0  0  0  0  0  0  0
   -0.7880    0.3590   -1.0220 C   0  0  0  0  0  0  0  0  0  0  0  0
   -1.7990    0.3000   -0.1860 C   0  0  0  0  0  0  0  0  0  0  0  0
   -1.2980   -0.1460    1.1200 C   0  0  0  0  0  0  0  0  0  0  0  0
    0.1080   -0.3420    0.9650 N   0  0  0  0  0  0  0  0  0  0  0  0
  1  2  1  0
  2  3  1  0
  2  4  2  3
  4  5  1  0
  4  8  1  0
  5  6  2  0
  6  7  1  0
  7  8  1  0
M  CHG  1   1  -1
M  END
