
     RDKit          3D

  8  8  0  0  0  0  0  0  0  0999 V2000
    2.7040    0.9830    0.6490 O   0  0  0  0  0  0  0  0  0  0  0  0
    1.4180    0.5080    0.3090 C   0  0  0  0  0  0  0  0  0  0  0  0
    0.4360    1.3560    0.0690 C   0  0  0  0  0  0  0  0  0  0  0  0
   -0.8620    0.7940   -0.2760 C   0  0  0  0  0  0  0  0  0  0  0  0
   -1.9610    1.6370   -0.5460 O   0  0  0  0  0  0  0  0  0  0  0  0
   -1.0230   -0.5110   -0.3380 C   0  0  0  0  0  0  0  0  0  0  0  0
    0.0150   -1.5220   -0.0850 C   0  0  0  0  0  0  0  0  0  0  0  0
    1.2620   -0.8930    0.2460 N   0  0  0  0  0  0  0  0  0  0  0  0
  1  2  1  0
  2  3  2  0
  2  8  1  0
  3  4  1  0
  4  5  1  0
  4  6  2  0
  6  7  1  0
  7  8  1  0
M  CHG  1   1  -1
M  END
