
     RDKit          3D

 22 22  0  0  0  0  0  0  0  0999 V2000
   -0.6820   -2.8250   -0.0490 O   0  0  0  0  0  0  0  0  0  0  0  0
   -1.0120   -2.1820   -1.0770 C   0  0  0  0  0  0  0  0  0  0  0  0
   -1.1550   -2.9080   -2.2440 O   0  0  0  0  0  0  0  0  0  0  0  0
   -1.2470   -0.7250   -1.0900 C   0  0  2  0  0  0  0  0  0  0  0  0
   -1.5860   -0.3690   -2.3990 O   0  0  0  0  0  0  0  0  0  0  0  0
   -0.0190    0.0630   -0.7560 C   0  0  0  0  0  0  0  0  0  0  0  0
    0.3500    0.1910    0.6640 C   0  0  2  0  0  0  0  0  0  0  0  0
    1.4310   -0.5960    1.0270 O   0  0  0  0  0  0  0  0  0  0  0  0
    2.5560    0.0420    1.4120 C   0  0  1  0  0  0  0  0  0  0  0  0
    3.0110   -0.2580    2.6850 O   0  0  0  0  0  0  0  0  0  0  0  0
    3.5570   -0.2780    0.4680 O   0  0  0  0  0  0  0  0  0  0  0  0
    4.0150    0.8630   -0.1800 C   0  0  0  0  0  0  0  0  0  0  0  0
    5.0760    0.4160   -1.1630 C   0  0  0  0  0  0  0  0  0  0  0  0
    6.1380   -0.2180   -0.5130 O   0  0  0  0  0  0  0  0  0  0  0  0
   -0.8070    0.0960    1.5800 C   0  0  0  0  0  0  0  0  0  0  0  0
   -2.0430    0.5920    0.8730 C   0  0  2  0  0  0  0  0  0  0  0  0
   -1.7240    1.8150    0.2850 O   0  0  0  0  0  0  0  0  0  0  0  0
   -3.1820    0.8410    1.8240 C   0  0  0  0  0  0  0  0  0  0  0  0
   -3.6150   -0.2800    2.4860 O   0  0  0  0  0  0  0  0  0  0  0  0
   -2.4410   -0.3510   -0.2480 C   0  0  1  0  0  0  0  0  0  0  0  0
   -3.6050    0.1630   -1.0550 C   0  0  0  0  0  0  0  0  0  0  0  0
   -3.3070    1.2970   -1.7880 O   0  0  0  0  0  0  0  0  0  0  0  0
  1  2  2  0
  2  3  1  0
  2  4  1  0
  4  5  1  6
  4  6  1  0
  4 20  1  0
  6  7  1  0
  7  8  1  1
  7 15  1  0
  8  9  1  0
  9 10  1  1
  9 11  1  0
 11 12  1  0
 12 13  1  0
 13 14  1  0
 15 16  1  0
 16 17  1  6
 16 18  1  0
 16 20  1  0
 18 19  1  0
 20 21  1  6
 21 22  1  0
M  END
