
     RDKit          3D

 22 23  0  0  0  0  0  0  0  0999 V2000
    4.8240   -0.8720    1.5050 O   0  0  0  0  0  0  0  0  0  0  0  0
    4.6670    0.1860    0.8610 C   0  0  0  0  0  0  0  0  0  0  0  0
    5.6760    1.0940    0.5890 O   0  0  0  0  0  0  0  0  0  0  0  0
    5.1640    2.1880   -0.1520 C   0  0  0  0  0  0  0  0  0  0  0  0
    3.9780    1.5560   -0.8590 C   0  0  0  0  0  0  0  0  0  0  0  0
    3.4120    0.6870    0.2660 C   0  0  1  0  0  0  0  0  0  0  0  0
    2.5900   -0.2670   -0.2700 O   0  0  0  0  0  0  0  0  0  0  0  0
    1.2740   -0.1010    0.1570 C   0  0  1  0  0  0  0  0  0  0  0  0
    0.5210    0.1500   -0.9620 O   0  0  0  0  0  0  0  0  0  0  0  0
   -0.8270   -0.1220   -0.8470 C   0  0  2  0  0  0  0  0  0  0  0  0
   -1.3220   -0.0050   -2.1490 O   0  0  0  0  0  0  0  0  0  0  0  0
   -1.5490    0.8790    0.0100 C   0  0  0  0  0  0  0  0  0  0  0  0
   -2.8840    0.6800    0.1970 O   0  0  0  0  0  0  0  0  0  0  0  0
   -3.7110    0.6850   -0.8790 C   0  0  0  0  0  0  0  0  0  0  0  0
   -5.1370    0.4710   -0.3580 C   0  0  1  0  0  0  0  0  0  0  0  0
   -6.0550    0.4600   -1.3790 O   0  0  0  0  0  0  0  0  0  0  0  0
   -5.2330   -0.6990    0.3630 O   0  0  0  0  0  0  0  0  0  0  0  0
   -1.1400   -1.4970   -0.3700 C   0  0  1  0  0  0  0  0  0  0  0  0
   -1.8480   -2.2670   -1.2920 O   0  0  0  0  0  0  0  0  0  0  0  0
    0.1630   -2.2420   -0.0510 C   0  0  0  0  0  0  0  0  0  0  0  0
    0.8860   -1.3130    0.9230 C   0  0  1  0  0  0  0  0  0  0  0  0
    1.9600   -2.0120    1.4420 O   0  0  0  0  0  0  0  0  0  0  0  0
  1  2  2  0
  2  3  1  0
  2  6  1  0
  3  4  1  0
  4  5  1  0
  5  6  1  0
  6  7  1  6
  8  7  1  6
  8  9  1  0
  8 21  1  0
  9 10  1  0
 10 11  1  6
 10 12  1  0
 10 18  1  0
 12 13  1  0
 13 14  1  0
 14 15  1  0
 15 16  1  6
 15 17  1  0
 18 19  1  6
 18 20  1  0
 20 21  1  0
 21 22  1  6
M  END
