
     RDKit          3D

 23 23  0  0  0  0  0  0  0  0999 V2000
    2.7290   -0.9990   -0.0420 O   0  0  0  0  0  0  0  0  0  0  0  0
    2.5460    0.2400    0.0630 C   0  0  0  0  0  0  0  0  0  0  0  0
    3.6250    1.0440   -0.1560 O   0  0  0  0  0  0  0  0  0  0  0  0
    4.9230    0.7220   -0.4810 C   0  0  0  0  0  0  0  0  0  0  0  0
    5.7140   -0.1020    0.4590 C   0  0  1  0  0  0  0  0  0  0  0  0
    5.1860   -1.3480    0.7100 O   0  0  0  0  0  0  0  0  0  0  0  0
    6.9670   -0.3330   -0.1620 O   0  0  0  0  0  0  0  0  0  0  0  0
    1.1870    0.6990    0.4110 C   0  0  1  0  0  0  0  0  0  0  0  0
    1.0950    2.0830    0.5020 O   0  0  0  0  0  0  0  0  0  0  0  0
    0.1390    0.2470   -0.5800 C   0  0  0  0  0  0  0  0  0  0  0  0
   -1.1000    0.5080    0.2410 C   0  0  1  0  0  0  0  0  0  0  0  0
   -1.3810    1.8830    0.1150 O   0  0  0  0  0  0  0  0  0  0  0  0
   -2.2780   -0.3130   -0.2200 C   0  0  2  0  0  0  0  0  0  0  0  0
   -3.4430    0.0070    0.6740 C   0  0  0  0  0  0  0  0  0  0  0  0
   -4.6040   -0.6920    0.3790 O   0  0  0  0  0  0  0  0  0  0  0  0
   -2.0220   -1.7720   -0.3140 C   0  0  0  0  0  0  0  0  0  0  0  0
   -1.6550   -2.3750    0.8700 O   0  0  0  0  0  0  0  0  0  0  0  0
   -2.6060    0.2550   -1.6100 C   0  0  0  0  0  0  0  0  0  0  0  0
   -3.7450   -0.4040   -2.2890 C   0  0  0  0  0  0  0  0  0  0  0  0
   -3.8740    0.2370   -3.5510 O   0  0  0  0  0  0  0  0  0  0  0  0
   -0.6330    0.2810    1.6260 C   0  0  2  0  0  0  0  0  0  0  0  0
   -0.8090    1.4170    2.4450 O   0  0  0  0  0  0  0  0  0  0  0  0
    0.7560    0.0940    1.5880 O   0  0  0  0  0  0  0  0  0  0  0  0
  1  2  2  0
  2  3  1  0
  2  8  1  0
  3  4  1  0
  4  5  1  0
  5  6  1  6
  5  7  1  0
  8  9  1  1
  8 10  1  0
  8 23  1  0
 10 11  1  0
 11 12  1  1
 11 13  1  0
 11 21  1  0
 13 14  1  1
 13 16  1  0
 13 18  1  0
 14 15  1  0
 16 17  1  0
 18 19  1  0
 19 20  1  0
 21 22  1  1
 21 23  1  0
M  END
