
     RDKit          3D

 22 22  0  0  0  0  0  0  0  0999 V2000
    6.2070   -0.0790   -1.2710 O   0  0  0  0  0  0  0  0  0  0  0  0
    6.1050    0.7670   -0.3800 C   0  0  0  0  0  0  0  0  0  0  0  0
    7.2840    1.3680    0.0800 O   0  0  0  0  0  0  0  0  0  0  0  0
    4.9100    1.1270    0.1600 O   0  0  0  0  0  0  0  0  0  0  0  0
    3.6330    0.6610   -0.1310 C   0  0  0  0  0  0  0  0  0  0  0  0
    3.4770   -0.7830    0.2430 C   0  0  2  0  0  0  0  0  0  0  0  0
    4.3700   -1.5360   -0.4930 O   0  0  0  0  0  0  0  0  0  0  0  0
    2.1030   -1.2990   -0.0660 C   0  0  1  0  0  0  0  0  0  0  0  0
    2.0580   -2.6580    0.3060 O   0  0  0  0  0  0  0  0  0  0  0  0
    1.0660   -0.6760    0.4930 O   0  0  0  0  0  0  0  0  0  0  0  0
    0.0850   -0.1540   -0.2970 C   0  0  0  0  0  0  0  0  0  0  0  0
   -1.0110    0.5160    0.5040 C   0  0  2  0  0  0  0  0  0  0  0  0
   -0.4280    1.5640    1.2550 O   0  0  0  0  0  0  0  0  0  0  0  0
   -1.6380   -0.4190    1.5010 C   0  0  0  0  0  0  0  0  0  0  0  0
   -2.4490   -1.4900    0.8360 C   0  0  0  0  0  0  0  0  0  0  0  0
   -3.4880   -0.9290   -0.0770 C   0  0  0  0  0  0  0  0  0  0  0  0
   -3.0460    0.1910   -0.9350 C   0  0  1  0  0  0  0  0  0  0  0  0
   -4.2900    1.0030   -1.3250 C   0  0  2  0  0  0  0  0  0  0  0  0
   -5.1950    0.1980   -2.0220 O   0  0  0  0  0  0  0  0  0  0  0  0
   -3.9570    2.0670   -2.1550 O   0  0  0  0  0  0  0  0  0  0  0  0
   -2.0660    1.1270   -0.3440 C   0  0  1  0  0  0  0  0  0  0  0  0
   -2.6940    2.1600    0.3800 O   0  0  0  0  0  0  0  0  0  0  0  0
  1  2  2  0
  2  3  1  0
  2  4  1  0
  4  5  1  0
  5  6  1  0
  6  7  1  6
  6  8  1  0
  8  9  1  1
  8 10  1  0
 10 11  1  0
 11 12  1  0
 12 13  1  1
 12 14  1  0
 12 21  1  0
 14 15  1  0
 15 16  1  0
 17 16  1  1
 17 18  1  0
 17 21  1  0
 18 19  1  6
 18 20  1  0
 21 22  1  1
M  END
