
     RDKit          3D

 34 37  0  0  0  0  0  0  0  0999 V2000
   -1.2810    2.9650   -0.4720 C   0  0  0  0  0  0  0  0  0  0  0  0
   -1.8750    1.8870   -1.3410 C   0  0  0  0  0  0  0  0  0  0  0  0
   -2.1170    0.7390   -0.5150 O   0  0  0  0  0  0  0  0  0  0  0  0
   -2.7150   -0.4010   -1.0810 C   0  0  0  0  0  0  0  0  0  0  0  0
   -2.9880   -0.3190   -2.2790 O   0  0  0  0  0  0  0  0  0  0  0  0
   -2.9790   -1.5580   -0.2450 C   0  0  0  0  0  0  0  0  0  0  0  0
   -3.6130   -2.6430   -0.6600 C   0  0  0  0  0  0  0  0  0  0  0  0
   -4.1130   -2.7990   -2.0420 C   0  0  0  0  0  0  0  0  0  0  0  0
   -5.6480   -2.9300   -1.9850 C   0  0  0  0  0  0  0  0  0  0  0  0
   -3.8830   -3.7480    0.1880 O   0  0  0  0  0  0  0  0  0  0  0  0
   -3.5060   -3.7690    1.5000 C   0  0  0  0  0  0  0  0  0  0  0  0
   -3.7440   -4.7900    2.3400 F   0  0  0  0  0  0  0  0  0  0  0  0
   -2.8530   -2.6860    1.9710 C   0  0  0  0  0  0  0  0  0  0  0  0
   -2.4470   -2.7180    3.3770 C   0  0  0  0  0  0  0  0  0  0  0  0
   -3.1130   -3.2650    4.2630 O   0  0  0  0  0  0  0  0  0  0  0  0
   -1.1890   -2.0520    3.6380 N   0  0  0  0  0  0  0  0  0  0  0  0
   -0.5500   -1.4330    2.5490 C   0  0  0  0  0  0  0  0  0  0  0  0
   -0.9940   -1.3360    1.3150 C   0  0  0  0  0  0  0  0  0  0  0  0
   -0.1500   -0.7230    0.3970 N   0  0  0  0  0  0  0  0  0  0  0  0
    0.8000    0.2220    0.9350 C   0  0  2  0  0  0  0  0  0  0  0  0
    2.0380    0.2080    0.1850 N   0  0  0  0  0  0  0  0  0  0  0  0
    2.6760    1.4540   -0.0710 C   0  0  0  0  0  0  0  0  0  0  0  0
    2.1410    2.5040    0.3650 O   0  0  0  0  0  0  0  0  0  0  0  0
    3.9330    1.5550   -0.8240 C   0  0  2  0  0  0  0  0  0  0  0  0
    5.0870    0.8260   -0.1770 C   0  0  1  0  0  0  0  0  0  0  0  0
    6.2470    1.1770   -0.8890 O   0  0  0  0  0  0  0  0  0  0  0  0
    5.2820    1.2840    1.2450 C   0  0  0  0  0  0  0  0  0  0  0  0
    5.3990    2.6860    1.2460 O   0  0  0  0  0  0  0  0  0  0  0  0
    5.0020    3.5100    0.2020 C   0  0  0  0  0  0  0  0  0  0  0  0
    5.2650    4.7380    0.2850 O   0  0  0  0  0  0  0  0  0  0  0  0
    4.2930    3.0120   -0.9870 C   0  0  2  0  0  0  0  0  0  0  0  0
    3.1200    3.7580   -1.2380 O   0  0  0  0  0  0  0  0  0  0  0  0
    1.0500   -0.6140    2.5610 S   0  0  0  0  0  0  0  0  0  0  0  0
   -2.4920   -1.5820    1.1380 C   0  0  1  0  0  0  0  0  0  0  0  0
  1  2  1  0
  2  3  1  0
  3  4  1  0
  4  5  2  0
  4  6  1  0
  6  7  2  0
 34  6  1  6
  7  8  1  0
  7 10  1  0
  8  9  1  0
 10 11  1  0
 11 12  1  0
 11 13  2  0
 13 14  1  0
 13 34  1  0
 14 15  2  0
 14 16  1  0
 16 17  1  0
 17 18  2  0
 17 33  1  0
 18 19  1  0
 18 34  1  0
 19 20  1  0
 20 21  1  6
 20 33  1  0
 21 22  1  0
 22 23  2  0
 24 22  1  1
 24 25  1  0
 24 31  1  0
 25 26  1  6
 25 27  1  0
 27 28  1  0
 28 29  1  0
 29 30  2  0
 29 31  1  0
 31 32  1  1
M  END
