
     RDKit          3D

 33 35  0  0  0  0  0  0  0  0999 V2000
   -3.8580    1.9890    2.5210 C   0  0  0  0  0  0  0  0  0  0  0  0
   -2.9810    2.2090    1.4310 O   0  0  0  0  0  0  0  0  0  0  0  0
   -3.1380    3.2310    0.5250 C   0  0  0  0  0  0  0  0  0  0  0  0
   -4.0840    4.0230    0.6330 O   0  0  0  0  0  0  0  0  0  0  0  0
   -2.1260    3.3420   -0.5840 C   0  0  0  0  0  0  0  0  0  0  0  0
   -1.1590    2.3430   -0.4990 O   0  0  0  0  0  0  0  0  0  0  0  0
   -1.3740    1.0020   -0.5460 C   0  0  0  0  0  0  0  0  0  0  0  0
   -2.5670    0.6460   -0.6790 O   0  0  0  0  0  0  0  0  0  0  0  0
   -0.3500   -0.0610   -0.4640 C   0  0  0  0  0  0  0  0  0  0  0  0
    0.9370    0.1360   -0.2740 C   0  0  0  0  0  0  0  0  0  0  0  0
    1.7340    1.3250   -0.0700 C   0  0  0  0  0  0  0  0  0  0  0  0
    1.3550    2.2840    0.6870 C   0  0  0  0  0  0  0  0  0  0  0  0
    2.2140    3.4740    0.8440 C   0  0  0  0  0  0  0  0  0  0  0  0
    1.9890    4.5530    1.5770 C   0  0  0  0  0  0  0  0  0  0  0  0
    3.0370    5.4440    1.4570 O   0  0  0  0  0  0  0  0  0  0  0  0
    4.0370    4.8630    0.6310 C   0  0  0  0  0  0  0  0  0  0  0  0
    3.4310    3.6480    0.2250 O   0  0  0  0  0  0  0  0  0  0  0  0
    3.3690    1.2770   -0.8490 S   0  0  0  0  0  0  0  0  0  0  0  0
    4.0100   -0.4150   -0.5270 C   0  0  2  0  0  0  0  0  0  0  0  0
    4.5640   -1.0140   -1.7580 C   0  0  0  0  0  0  0  0  0  0  0  0
    4.5500   -0.3660   -2.8330 O   0  0  0  0  0  0  0  0  0  0  0  0
    5.1130   -2.2840   -1.7940 O   0  0  0  0  0  0  0  0  0  0  0  0
    2.9420   -1.2850    0.1290 C   0  0  1  0  0  0  0  0  0  0  0  0
    2.8790   -1.0100    1.4850 O   0  0  0  0  0  0  0  0  0  0  0  0
    1.6300   -1.1670   -0.5460 C   0  0  1  0  0  0  0  0  0  0  0  0
    0.6760   -2.1300   -0.1650 N   0  0  0  0  0  0  0  0  0  0  0  0
   -0.6050   -1.5040   -0.4180 C   0  0  0  0  0  0  0  0  0  0  0  0
   -1.7590   -2.1010   -0.5800 C   0  0  0  0  0  0  0  0  0  0  0  0
   -1.9700   -3.5390   -0.5270 C   0  0  0  0  0  0  0  0  0  0  0  0
   -0.9410   -4.4890   -0.2960 N   0  0  0  0  0  0  0  0  0  0  0  0
   -3.1890   -4.0140   -0.7060 C   0  0  0  0  0  0  0  0  0  0  0  0
   -4.2960   -3.0670   -0.9540 C   0  0  0  0  0  0  0  0  0  0  0  0
   -3.4480   -5.4220   -0.6630 N   0  0  0  0  0  0  0  0  0  0  0  0
  1  2  1  0
  2  3  1  0
  3  4  2  0
  3  5  1  0
  5  6  1  0
  6  7  1  0
  7  8  2  0
  7  9  1  0
  9 10  2  0
  9 27  1  0
 10 11  1  0
 10 25  1  0
 11 12  2  3
 11 18  1  0
 12 13  1  0
 13 14  2  0
 13 17  1  0
 14 15  1  0
 15 16  1  0
 16 17  1  0
 18 19  1  0
 19 20  1  6
 19 23  1  0
 20 21  2  0
 20 22  1  0
 23 24  1  1
 23 25  1  0
 25 26  1  1
 26 27  1  0
 27 28  2  3
 28 29  1  0
 29 30  1  0
 29 31  2  3
 31 32  1  0
 31 33  1  0
M  END
