
     RDKit          3D

 33 35  0  0  0  0  0  0  0  0999 V2000
    4.9650    3.9450   -1.6660 C   0  0  0  0  0  0  0  0  0  0  0  0
    5.8970    2.8220   -1.2150 C   0  0  0  0  0  0  0  0  0  0  0  0
    5.1890    2.0070   -0.2360 N   0  0  0  0  0  0  0  0  0  0  0  0
    3.9830    1.3340   -0.5400 C   0  0  0  0  0  0  0  0  0  0  0  0
    3.5120    1.4480   -1.6950 O   0  0  0  0  0  0  0  0  0  0  0  0
    3.2480    0.5120    0.4110 C   0  0  0  0  0  0  0  0  0  0  0  0
    3.6500    0.3400    1.6100 O   0  0  0  0  0  0  0  0  0  0  0  0
    2.0690   -0.1360    0.0770 O   0  0  0  0  0  0  0  0  0  0  0  0
    1.3150   -0.9460    0.9570 C   0  0  1  0  0  0  0  0  0  0  0  0
   -0.0630   -0.4200    1.0880 C   0  0  0  0  0  0  0  0  0  0  0  0
   -1.0300   -0.7900    0.0040 C   0  0  2  0  0  0  0  0  0  0  0  0
   -0.8620    0.1430   -1.0520 O   0  0  0  0  0  0  0  0  0  0  0  0
   -2.3710   -0.5770    0.5780 C   0  0  2  0  0  0  0  0  0  0  0  0
   -3.5850   -0.9260   -0.1960 C   0  0  2  0  0  0  0  0  0  0  0  0
   -3.7470   -0.3470   -1.4080 O   0  0  0  0  0  0  0  0  0  0  0  0
   -4.6410   -0.3540    0.6960 C   0  0  0  0  0  0  0  0  0  0  0  0
   -5.9280   -0.4050    1.1830 C   0  0  0  0  0  0  0  0  0  0  0  0
   -6.0960    0.5840    2.0430 O   0  0  0  0  0  0  0  0  0  0  0  0
   -4.9830    1.2780    2.1400 N   0  0  0  0  0  0  0  0  0  0  0  0
   -4.0810    0.7320    1.3340 C   0  0  0  0  0  0  0  0  0  0  0  0
   -2.6380    0.8860    0.8680 C   0  0  2  0  0  0  0  0  0  0  0  0
   -2.6890    1.7340   -0.2610 N   0  0  0  0  0  0  0  0  0  0  0  0
   -1.9000    3.2190   -0.0750 S   0  0  1  0  0  0  0  0  0  0  0  0
   -2.6800    4.1400    1.2610 C   0  0  0  0  0  0  0  0  0  0  0  0
   -0.4420    3.1270    0.1380 O   0  0  0  0  0  0  0  0  0  0  0  0
   -2.2100    4.0410   -1.3270 O   0  0  0  0  0  0  0  0  0  0  0  0
   -0.7930   -2.1330   -0.6090 C   0  0  1  0  0  0  0  0  0  0  0  0
   -1.4250   -2.2650   -1.9800 C   0  0  0  0  0  0  0  0  0  0  0  0
    0.6810   -2.3840   -0.8510 C   0  0  0  0  0  0  0  0  0  0  0  0
    1.3720   -2.3790    0.4630 C   0  0  2  0  0  0  0  0  0  0  0  0
    0.6800   -3.3090    1.4190 C   0  0  0  0  0  0  0  0  0  0  0  0
    2.7100   -2.7310    0.4210 O   0  0  0  0  0  0  0  0  0  0  0  0
    2.9570   -4.0120   -0.0070 C   0  0  0  0  0  0  0  0  0  0  0  0
  1  2  1  0
  2  3  1  0
  3  4  1  0
  4  5  2  0
  4  6  1  0
  6  7  2  0
  6  8  1  0
  9  8  1  6
  9 10  1  0
  9 30  1  0
 10 11  1  0
 11 12  1  6
 11 13  1  0
 11 27  1  0
 13 14  1  6
 13 21  1  0
 14 15  1  6
 14 16  1  0
 16 17  2  0
 16 20  1  0
 17 18  1  0
 18 19  1  0
 19 20  2  0
 20 21  1  0
 21 22  1  6
 22 23  1  0
 23 24  1  1
 23 25  2  0
 23 26  2  0
 27 28  1  6
 27 29  1  0
 29 30  1  0
 30 31  1  1
 30 32  1  0
 32 33  1  0
M  END
