
     RDKit          3D

 37 39  0  0  0  0  0  0  0  0999 V2000
   -4.1870    3.4030    1.2460 C   0  0  0  0  0  0  0  0  0  0  0  0
   -3.5960    3.5160   -0.0000 O   0  0  0  0  0  0  0  0  0  0  0  0
   -2.4000    2.8130   -0.1040 C   0  0  1  0  0  0  0  0  0  0  0  0
   -2.4790    1.7870   -1.1840 C   0  0  0  0  0  0  0  0  0  0  0  0
   -3.4690    0.6880   -0.8990 C   0  0  0  0  0  0  0  0  0  0  0  0
   -3.0800   -0.1710    0.2770 C   0  0  0  0  0  0  0  0  0  0  0  0
   -1.8350   -0.9810    0.0070 C   0  0  0  0  0  0  0  0  0  0  0  0
   -1.7970   -2.1320    1.0260 C   0  0  1  0  0  0  0  0  0  0  0  0
   -2.8300   -3.1330    0.6230 C   0  0  0  0  0  0  0  0  0  0  0  0
   -2.6370   -4.0030   -0.4110 C   0  0  0  0  0  0  0  0  0  0  0  0
   -3.6190   -4.9280   -0.7530 C   0  0  0  0  0  0  0  0  0  0  0  0
   -4.8120   -4.9960   -0.0640 C   0  0  0  0  0  0  0  0  0  0  0  0
   -5.0020   -4.1140    0.9790 C   0  0  0  0  0  0  0  0  0  0  0  0
   -4.0100   -3.1870    1.3180 C   0  0  0  0  0  0  0  0  0  0  0  0
   -0.5380   -2.6810    1.1640 O   0  0  0  0  0  0  0  0  0  0  0  0
    0.7390   -2.2510    1.1170 C   0  0  0  0  0  0  0  0  0  0  0  0
    1.3820   -1.6580    2.0700 O   0  0  0  0  0  0  0  0  0  0  0  0
    1.6170   -2.4080   -0.0720 C   0  0  1  0  0  0  0  0  0  0  0  0
    1.0060   -3.0710   -1.2430 C   0  0  0  0  0  0  0  0  0  0  0  0
    2.2920   -1.0950   -0.3970 C   0  0  1  0  0  0  0  0  0  0  0  0
    1.5720   -0.5740   -1.5030 O   0  0  0  0  0  0  0  0  0  0  0  0
    2.0690   -0.2350    0.6530 O   0  0  0  0  0  0  0  0  0  0  0  0
    2.6070    1.0140    0.3930 C   0  0  1  0  0  0  0  0  0  0  0  0
    2.0560    2.0470    1.2900 C   0  0  1  0  0  0  0  0  0  0  0  0
    2.9880    3.2240    1.5860 C   0  0  0  0  0  0  0  0  0  0  0  0
    0.6920    2.6050    1.0100 C   0  0  0  0  0  0  0  0  0  0  0  0
    0.1370    3.1500   -0.0210 C   0  0  0  0  0  0  0  0  0  0  0  0
   -1.2240    3.7080   -0.3110 C   0  0  1  0  0  0  0  0  0  0  0  0
   -1.2960    4.0510   -1.6960 O   0  0  0  0  0  0  0  0  0  0  0  0
   -1.5330    5.3850   -1.9010 C   0  0  0  0  0  0  0  0  0  0  0  0
    4.1040    0.8770    0.4360 C   0  0  1  0  0  0  0  0  0  0  0  0
    4.6150    0.2970    1.7120 C   0  0  0  0  0  0  0  0  0  0  0  0
    4.5410   -0.0050   -0.7060 C   0  0  2  0  0  0  0  0  0  0  0  0
    4.3840    0.6700   -1.9150 O   0  0  0  0  0  0  0  0  0  0  0  0
    3.7260   -1.2750   -0.7890 C   0  0  1  0  0  0  0  0  0  0  0  0
    4.2740   -2.3020   -0.0810 O   0  0  0  0  0  0  0  0  0  0  0  0
    4.7770   -3.3420   -0.8180 C   0  0  0  0  0  0  0  0  0  0  0  0
  1  2  1  0
  3  2  1  6
  3  4  1  0
  3 28  1  0
  4  5  1  0
  5  6  1  0
  6  7  1  0
  7  8  1  0
  8  9  1  6
  8 15  1  0
  9 10  2  0
  9 14  1  0
 10 11  1  0
 11 12  2  0
 12 13  1  0
 13 14  2  0
 15 16  1  0
 16 17  2  0
 16 18  1  0
 18 19  1  6
 18 20  1  0
 20 21  1  6
 20 22  1  0
 20 35  1  0
 23 22  1  1
 23 24  1  0
 23 31  1  0
 24 25  1  6
 24 26  1  0
 26 27  2  0
 27 28  1  0
 28 29  1  6
 29 30  1  0
 31 32  1  1
 31 33  1  0
 33 34  1  6
 33 35  1  0
 35 36  1  1
 36 37  1  0
M  END
