
     RDKit          3D

 37 40  0  0  0  0  0  0  0  0999 V2000
   -2.9550    5.8180    0.2200 C   0  0  0  0  0  0  0  0  0  0  0  0
   -1.8980    4.8330   -0.3210 C   0  0  0  0  0  0  0  0  0  0  0  0
   -1.7160    3.8370    0.6600 N   0  0  0  0  0  0  0  0  0  0  0  0
   -0.7440    2.8070    0.3960 C   0  0  1  0  0  0  0  0  0  0  0  0
   -1.1300    1.9940   -0.7770 C   0  0  0  0  0  0  0  0  0  0  0  0
   -0.0370    1.3260   -1.5090 C   0  0  0  0  0  0  0  0  0  0  0  0
    0.3010    0.0830   -1.5390 C   0  0  0  0  0  0  0  0  0  0  0  0
   -0.3020   -1.0650   -0.8510 C   0  0  0  0  0  0  0  0  0  0  0  0
   -0.1170   -2.2430   -1.3150 O   0  0  0  0  0  0  0  0  0  0  0  0
   -1.1400   -1.0130    0.3680 C   0  0  0  0  0  0  0  0  0  0  0  0
   -0.7490   -0.7160    1.5870 C   0  0  0  0  0  0  0  0  0  0  0  0
   -1.8050   -0.6890    2.6510 C   0  0  0  0  0  0  0  0  0  0  0  0
   -3.0620   -0.9090    2.4420 C   0  0  0  0  0  0  0  0  0  0  0  0
   -4.0940   -0.8950    3.5260 C   0  0  0  0  0  0  0  0  0  0  0  0
   -3.5260   -1.0060    1.0360 C   0  0  2  0  0  0  0  0  0  0  0  0
   -4.8690   -1.7140    0.9610 C   0  0  0  0  0  0  0  0  0  0  0  0
   -5.3120   -1.7930   -0.4540 C   0  0  0  0  0  0  0  0  0  0  0  0
   -5.6010   -0.7300   -1.1030 O   0  0  0  0  0  0  0  0  0  0  0  0
   -5.4420   -2.9900   -1.1610 O   0  0  0  0  0  0  0  0  0  0  0  0
   -2.5100   -1.6600    0.2190 C   0  0  0  0  0  0  0  0  0  0  0  0
    0.6070   -0.4610    2.0170 N   0  0  0  0  0  0  0  0  0  0  0  0
    1.8540   -0.8980    1.5970 C   0  0  0  0  0  0  0  0  0  0  0  0
    2.4740   -1.8640    2.2680 O   0  0  0  0  0  0  0  0  0  0  0  0
    2.7120   -0.4630    0.4510 C   0  0  0  0  0  0  0  0  0  0  0  0
    3.0240    0.8700    0.3050 C   0  0  0  0  0  0  0  0  0  0  0  0
    4.0640    0.9580   -1.1810 S   0  0  0  0  0  0  0  0  0  0  0  0
    3.9980   -0.7960   -1.4850 C   0  0  0  0  0  0  0  0  0  0  0  0
    3.2370   -1.2960   -0.4980 C   0  0  0  0  0  0  0  0  0  0  0  0
    3.1480   -2.8390   -0.6720 C   0  0  0  0  0  0  0  0  0  0  0  0
    4.5320   -3.3810   -0.8470 C   0  0  0  0  0  0  0  0  0  0  0  0
    5.2290   -2.8410   -2.0730 C   0  0  1  0  0  0  0  0  0  0  0  0
    5.2750   -3.8490   -3.1960 C   0  0  0  0  0  0  0  0  0  0  0  0
    4.6390   -1.5730   -2.5910 C   0  0  0  0  0  0  0  0  0  0  0  0
    2.6950    2.0150    1.1020 C   0  0  0  0  0  0  0  0  0  0  0  0
    3.6470    2.6270    1.7690 O   0  0  0  0  0  0  0  0  0  0  0  0
    1.4420    2.6390    1.3080 N   0  0  0  0  0  0  0  0  0  0  0  0
    0.6440    3.3690    0.3470 C   0  0  0  0  0  0  0  0  0  0  0  0
  1  2  1  0
  2  3  1  0
  4  3  1  6
  4  5  1  0
  4 37  1  0
  5  6  1  0
  6  7  2  0
  7  8  1  0
  8  9  2  0
  8 10  1  0
 10 11  2  0
 10 20  1  0
 11 12  1  0
 11 21  1  0
 12 13  2  0
 13 14  1  0
 13 15  1  0
 15 16  1  1
 15 20  1  0
 16 17  1  0
 17 18  2  0
 17 19  1  0
 21 22  1  0
 22 23  2  0
 22 24  1  0
 24 25  2  0
 24 28  1  0
 25 26  1  0
 25 34  1  0
 26 27  1  0
 27 28  2  0
 27 33  1  0
 28 29  1  0
 29 30  1  0
 30 31  1  0
 31 32  1  6
 31 33  1  0
 34 35  2  0
 34 36  1  0
 36 37  1  0
M  END
