
     RDKit          3D

 37 39  0  0  0  0  0  0  0  0999 V2000
    4.3770    4.2830    2.1830 C   0  0  0  0  0  0  0  0  0  0  0  0
    3.8560    3.0830    1.9620 C   0  0  0  0  0  0  0  0  0  0  0  0
    3.1180    2.4500    3.0450 C   0  0  0  0  0  0  0  0  0  0  0  0
    1.9600    1.8230    2.8880 C   0  0  0  0  0  0  0  0  0  0  0  0
    1.2100    1.6460    1.6350 C   0  0  0  0  0  0  0  0  0  0  0  0
    0.8310    0.1910    1.3950 C   0  0  0  0  0  0  0  0  0  0  0  0
    0.2970   -0.0530    0.0360 C   0  0  2  0  0  0  0  0  0  0  0  0
   -1.1200   -0.3650   -0.0190 N   0  0  0  0  0  0  0  0  0  0  0  0
   -2.0910    0.4890   -0.6250 C   0  0  0  0  0  0  0  0  0  0  0  0
   -1.6690    1.5220   -1.1110 O   0  0  0  0  0  0  0  0  0  0  0  0
   -3.5230    0.0910   -0.6320 C   0  0  0  0  0  0  0  0  0  0  0  0
   -4.4530    0.8260   -1.1820 C   0  0  0  0  0  0  0  0  0  0  0  0
   -4.2060    2.1300   -1.8600 C   0  0  0  0  0  0  0  0  0  0  0  0
   -5.0250    3.1670   -1.0640 C   0  0  0  0  0  0  0  0  0  0  0  0
   -4.5880    3.1730    0.2370 O   0  0  0  0  0  0  0  0  0  0  0  0
   -5.9220    0.4480   -1.2190 C   0  0  0  0  0  0  0  0  0  0  0  0
   -6.1590   -0.9840   -0.8850 C   0  0  0  0  0  0  0  0  0  0  0  0
   -5.3200   -1.3170    0.3420 C   0  0  0  0  0  0  0  0  0  0  0  0
   -3.8810   -1.2040    0.0250 C   0  0  0  0  0  0  0  0  0  0  0  0
    1.0650   -0.9970   -0.8370 C   0  0  2  0  0  0  0  0  0  0  0  0
    1.2360   -2.3630   -0.3360 C   0  0  0  0  0  0  0  0  0  0  0  0
    1.9060   -3.2290   -1.2120 C   0  0  0  0  0  0  0  0  0  0  0  0
    2.1310   -4.5450   -0.8730 C   0  0  0  0  0  0  0  0  0  0  0  0
    1.7000   -5.0430    0.3430 C   0  0  0  0  0  0  0  0  0  0  0  0
    1.0450   -4.1690    1.1830 C   0  0  0  0  0  0  0  0  0  0  0  0
    0.8100   -2.8290    0.8500 C   0  0  0  0  0  0  0  0  0  0  0  0
    2.2260   -0.4260   -1.4750 N   0  0  0  0  0  0  0  0  0  0  0  0
    3.5960   -0.5650   -1.1420 C   0  0  0  0  0  0  0  0  0  0  0  0
    4.3730   -1.1340   -2.0120 O   0  0  0  0  0  0  0  0  0  0  0  0
    4.2390   -0.1130    0.1260 C   0  0  0  0  0  0  0  0  0  0  0  0
    4.9200   -1.0530    0.7620 C   0  0  0  0  0  0  0  0  0  0  0  0
    5.0890   -2.4270    0.3480 C   0  0  0  0  0  0  0  0  0  0  0  0
    5.7760   -3.1970    1.0770 O   0  0  0  0  0  0  0  0  0  0  0  0
    4.1750    1.1130    0.6260 O   0  0  0  0  0  0  0  0  0  0  0  0
    4.0450    2.4130    0.6040 C   0  0  0  0  0  0  0  0  0  0  0  0
    4.0330    3.3110   -0.2920 N   0  0  0  0  0  0  0  0  0  0  0  0
    4.1980    3.1720   -1.9830 S   0  0  0  0  0  0  0  0  0  0  0  0
  1  2  2  0
  2  3  1  0
  2 35  1  0
  3  4  2  0
  4  5  1  0
  5  6  1  0
  6  7  1  0
  7  8  1  1
  7 20  1  0
  8  9  1  0
  9 10  2  0
  9 11  1  0
 11 12  2  0
 11 19  1  0
 12 13  1  0
 12 16  1  0
 13 14  1  0
 14 15  1  0
 16 17  1  0
 17 18  1  0
 18 19  1  0
 20 21  1  1
 20 27  1  0
 21 22  2  0
 21 26  1  0
 22 23  1  0
 23 24  2  0
 24 25  1  0
 25 26  2  0
 27 28  1  0
 28 29  2  0
 28 30  1  0
 30 31  2  3
 30 34  1  0
 31 32  1  0
 32 33  2  0
 34 35  1  0
 35 36  2  3
 36 37  1  0
M  END
