
     RDKit          3D

 37 39  0  0  0  0  0  0  0  0999 V2000
   -7.0080    2.7390    3.6990 C   0  0  0  0  0  0  0  0  0  0  0  0
   -7.6090    1.7490    3.0720 C   0  0  0  0  0  0  0  0  0  0  0  0
   -6.9050    0.8690    2.0870 C   0  0  0  0  0  0  0  0  0  0  0  0
   -7.5830   -0.0900    1.5390 C   0  0  0  0  0  0  0  0  0  0  0  0
   -7.3800   -1.1580    0.5850 C   0  0  0  0  0  0  0  0  0  0  0  0
   -7.2730   -1.3220   -0.6840 C   0  0  0  0  0  0  0  0  0  0  0  0
   -7.2850   -0.5880   -1.9310 C   0  0  0  0  0  0  0  0  0  0  0  0
   -6.1890   -1.1140   -2.8950 C   0  0  0  0  0  0  0  0  0  0  0  0
   -4.5640   -1.0070   -2.1170 S   0  0  0  0  0  0  0  0  0  0  0  0
   -4.1130   -2.3270   -1.0330 C   0  0  0  0  0  0  0  0  0  0  0  0
   -3.5240   -2.0060    0.2750 C   0  0  0  0  0  0  0  0  0  0  0  0
   -2.9270   -0.7280    0.4770 N   0  0  0  0  0  0  0  0  0  0  0  0
   -1.5580   -0.7050    0.8470 C   0  0  0  0  0  0  0  0  0  0  0  0
   -0.9880   -1.8500    0.9640 O   0  0  0  0  0  0  0  0  0  0  0  0
   -0.7250    0.5020    1.1020 C   0  0  1  0  0  0  0  0  0  0  0  0
   -1.1100    1.2790    2.3220 C   0  0  0  0  0  0  0  0  0  0  0  0
    0.6690    0.1320    1.2250 N   0  0  0  0  0  0  0  0  0  0  0  0
    1.5490    0.3480    0.1310 C   0  0  0  0  0  0  0  0  0  0  0  0
    1.1240    0.8630   -0.9490 O   0  0  0  0  0  0  0  0  0  0  0  0
    2.9150   -0.0000    0.1940 N   0  0  0  0  0  0  0  0  0  0  0  0
    3.8920    0.1100   -0.8090 C   0  0  0  0  0  0  0  0  0  0  0  0
    3.5990    0.3880   -2.0950 C   0  0  0  0  0  0  0  0  0  0  0  0
    4.6020    0.4840   -3.0680 C   0  0  0  0  0  0  0  0  0  0  0  0
    5.9200    0.2990   -2.7620 C   0  0  0  0  0  0  0  0  0  0  0  0
    6.2260    0.0100   -1.4270 C   0  0  0  0  0  0  0  0  0  0  0  0
    7.5600   -0.1790   -1.1260 O   0  0  0  0  0  0  0  0  0  0  0  0
    8.0600   -0.4700    0.1410 C   0  0  0  0  0  0  0  0  0  0  0  0
    9.5770   -0.6260    0.1220 C   0  0  2  0  0  0  0  0  0  0  0  0
   10.2830    0.6220   -0.2980 C   0  0  0  0  0  0  0  0  0  0  0  0
   11.3100    0.0980   -1.2840 C   0  0  0  0  0  0  0  0  0  0  0  0
   10.6560   -1.1510   -1.7850 C   0  0  0  0  0  0  0  0  0  0  0  0
    9.9360   -1.6370   -0.7310 O   0  0  0  0  0  0  0  0  0  0  0  0
    5.2480   -0.0790   -0.4950 C   0  0  0  0  0  0  0  0  0  0  0  0
   -3.5680    0.5640    0.3050 C   0  0  0  0  0  0  0  0  0  0  0  0
   -4.9350    0.4600    0.7840 C   0  0  0  0  0  0  0  0  0  0  0  0
   -5.4740    1.2860    1.8770 C   0  0  1  0  0  0  0  0  0  0  0  0
   -5.4810    2.6100    1.4120 O   0  0  0  0  0  0  0  0  0  0  0  0
  1  2  2  0
  2  3  1  0
  3  4  2  0
  3 36  1  0
  4  5  1  0
  5  6  2  0
  6  7  1  0
  7  8  1  0
  8  9  1  0
  9 10  1  0
 10 11  1  0
 11 12  1  0
 12 13  1  0
 12 34  1  0
 13 14  2  0
 13 15  1  0
 15 16  1  1
 15 17  1  0
 17 18  1  0
 18 19  2  0
 18 20  1  0
 20 21  1  0
 21 22  2  0
 21 33  1  0
 22 23  1  0
 23 24  2  0
 24 25  1  0
 25 26  1  0
 25 33  2  0
 26 27  1  0
 28 27  1  6
 28 29  1  0
 28 32  1  0
 29 30  1  0
 30 31  1  0
 31 32  1  0
 34 35  1  0
 35 36  1  0
 36 37  1  6
M  END
