
     RDKit          3D

 36 39  0  0  0  0  0  0  0  0999 V2000
   -3.2720   -1.8870    4.0470 C   0  0  0  0  0  0  0  0  0  0  0  0
   -2.4500   -2.1900    2.7670 C   0  0  0  0  0  0  0  0  0  0  0  0
   -2.4790   -0.9610    1.9320 C   0  0  0  0  0  0  0  0  0  0  0  0
   -1.8070   -0.9430    0.6330 C   0  0  1  0  0  0  0  0  0  0  0  0
   -2.3800   -2.0940   -0.2290 C   0  0  0  0  0  0  0  0  0  0  0  0
   -2.3580    0.2530   -0.1450 N   0  0  0  0  0  0  0  0  0  0  0  0
   -3.7170    0.3000   -0.4810 C   0  0  0  0  0  0  0  0  0  0  0  0
   -4.5120   -0.5860   -0.1800 O   0  0  0  0  0  0  0  0  0  0  0  0
   -4.2440    1.4170   -1.2090 N   0  0  0  0  0  0  0  0  0  0  0  0
   -5.5830    1.5720   -1.5980 C   0  0  2  0  0  0  0  0  0  0  0  0
   -5.8430    1.4640   -3.0850 C   0  0  0  0  0  0  0  0  0  0  0  0
   -7.2810    2.0100   -3.0770 C   0  0  0  0  0  0  0  0  0  0  0  0
   -7.2430    3.0930   -2.2060 O   0  0  0  0  0  0  0  0  0  0  0  0
   -6.2500    2.8630   -1.2740 C   0  0  0  0  0  0  0  0  0  0  0  0
   -0.3990   -0.8750    0.4440 C   0  0  0  0  0  0  0  0  0  0  0  0
   -0.0570    0.0520   -0.3890 O   0  0  0  0  0  0  0  0  0  0  0  0
    0.7910   -1.6080    0.9650 C   0  0  2  0  0  0  0  0  0  0  0  0
    0.7260   -3.0610    0.7460 C   0  0  0  0  0  0  0  0  0  0  0  0
   -0.0900   -4.0050    1.3980 N   0  0  0  0  0  0  0  0  0  0  0  0
    1.5020   -3.5630   -0.1420 O   0  0  0  0  0  0  0  0  0  0  0  0
    1.1080   -1.2310    2.3520 C   0  0  0  0  0  0  0  0  0  0  0  0
    2.1510   -0.5020    2.7070 C   0  0  0  0  0  0  0  0  0  0  0  0
    2.3750   -0.1730    4.1460 C   0  0  0  0  0  0  0  0  0  0  0  0
    3.1360   -0.0500    1.7260 C   0  0  0  0  0  0  0  0  0  0  0  0
    2.9520   -0.4040    0.4720 C   0  0  0  0  0  0  0  0  0  0  0  0
    3.9170    0.0350   -0.5500 C   0  0  0  0  0  0  0  0  0  0  0  0
    3.6920   -0.3820   -1.8580 C   0  0  0  0  0  0  0  0  0  0  0  0
    4.5060   -0.0370   -2.9050 C   0  0  0  0  0  0  0  0  0  0  0  0
    5.6020    0.7690   -2.6180 C   0  0  0  0  0  0  0  0  0  0  0  0
    5.8690    1.2070   -1.3480 C   0  0  0  0  0  0  0  0  0  0  0  0
    5.0010    0.8230   -0.3150 C   0  0  0  0  0  0  0  0  0  0  0  0
    7.0230    2.0620   -1.0480 C   0  0  0  0  0  0  0  0  0  0  0  0
    7.0020    3.3390   -1.8950 C   0  0  0  0  0  0  0  0  0  0  0  0
    7.1220    2.8210   -3.6270 S   0  0  0  0  0  0  0  0  0  0  0  0
    6.4890    1.1430   -3.7620 C   0  0  0  0  0  0  0  0  0  0  0  0
    1.8830   -1.1660    0.1530 O   0  0  0  0  0  0  0  0  0  0  0  0
  1  2  1  0
  2  3  1  0
  3  4  1  0
  4  5  1  6
  4  6  1  0
  4 15  1  0
  6  7  1  0
  7  8  2  0
  7  9  1  0
 10  9  1  6
 10 11  1  0
 10 14  1  0
 11 12  1  0
 12 13  1  0
 13 14  1  0
 15 16  2  0
 17 15  1  6
 17 18  1  0
 17 21  1  0
 17 36  1  0
 18 19  1  0
 18 20  2  0
 21 22  2  0
 22 23  1  0
 22 24  1  0
 24 25  2  0
 25 26  1  0
 25 36  1  0
 26 27  2  0
 26 31  1  0
 27 28  1  0
 28 29  2  0
 29 30  1  0
 29 35  1  0
 30 31  2  0
 30 32  1  0
 32 33  1  0
 33 34  1  0
 34 35  1  0
M  END
