
     RDKit          3D

 37 39  0  0  0  0  0  0  0  0999 V2000
  -10.0890    0.4640    1.3800 C   0  0  0  0  0  0  0  0  0  0  0  0
  -10.2000   -0.3680    0.4400 C   0  0  0  0  0  0  0  0  0  0  0  0
   -9.2970   -1.5750    0.4500 C   0  0  0  0  0  0  0  0  0  0  0  0
   -8.1720   -1.5020    1.4200 C   0  0  0  0  0  0  0  0  0  0  0  0
   -7.0320   -0.6370    1.1320 C   0  0  0  0  0  0  0  0  0  0  0  0
   -6.1440   -1.1570    0.2960 O   0  0  0  0  0  0  0  0  0  0  0  0
   -6.7410    0.6540    1.6010 N   0  0  0  0  0  0  0  0  0  0  0  0
   -5.5880    1.4420    1.3340 C   0  0  0  0  0  0  0  0  0  0  0  0
   -4.3320    0.9530    1.0370 C   0  0  0  0  0  0  0  0  0  0  0  0
   -3.2480    1.8150    0.8880 C   0  0  0  0  0  0  0  0  0  0  0  0
   -1.9540    1.2250    0.6290 N   0  0  0  0  0  0  0  0  0  0  0  0
   -0.7640    1.9600    0.4560 C   0  0  0  0  0  0  0  0  0  0  0  0
   -0.8620    3.2660    0.5350 O   0  0  0  0  0  0  0  0  0  0  0  0
    0.5140    1.4630    0.2050 C   0  0  0  0  0  0  0  0  0  0  0  0
    1.6660    1.0330   -0.0230 C   0  0  0  0  0  0  0  0  0  0  0  0
    3.0030    0.5550   -0.2720 C   0  0  0  0  0  0  0  0  0  0  0  0
    3.8850    0.4010    0.8090 C   0  0  0  0  0  0  0  0  0  0  0  0
    5.1570   -0.0530    0.5610 C   0  0  0  0  0  0  0  0  0  0  0  0
    5.6620   -0.3730   -0.6550 C   0  0  0  0  0  0  0  0  0  0  0  0
    6.9670   -0.7960   -0.9750 N   0  0  0  0  0  0  0  0  0  0  0  0
    8.1210   -0.4290   -0.2270 C   0  0  0  0  0  0  0  0  0  0  0  0
    7.9600    0.3210    0.7780 O   0  0  0  0  0  0  0  0  0  0  0  0
    9.4710   -0.9130   -0.6260 C   0  0  1  0  0  0  0  0  0  0  0  0
   10.2220   -1.3280    0.6090 C   0  0  0  0  0  0  0  0  0  0  0  0
   11.6830   -2.3170    0.2000 S   0  0  0  0  0  0  0  0  0  0  0  0
   11.3420   -3.1330   -1.3760 C   0  0  0  0  0  0  0  0  0  0  0  0
   10.5250   -2.2090   -2.2340 C   0  0  2  0  0  0  0  0  0  0  0  0
   11.3550   -0.9690   -2.5220 C   0  0  0  0  0  0  0  0  0  0  0  0
    9.3380   -1.8860   -1.5950 O   0  0  0  0  0  0  0  0  0  0  0  0
    4.7520   -0.2090   -1.7280 C   0  0  0  0  0  0  0  0  0  0  0  0
    3.4650    0.2460   -1.5050 C   0  0  0  0  0  0  0  0  0  0  0  0
   -3.4530    3.1550    1.0390 C   0  0  0  0  0  0  0  0  0  0  0  0
   -4.7330    3.6660    1.3440 C   0  0  0  0  0  0  0  0  0  0  0  0
   -5.7900    2.8120    1.4880 C   0  0  0  0  0  0  0  0  0  0  0  0
   -7.1530    3.3840    1.7790 C   0  0  0  0  0  0  0  0  0  0  0  0
  -11.1040   -0.2110   -0.5900 O   0  0  0  0  0  0  0  0  0  0  0  0
  -10.6870   -0.3760   -1.9250 C   0  0  0  0  0  0  0  0  0  0  0  0
  1  2  2  0
  2  3  1  0
  2 36  1  0
  3  4  1  0
  4  5  1  0
  5  6  2  0
  5  7  1  0
  7  8  1  0
  8  9  2  0
  8 34  1  0
  9 10  1  0
 10 11  1  0
 10 32  2  0
 11 12  1  0
 12 13  2  0
 12 14  1  0
 14 15  3  0
 15 16  1  0
 16 17  2  0
 16 31  1  0
 17 18  1  0
 18 19  2  0
 19 20  1  0
 19 30  1  0
 20 21  1  0
 21 22  2  0
 23 21  1  1
 23 24  1  0
 23 29  1  0
 24 25  1  0
 25 26  1  0
 26 27  1  0
 27 28  1  1
 27 29  1  0
 30 31  2  0
 32 33  1  0
 33 34  2  0
 34 35  1  0
 36 37  1  0
M  END
