
     RDKit          3D

 25 25  0  0  0  0  0  0  0  0999 V2000
    4.1400    1.8840   -1.1660 O   0  0  0  0  0  0  0  0  0  0  0  0
    3.7790    1.0120   -1.9920 C   0  0  0  0  0  0  0  0  0  0  0  0
    4.3810    1.0820   -3.2530 O   0  0  0  0  0  0  0  0  0  0  0  0
    2.8530    0.0600   -1.6560 O   0  0  0  0  0  0  0  0  0  0  0  0
    2.2220   -0.0430   -0.3690 C   0  0  2  0  0  0  0  0  0  0  0  0
    2.3130   -1.2550    0.1840 O   0  0  0  0  0  0  0  0  0  0  0  0
    2.8720   -1.5110    1.3700 C   0  0  0  0  0  0  0  0  0  0  0  0
    4.3300   -1.2140    1.4920 C   0  0  0  0  0  0  0  0  0  0  0  0
    4.5890    0.1220    1.2700 O   0  0  0  0  0  0  0  0  0  0  0  0
    0.7520    0.3570   -0.5750 C   0  0  0  0  0  0  0  0  0  0  0  0
    0.3370    0.6850   -1.7130 O   0  0  0  0  0  0  0  0  0  0  0  0
   -0.1220    0.3610    0.4710 O   0  0  0  0  0  0  0  0  0  0  0  0
   -1.4800    0.7050    0.4040 C   0  0  2  0  0  0  0  0  0  0  0  0
   -2.2250   -0.1940   -0.5370 C   0  0  0  0  0  0  0  0  0  0  0  0
   -3.4500   -0.0010   -0.6960 O   0  0  0  0  0  0  0  0  0  0  0  0
   -1.5920   -1.1990   -1.2070 O   0  0  0  0  0  0  0  0  0  0  0  0
   -2.1910   -2.0780   -2.0850 C   0  0  0  0  0  0  0  0  0  0  0  0
   -3.2350   -2.9910   -1.5460 C   0  0  0  0  0  0  0  0  0  0  0  0
   -4.3280   -2.3540   -0.9920 O   0  0  0  0  0  0  0  0  0  0  0  0
   -1.7370    2.1130   -0.0240 C   0  0  0  0  0  0  0  0  0  0  0  0
   -3.0370    2.6350    0.5590 C   0  0  0  0  0  0  0  0  0  0  0  0
   -2.7080    3.2030    1.8120 O   0  0  0  0  0  0  0  0  0  0  0  0
   -1.7170    1.9830    2.5920 P   0  0  0  0  0  0  0  0  0  0  0  0
   -2.2320    1.7100    4.2200 O   0  0  0  0  0  0  0  0  0  0  0  0
   -2.0160    0.5120    1.6820 O   0  0  0  0  0  0  0  0  0  0  0  0
  1  2  2  0
  2  3  1  0
  2  4  1  0
  5  4  1  6
  5  6  1  0
  5 10  1  0
  6  7  1  0
  7  8  1  0
  8  9  1  0
 10 11  2  0
 10 12  1  0
 13 12  1  1
 13 14  1  0
 13 20  1  0
 13 25  1  0
 14 15  2  0
 14 16  1  0
 16 17  1  0
 17 18  1  0
 18 19  1  0
 20 21  1  0
 21 22  1  0
 22 23  1  0
 23 24  1  0
 23 25  1  0
M  END
