
     RDKit          3D

 25 25  0  0  0  0  0  0  0  0999 V2000
   -6.4490   -0.4490   -0.4030 C   0  0  0  0  0  0  0  0  0  0  0  0
   -5.1920   -0.8450    0.1580 O   0  0  0  0  0  0  0  0  0  0  0  0
   -4.1020   -0.0100    0.0710 C   0  0  0  0  0  0  0  0  0  0  0  0
   -4.2550    1.0920   -0.5090 O   0  0  0  0  0  0  0  0  0  0  0  0
   -2.8500   -0.2990    0.5790 O   0  0  0  0  0  0  0  0  0  0  0  0
   -1.7450    0.5800    0.4750 C   0  0  1  0  0  0  0  0  0  0  0  0
   -1.2730    0.8040    1.8000 O   0  0  0  0  0  0  0  0  0  0  0  0
   -1.1400    2.0870    2.3170 C   0  0  0  0  0  0  0  0  0  0  0  0
   -1.4360    3.0730    1.6120 O   0  0  0  0  0  0  0  0  0  0  0  0
   -0.6710    2.2630    3.6300 O   0  0  0  0  0  0  0  0  0  0  0  0
   -0.6240   -0.2080   -0.2240 C   0  0  2  0  0  0  0  0  0  0  0  0
    0.5030    0.5590   -0.3770 O   0  0  0  0  0  0  0  0  0  0  0  0
    1.7010    0.2310   -0.9300 C   0  0  0  0  0  0  0  0  0  0  0  0
    1.8270   -0.9200   -1.3660 O   0  0  0  0  0  0  0  0  0  0  0  0
    2.7920    1.0780   -1.0450 O   0  0  0  0  0  0  0  0  0  0  0  0
    4.0180    0.6820   -1.6310 C   0  0  0  0  0  0  0  0  0  0  0  0
    4.6450   -0.4800   -0.9030 C   0  0  0  0  0  0  0  0  0  0  0  0
    4.9500    0.0640    0.8490 P   0  0  0  0  0  0  0  0  0  0  0  0
    5.8060    1.5720    0.8060 O   0  0  0  0  0  0  0  0  0  0  0  0
    5.8630   -1.1600    1.6510 O   0  0  0  0  0  0  0  0  0  0  0  0
   -1.1420   -0.6330   -1.5930 C   0  0  0  0  0  0  0  0  0  0  0  0
   -1.8160   -1.8460   -1.3520 O   0  0  0  0  0  0  0  0  0  0  0  0
   -1.7390   -2.1920   -0.0090 C   0  0  0  0  0  0  0  0  0  0  0  0
   -2.5420   -2.9130    0.6400 O   0  0  0  0  0  0  0  0  0  0  0  0
   -0.4960   -1.5100    0.4630 C   0  0  0  0  0  0  0  0  0  0  0  0
  1  2  1  0
  2  3  1  0
  3  4  2  0
  3  5  1  0
  6  5  1  1
  6  7  1  0
  6 11  1  0
  7  8  1  0
  8  9  2  0
  8 10  1  0
 11 12  1  6
 11 21  1  0
 11 25  1  0
 12 13  1  0
 13 14  2  0
 13 15  1  0
 15 16  1  0
 16 17  1  0
 17 18  1  0
 18 19  1  0
 18 20  1  0
 21 22  1  0
 22 23  1  0
 23 24  2  0
 23 25  1  0
M  END
