
     RDKit          3D

 22 21  0  0  0  0  0  0  0  0999 V2000
   -1.5430   -2.1460   -0.9320 C   0  0  0  0  0  0  0  0  0  0  0  0
   -0.5830   -1.4830   -0.2460 C   0  0  0  0  0  0  0  0  0  0  0  0
    0.6620   -2.1520   -0.0670 C   0  0  0  0  0  0  0  0  0  0  0  0
    1.7930   -1.8950    0.5120 C   0  0  0  0  0  0  0  0  0  0  0  0
    2.8470   -2.9510    0.4220 C   0  0  0  0  0  0  0  0  0  0  0  0
    4.0280   -2.7670   -0.3860 C   0  0  0  0  0  0  0  0  0  0  0  0
    4.9560   -1.6380   -0.3180 C   0  0  0  0  0  0  0  0  0  0  0  0
    4.4600   -0.2980   -0.7630 C   0  0  0  0  0  0  0  0  0  0  0  0
    2.0080   -0.7230    1.3400 C   0  0  0  0  0  0  0  0  0  0  0  0
    3.1340   -0.5360    1.9280 O   0  0  0  0  0  0  0  0  0  0  0  0
    1.0420    0.2280    1.5370 O   0  0  0  0  0  0  0  0  0  0  0  0
   -0.9030   -0.2520    0.1960 O   0  0  0  0  0  0  0  0  0  0  0  0
   -2.0690    0.4790    0.0180 C   0  0  2  0  0  0  0  0  0  0  0  0
   -3.1040   -0.3000    0.5990 O   0  0  0  0  0  0  0  0  0  0  0  0
   -2.4250    0.7320   -1.4120 C   0  0  0  0  0  0  0  0  0  0  0  0
   -1.3750    0.9900   -2.2820 O   0  0  0  0  0  0  0  0  0  0  0  0
   -3.6430    0.7290   -1.8900 C   0  0  0  0  0  0  0  0  0  0  0  0
   -4.8530    0.4710   -1.0680 C   0  0  0  0  0  0  0  0  0  0  0  0
   -1.9900    1.8170    0.6980 C   0  0  1  0  0  0  0  0  0  0  0  0
   -1.7580    1.6040    2.1700 C   0  0  0  0  0  0  0  0  0  0  0  0
   -0.9680    2.6940    0.0760 C   0  0  0  0  0  0  0  0  0  0  0  0
   -0.8610    4.0460    0.7600 C   0  0  0  0  0  0  0  0  0  0  0  0
  1  2  2  0
  2  3  1  0
  2 12  1  0
  3  4  2  3
  4  5  1  0
  4  9  1  0
  5  6  1  0
  6  7  1  0
  7  8  1  0
  9 10  2  0
  9 11  1  0
 12 13  1  0
 13 14  1  1
 13 15  1  0
 13 19  1  0
 15 16  1  0
 15 17  2  3
 17 18  1  0
 19 20  1  1
 19 21  1  0
 21 22  1  0
M  END
