
     RDKit          3D

 25 25  0  0  0  0  0  0  0  0999 V2000
   -3.4420   -3.1650   -0.2510 O   0  0  0  0  0  0  0  0  0  0  0  0
   -2.6060   -2.3970    0.2970 C   0  0  0  0  0  0  0  0  0  0  0  0
   -3.2270   -1.1670    0.8510 C   0  0  0  0  0  0  0  0  0  0  0  0
   -4.1590   -0.5640   -0.1910 C   0  0  0  0  0  0  0  0  0  0  0  0
   -4.2770    0.8480    0.0010 O   0  0  0  0  0  0  0  0  0  0  0  0
   -3.5020    1.7630   -0.6570 C   0  0  0  0  0  0  0  0  0  0  0  0
   -3.9670    2.8780   -1.0060 O   0  0  0  0  0  0  0  0  0  0  0  0
   -2.0850    1.4100   -0.9560 C   0  0  0  0  0  0  0  0  0  0  0  0
   -1.1800    1.6250   -0.0220 O   0  0  0  0  0  0  0  0  0  0  0  0
   -0.1330    2.1560    0.5380 C   0  0  0  0  0  0  0  0  0  0  0  0
    0.2060    3.3850    0.7250 O   0  0  0  0  0  0  0  0  0  0  0  0
    0.8180    1.2810    1.0410 O   0  0  0  0  0  0  0  0  0  0  0  0
    1.2820    0.0660    0.5330 C   0  0  1  0  0  0  0  0  0  0  0  0
    1.3990    0.1960   -0.9330 C   0  0  0  0  0  0  0  0  0  0  0  0
    1.7980   -0.7750   -1.6200 O   0  0  0  0  0  0  0  0  0  0  0  0
    1.0890    1.3550   -1.6250 O   0  0  0  0  0  0  0  0  0  0  0  0
    2.7110   -0.0560    1.0940 C   0  0  1  0  0  0  0  0  0  0  0  0
    3.3390   -1.2170    0.6870 O   0  0  0  0  0  0  0  0  0  0  0  0
    3.7240    1.4150    0.5060 P   0  0  0  0  0  0  0  0  0  0  0  0
    5.1560    1.5500    1.4310 O   0  0  0  0  0  0  0  0  0  0  0  0
    4.0310    1.2940   -1.1940 O   0  0  0  0  0  0  0  0  0  0  0  0
    5.3160    1.2750   -1.3810 O   0  0  0  0  0  0  0  0  0  0  0  0
    0.5190   -1.1260    1.0080 C   0  0  0  0  0  0  0  0  0  0  0  0
   -0.1770   -1.9160   -0.0570 C   0  0  0  0  0  0  0  0  0  0  0  0
   -1.2820   -2.6320    0.3920 O   0  0  0  0  0  0  0  0  0  0  0  0
  1  2  2  0
  2  3  1  0
  2 25  1  0
  3  4  1  0
  4  5  1  0
  5  6  1  0
  6  7  2  0
  6  8  1  0
  8  9  1  0
  9 10  1  0
 10 11  2  0
 10 12  1  0
 12 13  1  0
 13 14  1  6
 13 17  1  0
 13 23  1  0
 14 15  2  0
 14 16  1  0
 17 18  1  6
 17 19  1  0
 19 20  1  0
 19 21  1  0
 21 22  1  0
 23 24  1  0
 24 25  1  0
M  END
