
     RDKit          3D

 21 23  0  0  0  0  0  0  0  0999 V2000
    3.9540    2.9190    0.1200 C   0  0  0  0  0  0  0  0  0  0  0  0
    2.4900    2.7780    0.2390 C   0  0  0  0  0  0  0  0  0  0  0  0
    1.7780    3.7710    0.5930 N   0  0  0  0  0  0  0  0  0  0  0  0
    1.8180    1.5040   -0.0460 C   0  0  0  0  0  0  0  0  0  0  0  0
    2.6040    0.4460   -0.4250 C   0  0  0  0  0  0  0  0  0  0  0  0
    2.0180   -0.7480   -0.7000 C   0  0  0  0  0  0  0  0  0  0  0  0
    0.6510   -0.8900   -0.6000 C   0  0  0  0  0  0  0  0  0  0  0  0
   -0.2050    0.1410   -0.2220 C   0  0  0  0  0  0  0  0  0  0  0  0
   -1.4890    0.1350   -0.0910 O   0  0  0  0  0  0  0  0  0  0  0  0
   -2.7570    0.1300    0.0380 C   0  0  0  0  0  0  0  0  0  0  0  0
   -3.3700    1.3430    0.4800 C   0  0  0  0  0  0  0  0  0  0  0  0
   -4.7060    1.4380    0.6460 C   0  0  0  0  0  0  0  0  0  0  0  0
   -5.5200    0.3490    0.3900 C   0  0  0  0  0  0  0  0  0  0  0  0
   -4.9650   -0.8240   -0.0330 C   0  0  0  0  0  0  0  0  0  0  0  0
   -3.5920   -0.9240   -0.2050 C   0  0  0  0  0  0  0  0  0  0  0  0
   -3.1340   -2.1730   -0.6430 O   0  0  0  0  0  0  0  0  0  0  0  0
    0.4670    1.3800    0.0580 C   0  0  0  0  0  0  0  0  0  0  0  0
    0.3170   -2.2120   -0.9360 O   0  0  0  0  0  0  0  0  0  0  0  0
    1.4550   -2.9960   -0.5680 C   0  0  2  0  0  0  0  0  0  0  0  0
    1.4870   -3.0640    0.9360 C   0  0  0  0  0  0  0  0  0  0  0  0
    2.5480   -2.0940   -1.1320 C   0  0  0  0  0  0  0  0  0  0  0  0
  1  2  1  0
  2  3  2  0
  2  4  1  0
  4  5  2  0
  4 17  1  0
  5  6  1  0
  6  7  2  0
  6 21  1  0
  7  8  1  0
  7 18  1  0
  8  9  1  0
  8 17  2  0
  9 10  1  0
 10 11  2  0
 10 15  1  0
 11 12  1  0
 12 13  2  0
 13 14  1  0
 14 15  2  0
 15 16  1  0
 18 19  1  0
 19 20  1  1
 19 21  1  0
M  END
