
     RDKit          3D

 21 23  0  0  0  0  0  0  0  0999 V2000
   -4.7000   -1.3560   -1.1740 C   0  0  0  0  0  0  0  0  0  0  0  0
   -3.6440   -0.5390   -1.7710 C   0  0  0  0  0  0  0  0  0  0  0  0
   -2.6380    0.0760   -1.2830 C   0  0  0  0  0  0  0  0  0  0  0  0
   -1.8620    0.7550   -2.3380 O   0  0  0  0  0  0  0  0  0  0  0  0
   -2.0990    0.2750    0.0350 C   0  0  0  0  0  0  0  0  0  0  0  0
   -0.6770    0.4190    0.1270 C   0  0  0  0  0  0  0  0  0  0  0  0
   -0.0080    0.6790    1.2750 C   0  0  0  0  0  0  0  0  0  0  0  0
    1.4000    0.7980    1.3940 N   0  0  0  0  0  0  0  0  0  0  0  0
    2.3800    0.2480    0.5450 C   0  0  0  0  0  0  0  0  0  0  0  0
    2.1820   -0.8510   -0.2530 C   0  0  0  0  0  0  0  0  0  0  0  0
    3.1710   -1.3510   -1.0990 C   0  0  0  0  0  0  0  0  0  0  0  0
    4.4130   -0.7440   -1.1660 C   0  0  0  0  0  0  0  0  0  0  0  0
    4.6180    0.3510   -0.3740 C   0  0  0  0  0  0  0  0  0  0  0  0
    3.6500    0.8300    0.4460 C   0  0  0  0  0  0  0  0  0  0  0  0
    5.9170    0.7770   -0.6130 O   0  0  0  0  0  0  0  0  0  0  0  0
    6.6330   -0.2710   -1.2800 C   0  0  0  0  0  0  0  0  0  0  0  0
    5.5690   -0.9770   -1.8730 O   0  0  0  0  0  0  0  0  0  0  0  0
   -0.7980    0.8100    2.4250 C   0  0  0  0  0  0  0  0  0  0  0  0
   -2.1530    0.6810    2.3680 C   0  0  0  0  0  0  0  0  0  0  0  0
   -2.8370    0.4110    1.1650 C   0  0  0  0  0  0  0  0  0  0  0  0
   -4.3290    0.4200    1.2230 C   0  0  0  0  0  0  0  0  0  0  0  0
  1  2  1  0
  2  3  2  3
  3  4  1  0
  3  5  1  0
  5  6  2  0
  5 20  1  0
  6  7  1  0
  7  8  1  0
  7 18  2  0
  8  9  1  0
  9 10  2  0
  9 14  1  0
 10 11  1  0
 11 12  2  0
 12 13  1  0
 12 17  1  0
 13 14  2  0
 13 15  1  0
 15 16  1  0
 16 17  1  0
 18 19  1  0
 19 20  2  0
 20 21  1  0
M  END
