
     RDKit          3D

 19 20  0  0  0  0  0  0  0  0999 V2000
   -2.7410    3.3170    2.1200 C   0  0  0  0  0  0  0  0  0  0  0  0
   -2.0110    2.4760    1.1590 C   0  0  0  0  0  0  0  0  0  0  0  0
   -2.5670    1.3960    0.6360 C   0  0  0  0  0  0  0  0  0  0  0  0
   -1.8460    0.5650   -0.3130 C   0  0  0  0  0  0  0  0  0  0  0  0
   -0.5610    0.9140   -0.6720 O   0  0  0  0  0  0  0  0  0  0  0  0
    0.5680    0.2820   -0.1710 C   0  0  0  0  0  0  0  0  0  0  0  0
    0.4850   -0.7550    0.7330 C   0  0  0  0  0  0  0  0  0  0  0  0
    1.6120   -1.3870    1.2330 C   0  0  0  0  0  0  0  0  0  0  0  0
    2.8560   -0.9360    0.7870 C   0  0  0  0  0  0  0  0  0  0  0  0
    2.9800    0.0980   -0.1160 C   0  0  0  0  0  0  0  0  0  0  0  0
    1.8220    0.6860   -0.5760 C   0  0  0  0  0  0  0  0  0  0  0  0
    4.4410    0.3400   -0.3890 C   0  0  2  0  0  0  0  0  0  0  0  0
    4.8340   -0.1640   -1.6060 O   0  0  0  0  0  0  0  0  0  0  0  0
    5.0990   -0.3760    0.7760 C   0  0  0  0  0  0  0  0  0  0  0  0
    4.1340   -1.3600    1.1000 O   0  0  0  0  0  0  0  0  0  0  0  0
   -2.4370   -0.5030   -0.8100 C   0  0  0  0  0  0  0  0  0  0  0  0
   -3.8080   -0.8210   -0.3880 C   0  0  0  0  0  0  0  0  0  0  0  0
   -1.6900   -1.3640   -1.7950 C   0  0  0  0  0  0  0  0  0  0  0  0
   -1.5450   -2.7120   -1.3020 N   0  0  0  0  0  0  0  0  0  0  0  0
  1  2  1  0
  2  3  2  3
  3  4  1  0
  4  5  1  0
  4 16  2  3
  5  6  1  0
  6  7  2  0
  6 11  1  0
  7  8  1  0
  8  9  2  0
  9 10  1  0
  9 15  1  0
 10 11  2  0
 10 12  1  0
 12 13  1  6
 12 14  1  0
 14 15  1  0
 16 17  1  0
 16 18  1  0
 18 19  1  0
M  CHG  1  19   1
M  END
