
     RDKit          3D

 19 19  0  0  0  0  0  0  0  0999 V2000
    3.5500    1.5210   -0.2380 C   0  0  0  0  0  0  0  0  0  0  0  0
    3.8880    0.2280   -0.1630 C   0  0  0  0  0  0  0  0  0  0  0  0
    5.2610   -0.1560   -0.5670 C   0  0  0  0  0  0  0  0  0  0  0  0
    5.5220   -1.5710   -0.4490 C   0  0  0  0  0  0  0  0  0  0  0  0
    4.6200   -2.4200   -0.0240 C   0  0  0  0  0  0  0  0  0  0  0  0
    3.2870   -2.0210    0.3650 C   0  0  0  0  0  0  0  0  0  0  0  0
    2.9240   -0.7300    0.2990 C   0  0  0  0  0  0  0  0  0  0  0  0
    1.5350   -0.4000    0.7150 C   0  0  0  0  0  0  0  0  0  0  0  0
    0.7950   -1.3750    1.1050 O   0  0  0  0  0  0  0  0  0  0  0  0
    0.9730    0.8130    0.7270 O   0  0  0  0  0  0  0  0  0  0  0  0
   -0.2410    1.3480    1.0280 C   0  0  0  0  0  0  0  0  0  0  0  0
   -1.3800    1.1530    0.0650 C   0  0  2  0  0  0  0  0  0  0  0  0
   -0.9910    1.7770   -1.1460 O   0  0  0  0  0  0  0  0  0  0  0  0
   -2.5050    2.0190    0.6360 C   0  0  0  0  0  0  0  0  0  0  0  0
   -3.0090    1.5370    1.8830 N   0  0  0  0  0  0  0  0  0  0  0  0
   -1.7010   -0.2620   -0.1320 C   0  0  0  0  0  0  0  0  0  0  0  0
   -2.8340   -0.6040   -1.0720 C   0  0  1  0  0  0  0  0  0  0  0  0
   -2.8600   -2.1590   -1.0500 C   0  0  0  0  0  0  0  0  0  0  0  0
   -4.1950   -0.1850   -0.6770 C   0  0  0  0  0  0  0  0  0  0  0  0
  1  2  2  0
  2  3  1  0
  2  7  1  0
  3  4  1  0
  4  5  2  0
  5  6  1  0
  6  7  2  0
  7  8  1  0
  8  9  2  0
  8 10  1  0
 10 11  1  0
 11 12  1  0
 12 13  1  6
 12 14  1  0
 12 16  1  0
 14 15  1  0
 16 17  1  0
 17 18  1  1
 17 19  1  0
M  CHG  1  15   1
M  END
