
     RDKit          3D

 18 19  0  0  0  0  0  0  0  0999 V2000
    3.8840    1.6850   -1.1700 C   0  0  0  0  0  0  0  0  0  0  0  0
    3.8130    0.7730   -0.1150 O   0  0  0  0  0  0  0  0  0  0  0  0
    2.9390   -0.1990    0.1680 C   0  0  0  0  0  0  0  0  0  0  0  0
    3.4190   -1.3840    0.5730 C   0  0  0  0  0  0  0  0  0  0  0  0
    4.7070   -1.7950    0.7510 O   0  0  0  0  0  0  0  0  0  0  0  0
    1.5000   -0.0910    0.0480 C   0  0  0  0  0  0  0  0  0  0  0  0
    0.8380   -1.2790   -0.2830 C   0  0  0  0  0  0  0  0  0  0  0  0
   -0.5760   -1.2990   -0.2840 C   0  0  0  0  0  0  0  0  0  0  0  0
   -1.2970   -0.2430    0.0340 C   0  0  0  0  0  0  0  0  0  0  0  0
   -0.6400    0.9830    0.3880 C   0  0  0  0  0  0  0  0  0  0  0  0
   -1.5100    1.9630    1.0300 C   0  0  0  0  0  0  0  0  0  0  0  0
   -1.6470    3.2480    0.3580 N   0  0  0  0  0  0  0  0  0  0  0  0
    0.7350    1.0190    0.3780 C   0  0  0  0  0  0  0  0  0  0  0  0
    1.3790    2.1840    0.7210 O   0  0  0  0  0  0  0  0  0  0  0  0
   -2.8030   -0.2660   -0.0820 C   0  0  0  0  0  0  0  0  0  0  0  0
   -3.1940   -1.6960    0.3410 C   0  0  0  0  0  0  0  0  0  0  0  0
   -2.6390   -2.6000   -0.7600 C   0  0  0  0  0  0  0  0  0  0  0  0
   -1.1420   -2.5970   -0.8280 C   0  0  0  0  0  0  0  0  0  0  0  0
  1  2  1  0
  2  3  1  0
  3  4  2  3
  3  6  1  0
  4  5  1  0
  6  7  2  0
  6 13  1  0
  7  8  1  0
  8  9  2  0
  8 18  1  0
  9 10  1  0
  9 15  1  0
 10 11  1  0
 10 13  2  0
 11 12  1  0
 13 14  1  0
 15 16  1  0
 16 17  1  0
 17 18  1  0
M  CHG  1  12   1
M  END
