
     RDKit          3D

 19 20  0  0  0  0  0  0  0  0999 V2000
    3.2980   -1.0980    1.7890 C   0  0  0  0  0  0  0  0  0  0  0  0
    3.3200   -1.1550    0.4400 C   0  0  0  0  0  0  0  0  0  0  0  0
    4.5430   -1.5100   -0.3340 C   0  0  0  0  0  0  0  0  0  0  0  0
    4.1970   -1.4310   -1.5780 C   0  0  0  0  0  0  0  0  0  0  0  0
    2.8170   -1.0520   -1.7750 C   0  0  0  0  0  0  0  0  0  0  0  0
    2.2810   -0.8770   -0.4650 C   0  0  0  0  0  0  0  0  0  0  0  0
    0.9780   -0.5060   -0.3410 O   0  0  0  0  0  0  0  0  0  0  0  0
    0.4020    0.6580    0.0880 C   0  0  0  0  0  0  0  0  0  0  0  0
    1.0680    1.7650    0.5450 C   0  0  0  0  0  0  0  0  0  0  0  0
    0.3750    2.8890    0.9160 C   0  0  0  0  0  0  0  0  0  0  0  0
   -0.9830    2.9610    0.8600 C   0  0  0  0  0  0  0  0  0  0  0  0
   -1.7650    4.0320    1.1970 O   0  0  0  0  0  0  0  0  0  0  0  0
   -1.6560    1.8170    0.4040 C   0  0  0  0  0  0  0  0  0  0  0  0
   -1.0170    0.6740    0.0150 C   0  0  0  0  0  0  0  0  0  0  0  0
   -1.6590   -0.5990   -0.3350 C   0  0  2  0  0  0  0  0  0  0  0  0
   -2.6750   -0.5240   -1.4220 C   0  0  0  0  0  0  0  0  0  0  0  0
   -3.7080    0.4220   -1.3070 N   0  0  0  0  0  0  0  0  0  0  0  0
   -2.3930   -0.9680    0.8670 O   0  0  0  0  0  0  0  0  0  0  0  0
   -1.9200   -2.1980    1.2800 C   0  0  0  0  0  0  0  0  0  0  0  0
  1  2  2  0
  2  3  1  0
  2  6  1  0
  3  4  2  0
  4  5  1  0
  5  6  2  0
  6  7  1  0
  7  8  1  0
  8  9  2  0
  8 14  1  0
  9 10  1  0
 10 11  2  0
 11 12  1  0
 11 13  1  0
 13 14  2  0
 14 15  1  0
 15 16  1  6
 15 18  1  0
 16 17  1  0
 18 19  1  0
M  CHG  1  17   1
M  END
