
     RDKit          3D

 19 20  0  0  0  0  0  0  0  0999 V2000
   -3.5520    2.4480   -2.0440 C   0  0  0  0  0  0  0  0  0  0  0  0
   -4.0410    1.6820   -0.9770 O   0  0  0  0  0  0  0  0  0  0  0  0
   -3.2640    0.6270   -0.4890 C   0  0  0  0  0  0  0  0  0  0  0  0
   -3.7700   -0.0990    0.5510 C   0  0  0  0  0  0  0  0  0  0  0  0
   -3.0320   -1.1450    1.0560 C   0  0  0  0  0  0  0  0  0  0  0  0
   -3.5590   -1.8900    2.1290 O   0  0  0  0  0  0  0  0  0  0  0  0
   -1.7970   -1.4470    0.5110 C   0  0  0  0  0  0  0  0  0  0  0  0
   -1.2600   -0.7320   -0.5400 C   0  0  0  0  0  0  0  0  0  0  0  0
    0.0450   -1.0490   -1.1190 C   0  0  2  0  0  0  0  0  0  0  0  0
    0.2130   -2.4810   -1.3310 N   0  0  0  0  0  0  0  0  0  0  0  0
    1.1780   -0.4610   -0.3890 C   0  0  0  0  0  0  0  0  0  0  0  0
    1.0270    0.4260    0.6590 C   0  0  0  0  0  0  0  0  0  0  0  0
    2.1320    0.9600    1.3240 C   0  0  0  0  0  0  0  0  0  0  0  0
    3.4070    0.6160    0.9530 C   0  0  0  0  0  0  0  0  0  0  0  0
    4.6200    1.1680    1.6410 C   0  0  0  0  0  0  0  0  0  0  0  0
    4.2620    2.0300    2.6550 O   0  0  0  0  0  0  0  0  0  0  0  0
    3.5630   -0.2630   -0.0860 C   0  0  0  0  0  0  0  0  0  0  0  0
    2.4580   -0.7950   -0.7490 C   0  0  0  0  0  0  0  0  0  0  0  0
   -2.0360    0.3170   -1.0230 C   0  0  0  0  0  0  0  0  0  0  0  0
  1  2  1  0
  2  3  1  0
  3  4  2  0
  3 19  1  0
  4  5  1  0
  5  6  1  0
  5  7  2  0
  7  8  1  0
  8  9  1  0
  8 19  2  0
  9 10  1  1
  9 11  1  0
 11 12  2  0
 11 18  1  0
 12 13  1  0
 13 14  2  0
 14 15  1  0
 14 17  1  0
 15 16  1  0
 17 18  2  0
M  CHG  1  10   1
M  END
