
     RDKit          3D

 19 20  0  0  0  0  0  0  0  0999 V2000
   -2.1090   -2.3910   -1.3770 C   0  0  0  0  0  0  0  0  0  0  0  0
   -1.8950   -1.5510   -0.3690 C   0  0  0  0  0  0  0  0  0  0  0  0
   -2.5840   -0.3060   -0.1200 C   0  0  0  0  0  0  0  0  0  0  0  0
   -3.7560    0.0690   -0.5500 C   0  0  0  0  0  0  0  0  0  0  0  0
   -4.3510    1.3800   -0.2200 C   0  0  0  0  0  0  0  0  0  0  0  0
   -5.5500    1.2880    0.4520 O   0  0  0  0  0  0  0  0  0  0  0  0
   -1.7080    0.5320    0.7490 C   0  0  0  0  0  0  0  0  0  0  0  0
   -0.4650   -0.2860    1.0060 C   0  0  2  0  0  0  0  0  0  0  0  0
    0.4950    0.0490    0.0670 O   0  0  0  0  0  0  0  0  0  0  0  0
    1.7750    0.4610    0.2590 C   0  0  0  0  0  0  0  0  0  0  0  0
    2.3660    0.6230    1.5040 C   0  0  0  0  0  0  0  0  0  0  0  0
    3.6720    1.0460    1.6100 C   0  0  0  0  0  0  0  0  0  0  0  0
    4.4370    1.3220    0.5020 C   0  0  0  0  0  0  0  0  0  0  0  0
    5.7480    1.7450    0.6460 O   0  0  0  0  0  0  0  0  0  0  0  0
    3.8720    1.1680   -0.7450 C   0  0  0  0  0  0  0  0  0  0  0  0
    2.5570    0.7430   -0.8430 C   0  0  0  0  0  0  0  0  0  0  0  0
    1.9590    0.5810   -2.2020 C   0  0  0  0  0  0  0  0  0  0  0  0
   -0.8880   -1.7340    0.7170 C   0  0  2  0  0  0  0  0  0  0  0  0
    0.2760   -2.4370    0.2150 N   0  0  0  0  0  0  0  0  0  0  0  0
  1  2  2  0
  2  3  1  0
  2 18  1  0
  3  4  2  3
  3  7  1  0
  4  5  1  0
  5  6  1  0
  7  8  1  0
  8  9  1  6
  8 18  1  0
  9 10  1  0
 10 11  2  0
 10 16  1  0
 11 12  1  0
 12 13  2  0
 13 14  1  0
 13 15  1  0
 15 16  2  0
 16 17  1  0
 18 19  1  6
M  CHG  1  19   1
M  END
