
     RDKit          3D

 20 20  0  0  0  0  0  0  0  0999 V2000
   -3.6690    3.0110    0.2750 C   0  0  0  0  0  0  0  0  0  0  0  0
   -4.2490    2.4920   -1.0150 C   0  0  0  0  0  0  0  0  0  0  0  0
   -4.5510    1.1360   -0.9350 O   0  0  0  0  0  0  0  0  0  0  0  0
   -3.6140    0.1490   -0.6950 C   0  0  0  0  0  0  0  0  0  0  0  0
   -2.2760    0.3730   -0.5170 C   0  0  0  0  0  0  0  0  0  0  0  0
   -1.3590   -0.6440   -0.2760 C   0  0  0  0  0  0  0  0  0  0  0  0
    0.0870   -0.2130   -0.1560 C   0  0  0  0  0  0  0  0  0  0  0  0
    0.6810   -0.3480   -1.5040 C   0  0  0  0  0  0  0  0  0  0  0  0
    2.0880    0.0130   -1.6380 C   0  0  0  0  0  0  0  0  0  0  0  0
    3.0020    0.4530   -0.8420 C   0  0  0  0  0  0  0  0  0  0  0  0
    3.0730    0.7970    0.5580 C   0  0  2  0  0  0  0  0  0  0  0  0
    3.5250    2.2440    0.7830 C   0  0  0  0  0  0  0  0  0  0  0  0
    4.1010   -0.0400    1.3240 C   0  0  0  0  0  0  0  0  0  0  0  0
    5.4890    0.1040    0.8070 C   0  0  0  0  0  0  0  0  0  0  0  0
   -1.7460   -1.9420   -0.2000 C   0  0  0  0  0  0  0  0  0  0  0  0
   -0.8180   -3.0400    0.0960 C   0  0  0  0  0  0  0  0  0  0  0  0
   -0.4470   -3.0700    1.5820 C   0  0  0  0  0  0  0  0  0  0  0  0
   -3.1190   -2.1850   -0.3830 C   0  0  0  0  0  0  0  0  0  0  0  0
   -4.0130   -1.1900   -0.6190 C   0  0  0  0  0  0  0  0  0  0  0  0
   -5.3740   -1.4760   -0.7950 O   0  0  0  0  0  0  0  0  0  0  0  0
  1  2  1  0
  2  3  1  0
  3  4  1  0
  4  5  2  0
  4 19  1  0
  5  6  1  0
  6  7  1  0
  6 15  2  0
  7  8  1  0
  8  9  1  0
  9 10  2  3
 10 11  1  0
 11 12  1  6
 11 13  1  0
 13 14  1  0
 15 16  1  0
 15 18  1  0
 16 17  1  0
 18 19  2  0
 19 20  1  0
M  END
