
     RDKit          3D

 15 15  0  0  0  0  0  0  0  0999 V2000
   -0.9700    2.0090    1.7490 O   0  0  0  0  0  0  0  0  0  0  0  0
   -1.3470    1.5030    0.6230 C   0  0  0  0  0  0  0  0  0  0  0  0
   -1.0500    2.2920   -0.4890 O   0  0  0  0  0  0  0  0  0  0  0  0
   -2.0220    0.2190    0.5140 C   0  0  0  0  0  0  0  0  0  0  0  0
   -1.4480   -0.8080   -0.4020 C   0  0  1  0  0  0  0  0  0  0  0  0
   -0.0820   -1.2640   -0.1080 C   0  0  0  0  0  0  0  0  0  0  0  0
    1.0260   -0.3330   -0.1200 C   0  0  0  0  0  0  0  0  0  0  0  0
    1.5130    0.3000    0.9880 C   0  0  0  0  0  0  0  0  0  0  0  0
    2.5770    1.1730    0.9680 C   0  0  0  0  0  0  0  0  0  0  0  0
    3.1830    1.4200   -0.2360 C   0  0  0  0  0  0  0  0  0  0  0  0
    2.7510    0.8260   -1.3870 C   0  0  0  0  0  0  0  0  0  0  0  0
    1.6740   -0.0490   -1.3210 C   0  0  0  0  0  0  0  0  0  0  0  0
   -2.3290   -2.0410   -0.2930 C   0  0  0  0  0  0  0  0  0  0  0  0
   -2.8730   -2.4790   -1.3220 O   0  0  0  0  0  0  0  0  0  0  0  0
   -2.5340   -2.6760    0.9120 O   0  0  0  0  0  0  0  0  0  0  0  0
  1  2  2  0
  2  3  1  0
  2  4  1  0
  5  4  1  1
  5  6  1  0
  5 13  1  0
  6  7  1  0
  7  8  2  0
  7 12  1  0
  8  9  1  0
  9 10  2  0
 10 11  1  0
 11 12  2  0
 13 14  2  0
 13 15  1  0
M  END
