
     RDKit          3D

 20 20  0  0  0  0  0  0  0  0999 V2000
    2.3890    3.1500    0.5040 C   0  0  0  0  0  0  0  0  0  0  0  0
    1.0960    3.0710    1.1930 C   0  0  0  0  0  0  0  0  0  0  0  0
    0.4470    1.7480    1.2920 C   0  0  0  0  0  0  0  0  0  0  0  0
    0.0430    1.0450    0.0100 C   0  0  1  0  0  0  0  0  0  0  0  0
    1.2130    0.6770   -0.8870 C   0  0  0  0  0  0  0  0  0  0  0  0
    2.1840   -0.2680   -0.2750 C   0  0  0  0  0  0  0  0  0  0  0  0
    3.2890   -0.5010   -1.3150 C   0  0  0  0  0  0  0  0  0  0  0  0
    4.3310   -1.4570   -0.7830 C   0  0  1  0  0  0  0  0  0  0  0  0
    3.7590   -2.7960   -0.4360 C   0  0  0  0  0  0  0  0  0  0  0  0
    5.2730   -1.6320   -1.7940 O   0  0  0  0  0  0  0  0  0  0  0  0
   -0.8270    0.0590    0.1990 O   0  0  0  0  0  0  0  0  0  0  0  0
   -2.0440   -0.4410    0.0820 C   0  0  0  0  0  0  0  0  0  0  0  0
   -2.2320   -1.7690    0.5840 C   0  0  0  0  0  0  0  0  0  0  0  0
   -3.4160   -2.4260    0.5410 C   0  0  0  0  0  0  0  0  0  0  0  0
   -3.5600   -3.8100    1.0760 C   0  0  0  0  0  0  0  0  0  0  0  0
   -4.5160   -1.8040   -0.0110 C   0  0  0  0  0  0  0  0  0  0  0  0
   -4.3690   -0.5300   -0.5010 C   0  0  0  0  0  0  0  0  0  0  0  0
   -3.1680    0.1520   -0.4640 C   0  0  0  0  0  0  0  0  0  0  0  0
   -3.0840    1.5150   -0.9990 C   0  0  0  0  0  0  0  0  0  0  0  0
   -3.0690    2.5310    0.1270 C   0  0  0  0  0  0  0  0  0  0  0  0
  1  2  1  0
  2  3  1  0
  4  3  1  1
  4  5  1  0
  4 11  1  0
  5  6  1  0
  6  7  1  0
  7  8  1  0
  8  9  1  6
  8 10  1  0
 11 12  1  0
 12 13  2  0
 12 18  1  0
 13 14  1  0
 14 15  1  0
 14 16  2  0
 16 17  1  0
 17 18  2  0
 18 19  1  0
 19 20  1  0
M  END
