
     RDKit          3D

 11 11  0  0  0  0  0  0  0  0999 V2000
   -1.5680    1.7990    0.8010 C   0  0  0  0  0  0  0  0  0  0  0  0
   -1.0790    0.5920    0.6920 C   0  0  0  0  0  0  0  0  0  0  0  0
   -1.9230   -0.6090    0.4480 C   0  0  0  0  0  0  0  0  0  0  0  0
   -1.3780   -1.2560   -0.7500 N   0  0  0  0  0  0  0  0  0  0  0  0
    0.0030   -1.0880   -1.0230 C   0  0  0  0  0  0  0  0  0  0  0  0
    0.4820   -1.2390   -2.1790 O   0  0  0  0  0  0  0  0  0  0  0  0
    0.9010   -0.7190    0.1080 C   0  0  1  0  0  0  0  0  0  0  0  0
    2.2280   -0.2830   -0.3880 C   0  0  0  0  0  0  0  0  0  0  0  0
    2.6930    1.0320   -0.1340 N   0  0  0  0  0  0  0  0  0  0  0  0
    2.9510   -1.1030   -1.0480 O   0  0  0  0  0  0  0  0  0  0  0  0
    0.3010    0.3570    0.8010 O   0  0  0  0  0  0  0  0  0  0  0  0
  1  2  2  0
  2  3  1  0
  2 11  1  0
  3  4  1  0
  4  5  1  0
  5  6  2  0
  5  7  1  0
  7  8  1  6
  7 11  1  0
  8  9  1  0
  8 10  2  0
M  END
