
     RDKit          3D

 11 11  0  0  0  0  0  0  0  0999 V2000
   -2.3090    1.1160   -1.0780 C   0  0  0  0  0  0  0  0  0  0  0  0
   -1.8760   -0.2490   -0.6370 C   0  0  2  0  0  0  0  0  0  0  0  0
   -1.4660   -0.2510    0.8420 C   0  0  0  0  0  0  0  0  0  0  0  0
   -0.3910    0.5980    0.9780 O   0  0  0  0  0  0  0  0  0  0  0  0
    0.7650   -0.1190    0.6310 C   0  0  2  0  0  0  0  0  0  0  0  0
    1.9400    0.7480    0.5160 C   0  0  0  0  0  0  0  0  0  0  0  0
    3.2040    0.2100    0.1730 N   0  0  0  0  0  0  0  0  0  0  0  0
    1.8560    1.9810    0.7170 O   0  0  0  0  0  0  0  0  0  0  0  0
    0.4860   -0.8810   -0.6100 C   0  0  0  0  0  0  0  0  0  0  0  0
    1.3500   -1.7550   -0.9810 N   0  0  0  0  0  0  0  0  0  0  0  0
   -0.6830   -0.6430   -1.3360 O   0  0  0  0  0  0  0  0  0  0  0  0
  2  1  1  6
  2  3  1  0
  2 11  1  0
  3  4  1  0
  4  5  1  0
  5  6  1  6
  5  9  1  0
  6  7  1  0
  6  8  2  0
  9 10  2  0
  9 11  1  0
M  END
