
     RDKit          3D

 11 11  0  0  0  0  0  0  0  0999 V2000
   -0.9170    1.7170   -0.3430 C   0  0  0  0  0  0  0  0  0  0  0  0
   -0.2750    0.3490   -0.3950 C   0  0  2  0  0  0  0  0  0  0  0  0
   -1.3150   -0.6730   -0.4790 C   0  0  0  0  0  0  0  0  0  0  0  0
   -1.4300   -1.5110   -1.4470 N   0  0  0  0  0  0  0  0  0  0  0  0
   -2.2540   -0.7440    0.5740 N   0  0  0  0  0  0  0  0  0  0  0  0
    0.5370    0.0750    0.8690 C   0  0  0  0  0  0  0  0  0  0  0  0
    1.2850   -1.0700    0.6020 O   0  0  0  0  0  0  0  0  0  0  0  0
    2.3980   -0.7470   -0.1630 C   0  0  0  0  0  0  0  0  0  0  0  0
    1.9930    0.2220   -1.2170 C   0  0  0  0  0  0  0  0  0  0  0  0
    2.8650    0.9030   -1.8590 O   0  0  0  0  0  0  0  0  0  0  0  0
    0.6330    0.3470   -1.4670 O   0  0  0  0  0  0  0  0  0  0  0  0
  2  1  1  1
  2  3  1  0
  2  6  1  0
  2 11  1  0
  3  4  2  0
  3  5  1  0
  6  7  1  0
  7  8  1  0
  8  9  1  0
  9 10  2  0
  9 11  1  0
M  END
