
     RDKit          3D

 29 31  0  0  0  0  0  0  0  0999 V2000
    6.6990    2.3540    0.4090 C   0  0  0  0  0  0  0  0  0  0  0  0
    5.4720    1.6700    0.2920 O   0  0  0  0  0  0  0  0  0  0  0  0
    5.3120    0.3290    0.6350 C   0  0  0  0  0  0  0  0  0  0  0  0
    6.3230   -0.2650    1.0620 O   0  0  0  0  0  0  0  0  0  0  0  0
    4.0040   -0.3690    0.5020 C   0  0  2  0  0  0  0  0  0  0  0  0
    4.1660   -1.7810    0.9470 C   0  0  0  0  0  0  0  0  0  0  0  0
    3.6220   -0.3190   -0.9540 C   0  0  0  0  0  0  0  0  0  0  0  0
    2.7870   -1.5000   -1.3930 C   0  0  0  0  0  0  0  0  0  0  0  0
    2.0910   -1.1590   -2.6620 C   0  0  0  0  0  0  0  0  0  0  0  0
    0.7830   -1.1800   -2.8510 C   0  0  0  0  0  0  0  0  0  0  0  0
   -0.2330   -1.5480   -1.8260 C   0  0  2  0  0  0  0  0  0  0  0  0
   -1.1270   -2.5910   -2.5270 C   0  0  0  0  0  0  0  0  0  0  0  0
   -1.0170   -0.3080   -1.5010 C   0  0  0  0  0  0  0  0  0  0  0  0
   -1.6660   -0.3610   -0.1300 C   0  0  1  0  0  0  0  0  0  0  0  0
   -0.7610   -0.3930    1.0260 C   0  0  2  0  0  0  0  0  0  0  0  0
   -1.4990   -0.7830    2.1370 O   0  0  0  0  0  0  0  0  0  0  0  0
   -2.6730   -0.1880    2.3660 C   0  0  2  0  0  0  0  0  0  0  0  0
   -3.7380   -1.2920    2.4910 C   0  0  0  0  0  0  0  0  0  0  0  0
   -3.1550    0.8470    1.4100 C   0  0  0  0  0  0  0  0  0  0  0  0
   -2.8060    0.6150   -0.0200 C   0  0  1  0  0  0  0  0  0  0  0  0
   -2.5270    1.8890   -0.7940 C   0  0  0  0  0  0  0  0  0  0  0  0
   -3.7070    2.8230   -0.6500 C   0  0  0  0  0  0  0  0  0  0  0  0
   -4.7540    2.2390   -1.3830 O   0  0  0  0  0  0  0  0  0  0  0  0
   -5.1450    1.0550   -0.8130 C   0  0  0  0  0  0  0  0  0  0  0  0
   -4.0550    0.0260   -0.6910 C   0  0  0  0  0  0  0  0  0  0  0  0
    0.0570    0.7680    1.3810 C   0  0  1  0  0  0  0  0  0  0  0  0
    0.5290    0.5240    2.8320 C   0  0  0  0  0  0  0  0  0  0  0  0
    1.3180    0.9580    0.5870 C   0  0  0  0  0  0  0  0  0  0  0  0
    2.8210    0.5590    1.5400 S   0  0  0  0  0  0  0  0  0  0  0  0
  1  2  1  0
  2  3  1  0
  3  4  2  0
  3  5  1  0
  5  6  1  1
  5  7  1  0
  5 29  1  0
  7  8  1  0
  8  9  1  0
  9 10  2  0
 10 11  1  0
 11 12  1  6
 11 13  1  0
 14 13  1  6
 14 15  1  0
 14 20  1  0
 15 16  1  1
 15 26  1  0
 16 17  1  0
 17 18  1  6
 17 19  1  0
 20 19  1  1
 20 21  1  0
 20 25  1  0
 21 22  1  0
 22 23  1  0
 23 24  1  0
 24 25  1  0
 26 27  1  1
 26 28  1  0
 28 29  1  0
M  END
