
     RDKit          3D

 31 35  0  0  0  0  0  0  0  0999 V2000
   -8.0810   -2.2870    0.8400 C   0  0  0  0  0  0  0  0  0  0  0  0
   -8.8800   -1.3580   -0.0480 C   0  0  0  0  0  0  0  0  0  0  0  0
   -7.9810   -0.2990   -0.6280 C   0  0  0  0  0  0  0  0  0  0  0  0
   -8.3930    0.7080   -1.4820 C   0  0  0  0  0  0  0  0  0  0  0  0
   -7.2600    1.4380   -1.7600 C   0  0  0  0  0  0  0  0  0  0  0  0
   -6.2080    0.8700   -1.0820 C   0  0  0  0  0  0  0  0  0  0  0  0
   -4.8040    1.3340   -1.0940 C   0  0  0  0  0  0  0  0  0  0  0  0
   -4.4670    2.3360   -1.7660 O   0  0  0  0  0  0  0  0  0  0  0  0
   -3.8170    0.6440   -0.3410 N   0  0  0  0  0  0  0  0  0  0  0  0
   -2.4470    1.0610   -0.3260 C   0  0  0  0  0  0  0  0  0  0  0  0
   -1.6420    0.1240    0.5690 C   0  0  0  0  0  0  0  0  0  0  0  0
   -0.2200    0.5340    0.6020 C   0  0  0  0  0  0  0  0  0  0  0  0
    0.7630    0.0990   -0.2570 C   0  0  0  0  0  0  0  0  0  0  0  0
    1.9650    0.6920    0.0740 C   0  0  0  0  0  0  0  0  0  0  0  0
    3.2990    0.5420   -0.5520 C   0  0  2  0  0  0  0  0  0  0  0  0
    3.2530   -0.6220   -1.5270 C   0  0  0  0  0  0  0  0  0  0  0  0
    4.5300   -0.8450   -2.0900 O   0  0  0  0  0  0  0  0  0  0  0  0
    5.6170   -0.7980   -1.2120 C   0  0  0  0  0  0  0  0  0  0  0  0
    6.8200   -1.3610   -1.5730 C   0  0  0  0  0  0  0  0  0  0  0  0
    7.9060   -1.3310   -0.7330 C   0  0  0  0  0  0  0  0  0  0  0  0
    7.7860   -0.7170    0.5130 C   0  0  0  0  0  0  0  0  0  0  0  0
    8.8360   -0.6700    1.3640 N   0  0  0  0  0  0  0  0  0  0  0  0
    8.7260   -0.0760    2.5730 C   0  0  0  0  0  0  0  0  0  0  0  0
    7.5430    0.5010    2.9780 C   0  0  0  0  0  0  0  0  0  0  0  0
    6.4560    0.4690    2.1340 C   0  0  0  0  0  0  0  0  0  0  0  0
    6.5830   -0.1480    0.8870 C   0  0  0  0  0  0  0  0  0  0  0  0
    5.5110   -0.1920    0.0250 C   0  0  0  0  0  0  0  0  0  0  0  0
    4.3190    0.3810    0.4160 O   0  0  0  0  0  0  0  0  0  0  0  0
    1.6840    1.4760    1.1290 N   0  0  0  0  0  0  0  0  0  0  0  0
    0.3860    1.3810    1.4410 N   0  0  0  0  0  0  0  0  0  0  0  0
   -6.6940   -0.1500   -0.4330 O   0  0  0  0  0  0  0  0  0  0  0  0
  1  2  1  0
  2  3  1  0
  3  4  2  0
  3 31  1  0
  4  5  1  0
  5  6  2  0
  6  7  1  0
  6 31  1  0
  7  8  2  0
  7  9  1  0
  9 10  1  0
 10 11  1  0
 11 12  1  0
 12 13  1  0
 12 30  2  0
 13 14  2  0
 15 14  1  1
 14 29  1  0
 15 16  1  0
 15 28  1  0
 16 17  1  0
 17 18  1  0
 18 19  2  0
 18 27  1  0
 19 20  1  0
 20 21  2  0
 21 22  1  0
 21 26  1  0
 22 23  2  0
 23 24  1  0
 24 25  2  0
 25 26  1  0
 26 27  2  0
 27 28  1  0
 29 30  1  0
M  END
