
     RDKit          3D

 29 32  0  0  0  0  0  0  0  0999 V2000
   -4.0510    0.6210   -2.9110 C   0  0  0  0  0  0  0  0  0  0  0  0
   -3.7340    1.7210   -1.9520 C   0  0  1  0  0  0  0  0  0  0  0  0
   -4.9190    2.6190   -1.6670 C   0  0  0  0  0  0  0  0  0  0  0  0
   -3.1380    1.1840   -0.6480 C   0  0  2  0  0  0  0  0  0  0  0  0
   -2.8390    2.3260    0.2750 C   0  0  0  0  0  0  0  0  0  0  0  0
   -1.3510    2.2660    0.6150 C   0  0  0  0  0  0  0  0  0  0  0  0
   -1.0600    0.9010    1.1990 C   0  0  0  0  0  0  0  0  0  0  0  0
   -1.2090   -0.2080    0.1690 C   0  0  2  0  0  0  0  0  0  0  0  0
   -2.1880   -1.1950    0.7030 C   0  0  0  0  0  0  0  0  0  0  0  0
   -1.4240   -2.3380    1.9170 S   0  0  0  0  0  0  0  0  0  0  0  0
    0.3760   -2.1600    1.5800 C   0  0  0  0  0  0  0  0  0  0  0  0
    0.4310   -1.8860    0.0660 C   0  0  2  0  0  0  0  0  0  0  0  0
   -0.3690   -2.9100   -0.6530 C   0  0  0  0  0  0  0  0  0  0  0  0
    0.3540   -4.0390   -1.2830 C   0  0  0  0  0  0  0  0  0  0  0  0
    1.6770   -3.7080   -1.8820 C   0  0  0  0  0  0  0  0  0  0  0  0
    2.0290   -2.2660   -1.7330 C   0  0  0  0  0  0  0  0  0  0  0  0
    1.9180   -1.9150   -0.2740 C   0  0  2  0  0  0  0  0  0  0  0  0
    2.6540   -2.9070    0.6040 C   0  0  0  0  0  0  0  0  0  0  0  0
    2.5800   -0.6070   -0.0670 C   0  0  0  0  0  0  0  0  0  0  0  0
    3.1250   -0.0290   -1.0380 O   0  0  0  0  0  0  0  0  0  0  0  0
    2.6480    0.0510    1.1510 O   0  0  0  0  0  0  0  0  0  0  0  0
    3.2720    1.2800    1.3520 C   0  0  1  0  0  0  0  0  0  0  0  0
    2.4180    2.3890    1.8590 C   0  0  0  0  0  0  0  0  0  0  0  0
    3.4760    3.4780    2.0960 C   0  0  0  0  0  0  0  0  0  0  0  0
    4.6970    2.7040    2.5850 C   0  0  0  0  0  0  0  0  0  0  0  0
    4.3860    1.2590    2.3180 C   0  0  0  0  0  0  0  0  0  0  0  0
    4.9740    0.3500    2.8290 O   0  0  0  0  0  0  0  0  0  0  0  0
   -0.0030   -0.6320   -0.2020 O   0  0  0  0  0  0  0  0  0  0  0  0
   -1.8820    0.4430   -1.0500 C   0  0  0  0  0  0  0  0  0  0  0  0
  2  1  1  6
  2  3  1  0
  2  4  1  0
  4  5  1  1
  4 29  1  0
  5  6  1  0
  6  7  1  0
  8  7  1  1
  8  9  1  0
  8 28  1  0
  8 29  1  0
  9 10  1  0
 10 11  1  0
 12 11  1  1
 12 13  1  0
 12 17  1  0
 12 28  1  0
 13 14  1  0
 14 15  1  0
 15 16  1  0
 16 17  1  0
 17 18  1  1
 17 19  1  0
 19 20  2  0
 19 21  1  0
 22 21  1  1
 22 23  1  0
 22 26  1  0
 23 24  1  0
 24 25  1  0
 25 26  1  0
 26 27  2  0
M  END
