
     RDKit          3D

 31 32  0  0  0  0  0  0  0  0999 V2000
   -7.5660    0.6930    0.7240 C   0  0  0  0  0  0  0  0  0  0  0  0
   -7.0390   -0.3720   -0.0880 N   0  0  0  0  0  0  0  0  0  0  0  0
   -5.6910   -0.8020    0.1000 C   0  0  0  0  0  0  0  0  0  0  0  0
   -4.7170    0.2920   -0.3460 C   0  0  0  0  0  0  0  0  0  0  0  0
   -3.3150   -0.2840   -0.0960 C   0  0  2  0  0  0  0  0  0  0  0  0
   -3.1770   -0.5840    1.3190 N   0  0  0  0  0  0  0  0  0  0  0  0
   -2.3460    0.7930   -0.4540 C   0  0  0  0  0  0  0  0  0  0  0  0
   -0.9270    0.4020   -0.2810 C   0  0  0  0  0  0  0  0  0  0  0  0
   -0.7150   -0.7990    0.0930 O   0  0  0  0  0  0  0  0  0  0  0  0
    0.1180    1.3120   -0.5190 N   0  0  0  0  0  0  0  0  0  0  0  0
    1.4900    0.9600   -0.3580 C   0  0  1  0  0  0  0  0  0  0  0  0
    2.3350    1.2500   -1.5320 C   0  0  0  0  0  0  0  0  0  0  0  0
    3.6090    1.5060   -1.3340 C   0  0  0  0  0  0  0  0  0  0  0  0
    4.2460    1.5190    0.0110 C   0  0  2  0  0  0  0  0  0  0  0  0
    5.4630    0.7320   -0.0340 N   0  0  0  0  0  0  0  0  0  0  0  0
    5.4620   -0.6590   -0.3230 C   0  0  0  0  0  0  0  0  0  0  0  0
    6.5260   -1.4210   -0.3780 C   0  0  0  0  0  0  0  0  0  0  0  0
    7.8790   -0.9090   -0.1400 C   0  0  1  0  0  0  0  0  0  0  0  0
    8.5910   -1.7190    0.8470 N   0  0  0  0  0  0  0  0  0  0  0  0
    8.6240   -1.0780   -1.3460 O   0  0  0  0  0  0  0  0  0  0  0  0
    7.9130    0.4670    0.1500 N   0  0  0  0  0  0  0  0  0  0  0  0
    6.7600    1.2750    0.2050 C   0  0  0  0  0  0  0  0  0  0  0  0
    6.8110    2.5120    0.4660 O   0  0  0  0  0  0  0  0  0  0  0  0
    3.3790    1.0760    1.0030 O   0  0  0  0  0  0  0  0  0  0  0  0
    2.1400    1.7170    0.8100 C   0  0  2  0  0  0  0  0  0  0  0  0
    1.3100    1.6960    2.0070 C   0  0  0  0  0  0  0  0  0  0  0  0
    0.1790    2.2240    2.0010 O   0  0  0  0  0  0  0  0  0  0  0  0
    1.7540    1.0940    3.1650 O   0  0  0  0  0  0  0  0  0  0  0  0
   -7.7780   -0.9290   -0.9730 C   0  0  0  0  0  0  0  0  0  0  0  0
   -9.1280   -0.4770   -1.1390 N   0  0  0  0  0  0  0  0  0  0  0  0
   -7.2530   -1.9850   -1.7750 N   0  0  0  0  0  0  0  0  0  0  0  0
  1  2  1  0
  2  3  1  0
  2 29  2  3
  3  4  1  0
  4  5  1  0
  5  6  1  1
  5  7  1  0
  7  8  1  0
  8  9  2  0
  8 10  1  0
 11 10  1  6
 11 12  1  0
 11 25  1  0
 12 13  2  0
 13 14  1  0
 14 15  1  6
 14 24  1  0
 15 16  1  0
 15 22  1  0
 16 17  2  0
 17 18  1  0
 18 19  1  1
 18 20  1  0
 18 21  1  0
 21 22  1  0
 22 23  2  0
 24 25  1  0
 25 26  1  1
 26 27  2  0
 26 28  1  0
 29 30  1  0
 29 31  1  0
M  CHG  3   2   1   6   1  19   1
M  END
