
     RDKit          3D

 28 31  0  0  0  0  0  0  0  0999 V2000
   -5.3970    1.5550    1.1140 C   0  0  0  0  0  0  0  0  0  0  0  0
   -4.4350    1.4890   -0.0810 C   0  0  1  0  0  0  0  0  0  0  0  0
   -3.3350    2.4540    0.1880 C   0  0  0  0  0  0  0  0  0  0  0  0
   -1.9530    1.8360   -0.0950 C   0  0  1  0  0  0  0  0  0  0  0  0
   -1.6310    0.9700    1.0620 C   0  0  0  0  0  0  0  0  0  0  0  0
   -1.2600   -0.4600    0.7600 C   0  0  1  0  0  0  0  0  0  0  0  0
    0.3040   -0.4500    0.7290 C   0  0  0  0  0  0  0  0  0  0  0  0
    0.8270   -1.7870    0.4610 C   0  0  0  0  0  0  0  0  0  0  0  0
    2.2860   -1.9900    0.3840 C   0  0  0  0  0  0  0  0  0  0  0  0
    3.3260   -1.2160    0.5060 C   0  0  0  0  0  0  0  0  0  0  0  0
    3.4000    0.2400    0.7880 C   0  0  0  0  0  0  0  0  0  0  0  0
    4.0690    1.0510   -0.3020 C   0  0  2  0  0  0  0  0  0  0  0  0
    3.9870    2.5100    0.2140 C   0  0  0  0  0  0  0  0  0  0  0  0
    3.3810    0.9160   -1.6180 C   0  0  0  0  0  0  0  0  0  0  0  0
    5.5750    0.7870   -0.3800 C   0  0  0  0  0  0  0  0  0  0  0  0
    4.5740   -2.0070    0.2890 C   0  0  0  0  0  0  0  0  0  0  0  0
    4.0710   -3.3700    0.0840 C   0  0  0  0  0  0  0  0  0  0  0  0
    4.7720   -4.3890   -0.0940 O   0  0  0  0  0  0  0  0  0  0  0  0
    2.7320   -3.3130    0.1240 O   0  0  0  0  0  0  0  0  0  0  0  0
   -1.5950   -1.2540    1.9880 C   0  0  0  0  0  0  0  0  0  0  0  0
   -2.0590   -2.9160    1.3870 S   0  0  0  0  0  0  0  0  0  0  0  0
   -2.2850   -2.4170   -0.3430 C   0  0  0  0  0  0  0  0  0  0  0  0
   -1.7870   -1.0380   -0.4470 C   0  0  1  0  0  0  0  0  0  0  0  0
   -2.8950   -0.2100   -1.1350 C   0  0  1  0  0  0  0  0  0  0  0  0
   -3.2830   -0.8560   -2.4320 C   0  0  0  0  0  0  0  0  0  0  0  0
   -4.0540    0.0620   -0.2550 C   0  0  0  0  0  0  0  0  0  0  0  0
   -2.1770    1.1000   -1.3820 C   0  0  0  0  0  0  0  0  0  0  0  0
   -1.8430    1.4750   -2.4660 O   0  0  0  0  0  0  0  0  0  0  0  0
  2  1  1  1
  2  3  1  0
  2 26  1  0
  4  3  1  1
  4  5  1  0
  4 27  1  0
  5  6  1  0
  6  7  1  6
  6 20  1  0
  6 23  1  0
  7  8  1  0
  8  9  1  0
  9 10  2  0
  9 19  1  0
 10 11  1  0
 10 16  1  0
 11 12  1  0
 12 13  1  1
 12 14  1  0
 12 15  1  0
 16 17  1  0
 17 18  2  0
 17 19  1  0
 20 21  1  0
 21 22  1  0
 23 22  1  1
 23 24  1  0
 24 25  1  6
 24 26  1  0
 24 27  1  0
 27 28  2  0
M  END
