
     RDKit          3D

 19 21  0  0  0  0  0  0  0  0999 V2000
   -5.7690    0.3160   -0.1210 C   0  0  0  0  0  0  0  0  0  0  0  0
   -4.3260    0.0600    0.1140 C   0  0  0  0  0  0  0  0  0  0  0  0
   -3.9590   -1.1520    0.6530 C   0  0  0  0  0  0  0  0  0  0  0  0
   -2.6200   -1.4150    0.8800 C   0  0  0  0  0  0  0  0  0  0  0  0
   -1.6770   -0.4830    0.5730 N   0  0  0  0  0  0  0  0  0  0  0  0
   -2.0530    0.6830    0.0530 C   0  0  0  0  0  0  0  0  0  0  0  0
   -1.0710    1.7320   -0.2990 C   0  0  0  0  0  0  0  0  0  0  0  0
    0.2870    1.3430   -0.0280 N   0  0  0  0  0  0  0  0  0  0  0  0
    1.0400    0.4460   -0.8280 C   0  0  0  0  0  0  0  0  0  0  0  0
    0.4960   -0.0450   -1.8420 O   0  0  0  0  0  0  0  0  0  0  0  0
    2.4250    0.0830   -0.5030 C   0  0  0  0  0  0  0  0  0  0  0  0
    3.2530   -0.7670   -1.1980 C   0  0  0  0  0  0  0  0  0  0  0  0
    4.4550   -0.8070   -0.5290 C   0  0  0  0  0  0  0  0  0  0  0  0
    5.7370   -1.3090   -0.4600 C   0  0  0  0  0  0  0  0  0  0  0  0
    6.3530   -0.8130    0.6070 O   0  0  0  0  0  0  0  0  0  0  0  0
    5.5490   -0.0090    1.2520 C   0  0  0  0  0  0  0  0  0  0  0  0
    4.3290    0.0240    0.5620 C   0  0  0  0  0  0  0  0  0  0  0  0
    3.1190    0.5130    0.5190 O   0  0  0  0  0  0  0  0  0  0  0  0
   -3.3500    0.9330   -0.1660 N   0  0  0  0  0  0  0  0  0  0  0  0
  1  2  1  0
  2  3  2  0
  2 19  1  0
  3  4  1  0
  4  5  2  0
  5  6  1  0
  6  7  1  0
  6 19  2  0
  7  8  1  0
  8  9  1  0
  9 10  2  0
  9 11  1  0
 11 12  2  0
 11 18  1  0
 12 13  1  0
 13 14  2  0
 13 17  1  0
 14 15  1  0
 15 16  1  0
 16 17  2  0
 17 18  1  0
M  END
