
     RDKit          3D

 19 21  0  0  0  0  0  0  0  0999 V2000
   -4.5380   -1.0990   -1.8400 C   0  0  0  0  0  0  0  0  0  0  0  0
   -4.0460   -0.1410   -0.7800 C   0  0  0  0  0  0  0  0  0  0  0  0
   -4.9020    0.5530   -0.2030 O   0  0  0  0  0  0  0  0  0  0  0  0
   -2.6710   -0.0530   -0.4740 N   0  0  0  0  0  0  0  0  0  0  0  0
   -2.1070    0.7940    0.4840 C   0  0  0  0  0  0  0  0  0  0  0  0
   -2.7890    1.6620    1.2670 C   0  0  0  0  0  0  0  0  0  0  0  0
   -2.0490    2.4370    2.1780 C   0  0  0  0  0  0  0  0  0  0  0  0
   -0.7120    2.3360    2.2840 N   0  0  0  0  0  0  0  0  0  0  0  0
   -0.0060    1.4860    1.5240 C   0  0  0  0  0  0  0  0  0  0  0  0
    1.2600    1.1740    1.4020 O   0  0  0  0  0  0  0  0  0  0  0  0
    1.4380    0.2610    0.4930 C   0  0  0  0  0  0  0  0  0  0  0  0
    2.7400   -0.3210    0.1010 C   0  0  0  0  0  0  0  0  0  0  0  0
    2.8280   -1.2350   -0.8220 C   0  0  0  0  0  0  0  0  0  0  0  0
    4.1260   -1.8560   -1.2550 C   0  0  0  0  0  0  0  0  0  0  0  0
    5.2140   -1.3280   -0.5430 O   0  0  0  0  0  0  0  0  0  0  0  0
    5.1220   -0.3650    0.4310 C   0  0  0  0  0  0  0  0  0  0  0  0
    3.9570    0.1340    0.7590 C   0  0  0  0  0  0  0  0  0  0  0  0
    0.2260   -0.0320    0.0020 N   0  0  0  0  0  0  0  0  0  0  0  0
   -0.7020    0.7170    0.6260 C   0  0  0  0  0  0  0  0  0  0  0  0
  1  2  1  0
  2  3  2  0
  2  4  1  0
  4  5  1  0
  5  6  2  0
  5 19  1  0
  6  7  1  0
  7  8  2  0
  8  9  1  0
  9 10  1  0
  9 19  2  0
 10 11  1  0
 11 12  1  0
 11 18  2  0
 12 13  2  0
 12 17  1  0
 13 14  1  0
 14 15  1  0
 15 16  1  0
 16 17  2  0
 18 19  1  0
M  END
