
     RDKit          3D

 19 21  0  0  0  0  0  0  0  0999 V2000
   -0.0740    1.6070    0.5010 O   0  0  0  0  0  0  0  0  0  0  0  0
    0.6090    0.6070    0.2710 C   0  0  0  0  0  0  0  0  0  0  0  0
    2.0440    0.8770    0.0260 C   0  0  0  0  0  0  0  0  0  0  0  0
    2.7480    1.6520    0.9040 C   0  0  0  0  0  0  0  0  0  0  0  0
    4.0620    1.9260    0.6290 C   0  0  0  0  0  0  0  0  0  0  0  0
    4.6970    1.4700   -0.4640 N   0  0  0  0  0  0  0  0  0  0  0  0
    4.0040    0.7090   -1.3260 C   0  0  0  0  0  0  0  0  0  0  0  0
    2.6620    0.3940   -1.1020 C   0  0  0  0  0  0  0  0  0  0  0  0
    0.1180   -0.7160    0.2290 N   0  0  0  0  0  0  0  0  0  0  0  0
   -1.1230   -1.1880    0.2300 C   0  0  0  0  0  0  0  0  0  0  0  0
   -2.3950   -0.4890    0.1170 C   0  0  0  0  0  0  0  0  0  0  0  0
   -2.7530    0.8110   -0.0770 C   0  0  0  0  0  0  0  0  0  0  0  0
   -4.1570    0.8590   -0.0200 C   0  0  0  0  0  0  0  0  0  0  0  0
   -4.6550   -0.3460    0.1960 N   0  0  0  0  0  0  0  0  0  0  0  0
   -3.6210   -1.1640    0.2800 C   0  0  0  0  0  0  0  0  0  0  0  0
   -1.0140   -2.5890    0.3700 C   0  0  0  0  0  0  0  0  0  0  0  0
    0.2490   -2.8930    0.4410 O   0  0  0  0  0  0  0  0  0  0  0  0
    0.9700   -1.8080    0.3610 C   0  0  0  0  0  0  0  0  0  0  0  0
    2.2210   -1.7360    0.3970 O   0  0  0  0  0  0  0  0  0  0  0  0
  1  2  2  0
  2  3  1  0
  2  9  1  0
  3  4  2  0
  3  8  1  0
  4  5  1  0
  5  6  2  0
  6  7  1  0
  7  8  2  0
  9 10  1  0
  9 18  1  0
 10 11  1  0
 10 16  2  0
 11 12  1  0
 11 15  2  0
 12 13  2  0
 13 14  1  0
 14 15  1  0
 16 17  1  0
 17 18  1  0
 18 19  2  0
M  END
