
     RDKit          3D

 18 20  0  0  0  0  0  0  0  0999 V2000
    4.6990   -1.5820    0.3380 C   0  0  0  0  0  0  0  0  0  0  0  0
    3.5080   -0.8550   -0.1700 C   0  0  0  0  0  0  0  0  0  0  0  0
    3.3780   -0.1430   -1.3450 C   0  0  0  0  0  0  0  0  0  0  0  0
    2.1490    0.3510   -1.4160 O   0  0  0  0  0  0  0  0  0  0  0  0
    1.4470    0.0220   -0.3760 C   0  0  0  0  0  0  0  0  0  0  0  0
    0.0930    0.3700   -0.1070 N   0  0  0  0  0  0  0  0  0  0  0  0
   -0.9280   -0.4880   -0.1970 N   0  0  0  0  0  0  0  0  0  0  0  0
   -2.0650    0.1430    0.1180 C   0  0  0  0  0  0  0  0  0  0  0  0
   -3.3930   -0.4880    0.1270 C   0  0  0  0  0  0  0  0  0  0  0  0
   -3.6860   -1.8000   -0.1790 C   0  0  0  0  0  0  0  0  0  0  0  0
   -5.0680   -1.9730   -0.0420 C   0  0  0  0  0  0  0  0  0  0  0  0
   -5.5610   -0.8330    0.3220 O   0  0  0  0  0  0  0  0  0  0  0  0
   -4.6070    0.0880    0.4380 C   0  0  0  0  0  0  0  0  0  0  0  0
   -1.7310    1.3940    0.4020 N   0  0  0  0  0  0  0  0  0  0  0  0
   -0.4030    1.5710    0.2740 C   0  0  0  0  0  0  0  0  0  0  0  0
    0.4050    2.7740    0.4830 C   0  0  0  0  0  0  0  0  0  0  0  0
    0.5450    3.5440   -0.6680 O   0  0  0  0  0  0  0  0  0  0  0  0
    2.2770   -0.7490    0.4470 C   0  0  0  0  0  0  0  0  0  0  0  0
  1  2  1  0
  2  3  2  0
  2 18  1  0
  3  4  1  0
  4  5  1  0
  5  6  1  0
  5 18  2  0
  6  7  1  0
  6 15  1  0
  7  8  2  0
  8  9  1  0
  8 14  1  0
  9 10  1  0
  9 13  2  0
 10 11  2  0
 11 12  1  0
 12 13  1  0
 14 15  2  0
 15 16  1  0
 16 17  1  0
M  END
