
     RDKit          3D

 19 21  0  0  0  0  0  0  0  0999 V2000
    6.3990    0.1940    0.1950 C   0  0  0  0  0  0  0  0  0  0  0  0
    5.1280    0.4790    0.7260 O   0  0  0  0  0  0  0  0  0  0  0  0
    3.9910    0.0660    0.0520 C   0  0  0  0  0  0  0  0  0  0  0  0
    2.7110    0.3300    0.5460 C   0  0  0  0  0  0  0  0  0  0  0  0
    1.5810   -0.0750   -0.1160 C   0  0  0  0  0  0  0  0  0  0  0  0
    0.2520    0.2110    0.4180 C   0  0  0  0  0  0  0  0  0  0  0  0
    0.0340    0.8720    1.5630 N   0  0  0  0  0  0  0  0  0  0  0  0
   -1.2340    0.9420    1.7240 O   0  0  0  0  0  0  0  0  0  0  0  0
   -1.8940    0.3670    0.7540 C   0  0  0  0  0  0  0  0  0  0  0  0
   -3.3610    0.2480    0.5960 C   0  0  0  0  0  0  0  0  0  0  0  0
   -4.2910    0.7040    1.4110 C   0  0  0  0  0  0  0  0  0  0  0  0
   -5.6530    0.3900    0.9110 C   0  0  0  0  0  0  0  0  0  0  0  0
   -5.3730   -0.3310   -0.3380 C   0  0  0  0  0  0  0  0  0  0  0  0
   -4.0620   -0.4020   -0.5010 C   0  0  0  0  0  0  0  0  0  0  0  0
   -3.4540   -1.0190   -1.5850 O   0  0  0  0  0  0  0  0  0  0  0  0
   -0.9480   -0.0980   -0.0760 N   0  0  0  0  0  0  0  0  0  0  0  0
    1.7470   -0.7600   -1.3010 C   0  0  0  0  0  0  0  0  0  0  0  0
    3.0190   -1.0330   -1.8120 C   0  0  0  0  0  0  0  0  0  0  0  0
    4.1020   -0.6040   -1.1070 N   0  0  0  0  0  0  0  0  0  0  0  0
  1  2  1  0
  2  3  1  0
  3  4  2  0
  3 19  1  0
  4  5  1  0
  5  6  1  0
  5 17  2  0
  6  7  2  0
  6 16  1  0
  7  8  1  0
  8  9  1  0
  9 10  1  0
  9 16  2  0
 10 11  2  0
 10 14  1  0
 11 12  1  0
 12 13  1  0
 13 14  2  0
 14 15  1  0
 17 18  1  0
 18 19  2  0
M  END
