
     RDKit          3D

 13 13  0  0  0  0  0  0  0  0999 V2000
    2.7480    1.5940   -0.3250 C   0  0  0  0  0  0  0  0  0  0  0  0
    1.5260    0.9630   -0.5430 O   0  0  0  0  0  0  0  0  0  0  0  0
    1.1340    0.1880    0.5340 C   0  0  1  0  0  0  0  0  0  0  0  0
   -0.0260    0.7520    1.0600 O   0  0  0  0  0  0  0  0  0  0  0  0
   -1.0080    0.6970    0.0920 C   0  0  2  0  0  0  0  0  0  0  0  0
   -2.2010    1.5610    0.4060 C   0  0  0  0  0  0  0  0  0  0  0  0
   -2.8060    1.1960    1.5850 O   0  0  0  0  0  0  0  0  0  0  0  0
   -1.3900   -0.7570   -0.0800 C   0  0  1  0  0  0  0  0  0  0  0  0
   -2.5850   -0.9440   -0.7150 O   0  0  0  0  0  0  0  0  0  0  0  0
   -0.2180   -1.4100   -0.7930 C   0  0  2  0  0  0  0  0  0  0  0  0
   -0.4420   -2.7150   -1.1300 O   0  0  0  0  0  0  0  0  0  0  0  0
    0.9820   -1.2450    0.1480 C   0  0  1  0  0  0  0  0  0  0  0  0
    2.1370   -1.6750   -0.4580 O   0  0  0  0  0  0  0  0  0  0  0  0
  1  2  1  0
  3  2  1  6
  3  4  1  0
  3 12  1  0
  4  5  1  0
  5  6  1  1
  5  8  1  0
  6  7  1  0
  8  9  1  6
  8 10  1  0
 10 11  1  1
 10 12  1  0
 12 13  1  6
M  END
