
     RDKit          3D

 13 13  0  0  0  0  0  0  0  0999 V2000
    3.9680    0.3600    0.2150 C   0  0  0  0  0  0  0  0  0  0  0  0
    2.6260    0.2690    0.6530 O   0  0  0  0  0  0  0  0  0  0  0  0
    1.6510   -0.2900   -0.1510 C   0  0  0  0  0  0  0  0  0  0  0  0
    2.0150   -0.7100   -1.2820 O   0  0  0  0  0  0  0  0  0  0  0  0
    0.2500   -0.3920    0.2910 C   0  0  2  0  0  0  0  0  0  0  0  0
    0.1500    0.1550    1.5840 O   0  0  0  0  0  0  0  0  0  0  0  0
   -0.1680   -1.7170    0.3980 O   0  0  0  0  0  0  0  0  0  0  0  0
   -1.5590   -1.5790    0.4410 C   0  0  2  0  0  0  0  0  0  0  0  0
   -2.2310   -2.7700    0.4250 O   0  0  0  0  0  0  0  0  0  0  0  0
   -1.7900   -0.7570   -0.8350 C   0  0  0  0  0  0  0  0  0  0  0  0
   -0.6950    0.3020   -0.6460 C   0  0  1  0  0  0  0  0  0  0  0  0
   -1.3830    1.4710    0.0520 C   0  0  0  0  0  0  0  0  0  0  0  0
   -2.2480    2.0850   -0.8520 O   0  0  0  0  0  0  0  0  0  0  0  0
  1  2  1  0
  2  3  1  0
  3  4  2  0
  3  5  1  0
  5  6  1  1
  5  7  1  0
  5 11  1  0
  7  8  1  0
  8  9  1  6
  8 10  1  0
 10 11  1  0
 11 12  1  1
 12 13  1  0
M  END
