
     RDKit          3D

 13 13  0  0  0  0  0  0  0  0999 V2000
    4.3760   -0.8160   -0.8630 O   0  0  0  0  0  0  0  0  0  0  0  0
    3.5950   -0.0090   -0.0370 C   0  0  0  0  0  0  0  0  0  0  0  0
    2.2700   -0.2380   -0.3850 O   0  0  0  0  0  0  0  0  0  0  0  0
    1.3900    0.5320    0.3930 C   0  0  0  0  0  0  0  0  0  0  0  0
    0.0060    0.1980   -0.0760 C   0  0  1  0  0  0  0  0  0  0  0  0
   -0.0560    0.5390   -1.4420 O   0  0  0  0  0  0  0  0  0  0  0  0
   -0.2910   -1.2830   -0.0020 C   0  0  0  0  0  0  0  0  0  0  0  0
   -1.4390   -1.4950   -0.7650 O   0  0  0  0  0  0  0  0  0  0  0  0
   -2.5380   -0.8400   -0.2680 C   0  0  2  0  0  0  0  0  0  0  0  0
   -3.6120   -1.1140   -1.1220 O   0  0  0  0  0  0  0  0  0  0  0  0
   -2.3590    0.6510   -0.1440 C   0  0  2  0  0  0  0  0  0  0  0  0
   -2.2060    1.2480   -1.4060 O   0  0  0  0  0  0  0  0  0  0  0  0
   -1.0800    0.9100    0.6600 C   0  0  0  0  0  0  0  0  0  0  0  0
  1  2  1  0
  2  3  1  0
  3  4  1  0
  4  5  1  0
  5  6  1  6
  5  7  1  0
  5 13  1  0
  7  8  1  0
  8  9  1  0
  9 10  1  6
  9 11  1  0
 11 12  1  6
 11 13  1  0
M  END
