
     RDKit          3D

 13 13  0  0  0  0  0  0  0  0999 V2000
   -2.2400   -0.0550    1.1280 C   0  0  0  0  0  0  0  0  0  0  0  0
   -2.3180   -0.5090   -0.3310 C   0  0  1  0  0  0  0  0  0  0  0  0
   -2.6300   -1.8420   -0.4500 O   0  0  0  0  0  0  0  0  0  0  0  0
   -3.4180    0.2010   -0.8730 O   0  0  0  0  0  0  0  0  0  0  0  0
   -1.1090   -0.0750   -1.0870 C   0  0  2  0  0  0  0  0  0  0  0  0
   -1.3290   -0.3330   -2.4390 O   0  0  0  0  0  0  0  0  0  0  0  0
    0.0820   -0.5550   -0.6190 O   0  0  0  0  0  0  0  0  0  0  0  0
    0.9980    0.3480   -0.1900 C   0  0  1  0  0  0  0  0  0  0  0  0
    1.5880    0.0860    1.1570 C   0  0  0  0  0  0  0  0  0  0  0  0
    2.7370   -0.6960    0.9110 O   0  0  0  0  0  0  0  0  0  0  0  0
    3.3550    0.1060   -0.0750 C   0  0  0  0  0  0  0  0  0  0  0  0
    2.2330    0.2130   -1.0890 C   0  0  2  0  0  0  0  0  0  0  0  0
    2.4470    1.3390   -1.8480 O   0  0  0  0  0  0  0  0  0  0  0  0
  2  1  1  1
  2  3  1  0
  2  4  1  0
  2  5  1  0
  5  6  1  6
  5  7  1  0
  8  7  1  6
  8  9  1  0
  8 12  1  0
  9 10  1  0
 10 11  1  0
 11 12  1  0
 12 13  1  6
M  END
