
     RDKit          3D

 13 13  0  0  0  0  0  0  0  0999 V2000
    2.0780    1.1690    1.7510 O   0  0  0  0  0  0  0  0  0  0  0  0
    2.5220    0.0670    1.0620 C   0  0  0  0  0  0  0  0  0  0  0  0
    1.4070   -0.6250    0.3200 C   0  0  2  0  0  0  0  0  0  0  0  0
    2.0390   -1.7140   -0.3340 O   0  0  0  0  0  0  0  0  0  0  0  0
    0.8170    0.2260   -0.5430 O   0  0  0  0  0  0  0  0  0  0  0  0
   -0.5100    0.4450   -0.5310 C   0  0  2  0  0  0  0  0  0  0  0  0
   -0.8880    1.5130   -1.5690 C   0  0  0  0  0  0  0  0  0  0  0  0
   -0.5410    1.1400   -2.8420 O   0  0  0  0  0  0  0  0  0  0  0  0
   -0.9980    0.9270    0.7880 C   0  0  0  0  0  0  0  0  0  0  0  0
   -2.3340    0.5080    0.8940 O   0  0  0  0  0  0  0  0  0  0  0  0
   -2.3680   -0.7680    0.3340 C   0  0  0  0  0  0  0  0  0  0  0  0
   -1.3580   -0.7970   -0.7650 C   0  0  2  0  0  0  0  0  0  0  0  0
   -0.5640   -1.9210   -0.6190 O   0  0  0  0  0  0  0  0  0  0  0  0
  1  2  1  0
  2  3  1  0
  3  4  1  6
  3  5  1  0
  5  6  1  0
  6  7  1  6
  6  9  1  0
  6 12  1  0
  7  8  1  0
  9 10  1  0
 10 11  1  0
 11 12  1  0
 12 13  1  1
M  END
