
     RDKit          3D

 20 21  0  0  0  0  0  0  0  0999 V2000
    4.2010    1.0190    2.3730 C   0  0  0  0  0  0  0  0  0  0  0  0
    4.6090    1.1690    1.1440 C   0  0  0  0  0  0  0  0  0  0  0  0
    4.1910    0.3790    0.0200 C   0  0  0  0  0  0  0  0  0  0  0  0
    4.6890    0.6530   -1.1870 C   0  0  0  0  0  0  0  0  0  0  0  0
    3.0490   -0.9750    0.1460 S   0  0  2  0  0  0  0  0  0  0  0  0
    3.2570   -1.6030    1.4820 O   0  0  0  0  0  0  0  0  0  0  0  0
    3.3620   -1.9760   -0.9400 O   0  0  0  0  0  0  0  0  0  0  0  0
    1.4520   -0.2880    0.0070 C   0  0  0  0  0  0  0  0  0  0  0  0
    0.2960   -1.2030    0.1000 C   0  0  2  0  0  0  0  0  0  0  0  0
    0.3260   -2.2370   -0.9810 C   0  0  0  0  0  0  0  0  0  0  0  0
   -0.1180   -1.4670   -2.1540 N   0  0  0  0  0  0  0  0  0  0  0  0
   -0.8010   -0.4440   -1.7470 C   0  0  0  0  0  0  0  0  0  0  0  0
   -1.4130    0.5610   -2.6460 C   0  0  0  0  0  0  0  0  0  0  0  0
   -2.5310    1.2210   -2.3430 C   0  0  0  0  0  0  0  0  0  0  0  0
   -3.3700    1.1380   -1.1600 C   0  0  0  0  0  0  0  0  0  0  0  0
   -3.0360    0.7140    0.0350 C   0  0  0  0  0  0  0  0  0  0  0  0
   -4.1480    0.7490    1.0700 C   0  0  0  0  0  0  0  0  0  0  0  0
   -4.3600   -0.5980    1.5400 N   0  0  0  0  0  0  0  0  0  0  0  0
   -1.7910    0.2130    0.5810 C   0  0  0  0  0  0  0  0  0  0  0  0
   -0.8780   -0.4060   -0.3260 N   0  0  0  0  0  0  0  0  0  0  0  0
  1  2  2  0
  2  3  1  0
  3  4  2  0
  3  5  1  0
  5  6  2  0
  5  7  2  0
  5  8  1  1
  9  8  1  6
  9 10  1  0
  9 20  1  0
 10 11  1  0
 11 12  2  0
 12 13  1  0
 12 20  1  0
 13 14  2  0
 14 15  1  0
 15 16  2  0
 16 17  1  0
 16 19  1  0
 17 18  1  0
 19 20  1  0
M  CHG  1  18   1
M  END
