
     RDKit          3D

 20 21  0  0  0  0  0  0  0  0999 V2000
    4.2550    3.5540   -0.7540 C   0  0  0  0  0  0  0  0  0  0  0  0
    3.8810    2.4290   -0.1410 C   0  0  0  0  0  0  0  0  0  0  0  0
    2.5190    1.9490   -0.3110 C   0  0  0  0  0  0  0  0  0  0  0  0
    2.0580    0.8440    0.2570 C   0  0  0  0  0  0  0  0  0  0  0  0
    0.7310    0.3080    0.1380 N   0  0  0  0  0  0  0  0  0  0  0  0
    0.6080   -0.7620    0.8030 C   0  0  0  0  0  0  0  0  0  0  0  0
   -0.8540   -1.7900    0.9600 S   0  0  0  0  0  0  0  0  0  0  0  0
   -2.2720   -1.1210    0.0810 C   0  0  1  0  0  0  0  0  0  0  0  0
   -2.7810    0.1680    0.6860 C   0  0  0  0  0  0  0  0  0  0  0  0
   -4.2320    0.3270    0.2910 C   0  0  0  0  0  0  0  0  0  0  0  0
   -4.4290    0.8710   -1.0810 C   0  0  0  0  0  0  0  0  0  0  0  0
   -3.1710    1.2680   -1.7870 C   0  0  0  0  0  0  0  0  0  0  0  0
   -2.4030    0.1140   -2.1550 O   0  0  0  0  0  0  0  0  0  0  0  0
   -2.0160   -0.9610   -1.3720 C   0  0  0  0  0  0  0  0  0  0  0  0
   -1.3860   -1.9180   -1.8890 O   0  0  0  0  0  0  0  0  0  0  0  0
    1.8150   -1.1180    1.4700 N   0  0  0  0  0  0  0  0  0  0  0  0
    2.1140   -2.2470    2.3250 C   0  0  0  0  0  0  0  0  0  0  0  0
    2.1120   -3.5630    1.5350 C   0  0  0  0  0  0  0  0  0  0  0  0
    2.7590   -0.0840    1.1230 C   0  0  0  0  0  0  0  0  0  0  0  0
    3.9850   -0.0200    1.5170 N   0  0  0  0  0  0  0  0  0  0  0  0
  1  2  2  0
  2  3  1  0
  3  4  2  3
  4  5  1  0
  4 19  1  0
  5  6  2  0
  6  7  1  0
  6 16  1  0
  8  7  1  1
  8  9  1  0
  8 14  1  0
  9 10  1  0
 10 11  1  0
 11 12  1  0
 12 13  1  0
 13 14  1  0
 14 15  2  0
 16 17  1  0
 16 19  1  0
 17 18  1  0
 19 20  2  0
M  CHG  1   5   1
M  END
