
     RDKit          3D

 20 21  0  0  0  0  0  0  0  0999 V2000
   -2.0390    0.7330    2.6950 C   0  0  0  0  0  0  0  0  0  0  0  0
   -2.2850    0.1200    1.5560 C   0  0  0  0  0  0  0  0  0  0  0  0
   -2.2730    0.8400    0.4060 O   0  0  0  0  0  0  0  0  0  0  0  0
   -2.7840    0.5140   -0.8540 C   0  0  0  0  0  0  0  0  0  0  0  0
   -1.8750    0.9700   -1.9670 C   0  0  0  0  0  0  0  0  0  0  0  0
   -2.3160    0.5290   -3.0820 O   0  0  0  0  0  0  0  0  0  0  0  0
   -0.7890    1.7310   -1.6880 N   0  0  0  0  0  0  0  0  0  0  0  0
    0.4000    1.6420   -1.3340 C   0  0  0  0  0  0  0  0  0  0  0  0
    1.5370    3.0330   -1.0730 S   0  0  0  0  0  0  0  0  0  0  0  0
    2.9210    2.0160   -0.6190 C   0  0  0  0  0  0  0  0  0  0  0  0
    4.2590    2.5900   -0.2620 C   0  0  0  0  0  0  0  0  0  0  0  0
    2.5230    0.7740   -0.6680 C   0  0  0  0  0  0  0  0  0  0  0  0
    3.5450   -0.2920   -0.3160 C   0  0  0  0  0  0  0  0  0  0  0  0
    1.2030    0.5190   -1.0390 N   0  0  0  0  0  0  0  0  0  0  0  0
    0.5650   -0.8230   -1.1520 C   0  0  0  0  0  0  0  0  0  0  0  0
    0.1470   -1.3590    0.1680 C   0  0  0  0  0  0  0  0  0  0  0  0
   -1.0000   -2.2840   -0.0130 C   0  0  0  0  0  0  0  0  0  0  0  0
   -2.1380   -2.2670    0.6190 C   0  0  0  0  0  0  0  0  0  0  0  0
   -2.5550   -1.3230    1.6640 C   0  0  0  0  0  0  0  0  0  0  0  0
   -3.1760   -1.8000    2.6880 N   0  0  0  0  0  0  0  0  0  0  0  0
  1  2  2  0
  2  3  1  0
  2 19  1  0
  3  4  1  0
  4  5  1  0
  5  6  2  0
  5  7  1  0
  7  8  2  0
  8  9  1  0
  8 14  1  0
  9 10  1  0
 10 11  1  0
 10 12  2  0
 12 13  1  0
 12 14  1  0
 14 15  1  0
 15 16  1  0
 16 17  1  0
 17 18  2  0
 18 19  1  0
 19 20  2  0
M  CHG  1  20   1
M  END
