
     RDKit          3D

 20 22  0  0  0  0  0  0  0  0999 V2000
    5.9640    1.7240   -1.3870 O   0  0  0  0  0  0  0  0  0  0  0  0
    4.5770    2.2110   -1.6950 S   0  0  2  0  0  0  0  0  0  0  0  0
    4.4390    3.5790   -1.0920 O   0  0  0  0  0  0  0  0  0  0  0  0
    3.4110    1.0930   -0.9780 C   0  0  0  0  0  0  0  0  0  0  0  0
    3.6120    0.6120    0.2940 C   0  0  0  0  0  0  0  0  0  0  0  0
    2.6700   -0.2590    0.8070 C   0  0  0  0  0  0  0  0  0  0  0  0
    1.5630   -0.6510    0.1000 C   0  0  0  0  0  0  0  0  0  0  0  0
    0.6100   -1.5660    0.6910 C   0  0  1  0  0  0  0  0  0  0  0  0
    0.7070   -1.6450    2.2080 C   0  0  0  0  0  0  0  0  0  0  0  0
   -0.6670   -2.1610    2.5960 C   0  0  0  0  0  0  0  0  0  0  0  0
   -1.5020   -2.1380    1.3360 C   0  0  0  0  0  0  0  0  0  0  0  0
   -0.7700   -1.1980    0.5120 N   0  0  0  0  0  0  0  0  0  0  0  0
   -1.3910   -0.1810   -0.2560 C   0  0  0  0  0  0  0  0  0  0  0  0
   -1.2090    1.1090   -0.0550 C   0  0  0  0  0  0  0  0  0  0  0  0
   -1.9490    2.0530   -0.9650 C   0  0  0  0  0  0  0  0  0  0  0  0
   -3.3360    1.6310   -0.9130 N   0  0  0  0  0  0  0  0  0  0  0  0
   -3.5130    0.3210   -1.4690 C   0  0  0  0  0  0  0  0  0  0  0  0
   -2.3080   -0.5650   -1.3610 C   0  0  0  0  0  0  0  0  0  0  0  0
    1.3930   -0.1520   -1.1640 C   0  0  0  0  0  0  0  0  0  0  0  0
    2.3230    0.7020   -1.6590 N   0  0  0  0  0  0  0  0  0  0  0  0
  1  2  2  0
  2  3  2  0
  2  4  1  1
  4  5  2  0
  4 20  1  0
  5  6  1  0
  6  7  2  0
  8  7  1  1
  7 19  1  0
  8  9  1  0
  8 12  1  0
  9 10  1  0
 10 11  1  0
 11 12  1  0
 12 13  1  0
 13 14  2  0
 13 18  1  0
 14 15  1  0
 15 16  1  0
 16 17  1  0
 17 18  1  0
 19 20  2  0
M  CHG  1  16   1
M  END
