
     RDKit          3D

 13 13  0  0  0  0  0  0  0  0999 V2000
    2.7610   -1.8290    0.2280 C   0  0  0  0  0  0  0  0  0  0  0  0
    1.6570   -1.0260    0.5040 O   0  0  0  0  0  0  0  0  0  0  0  0
    1.1020   -0.5960   -0.6990 C   0  0  1  0  0  0  0  0  0  0  0  0
   -0.2060   -1.0380   -0.8570 O   0  0  0  0  0  0  0  0  0  0  0  0
   -1.0350   -0.5800    0.1640 C   0  0  2  0  0  0  0  0  0  0  0  0
   -2.3740   -1.2590    0.0610 C   0  0  0  0  0  0  0  0  0  0  0  0
   -3.2270   -0.8230    1.0690 O   0  0  0  0  0  0  0  0  0  0  0  0
   -1.1420    0.9200    0.0040 C   0  0  1  0  0  0  0  0  0  0  0  0
   -2.0720    1.4710    0.8820 O   0  0  0  0  0  0  0  0  0  0  0  0
    0.2420    1.4630    0.3180 C   0  0  2  0  0  0  0  0  0  0  0  0
    0.2710    2.8460    0.3600 O   0  0  0  0  0  0  0  0  0  0  0  0
    1.1970    0.9150   -0.7120 C   0  0  2  0  0  0  0  0  0  0  0  0
    0.9730    1.4170   -1.9690 O   0  0  0  0  0  0  0  0  0  0  0  0
  1  2  1  0
  3  2  1  1
  3  4  1  0
  3 12  1  0
  4  5  1  0
  5  6  1  6
  5  8  1  0
  6  7  1  0
  8  9  1  1
  8 10  1  0
 10 11  1  6
 10 12  1  0
 12 13  1  6
M  END
