
     RDKit          3D

 20 22  0  0  0  0  0  0  0  0999 V2000
    6.5340    0.8230   -0.3170 O   0  0  0  0  0  0  0  0  0  0  0  0
    6.1210   -0.4760   -0.9250 S   0  0  2  0  0  0  0  0  0  0  0  0
    5.5040   -0.3030   -2.2800 O   0  0  0  0  0  0  0  0  0  0  0  0
    5.0290   -1.3210    0.1830 C   0  0  0  0  0  0  0  0  0  0  0  0
    4.2840   -0.2980    0.9980 C   0  0  0  0  0  0  0  0  0  0  0  0
    3.4860    0.5840    0.0650 C   0  0  0  0  0  0  0  0  0  0  0  0
    2.5280   -0.2180   -0.6720 C   0  0  0  0  0  0  0  0  0  0  0  0
    1.2590   -0.2390   -0.5860 C   0  0  0  0  0  0  0  0  0  0  0  0
    0.3350    0.4930    0.2510 C   0  0  0  0  0  0  0  0  0  0  0  0
    0.6000    1.3070    1.2880 N   0  0  0  0  0  0  0  0  0  0  0  0
   -0.6030    1.7870    1.7250 C   0  0  0  0  0  0  0  0  0  0  0  0
   -1.5970    1.2510    0.9390 C   0  0  0  0  0  0  0  0  0  0  0  0
   -1.0040    0.4590    0.0390 N   0  0  0  0  0  0  0  0  0  0  0  0
   -1.8370   -0.2310   -0.9180 C   0  0  0  0  0  0  0  0  0  0  0  0
   -3.0490   -0.5590   -0.2490 N   0  0  0  0  0  0  0  0  0  0  0  0
   -3.8850   -1.5060   -0.8840 C   0  0  0  0  0  0  0  0  0  0  0  0
   -5.2550   -1.1940   -0.3120 C   0  0  0  0  0  0  0  0  0  0  0  0
   -5.1500    0.2100    0.2740 C   0  0  0  0  0  0  0  0  0  0  0  0
   -3.7870    0.6750   -0.0900 C   0  0  1  0  0  0  0  0  0  0  0  0
   -3.0920    1.4550    1.0000 C   0  0  0  0  0  0  0  0  0  0  0  0
  1  2  2  0
  2  3  2  0
  2  4  1  1
  4  5  1  0
  5  6  1  0
  6  7  1  0
  7  8  2  3
  8  9  1  0
  9 10  2  0
  9 13  1  0
 10 11  1  0
 11 12  2  0
 12 13  1  0
 12 20  1  0
 13 14  1  0
 14 15  1  0
 15 16  1  0
 15 19  1  0
 16 17  1  0
 17 18  1  0
 19 18  1  1
 19 20  1  0
M  CHG  1  10   1
M  END
