
     RDKit          3D

 20 22  0  0  0  0  0  0  0  0999 V2000
   -3.9470   -0.9600    0.7820 C   0  0  0  0  0  0  0  0  0  0  0  0
   -3.8640   -0.1110   -0.3880 N   0  0  0  0  0  0  0  0  0  0  0  0
   -2.5250    0.3410   -0.6550 C   0  0  1  0  0  0  0  0  0  0  0  0
   -2.2450    1.4960    0.2950 C   0  0  0  0  0  0  0  0  0  0  0  0
   -1.5290    2.5550   -0.5500 C   0  0  0  0  0  0  0  0  0  0  0  0
   -0.0970    2.1390   -0.5870 C   0  0  0  0  0  0  0  0  0  0  0  0
    0.6820    3.1070   -0.7990 O   0  0  0  0  0  0  0  0  0  0  0  0
    0.4930    0.8760   -0.4290 N   0  0  0  0  0  0  0  0  0  0  0  0
   -0.1410   -0.3090   -0.4100 C   0  0  0  0  0  0  0  0  0  0  0  0
    0.6620   -1.4000   -0.2410 N   0  0  0  0  0  0  0  0  0  0  0  0
    1.9770   -1.3290   -0.1030 C   0  0  0  0  0  0  0  0  0  0  0  0
    2.7510   -2.4810    0.0680 C   0  0  0  0  0  0  0  0  0  0  0  0
    4.1090   -2.3590    0.2070 C   0  0  0  0  0  0  0  0  0  0  0  0
    4.7410   -1.1390    0.1840 C   0  0  0  0  0  0  0  0  0  0  0  0
    6.5080   -0.9960    0.3660 S   0  0  0  0  0  0  0  0  0  0  0  0
    3.9650   -0.0120    0.0160 C   0  0  0  0  0  0  0  0  0  0  0  0
    2.6050   -0.1190   -0.1240 C   0  0  0  0  0  0  0  0  0  0  0  0
    1.8270    1.0070   -0.2930 C   0  0  0  0  0  0  0  0  0  0  0  0
    2.3930    2.1430   -0.3160 O   0  0  0  0  0  0  0  0  0  0  0  0
   -1.5230   -0.7470   -0.5280 C   0  0  0  0  0  0  0  0  0  0  0  0
  1  2  1  0
  3  2  1  1
  3  4  1  0
  3 20  1  0
  4  5  1  0
  5  6  1  0
  6  7  2  0
  6  8  1  0
  8  9  1  0
  8 18  1  0
  9 10  2  0
  9 20  1  0
 10 11  1  0
 11 12  2  0
 11 17  1  0
 12 13  1  0
 13 14  2  0
 14 15  1  0
 14 16  1  0
 16 17  2  0
 17 18  1  0
 18 19  2  0
M  CHG  1   2   1
M  END
