
     RDKit          3D

 19 21  0  0  0  0  0  0  0  0999 V2000
    5.6760    0.6420    1.9310 O   0  0  0  0  0  0  0  0  0  0  0  0
    4.8480    1.0550    0.7600 S   0  0  1  0  0  0  0  0  0  0  0  0
    5.1520    2.4060    0.2500 O   0  0  0  0  0  0  0  0  0  0  0  0
    4.9840   -0.1990   -0.5240 C   0  0  0  0  0  0  0  0  0  0  0  0
    3.8590   -1.1140   -0.0810 C   0  0  0  0  0  0  0  0  0  0  0  0
    2.6750   -0.2380    0.2010 C   0  0  2  0  0  0  0  0  0  0  0  0
    2.0650    0.2390   -1.0190 N   0  0  0  0  0  0  0  0  0  0  0  0
    0.9730   -0.5990   -1.4060 C   0  0  0  0  0  0  0  0  0  0  0  0
   -0.3360   -0.1120   -0.9140 C   0  0  0  0  0  0  0  0  0  0  0  0
   -0.4460    0.9980   -0.1890 N   0  0  0  0  0  0  0  0  0  0  0  0
   -1.6430    1.4560    0.2690 C   0  0  0  0  0  0  0  0  0  0  0  0
   -2.7790    0.7410   -0.0310 C   0  0  0  0  0  0  0  0  0  0  0  0
   -2.6710   -0.4050   -0.7790 C   0  0  0  0  0  0  0  0  0  0  0  0
   -1.4580   -0.7910   -1.1940 N   0  0  0  0  0  0  0  0  0  0  0  0
   -3.9280   -1.1380   -1.0750 C   0  0  0  0  0  0  0  0  0  0  0  0
   -4.6460   -1.3210    0.2470 C   0  0  0  0  0  0  0  0  0  0  0  0
   -4.9270   -0.0220    0.9220 C   0  0  0  0  0  0  0  0  0  0  0  0
   -4.1330    1.1410    0.4100 C   0  0  0  0  0  0  0  0  0  0  0  0
    3.1000    0.8480    1.1290 C   0  0  0  0  0  0  0  0  0  0  0  0
  1  2  2  0
  2  3  2  0
  2  4  1  6
  2 19  1  0
  4  5  1  0
  5  6  1  0
  6  7  1  6
  6 19  1  0
  7  8  1  0
  8  9  1  0
  9 10  2  0
  9 14  1  0
 10 11  1  0
 11 12  2  0
 12 13  1  0
 12 18  1  0
 13 14  2  0
 13 15  1  0
 15 16  1  0
 16 17  1  0
 17 18  1  0
M  CHG  1   7   1
M  END
