
     RDKit          3D

 20 21  0  0  0  0  0  0  0  0999 V2000
    0.5430    4.5260   -0.8860 C   0  0  0  0  0  0  0  0  0  0  0  0
    0.6460    3.2130   -0.7720 C   0  0  0  0  0  0  0  0  0  0  0  0
    1.7800    2.4200   -1.0370 N   0  0  0  0  0  0  0  0  0  0  0  0
    1.5340    1.1810   -0.8220 C   0  0  0  0  0  0  0  0  0  0  0  0
    2.4200    0.0060   -0.9670 C   0  0  0  0  0  0  0  0  0  0  0  0
    1.9970   -0.9970    0.0700 C   0  0  2  0  0  0  0  0  0  0  0  0
    2.8530   -2.1630    0.0920 N   0  0  0  0  0  0  0  0  0  0  0  0
    4.1800   -1.8640    0.5830 C   0  0  0  0  0  0  0  0  0  0  0  0
    0.5930   -1.4360   -0.2350 C   0  0  0  0  0  0  0  0  0  0  0  0
   -0.3130   -0.2240   -0.0880 C   0  0  0  0  0  0  0  0  0  0  0  0
   -1.6440   -0.4340    0.3690 N   0  0  0  0  0  0  0  0  0  0  0  0
   -1.9940   -0.5970    1.7390 C   0  0  0  0  0  0  0  0  0  0  0  0
   -2.4470    0.5330    2.5470 C   0  0  0  0  0  0  0  0  0  0  0  0
   -2.9500   -0.6640   -0.7760 S   0  0  2  0  0  0  0  0  0  0  0  0
   -2.6300   -2.1450   -1.7350 C   0  0  0  0  0  0  0  0  0  0  0  0
   -3.0890    0.4690   -1.7340 O   0  0  0  0  0  0  0  0  0  0  0  0
   -4.2630   -0.8600   -0.0870 O   0  0  0  0  0  0  0  0  0  0  0  0
    0.1480    0.9670   -0.3670 C   0  0  0  0  0  0  0  0  0  0  0  0
   -0.4380    2.2990   -0.3330 C   0  0  0  0  0  0  0  0  0  0  0  0
   -1.6420    2.6780   -0.0040 C   0  0  0  0  0  0  0  0  0  0  0  0
  1  2  2  0
  2  3  1  0
  2 19  1  0
  3  4  2  0
  4  5  1  0
  4 18  1  0
  5  6  1  0
  6  7  1  6
  6  9  1  0
  7  8  1  0
  9 10  1  0
 10 11  1  0
 10 18  2  0
 11 12  1  0
 11 14  1  0
 12 13  1  0
 14 15  1  6
 14 16  2  0
 14 17  2  0
 18 19  1  0
 19 20  2  0
M  CHG  1   7   1
M  END
