
     RDKit          3D

 31 33  0  0  0  0  0  0  0  0999 V2000
   -0.8820    4.8930    0.1510 C   0  0  0  0  0  0  0  0  0  0  0  0
    0.3470    4.3330   -0.1880 O   0  0  0  0  0  0  0  0  0  0  0  0
    0.1540    3.6530   -1.3020 O   0  0  0  0  0  0  0  0  0  0  0  0
    0.5780    1.9890   -1.1050 P   0  0  0  0  0  0  0  0  0  0  0  0
    1.4510    1.7410    0.5440 C   0  0  0  0  0  0  0  0  0  0  0  0
    1.0940    0.2610    0.8190 N   0  0  0  0  0  0  0  0  0  0  0  0
    1.8820   -0.3140   -0.0150 O   0  0  0  0  0  0  0  0  0  0  0  0
    2.8660   -1.1760    0.5010 C   0  0  0  0  0  0  0  0  0  0  0  0
    4.1370   -0.4970    0.0290 C   0  0  0  0  0  0  0  0  0  0  0  0
    5.2980   -1.3510   -0.3960 C   0  0  0  0  0  0  0  0  0  0  0  0
    6.4440   -0.7420   -0.6940 O   0  0  0  0  0  0  0  0  0  0  0  0
    5.0830   -2.9330   -0.3890 P   0  0  0  0  0  0  0  0  0  0  0  0
   -0.1130    0.0520    1.1680 N   0  0  0  0  0  0  0  0  0  0  0  0
   -0.4040   -1.1450    2.4100 S   0  0  0  0  0  0  0  0  0  0  0  0
   -2.0670   -1.4270    2.5110 O   0  0  0  0  0  0  0  0  0  0  0  0
   -2.7520   -0.7310    1.6730 O   0  0  0  0  0  0  0  0  0  0  0  0
   -2.1690   -0.7360    0.3730 C   0  0  2  0  0  0  0  0  0  0  0  0
   -3.2320   -0.7530   -0.5560 O   0  0  0  0  0  0  0  0  0  0  0  0
   -3.4760   -1.6770   -1.5040 C   0  0  0  0  0  0  0  0  0  0  0  0
   -4.8140   -1.7050   -2.1690 C   0  0  0  0  0  0  0  0  0  0  0  0
   -5.1370   -2.3560   -3.1440 O   0  0  0  0  0  0  0  0  0  0  0  0
   -5.8490   -0.8510   -1.6040 O   0  0  0  0  0  0  0  0  0  0  0  0
   -2.7010   -2.5830   -1.9420 N   0  0  0  0  0  0  0  0  0  0  0  0
   -1.4090   -2.8120   -1.5000 O   0  0  0  0  0  0  0  0  0  0  0  0
   -1.2250   -2.3610    0.2250 P   0  0  0  0  0  0  0  0  0  0  0  0
   -2.2880   -3.9140    1.4000 P   0  0  0  0  0  0  0  0  0  0  0  0
   -3.5260   -3.5900    2.2540 O   0  0  0  0  0  0  0  0  0  0  0  0
   -1.2200    0.4200    0.3590 C   0  0  1  0  0  0  0  0  0  0  0  0
   -1.8780    1.4790    1.0160 O   0  0  0  0  0  0  0  0  0  0  0  0
   -0.9080    0.8810   -1.0180 C   0  0  2  0  0  0  0  0  0  0  0  0
   -0.7460   -0.1230   -1.9420 O   0  0  0  0  0  0  0  0  0  0  0  0
  1  2  1  0
  2  3  1  0
  3  4  1  0
  4  5  1  0
  4 30  1  0
  5  6  1  0
  6  7  1  0
  6 13  1  0
  7  8  1  0
  8  9  1  0
  9 10  1  0
 10 11  1  0
 10 12  2  0
 13 14  1  0
 13 28  1  0
 14 15  1  0
 15 16  1  0
 17 16  1  1
 17 18  1  0
 17 25  1  0
 17 28  1  0
 18 19  1  0
 19 20  1  0
 19 23  2  0
 20 21  2  0
 20 22  1  0
 23 24  1  0
 24 25  1  0
 25 26  1  0
 26 27  2  0
 28 29  1  1
 28 30  1  0
 30 31  1  6
M  END
