
     RDKit          3D

 32 33  0  0  0  0  0  0  0  0999 V2000
   -0.9540    4.1090    1.1330 C   0  0  0  0  0  0  0  0  0  0  0  0
    0.0610    3.2210    1.4350 O   0  0  0  0  0  0  0  0  0  0  0  0
    0.4160    2.3730    0.4020 C   0  0  1  0  0  0  0  0  0  0  0  0
    1.7560    2.7720    0.0040 N   0  0  0  0  0  0  0  0  0  0  0  0
    1.6700    4.4600   -0.5700 P   0  0  0  0  0  0  0  0  0  0  0  0
    2.9700    5.4240    0.0430 O   0  0  0  0  0  0  0  0  0  0  0  0
    1.5470    4.5520   -2.2960 O   0  0  0  0  0  0  0  0  0  0  0  0
    0.2380    0.9840    0.5770 N   0  0  0  0  0  0  0  0  0  0  0  0
    0.5020   -0.2400    1.2000 C   0  0  0  0  0  0  0  0  0  0  0  0
    1.0020   -1.0300    0.2600 C   0  0  0  0  0  0  0  0  0  0  0  0
    1.9560   -2.0140    0.3490 O   0  0  0  0  0  0  0  0  0  0  0  0
    2.9760   -2.1330   -0.5930 C   0  0  0  0  0  0  0  0  0  0  0  0
    2.4230   -2.4270   -1.9300 C   0  0  0  0  0  0  0  0  0  0  0  0
    3.3260   -2.5120   -3.1200 C   0  0  0  0  0  0  0  0  0  0  0  0
    1.2450   -2.6100   -2.1410 O   0  0  0  0  0  0  0  0  0  0  0  0
    0.2850   -0.6090   -0.9370 O   0  0  0  0  0  0  0  0  0  0  0  0
   -0.7570    0.2470   -0.3560 C   0  0  2  0  0  0  0  0  0  0  0  0
   -1.3460    1.3180   -1.6340 S   0  0  0  0  0  0  0  0  0  0  0  0
   -1.9480   -0.5550    0.6780 P   0  0  0  0  0  0  0  0  0  0  0  0
   -3.1540   -1.5590   -0.0870 N   0  0  0  0  0  0  0  0  0  0  0  0
   -4.5320   -1.2480    0.0280 C   0  0  0  0  0  0  0  0  0  0  0  0
   -5.5500   -2.0360   -0.5760 N   0  0  0  0  0  0  0  0  0  0  0  0
   -4.8600   -0.2310    0.6930 O   0  0  0  0  0  0  0  0  0  0  0  0
   -2.7910   -2.7030   -0.8380 C   0  0  0  0  0  0  0  0  0  0  0  0
   -1.5890   -3.0010   -0.9540 O   0  0  0  0  0  0  0  0  0  0  0  0
   -3.7250   -3.5210   -1.4590 O   0  0  0  0  0  0  0  0  0  0  0  0
   -1.8700   -0.6700    2.3770 O   0  0  0  0  0  0  0  0  0  0  0  0
   -0.0920   -0.7400    2.8490 P   0  0  0  0  0  0  0  0  0  0  0  0
    0.3110   -2.3210    3.3120 O   0  0  0  0  0  0  0  0  0  0  0  0
    0.8230   -2.3110    4.5060 O   0  0  0  0  0  0  0  0  0  0  0  0
    1.4870   -1.1930    4.7110 O   0  0  0  0  0  0  0  0  0  0  0  0
    2.7620   -1.4010    4.8390 O   0  0  0  0  0  0  0  0  0  0  0  0
  1  2  1  0
  2  3  1  0
  3  4  1  1
  3  8  1  0
  4  5  1  0
  5  6  1  0
  5  7  1  0
  8  9  1  0
  8 17  1  0
  9 10  2  0
  9 28  1  0
 10 11  1  0
 10 16  1  0
 11 12  1  0
 12 13  1  0
 13 14  1  0
 13 15  2  0
 16 17  1  0
 17 18  1  6
 17 19  1  0
 19 20  1  0
 19 27  1  0
 20 21  1  0
 20 24  1  0
 21 22  1  0
 21 23  2  0
 24 25  2  0
 24 26  1  0
 27 28  1  0
 28 29  1  0
 29 30  1  0
 30 31  1  0
 31 32  1  0
M  END
