
     RDKit          3D

 32 35  0  0  0  0  0  0  0  0999 V2000
    7.2370   -1.9260   -1.6220 O   0  0  0  0  0  0  0  0  0  0  0  0
    6.4240   -1.5830   -0.7690 C   0  0  0  0  0  0  0  0  0  0  0  0
    6.3890   -0.4450   -0.0140 O   0  0  0  0  0  0  0  0  0  0  0  0
    5.0950    0.0500    0.2520 C   0  0  2  0  0  0  0  0  0  0  0  0
    4.5710    0.6870   -0.9080 O   0  0  0  0  0  0  0  0  0  0  0  0
    5.2180    0.9740    1.2480 O   0  0  0  0  0  0  0  0  0  0  0  0
    4.1500    1.2170    2.0570 C   0  0  0  0  0  0  0  0  0  0  0  0
    2.9260    0.5570    1.5430 C   0  0  0  0  0  0  0  0  0  0  0  0
    1.8610    1.2370    1.4870 N   0  0  0  0  0  0  0  0  0  0  0  0
    0.6210    0.8240    1.0460 N   0  0  0  0  0  0  0  0  0  0  0  0
   -0.0680   -0.3290    1.5090 C   0  0  0  0  0  0  0  0  0  0  0  0
    0.6420   -1.1660    2.1580 O   0  0  0  0  0  0  0  0  0  0  0  0
   -1.8530   -0.6400    1.2200 P   0  0  0  0  0  0  0  0  0  0  0  0
   -2.0020   -2.3790    1.0170 O   0  0  0  0  0  0  0  0  0  0  0  0
   -2.5380   -2.7150   -0.1950 C   0  0  2  0  0  0  0  0  0  0  0  0
   -3.7450   -3.5930   -0.1270 C   0  0  0  0  0  0  0  0  0  0  0  0
   -3.5790   -4.6190   -1.0760 O   0  0  0  0  0  0  0  0  0  0  0  0
   -2.7180   -5.5040   -0.6580 O   0  0  0  0  0  0  0  0  0  0  0  0
   -1.5010   -5.2870   -1.0530 O   0  0  0  0  0  0  0  0  0  0  0  0
   -1.2030   -3.5980   -1.1710 P   0  0  0  0  0  0  0  0  0  0  0  0
   -2.2760    0.0700   -0.2860 O   0  0  0  0  0  0  0  0  0  0  0  0
   -2.0000    1.4320   -0.3430 C   0  0  2  0  0  0  0  0  0  0  0  0
   -2.4200    1.8510   -1.6270 O   0  0  0  0  0  0  0  0  0  0  0  0
   -3.6630    3.0520   -1.5210 P   0  0  0  0  0  0  0  0  0  0  0  0
   -5.1940    2.2210   -1.5390 O   0  0  0  0  0  0  0  0  0  0  0  0
   -3.4330    3.9890    0.0550 C   0  0  0  0  0  0  0  0  0  0  0  0
   -3.8830    5.2990   -0.0970 O   0  0  0  0  0  0  0  0  0  0  0  0
   -0.2050    1.8020   -0.2110 P   0  0  0  0  0  0  0  0  0  0  0  0
    0.6150    1.7890   -1.7140 O   0  0  0  0  0  0  0  0  0  0  0  0
    3.1020   -0.8020    1.1670 N   0  0  0  0  0  0  0  0  0  0  0  0
    4.1760   -1.0740    0.5240 C   0  0  0  0  0  0  0  0  0  0  0  0
    4.9820   -2.4850   -0.2230 S   0  0  0  0  0  0  0  0  0  0  0  0
  1  2  2  0
  2  3  1  0
  2 32  1  0
  3  4  1  0
  4  5  1  6
  4  6  1  0
  4 31  1  0
  6  7  1  0
  7  8  1  0
  8  9  2  3
  8 30  1  0
  9 10  1  0
 10 11  1  0
 10 28  1  0
 11 12  2  0
 11 13  1  0
 13 14  1  0
 13 21  1  0
 15 14  1  1
 15 16  1  0
 15 20  1  0
 16 17  1  0
 17 18  1  0
 18 19  1  0
 19 20  1  0
 21 22  1  0
 22 23  1  6
 22 28  1  0
 23 24  1  0
 24 25  1  0
 24 26  1  0
 26 27  1  0
 28 29  1  0
 30 31  2  0
 31 32  1  0
M  END
