
     RDKit          3D

 31 32  0  0  0  0  0  0  0  0999 V2000
   -2.4980    5.5920   -0.0590 C   0  0  0  0  0  0  0  0  0  0  0  0
   -2.2750    4.4140    1.3510 P   0  0  0  0  0  0  0  0  0  0  0  0
   -3.8120    3.9450    1.9750 O   0  0  0  0  0  0  0  0  0  0  0  0
   -1.2550    3.0160    0.9090 N   0  0  0  0  0  0  0  0  0  0  0  0
   -2.1130    1.8690    0.6740 C   0  0  0  0  0  0  0  0  0  0  0  0
   -1.4620    0.7650    1.2640 O   0  0  0  0  0  0  0  0  0  0  0  0
   -0.5460    0.3030    0.3230 C   0  0  1  0  0  0  0  0  0  0  0  0
    0.5960   -0.4210    1.0350 C   0  0  0  0  0  0  0  0  0  0  0  0
    1.8010   -1.0310   -0.1870 S   0  0  0  0  0  0  0  0  0  0  0  0
    2.5750    0.2870   -0.9650 O   0  0  0  0  0  0  0  0  0  0  0  0
    3.5770   -0.0880   -1.7290 O   0  0  0  0  0  0  0  0  0  0  0  0
    4.8080   -0.4910   -1.2280 N   0  0  0  0  0  0  0  0  0  0  0  0
    5.7750   -1.8870   -1.8490 P   0  0  0  0  0  0  0  0  0  0  0  0
    7.1720   -1.6900   -0.6650 C   0  0  0  0  0  0  0  0  0  0  0  0
    6.7370   -0.6010    0.0470 C   0  0  0  0  0  0  0  0  0  0  0  0
    5.5800   -0.0130   -0.2260 C   0  0  0  0  0  0  0  0  0  0  0  0
    5.0960    1.1610    0.5270 N   0  0  0  0  0  0  0  0  0  0  0  0
   -1.2340   -0.7230   -0.5010 C   0  0  0  0  0  0  0  0  0  0  0  0
   -0.6310   -1.3230   -1.4490 O   0  0  0  0  0  0  0  0  0  0  0  0
   -2.5540   -1.0910   -0.2990 O   0  0  0  0  0  0  0  0  0  0  0  0
   -3.3260   -2.3140   -1.3040 P   0  0  0  0  0  0  0  0  0  0  0  0
   -2.5840   -2.2120   -2.8740 O   0  0  0  0  0  0  0  0  0  0  0  0
   -3.0790   -3.9320   -0.6730 O   0  0  0  0  0  0  0  0  0  0  0  0
   -3.5470   -4.3000    0.5850 C   0  0  0  0  0  0  0  0  0  0  0  0
   -4.1570   -3.4010    1.2440 O   0  0  0  0  0  0  0  0  0  0  0  0
   -3.3570   -5.6250    1.1250 C   0  0  0  0  0  0  0  0  0  0  0  0
   -2.7530   -6.4930    0.4600 O   0  0  0  0  0  0  0  0  0  0  0  0
   -3.8390   -5.9380    2.3710 O   0  0  0  0  0  0  0  0  0  0  0  0
    0.1070    1.6980   -0.7160 P   0  0  0  0  0  0  0  0  0  0  0  0
   -0.2120    1.3620   -2.3650 O   0  0  0  0  0  0  0  0  0  0  0  0
   -0.5450    3.2280   -0.2160 O   0  0  0  0  0  0  0  0  0  0  0  0
  1  2  1  0
  2  3  1  0
  2  4  1  0
  4  5  1  0
  4 31  1  0
  5  6  1  0
  6  7  1  0
  7  8  1  1
  7 18  1  0
  7 29  1  0
  8  9  1  0
  9 10  1  0
 10 11  1  0
 11 12  1  0
 12 13  1  0
 12 16  1  0
 13 14  2  0
 14 15  1  0
 15 16  2  0
 16 17  1  0
 18 19  2  0
 18 20  1  0
 20 21  1  0
 21 22  1  0
 21 23  1  0
 23 24  1  0
 24 25  2  0
 24 26  1  0
 26 27  2  0
 26 28  1  0
 29 30  1  0
 29 31  1  0
M  END
