
     RDKit          3D

 15 16  0  0  0  0  0  0  0  0999 V2000
    4.7850    0.8020   -0.3600 C   0  0  0  0  0  0  0  0  0  0  0  0
    3.7420    0.2970    0.4390 N   0  0  0  0  0  0  0  0  0  0  0  0
    3.1330   -0.8990   -0.1090 C   0  0  0  0  0  0  0  0  0  0  0  0
    1.6720   -0.5530   -0.1360 C   0  0  0  0  0  0  0  0  0  0  0  0
    1.2340    0.1730   -1.2420 N   0  0  0  0  0  0  0  0  0  0  0  0
    0.0070    0.3620   -1.0750 N   0  0  0  0  0  0  0  0  0  0  0  0
   -0.4160   -0.2010    0.1110 C   0  0  0  0  0  0  0  0  0  0  0  0
   -1.8250   -0.1190    0.5200 C   0  0  0  0  0  0  0  0  0  0  0  0
   -2.1600   -0.2650    1.7660 C   0  0  0  0  0  0  0  0  0  0  0  0
   -3.5960   -0.2030    2.1640 C   0  0  0  0  0  0  0  0  0  0  0  0
   -4.4210    0.1450    1.0920 O   0  0  0  0  0  0  0  0  0  0  0  0
   -4.0870    0.2670   -0.2150 C   0  0  0  0  0  0  0  0  0  0  0  0
   -2.7950    0.1470   -0.5640 C   0  0  0  0  0  0  0  0  0  0  0  0
   -2.4470    0.2140   -1.9290 N   0  0  0  0  0  0  0  0  0  0  0  0
    0.6550   -0.7390    0.6250 O   0  0  0  0  0  0  0  0  0  0  0  0
  1  2  1  0
  2  3  1  0
  3  4  1  0
  4  5  2  0
  4 15  1  0
  5  6  1  0
  6  7  2  0
  7  8  1  0
  7 15  1  0
  8  9  2  0
  8 13  1  0
  9 10  1  0
 10 11  1  0
 11 12  1  0
 12 13  2  0
 13 14  1  0
M  END
