
     RDKit          3D

 21 21  0  0  0  0  0  0  0  0999 V2000
   -5.7810    1.2830   -0.6250 C   0  0  0  0  0  0  0  0  0  0  0  0
   -4.7300    0.6330   -0.1590 C   0  0  0  0  0  0  0  0  0  0  0  0
   -4.9680   -0.5480    0.7020 C   0  0  0  0  0  0  0  0  0  0  0  0
   -3.7390   -1.2060    1.1690 C   0  0  0  0  0  0  0  0  0  0  0  0
   -3.9170   -2.7630    2.3000 Br  0  0  0  0  0  0  0  0  0  0  0  0
   -2.5230   -0.8110    0.8710 C   0  0  0  0  0  0  0  0  0  0  0  0
   -2.3070    0.3410    0.0330 C   0  0  0  0  0  0  0  0  0  0  0  0
   -1.0400    0.8450   -0.3460 N   0  0  0  0  0  0  0  0  0  0  0  0
    0.2150    0.3080    0.0330 C   0  0  0  0  0  0  0  0  0  0  0  0
    0.2580   -0.6950    0.7630 O   0  0  0  0  0  0  0  0  0  0  0  0
    1.4130    0.9120   -0.4180 O   0  0  0  0  0  0  0  0  0  0  0  0
    2.6340    0.3460   -0.0270 C   0  0  0  0  0  0  0  0  0  0  0  0
    2.8450   -1.0600   -0.5260 C   0  0  0  0  0  0  0  0  0  0  0  0
    4.0990   -1.5090   -0.0660 O   0  0  0  0  0  0  0  0  0  0  0  0
    5.3310   -0.9920   -0.3660 C   0  0  0  0  0  0  0  0  0  0  0  0
    5.3800    0.0040   -1.1510 O   0  0  0  0  0  0  0  0  0  0  0  0
    6.5820   -1.5190    0.1630 C   0  0  0  0  0  0  0  0  0  0  0  0
    7.8230   -0.9430   -0.1840 N   0  0  0  0  0  0  0  0  0  0  0  0
    6.5440   -2.5000    0.9370 O   0  0  0  0  0  0  0  0  0  0  0  0
   -3.3750    1.0260   -0.4560 C   0  0  0  0  0  0  0  0  0  0  0  0
   -3.1130    2.2260   -1.3260 C   0  0  0  0  0  0  0  0  0  0  0  0
  1  2  2  0
  2  3  1  0
  2 20  1  0
  3  4  1  0
  4  5  1  0
  4  6  2  0
  6  7  1  0
  7  8  1  0
  7 20  2  0
  8  9  1  0
  9 10  2  0
  9 11  1  0
 11 12  1  0
 12 13  1  0
 13 14  1  0
 14 15  1  0
 15 16  2  0
 15 17  1  0
 17 18  1  0
 17 19  2  0
 20 21  1  0
M  END
