
     RDKit          3D

 15 16  0  0  0  0  0  0  0  0999 V2000
    0.7910    1.2020    0.9460 N   0  0  0  0  0  0  0  0  0  0  0  0
    0.7910    0.3400   -0.1740 C   0  0  0  0  0  0  0  0  0  0  0  0
   -0.3270   -0.2400   -0.7130 C   0  0  0  0  0  0  0  0  0  0  0  0
   -1.7410   -0.1600   -0.3380 C   0  0  0  0  0  0  0  0  0  0  0  0
   -2.1920    0.5510    0.6720 C   0  0  0  0  0  0  0  0  0  0  0  0
   -3.6250    0.6490    1.0750 C   0  0  0  0  0  0  0  0  0  0  0  0
   -4.4790   -0.1020    0.2620 O   0  0  0  0  0  0  0  0  0  0  0  0
   -4.0220   -0.8510   -0.7980 C   0  0  0  0  0  0  0  0  0  0  0  0
   -2.7490   -0.9030   -1.1090 C   0  0  0  0  0  0  0  0  0  0  0  0
    0.1080   -0.9870   -1.7670 N   0  0  0  0  0  0  0  0  0  0  0  0
    1.4170   -0.8440   -1.8330 N   0  0  0  0  0  0  0  0  0  0  0  0
    1.8600   -0.0540   -0.8910 N   0  0  0  0  0  0  0  0  0  0  0  0
    3.2480    0.3220   -0.6690 C   0  0  0  0  0  0  0  0  0  0  0  0
    3.9570   -0.6230    0.2610 C   0  0  0  0  0  0  0  0  0  0  0  0
    3.3430   -0.6540    1.4900 O   0  0  0  0  0  0  0  0  0  0  0  0
  1  2  1  0
  2  3  2  0
  2 12  1  0
  3  4  1  0
  3 10  1  0
  4  5  2  0
  4  9  1  0
  5  6  1  0
  6  7  1  0
  7  8  1  0
  8  9  2  0
 10 11  2  0
 11 12  1  0
 12 13  1  0
 13 14  1  0
 14 15  1  0
M  END
