
     RDKit          3D

 21 22  0  0  0  0  0  0  0  0999 V2000
   -4.8350    0.2850    1.2140 C   0  0  0  0  0  0  0  0  0  0  0  0
   -3.5100    0.7760    1.1270 O   0  0  0  0  0  0  0  0  0  0  0  0
   -2.5830    0.0000    0.4360 C   0  0  0  0  0  0  0  0  0  0  0  0
   -2.9150   -1.2040   -0.1520 C   0  0  0  0  0  0  0  0  0  0  0  0
   -2.0120   -1.9870   -0.8400 C   0  0  0  0  0  0  0  0  0  0  0  0
   -0.7160   -1.5700   -0.9610 C   0  0  0  0  0  0  0  0  0  0  0  0
   -0.3430   -0.3720   -0.3890 C   0  0  0  0  0  0  0  0  0  0  0  0
   -1.2620    0.3940    0.2950 C   0  0  0  0  0  0  0  0  0  0  0  0
   -0.8880    1.5990    0.8710 O   0  0  0  0  0  0  0  0  0  0  0  0
   -0.9680    2.8100    0.1630 C   0  0  0  0  0  0  0  0  0  0  0  0
    0.9370    0.2140   -0.4090 O   0  0  0  0  0  0  0  0  0  0  0  0
    2.1900   -0.4200   -0.4500 C   0  0  0  0  0  0  0  0  0  0  0  0
    3.3060    0.2890    0.1640 C   0  0  0  0  0  0  0  0  0  0  0  0
    4.5550   -0.3050    0.1430 O   0  0  0  0  0  0  0  0  0  0  0  0
    3.1700    1.4570    0.7290 C   0  0  0  0  0  0  0  0  0  0  0  0
    4.2780    2.1040    1.3090 N   0  0  0  0  0  0  0  0  0  0  0  0
    6.0260    1.8160    0.6170 Br  0  0  0  0  0  0  0  0  0  0  0  0
    2.4550   -1.5980   -0.9910 C   0  0  0  0  0  0  0  0  0  0  0  0
    1.5370   -2.4910   -1.6540 C   0  0  0  0  0  0  0  0  0  0  0  0
    2.0850   -3.4420   -2.2970 O   0  0  0  0  0  0  0  0  0  0  0  0
    0.1170   -2.4700   -1.6960 N   0  0  0  0  0  0  0  0  0  0  0  0
  1  2  1  0
  2  3  1  0
  3  4  2  0
  3  8  1  0
  4  5  1  0
  5  6  2  0
  6  7  1  0
  6 21  1  0
  7  8  2  0
  7 11  1  0
  8  9  1  0
  9 10  1  0
 11 12  1  0
 12 13  1  0
 12 18  2  0
 13 14  1  0
 13 15  2  3
 15 16  1  0
 16 17  1  0
 18 19  1  0
 19 20  2  0
 19 21  1  0
M  END
