
     RDKit          3D

 17 18  0  0  0  0  0  0  0  0999 V2000
    1.5020   -2.7120   -0.9460 O   0  0  0  0  0  0  0  0  0  0  0  0
    0.9180   -1.7710   -0.3430 C   0  0  0  0  0  0  0  0  0  0  0  0
   -0.4310   -1.5400   -0.5440 O   0  0  0  0  0  0  0  0  0  0  0  0
   -1.0940   -0.4250    0.0470 C   0  0  1  0  0  0  0  0  0  0  0  0
   -0.3050   -0.0690    1.2940 C   0  0  0  0  0  0  0  0  0  0  0  0
    0.9870    0.2750    0.8490 O   0  0  0  0  0  0  0  0  0  0  0  0
    1.6810   -0.9200    0.5790 C   0  0  2  0  0  0  0  0  0  0  0  0
    2.8970   -0.5780    0.0150 O   0  0  0  0  0  0  0  0  0  0  0  0
    3.8680   -0.9450    0.7940 O   0  0  0  0  0  0  0  0  0  0  0  0
    4.9760   -0.3310    0.4490 O   0  0  0  0  0  0  0  0  0  0  0  0
    4.6880    0.9010    0.0830 O   0  0  0  0  0  0  0  0  0  0  0  0
   -1.0460    0.6200   -0.8150 O   0  0  0  0  0  0  0  0  0  0  0  0
   -2.1280    1.4280   -0.8920 C   0  0  0  0  0  0  0  0  0  0  0  0
   -3.0260    1.4530    0.2950 C   0  0  0  0  0  0  0  0  0  0  0  0
   -3.3380    0.1720    0.7950 O   0  0  0  0  0  0  0  0  0  0  0  0
   -2.4550   -0.8610    0.4240 C   0  0  0  0  0  0  0  0  0  0  0  0
   -2.8360   -2.0600    0.4270 O   0  0  0  0  0  0  0  0  0  0  0  0
  1  2  2  0
  2  3  1  0
  2  7  1  0
  3  4  1  0
  4  5  1  1
  4 12  1  0
  4 16  1  0
  5  6  1  0
  6  7  1  0
  7  8  1  6
  8  9  1  0
  9 10  1  0
 10 11  1  0
 12 13  1  0
 13 14  1  0
 14 15  1  0
 15 16  1  0
 16 17  2  0
M  END
