
     RDKit          3D

 17 17  0  0  0  0  0  0  0  0999 V2000
   -1.3170    0.9510   -1.5310 O   0  0  0  0  0  0  0  0  0  0  0  0
   -0.9320    0.4350   -0.4870 C   0  0  0  0  0  0  0  0  0  0  0  0
   -1.7830   -0.0710    0.4360 O   0  0  0  0  0  0  0  0  0  0  0  0
   -3.0620   -0.2320    0.5450 C   0  0  0  0  0  0  0  0  0  0  0  0
   -4.0190   -1.1610   -0.1030 C   0  0  0  0  0  0  0  0  0  0  0  0
   -5.2600   -0.7230    0.5710 O   0  0  0  0  0  0  0  0  0  0  0  0
   -6.0870   -0.3950   -0.2850 O   0  0  0  0  0  0  0  0  0  0  0  0
    0.5470    0.3700   -0.1670 C   0  0  2  0  0  0  0  0  0  0  0  0
    1.3930    0.1820   -1.3440 C   0  0  0  0  0  0  0  0  0  0  0  0
    2.3120   -0.8300   -1.2260 O   0  0  0  0  0  0  0  0  0  0  0  0
    3.1580   -0.7290   -0.2830 O   0  0  0  0  0  0  0  0  0  0  0  0
    2.9780    0.3560    0.6030 C   0  0  2  0  0  0  0  0  0  0  0  0
    4.2620    0.4530    1.1990 O   0  0  0  0  0  0  0  0  0  0  0  0
    5.0490    1.0690    0.3140 O   0  0  0  0  0  0  0  0  0  0  0  0
    6.1460    0.3170    0.1450 O   0  0  0  0  0  0  0  0  0  0  0  0
    1.9400   -0.0250    1.6150 C   0  0  0  0  0  0  0  0  0  0  0  0
    0.8000   -0.4380    0.9080 O   0  0  0  0  0  0  0  0  0  0  0  0
  1  2  2  0
  2  3  1  0
  8  2  1  6
  3  4  1  0
  4  5  1  0
  5  6  1  0
  6  7  1  0
  8  9  1  0
  8 17  1  0
  9 10  1  0
 10 11  1  0
 11 12  1  0
 12 13  1  1
 12 16  1  0
 13 14  1  0
 14 15  1  0
 16 17  1  0
M  END
