
     RDKit          3D

 17 18  0  0  0  0  0  0  0  0999 V2000
    6.2640    0.8780   -0.3070 O   0  0  0  0  0  0  0  0  0  0  0  0
    5.2650    0.0410   -0.5260 O   0  0  0  0  0  0  0  0  0  0  0  0
    5.3530   -0.9060    0.3980 O   0  0  0  0  0  0  0  0  0  0  0  0
    4.1290   -1.3990    0.5300 O   0  0  0  0  0  0  0  0  0  0  0  0
    3.2000   -0.3980    0.3020 C   0  0  0  0  0  0  0  0  0  0  0  0
    1.8200   -0.9600    0.4530 C   0  0  0  0  0  0  0  0  0  0  0  0
    0.8620    0.0370    0.2260 O   0  0  0  0  0  0  0  0  0  0  0  0
   -0.4200   -0.4760    0.3640 C   0  0  1  0  0  0  0  0  0  0  0  0
   -1.0520    0.1880    1.5660 C   0  0  0  0  0  0  0  0  0  0  0  0
   -2.2890   -0.4330    1.7480 O   0  0  0  0  0  0  0  0  0  0  0  0
   -3.1370   -0.1820    0.6830 C   0  0  0  0  0  0  0  0  0  0  0  0
   -2.4260    0.1950   -0.5800 C   0  0  1  0  0  0  0  0  0  0  0  0
   -3.2350   -0.2630   -1.6490 O   0  0  0  0  0  0  0  0  0  0  0  0
   -4.2000    0.7700   -1.6650 C   0  0  0  0  0  0  0  0  0  0  0  0
   -3.3720    1.8890   -1.5620 O   0  0  0  0  0  0  0  0  0  0  0  0
   -2.3820    1.5610   -0.7890 O   0  0  0  0  0  0  0  0  0  0  0  0
   -1.1930   -0.3490   -0.7480 O   0  0  0  0  0  0  0  0  0  0  0  0
  1  2  1  0
  2  3  1  0
  3  4  1  0
  4  5  1  0
  5  6  1  0
  6  7  1  0
  8  7  1  6
  8  9  1  0
  8 17  1  0
  9 10  1  0
 10 11  1  0
 12 11  1  1
 12 13  1  0
 12 16  1  0
 12 17  1  0
 13 14  1  0
 14 15  1  0
 15 16  1  0
M  END
