
     RDKit          3D

 17 17  0  0  0  0  0  0  0  0999 V2000
    0.3350   -0.6240   -0.9890 O   0  0  0  0  0  0  0  0  0  0  0  0
    0.3560   -0.7810    0.2990 C   0  0  0  0  0  0  0  0  0  0  0  0
    1.4830   -0.9390    0.9070 O   0  0  0  0  0  0  0  0  0  0  0  0
    2.7710   -0.9950    0.5970 C   0  0  0  0  0  0  0  0  0  0  0  0
    3.2930    0.2450   -0.0480 C   0  0  0  0  0  0  0  0  0  0  0  0
    4.6620    0.1060   -0.2460 O   0  0  0  0  0  0  0  0  0  0  0  0
    5.2800    1.1300   -0.7790 O   0  0  0  0  0  0  0  0  0  0  0  0
    5.3030    2.0900    0.1710 O   0  0  0  0  0  0  0  0  0  0  0  0
   -0.9750   -0.7540    1.0100 C   0  0  2  0  0  0  0  0  0  0  0  0
   -1.9700   -1.2030    0.1020 O   0  0  0  0  0  0  0  0  0  0  0  0
   -2.7520   -0.1690   -0.1400 C   0  0  1  0  0  0  0  0  0  0  0  0
   -4.1070   -0.6820   -0.5240 C   0  0  0  0  0  0  0  0  0  0  0  0
   -4.9270    0.4030   -0.6300 O   0  0  0  0  0  0  0  0  0  0  0  0
   -4.7900    1.1300   -1.7490 O   0  0  0  0  0  0  0  0  0  0  0  0
   -2.7400    0.6600    0.9560 O   0  0  0  0  0  0  0  0  0  0  0  0
   -1.4420    0.5600    1.4130 C   0  0  0  0  0  0  0  0  0  0  0  0
   -0.8060    1.5110    2.0270 O   0  0  0  0  0  0  0  0  0  0  0  0
  1  2  2  0
  2  3  1  0
  9  2  1  6
  3  4  1  0
  4  5  1  0
  5  6  1  0
  6  7  1  0
  7  8  1  0
  9 10  1  0
  9 16  1  0
 10 11  1  0
 11 12  1  1
 11 15  1  0
 12 13  1  0
 13 14  1  0
 15 16  1  0
 16 17  2  0
M  END
