
     RDKit          3D

 17 18  0  0  0  0  0  0  0  0999 V2000
   -2.4650    3.4330   -0.6980 O   0  0  0  0  0  0  0  0  0  0  0  0
   -1.9240    2.3190   -0.8740 C   0  0  0  0  0  0  0  0  0  0  0  0
   -0.6960    1.9510   -0.0780 C   0  0  0  0  0  0  0  0  0  0  0  0
   -0.4880    0.4800   -0.2000 C   0  0  1  0  0  0  0  0  0  0  0  0
    0.2080    0.0470   -1.2680 O   0  0  0  0  0  0  0  0  0  0  0  0
    1.5400    0.2550   -1.3570 C   0  0  0  0  0  0  0  0  0  0  0  0
    2.4070   -0.3320   -0.2980 C   0  0  0  0  0  0  0  0  0  0  0  0
    2.3180   -1.7160   -0.2190 O   0  0  0  0  0  0  0  0  0  0  0  0
    3.1270   -2.0980    0.7480 O   0  0  0  0  0  0  0  0  0  0  0  0
   -0.0070   -0.1090    0.9650 O   0  0  0  0  0  0  0  0  0  0  0  0
   -0.8270   -1.1710    1.2880 C   0  0  1  0  0  0  0  0  0  0  0  0
   -0.1150   -2.3210    1.5800 O   0  0  0  0  0  0  0  0  0  0  0  0
   -1.7120   -0.8470    2.3340 O   0  0  0  0  0  0  0  0  0  0  0  0
   -1.6300   -1.4110    0.1610 O   0  0  0  0  0  0  0  0  0  0  0  0
   -1.8840   -0.1210   -0.2430 C   0  0  2  0  0  0  0  0  0  0  0  0
   -2.3700    0.0370   -1.5100 O   0  0  0  0  0  0  0  0  0  0  0  0
   -2.3750    1.3630   -1.7720 O   0  0  0  0  0  0  0  0  0  0  0  0
  1  2  2  0
  2  3  1  0
  2 17  1  0
  3  4  1  0
  4  5  1  6
  4 10  1  0
  4 15  1  0
  5  6  1  0
  6  7  1  0
  7  8  1  0
  8  9  1  0
 10 11  1  0
 11 12  1  1
 11 13  1  0
 11 14  1  0
 15 14  1  6
 15 16  1  0
 16 17  1  0
M  END
