
     RDKit          3D

 20 20  0  0  0  0  0  0  0  0999 V2000
   -3.5950    0.8700    1.3270 C   0  0  0  0  0  0  0  0  0  0  0  0
   -2.4390   -0.0830    0.9710 C   0  0  1  0  0  0  0  0  0  0  0  0
   -1.9470   -0.3440    2.3010 O   0  0  0  0  0  0  0  0  0  0  0  0
   -2.8950   -1.3720    0.4640 C   0  0  2  0  0  0  0  0  0  0  0  0
   -1.9030   -2.3130    0.3940 O   0  0  0  0  0  0  0  0  0  0  0  0
   -3.7820   -1.4460   -0.7230 C   0  0  0  0  0  0  0  0  0  0  0  0
   -3.1710   -1.2590   -1.9540 O   0  0  0  0  0  0  0  0  0  0  0  0
   -1.2920    0.6330    0.3860 C   0  0  2  0  0  0  0  0  0  0  0  0
   -1.1640    1.8010    1.2120 O   0  0  0  0  0  0  0  0  0  0  0  0
   -1.3560    1.1610   -0.9860 C   0  0  0  0  0  0  0  0  0  0  0  0
   -2.4600    2.0440   -1.2700 N   0  0  0  0  0  0  0  0  0  0  0  0
    0.0130   -0.0920    0.6230 C   0  0  0  0  0  0  0  0  0  0  0  0
    1.1960    0.6360    0.0350 C   0  0  0  0  0  0  0  0  0  0  0  0
    2.4230   -0.2260    0.3660 C   0  0  0  0  0  0  0  0  0  0  0  0
    3.5750    0.4000   -0.1580 O   0  0  0  0  0  0  0  0  0  0  0  0
    4.7110   -0.3250    0.1070 C   0  0  1  0  0  0  0  0  0  0  0  0
    5.4440   -0.6970   -1.1840 C   0  0  0  0  0  0  0  0  0  0  0  0
    6.5100    0.2030   -1.1680 O   0  0  0  0  0  0  0  0  0  0  0  0
    6.7740    0.4560    0.1190 N   0  0  0  0  0  0  0  0  0  0  0  0
    5.6340    0.4170    0.8080 O   0  0  0  0  0  0  0  0  0  0  0  0
  2  1  1  1
  2  3  1  0
  2  4  1  0
  2  8  1  0
  4  5  1  6
  4  6  1  0
  6  7  1  0
  8  9  1  1
  8 10  1  0
  8 12  1  0
 10 11  1  0
 12 13  1  0
 13 14  1  0
 14 15  1  0
 16 15  1  6
 16 17  1  0
 16 20  1  0
 17 18  1  0
 18 19  1  0
 19 20  1  0
M  CHG  1  11   1
M  END
