
     RDKit          3D

 21 21  0  0  0  0  0  0  0  0999 V2000
    5.4220   -1.1830    0.1150 N   0  0  0  0  0  0  0  0  0  0  0  0
    4.1340   -1.3760   -0.4880 C   0  0  0  0  0  0  0  0  0  0  0  0
    4.1070   -2.1100   -1.5160 O   0  0  0  0  0  0  0  0  0  0  0  0
    2.9600   -0.7320    0.1030 C   0  0  2  0  0  0  0  0  0  0  0  0
    3.0900    0.7820    0.1420 C   0  0  0  0  0  0  0  0  0  0  0  0
    4.2290    1.0930    0.9180 O   0  0  0  0  0  0  0  0  0  0  0  0
    2.5940   -1.2720    1.4550 C   0  0  0  0  0  0  0  0  0  0  0  0
    1.2530   -1.5720    1.4500 O   0  0  0  0  0  0  0  0  0  0  0  0
    0.7070   -1.0520    0.2650 C   0  0  1  0  0  0  0  0  0  0  0  0
    0.1690    0.1880    0.4430 O   0  0  0  0  0  0  0  0  0  0  0  0
   -1.2780    0.1750    0.1450 C   0  0  2  0  0  0  0  0  0  0  0  0
   -1.4150    1.0250   -1.0280 C   0  0  0  0  0  0  0  0  0  0  0  0
   -2.7250    1.2510   -1.6840 C   0  0  1  0  0  0  0  0  0  0  0  0
   -2.4650    2.1110   -2.8040 O   0  0  0  0  0  0  0  0  0  0  0  0
   -3.2150   -0.0630   -2.2920 C   0  0  0  0  0  0  0  0  0  0  0  0
   -3.4960   -0.9700   -1.2760 O   0  0  0  0  0  0  0  0  0  0  0  0
   -1.8450    0.4470    1.4620 C   0  0  2  0  0  0  0  0  0  0  0  0
   -1.2610   -0.6370    2.2820 O   0  0  0  0  0  0  0  0  0  0  0  0
   -3.2780    0.3270    1.7740 C   0  0  0  0  0  0  0  0  0  0  0  0
   -4.1510    1.2490    1.2530 O   0  0  0  0  0  0  0  0  0  0  0  0
    1.7970   -1.0850   -0.6890 N   0  0  0  0  0  0  0  0  0  0  0  0
  1  2  1  0
  2  3  2  0
  2  4  1  0
  4  5  1  1
  4  7  1  0
  4 21  1  0
  5  6  1  0
  7  8  1  0
  8  9  1  0
  9 10  1  1
  9 21  1  0
 10 11  1  0
 11 12  1  6
 11 17  1  0
 12 13  1  0
 13 14  1  6
 13 15  1  0
 15 16  1  0
 17 18  1  1
 17 19  1  0
 19 20  1  0
M  END
