
     RDKit          3D

 21 21  0  0  0  0  0  0  0  0999 V2000
    2.7800    3.6250   -0.6470 C   0  0  0  0  0  0  0  0  0  0  0  0
    2.7190    2.2830   -0.2900 O   0  0  0  0  0  0  0  0  0  0  0  0
    1.3960    1.9120    0.0610 C   0  0  0  0  0  0  0  0  0  0  0  0
    1.4840    0.4540    0.4290 C   0  0  2  0  0  0  0  0  0  0  0  0
    0.2790   -0.1590    0.8290 N   0  0  0  0  0  0  0  0  0  0  0  0
   -0.7970   -0.2750   -0.0690 C   0  0  2  0  0  0  0  0  0  0  0  0
   -1.0380    0.7390   -0.9380 O   0  0  0  0  0  0  0  0  0  0  0  0
   -2.0160   -0.6320    0.7900 C   0  0  1  0  0  0  0  0  0  0  0  0
   -1.6470   -1.8380    1.4240 O   0  0  0  0  0  0  0  0  0  0  0  0
   -2.1700    0.3800    1.8680 C   0  0  0  0  0  0  0  0  0  0  0  0
   -2.5370    1.6400    1.4840 O   0  0  0  0  0  0  0  0  0  0  0  0
   -3.2340   -0.9350    0.0080 C   0  0  2  0  0  0  0  0  0  0  0  0
   -3.0690   -2.1210   -0.9150 C   0  0  0  0  0  0  0  0  0  0  0  0
   -3.8140    0.1290   -0.7480 N   0  0  0  0  0  0  0  0  0  0  0  0
    2.3540    0.3970    1.5380 O   0  0  0  0  0  0  0  0  0  0  0  0
    3.1210   -0.7540    1.3100 C   0  0  0  0  0  0  0  0  0  0  0  0
    3.3730   -0.6090   -0.1760 C   0  0  1  0  0  0  0  0  0  0  0  0
    3.8370   -1.8600   -0.7730 C   0  0  0  0  0  0  0  0  0  0  0  0
    4.9540   -2.3130   -0.4230 O   0  0  0  0  0  0  0  0  0  0  0  0
    3.0750   -2.5290   -1.6960 O   0  0  0  0  0  0  0  0  0  0  0  0
    2.1340   -0.1980   -0.6210 O   0  0  0  0  0  0  0  0  0  0  0  0
  1  2  1  0
  2  3  1  0
  4  3  1  6
  4  5  1  0
  4 15  1  0
  4 21  1  0
  5  6  1  0
  6  7  1  1
  6  8  1  0
  8  9  1  1
  8 10  1  0
  8 12  1  0
 10 11  1  0
 12 13  1  6
 12 14  1  0
 15 16  1  0
 16 17  1  0
 17 18  1  6
 17 21  1  0
 18 19  2  0
 18 20  1  0
M  CHG  1  14   1
M  END
