
     RDKit          3D

 20 19  0  0  0  0  0  0  0  0999 V2000
    2.4860   -1.1870    0.9720 N   0  0  0  0  0  0  0  0  0  0  0  0
    1.3170   -0.3770    0.9570 C   0  0  1  0  0  0  0  0  0  0  0  0
    1.4190    0.5930   -0.2160 C   0  0  0  0  0  0  0  0  0  0  0  0
    2.5630    1.4030   -0.0700 O   0  0  0  0  0  0  0  0  0  0  0  0
    2.5830    2.2490   -1.1680 C   0  0  0  0  0  0  0  0  0  0  0  0
    3.7650    3.1880   -1.1500 C   0  0  0  0  0  0  0  0  0  0  0  0
    4.9750    2.5170   -1.1560 O   0  0  0  0  0  0  0  0  0  0  0  0
    0.0360   -1.1440    0.8680 C   0  0  1  0  0  0  0  0  0  0  0  0
   -0.1490   -2.0030    1.9260 O   0  0  0  0  0  0  0  0  0  0  0  0
   -0.4990   -3.2780    1.6130 C   0  0  0  0  0  0  0  0  0  0  0  0
    0.5070   -4.0330    0.8250 C   0  0  0  0  0  0  0  0  0  0  0  0
    1.6910   -4.1320    1.5410 O   0  0  0  0  0  0  0  0  0  0  0  0
   -1.0280   -0.1950    0.9180 O   0  0  0  0  0  0  0  0  0  0  0  0
   -1.7830   -0.3310   -0.2430 C   0  0  0  0  0  0  0  0  0  0  0  0
   -2.9340    0.6530   -0.2550 C   0  0  1  0  0  0  0  0  0  0  0  0
   -3.8720    0.3300    0.8890 C   0  0  0  0  0  0  0  0  0  0  0  0
   -4.3120   -0.9750    0.7780 O   0  0  0  0  0  0  0  0  0  0  0  0
   -2.4640    1.9430   -0.1950 O   0  0  0  0  0  0  0  0  0  0  0  0
   -2.8070    2.6970   -1.3160 C   0  0  0  0  0  0  0  0  0  0  0  0
   -2.2870    3.9740   -1.1540 O   0  0  0  0  0  0  0  0  0  0  0  0
  2  1  1  6
  2  3  1  0
  2  8  1  0
  3  4  1  0
  4  5  1  0
  5  6  1  0
  6  7  1  0
  8  9  1  1
  8 13  1  0
  9 10  1  0
 10 11  1  0
 11 12  1  0
 13 14  1  0
 15 14  1  1
 15 16  1  0
 15 18  1  0
 16 17  1  0
 18 19  1  0
 19 20  1  0
M  CHG  1   1   1
M  END
