
     RDKit          3D

 20 19  0  0  0  0  0  0  0  0999 V2000
   -4.9220   -0.1310   -2.2660 N   0  0  0  0  0  0  0  0  0  0  0  0
   -5.0090   -0.2410   -0.8220 C   0  0  2  0  0  0  0  0  0  0  0  0
   -5.3040    1.0770   -0.1620 C   0  0  0  0  0  0  0  0  0  0  0  0
   -4.3500    2.0400   -0.4060 O   0  0  0  0  0  0  0  0  0  0  0  0
   -3.8480   -0.9350   -0.2440 C   0  0  0  0  0  0  0  0  0  0  0  0
   -2.9490   -1.3420   -0.9990 O   0  0  0  0  0  0  0  0  0  0  0  0
   -3.7530   -1.1370    1.1380 N   0  0  0  0  0  0  0  0  0  0  0  0
   -2.7230   -1.7530    1.8990 C   0  0  0  0  0  0  0  0  0  0  0  0
   -1.4400   -1.0280    1.9330 C   0  0  2  0  0  0  0  0  0  0  0  0
   -1.5060    0.2740    2.4530 O   0  0  0  0  0  0  0  0  0  0  0  0
   -0.6170   -1.0330    0.7100 C   0  0  0  0  0  0  0  0  0  0  0  0
    0.7080   -0.6590    1.1470 O   0  0  0  0  0  0  0  0  0  0  0  0
    1.4630   -0.6720   -0.0260 C   0  0  0  0  0  0  0  0  0  0  0  0
    2.9110   -0.2930    0.2630 C   0  0  0  0  0  0  0  0  0  0  0  0
    3.5850   -0.3290   -0.9420 O   0  0  0  0  0  0  0  0  0  0  0  0
    4.9120   -0.0390   -0.8510 C   0  0  0  0  0  0  0  0  0  0  0  0
    5.1440    1.3360   -0.3180 C   0  0  2  0  0  0  0  0  0  0  0  0
    4.5080    2.2360   -1.1880 O   0  0  0  0  0  0  0  0  0  0  0  0
    6.6520    1.5950   -0.3240 C   0  0  0  0  0  0  0  0  0  0  0  0
    7.2190    0.6710    0.5570 O   0  0  0  0  0  0  0  0  0  0  0  0
  2  1  1  6
  2  3  1  0
  2  5  1  0
  3  4  1  0
  5  6  2  0
  5  7  1  0
  7  8  1  0
  8  9  1  0
  9 10  1  6
  9 11  1  0
 11 12  1  0
 12 13  1  0
 13 14  1  0
 14 15  1  0
 15 16  1  0
 16 17  1  0
 17 18  1  6
 17 19  1  0
 19 20  1  0
M  CHG  1   1   1
M  END
