
     RDKit          3D

 16 17  0  0  0  0  0  0  0  0999 V2000
   -1.7120   -0.7140   -1.6840 N   0  0  0  0  0  0  0  0  0  0  0  0
   -1.9800    0.1440   -0.5430 C   0  0  1  0  0  0  0  0  0  0  0  0
   -3.4380    0.1290   -0.2870 C   0  0  0  0  0  0  0  0  0  0  0  0
   -3.8310    0.1010    1.0620 O   0  0  0  0  0  0  0  0  0  0  0  0
   -3.1430   -0.6690    2.0020 C   0  0  0  0  0  0  0  0  0  0  0  0
   -3.6700   -1.0190    3.0810 O   0  0  0  0  0  0  0  0  0  0  0  0
   -1.8110   -1.0130    1.6220 N   0  0  0  0  0  0  0  0  0  0  0  0
   -1.1020   -0.3240    0.5880 C   0  0  2  0  0  0  0  0  0  0  0  0
   -0.4270    0.8670    1.2520 C   0  0  0  0  0  0  0  0  0  0  0  0
    0.6130    1.8220    0.1710 S   0  0  0  0  0  0  0  0  0  0  0  0
    2.0820    0.9390   -0.2860 C   0  0  0  0  0  0  0  0  0  0  0  0
    2.4190   -0.1970    0.2910 C   0  0  0  0  0  0  0  0  0  0  0  0
    3.6370   -0.9860   -0.0490 C   0  0  0  0  0  0  0  0  0  0  0  0
    4.4330   -0.3490   -0.9980 O   0  0  0  0  0  0  0  0  0  0  0  0
    4.1050    0.8390   -1.6190 C   0  0  0  0  0  0  0  0  0  0  0  0
    2.9990    1.4790   -1.3070 C   0  0  0  0  0  0  0  0  0  0  0  0
  2  1  1  6
  2  3  1  0
  2  8  1  0
  3  4  1  0
  4  5  1  0
  5  6  2  0
  5  7  1  0
  7  8  1  0
  8  9  1  1
  9 10  1  0
 10 11  1  0
 11 12  2  0
 11 16  1  0
 12 13  1  0
 13 14  1  0
 14 15  1  0
 15 16  2  0
M  END
