
     RDKit          3D

 22 24  0  0  0  0  0  0  0  0999 V2000
   -3.1500    1.3140    1.6950 O   0  0  0  0  0  0  0  0  0  0  0  0
   -3.0370    1.8800    0.4460 C   0  0  0  0  0  0  0  0  0  0  0  0
   -2.9370    0.8320   -0.6620 C   0  0  2  0  0  0  0  0  0  0  0  0
   -4.1310   -0.0480   -0.6980 C   0  0  1  0  0  0  0  0  0  0  0  0
   -4.8950    0.1340   -1.8760 O   0  0  0  0  0  0  0  0  0  0  0  0
   -3.8670   -1.5020   -0.5610 C   0  0  2  0  0  0  0  0  0  0  0  0
   -5.0370   -2.1260   -0.0880 O   0  0  0  0  0  0  0  0  0  0  0  0
   -2.7610   -1.7920    0.4290 C   0  0  1  0  0  0  0  0  0  0  0  0
   -2.5550   -3.1510    0.5360 O   0  0  0  0  0  0  0  0  0  0  0  0
   -1.5440   -1.1090   -0.0850 C   0  0  0  0  0  0  0  0  0  0  0  0
   -0.2560   -1.4910   -0.1570 N   0  0  0  0  0  0  0  0  0  0  0  0
    0.4510   -0.4930   -0.7130 C   0  0  0  0  0  0  0  0  0  0  0  0
    1.9030   -0.4200   -1.0090 C   0  0  0  0  0  0  0  0  0  0  0  0
    2.5610    0.1420    0.1680 N   0  0  0  0  0  0  0  0  0  0  0  0
    3.9580    0.3330    0.1850 C   0  0  0  0  0  0  0  0  0  0  0  0
    4.7050   -0.0130   -0.9170 C   0  0  0  0  0  0  0  0  0  0  0  0
    6.0760    0.1620   -0.9320 C   0  0  0  0  0  0  0  0  0  0  0  0
    6.6780    0.6940    0.1900 C   0  0  0  0  0  0  0  0  0  0  0  0
    5.9730    1.0510    1.3040 C   0  0  0  0  0  0  0  0  0  0  0  0
    4.5890    0.8580    1.2790 C   0  0  0  0  0  0  0  0  0  0  0  0
   -0.4620    0.5100   -0.9760 C   0  0  0  0  0  0  0  0  0  0  0  0
   -1.6850    0.1200   -0.5860 N   0  0  0  0  0  0  0  0  0  0  0  0
  1  2  1  0
  3  2  1  1
  3  4  1  0
  3 22  1  0
  4  5  1  6
  4  6  1  0
  6  7  1  1
  6  8  1  0
  8  9  1  6
  8 10  1  0
 10 11  2  0
 10 22  1  0
 11 12  1  0
 12 13  1  0
 12 21  2  0
 13 14  1  0
 14 15  1  0
 15 16  2  0
 15 20  1  0
 16 17  1  0
 17 18  2  0
 18 19  1  0
 19 20  2  0
 21 22  1  0
M  END
