
     RDKit          3D

 21 24  0  0  0  0  0  0  0  0999 V2000
    3.8730   -0.3780   -2.4320 O   0  0  0  0  0  0  0  0  0  0  0  0
    4.5190   -0.1990   -1.2230 C   0  0  0  0  0  0  0  0  0  0  0  0
    5.9260   -0.2350   -1.1670 C   0  0  0  0  0  0  0  0  0  0  0  0
    6.5470   -0.0600    0.0140 N   0  0  0  0  0  0  0  0  0  0  0  0
    5.8530    0.1490    1.1390 C   0  0  0  0  0  0  0  0  0  0  0  0
    4.4840    0.1870    1.1000 C   0  0  0  0  0  0  0  0  0  0  0  0
    3.7780    0.0130   -0.0920 C   0  0  0  0  0  0  0  0  0  0  0  0
    2.3260    0.0630   -0.0760 C   0  0  0  0  0  0  0  0  0  0  0  0
    1.5760    0.2730    1.0480 N   0  0  0  0  0  0  0  0  0  0  0  0
    0.2770    0.2670    0.7540 C   0  0  0  0  0  0  0  0  0  0  0  0
   -0.8860    0.4290    1.5000 C   0  0  0  0  0  0  0  0  0  0  0  0
   -2.0960    0.3640    0.8700 C   0  0  0  0  0  0  0  0  0  0  0  0
   -2.2290    0.1410   -0.5050 C   0  0  0  0  0  0  0  0  0  0  0  0
   -1.0730   -0.0150   -1.2200 C   0  0  0  0  0  0  0  0  0  0  0  0
    0.1640    0.0480   -0.5950 C   0  0  0  0  0  0  0  0  0  0  0  0
    1.4410   -0.0710   -1.0590 N   0  0  0  0  0  0  0  0  0  0  0  0
   -3.5910    0.0960   -1.0690 C   0  0  0  0  0  0  0  0  0  0  0  0
   -4.5670   -0.6030   -0.1890 C   0  0  2  0  0  0  0  0  0  0  0  0
   -5.8790   -0.1040   -0.3550 O   0  0  0  0  0  0  0  0  0  0  0  0
   -4.2530   -0.5990    1.2660 C   0  0  0  0  0  0  0  0  0  0  0  0
   -3.3370    0.5350    1.6770 C   0  0  0  0  0  0  0  0  0  0  0  0
  1  2  1  0
  2  3  2  0
  2  7  1  0
  3  4  1  0
  4  5  2  0
  5  6  1  0
  6  7  2  0
  7  8  1  0
  8  9  2  0
  8 16  1  0
  9 10  1  0
 10 11  2  0
 10 15  1  0
 11 12  1  0
 12 13  2  0
 12 21  1  0
 13 14  1  0
 13 17  1  0
 14 15  2  0
 15 16  1  0
 17 18  1  0
 18 19  1  1
 18 20  1  0
 20 21  1  0
M  END
