
     RDKit          3D

 11 11  0  0  0  0  0  0  0  0999 V2000
    2.6780   -1.8390   -0.0640 O   0  0  0  0  0  0  0  0  0  0  0  0
    2.0300   -1.3890    1.0760 C   0  0  0  0  0  0  0  0  0  0  0  0
    0.6490   -1.2450    0.8270 O   0  0  0  0  0  0  0  0  0  0  0  0
    0.4650   -0.3400   -0.1810 C   0  0  1  0  0  0  0  0  0  0  0  0
   -0.3340   -0.8740   -1.3470 C   0  0  0  0  0  0  0  0  0  0  0  0
   -1.0260    0.1760   -1.8920 O   0  0  0  0  0  0  0  0  0  0  0  0
   -0.6800    1.3370   -1.2120 C   0  0  0  0  0  0  0  0  0  0  0  0
   -0.4300    0.8200    0.1910 C   0  0  2  0  0  0  0  0  0  0  0  0
    0.1990    1.7590    0.9760 O   0  0  0  0  0  0  0  0  0  0  0  0
   -1.7630    0.3770    0.7450 C   0  0  0  0  0  0  0  0  0  0  0  0
   -2.6050    1.4830    0.8440 O   0  0  0  0  0  0  0  0  0  0  0  0
  1  2  1  0
  2  3  1  0
  4  3  1  1
  4  5  1  0
  4  8  1  0
  5  6  1  0
  6  7  1  0
  7  8  1  0
  8  9  1  1
  8 10  1  0
 10 11  1  0
M  END
