
     RDKit          3D

 11 11  0  0  0  0  0  0  0  0999 V2000
    2.5510    1.3720    0.2720 O   0  0  0  0  0  0  0  0  0  0  0  0
    2.3680    0.0510   -0.1600 C   0  0  0  0  0  0  0  0  0  0  0  0
    1.1430   -0.5440    0.5260 C   0  0  1  0  0  0  0  0  0  0  0  0
    1.3370   -0.5270    1.8950 O   0  0  0  0  0  0  0  0  0  0  0  0
   -0.0350    0.2520    0.0770 C   0  0  1  0  0  0  0  0  0  0  0  0
   -0.1350    0.1350   -1.4290 C   0  0  0  0  0  0  0  0  0  0  0  0
   -1.4500    0.1660   -1.7780 O   0  0  0  0  0  0  0  0  0  0  0  0
   -2.2420    0.0940   -0.6710 C   0  0  2  0  0  0  0  0  0  0  0  0
   -2.7730    1.3840   -0.4430 O   0  0  0  0  0  0  0  0  0  0  0  0
   -1.3620   -0.3160    0.5030 C   0  0  1  0  0  0  0  0  0  0  0  0
   -1.3420   -1.6930    0.5650 O   0  0  0  0  0  0  0  0  0  0  0  0
  1  2  1  0
  2  3  1  0
  3  4  1  1
  3  5  1  0
  5  6  1  6
  5 10  1  0
  6  7  1  0
  7  8  1  0
  8  9  1  1
  8 10  1  0
 10 11  1  6
M  END
