
     RDKit          3D

 11 11  0  0  0  0  0  0  0  0999 V2000
   -2.3790   -0.3790    0.0450 C   0  0  0  0  0  0  0  0  0  0  0  0
   -1.1620    0.0170   -0.7490 C   0  0  1  0  0  0  0  0  0  0  0  0
   -0.7590   -1.0320   -1.5760 O   0  0  0  0  0  0  0  0  0  0  0  0
   -1.3800    1.1880   -1.4600 O   0  0  0  0  0  0  0  0  0  0  0  0
   -0.0090    0.2920    0.2190 C   0  0  1  0  0  0  0  0  0  0  0  0
   -0.2970    1.4810    1.0930 C   0  0  0  0  0  0  0  0  0  0  0  0
    0.2030   -0.8690    0.9280 O   0  0  0  0  0  0  0  0  0  0  0  0
    1.4070   -1.4090    0.4670 C   0  0  0  0  0  0  0  0  0  0  0  0
    2.1480   -0.0950    0.1920 C   0  0  1  0  0  0  0  0  0  0  0  0
    3.2880   -0.2970   -0.5420 O   0  0  0  0  0  0  0  0  0  0  0  0
    1.1400    0.5700   -0.5070 O   0  0  0  0  0  0  0  0  0  0  0  0
  2  1  1  1
  2  3  1  0
  2  4  1  0
  2  5  1  0
  5  6  1  1
  5  7  1  0
  5 11  1  0
  7  8  1  0
  8  9  1  0
  9 10  1  6
  9 11  1  0
M  END
