
     RDKit          3D

 24 27  0  0  0  0  0  0  0  0999 V2000
    5.9890   -1.7090    0.2090 C   0  0  0  0  0  0  0  0  0  0  0  0
    4.6270   -1.1430    0.1280 C   0  0  0  0  0  0  0  0  0  0  0  0
    4.0640   -0.2790    1.0570 C   0  0  0  0  0  0  0  0  0  0  0  0
    2.8020   -0.0030    0.6030 C   0  0  0  0  0  0  0  0  0  0  0  0
    2.5440   -0.6310   -0.5360 N   0  0  0  0  0  0  0  0  0  0  0  0
    3.6710   -1.3390   -0.8350 C   0  0  0  0  0  0  0  0  0  0  0  0
    1.2370   -0.3060   -0.9720 C   0  0  0  0  0  0  0  0  0  0  0  0
    0.6790   -0.7320   -2.0270 O   0  0  0  0  0  0  0  0  0  0  0  0
    0.6150    0.5700   -0.0810 N   0  0  0  0  0  0  0  0  0  0  0  0
   -0.7270    0.9850    0.1550 C   0  0  0  0  0  0  0  0  0  0  0  0
   -1.6850    0.0390    0.3030 C   0  0  0  0  0  0  0  0  0  0  0  0
   -1.3060   -1.3510    0.2350 C   0  0  0  0  0  0  0  0  0  0  0  0
   -2.2640   -2.2760    0.3160 C   0  0  0  0  0  0  0  0  0  0  0  0
   -3.6850   -2.0180    0.4700 C   0  0  2  0  0  0  0  0  0  0  0  0
   -4.4380   -2.5710   -0.6700 N   0  0  0  0  0  0  0  0  0  0  0  0
   -4.0390   -0.5960    0.5390 C   0  0  0  0  0  0  0  0  0  0  0  0
   -3.0950    0.3250    0.4590 C   0  0  0  0  0  0  0  0  0  0  0  0
   -3.5210    1.7480    0.5210 C   0  0  0  0  0  0  0  0  0  0  0  0
   -2.4720    2.6260    0.6290 O   0  0  0  0  0  0  0  0  0  0  0  0
   -1.1120    2.3660    0.2990 C   0  0  0  0  0  0  0  0  0  0  0  0
   -0.3510    3.4010    0.1220 C   0  0  0  0  0  0  0  0  0  0  0  0
    1.0360    3.6180   -0.2700 C   0  0  0  0  0  0  0  0  0  0  0  0
    0.9770    4.7470   -1.7010 Cl  0  0  0  0  0  0  0  0  0  0  0  0
    1.6190    0.7720    0.9930 C   0  0  0  0  0  0  0  0  0  0  0  0
  1  2  1  0
  2  3  1  0
  2  6  2  0
  3  4  2  0
  4  5  1  0
  4 24  1  0
  5  6  1  0
  5  7  1  0
  7  8  2  0
  7  9  1  0
  9 10  1  0
  9 24  1  0
 10 11  2  0
 10 20  1  0
 11 12  1  0
 11 17  1  0
 12 13  2  0
 13 14  1  0
 14 15  1  6
 14 16  1  0
 16 17  2  0
 17 18  1  0
 18 19  1  0
 19 20  1  0
 20 21  2  3
 21 22  1  0
 22 23  1  0
M  CHG  1  15   1
M  END
