
     RDKit          3D

 25 28  0  0  0  0  0  0  0  0999 V2000
    7.3920    1.0470    0.3710 C   0  0  0  0  0  0  0  0  0  0  0  0
    6.4170   -0.0090    0.0370 C   0  0  0  0  0  0  0  0  0  0  0  0
    5.0850    0.2060    0.1080 C   0  0  0  0  0  0  0  0  0  0  0  0
    4.6420    1.8150    0.6190 Cl  0  0  0  0  0  0  0  0  0  0  0  0
    4.1340   -0.8180   -0.2150 C   0  0  0  0  0  0  0  0  0  0  0  0
    2.6960   -0.5960   -0.1420 C   0  0  0  0  0  0  0  0  0  0  0  0
    1.7460   -1.5790   -0.4520 C   0  0  0  0  0  0  0  0  0  0  0  0
    0.4740   -1.0730   -0.2890 C   0  0  0  0  0  0  0  0  0  0  0  0
    0.6170    0.2210    0.1200 C   0  0  0  0  0  0  0  0  0  0  0  0
   -0.3950    1.1860    0.4580 C   0  0  0  0  0  0  0  0  0  0  0  0
    0.0430    2.3340    0.9020 O   0  0  0  0  0  0  0  0  0  0  0  0
   -1.7860    1.0980    0.3890 N   0  0  0  0  0  0  0  0  0  0  0  0
   -2.5360    2.2770    0.8610 C   0  0  0  0  0  0  0  0  0  0  0  0
   -3.4910    2.8260   -0.1470 C   0  0  0  0  0  0  0  0  0  0  0  0
   -3.8410    1.8090   -1.1790 C   0  0  0  0  0  0  0  0  0  0  0  0
   -3.9080    0.4040   -0.6790 C   0  0  2  0  0  0  0  0  0  0  0  0
   -4.9780    0.1210    0.3130 C   0  0  0  0  0  0  0  0  0  0  0  0
   -5.1000   -1.3140    0.4880 N   0  0  0  0  0  0  0  0  0  0  0  0
   -3.8420   -1.9980    0.5590 C   0  0  0  0  0  0  0  0  0  0  0  0
   -2.7840   -0.9870    0.9980 C   0  0  0  0  0  0  0  0  0  0  0  0
   -2.5530   -0.0160   -0.1070 C   0  0  2  0  0  0  0  0  0  0  0  0
    1.9740    0.4640    0.1950 N   0  0  0  0  0  0  0  0  0  0  0  0
    4.5990   -2.0030   -0.5920 C   0  0  0  0  0  0  0  0  0  0  0  0
    6.0460   -2.3180   -0.6940 C   0  0  0  0  0  0  0  0  0  0  0  0
    6.8610   -1.2420   -0.3540 O   0  0  0  0  0  0  0  0  0  0  0  0
  1  2  1  0
  2  3  2  0
  2 25  1  0
  3  4  1  0
  3  5  1  0
  5  6  1  0
  5 23  2  0
  6  7  2  0
  6 22  1  0
  7  8  1  0
  8  9  2  0
  9 10  1  0
  9 22  1  0
 10 11  2  0
 10 12  1  0
 12 13  1  0
 12 21  1  0
 13 14  1  0
 14 15  1  0
 16 15  1  1
 16 17  1  0
 16 21  1  0
 17 18  1  0
 18 19  1  0
 19 20  1  0
 21 20  1  1
 23 24  1  0
 24 25  1  0
M  CHG  1  18   1
M  END
