
     RDKit          3D

 25 28  0  0  0  0  0  0  0  0999 V2000
   -2.6330   -2.5040    0.2030 O   0  0  0  0  0  0  0  0  0  0  0  0
   -2.8200   -1.3500   -0.2010 C   0  0  0  0  0  0  0  0  0  0  0  0
   -1.7480   -0.4750   -0.4610 N   0  0  0  0  0  0  0  0  0  0  0  0
   -0.3730   -0.7900   -0.3090 C   0  0  0  0  0  0  0  0  0  0  0  0
    0.0910   -2.0700   -0.1710 C   0  0  0  0  0  0  0  0  0  0  0  0
    1.4680   -2.2570   -0.0060 C   0  0  0  0  0  0  0  0  0  0  0  0
    2.3450   -1.1960    0.0200 C   0  0  0  0  0  0  0  0  0  0  0  0
    1.9030    0.0970   -0.1160 C   0  0  0  0  0  0  0  0  0  0  0  0
    0.5490    0.2660   -0.2780 C   0  0  0  0  0  0  0  0  0  0  0  0
    2.5740    1.4030   -0.1300 C   0  0  0  0  0  0  0  0  0  0  0  0
    3.9910    1.3580   -0.1340 N   0  0  0  0  0  0  0  0  0  0  0  0
    4.6900    2.4360   -0.6000 C   0  0  0  0  0  0  0  0  0  0  0  0
    6.0230    2.1920   -0.5180 C   0  0  0  0  0  0  0  0  0  0  0  0
    6.1930    0.9400    0.0090 C   0  0  0  0  0  0  0  0  0  0  0  0
    7.4770    0.2580    0.2780 C   0  0  0  0  0  0  0  0  0  0  0  0
    7.8110   -0.9910   -0.9620 Cl  0  0  0  0  0  0  0  0  0  0  0  0
    4.9120    0.4540    0.2340 C   0  0  0  0  0  0  0  0  0  0  0  0
    4.6850   -0.8750    0.8020 C   0  0  0  0  0  0  0  0  0  0  0  0
    3.6500   -1.6090    0.1930 O   0  0  0  0  0  0  0  0  0  0  0  0
   -4.2340   -0.9130   -0.4020 C   0  0  1  0  0  0  0  0  0  0  0  0
   -4.9230   -0.9790    0.9350 C   0  0  0  0  0  0  0  0  0  0  0  0
   -6.3030   -0.4050    0.9130 C   0  0  0  0  0  0  0  0  0  0  0  0
   -6.2760    0.9730    0.2740 C   0  0  0  0  0  0  0  0  0  0  0  0
   -5.6620    0.7830   -1.1190 C   0  0  0  0  0  0  0  0  0  0  0  0
   -4.2650    0.4570   -0.8870 N   0  0  0  0  0  0  0  0  0  0  0  0
  1  2  2  0
  2  3  1  0
 20  2  1  1
  3  4  1  0
  4  5  2  0
  4  9  1  0
  5  6  1  0
  6  7  2  0
  7  8  1  0
  7 19  1  0
  8  9  2  0
  8 10  1  0
 10 11  1  0
 11 12  1  0
 11 17  1  0
 12 13  2  0
 13 14  1  0
 14 15  1  0
 14 17  2  0
 15 16  1  0
 17 18  1  0
 18 19  1  0
 20 21  1  0
 20 25  1  0
 21 22  1  0
 22 23  1  0
 23 24  1  0
 24 25  1  0
M  CHG  1  25   1
M  END
