
     RDKit          3D

 24 27  0  0  0  0  0  0  0  0999 V2000
   -5.5240    0.3210   -0.8560 C   0  0  0  0  0  0  0  0  0  0  0  0
   -4.8170    0.9990    0.2130 N   0  0  1  0  0  0  0  0  0  0  0  0
   -4.7670    0.2340    1.4070 C   0  0  0  0  0  0  0  0  0  0  0  0
   -4.5240   -1.2370    1.2370 C   0  0  0  0  0  0  0  0  0  0  0  0
   -3.3440   -1.4570    0.3210 C   0  0  0  0  0  0  0  0  0  0  0  0
   -3.0320   -2.6340   -0.2450 N   0  0  0  0  0  0  0  0  0  0  0  0
   -1.9320   -2.4980   -1.0050 C   0  0  0  0  0  0  0  0  0  0  0  0
   -1.4970   -1.1830   -0.9420 C   0  0  0  0  0  0  0  0  0  0  0  0
   -0.3050   -0.6150   -1.6350 C   0  0  0  0  0  0  0  0  0  0  0  0
    0.8330   -0.4400   -0.7200 C   0  0  0  0  0  0  0  0  0  0  0  0
    0.6900   -0.7590    0.4710 O   0  0  0  0  0  0  0  0  0  0  0  0
    2.0430    0.0740   -1.2000 N   0  0  0  0  0  0  0  0  0  0  0  0
    3.2160    0.2980   -0.4320 C   0  0  0  0  0  0  0  0  0  0  0  0
    3.2550    0.3610    0.9340 C   0  0  0  0  0  0  0  0  0  0  0  0
    4.4490    0.5560    1.6220 C   0  0  0  0  0  0  0  0  0  0  0  0
    5.6420    0.6950    0.9530 C   0  0  0  0  0  0  0  0  0  0  0  0
    5.6190    0.6350   -0.4130 C   0  0  0  0  0  0  0  0  0  0  0  0
    4.4490    0.4440   -1.0880 C   0  0  0  0  0  0  0  0  0  0  0  0
    7.0210    0.8080   -0.8720 C   0  0  0  0  0  0  0  0  0  0  0  0
    7.7980    0.3660    0.3550 C   0  0  0  0  0  0  0  0  0  0  0  0
    6.9640    0.8980    1.3940 O   0  0  0  0  0  0  0  0  0  0  0  0
   -2.3940   -0.5570   -0.1100 C   0  0  0  0  0  0  0  0  0  0  0  0
   -2.3430    0.8780    0.2590 C   0  0  0  0  0  0  0  0  0  0  0  0
   -3.5990    1.5230   -0.2850 C   0  0  0  0  0  0  0  0  0  0  0  0
  2  1  1  6
  2  3  1  0
  2 24  1  0
  3  4  1  0
  4  5  1  0
  5  6  1  0
  5 22  2  0
  6  7  1  0
  7  8  2  0
  8  9  1  0
  8 22  1  0
  9 10  1  0
 10 11  2  0
 10 12  1  0
 12 13  1  0
 13 14  2  0
 13 18  1  0
 14 15  1  0
 15 16  2  0
 16 17  1  0
 16 21  1  0
 17 18  2  0
 17 19  1  0
 19 20  1  0
 20 21  1  0
 22 23  1  0
 23 24  1  0
M  CHG  1   2   1
M  END
