
     RDKit          3D

 25 28  0  0  0  0  0  0  0  0999 V2000
    6.9270    1.7000   -1.1690 C   0  0  0  0  0  0  0  0  0  0  0  0
    6.6000    0.8870    0.0570 C   0  0  0  0  0  0  0  0  0  0  0  0
    5.1840    0.4370    0.0570 C   0  0  0  0  0  0  0  0  0  0  0  0
    4.6560   -0.3010    1.0450 N   0  0  0  0  0  0  0  0  0  0  0  0
    3.3670   -0.5480    0.7630 C   0  0  0  0  0  0  0  0  0  0  0  0
    2.3490   -1.2310    1.3850 C   0  0  0  0  0  0  0  0  0  0  0  0
    1.0680   -1.3090    0.8170 C   0  0  0  0  0  0  0  0  0  0  0  0
    0.7610   -0.7150   -0.3780 C   0  0  0  0  0  0  0  0  0  0  0  0
   -0.5020   -0.7290   -1.0130 N   0  0  0  0  0  0  0  0  0  0  0  0
   -1.6730   -1.1400   -0.3570 C   0  0  0  0  0  0  0  0  0  0  0  0
   -1.7220   -1.5250    0.8340 O   0  0  0  0  0  0  0  0  0  0  0  0
   -2.9770   -1.1350   -1.0950 C   0  0  1  0  0  0  0  0  0  0  0  0
   -4.0460   -1.6450   -0.1630 C   0  0  0  0  0  0  0  0  0  0  0  0
   -4.5280   -0.5480    0.7490 C   0  0  0  0  0  0  0  0  0  0  0  0
   -4.7260   -0.4960    2.0540 C   0  0  0  0  0  0  0  0  0  0  0  0
   -4.4730   -1.7790    3.2330 Cl  0  0  0  0  0  0  0  0  0  0  0  0
   -5.2120    0.8750    2.3510 C   0  0  0  0  0  0  0  0  0  0  0  0
   -5.2470    1.5470    1.0330 C   0  0  0  0  0  0  0  0  0  0  0  0
   -4.8470    0.7140    0.0950 C   0  0  0  0  0  0  0  0  0  0  0  0
   -4.6560    0.7570   -1.3830 C   0  0  0  0  0  0  0  0  0  0  0  0
   -3.3260    0.1640   -1.6580 C   0  0  0  0  0  0  0  0  0  0  0  0
   -2.5500    0.7800   -2.3530 O   0  0  0  0  0  0  0  0  0  0  0  0
    1.8130   -0.0210   -1.0010 C   0  0  0  0  0  0  0  0  0  0  0  0
    3.0600    0.0500   -0.4390 C   0  0  0  0  0  0  0  0  0  0  0  0
    4.2180    0.6520   -0.8450 N   0  0  0  0  0  0  0  0  0  0  0  0
  1  2  1  0
  2  3  1  0
  3  4  1  0
  3 25  2  0
  4  5  1  0
  5  6  2  0
  5 24  1  0
  6  7  1  0
  7  8  2  0
  8  9  1  0
  8 23  1  0
  9 10  1  0
 10 11  2  0
 12 10  1  1
 12 13  1  0
 12 21  1  0
 13 14  1  0
 14 15  2  0
 14 19  1  0
 15 16  1  0
 15 17  1  0
 17 18  1  0
 18 19  2  0
 19 20  1  0
 20 21  1  0
 21 22  2  0
 23 24  2  0
 24 25  1  0
M  CHG  1  25   1
M  END
