
     RDKit          3D

 25 27  0  0  0  0  0  0  0  0999 V2000
    1.1680   -4.0150    0.0990 C   0  0  0  0  0  0  0  0  0  0  0  0
    1.3610   -2.9880    1.0720 O   0  0  0  0  0  0  0  0  0  0  0  0
    0.7500   -1.7390    0.6770 C   0  0  0  0  0  0  0  0  0  0  0  0
    1.6780   -0.7210    0.3360 C   0  0  0  0  0  0  0  0  0  0  0  0
    3.0220   -0.9550    0.3880 C   0  0  0  0  0  0  0  0  0  0  0  0
    3.9860    0.0650    0.0440 C   0  0  0  0  0  0  0  0  0  0  0  0
    5.3060   -0.0890    0.0730 C   0  0  0  0  0  0  0  0  0  0  0  0
    5.8890    1.1950   -0.3490 C   0  0  2  0  0  0  0  0  0  0  0  0
    6.1290    2.0310    0.8890 C   0  0  0  0  0  0  0  0  0  0  0  0
    4.8540    1.7880   -1.1630 N   0  0  0  0  0  0  0  0  0  0  0  0
    3.6640    1.4560   -0.4010 C   0  0  0  0  0  0  0  0  0  0  0  0
   -0.5200   -1.7510    0.7000 C   0  0  0  0  0  0  0  0  0  0  0  0
   -1.4500   -0.6800    0.3660 C   0  0  0  0  0  0  0  0  0  0  0  0
   -2.7460   -1.0090    0.5010 C   0  0  0  0  0  0  0  0  0  0  0  0
   -3.8450   -0.1020    0.2210 C   0  0  0  0  0  0  0  0  0  0  0  0
   -5.1030   -0.4860    0.4380 C   0  0  0  0  0  0  0  0  0  0  0  0
   -5.5090   -1.7990    0.9600 C   0  0  0  0  0  0  0  0  0  0  0  0
   -6.5460   -2.6680   -0.2160 Cl  0  0  0  0  0  0  0  0  0  0  0  0
   -6.1600    0.4410    0.1410 N   0  0  0  0  0  0  0  0  0  0  0  0
   -5.9250    1.6340   -0.6340 C   0  0  0  0  0  0  0  0  0  0  0  0
   -4.5600    2.1390   -0.4500 C   0  0  0  0  0  0  0  0  0  0  0  0
   -4.3000    3.3490   -0.4840 O   0  0  0  0  0  0  0  0  0  0  0  0
   -3.5020    1.1850   -0.2230 N   0  0  0  0  0  0  0  0  0  0  0  0
   -2.1500    1.5580   -0.4970 C   0  0  0  0  0  0  0  0  0  0  0  0
   -1.0810    0.6510   -0.0550 C   0  0  0  0  0  0  0  0  0  0  0  0
  1  2  1  0
  2  3  1  0
  3  4  1  0
  3 12  2  3
  4  5  2  3
  5  6  1  0
  6  7  2  0
  6 11  1  0
  7  8  1  0
  8  9  1  1
  8 10  1  0
 10 11  1  0
 12 13  1  0
 13 14  2  0
 13 25  1  0
 14 15  1  0
 15 16  2  0
 15 23  1  0
 16 17  1  0
 16 19  1  0
 17 18  1  0
 19 20  1  0
 20 21  1  0
 21 22  2  0
 21 23  1  0
 23 24  1  0
 24 25  1  0
M  CHG  1  10   1
M  END
