
     RDKit          3D

 25 28  0  0  0  0  0  0  0  0999 V2000
    4.8630    2.5860   -0.3590 C   0  0  0  0  0  0  0  0  0  0  0  0
    4.6480    1.2560   -1.0800 C   0  0  0  0  0  0  0  0  0  0  0  0
    3.3380    0.6820   -0.6950 C   0  0  0  0  0  0  0  0  0  0  0  0
    2.5020    1.3230    0.1890 N   0  0  0  0  0  0  0  0  0  0  0  0
    1.3270    0.7810    0.5170 C   0  0  0  0  0  0  0  0  0  0  0  0
    0.9210   -0.4240   -0.0160 C   0  0  0  0  0  0  0  0  0  0  0  0
    1.7500   -1.0670   -0.8980 C   0  0  0  0  0  0  0  0  0  0  0  0
    1.3410   -2.3560   -1.4870 C   0  0  0  0  0  0  0  0  0  0  0  0
    1.5120   -3.4210   -0.4160 C   0  0  0  0  0  0  0  0  0  0  0  0
    2.9550   -0.4910   -1.2210 N   0  0  0  0  0  0  0  0  0  0  0  0
   -0.4070   -0.9190    0.4150 C   0  0  0  0  0  0  0  0  0  0  0  0
   -1.3530    0.2710    0.0860 C   0  0  1  0  0  0  0  0  0  0  0  0
   -1.1660    0.3660   -1.3390 O   0  0  0  0  0  0  0  0  0  0  0  0
   -2.7530   -0.1350    0.2370 C   0  0  0  0  0  0  0  0  0  0  0  0
   -3.2500   -1.2770   -0.3950 C   0  0  0  0  0  0  0  0  0  0  0  0
   -4.5590   -1.6790   -0.2760 C   0  0  0  0  0  0  0  0  0  0  0  0
   -5.1340   -3.1120   -1.0840 Cl  0  0  0  0  0  0  0  0  0  0  0  0
   -5.4410   -0.9510    0.4860 C   0  0  0  0  0  0  0  0  0  0  0  0
   -4.9820    0.1740    1.1170 C   0  0  0  0  0  0  0  0  0  0  0  0
   -3.6330    0.5750    0.9860 C   0  0  0  0  0  0  0  0  0  0  0  0
   -3.2480    1.7480    1.6780 N   0  0  0  0  0  0  0  0  0  0  0  0
   -1.9170    2.2000    1.5940 C   0  0  0  0  0  0  0  0  0  0  0  0
   -1.5290    3.2280    2.2600 O   0  0  0  0  0  0  0  0  0  0  0  0
   -0.9420    1.5150    0.7500 C   0  0  1  0  0  0  0  0  0  0  0  0
    0.4250    1.4370    1.4640 C   0  0  0  0  0  0  0  0  0  0  0  0
  1  2  1  0
  2  3  1  0
  3  4  2  0
  3 10  1  0
  4  5  1  0
  5  6  2  0
  5 25  1  0
  6  7  1  0
  6 11  1  0
  7  8  1  0
  7 10  2  0
  8  9  1  0
 11 12  1  0
 12 13  1  6
 12 14  1  0
 12 24  1  0
 14 15  2  0
 14 20  1  0
 15 16  1  0
 16 17  1  0
 16 18  2  0
 18 19  1  0
 19 20  2  0
 20 21  1  0
 21 22  1  0
 22 23  2  0
 22 24  1  0
 24 25  1  1
M  CHG  1  10   1
M  END
