
     RDKit          3D

 28 29  0  0  0  0  0  0  0  0999 V2000
    0.4880   -1.4510   -2.2800 C   0  0  0  0  0  0  0  0  0  0  0  0
    0.0860   -0.8840   -0.9370 C   0  0  2  0  0  0  0  0  0  0  0  0
   -1.1020   -0.1040   -1.2320 O   0  0  0  0  0  0  0  0  0  0  0  0
   -2.3230   -0.4560   -0.6680 C   0  0  0  0  0  0  0  0  0  0  0  0
   -2.3100   -1.4650    0.0870 O   0  0  0  0  0  0  0  0  0  0  0  0
   -3.5200    0.2460   -0.9030 N   0  0  0  0  0  0  0  0  0  0  0  0
   -3.7250    1.4140   -1.7300 C   0  0  0  0  0  0  0  0  0  0  0  0
   -2.9750    1.7820   -2.6640 O   0  0  0  0  0  0  0  0  0  0  0  0
   -4.9130    2.0920   -1.3290 N   0  0  0  0  0  0  0  0  0  0  0  0
   -5.4530    1.3390   -0.2360 C   0  0  0  0  0  0  0  0  0  0  0  0
   -6.2260    1.2850    0.7910 N   0  0  0  0  0  0  0  0  0  0  0  0
   -6.1930    0.0400    1.4090 N   0  0  0  0  0  0  0  0  0  0  0  0
   -4.9260   -0.5840    0.9790 C   0  0  0  0  0  0  0  0  0  0  0  0
   -4.8340   -0.0110   -0.3870 C   0  0  2  0  0  0  0  0  0  0  0  0
    1.1020   -0.0170   -0.3630 C   0  0  0  0  0  0  0  0  0  0  0  0
    0.9380    1.2560   -0.2990 O   0  0  0  0  0  0  0  0  0  0  0  0
    2.3590   -0.4810    0.1760 N   0  0  0  0  0  0  0  0  0  0  0  0
    2.6220   -1.8430    0.2130 C   0  0  0  0  0  0  0  0  0  0  0  0
    1.7900   -2.6920   -0.2110 O   0  0  0  0  0  0  0  0  0  0  0  0
    3.7890   -2.3830    0.7040 O   0  0  0  0  0  0  0  0  0  0  0  0
    3.2750    0.4760    0.6670 C   0  0  0  0  0  0  0  0  0  0  0  0
    2.9450    1.6990    0.5840 O   0  0  0  0  0  0  0  0  0  0  0  0
    4.5020    0.1680    1.2310 N   0  0  0  0  0  0  0  0  0  0  0  0
    5.3580    1.2390    1.6990 C   0  0  0  0  0  0  0  0  0  0  0  0
    4.9660    2.4140    1.5800 O   0  0  0  0  0  0  0  0  0  0  0  0
    6.5890    0.9880    2.2670 O   0  0  0  0  0  0  0  0  0  0  0  0
    7.3720    1.9850    2.6960 O   0  0  0  0  0  0  0  0  0  0  0  0
    7.9890    2.5180    1.6630 O   0  0  0  0  0  0  0  0  0  0  0  0
  2  1  1  6
  2  3  1  0
  2 15  1  0
  3  4  1  0
  4  5  2  0
  4  6  1  0
  6  7  1  0
  6 14  1  0
  7  8  2  0
  7  9  1  0
  9 10  1  0
 10 11  2  0
 10 14  1  0
 11 12  1  0
 12 13  1  0
 14 13  1  1
 15 16  2  0
 15 17  1  0
 17 18  1  0
 17 21  1  0
 18 19  2  0
 18 20  1  0
 21 22  2  0
 21 23  1  0
 23 24  1  0
 24 25  2  0
 24 26  1  0
 26 27  1  0
 27 28  1  0
M  END
