
     RDKit          3D

 28 30  0  0  0  0  0  0  0  0999 V2000
    1.9700    0.8010   -0.7140 O   0  0  0  0  0  0  0  0  0  0  0  0
    1.1050   -0.1040   -0.8450 C   0  0  0  0  0  0  0  0  0  0  0  0
    1.5560   -1.3360   -1.3690 N   0  0  0  0  0  0  0  0  0  0  0  0
    2.9710   -1.4960   -1.7290 C   0  0  0  0  0  0  0  0  0  0  0  0
    3.2120   -2.7620   -2.2190 O   0  0  0  0  0  0  0  0  0  0  0  0
    4.4920   -2.8310   -2.5180 O   0  0  0  0  0  0  0  0  0  0  0  0
    5.2220   -2.2780   -1.5500 O   0  0  0  0  0  0  0  0  0  0  0  0
   -0.2640    0.1560   -0.4630 N   0  0  0  0  0  0  0  0  0  0  0  0
   -1.2890   -0.7780   -0.6850 C   0  0  0  0  0  0  0  0  0  0  0  0
   -1.2460   -1.5150   -1.6960 O   0  0  0  0  0  0  0  0  0  0  0  0
   -2.4690   -0.9550    0.2370 C   0  0  1  0  0  0  0  0  0  0  0  0
   -3.5470   -1.5250   -0.3790 O   0  0  0  0  0  0  0  0  0  0  0  0
   -1.9990   -1.8540    1.3580 C   0  0  0  0  0  0  0  0  0  0  0  0
   -1.6340   -3.1060    0.8300 O   0  0  0  0  0  0  0  0  0  0  0  0
   -1.2230   -3.9130    1.7610 O   0  0  0  0  0  0  0  0  0  0  0  0
   -2.0430   -4.9340    1.9620 O   0  0  0  0  0  0  0  0  0  0  0  0
   -2.7340    0.4040    0.8010 C   0  0  0  0  0  0  0  0  0  0  0  0
   -3.9110    0.6810    1.1190 O   0  0  0  0  0  0  0  0  0  0  0  0
   -1.7210    1.3490    0.9750 N   0  0  0  0  0  0  0  0  0  0  0  0
   -0.5810    1.4460    0.1140 C   0  0  2  0  0  0  0  0  0  0  0  0
   -0.8620    2.4550   -0.9840 C   0  0  0  0  0  0  0  0  0  0  0  0
   -1.0970    3.7920   -0.3460 C   0  0  0  0  0  0  0  0  0  0  0  0
    0.2080    4.2110    0.1130 O   0  0  0  0  0  0  0  0  0  0  0  0
    0.9130    3.2610    0.8590 N   0  0  0  0  0  0  0  0  0  0  0  0
    1.9870    3.5020    1.6470 C   0  0  0  0  0  0  0  0  0  0  0  0
    2.3250    2.3200    2.1770 N   0  0  0  0  0  0  0  0  0  0  0  0
    1.4880    1.4120    1.7240 N   0  0  0  0  0  0  0  0  0  0  0  0
    0.5930    1.9710    0.8970 C   0  0  0  0  0  0  0  0  0  0  0  0
  1  2  2  0
  2  3  1  0
  2  8  1  0
  3  4  1  0
  4  5  1  0
  5  6  1  0
  6  7  1  0
  8  9  1  0
  8 20  1  0
  9 10  2  0
  9 11  1  0
 11 12  1  6
 11 13  1  0
 11 17  1  0
 13 14  1  0
 14 15  1  0
 15 16  1  0
 17 18  2  0
 17 19  1  0
 19 20  1  0
 20 21  1  6
 20 28  1  0
 21 22  1  0
 22 23  1  0
 23 24  1  0
 24 25  1  0
 24 28  1  0
 25 26  2  0
 26 27  1  0
 27 28  2  0
M  END
