
     RDKit          3D

 28 29  0  0  0  0  0  0  0  0999 V2000
    3.3440    1.5080   -0.2050 O   0  0  0  0  0  0  0  0  0  0  0  0
    3.6040    0.3350    0.2010 C   0  0  0  0  0  0  0  0  0  0  0  0
    4.8050   -0.2590   -0.2770 N   0  0  0  0  0  0  0  0  0  0  0  0
    5.6710    0.4450   -1.1740 C   0  0  0  0  0  0  0  0  0  0  0  0
    5.3500    1.6000   -1.5310 O   0  0  0  0  0  0  0  0  0  0  0  0
    6.8510   -0.1040   -1.6600 O   0  0  0  0  0  0  0  0  0  0  0  0
    7.5960    0.6370   -2.4970 O   0  0  0  0  0  0  0  0  0  0  0  0
    8.8540    0.6240   -2.1690 O   0  0  0  0  0  0  0  0  0  0  0  0
    9.0530    0.9130   -0.8970 O   0  0  0  0  0  0  0  0  0  0  0  0
    2.7230   -0.2710    1.0590 O   0  0  0  0  0  0  0  0  0  0  0  0
    1.5350    0.3440    1.5190 C   0  0  0  0  0  0  0  0  0  0  0  0
    0.6290    0.6890    0.3790 C   0  0  0  0  0  0  0  0  0  0  0  0
    0.6560    1.8340   -0.3230 N   0  0  0  0  0  0  0  0  0  0  0  0
   -0.2620    1.7850   -1.2640 N   0  0  0  0  0  0  0  0  0  0  0  0
   -0.9280    0.5900   -1.2060 C   0  0  0  0  0  0  0  0  0  0  0  0
   -0.3670   -0.0720   -0.1860 N   0  0  0  0  0  0  0  0  0  0  0  0
   -0.7500   -1.3770    0.2530 C   0  0  0  0  0  0  0  0  0  0  0  0
    0.2000   -2.2430    0.3150 O   0  0  0  0  0  0  0  0  0  0  0  0
   -2.0390   -1.8310    0.6270 N   0  0  0  0  0  0  0  0  0  0  0  0
   -2.8330   -1.3080    1.7000 C   0  0  0  0  0  0  0  0  0  0  0  0
   -4.3010   -1.2750    1.4880 C   0  0  0  0  0  0  0  0  0  0  0  0
   -4.7610   -0.0350    1.9730 O   0  0  0  0  0  0  0  0  0  0  0  0
   -5.3230    0.7400    0.9680 C   0  0  0  0  0  0  0  0  0  0  0  0
   -4.2740    1.2500   -0.0070 C   0  0  0  0  0  0  0  0  0  0  0  0
   -4.2630    0.4980   -1.1700 O   0  0  0  0  0  0  0  0  0  0  0  0
   -3.2760   -0.2140   -1.7790 C   0  0  0  0  0  0  0  0  0  0  0  0
   -3.6250   -1.4130   -2.1360 O   0  0  0  0  0  0  0  0  0  0  0  0
   -1.9550    0.1480   -2.0780 N   0  0  0  0  0  0  0  0  0  0  0  0
  1  2  2  0
  2  3  1  0
  2 10  1  0
  3  4  1  0
  4  5  2  0
  4  6  1  0
  6  7  1  0
  7  8  1  0
  8  9  1  0
 10 11  1  0
 11 12  1  0
 12 13  2  0
 12 16  1  0
 13 14  1  0
 14 15  2  0
 15 16  1  0
 15 28  1  0
 16 17  1  0
 17 18  2  0
 17 19  1  0
 19 20  1  0
 20 21  1  0
 21 22  1  0
 22 23  1  0
 23 24  1  0
 24 25  1  0
 25 26  1  0
 26 27  2  0
 26 28  1  0
M  END
