
     RDKit          3D

 25 27  0  0  0  0  0  0  0  0999 V2000
    7.0350    0.4210    2.1340 C   0  0  0  0  0  0  0  0  0  0  0  0
    5.9600    0.4150    1.0700 C   0  0  0  0  0  0  0  0  0  0  0  0
    4.8710   -0.3400    1.5660 O   0  0  0  0  0  0  0  0  0  0  0  0
    3.7090   -0.5480    0.8400 C   0  0  0  0  0  0  0  0  0  0  0  0
    3.3870   -0.1010   -0.4210 C   0  0  0  0  0  0  0  0  0  0  0  0
    2.1160   -0.5570   -0.7360 C   0  0  0  0  0  0  0  0  0  0  0  0
    1.3850   -0.3320   -1.9410 N   0  0  0  0  0  0  0  0  0  0  0  0
   -0.2210   -0.9590   -2.2310 P   0  0  0  0  0  0  0  0  0  0  0  0
   -0.5860   -2.4330   -1.4510 O   0  0  0  0  0  0  0  0  0  0  0  0
   -1.5690    0.2710   -2.0820 C   0  0  0  0  0  0  0  0  0  0  0  0
   -2.0360    0.8160   -3.1300 C   0  0  0  0  0  0  0  0  0  0  0  0
   -1.6130    0.5680   -4.8650 Cl  0  0  0  0  0  0  0  0  0  0  0  0
   -2.8570    1.8510   -2.7300 N   0  0  0  0  0  0  0  0  0  0  0  0
   -2.1190    2.1020   -1.4350 C   0  0  0  0  0  0  0  0  0  0  0  0
   -2.4880    0.6680   -0.5080 S   0  0  0  0  0  0  0  0  0  0  0  0
   -4.2940    1.4400   -0.2100 O   0  0  0  0  0  0  0  0  0  0  0  0
   -4.2700    1.9190    0.9040 O   0  0  0  0  0  0  0  0  0  0  0  0
   -3.3600   -0.7660   -0.5280 N   0  0  0  0  0  0  0  0  0  0  0  0
   -3.9460   -1.6420   -0.1110 C   0  0  0  0  0  0  0  0  0  0  0  0
   -4.0480   -1.4910    1.3730 C   0  0  2  0  0  0  0  0  0  0  0  0
   -5.6830   -1.1500    1.9070 Cl  0  0  0  0  0  0  0  0  0  0  0  0
   -3.0010   -0.6180    1.8350 C   0  0  0  0  0  0  0  0  0  0  0  0
   -1.9870   -0.4600    0.8570 N   0  0  0  0  0  0  0  0  0  0  0  0
    1.7330   -1.2690    0.3790 C   0  0  0  0  0  0  0  0  0  0  0  0
    2.6900   -1.2390    1.2720 O   0  0  0  0  0  0  0  0  0  0  0  0
  1  2  1  0
  2  3  1  0
  3  4  1  0
  4  5  2  0
  4 25  1  0
  5  6  1  0
  6  7  1  0
  6 24  2  0
  7  8  1  0
  8  9  1  0
  8 10  1  0
 10 11  2  0
 10 15  1  0
 11 12  1  0
 11 13  1  0
 13 14  1  0
 14 15  1  0
 15 16  1  0
 15 18  1  0
 15 23  1  0
 16 17  1  0
 18 19  2  0
 19 20  1  0
 20 21  1  6
 20 22  1  0
 22 23  1  0
 24 25  1  0
M  END
