
     RDKit          3D

 20 20  0  0  0  0  0  0  0  0999 V2000
    4.9960    1.2790    2.8130 C   0  0  0  0  0  0  0  0  0  0  0  0
    4.4720    0.4910    1.6160 C   0  0  0  0  0  0  0  0  0  0  0  0
    3.1890    0.9950    1.3570 O   0  0  0  0  0  0  0  0  0  0  0  0
    2.4620    0.1830    0.0060 P   0  0  0  0  0  0  0  0  0  0  0  0
    1.6440   -1.4040    0.5130 C   0  0  0  0  0  0  0  0  0  0  0  0
    0.1250   -1.1920    0.5590 C   0  0  0  0  0  0  0  0  0  0  0  0
   -0.1260   -0.1100    1.5660 C   0  0  0  0  0  0  0  0  0  0  0  0
   -1.4710    0.2200    1.7430 O   0  0  0  0  0  0  0  0  0  0  0  0
   -2.2920    0.6980    0.7230 C   0  0  0  0  0  0  0  0  0  0  0  0
   -2.0940    1.8810    0.1840 C   0  0  0  0  0  0  0  0  0  0  0  0
   -1.0360    2.8920    0.5150 C   0  0  0  0  0  0  0  0  0  0  0  0
   -3.1110    2.1350   -0.8980 C   0  0  0  0  0  0  0  0  0  0  0  0
   -3.5120    0.6970   -1.2850 C   0  0  0  0  0  0  0  0  0  0  0  0
   -3.4500    0.0590    0.0830 C   0  0  1  0  0  0  0  0  0  0  0  0
   -3.3650   -1.4250    0.0270 C   0  0  0  0  0  0  0  0  0  0  0  0
   -4.4820   -1.9450   -0.5920 O   0  0  0  0  0  0  0  0  0  0  0  0
   -5.6780   -1.6740    0.0140 C   0  0  0  0  0  0  0  0  0  0  0  0
    3.6650   -0.0430   -1.1930 O   0  0  0  0  0  0  0  0  0  0  0  0
    3.1290   -0.3700   -2.4370 C   0  0  0  0  0  0  0  0  0  0  0  0
    4.1890   -0.5660   -3.4810 C   0  0  0  0  0  0  0  0  0  0  0  0
  1  2  1  0
  2  3  1  0
  3  4  1  0
  4  5  1  0
  4 18  1  0
  5  6  1  0
  6  7  1  0
  7  8  1  0
  8  9  1  0
  9 10  2  0
  9 14  1  0
 10 11  1  0
 10 12  1  0
 12 13  1  0
 13 14  1  0
 14 15  1  6
 15 16  1  0
 16 17  1  0
 18 19  1  0
 19 20  1  0
M  END
