
     RDKit          3D

 25 25  0  0  0  0  0  0  0  0999 V2000
   -1.5170   -2.8660   -1.0300 C   0  0  0  0  0  0  0  0  0  0  0  0
   -1.9470   -1.4440   -0.5130 C   0  0  2  0  0  0  0  0  0  0  0  0
   -0.7240   -0.8540   -0.2990 O   0  0  0  0  0  0  0  0  0  0  0  0
   -0.5830    0.3650    0.2330 C   0  0  2  0  0  0  0  0  0  0  0  0
    0.0110    1.3660   -0.7900 C   0  0  0  0  0  0  0  0  0  0  0  0
    0.6200    2.5400   -0.1260 C   0  0  0  0  0  0  0  0  0  0  0  0
    0.2850    3.9150   -0.4180 C   0  0  0  0  0  0  0  0  0  0  0  0
    0.8530    4.8460    0.1950 O   0  0  0  0  0  0  0  0  0  0  0  0
   -0.6660    4.1680   -1.3800 O   0  0  0  0  0  0  0  0  0  0  0  0
    1.5340    2.2580    0.7970 C   0  0  0  0  0  0  0  0  0  0  0  0
    1.7230    0.7670    0.9380 C   0  0  1  0  0  0  0  0  0  0  0  0
    2.7680    0.4530    1.7580 O   0  0  0  0  0  0  0  0  0  0  0  0
    3.9480   -0.3320    0.9960 P   0  0  0  0  0  0  0  0  0  0  0  0
    5.5540   -0.0440    1.3910 O   0  0  0  0  0  0  0  0  0  0  0  0
    3.9220   -1.5430    1.9160 O   0  0  0  0  0  0  0  0  0  0  0  0
    3.5880   -1.2570   -0.3410 O   0  0  0  0  0  0  0  0  0  0  0  0
    0.4000    0.2300    1.3770 C   0  0  1  0  0  0  0  0  0  0  0  0
   -0.1340    0.9370    2.4590 O   0  0  0  0  0  0  0  0  0  0  0  0
   -2.5860   -1.7550    0.7930 C   0  0  0  0  0  0  0  0  0  0  0  0
   -3.7290   -2.3280    0.8490 O   0  0  0  0  0  0  0  0  0  0  0  0
   -2.0370   -1.4710    2.0290 O   0  0  0  0  0  0  0  0  0  0  0  0
   -2.9420   -0.7100   -1.6130 P   0  0  0  0  0  0  0  0  0  0  0  0
   -3.2200    0.5780   -0.7270 O   0  0  0  0  0  0  0  0  0  0  0  0
   -3.9780   -2.0280   -1.5920 O   0  0  0  0  0  0  0  0  0  0  0  0
   -1.7190   -0.7250   -2.7530 O   0  0  0  0  0  0  0  0  0  0  0  0
  2  1  1  6
  2  3  1  0
  2 19  1  0
  2 22  1  0
  4  3  1  6
  4  5  1  0
  4 17  1  0
  5  6  1  0
  6  7  1  0
  6 10  2  0
  7  8  2  0
  7  9  1  0
 10 11  1  0
 11 12  1  1
 11 17  1  0
 12 13  1  0
 13 14  1  0
 13 15  1  0
 13 16  1  0
 17 18  1  1
 19 20  2  0
 19 21  1  0
 22 23  1  0
 22 24  1  0
 22 25  1  0
M  END
