
     RDKit          3D

 20 20  0  0  0  0  0  0  0  0999 V2000
    4.8820    2.4350    1.7550 C   0  0  0  0  0  0  0  0  0  0  0  0
    4.0810    1.2200    1.3800 C   0  0  0  0  0  0  0  0  0  0  0  0
    2.7980    1.2980    1.8610 O   0  0  0  0  0  0  0  0  0  0  0  0
    1.8460   -0.0920    1.4460 P   0  0  0  0  0  0  0  0  0  0  0  0
    0.1010    0.5020    1.2250 C   0  0  0  0  0  0  0  0  0  0  0  0
   -0.2040    0.4570   -0.2540 C   0  0  0  0  0  0  0  0  0  0  0  0
   -1.5480    0.8770   -0.6360 C   0  0  0  0  0  0  0  0  0  0  0  0
   -1.6930    2.2330   -0.9840 C   0  0  0  0  0  0  0  0  0  0  0  0
   -2.8970    2.7890   -1.3330 C   0  0  0  0  0  0  0  0  0  0  0  0
   -2.9710    4.1470   -1.6690 O   0  0  0  0  0  0  0  0  0  0  0  0
   -3.9980    1.9940   -1.3420 C   0  0  0  0  0  0  0  0  0  0  0  0
   -3.8880    0.6700   -1.0080 C   0  0  0  0  0  0  0  0  0  0  0  0
   -2.6700    0.0990   -0.6540 C   0  0  0  0  0  0  0  0  0  0  0  0
   -2.6240   -1.3350   -0.3390 C   0  0  2  0  0  0  0  0  0  0  0  0
   -3.9560   -1.9850   -0.8500 C   0  0  0  0  0  0  0  0  0  0  0  0
   -2.6150   -1.6410    1.0060 O   0  0  0  0  0  0  0  0  0  0  0  0
   -1.7210   -2.6480    1.3410 C   0  0  0  0  0  0  0  0  0  0  0  0
    2.4020   -0.6430   -0.0960 O   0  0  0  0  0  0  0  0  0  0  0  0
    3.1060   -1.8280   -0.0540 C   0  0  0  0  0  0  0  0  0  0  0  0
    3.4930   -2.1230   -1.5110 C   0  0  0  0  0  0  0  0  0  0  0  0
  1  2  1  0
  2  3  1  0
  3  4  1  0
  4  5  1  0
  4 18  1  0
  5  6  1  0
  6  7  1  0
  7  8  2  0
  7 13  1  0
  8  9  1  0
  9 10  1  0
  9 11  2  0
 11 12  1  0
 12 13  2  0
 13 14  1  0
 14 15  1  6
 14 16  1  0
 16 17  1  0
 18 19  1  0
 19 20  1  0
M  END
