
     RDKit          3D

 20 20  0  0  0  0  0  0  0  0999 V2000
    4.3930    3.4330    0.2140 C   0  0  0  0  0  0  0  0  0  0  0  0
    3.8650    2.0190    0.1730 C   0  0  0  0  0  0  0  0  0  0  0  0
    3.8600    1.5330    1.4730 O   0  0  0  0  0  0  0  0  0  0  0  0
    3.2750   -0.0890    1.5800 P   0  0  0  0  0  0  0  0  0  0  0  0
    1.4340   -0.1760    1.3350 C   0  0  0  0  0  0  0  0  0  0  0  0
    1.0750   -0.7790    0.0170 C   0  0  0  0  0  0  0  0  0  0  0  0
   -0.2930   -0.8630   -0.1980 O   0  0  0  0  0  0  0  0  0  0  0  0
   -1.1780    0.2090   -0.2450 C   0  0  0  0  0  0  0  0  0  0  0  0
   -0.6670    1.3380   -0.0770 O   0  0  0  0  0  0  0  0  0  0  0  0
   -2.6200   -0.0150   -0.4810 C   0  0  0  0  0  0  0  0  0  0  0  0
   -3.5960    0.8570   -0.5590 C   0  0  0  0  0  0  0  0  0  0  0  0
   -3.4780    2.3290   -0.4230 C   0  0  0  0  0  0  0  0  0  0  0  0
   -4.3230    2.8180    0.7620 C   0  0  0  0  0  0  0  0  0  0  0  0
   -4.9030    0.1520   -0.8240 C   0  0  0  0  0  0  0  0  0  0  0  0
   -4.3560   -1.0620   -1.5970 C   0  0  0  0  0  0  0  0  0  0  0  0
   -3.2040   -1.3690   -0.6680 C   0  0  1  0  0  0  0  0  0  0  0  0
   -2.2300   -2.3490   -1.2500 C   0  0  0  0  0  0  0  0  0  0  0  0
    4.1210   -1.1800    0.5590 O   0  0  0  0  0  0  0  0  0  0  0  0
    4.1920   -2.4400    1.1880 C   0  0  0  0  0  0  0  0  0  0  0  0
    4.9300   -3.4330    0.3220 C   0  0  0  0  0  0  0  0  0  0  0  0
  1  2  1  0
  2  3  1  0
  3  4  1  0
  4  5  1  0
  4 18  1  0
  5  6  1  0
  6  7  1  0
  7  8  1  0
  8  9  2  0
  8 10  1  0
 10 11  2  0
 10 16  1  0
 11 12  1  0
 11 14  1  0
 12 13  1  0
 14 15  1  0
 15 16  1  0
 16 17  1  6
 18 19  1  0
 19 20  1  0
M  END
