
     RDKit          3D

 25 27  0  0  0  0  0  0  0  0999 V2000
    3.8870    2.1800    0.8530 C   0  0  0  0  0  0  0  0  0  0  0  0
    4.1230    0.9910    0.3440 C   0  0  0  0  0  0  0  0  0  0  0  0
    2.9840    0.1090    0.1560 N   0  0  0  0  0  0  0  0  0  0  0  0
    2.2930    0.1000   -1.0890 C   0  0  0  0  0  0  0  0  0  0  0  0
    1.2050   -0.6530   -1.2470 O   0  0  0  0  0  0  0  0  0  0  0  0
    0.0720   -0.4530   -0.5210 C   0  0  2  0  0  0  0  0  0  0  0  0
    0.2690   -0.3070    0.9150 C   0  0  0  0  0  0  0  0  0  0  0  0
    0.3260   -1.5570    1.4080 C   0  0  0  0  0  0  0  0  0  0  0  0
    0.5310   -1.8720    2.8430 C   0  0  0  0  0  0  0  0  0  0  0  0
    0.1280   -2.3650    0.2330 C   0  0  0  0  0  0  0  0  0  0  0  0
    0.7480   -3.4690    0.0250 C   0  0  0  0  0  0  0  0  0  0  0  0
   -1.1370   -1.3610   -0.7680 S   0  0  0  0  0  0  0  0  0  0  0  0
   -2.4770   -2.8880   -0.2690 Cl  0  0  0  0  0  0  0  0  0  0  0  0
   -1.3500   -2.9240   -2.5010 Cl  0  0  0  0  0  0  0  0  0  0  0  0
   -2.7350   -0.6780   -0.3660 O   0  0  0  0  0  0  0  0  0  0  0  0
   -3.1440    0.5440   -0.2540 C   0  0  0  0  0  0  0  0  0  0  0  0
   -2.9920    1.3170    0.9070 C   0  0  0  0  0  0  0  0  0  0  0  0
   -3.4370    2.5620    0.9460 N   0  0  0  0  0  0  0  0  0  0  0  0
   -4.0500    3.1480   -0.1060 C   0  0  0  0  0  0  0  0  0  0  0  0
   -4.1980    2.4250   -1.2110 N   0  0  0  0  0  0  0  0  0  0  0  0
   -3.7620    1.1830   -1.2700 N   0  0  0  0  0  0  0  0  0  0  0  0
   -0.8560   -0.7600   -2.5000 O   0  0  0  0  0  0  0  0  0  0  0  0
   -0.6690    0.8160   -2.4300 P   0  0  0  0  0  0  0  0  0  0  0  0
   -1.5330    1.9680   -3.2460 O   0  0  0  0  0  0  0  0  0  0  0  0
   -0.2830    0.9280   -0.8270 O   0  0  0  0  0  0  0  0  0  0  0  0
  1  2  2  0
  2  3  1  0
  3  4  1  0
  4  5  1  0
  6  5  1  6
  6  7  1  0
  6 12  1  0
  6 25  1  0
  7  8  2  0
  8  9  1  0
  8 10  1  0
 10 11  2  0
 10 12  1  0
 12 13  1  0
 12 14  1  0
 12 15  1  0
 12 22  1  0
 15 16  1  0
 16 17  2  0
 16 21  1  0
 17 18  1  0
 18 19  2  0
 19 20  1  0
 20 21  2  0
 22 23  1  0
 23 24  1  0
 23 25  1  0
M  END
