
     RDKit          3D

 26 28  0  0  0  0  0  0  0  0999 V2000
    2.2320   -2.0980   -0.6440 C   0  0  0  0  0  0  0  0  0  0  0  0
    1.5510   -0.8780   -0.1530 C   0  0  0  0  0  0  0  0  0  0  0  0
    2.2620    0.1580    0.1920 C   0  0  0  0  0  0  0  0  0  0  0  0
    3.7350    0.2300    0.1290 C   0  0  0  0  0  0  0  0  0  0  0  0
    4.4640    0.6710    1.2120 C   0  0  0  0  0  0  0  0  0  0  0  0
    5.8340    0.7900    1.1640 C   0  0  0  0  0  0  0  0  0  0  0  0
    6.5260    0.4680    0.0150 C   0  0  0  0  0  0  0  0  0  0  0  0
    7.9900    0.5930   -0.0490 C   0  0  0  0  0  0  0  0  0  0  0  0
    8.6080    0.9820    0.9530 O   0  0  0  0  0  0  0  0  0  0  0  0
    8.6980    0.2880   -1.2030 O   0  0  0  0  0  0  0  0  0  0  0  0
    5.7990    0.0260   -1.0670 C   0  0  0  0  0  0  0  0  0  0  0  0
    4.4290   -0.0960   -1.0270 C   0  0  0  0  0  0  0  0  0  0  0  0
    0.1030   -0.8630   -0.1000 C   0  0  0  0  0  0  0  0  0  0  0  0
   -0.5750   -2.0170   -0.4680 C   0  0  0  0  0  0  0  0  0  0  0  0
   -1.9520   -2.0150   -0.4370 C   0  0  0  0  0  0  0  0  0  0  0  0
   -2.6720   -0.9060   -0.0540 C   0  0  0  0  0  0  0  0  0  0  0  0
   -2.0270    0.2380    0.3110 C   0  0  0  0  0  0  0  0  0  0  0  0
   -0.6430    0.2370    0.2810 C   0  0  0  0  0  0  0  0  0  0  0  0
   -2.7140    1.4850    0.7290 C   0  0  2  0  0  0  0  0  0  0  0  0
   -2.6780    2.5440   -0.3740 C   0  0  0  0  0  0  0  0  0  0  0  0
   -1.9160    2.0590    1.8880 C   0  0  0  0  0  0  0  0  0  0  0  0
   -4.1360    1.3010    1.1240 C   0  0  0  0  0  0  0  0  0  0  0  0
   -4.5870   -0.1220    1.1750 C   0  0  0  0  0  0  0  0  0  0  0  0
   -4.1550   -0.9240   -0.0240 C   0  0  2  0  0  0  0  0  0  0  0  0
   -4.6660   -2.3410    0.1000 C   0  0  0  0  0  0  0  0  0  0  0  0
   -4.7000   -0.3750   -1.3180 C   0  0  0  0  0  0  0  0  0  0  0  0
  1  2  1  0
  2  3  2  3
  2 13  1  0
  3  4  1  0
  4  5  2  0
  4 12  1  0
  5  6  1  0
  6  7  2  0
  7  8  1  0
  7 11  1  0
  8  9  2  0
  8 10  1  0
 11 12  2  0
 13 14  2  0
 13 18  1  0
 14 15  1  0
 15 16  2  0
 16 17  1  0
 16 24  1  0
 17 18  2  0
 17 19  1  0
 19 20  1  6
 19 21  1  0
 19 22  1  0
 22 23  1  0
 23 24  1  0
 24 25  1  1
 24 26  1  0
M  END
