
     RDKit          3D

 25 27  0  0  0  0  0  0  0  0999 V2000
   -0.0430   -0.3030   -2.4460 C   0  0  0  0  0  0  0  0  0  0  0  0
   -0.4760    0.7900   -1.4780 C   0  0  0  0  0  0  0  0  0  0  0  0
   -0.1310    0.4250   -0.0680 C   0  0  1  0  0  0  0  0  0  0  0  0
    1.3460    0.2520   -0.0020 C   0  0  0  0  0  0  0  0  0  0  0  0
    2.1110    1.3410   -0.3650 C   0  0  0  0  0  0  0  0  0  0  0  0
    3.5000    1.2750   -0.3430 C   0  0  0  0  0  0  0  0  0  0  0  0
    4.2940    2.4690   -0.7420 C   0  0  0  0  0  0  0  0  0  0  0  0
    4.1370    0.1210    0.0430 C   0  0  0  0  0  0  0  0  0  0  0  0
    3.3660   -0.9630    0.4050 C   0  0  0  0  0  0  0  0  0  0  0  0
    4.0550   -2.2070    0.8160 C   0  0  2  0  0  0  0  0  0  0  0  0
    4.7590   -1.9960    2.1460 C   0  0  0  0  0  0  0  0  0  0  0  0
    5.0550   -2.4800   -0.1090 O   0  0  0  0  0  0  0  0  0  0  0  0
    1.9910   -0.8840    0.3780 C   0  0  0  0  0  0  0  0  0  0  0  0
   -0.4850    1.5470    0.8760 C   0  0  0  0  0  0  0  0  0  0  0  0
   -1.8970    1.9520    0.6600 C   0  0  0  0  0  0  0  0  0  0  0  0
   -2.7670    0.7790    0.4270 C   0  0  0  0  0  0  0  0  0  0  0  0
   -4.1370    1.0440    0.3160 C   0  0  0  0  0  0  0  0  0  0  0  0
   -4.6400    2.3940    0.4360 C   0  0  0  0  0  0  0  0  0  0  0  0
   -5.8530    2.6430    0.3450 O   0  0  0  0  0  0  0  0  0  0  0  0
   -5.0330    0.0230    0.0900 C   0  0  0  0  0  0  0  0  0  0  0  0
   -4.5790   -1.2810   -0.0290 C   0  0  0  0  0  0  0  0  0  0  0  0
   -5.5920   -2.3380   -0.2720 C   0  0  0  0  0  0  0  0  0  0  0  0
   -3.2270   -1.5250    0.0840 C   0  0  0  0  0  0  0  0  0  0  0  0
   -2.3110   -0.5170    0.3100 C   0  0  0  0  0  0  0  0  0  0  0  0
   -0.8540   -0.8110    0.4260 C   0  0  0  0  0  0  0  0  0  0  0  0
  1  2  1  0
  3  2  1  6
  3  4  1  0
  3 14  1  0
  3 25  1  0
  4  5  2  0
  4 13  1  0
  5  6  1  0
  6  7  1  0
  6  8  2  0
  8  9  1  0
  9 10  1  0
  9 13  2  0
 10 11  1  1
 10 12  1  0
 14 15  1  0
 15 16  1  0
 16 17  2  0
 16 24  1  0
 17 18  1  0
 17 20  1  0
 18 19  2  0
 20 21  2  0
 21 22  1  0
 21 23  1  0
 23 24  2  0
 24 25  1  0
M  END
