
     RDKit          3D

 26 28  0  0  0  0  0  0  0  0999 V2000
    5.8600   -0.1390    1.1650 C   0  0  0  0  0  0  0  0  0  0  0  0
    6.0720   -0.7650    0.0510 C   0  0  0  0  0  0  0  0  0  0  0  0
    7.1180   -1.8130   -0.1320 C   0  0  0  0  0  0  0  0  0  0  0  0
    7.8090   -1.6580   -1.3170 O   0  0  0  0  0  0  0  0  0  0  0  0
    7.4640   -0.5500   -2.0630 C   0  0  0  0  0  0  0  0  0  0  0  0
    6.0330   -0.3540   -2.2440 C   0  0  0  0  0  0  0  0  0  0  0  0
    5.2640   -0.4620   -1.1430 C   0  0  0  0  0  0  0  0  0  0  0  0
    3.8500   -0.2750   -1.1070 C   0  0  0  0  0  0  0  0  0  0  0  0
    3.1100   -0.5490    0.0120 C   0  0  0  0  0  0  0  0  0  0  0  0
    1.7310   -0.3290    0.0220 C   0  0  0  0  0  0  0  0  0  0  0  0
    1.0500    0.1610   -1.0590 C   0  0  0  0  0  0  0  0  0  0  0  0
   -0.3880    0.3870   -1.0560 C   0  0  0  0  0  0  0  0  0  0  0  0
   -1.1480    0.1670   -0.0410 C   0  0  0  0  0  0  0  0  0  0  0  0
   -2.5920    0.3500    0.0870 C   0  0  0  0  0  0  0  0  0  0  0  0
   -3.3740    0.8560   -0.9990 C   0  0  0  0  0  0  0  0  0  0  0  0
   -2.8800    1.1430   -2.1040 O   0  0  0  0  0  0  0  0  0  0  0  0
   -3.1890    0.0610    1.2450 C   0  0  0  0  0  0  0  0  0  0  0  0
   -4.5890    0.1970    1.4700 C   0  0  0  0  0  0  0  0  0  0  0  0
   -5.5050   -0.4050    0.6500 C   0  0  0  0  0  0  0  0  0  0  0  0
   -6.8740   -0.2470    0.8550 C   0  0  0  0  0  0  0  0  0  0  0  0
   -7.2890    0.5310    1.9070 C   0  0  0  0  0  0  0  0  0  0  0  0
   -8.7450    0.7610    2.2050 C   0  0  0  0  0  0  0  0  0  0  0  0
   -6.4010    1.1440    2.7440 C   0  0  0  0  0  0  0  0  0  0  0  0
   -5.0370    0.9740    2.5210 C   0  0  0  0  0  0  0  0  0  0  0  0
    1.8180    0.4300   -2.1780 C   0  0  0  0  0  0  0  0  0  0  0  0
    3.1860    0.2260   -2.2250 C   0  0  0  0  0  0  0  0  0  0  0  0
  1  2  2  0
  2  3  1  0
  2  7  1  0
  3  4  1  0
  4  5  1  0
  5  6  1  0
  6  7  2  0
  7  8  1  0
  8  9  2  0
  8 26  1  0
  9 10  1  0
 10 11  2  0
 11 12  1  0
 11 25  1  0
 12 13  2  3
 13 14  1  0
 14 15  1  0
 14 17  2  3
 15 16  2  0
 17 18  1  0
 18 19  2  0
 18 24  1  0
 19 20  1  0
 20 21  2  0
 21 22  1  0
 21 23  1  0
 23 24  2  0
 25 26  2  0
M  END
