
     RDKit          3D

 26 28  0  0  0  0  0  0  0  0999 V2000
    6.1520    1.5010    1.0150 C   0  0  0  0  0  0  0  0  0  0  0  0
    6.3680    0.4480   -0.0060 C   0  0  1  0  0  0  0  0  0  0  0  0
    7.6920    0.7830   -0.7230 C   0  0  0  0  0  0  0  0  0  0  0  0
    6.6500   -0.9230    0.6290 C   0  0  0  0  0  0  0  0  0  0  0  0
    5.3520    0.3150   -1.0720 C   0  0  0  0  0  0  0  0  0  0  0  0
    3.9790    0.0060   -0.6680 C   0  0  0  0  0  0  0  0  0  0  0  0
    3.1060    1.0190   -0.4280 C   0  0  0  0  0  0  0  0  0  0  0  0
    1.7690    0.7690   -0.0550 C   0  0  0  0  0  0  0  0  0  0  0  0
    1.2690   -0.4950    0.0870 C   0  0  0  0  0  0  0  0  0  0  0  0
   -0.0700   -0.8710    0.3980 C   0  0  0  0  0  0  0  0  0  0  0  0
   -0.1350   -2.0430    1.0170 O   0  0  0  0  0  0  0  0  0  0  0  0
   -1.3490   -0.2520    0.1720 C   0  0  0  0  0  0  0  0  0  0  0  0
   -1.6600    1.0690    0.0770 C   0  0  0  0  0  0  0  0  0  0  0  0
   -2.9560    1.5380   -0.2060 C   0  0  0  0  0  0  0  0  0  0  0  0
   -4.0000    0.6810   -0.4050 C   0  0  0  0  0  0  0  0  0  0  0  0
   -3.7090   -0.6630   -0.3140 C   0  0  0  0  0  0  0  0  0  0  0  0
   -2.4600   -1.1240   -0.0410 C   0  0  0  0  0  0  0  0  0  0  0  0
   -4.5920   -1.8560   -0.4820 C   0  0  2  0  0  0  0  0  0  0  0  0
   -5.3090   -1.7580   -1.6600 O   0  0  0  0  0  0  0  0  0  0  0  0
   -5.5680   -1.8790    0.6650 C   0  0  0  0  0  0  0  0  0  0  0  0
   -6.6100   -0.7940    0.4410 C   0  0  0  0  0  0  0  0  0  0  0  0
   -6.3670    0.4110    1.2790 C   0  0  0  0  0  0  0  0  0  0  0  0
   -6.0950    1.6680    0.5050 C   0  0  0  0  0  0  0  0  0  0  0  0
   -5.2070    1.5180   -0.6760 C   0  0  0  0  0  0  0  0  0  0  0  0
    2.2260   -1.5100   -0.1750 C   0  0  0  0  0  0  0  0  0  0  0  0
    3.5120   -1.2850   -0.5330 C   0  0  0  0  0  0  0  0  0  0  0  0
  2  1  1  1
  2  3  1  0
  2  4  1  0
  2  5  1  0
  5  6  1  0
  6  7  2  0
  6 26  1  0
  7  8  1  0
  8  9  2  0
  9 10  1  0
  9 25  1  0
 10 11  2  0
 10 12  1  0
 12 13  2  0
 12 17  1  0
 13 14  1  0
 14 15  2  0
 15 16  1  0
 15 24  1  0
 16 17  2  0
 16 18  1  0
 18 19  1  6
 18 20  1  0
 20 21  1  0
 21 22  1  0
 22 23  1  0
 23 24  1  0
 25 26  2  0
M  END
