
     RDKit          3D

 26 28  0  0  0  0  0  0  0  0999 V2000
   -6.2350   -0.8530    1.1960 C   0  0  0  0  0  0  0  0  0  0  0  0
   -5.0620   -0.2320    0.5240 C   0  0  0  0  0  0  0  0  0  0  0  0
   -3.8730   -0.9120    0.5690 C   0  0  0  0  0  0  0  0  0  0  0  0
   -2.7210   -0.3940   -0.0390 C   0  0  0  0  0  0  0  0  0  0  0  0
   -1.4870   -1.1730    0.0160 C   0  0  0  0  0  0  0  0  0  0  0  0
   -0.3550   -0.6590    0.3790 C   0  0  0  0  0  0  0  0  0  0  0  0
   -0.0450    0.7130    0.7950 C   0  0  0  0  0  0  0  0  0  0  0  0
    1.0500    1.2020   -0.1430 C   0  0  0  0  0  0  0  0  0  0  0  0
    2.3400    0.4390    0.0970 C   0  0  2  0  0  0  0  0  0  0  0  0
    3.0560    0.3150   -1.1930 C   0  0  0  0  0  0  0  0  0  0  0  0
    4.3470   -0.4070   -1.1920 C   0  0  1  0  0  0  0  0  0  0  0  0
    4.8920   -0.4490   -2.5020 O   0  0  0  0  0  0  0  0  0  0  0  0
    5.3950    0.2270   -0.3510 C   0  0  0  0  0  0  0  0  0  0  0  0
    6.7460   -0.0680   -0.3130 C   0  0  0  0  0  0  0  0  0  0  0  0
    7.2930    0.7850    0.6170 C   0  0  0  0  0  0  0  0  0  0  0  0
    6.2460    1.5670    1.1080 C   0  0  0  0  0  0  0  0  0  0  0  0
    5.1710    1.1880    0.5000 O   0  0  0  0  0  0  0  0  0  0  0  0
    2.0750   -0.8510    0.7980 C   0  0  0  0  0  0  0  0  0  0  0  0
    0.8460   -1.5880    0.3710 C   0  0  2  0  0  0  0  0  0  0  0  0
    0.9710   -2.2400   -0.9850 C   0  0  0  0  0  0  0  0  0  0  0  0
    0.5490   -2.6430    1.4160 C   0  0  0  0  0  0  0  0  0  0  0  0
   -2.8490    0.8190   -0.6750 C   0  0  0  0  0  0  0  0  0  0  0  0
   -4.0470    1.5240   -0.7310 C   0  0  0  0  0  0  0  0  0  0  0  0
   -4.0900    2.8110   -1.4300 C   0  0  0  0  0  0  0  0  0  0  0  0
   -5.1400    0.9870   -0.1290 C   0  0  0  0  0  0  0  0  0  0  0  0
   -6.4380    1.6740   -0.1480 C   0  0  0  0  0  0  0  0  0  0  0  0
  1  2  1  0
  2  3  2  0
  2 25  1  0
  3  4  1  0
  4  5  1  0
  4 22  2  0
  5  6  2  3
  6  7  1  0
  6 19  1  0
  7  8  1  0
  8  9  1  0
  9 10  1  6
  9 18  1  0
 10 11  1  0
 11 12  1  6
 11 13  1  0
 13 14  2  0
 13 17  1  0
 14 15  1  0
 15 16  2  0
 16 17  1  0
 18 19  1  0
 19 20  1  6
 19 21  1  0
 22 23  1  0
 23 24  1  0
 23 25  2  0
 25 26  1  0
M  END
