
     RDKit          3D

 30 34  0  0  0  0  0  0  0  0999 V2000
   -6.6480    1.8070    0.1800 C   0  0  0  0  0  0  0  0  0  0  0  0
   -5.5270    0.7780   -0.0080 C   0  0  0  0  0  0  0  0  0  0  0  0
   -4.3930    1.3740   -0.7920 C   0  0  0  0  0  0  0  0  0  0  0  0
   -3.2530    0.4970   -1.0570 C   0  0  0  0  0  0  0  0  0  0  0  0
   -3.2400   -0.1210   -2.3170 C   0  0  0  0  0  0  0  0  0  0  0  0
   -2.2190   -0.9440   -2.6390 C   0  0  0  0  0  0  0  0  0  0  0  0
   -1.1800   -1.1820   -1.7280 C   0  0  0  0  0  0  0  0  0  0  0  0
   -1.1870   -0.5850   -0.5030 C   0  0  0  0  0  0  0  0  0  0  0  0
   -2.2250    0.2620   -0.1540 C   0  0  0  0  0  0  0  0  0  0  0  0
   -2.2590    0.9730    1.1570 C   0  0  1  0  0  0  0  0  0  0  0  0
   -2.9030    0.2240    2.1780 N   0  0  0  0  0  0  0  0  0  0  0  0
   -0.8190    1.3020    1.4760 C   0  0  0  0  0  0  0  0  0  0  0  0
    0.0510    0.0970    1.5710 C   0  0  0  0  0  0  0  0  0  0  0  0
   -0.0160   -0.8470    0.4280 C   0  0  1  0  0  0  0  0  0  0  0  0
   -0.5480   -2.1680    1.1020 C   0  0  0  0  0  0  0  0  0  0  0  0
    0.3690   -2.6190    2.0490 O   0  0  0  0  0  0  0  0  0  0  0  0
    1.2030   -1.1260   -0.3490 C   0  0  2  0  0  0  0  0  0  0  0  0
    1.5170   -2.4980   -0.8000 C   0  0  0  0  0  0  0  0  0  0  0  0
    2.6340   -3.2370   -0.1070 C   0  0  0  0  0  0  0  0  0  0  0  0
    3.8940   -2.4450   -0.1450 C   0  0  1  0  0  0  0  0  0  0  0  0
    4.5510   -2.6240   -1.3900 O   0  0  0  0  0  0  0  0  0  0  0  0
    3.6760   -1.0040    0.0200 C   0  0  0  0  0  0  0  0  0  0  0  0
    4.8600   -0.2880    0.2510 C   0  0  0  0  0  0  0  0  0  0  0  0
    4.8180    1.0860    0.3720 C   0  0  0  0  0  0  0  0  0  0  0  0
    3.6270    1.7070    0.2610 C   0  0  0  0  0  0  0  0  0  0  0  0
    2.4600    0.9850    0.0320 C   0  0  0  0  0  0  0  0  0  0  0  0
    2.4510   -0.3830   -0.0930 C   0  0  0  0  0  0  0  0  0  0  0  0
    3.8510    3.1670    0.4270 C   0  0  0  0  0  0  0  0  0  0  0  0
    5.3370    3.2970    0.2960 C   0  0  0  0  0  0  0  0  0  0  0  0
    5.8580    1.9960    0.6020 O   0  0  0  0  0  0  0  0  0  0  0  0
  1  2  1  0
  2  3  1  0
  3  4  1  0
  4  5  2  0
  4  9  1  0
  5  6  1  0
  6  7  2  0
  7  8  1  0
  8  9  2  0
  8 14  1  0
  9 10  1  0
 10 11  1  1
 10 12  1  0
 12 13  1  0
 13 14  1  0
 14 15  1  1
 14 17  1  0
 15 16  1  0
 17 18  1  1
 17 27  1  0
 18 19  1  0
 19 20  1  0
 20 21  1  6
 20 22  1  0
 22 23  2  0
 22 27  1  0
 23 24  1  0
 24 25  2  0
 24 30  1  0
 25 26  1  0
 25 28  1  0
 26 27  2  0
 28 29  1  0
 29 30  1  0
M  END
