
     RDKit          3D

 30 33  0  0  0  0  0  0  0  0999 V2000
    6.9090    0.1540   -3.0810 C   0  0  0  0  0  0  0  0  0  0  0  0
    6.4390    0.1970   -1.8470 C   0  0  0  0  0  0  0  0  0  0  0  0
    5.0690    0.6530   -1.6780 C   0  0  0  0  0  0  0  0  0  0  0  0
    4.2240    0.2670   -0.7010 C   0  0  0  0  0  0  0  0  0  0  0  0
    4.4540   -0.6650    0.3910 C   0  0  0  0  0  0  0  0  0  0  0  0
    5.5680   -1.3200    0.6250 C   0  0  0  0  0  0  0  0  0  0  0  0
    6.8830   -1.4100    0.0080 C   0  0  1  0  0  0  0  0  0  0  0  0
    6.8900   -2.5060   -0.8560 O   0  0  0  0  0  0  0  0  0  0  0  0
    7.3440   -0.2160   -0.7430 C   0  0  0  0  0  0  0  0  0  0  0  0
    3.4390   -0.9460    1.3280 N   0  0  0  0  0  0  0  0  0  0  0  0
    2.1760   -0.2780    1.1600 C   0  0  0  0  0  0  0  0  0  0  0  0
    1.1480   -0.5220    2.0570 C   0  0  0  0  0  0  0  0  0  0  0  0
    1.4130   -1.4710    3.1520 C   0  0  0  0  0  0  0  0  0  0  0  0
   -0.0690    0.0980    1.9270 C   0  0  0  0  0  0  0  0  0  0  0  0
   -0.3410    0.9900    0.9100 C   0  0  0  0  0  0  0  0  0  0  0  0
   -1.6650    1.6520    0.7870 C   0  0  2  0  0  0  0  0  0  0  0  0
   -1.7490    2.7190    1.8770 C   0  0  0  0  0  0  0  0  0  0  0  0
   -2.7250    0.7960    0.9540 O   0  0  0  0  0  0  0  0  0  0  0  0
   -3.5370    0.7810   -0.1710 C   0  0  1  0  0  0  0  0  0  0  0  0
   -3.5850   -0.6400   -0.7370 C   0  0  0  0  0  0  0  0  0  0  0  0
   -4.6790   -1.3710    0.0110 C   0  0  0  0  0  0  0  0  0  0  0  0
   -6.0140   -0.9090   -0.5460 C   0  0  2  0  0  0  0  0  0  0  0  0
   -7.0880   -1.2840    0.4370 C   0  0  0  0  0  0  0  0  0  0  0  0
   -6.2160   -1.6140   -1.8640 C   0  0  0  0  0  0  0  0  0  0  0  0
   -5.9520    0.5890   -0.7740 C   0  0  0  0  0  0  0  0  0  0  0  0
   -4.9590    1.2310    0.1730 C   0  0  0  0  0  0  0  0  0  0  0  0
    0.6840    1.2240    0.0300 C   0  0  0  0  0  0  0  0  0  0  0  0
    1.9440    0.6050    0.1340 C   0  0  0  0  0  0  0  0  0  0  0  0
    2.9320    0.9660   -0.8940 C   0  0  2  0  0  0  0  0  0  0  0  0
    2.4580    0.6970   -2.1820 O   0  0  0  0  0  0  0  0  0  0  0  0
  1  2  2  0
  2  3  1  0
  2  9  1  0
  3  4  2  0
  4  5  1  0
  4 29  1  0
  5  6  2  0
  5 10  1  0
  6  7  1  0
  7  8  1  6
  7  9  1  0
 10 11  1  0
 11 12  2  0
 11 28  1  0
 12 13  1  0
 12 14  1  0
 14 15  2  0
 15 16  1  0
 15 27  1  0
 16 17  1  1
 16 18  1  0
 19 18  1  1
 19 20  1  0
 19 26  1  0
 20 21  1  0
 21 22  1  0
 22 23  1  1
 22 24  1  0
 22 25  1  0
 25 26  1  0
 27 28  2  0
 28 29  1  0
 29 30  1  6
M  END
