
     RDKit          3D

 31 33  0  0  0  0  0  0  0  0999 V2000
   -6.9700    1.8670   -1.0050 C   0  0  0  0  0  0  0  0  0  0  0  0
   -5.9870    1.0680   -0.3880 O   0  0  0  0  0  0  0  0  0  0  0  0
   -6.2040   -0.2800   -0.0850 C   0  0  0  0  0  0  0  0  0  0  0  0
   -7.3110   -0.7490   -0.3850 O   0  0  0  0  0  0  0  0  0  0  0  0
   -5.1290   -1.0260    0.5530 C   0  0  0  0  0  0  0  0  0  0  0  0
   -5.2710   -2.3460    0.8770 C   0  0  0  0  0  0  0  0  0  0  0  0
   -6.4080   -3.0940    0.6460 O   0  0  0  0  0  0  0  0  0  0  0  0
   -4.1890   -2.9970    1.4900 C   0  0  0  0  0  0  0  0  0  0  0  0
   -3.0220   -2.3840    1.7730 C   0  0  0  0  0  0  0  0  0  0  0  0
   -2.8890   -1.0450    1.4390 C   0  0  0  0  0  0  0  0  0  0  0  0
   -3.9140   -0.3590    0.8380 C   0  0  0  0  0  0  0  0  0  0  0  0
   -3.8550    0.9500    0.4850 O   0  0  0  0  0  0  0  0  0  0  0  0
   -2.8510    1.8530    0.6030 C   0  0  0  0  0  0  0  0  0  0  0  0
   -1.6430    1.4730   -0.2050 C   0  0  0  0  0  0  0  0  0  0  0  0
   -0.4550    1.2670    0.2990 C   0  0  0  0  0  0  0  0  0  0  0  0
    0.7130    0.8990   -0.4910 C   0  0  0  0  0  0  0  0  0  0  0  0
    0.6550    0.7360   -1.8590 C   0  0  0  0  0  0  0  0  0  0  0  0
    1.7970    0.3900   -2.5170 C   0  0  0  0  0  0  0  0  0  0  0  0
    2.9810    0.2110   -1.8070 C   0  0  0  0  0  0  0  0  0  0  0  0
    3.0940    0.3580   -0.4720 C   0  0  0  0  0  0  0  0  0  0  0  0
    4.2730    0.2050    0.3610 C   0  0  0  0  0  0  0  0  0  0  0  0
    4.2520    0.3450    1.7010 O   0  0  0  0  0  0  0  0  0  0  0  0
    5.3970    0.1640    2.2010 N   0  0  0  0  0  0  0  0  0  0  0  0
    6.3120   -0.1200    1.2200 C   0  0  0  0  0  0  0  0  0  0  0  0
    7.6880   -0.3680    1.5040 C   0  0  0  0  0  0  0  0  0  0  0  0
    8.0510   -0.3160    2.7490 O   0  0  0  0  0  0  0  0  0  0  0  0
    8.7090   -0.6590    0.6650 O   0  0  0  0  0  0  0  0  0  0  0  0
    5.5600   -0.0860    0.0450 C   0  0  0  0  0  0  0  0  0  0  0  0
    6.1070   -0.3230   -1.2930 C   0  0  0  0  0  0  0  0  0  0  0  0
    7.4670   -0.6070   -1.3270 O   0  0  0  0  0  0  0  0  0  0  0  0
    1.9010    0.7160    0.1920 C   0  0  0  0  0  0  0  0  0  0  0  0
  1  2  1  0
  2  3  1  0
  3  4  2  0
  3  5  1  0
  5  6  2  0
  5 11  1  0
  6  7  1  0
  6  8  1  0
  8  9  2  0
  9 10  1  0
 10 11  2  0
 11 12  1  0
 12 13  1  0
 13 14  1  0
 14 15  2  3
 15 16  1  0
 16 17  2  0
 16 31  1  0
 17 18  1  0
 18 19  2  0
 19 20  1  0
 20 21  1  0
 20 31  2  0
 21 22  1  0
 21 28  2  0
 22 23  1  0
 23 24  2  0
 24 25  1  0
 24 28  1  0
 25 26  2  0
 25 27  1  0
 28 29  1  0
 29 30  1  0
M  END
