
     RDKit          3D

 30 34  0  0  0  0  0  0  0  0999 V2000
    5.2580    2.7890   -0.9160 C   0  0  0  0  0  0  0  0  0  0  0  0
    5.1100    1.3810   -0.4650 C   0  0  0  0  0  0  0  0  0  0  0  0
    6.2570    0.6490   -0.1890 C   0  0  0  0  0  0  0  0  0  0  0  0
    6.1710   -0.6460    0.2270 C   0  0  0  0  0  0  0  0  0  0  0  0
    4.9420   -1.2470    0.3790 C   0  0  0  0  0  0  0  0  0  0  0  0
    3.8210   -0.5050    0.1000 C   0  0  0  0  0  0  0  0  0  0  0  0
    2.4900   -0.8450    0.1640 C   0  0  0  0  0  0  0  0  0  0  0  0
    1.7880    0.2660   -0.2200 C   0  0  0  0  0  0  0  0  0  0  0  0
    2.6440    1.2200   -0.4990 O   0  0  0  0  0  0  0  0  0  0  0  0
    3.8690    0.7870   -0.3170 C   0  0  0  0  0  0  0  0  0  0  0  0
    0.3010    0.3220   -0.2900 C   0  0  2  0  0  0  0  0  0  0  0  0
   -0.2190    1.3550    0.6200 N   0  0  0  0  0  0  0  0  0  0  0  0
   -0.3120   -0.9810    0.1550 C   0  0  1  0  0  0  0  0  0  0  0  0
   -1.5400   -1.1020   -0.4820 O   0  0  0  0  0  0  0  0  0  0  0  0
   -2.5970   -1.1880    0.3990 C   0  0  0  0  0  0  0  0  0  0  0  0
   -3.8670   -1.3150   -0.4400 C   0  0  2  0  0  0  0  0  0  0  0  0
   -3.9640   -0.0940   -1.3010 C   0  0  0  0  0  0  0  0  0  0  0  0
   -4.3120    1.1270   -0.4860 C   0  0  1  0  0  0  0  0  0  0  0  0
   -4.6500    2.2780   -1.3890 C   0  0  0  0  0  0  0  0  0  0  0  0
   -5.4310    0.8950    0.4730 C   0  0  0  0  0  0  0  0  0  0  0  0
   -6.0970   -0.4450    0.3230 C   0  0  1  0  0  0  0  0  0  0  0  0
   -7.0440   -0.5970    1.5190 C   0  0  0  0  0  0  0  0  0  0  0  0
   -6.9250   -0.5660   -0.9210 C   0  0  0  0  0  0  0  0  0  0  0  0
   -5.0760   -1.5300    0.4340 C   0  0  0  0  0  0  0  0  0  0  0  0
    0.5230   -2.1740   -0.2520 C   0  0  0  0  0  0  0  0  0  0  0  0
    1.8080   -2.1050    0.5480 C   0  0  0  0  0  0  0  0  0  0  0  0
    7.5340   -1.2300    0.4630 C   0  0  0  0  0  0  0  0  0  0  0  0
    8.3900   -0.0080    0.5570 C   0  0  0  0  0  0  0  0  0  0  0  0
    7.6920    1.0570   -0.2710 C   0  0  2  0  0  0  0  0  0  0  0  0
    7.8480    2.3200    0.2650 O   0  0  0  0  0  0  0  0  0  0  0  0
  1  2  1  0
  2  3  2  0
  2 10  1  0
  3  4  1  0
  3 29  1  0
  4  5  2  0
  4 27  1  0
  5  6  1  0
  6  7  1  0
  6 10  2  0
  7  8  2  0
  7 26  1  0
  8  9  1  0
  8 11  1  0
  9 10  1  0
 11 12  1  1
 11 13  1  0
 13 14  1  6
 13 25  1  0
 14 15  1  0
 16 15  1  1
 16 17  1  0
 16 24  1  0
 17 18  1  0
 18 19  1  6
 18 20  1  0
 20 21  1  0
 21 22  1  1
 21 23  1  0
 21 24  1  0
 25 26  1  0
 27 28  1  0
 28 29  1  0
 29 30  1  1
M  END
