
     RDKit          3D

 30 32  0  0  0  0  0  0  0  0999 V2000
    4.7130   -1.5780    2.3290 C   0  0  0  0  0  0  0  0  0  0  0  0
    4.1310   -0.9600    1.0980 C   0  0  0  0  0  0  0  0  0  0  0  0
    2.8530   -1.2270    0.7080 N   0  0  0  0  0  0  0  0  0  0  0  0
    2.3250   -0.6780   -0.3920 C   0  0  0  0  0  0  0  0  0  0  0  0
    1.0270   -0.9630   -0.7810 N   0  0  0  0  0  0  0  0  0  0  0  0
    0.0850   -1.8270   -0.1080 C   0  0  0  0  0  0  0  0  0  0  0  0
   -0.2630   -1.3290    1.2680 C   0  0  0  0  0  0  0  0  0  0  0  0
   -0.8820    0.0140    1.2560 C   0  0  0  0  0  0  0  0  0  0  0  0
   -0.1650    1.1790    1.5620 C   0  0  0  0  0  0  0  0  0  0  0  0
   -0.7890    2.4040    1.5170 C   0  0  0  0  0  0  0  0  0  0  0  0
   -2.1170    2.5390    1.1790 C   0  0  0  0  0  0  0  0  0  0  0  0
   -2.8350    1.4010    0.8770 C   0  0  0  0  0  0  0  0  0  0  0  0
   -2.1990    0.1540    0.9220 C   0  0  0  0  0  0  0  0  0  0  0  0
   -3.0190   -0.9880    0.6070 C   0  0  0  0  0  0  0  0  0  0  0  0
   -2.7870   -2.0830    1.1550 O   0  0  0  0  0  0  0  0  0  0  0  0
   -4.1250   -0.8620   -0.3550 C   0  0  1  0  0  0  0  0  0  0  0  0
   -5.2080   -1.8360    0.0580 C   0  0  0  0  0  0  0  0  0  0  0  0
   -4.6110    0.5480   -0.5060 C   0  0  1  0  0  0  0  0  0  0  0  0
   -6.1370    0.5130   -0.4790 C   0  0  0  0  0  0  0  0  0  0  0  0
   -4.1890    1.4350    0.5270 N   0  0  0  0  0  0  0  0  0  0  0  0
    3.1130    0.1740   -1.1290 C   0  0  0  0  0  0  0  0  0  0  0  0
    2.5380    0.7740   -2.3360 C   0  0  0  0  0  0  0  0  0  0  0  0
    4.4170    0.4780   -0.7750 C   0  0  0  0  0  0  0  0  0  0  0  0
    5.2540    1.4050   -1.5830 C   0  0  1  0  0  0  0  0  0  0  0  0
    5.4100    0.9450   -2.8730 F   0  0  0  0  0  0  0  0  0  0  0  0
    4.7000    2.6720   -1.5360 F   0  0  0  0  0  0  0  0  0  0  0  0
    6.5000    1.5360   -0.9530 F   0  0  0  0  0  0  0  0  0  0  0  0
    4.9370   -0.1120    0.3790 C   0  0  0  0  0  0  0  0  0  0  0  0
    6.3090    0.1560    0.8250 C   0  0  0  0  0  0  0  0  0  0  0  0
    6.5940    1.0930    1.6010 O   0  0  0  0  0  0  0  0  0  0  0  0
  1  2  1  0
  2  3  2  0
  2 28  1  0
  3  4  1  0
  4  5  1  0
  4 21  2  0
  5  6  1  0
  6  7  1  0
  7  8  1  0
  8  9  2  0
  8 13  1  0
  9 10  1  0
 10 11  2  0
 11 12  1  0
 12 13  2  0
 12 20  1  0
 13 14  1  0
 14 15  2  0
 14 16  1  0
 16 17  1  1
 16 18  1  0
 18 19  1  1
 18 20  1  0
 21 22  1  0
 21 23  1  0
 23 24  1  0
 23 28  2  0
 24 25  1  6
 24 26  1  0
 24 27  1  0
 28 29  1  0
 29 30  2  0
M  CHG  1  20   1
M  END
