
     RDKit          3D

 12 13  0  0  0  0  0  0  0  0999 V2000
   -1.9420    2.5520   -0.6850 C   0  0  0  0  0  0  0  0  0  0  0  0
   -1.2460    1.2740   -0.3870 C   0  0  0  0  0  0  0  0  0  0  0  0
    0.1110    1.1840   -0.1610 C   0  0  0  0  0  0  0  0  0  0  0  0
    0.7390   -0.0120    0.1150 C   0  0  0  0  0  0  0  0  0  0  0  0
    2.2080   -0.1000    0.3580 C   0  0  0  0  0  0  0  0  0  0  0  0
    2.8220    1.2090    0.2590 N   0  0  0  0  0  0  0  0  0  0  0  0
    0.0070   -1.1780    0.1740 C   0  0  0  0  0  0  0  0  0  0  0  0
    0.3820   -2.4590    0.4230 N   0  0  0  0  0  0  0  0  0  0  0  0
   -0.7480   -3.2200    0.3590 C   0  0  0  0  0  0  0  0  0  0  0  0
   -1.8130   -2.4150    0.0730 C   0  0  0  0  0  0  0  0  0  0  0  0
   -1.3560   -1.1180   -0.0480 C   0  0  0  0  0  0  0  0  0  0  0  0
   -1.9650    0.0980   -0.3240 C   0  0  0  0  0  0  0  0  0  0  0  0
  1  2  1  0
  2  3  2  0
  2 12  1  0
  3  4  1  0
  4  5  1  0
  4  7  2  0
  5  6  1  0
  7  8  1  0
  7 11  1  0
  8  9  1  0
  9 10  2  0
 10 11  1  0
 11 12  2  0
M  CHG  1   6   1
M  END
