
     RDKit          3D

 12 13  0  0  0  0  0  0  0  0999 V2000
    3.6320    0.3010   -0.3180 C   0  0  0  0  0  0  0  0  0  0  0  0
    2.3450    0.0690   -0.1200 C   0  0  0  0  0  0  0  0  0  0  0  0
    1.9710   -1.3450   -0.0630 C   0  0  0  0  0  0  0  0  0  0  0  0
    0.7470   -1.8530    0.0430 C   0  0  0  0  0  0  0  0  0  0  0  0
   -0.5620   -1.1700    0.1320 C   0  0  0  0  0  0  0  0  0  0  0  0
   -1.7050   -1.8010    0.3480 C   0  0  0  0  0  0  0  0  0  0  0  0
   -2.8390   -0.8790    0.3880 C   0  0  0  0  0  0  0  0  0  0  0  0
   -2.2940    0.4390   -0.0640 C   0  0  0  0  0  0  0  0  0  0  0  0
   -0.8180    0.2610    0.0040 C   0  0  0  0  0  0  0  0  0  0  0  0
    0.0760    1.2460   -0.0460 C   0  0  0  0  0  0  0  0  0  0  0  0
   -0.4940    2.5310   -0.1730 N   0  0  0  0  0  0  0  0  0  0  0  0
    1.5060    1.2010    0.0090 N   0  0  0  0  0  0  0  0  0  0  0  0
  1  2  2  0
  2  3  1  0
  2 12  1  0
  3  4  2  0
  4  5  1  0
  5  6  2  0
  5  9  1  0
  6  7  1  0
  7  8  1  0
  8  9  1  0
  9 10  2  0
 10 11  1  0
 10 12  1  0
M  END
