
     RDKit          3D

 21 22  0  0  0  0  0  0  0  0999 V2000
   -2.9060    0.0470    1.8420 O   0  0  0  0  0  0  0  0  0  0  0  0
   -3.2870    0.5310    0.7670 C   0  0  0  0  0  0  0  0  0  0  0  0
   -4.2320    1.5400    0.7850 O   0  0  0  0  0  0  0  0  0  0  0  0
   -2.7760    0.0770   -0.4970 C   0  0  0  0  0  0  0  0  0  0  0  0
   -3.2700    0.7030   -2.0930 S   0  0  0  0  0  0  0  0  0  0  0  0
   -2.1980   -0.3760   -3.0460 C   0  0  0  0  0  0  0  0  0  0  0  0
   -1.5460   -1.1320   -2.0640 C   0  0  0  0  0  0  0  0  0  0  0  0
   -1.8340   -0.9070   -0.7830 C   0  0  0  0  0  0  0  0  0  0  0  0
   -1.0450   -1.8040    0.5580 S   0  0  2  0  0  0  0  0  0  0  0  0
   -0.2550   -2.9610    0.0300 O   0  0  0  0  0  0  0  0  0  0  0  0
   -2.1510   -2.4210    1.3720 O   0  0  0  0  0  0  0  0  0  0  0  0
   -0.1510   -0.7610    1.5450 N   0  0  0  0  0  0  0  0  0  0  0  0
    0.9550    0.0240    1.1190 C   0  0  0  0  0  0  0  0  0  0  0  0
    1.0740    1.3500    1.4860 C   0  0  0  0  0  0  0  0  0  0  0  0
    2.1650    2.1160    1.0630 C   0  0  0  0  0  0  0  0  0  0  0  0
    3.1470    1.5660    0.2700 C   0  0  0  0  0  0  0  0  0  0  0  0
    3.0370    0.2330   -0.1050 C   0  0  0  0  0  0  0  0  0  0  0  0
    4.0420   -0.3530   -0.9240 N   0  0  0  0  0  0  0  0  0  0  0  0
    3.9220   -1.5510   -1.2480 O   0  0  0  0  0  0  0  0  0  0  0  0
    5.1210    0.3920   -1.3470 O   0  0  0  0  0  0  0  0  0  0  0  0
    1.9540   -0.4930    0.3260 C   0  0  0  0  0  0  0  0  0  0  0  0
  1  2  2  0
  2  3  1  0
  2  4  1  0
  4  5  1  0
  4  8  2  0
  5  6  1  0
  6  7  2  0
  7  8  1  0
  8  9  1  0
  9 10  2  0
  9 11  2  0
  9 12  1  1
 12 13  1  0
 13 14  2  0
 13 21  1  0
 14 15  1  0
 15 16  2  0
 16 17  1  0
 17 18  1  0
 17 21  2  0
 18 19  2  0
 18 20  1  0
M  CHG  2  18   1  20  -1
M  END
