
     RDKit          3D

 12 12  0  0  0  0  0  0  0  0999 V2000
   -2.8060   -0.0260    1.1960 C   0  0  0  0  0  0  0  0  0  0  0  0
   -2.2130   -0.1330   -0.1860 C   0  0  1  0  0  0  0  0  0  0  0  0
   -3.1900   -0.9540   -1.0230 C   0  0  0  0  0  0  0  0  0  0  0  0
   -2.2050    1.2580   -0.7850 C   0  0  0  0  0  0  0  0  0  0  0  0
   -0.9500   -0.7840   -0.2250 N   0  0  0  0  0  0  0  0  0  0  0  0
    0.1890    0.0350    0.0090 C   0  0  1  0  0  0  0  0  0  0  0  0
    0.8770   -0.3340    1.3070 C   0  0  0  0  0  0  0  0  0  0  0  0
    2.0760    0.6170    1.4300 C   0  0  0  0  0  0  0  0  0  0  0  0
    3.1310    0.0610    0.5040 C   0  0  2  0  0  0  0  0  0  0  0  0
    4.0650    1.0760    0.1210 N   0  0  0  0  0  0  0  0  0  0  0  0
    2.5110   -0.6750   -0.6290 C   0  0  0  0  0  0  0  0  0  0  0  0
    1.2010   -0.1010   -1.0970 C   0  0  0  0  0  0  0  0  0  0  0  0
  2  1  1  1
  2  3  1  0
  2  4  1  0
  2  5  1  0
  6  5  1  6
  6  7  1  0
  6 12  1  0
  7  8  1  0
  8  9  1  0
  9 10  1  6
  9 11  1  0
 11 12  1  0
M  CHG  1   5   1
M  END
