
     RDKit          3D

 12 13  0  0  0  0  0  0  0  0999 V2000
    0.2340   -0.1420    2.0020 N   0  0  0  0  0  0  0  0  0  0  0  0
   -0.0050   -0.0580    0.5510 C   0  0  1  0  0  0  0  0  0  0  0  0
    1.3650   -0.0350   -0.0630 C   0  0  0  0  0  0  0  0  0  0  0  0
    1.7530    0.6610   -1.1780 C   0  0  0  0  0  0  0  0  0  0  0  0
    3.1020    0.4220   -1.4130 C   0  0  0  0  0  0  0  0  0  0  0  0
    3.5180   -0.4280   -0.4190 C   0  0  0  0  0  0  0  0  0  0  0  0
    2.4510   -0.6880    0.3810 N   0  0  0  0  0  0  0  0  0  0  0  0
   -0.7240   -1.2980    0.1690 C   0  0  0  0  0  0  0  0  0  0  0  0
   -1.9440   -1.1600   -0.6700 C   0  0  0  0  0  0  0  0  0  0  0  0
   -2.4540    0.2290   -0.9300 C   0  0  0  0  0  0  0  0  0  0  0  0
   -2.1530    1.1930    0.1780 C   0  0  0  0  0  0  0  0  0  0  0  0
   -0.6490    1.2410    0.3210 C   0  0  0  0  0  0  0  0  0  0  0  0
  2  1  1  1
  2  3  1  0
  2  8  1  0
  2 12  1  0
  3  4  2  0
  3  7  1  0
  4  5  1  0
  5  6  2  0
  6  7  1  0
  8  9  1  0
  9 10  1  0
 10 11  1  0
 11 12  1  0
M  CHG  1   1   1
M  END
