
     RDKit          3D

 36 40  0  0  0  0  0  0  0  0999 V2000
   -8.9560   -0.3580   -1.0890 C   0  0  0  0  0  0  0  0  0  0  0  0
   -7.7090   -0.0860   -0.2100 C   0  0  1  0  0  0  0  0  0  0  0  0
   -7.5560    1.3990   -0.2690 C   0  0  0  0  0  0  0  0  0  0  0  0
   -8.1440   -0.5800    1.1520 C   0  0  0  0  0  0  0  0  0  0  0  0
   -7.0640   -0.8040    2.1000 C   0  0  0  0  0  0  0  0  0  0  0  0
   -7.2350   -0.3880    3.2380 O   0  0  0  0  0  0  0  0  0  0  0  0
   -5.7550   -1.4990    1.8110 C   0  0  0  0  0  0  0  0  0  0  0  0
   -4.9530   -0.5140    1.0060 C   0  0  1  0  0  0  0  0  0  0  0  0
   -3.4500   -0.7840    1.1790 C   0  0  0  0  0  0  0  0  0  0  0  0
   -2.7140    0.3920    0.5490 C   0  0  2  0  0  0  0  0  0  0  0  0
   -3.6170    1.2620   -0.2630 C   0  0  0  0  0  0  0  0  0  0  0  0
   -4.5520    0.5250   -1.1660 C   0  0  0  0  0  0  0  0  0  0  0  0
   -5.2390   -0.6370   -0.4530 C   0  0  2  0  0  0  0  0  0  0  0  0
   -6.6290   -0.8600   -0.8400 C   0  0  0  0  0  0  0  0  0  0  0  0
   -1.5440   -0.1570   -0.2020 C   0  0  0  0  0  0  0  0  0  0  0  0
   -0.3790    0.5590    0.4610 C   0  0  2  0  0  0  0  0  0  0  0  0
    0.7720   -0.1870    0.4990 O   0  0  0  0  0  0  0  0  0  0  0  0
    1.8130    0.5390   -0.0380 C   0  0  2  0  0  0  0  0  0  0  0  0
    2.4590   -0.1480   -1.2040 C   0  0  0  0  0  0  0  0  0  0  0  0
    3.7270   -0.8910   -0.7830 C   0  0  0  0  0  0  0  0  0  0  0  0
    4.8190    0.1530   -0.4830 C   0  0  2  0  0  0  0  0  0  0  0  0
    5.4050    0.5100   -1.8320 C   0  0  0  0  0  0  0  0  0  0  0  0
    5.9310   -0.6940   -2.5280 C   0  0  0  0  0  0  0  0  0  0  0  0
    6.5310   -1.7580   -1.6960 C   0  0  0  0  0  0  0  0  0  0  0  0
    5.9990   -1.9480   -0.3260 C   0  0  0  0  0  0  0  0  0  0  0  0
    5.8620   -0.5570    0.3160 C   0  0  2  0  0  0  0  0  0  0  0  0
    5.5320   -0.7260    1.6590 O   0  0  0  0  0  0  0  0  0  0  0  0
    7.2360    0.0420    0.2580 C   0  0  0  0  0  0  0  0  0  0  0  0
    7.3650    1.2660    0.8870 O   0  0  0  0  0  0  0  0  0  0  0  0
    8.6910    1.6690    0.7360 C   0  0  0  0  0  0  0  0  0  0  0  0
    9.5310    0.7080    1.3300 O   0  0  0  0  0  0  0  0  0  0  0  0
    4.1300    1.2840    0.1810 C   0  0  2  0  0  0  0  0  0  0  0  0
    4.8860    2.1000    0.9740 O   0  0  0  0  0  0  0  0  0  0  0  0
    2.9040    0.8200    0.9810 C   0  0  0  0  0  0  0  0  0  0  0  0
   -0.9400    0.7610    1.8660 C   0  0  0  0  0  0  0  0  0  0  0  0
   -2.2240    1.1590    1.6030 O   0  0  0  0  0  0  0  0  0  0  0  0
  2  1  1  6
  2  3  1  0
  2  4  1  0
  2 14  1  0
  4  5  1  0
  5  6  2  0
  5  7  1  0
  8  7  1  1
  8  9  1  0
  8 13  1  0
 10  9  1  1
 10 11  1  0
 10 15  1  0
 10 36  1  0
 11 12  1  0
 13 12  1  6
 13 14  1  0
 15 16  1  0
 16 17  1  1
 16 35  1  0
 18 17  1  1
 18 19  1  0
 18 34  1  0
 19 20  1  0
 21 20  1  6
 21 22  1  0
 21 26  1  0
 21 32  1  0
 22 23  1  0
 23 24  1  0
 24 25  1  0
 25 26  1  0
 26 27  1  1
 26 28  1  0
 28 29  1  0
 29 30  1  0
 30 31  1  0
 32 33  1  1
 32 34  1  0
 35 36  1  0
M  END
