
     RDKit          3D

 37 41  0  0  0  0  0  0  0  0999 V2000
    6.5390    0.8890    0.8180 C   0  0  0  0  0  0  0  0  0  0  0  0
    5.2870    0.3870    1.1960 O   0  0  0  0  0  0  0  0  0  0  0  0
    4.5990   -0.5970    0.4910 C   0  0  0  0  0  0  0  0  0  0  0  0
    5.1560   -1.0360   -0.5300 O   0  0  0  0  0  0  0  0  0  0  0  0
    3.3180   -1.0570    0.9490 C   0  0  2  0  0  0  0  0  0  0  0  0
    2.8880   -0.3970    2.1220 O   0  0  0  0  0  0  0  0  0  0  0  0
    3.3810   -2.5470    1.3520 C   0  0  0  0  0  0  0  0  0  0  0  0
    3.0280   -3.3730    0.1250 C   0  0  0  0  0  0  0  0  0  0  0  0
    3.3330   -2.7250   -1.0460 O   0  0  0  0  0  0  0  0  0  0  0  0
    2.5720   -1.5750   -1.2670 C   0  0  0  0  0  0  0  0  0  0  0  0
    2.1270   -0.9590    0.0070 C   0  0  2  0  0  0  0  0  0  0  0  0
    1.4770    0.3430    0.0090 C   0  0  1  0  0  0  0  0  0  0  0  0
    2.4250    1.4530   -0.4870 C   0  0  0  0  0  0  0  0  0  0  0  0
    1.9030    1.9220   -1.8040 C   0  0  0  0  0  0  0  0  0  0  0  0
    0.7040    1.1080   -1.9820 C   0  0  0  0  0  0  0  0  0  0  0  0
    0.2030    0.6870   -0.5500 C   0  0  2  0  0  0  0  0  0  0  0  0
   -0.1330    2.1120   -0.0200 C   0  0  2  0  0  0  0  0  0  0  0  0
   -0.1380    2.2860    1.4220 C   0  0  0  0  0  0  0  0  0  0  0  0
   -1.1750    3.3310    1.8090 C   0  0  0  0  0  0  0  0  0  0  0  0
   -1.5760    4.1290    0.5740 C   0  0  2  0  0  0  0  0  0  0  0  0
   -2.4560    5.2790    0.9870 C   0  0  0  0  0  0  0  0  0  0  0  0
   -2.2910    3.2270   -0.2070 O   0  0  0  0  0  0  0  0  0  0  0  0
   -1.3130    2.4140   -0.8330 C   0  0  2  0  0  0  0  0  0  0  0  0
   -1.8870    1.1380   -1.3570 C   0  0  0  0  0  0  0  0  0  0  0  0
   -0.9850   -0.0310   -0.8470 C   0  0  1  0  0  0  0  0  0  0  0  0
   -0.7370   -0.7880   -2.0040 O   0  0  0  0  0  0  0  0  0  0  0  0
   -1.8970   -0.8710   -0.0760 C   0  0  2  0  0  0  0  0  0  0  0  0
   -3.0160   -1.3280   -1.0540 C   0  0  2  0  0  0  0  0  0  0  0  0
   -3.9660   -2.0400   -0.2360 O   0  0  0  0  0  0  0  0  0  0  0  0
   -2.6820   -2.3420   -2.0770 C   0  0  0  0  0  0  0  0  0  0  0  0
   -4.0100   -2.5650   -2.8770 C   0  0  0  0  0  0  0  0  0  0  0  0
   -4.4250   -1.3910   -3.4550 O   0  0  0  0  0  0  0  0  0  0  0  0
   -2.6650   -0.2620    1.0330 C   0  0  0  0  0  0  0  0  0  0  0  0
   -2.4850   -0.6830    2.4360 C   0  0  0  0  0  0  0  0  0  0  0  0
   -2.2760   -2.1570    2.6410 C   0  0  0  0  0  0  0  0  0  0  0  0
   -0.9840   -2.3510    1.8090 C   0  0  0  0  0  0  0  0  0  0  0  0
   -1.3710   -2.2090    0.3710 C   0  0  0  0  0  0  0  0  0  0  0  0
  1  2  1  0
  2  3  1  0
  3  4  2  0
  3  5  1  0
  5  6  1  1
  5  7  1  0
  5 11  1  0
  7  8  1  0
  8  9  1  0
  9 10  1  0
 11 10  1  6
 11 12  1  0
 12 13  1  6
 12 16  1  0
 13 14  1  0
 14 15  1  0
 16 15  1  6
 16 17  1  0
 16 25  1  0
 17 18  1  1
 17 23  1  0
 18 19  1  0
 19 20  1  0
 20 21  1  1
 20 22  1  0
 22 23  1  0
 23 24  1  1
 24 25  1  0
 25 26  1  6
 25 27  1  0
 27 28  1  0
 27 33  1  1
 27 37  1  0
 28 29  1  1
 28 30  1  0
 30 31  1  0
 31 32  1  0
 33 34  1  0
 34 35  1  0
 35 36  1  0
 36 37  1  0
M  END
