
     RDKit          3D

 37 41  0  0  0  0  0  0  0  0999 V2000
   -4.6230    4.8090    1.0990 C   0  0  0  0  0  0  0  0  0  0  0  0
   -3.8510    4.1070    0.0140 C   0  0  0  0  0  0  0  0  0  0  0  0
   -3.9320    4.5160   -1.1780 O   0  0  0  0  0  0  0  0  0  0  0  0
   -3.0520    3.0300    0.2640 O   0  0  0  0  0  0  0  0  0  0  0  0
   -2.2940    2.3120   -0.6870 C   0  0  2  0  0  0  0  0  0  0  0  0
   -2.5830    0.9150   -0.8910 C   0  0  1  0  0  0  0  0  0  0  0  0
   -1.5030   -0.1140   -0.6880 C   0  0  0  0  0  0  0  0  0  0  0  0
   -0.2930    0.3950   -1.0070 C   0  0  0  0  0  0  0  0  0  0  0  0
    0.8730   -0.4300   -0.8940 C   0  0  0  0  0  0  0  0  0  0  0  0
    0.8610   -1.4180   -0.1960 O   0  0  0  0  0  0  0  0  0  0  0  0
    2.1490   -0.1530   -1.6050 C   0  0  2  0  0  0  0  0  0  0  0  0
    3.3590   -0.1240   -0.7520 C   0  0  0  0  0  0  0  0  0  0  0  0
    3.6950   -1.3710   -0.0070 C   0  0  0  0  0  0  0  0  0  0  0  0
    4.9630   -1.0600    0.7580 C   0  0  0  0  0  0  0  0  0  0  0  0
    4.9120   -0.3920    1.8190 O   0  0  0  0  0  0  0  0  0  0  0  0
    6.1930   -1.4920    0.3200 O   0  0  0  0  0  0  0  0  0  0  0  0
    7.4020   -1.2030    1.0370 C   0  0  0  0  0  0  0  0  0  0  0  0
    8.5780   -1.8140    0.3010 C   0  0  0  0  0  0  0  0  0  0  0  0
    9.7390   -1.5310    0.9980 O   0  0  0  0  0  0  0  0  0  0  0  0
    2.0570    1.1570   -2.3670 C   0  0  0  0  0  0  0  0  0  0  0  0
    1.3700    2.1190   -1.4310 C   0  0  0  0  0  0  0  0  0  0  0  0
   -0.1020    1.7920   -1.4500 C   0  0  2  0  0  0  0  0  0  0  0  0
   -0.8450    2.6600   -0.4450 C   0  0  1  0  0  0  0  0  0  0  0  0
   -0.6500    4.1150   -0.8010 C   0  0  0  0  0  0  0  0  0  0  0  0
   -0.3830    2.4220    0.9480 C   0  0  0  0  0  0  0  0  0  0  0  0
   -1.1590    3.2070    1.8030 O   0  0  0  0  0  0  0  0  0  0  0  0
   -2.0130   -1.3780   -0.2040 C   0  0  2  0  0  0  0  0  0  0  0  0
   -1.8450   -1.6840    1.2680 C   0  0  0  0  0  0  0  0  0  0  0  0
   -2.6410   -2.9350    1.6550 C   0  0  0  0  0  0  0  0  0  0  0  0
   -2.5830   -4.0370    0.6710 C   0  0  1  0  0  0  0  0  0  0  0  0
   -3.6330   -4.0680   -0.3920 C   0  0  0  0  0  0  0  0  0  0  0  0
   -2.9630   -3.3730   -1.5230 C   0  0  0  0  0  0  0  0  0  0  0  0
   -1.7750   -2.6110   -0.9720 C   0  0  2  0  0  0  0  0  0  0  0  0
   -1.2940   -3.7980   -0.1390 C   0  0  0  0  0  0  0  0  0  0  0  0
   -3.5310   -1.0780   -0.2610 C   0  0  0  0  0  0  0  0  0  0  0  0
   -3.6720    0.4230   -0.0480 C   0  0  1  0  0  0  0  0  0  0  0  0
   -3.7950    0.8150    1.2340 O   0  0  0  0  0  0  0  0  0  0  0  0
  1  2  1  0
  2  3  2  0
  2  4  1  0
  5  4  1  1
  5  6  1  0
  5 23  1  0
  6  7  1  1
  6 36  1  0
  7  8  2  0
  7 27  1  0
  8  9  1  0
  8 22  1  0
  9 10  2  0
  9 11  1  0
 11 12  1  1
 11 20  1  0
 12 13  1  0
 13 14  1  0
 14 15  2  0
 14 16  1  0
 16 17  1  0
 17 18  1  0
 18 19  1  0
 20 21  1  0
 22 21  1  1
 22 23  1  0
 23 24  1  6
 23 25  1  0
 25 26  1  0
 27 28  1  1
 27 33  1  0
 27 35  1  0
 28 29  1  0
 30 29  1  1
 30 31  1  0
 30 34  1  0
 31 32  1  0
 33 32  1  1
 33 34  1  0
 35 36  1  0
 36 37  1  1
M  END
