
     RDKit          3D

 37 41  0  0  0  0  0  0  0  0999 V2000
    5.9960    1.9670   -0.1340 C   0  0  0  0  0  0  0  0  0  0  0  0
    4.5620    1.8880    0.3490 C   0  0  1  0  0  0  0  0  0  0  0  0
    3.9470    3.2700    0.0930 C   0  0  0  0  0  0  0  0  0  0  0  0
    3.7680    0.8630   -0.4510 C   0  0  0  0  0  0  0  0  0  0  0  0
    3.1260    0.0510    0.6350 C   0  0  1  0  0  0  0  0  0  0  0  0
    1.7820    0.5880    1.0550 C   0  0  0  0  0  0  0  0  0  0  0  0
    0.6510   -0.3470    0.6760 C   0  0  1  0  0  0  0  0  0  0  0  0
   -0.5960    0.5250    0.5920 C   0  0  1  0  0  0  0  0  0  0  0  0
   -0.2900    1.4960   -0.3150 O   0  0  0  0  0  0  0  0  0  0  0  0
   -1.1650    2.5830   -0.2710 C   0  0  0  0  0  0  0  0  0  0  0  0
   -2.4750    2.0120    0.1620 C   0  0  0  0  0  0  0  0  0  0  0  0
   -2.7080    0.6260   -0.5040 C   0  0  1  0  0  0  0  0  0  0  0  0
   -4.0700    0.4310   -0.3900 O   0  0  0  0  0  0  0  0  0  0  0  0
   -2.4080    0.7960   -1.9410 C   0  0  0  0  0  0  0  0  0  0  0  0
   -3.1800    1.7930   -2.7290 C   0  0  1  0  0  0  0  0  0  0  0  0
   -2.6710    1.7830   -4.0800 O   0  0  0  0  0  0  0  0  0  0  0  0
   -4.6390    1.3750   -2.9760 C   0  0  0  0  0  0  0  0  0  0  0  0
   -5.2410    2.2900   -3.8580 O   0  0  0  0  0  0  0  0  0  0  0  0
   -1.8360   -0.3330    0.2410 C   0  0  2  0  0  0  0  0  0  0  0  0
   -2.3600   -0.6460    1.6320 C   0  0  0  0  0  0  0  0  0  0  0  0
   -3.5000   -1.4870    1.8770 C   0  0  2  0  0  0  0  0  0  0  0  0
   -4.7450   -1.1750    1.3870 O   0  0  0  0  0  0  0  0  0  0  0  0
   -3.7040   -1.5250    3.4180 C   0  0  0  0  0  0  0  0  0  0  0  0
   -2.4930   -1.8350    4.0350 O   0  0  0  0  0  0  0  0  0  0  0  0
   -1.4410   -1.6190   -0.3400 C   0  0  1  0  0  0  0  0  0  0  0  0
   -2.3700   -2.4380   -1.1170 C   0  0  0  0  0  0  0  0  0  0  0  0
   -1.6730   -2.8390   -2.4290 C   0  0  0  0  0  0  0  0  0  0  0  0
   -0.4310   -1.9820   -2.5110 C   0  0  0  0  0  0  0  0  0  0  0  0
   -0.1300   -1.7830   -1.0580 C   0  0  2  0  0  0  0  0  0  0  0  0
    0.5710   -3.1070   -0.6520 C   0  0  0  0  0  0  0  0  0  0  0  0
    0.8950   -0.7500   -0.7700 C   0  0  2  0  0  0  0  0  0  0  0  0
    2.2950   -1.2280   -1.0030 C   0  0  0  0  0  0  0  0  0  0  0  0
    3.0010   -1.2500    0.1990 O   0  0  0  0  0  0  0  0  0  0  0  0
    4.1640    0.1870    1.7530 C   0  0  2  0  0  0  0  0  0  0  0  0
    5.3460   -0.6970    1.4560 C   0  0  0  0  0  0  0  0  0  0  0  0
    3.6120   -0.1880    3.0880 C   0  0  0  0  0  0  0  0  0  0  0  0
    4.4710    1.5340    1.6720 O   0  0  0  0  0  0  0  0  0  0  0  0
  2  1  1  6
  2  3  1  0
  2  4  1  0
  2 37  1  0
  5  4  1  6
  5  6  1  0
  5 33  1  0
  5 34  1  0
  7  6  1  6
  7  8  1  0
  7 31  1  0
  8  9  1  6
  8 19  1  0
  9 10  1  0
 10 11  1  0
 11 12  1  0
 12 13  1  6
 12 14  1  0
 12 19  1  0
 14 15  1  0
 15 16  1  6
 15 17  1  0
 17 18  1  0
 19 20  1  1
 19 25  1  0
 20 21  1  0
 21 22  1  6
 21 23  1  0
 23 24  1  0
 25 26  1  6
 25 29  1  0
 26 27  1  0
 27 28  1  0
 28 29  1  0
 29 30  1  1
 29 31  1  0
 31 32  1  1
 32 33  1  0
 34 35  1  6
 34 36  1  0
 34 37  1  0
M  END
