
     RDKit          3D

 37 42  0  0  0  0  0  0  0  0999 V2000
   -4.0270   -4.1370   -3.9520 O   0  0  0  0  0  0  0  0  0  0  0  0
   -4.1340   -3.4160   -2.9230 C   0  0  0  0  0  0  0  0  0  0  0  0
   -4.4730   -3.8810   -1.5610 C   0  0  0  0  0  0  0  0  0  0  0  0
   -4.3300   -2.6520   -0.7180 C   0  0  0  0  0  0  0  0  0  0  0  0
   -3.8690   -1.5310   -1.6260 C   0  0  1  0  0  0  0  0  0  0  0  0
   -4.7530   -0.3330   -1.5890 C   0  0  0  0  0  0  0  0  0  0  0  0
   -4.1440    0.8840   -0.9690 C   0  0  0  0  0  0  0  0  0  0  0  0
   -3.2850    0.4250    0.1730 C   0  0  2  0  0  0  0  0  0  0  0  0
   -2.9200    1.4930    1.0990 C   0  0  0  0  0  0  0  0  0  0  0  0
   -2.3950    2.6610    0.5880 C   0  0  0  0  0  0  0  0  0  0  0  0
   -2.0170    3.7290    1.3950 C   0  0  0  0  0  0  0  0  0  0  0  0
   -1.4890    4.8950    0.8420 O   0  0  0  0  0  0  0  0  0  0  0  0
   -2.1840    3.5860    2.7430 C   0  0  0  0  0  0  0  0  0  0  0  0
   -2.7090    2.4190    3.2580 C   0  0  0  0  0  0  0  0  0  0  0  0
   -2.8690    2.2990    4.6370 O   0  0  0  0  0  0  0  0  0  0  0  0
   -3.0830    1.3600    2.4500 C   0  0  0  0  0  0  0  0  0  0  0  0
   -2.1150   -0.2700   -0.4310 C   0  0  0  0  0  0  0  0  0  0  0  0
   -2.4210   -1.2160   -1.3020 C   0  0  0  0  0  0  0  0  0  0  0  0
   -1.4470   -2.0590   -2.0420 C   0  0  1  0  0  0  0  0  0  0  0  0
   -1.3410   -1.6230   -3.3620 O   0  0  0  0  0  0  0  0  0  0  0  0
   -0.0960   -1.9460   -1.3770 C   0  0  1  0  0  0  0  0  0  0  0  0
    0.9000   -2.5900   -2.0840 O   0  0  0  0  0  0  0  0  0  0  0  0
    0.1540   -0.4700   -1.2220 C   0  0  2  0  0  0  0  0  0  0  0  0
    1.5790   -0.1020   -1.0020 C   0  0  0  0  0  0  0  0  0  0  0  0
    1.9670   -0.0390    0.4390 C   0  0  2  0  0  0  0  0  0  0  0  0
    3.3430   -0.5930    0.6020 C   0  0  2  0  0  0  0  0  0  0  0  0
    3.8290   -0.5950    2.0300 C   0  0  0  0  0  0  0  0  0  0  0  0
    5.3000   -0.1510    2.0950 C   0  0  0  0  0  0  0  0  0  0  0  0
    5.2750    1.3070    1.6840 C   0  0  0  0  0  0  0  0  0  0  0  0
    4.8980    1.3560    0.2420 C   0  0  1  0  0  0  0  0  0  0  0  0
    6.1800    1.6470   -0.5490 C   0  0  0  0  0  0  0  0  0  0  0  0
    6.7410    2.8600   -0.1650 O   0  0  0  0  0  0  0  0  0  0  0  0
    4.2940    0.1270   -0.3240 C   0  0  0  0  0  0  0  0  0  0  0  0
    0.9690   -0.6490    1.3710 C   0  0  0  0  0  0  0  0  0  0  0  0
   -0.3240   -0.3800    1.1370 O   0  0  0  0  0  0  0  0  0  0  0  0
   -0.7000    0.0230   -0.1130 C   0  0  2  0  0  0  0  0  0  0  0  0
   -3.9410   -2.0560   -2.9380 O   0  0  0  0  0  0  0  0  0  0  0  0
  1  2  2  0
  2  3  1  0
  2 37  1  0
  3  4  1  0
  5  4  1  1
  5  6  1  0
  5 18  1  0
  5 37  1  0
  6  7  1  0
  7  8  1  0
  8  9  1  6
  8 17  1  0
  9 10  2  0
  9 16  1  0
 10 11  1  0
 11 12  1  0
 11 13  2  0
 13 14  1  0
 14 15  1  0
 14 16  2  0
 17 18  2  0
 17 36  1  0
 18 19  1  0
 19 20  1  6
 19 21  1  0
 21 22  1  6
 21 23  1  0
 23 24  1  1
 23 36  1  0
 25 24  1  6
 25 26  1  0
 25 34  1  0
 26 27  1  1
 26 33  1  0
 27 28  1  0
 28 29  1  0
 29 30  1  0
 30 31  1  6
 30 33  1  0
 31 32  1  0
 34 35  1  0
 36 35  1  1
M  END
