
     RDKit          3D

 43 47  0  0  0  0  0  0  0  0999 V2000
   -1.4040   -1.1080   -3.0110 C   0  0  0  0  0  0  0  0  0  0  0  0
   -0.9490   -1.5160   -1.6280 C   0  0  0  0  0  0  0  0  0  0  0  0
   -0.8390   -0.3470   -0.7120 C   0  0  0  0  0  0  0  0  0  0  0  0
    0.4390    0.1580   -0.4140 C   0  0  0  0  0  0  0  0  0  0  0  0
    0.5860    1.2240    0.4140 C   0  0  0  0  0  0  0  0  0  0  0  0
    1.8040    1.7890    0.7540 N   0  0  0  0  0  0  0  0  0  0  0  0
    3.0590    1.4850    0.1950 C   0  0  0  0  0  0  0  0  0  0  0  0
    3.1860    0.6430   -0.7010 O   0  0  0  0  0  0  0  0  0  0  0  0
    4.2340    2.1170    0.6210 O   0  0  0  0  0  0  0  0  0  0  0  0
    5.4540    1.7890    0.0450 C   0  0  0  0  0  0  0  0  0  0  0  0
    5.9960    2.4610   -1.0190 C   0  0  0  0  0  0  0  0  0  0  0  0
    7.1960    2.0810   -1.5290 C   0  0  0  0  0  0  0  0  0  0  0  0
    7.9150    1.0000   -0.9900 C   0  0  0  0  0  0  0  0  0  0  0  0
    9.1090    0.6650   -1.5440 O   0  0  0  0  0  0  0  0  0  0  0  0
   10.0250   -0.2960   -1.2260 C   0  0  0  0  0  0  0  0  0  0  0  0
   10.6580   -0.1090    0.1150 C   0  0  0  0  0  0  0  0  0  0  0  0
   11.8110   -1.4660    0.3390 S   0  0  2  0  0  0  0  0  0  0  0  0
   10.8460   -2.9560    0.2520 C   0  0  0  0  0  0  0  0  0  0  0  0
   12.4930   -1.3730    1.6700 O   0  0  0  0  0  0  0  0  0  0  0  0
   12.8280   -1.4400   -0.7410 O   0  0  0  0  0  0  0  0  0  0  0  0
    7.3690    0.3410    0.0630 C   0  0  0  0  0  0  0  0  0  0  0  0
    6.1480    0.7280    0.5820 C   0  0  0  0  0  0  0  0  0  0  0  0
   -0.5810    1.7830    0.9440 C   0  0  0  0  0  0  0  0  0  0  0  0
   -1.8350    1.2890    0.6520 C   0  0  0  0  0  0  0  0  0  0  0  0
   -3.0090    1.9270    1.2460 C   0  0  0  0  0  0  0  0  0  0  0  0
   -1.9830    0.2120   -0.1840 C   0  0  0  0  0  0  0  0  0  0  0  0
   -3.2520   -0.3510   -0.5190 N   0  0  0  0  0  0  0  0  0  0  0  0
   -3.8220   -1.3680    0.2780 C   0  0  0  0  0  0  0  0  0  0  0  0
   -3.1510   -1.7320    1.2900 O   0  0  0  0  0  0  0  0  0  0  0  0
   -5.1100   -2.0210    0.0200 C   0  0  1  0  0  0  0  0  0  0  0  0
   -5.4060   -3.0290    1.1480 C   0  0  0  0  0  0  0  0  0  0  0  0
   -6.5240   -2.3000    1.8330 C   0  0  1  0  0  0  0  0  0  0  0  0
   -5.9310   -0.8930    2.0970 C   0  0  0  0  0  0  0  0  0  0  0  0
   -6.3730   -0.1510    1.1360 C   0  0  0  0  0  0  0  0  0  0  0  0
   -7.0660    1.0920    0.9010 C   0  0  1  0  0  0  0  0  0  0  0  0
   -6.5900    1.9960   -0.1580 C   0  0  0  0  0  0  0  0  0  0  0  0
   -6.5780    1.4990   -1.4460 O   0  0  0  0  0  0  0  0  0  0  0  0
   -6.1210    2.3950   -2.3790 C   0  0  0  0  0  0  0  0  0  0  0  0
   -8.4760    0.4740    0.5450 C   0  0  0  0  0  0  0  0  0  0  0  0
   -8.4590   -0.9770    0.8760 C   0  0  0  0  0  0  0  0  0  0  0  0
   -9.4480   -1.4090    1.4430 O   0  0  0  0  0  0  0  0  0  0  0  0
   -7.3860   -1.9700    0.6040 C   0  0  1  0  0  0  0  0  0  0  0  0
   -6.2450   -1.0930   -0.0570 C   0  0  2  0  0  0  0  0  0  0  0  0
  1  2  1  0
  2  3  1  0
  3  4  2  0
  3 26  1  0
  4  5  1  0
  5  6  1  0
  5 23  2  0
  6  7  1  0
  7  8  2  0
  7  9  1  0
  9 10  1  0
 10 11  2  0
 10 22  1  0
 11 12  1  0
 12 13  2  0
 13 14  1  0
 13 21  1  0
 14 15  1  0
 15 16  1  0
 16 17  1  0
 17 18  1  1
 17 19  2  0
 17 20  2  0
 21 22  2  0
 23 24  1  0
 24 25  1  0
 24 26  2  0
 26 27  1  0
 27 28  1  0
 28 29  2  0
 30 28  1  1
 30 31  1  0
 30 43  1  0
 32 31  1  6
 32 33  1  0
 32 42  1  0
 33 34  2  0
 34 35  1  0
 43 34  1  1
 35 36  1  6
 35 39  1  0
 36 37  1  0
 37 38  1  0
 39 40  1  0
 40 41  2  0
 42 40  1  1
 42 43  1  0
M  END
