
     RDKit          3D

 43 46  0  0  0  0  0  0  0  0999 V2000
    0.1080   -4.6520   -1.1270 C   0  0  0  0  0  0  0  0  0  0  0  0
    0.6550   -3.3490   -0.5510 C   0  0  0  0  0  0  0  0  0  0  0  0
    0.6830   -2.2650   -1.6020 C   0  0  0  0  0  0  0  0  0  0  0  0
    1.2240   -1.0200   -0.9750 C   0  0  0  0  0  0  0  0  0  0  0  0
    2.5620   -0.8920   -0.7350 C   0  0  0  0  0  0  0  0  0  0  0  0
    2.9890    0.3090   -0.1510 C   0  0  0  0  0  0  0  0  0  0  0  0
    2.1270    1.2630    0.1480 N   0  0  0  0  0  0  0  0  0  0  0  0
    0.7920    1.1660   -0.0780 C   0  0  0  0  0  0  0  0  0  0  0  0
   -0.3390    2.5140    0.3540 S   0  0  0  0  0  0  0  0  0  0  0  0
   -0.4090    3.5730   -1.1360 C   0  0  0  0  0  0  0  0  0  0  0  0
   -1.2830    4.7210   -0.9860 C   0  0  0  0  0  0  0  0  0  0  0  0
   -2.6120    4.6420   -1.3270 C   0  0  0  0  0  0  0  0  0  0  0  0
   -3.4620    5.7450   -1.1870 C   0  0  0  0  0  0  0  0  0  0  0  0
   -2.9530    6.8920   -0.7090 N   0  0  0  0  0  0  0  0  0  0  0  0
   -1.6630    7.0180   -0.3630 C   0  0  0  0  0  0  0  0  0  0  0  0
   -1.2120    8.2330    0.1210 O   0  0  0  0  0  0  0  0  0  0  0  0
   -2.0820    9.3340    0.2570 C   0  0  0  0  0  0  0  0  0  0  0  0
   -0.8080    5.9170   -0.5020 C   0  0  0  0  0  0  0  0  0  0  0  0
    0.3340    0.0110   -0.6460 C   0  0  0  0  0  0  0  0  0  0  0  0
   -1.0760   -0.2000   -0.9280 C   0  0  0  0  0  0  0  0  0  0  0  0
   -1.5330    0.1510   -2.0570 O   0  0  0  0  0  0  0  0  0  0  0  0
   -1.9640   -0.7600   -0.0460 O   0  0  0  0  0  0  0  0  0  0  0  0
   -3.3300   -0.9510   -0.3480 C   0  0  2  0  0  0  0  0  0  0  0  0
   -4.2350   -0.1550    0.5450 C   0  0  0  0  0  0  0  0  0  0  0  0
   -5.5790   -0.0310   -0.1010 C   0  0  0  0  0  0  0  0  0  0  0  0
   -5.8870   -1.2350   -0.9440 C   0  0  0  0  0  0  0  0  0  0  0  0
   -5.2570   -2.4630   -0.3450 C   0  0  1  0  0  0  0  0  0  0  0  0
   -5.8010   -2.6340    1.0570 C   0  0  0  0  0  0  0  0  0  0  0  0
   -5.7060   -3.6730   -1.1610 C   0  0  0  0  0  0  0  0  0  0  0  0
   -7.1000   -3.7070   -1.0680 O   0  0  0  0  0  0  0  0  0  0  0  0
   -3.7450   -2.3770   -0.3320 C   0  0  0  0  0  0  0  0  0  0  0  0
    4.4240    0.4450    0.0970 C   0  0  1  0  0  0  0  0  0  0  0  0
    4.9260   -0.4430    1.0640 O   0  0  0  0  0  0  0  0  0  0  0  0
    5.6670   -0.1110    2.1670 C   0  0  0  0  0  0  0  0  0  0  0  0
    5.9300    1.1060    2.3400 O   0  0  0  0  0  0  0  0  0  0  0  0
    6.1230   -1.1920    3.0980 C   0  0  1  0  0  0  0  0  0  0  0  0
    6.9110   -2.1850    2.2590 C   0  0  0  0  0  0  0  0  0  0  0  0
    8.0430   -1.4930    1.7900 O   0  0  0  0  0  0  0  0  0  0  0  0
    6.8410   -0.7140    4.1570 O   0  0  0  0  0  0  0  0  0  0  0  0
    6.2200   -1.1060    5.3390 C   0  0  0  0  0  0  0  0  0  0  0  0
    5.1010    0.0470   -1.2230 C   0  0  0  0  0  0  0  0  0  0  0  0
    4.8400   -1.3680   -1.5950 C   0  0  0  0  0  0  0  0  0  0  0  0
    3.5460   -1.9460   -1.0570 C   0  0  0  0  0  0  0  0  0  0  0  0
  1  2  1  0
  2  3  1  0
  3  4  1  0
  4  5  2  0
  4 19  1  0
  5  6  1  0
  5 43  1  0
  6  7  2  0
  6 32  1  0
  7  8  1  0
  8  9  1  0
  8 19  2  0
  9 10  1  0
 10 11  1  0
 11 12  2  0
 11 18  1  0
 12 13  1  0
 13 14  2  0
 14 15  1  0
 15 16  1  0
 15 18  2  0
 16 17  1  0
 19 20  1  0
 20 21  2  0
 20 22  1  0
 23 22  1  1
 23 24  1  0
 23 31  1  0
 24 25  1  0
 25 26  1  0
 26 27  1  0
 27 28  1  1
 27 29  1  0
 27 31  1  0
 29 30  1  0
 32 33  1  1
 32 41  1  0
 33 34  1  0
 34 35  2  0
 34 36  1  0
 36 37  1  6
 36 39  1  0
 37 38  1  0
 39 40  1  0
 41 42  1  0
 42 43  1  0
M  END
