
     RDKit          3D

 43 47  0  0  0  0  0  0  0  0999 V2000
   -6.4260   -3.3480    0.9220 C   0  0  0  0  0  0  0  0  0  0  0  0
   -4.9170   -3.5100    1.1450 C   0  0  0  0  0  0  0  0  0  0  0  0
   -4.3700   -2.2240    1.1490 O   0  0  0  0  0  0  0  0  0  0  0  0
   -3.0320   -1.9300    1.3210 C   0  0  0  0  0  0  0  0  0  0  0  0
   -2.2260   -2.8670    1.4880 O   0  0  0  0  0  0  0  0  0  0  0  0
   -2.5860   -0.5370    1.3040 C   0  0  2  0  0  0  0  0  0  0  0  0
   -3.2730    0.3500    2.3140 C   0  0  0  0  0  0  0  0  0  0  0  0
   -2.4700    0.0910   -0.0430 C   0  0  1  0  0  0  0  0  0  0  0  0
   -1.2190   -0.8940   -0.9860 S   0  0  0  0  0  0  0  0  0  0  0  0
    0.3650   -0.6390   -0.1620 C   0  0  0  0  0  0  0  0  0  0  0  0
    1.4470   -1.3910   -0.8670 C   0  0  0  0  0  0  0  0  0  0  0  0
    2.7850   -1.3950   -0.4720 C   0  0  0  0  0  0  0  0  0  0  0  0
    3.3300   -0.7060    0.6830 C   0  0  0  0  0  0  0  0  0  0  0  0
    2.4620    0.0450    1.3040 O   0  0  0  0  0  0  0  0  0  0  0  0
    4.6150   -0.7270    1.2120 N   0  0  0  0  0  0  0  0  0  0  0  0
    5.7270   -1.5010    0.7720 C   0  0  0  0  0  0  0  0  0  0  0  0
    6.6900   -0.5940    0.0110 C   0  0  0  0  0  0  0  0  0  0  0  0
    6.7260    0.7730    0.6620 C   0  0  1  0  0  0  0  0  0  0  0  0
    8.1140    1.3310    0.4990 C   0  0  0  0  0  0  0  0  0  0  0  0
    5.8310    1.6670    0.1410 O   0  0  0  0  0  0  0  0  0  0  0  0
    5.6170    2.6680    1.0530 C   0  0  0  0  0  0  0  0  0  0  0  0
    6.2290    2.2500    2.3740 C   0  0  0  0  0  0  0  0  0  0  0  0
    6.3470    0.7350    2.1310 C   0  0  1  0  0  0  0  0  0  0  0  0
    4.9630    0.1900    2.3400 C   0  0  0  0  0  0  0  0  0  0  0  0
    3.4140   -2.1800   -1.3600 N   0  0  0  0  0  0  0  0  0  0  0  0
    2.5690   -2.6820   -2.2990 C   0  0  0  0  0  0  0  0  0  0  0  0
    2.9130   -3.5910   -3.4410 C   0  0  0  0  0  0  0  0  0  0  0  0
    1.3320   -2.1800   -1.9820 C   0  0  0  0  0  0  0  0  0  0  0  0
    0.0860   -2.4290   -2.6960 C   0  0  0  0  0  0  0  0  0  0  0  0
   -0.6230   -3.3980   -2.3640 O   0  0  0  0  0  0  0  0  0  0  0  0
   -0.3110   -1.6110   -3.7270 O   0  0  0  0  0  0  0  0  0  0  0  0
   -1.5180   -1.8150   -4.4520 C   0  0  0  0  0  0  0  0  0  0  0  0
   -3.7140    0.2280   -0.8410 C   0  0  1  0  0  0  0  0  0  0  0  0
   -4.3670   -0.9670   -1.1350 O   0  0  0  0  0  0  0  0  0  0  0  0
   -4.5900    1.3160   -0.4160 C   0  0  0  0  0  0  0  0  0  0  0  0
   -5.6880    1.1010    0.3780 C   0  0  0  0  0  0  0  0  0  0  0  0
   -6.5010    2.1620    0.7660 C   0  0  0  0  0  0  0  0  0  0  0  0
   -6.2040    3.4480    0.3500 C   0  0  0  0  0  0  0  0  0  0  0  0
   -5.1190    3.6740   -0.4370 C   0  0  0  0  0  0  0  0  0  0  0  0
   -4.3250    2.6050   -0.8100 C   0  0  0  0  0  0  0  0  0  0  0  0
   -5.0660    5.1410   -0.7150 C   0  0  0  0  0  0  0  0  0  0  0  0
   -5.9370    5.7270    0.3650 C   0  0  0  0  0  0  0  0  0  0  0  0
   -6.8540    4.6530    0.6020 O   0  0  0  0  0  0  0  0  0  0  0  0
  1  2  1  0
  2  3  1  0
  3  4  1  0
  4  5  2  0
  4  6  1  0
  6  7  1  1
  6  8  1  0
  8  9  1  6
  8 33  1  0
  9 10  1  0
 10 11  1  0
 11 12  2  0
 11 28  1  0
 12 13  1  0
 12 25  1  0
 13 14  2  0
 13 15  1  0
 15 16  1  0
 15 24  1  0
 16 17  1  0
 17 18  1  0
 18 19  1  1
 18 20  1  0
 18 23  1  0
 20 21  1  0
 21 22  1  0
 23 22  1  6
 23 24  1  0
 25 26  1  0
 26 27  1  0
 26 28  2  0
 28 29  1  0
 29 30  2  0
 29 31  1  0
 31 32  1  0
 33 34  1  1
 33 35  1  0
 35 36  2  0
 35 40  1  0
 36 37  1  0
 37 38  2  0
 38 39  1  0
 38 43  1  0
 39 40  2  0
 39 41  1  0
 41 42  1  0
 42 43  1  0
M  END
