
     RDKit          3D

 42 43  0  0  0  0  0  0  0  0999 V2000
   -5.3150   -4.5780    0.0260 C   0  0  0  0  0  0  0  0  0  0  0  0
   -6.0160   -3.4020   -0.0190 O   0  0  0  0  0  0  0  0  0  0  0  0
   -5.2420   -2.2920   -0.3630 C   0  0  1  0  0  0  0  0  0  0  0  0
   -5.7290   -1.6660   -1.6480 C   0  0  0  0  0  0  0  0  0  0  0  0
   -5.0440   -2.0110   -2.7900 O   0  0  0  0  0  0  0  0  0  0  0  0
   -3.9860   -1.5140   -3.4500 C   0  0  0  0  0  0  0  0  0  0  0  0
   -4.1300   -1.0370   -4.6320 O   0  0  0  0  0  0  0  0  0  0  0  0
   -2.5720   -1.4420   -2.9560 C   0  0  0  0  0  0  0  0  0  0  0  0
   -1.9680   -0.2060   -3.1260 O   0  0  0  0  0  0  0  0  0  0  0  0
   -1.8070    0.8170   -2.2070 C   0  0  0  0  0  0  0  0  0  0  0  0
   -0.8280    1.6010   -2.2400 O   0  0  0  0  0  0  0  0  0  0  0  0
   -2.8080    1.0060   -1.1530 C   0  0  0  0  0  0  0  0  0  0  0  0
   -2.3940    0.9300    0.2660 C   0  0  2  0  0  0  0  0  0  0  0  0
   -1.0090    1.1050    0.5880 N   0  0  0  0  0  0  0  0  0  0  0  0
   -0.0820    0.1590    0.1200 C   0  0  0  0  0  0  0  0  0  0  0  0
   -0.4490   -0.8680   -0.5540 O   0  0  0  0  0  0  0  0  0  0  0  0
    1.2600    0.2360    0.3320 O   0  0  0  0  0  0  0  0  0  0  0  0
    2.2200   -0.6990   -0.1240 C   0  0  2  0  0  0  0  0  0  0  0  0
    3.0540   -1.2550    0.9810 C   0  0  0  0  0  0  0  0  0  0  0  0
    4.3630   -1.5900    0.3040 C   0  0  1  0  0  0  0  0  0  0  0  0
    5.4310   -1.7470    1.2750 N   0  0  0  0  0  0  0  0  0  0  0  0
    4.1870   -2.8350   -0.4600 C   0  0  0  0  0  0  0  0  0  0  0  0
    4.9180   -3.8230   -0.1920 O   0  0  0  0  0  0  0  0  0  0  0  0
    3.2630   -3.0170   -1.4750 O   0  0  0  0  0  0  0  0  0  0  0  0
    4.5820   -0.3760   -0.5680 C   0  0  1  0  0  0  0  0  0  0  0  0
    5.3070    0.6800    0.2270 C   0  0  0  0  0  0  0  0  0  0  0  0
    5.4730   -0.7340   -1.7550 C   0  0  0  0  0  0  0  0  0  0  0  0
    6.7130   -1.1920   -1.3220 O   0  0  0  0  0  0  0  0  0  0  0  0
    3.2110    0.0190   -0.9990 C   0  0  1  0  0  0  0  0  0  0  0  0
    3.0560   -0.4220   -2.3280 O   0  0  0  0  0  0  0  0  0  0  0  0
   -0.5070    2.2100    1.4290 C   0  0  2  0  0  0  0  0  0  0  0  0
    0.0510    1.5370    2.6470 C   0  0  0  0  0  0  0  0  0  0  0  0
    0.6040    2.3810    3.6560 N   0  0  0  0  0  0  0  0  0  0  0  0
   -1.6470    3.1280    1.8620 C   0  0  0  0  0  0  0  0  0  0  0  0
   -2.3020    3.7680    0.8590 O   0  0  0  0  0  0  0  0  0  0  0  0
    0.4660    2.9540    0.5790 C   0  0  0  0  0  0  0  0  0  0  0  0
    1.1480    4.1440    1.1770 C   0  0  0  0  0  0  0  0  0  0  0  0
    0.3570    5.1760    1.5830 O   0  0  0  0  0  0  0  0  0  0  0  0
   -2.9620   -0.3560    0.8720 C   0  0  0  0  0  0  0  0  0  0  0  0
   -4.3340   -0.3340    0.9940 O   0  0  0  0  0  0  0  0  0  0  0  0
   -5.2840   -1.2470    0.6870 C   0  0  0  0  0  0  0  0  0  0  0  0
   -6.3610   -1.2210    1.3780 O   0  0  0  0  0  0  0  0  0  0  0  0
  1  2  1  0
  3  2  1  1
  3  4  1  0
  3 41  1  0
  4  5  1  0
  5  6  1  0
  6  7  2  0
  6  8  1  0
  8  9  1  0
  9 10  1  0
 10 11  2  0
 10 12  1  0
 12 13  1  0
 13 14  1  6
 13 39  1  0
 14 15  1  0
 14 31  1  0
 15 16  2  0
 15 17  1  0
 18 17  1  1
 18 19  1  0
 18 29  1  0
 19 20  1  0
 20 21  1  1
 20 22  1  0
 20 25  1  0
 22 23  2  0
 22 24  1  0
 25 26  1  1
 25 27  1  0
 25 29  1  0
 27 28  1  0
 29 30  1  6
 31 32  1  1
 31 34  1  0
 31 36  1  0
 32 33  1  0
 34 35  1  0
 36 37  1  0
 37 38  1  0
 39 40  1  0
 40 41  1  0
 41 42  2  0
M  CHG  1  33   1
M  END
