
     RDKit          3D

 43 47  0  0  0  0  0  0  0  0999 V2000
   -8.5560   -4.6400   -0.4380 C   0  0  0  0  0  0  0  0  0  0  0  0
   -7.3530   -3.7110   -0.6510 C   0  0  0  0  0  0  0  0  0  0  0  0
   -6.5130   -3.7130    0.6000 C   0  0  0  0  0  0  0  0  0  0  0  0
   -5.4180   -2.8920    0.5170 O   0  0  0  0  0  0  0  0  0  0  0  0
   -5.3620   -1.5390    0.4160 C   0  0  0  0  0  0  0  0  0  0  0  0
   -6.4200   -0.6710    0.4110 C   0  0  0  0  0  0  0  0  0  0  0  0
   -6.2220    0.6850    0.3040 C   0  0  0  0  0  0  0  0  0  0  0  0
   -7.4140    1.5900    0.3060 C   0  0  0  0  0  0  0  0  0  0  0  0
   -4.9630    1.2360    0.2000 C   0  0  0  0  0  0  0  0  0  0  0  0
   -4.8210    2.6790    0.1230 C   0  0  2  0  0  0  0  0  0  0  0  0
   -5.8220    3.2840   -0.6590 O   0  0  0  0  0  0  0  0  0  0  0  0
   -3.5170    3.2130   -0.3420 C   0  0  0  0  0  0  0  0  0  0  0  0
   -3.0970    2.8510   -1.7230 C   0  0  0  0  0  0  0  0  0  0  0  0
   -1.8280    3.4550   -1.9290 O   0  0  0  0  0  0  0  0  0  0  0  0
   -3.9070    0.3610    0.2090 C   0  0  0  0  0  0  0  0  0  0  0  0
   -4.0620   -0.9930    0.3120 C   0  0  0  0  0  0  0  0  0  0  0  0
   -2.9520   -1.8590    0.3320 N   0  0  0  0  0  0  0  0  0  0  0  0
   -1.6190   -1.3390    0.1610 C   0  0  2  0  0  0  0  0  0  0  0  0
   -1.5010   -0.7950   -1.2620 C   0  0  0  0  0  0  0  0  0  0  0  0
   -0.6790   -1.7720   -2.1000 C   0  0  0  0  0  0  0  0  0  0  0  0
    0.7690   -1.7720   -1.5560 C   0  0  0  0  0  0  0  0  0  0  0  0
    0.6950   -1.8970   -0.1460 N   0  0  0  0  0  0  0  0  0  0  0  0
    1.6780   -1.6100    0.7900 C   0  0  0  0  0  0  0  0  0  0  0  0
    1.3550   -1.7550    2.0550 O   0  0  0  0  0  0  0  0  0  0  0  0
    3.0240   -1.1660    0.5840 C   0  0  0  0  0  0  0  0  0  0  0  0
    3.6370   -1.1710   -0.6280 C   0  0  0  0  0  0  0  0  0  0  0  0
    4.9270   -0.6580   -0.7190 C   0  0  0  0  0  0  0  0  0  0  0  0
    5.6130   -0.1450    0.3620 C   0  0  0  0  0  0  0  0  0  0  0  0
    6.9750    0.3590    0.1100 C   0  0  2  0  0  0  0  0  0  0  0  0
    7.9540   -0.2900    1.0470 C   0  0  0  0  0  0  0  0  0  0  0  0
    7.9640    0.3820    2.3530 C   0  0  0  0  0  0  0  0  0  0  0  0
    8.0920   -0.2160    3.4530 O   0  0  0  0  0  0  0  0  0  0  0  0
    7.8280    1.7540    2.4010 O   0  0  0  0  0  0  0  0  0  0  0  0
    7.1100    2.4860    1.4230 C   0  0  1  0  0  0  0  0  0  0  0  0
    7.6920    3.8620    1.3380 C   0  0  0  0  0  0  0  0  0  0  0  0
    9.0380    3.6020    0.2010 S   0  0  2  0  0  0  0  0  0  0  0  0
   10.2860    3.1810    0.9210 O   0  0  0  0  0  0  0  0  0  0  0  0
    9.2550    4.7560   -0.7090 O   0  0  0  0  0  0  0  0  0  0  0  0
    8.3960    2.1700   -0.6220 C   0  0  0  0  0  0  0  0  0  0  0  0
    7.1010    1.8570    0.0960 C   0  0  1  0  0  0  0  0  0  0  0  0
    4.9880   -0.1460    1.5740 C   0  0  0  0  0  0  0  0  0  0  0  0
    3.7240   -0.6420    1.6940 C   0  0  0  0  0  0  0  0  0  0  0  0
   -0.5870   -2.4220    0.3850 C   0  0  0  0  0  0  0  0  0  0  0  0
  1  2  1  0
  2  3  1  0
  3  4  1  0
  4  5  1  0
  5  6  2  0
  5 16  1  0
  6  7  1  0
  7  8  1  0
  7  9  2  0
  9 10  1  0
  9 15  1  0
 10 11  1  6
 10 12  1  0
 12 13  1  0
 13 14  1  0
 15 16  2  0
 16 17  1  0
 18 17  1  6
 18 19  1  0
 18 43  1  0
 19 20  1  0
 20 21  1  0
 21 22  1  0
 22 23  1  0
 22 43  1  0
 23 24  2  0
 23 25  1  0
 25 26  2  0
 25 42  1  0
 26 27  1  0
 27 28  2  0
 29 28  1  1
 28 41  1  0
 29 30  1  0
 29 40  1  0
 30 31  1  0
 31 32  2  0
 31 33  1  0
 33 34  1  0
 34 35  1  6
 34 40  1  0
 36 35  1  1
 36 37  2  0
 36 38  2  0
 36 39  1  0
 40 39  1  1
 41 42  2  0
M  END
