
     RDKit          3D

 43 47  0  0  0  0  0  0  0  0999 V2000
   -8.0530   -0.4250   -0.9320 C   0  0  0  0  0  0  0  0  0  0  0  0
   -7.4980    0.0470    0.3860 C   0  0  2  0  0  0  0  0  0  0  0  0
   -8.1760   -0.5990    1.5780 C   0  0  0  0  0  0  0  0  0  0  0  0
   -7.8180    1.5440    0.4950 C   0  0  0  0  0  0  0  0  0  0  0  0
   -6.5800    2.3800    0.5270 C   0  0  0  0  0  0  0  0  0  0  0  0
   -5.5770    1.9170    1.5290 C   0  0  0  0  0  0  0  0  0  0  0  0
   -5.4920    0.4810    1.6430 N   0  0  0  0  0  0  0  0  0  0  0  0
   -6.0150   -0.0660    0.3910 C   0  0  1  0  0  0  0  0  0  0  0  0
   -5.4590   -1.3960    0.1250 C   0  0  0  0  0  0  0  0  0  0  0  0
   -6.2490   -2.5020    0.0810 C   0  0  0  0  0  0  0  0  0  0  0  0
   -5.7050   -3.7740   -0.1720 C   0  0  0  0  0  0  0  0  0  0  0  0
   -4.3620   -3.9160   -0.3790 C   0  0  0  0  0  0  0  0  0  0  0  0
   -3.7930   -5.1640   -0.6310 O   0  0  0  0  0  0  0  0  0  0  0  0
   -3.5130   -2.7910   -0.3390 C   0  0  0  0  0  0  0  0  0  0  0  0
   -2.1160   -3.0100   -0.6330 C   0  0  0  0  0  0  0  0  0  0  0  0
   -1.7650   -4.0910   -1.2360 O   0  0  0  0  0  0  0  0  0  0  0  0
   -1.0300   -2.1160   -0.3100 C   0  0  0  0  0  0  0  0  0  0  0  0
   -0.9610   -1.3210    0.7910 C   0  0  0  0  0  0  0  0  0  0  0  0
    0.1100   -0.4410    1.0030 C   0  0  0  0  0  0  0  0  0  0  0  0
    1.1350   -0.3540    0.0990 C   0  0  0  0  0  0  0  0  0  0  0  0
    2.2510    0.5320    0.2890 C   0  0  0  0  0  0  0  0  0  0  0  0
    2.4690    1.0170    1.4490 O   0  0  0  0  0  0  0  0  0  0  0  0
    3.1460    0.9150   -0.7420 N   0  0  0  0  0  0  0  0  0  0  0  0
    4.2840    1.8130   -0.5460 C   0  0  2  0  0  0  0  0  0  0  0  0
    3.8280    3.1580   -1.0890 C   0  0  0  0  0  0  0  0  0  0  0  0
    4.5700    4.2960   -0.4060 C   0  0  0  0  0  0  0  0  0  0  0  0
    5.8550    4.5960   -1.1780 C   0  0  0  0  0  0  0  0  0  0  0  0
    6.7370    3.4680   -0.9270 N   0  0  0  0  0  0  0  0  0  0  0  0
    6.3570    2.4200   -1.8220 C   0  0  0  0  0  0  0  0  0  0  0  0
    5.5410    1.3270   -1.1680 C   0  0  1  0  0  0  0  0  0  0  0  0
    6.2990    0.5180   -0.2700 N   0  0  0  0  0  0  0  0  0  0  0  0
    6.6220   -0.8530   -0.5280 C   0  0  0  0  0  0  0  0  0  0  0  0
    6.1930   -1.3120   -1.6030 O   0  0  0  0  0  0  0  0  0  0  0  0
    7.3960   -1.6900    0.3740 C   0  0  0  0  0  0  0  0  0  0  0  0
    7.8560   -1.2920    1.6040 C   0  0  0  0  0  0  0  0  0  0  0  0
    8.5840   -2.1970    2.3470 C   0  0  0  0  0  0  0  0  0  0  0  0
    8.8720   -3.4450    1.9430 N   0  0  0  0  0  0  0  0  0  0  0  0
    8.4250   -3.8550    0.7300 C   0  0  0  0  0  0  0  0  0  0  0  0
    7.6960   -2.9730   -0.0320 C   0  0  0  0  0  0  0  0  0  0  0  0
    1.0660   -1.1550   -1.0070 C   0  0  0  0  0  0  0  0  0  0  0  0
    0.0140   -2.0290   -1.2310 C   0  0  0  0  0  0  0  0  0  0  0  0
   -4.0790   -1.5670   -0.0920 C   0  0  0  0  0  0  0  0  0  0  0  0
   -3.3300   -0.4460   -0.1060 F   0  0  0  0  0  0  0  0  0  0  0  0
  2  1  1  6
  2  3  1  0
  2  4  1  0
  2  8  1  0
  4  5  1  0
  5  6  1  0
  6  7  1  0
  7  8  1  0
  8  9  1  1
  9 10  2  0
  9 42  1  0
 10 11  1  0
 11 12  2  0
 12 13  1  0
 12 14  1  0
 14 15  1  0
 14 42  2  0
 15 16  2  0
 15 17  1  0
 17 18  2  0
 17 41  1  0
 18 19  1  0
 19 20  2  0
 20 21  1  0
 20 40  1  0
 21 22  2  0
 21 23  1  0
 24 23  1  6
 24 25  1  0
 24 30  1  0
 25 26  1  0
 26 27  1  0
 27 28  1  0
 28 29  1  0
 29 30  1  0
 30 31  1  1
 31 32  1  0
 32 33  2  0
 32 34  1  0
 34 35  2  0
 34 39  1  0
 35 36  1  0
 36 37  2  0
 37 38  1  0
 38 39  2  0
 40 41  2  0
 42 43  1  0
M  CHG  2   7   1  28   1
M  END
