
     RDKit          3D

 43 46  0  0  0  0  0  0  0  0999 V2000
    6.8280   -0.1660    2.7770 C   0  0  0  0  0  0  0  0  0  0  0  0
    5.3800   -0.3070    2.3480 C   0  0  0  0  0  0  0  0  0  0  0  0
    5.1900   -1.3690    1.4980 O   0  0  0  0  0  0  0  0  0  0  0  0
    5.9240   -1.2450    0.3230 C   0  0  2  0  0  0  0  0  0  0  0  0
    5.0820   -1.5210   -0.8710 C   0  0  1  0  0  0  0  0  0  0  0  0
    3.6750   -1.1240   -0.6260 C   0  0  0  0  0  0  0  0  0  0  0  0
    2.7840   -2.0170   -0.6990 O   0  0  0  0  0  0  0  0  0  0  0  0
    3.2770    0.1920   -0.3180 N   0  0  0  0  0  0  0  0  0  0  0  0
    1.9560    0.6380   -0.0840 C   0  0  0  0  0  0  0  0  0  0  0  0
    1.7400    1.8670    0.5620 C   0  0  0  0  0  0  0  0  0  0  0  0
    0.4740    2.3500    0.7840 C   0  0  0  0  0  0  0  0  0  0  0  0
   -0.6560    1.6420    0.3760 C   0  0  0  0  0  0  0  0  0  0  0  0
   -0.4570    0.4430   -0.2550 C   0  0  0  0  0  0  0  0  0  0  0  0
    0.8330   -0.0300   -0.4710 C   0  0  0  0  0  0  0  0  0  0  0  0
   -1.8080   -0.0800   -0.5740 C   0  0  0  0  0  0  0  0  0  0  0  0
   -2.7230    0.7450    0.3050 C   0  0  2  0  0  0  0  0  0  0  0  0
   -3.9870    1.1240   -0.4270 C   0  0  0  0  0  0  0  0  0  0  0  0
   -4.8190    2.0560    0.2790 N   0  0  0  0  0  0  0  0  0  0  0  0
   -4.5880    3.4940    0.0790 C   0  0  0  0  0  0  0  0  0  0  0  0
   -5.4120    3.9870   -1.0560 C   0  0  0  0  0  0  0  0  0  0  0  0
   -5.3650    5.1950   -1.3910 O   0  0  0  0  0  0  0  0  0  0  0  0
   -6.2430    3.1050   -1.7500 O   0  0  0  0  0  0  0  0  0  0  0  0
   -7.0300    3.5960   -2.8390 C   0  0  0  0  0  0  0  0  0  0  0  0
   -5.8550    1.6440    1.1560 C   0  0  0  0  0  0  0  0  0  0  0  0
   -6.5670    2.5110    1.7560 O   0  0  0  0  0  0  0  0  0  0  0  0
   -6.1320    0.2340    1.3870 C   0  0  0  0  0  0  0  0  0  0  0  0
   -6.9830   -0.4680    0.5160 C   0  0  0  0  0  0  0  0  0  0  0  0
   -7.2420   -1.7990    0.7080 C   0  0  0  0  0  0  0  0  0  0  0  0
   -8.0780   -2.5120   -0.1400 O   0  0  0  0  0  0  0  0  0  0  0  0
   -8.7140   -1.9210   -1.2520 C   0  0  0  0  0  0  0  0  0  0  0  0
   -6.6490   -2.4340    1.7770 C   0  0  0  0  0  0  0  0  0  0  0  0
   -5.8140   -1.7740    2.6430 C   0  0  0  0  0  0  0  0  0  0  0  0
   -5.5490   -0.4170    2.4480 C   0  0  0  0  0  0  0  0  0  0  0  0
   -4.7120    0.2460    3.3210 O   0  0  0  0  0  0  0  0  0  0  0  0
   -4.1210   -0.4580    4.4130 C   0  0  0  0  0  0  0  0  0  0  0  0
   -1.9940    1.9330    0.4920 O   0  0  0  0  0  0  0  0  0  0  0  0
    5.6260   -0.8700   -2.1310 C   0  0  0  0  0  0  0  0  0  0  0  0
    6.9670   -1.4340   -2.5020 C   0  0  1  0  0  0  0  0  0  0  0  0
    7.9360   -0.3440   -2.9260 C   0  0  0  0  0  0  0  0  0  0  0  0
    7.3770    0.3900   -4.1390 C   0  0  0  0  0  0  0  0  0  0  0  0
    7.6370   -2.5590   -1.2900 S   0  0  0  0  0  0  0  0  0  0  0  0
    6.9950   -2.3460    0.3780 C   0  0  2  0  0  0  0  0  0  0  0  0
    6.3390   -3.6620    0.7960 C   0  0  0  0  0  0  0  0  0  0  0  0
  1  2  1  0
  2  3  1  0
  4  3  1  1
  4  5  1  0
  4 42  1  0
  5  6  1  1
  5 37  1  0
  6  7  2  0
  6  8  1  0
  8  9  1  0
  9 10  2  0
  9 14  1  0
 10 11  1  0
 11 12  2  0
 12 13  1  0
 12 36  1  0
 13 14  2  0
 13 15  1  0
 15 16  1  0
 16 17  1  6
 16 36  1  0
 17 18  1  0
 18 19  1  0
 18 24  1  0
 19 20  1  0
 20 21  2  0
 20 22  1  0
 22 23  1  0
 24 25  2  0
 24 26  1  0
 26 27  2  0
 26 33  1  0
 27 28  1  0
 28 29  1  0
 28 31  2  0
 29 30  1  0
 31 32  1  0
 32 33  2  0
 33 34  1  0
 34 35  1  0
 37 38  1  0
 38 39  1  1
 38 41  1  0
 39 40  1  0
 41 42  1  0
 42 43  1  6
M  END
