
     RDKit          3D

 37 40  0  0  0  0  0  0  0  0999 V2000
    0.3980    1.7920   -2.9200 C   0  0  0  0  0  0  0  0  0  0  0  0
    0.0240    0.4440   -2.5060 C   0  0  0  0  0  0  0  0  0  0  0  0
   -0.3370    0.1260   -1.1110 C   0  0  2  0  0  0  0  0  0  0  0  0
    0.6700    0.3810   -0.0560 C   0  0  0  0  0  0  0  0  0  0  0  0
    1.7850   -0.5700    0.1400 C   0  0  2  0  0  0  0  0  0  0  0  0
    3.0790    0.1170    0.5790 C   0  0  2  0  0  0  0  0  0  0  0  0
    3.5010    1.1180   -0.5090 C   0  0  0  0  0  0  0  0  0  0  0  0
    4.1970   -0.8020    0.8150 C   0  0  0  0  0  0  0  0  0  0  0  0
    5.4940   -0.3050    1.2980 C   0  0  1  0  0  0  0  0  0  0  0  0
    6.2920    0.6810    0.5500 C   0  0  0  0  0  0  0  0  0  0  0  0
    7.3740    0.9540    1.6630 C   0  0  0  0  0  0  0  0  0  0  0  0
    6.6740    0.9380    2.8410 O   0  0  0  0  0  0  0  0  0  0  0  0
    5.4980    0.2480    2.7190 C   0  0  0  0  0  0  0  0  0  0  0  0
    2.0530   -1.5010   -1.0130 C   0  0  0  0  0  0  0  0  0  0  0  0
    0.8070   -2.1030   -1.5770 C   0  0  0  0  0  0  0  0  0  0  0  0
   -0.4470   -1.4360   -1.1810 C   0  0  1  0  0  0  0  0  0  0  0  0
   -0.8710   -1.8690    0.0590 O   0  0  0  0  0  0  0  0  0  0  0  0
   -1.4870   -2.9970    0.4760 C   0  0  0  0  0  0  0  0  0  0  0  0
   -0.9180   -3.6980    1.3900 O   0  0  0  0  0  0  0  0  0  0  0  0
   -2.7740   -3.5430   -0.0010 C   0  0  1  0  0  0  0  0  0  0  0  0
   -3.0370   -3.3120   -1.4690 C   0  0  0  0  0  0  0  0  0  0  0  0
   -2.7280   -4.9430    0.1500 O   0  0  0  0  0  0  0  0  0  0  0  0
   -3.9350   -3.0460    0.8390 C   0  0  0  0  0  0  0  0  0  0  0  0
   -3.4590   -2.1790    1.9880 C   0  0  0  0  0  0  0  0  0  0  0  0
   -4.3200   -1.1400    2.3210 O   0  0  0  0  0  0  0  0  0  0  0  0
   -4.2830    0.1770    1.9770 C   0  0  0  0  0  0  0  0  0  0  0  0
   -4.3100    1.0230    2.9370 O   0  0  0  0  0  0  0  0  0  0  0  0
   -4.2180    0.6150    0.5680 C   0  0  0  0  0  0  0  0  0  0  0  0
   -3.4720    1.8320    0.3020 C   0  0  1  0  0  0  0  0  0  0  0  0
   -4.0810    2.4690   -0.8220 O   0  0  0  0  0  0  0  0  0  0  0  0
   -3.6510    2.8270    1.4260 C   0  0  0  0  0  0  0  0  0  0  0  0
   -3.3080    4.1660    0.8190 C   0  0  0  0  0  0  0  0  0  0  0  0
   -2.4090    4.1920   -0.1250 C   0  0  0  0  0  0  0  0  0  0  0  0
   -1.6690    3.0450   -0.6830 C   0  0  0  0  0  0  0  0  0  0  0  0
   -1.9980    1.7690   -0.0100 C   0  0  2  0  0  0  0  0  0  0  0  0
   -1.7220    0.5210   -0.7400 C   0  0  1  0  0  0  0  0  0  0  0  0
   -2.5310    0.4310   -1.8670 O   0  0  0  0  0  0  0  0  0  0  0  0
  1  2  1  0
  3  2  1  6
  3  4  1  0
  3 16  1  0
  3 36  1  0
  5  4  1  6
  5  6  1  0
  5 14  1  0
  6  7  1  6
  6  8  1  0
  9  8  1  6
  9 10  1  0
  9 13  1  0
 10 11  1  0
 11 12  1  0
 12 13  1  0
 14 15  1  0
 16 15  1  1
 16 17  1  0
 17 18  1  0
 18 19  2  0
 18 20  1  0
 20 21  1  6
 20 22  1  0
 20 23  1  0
 23 24  1  0
 24 25  1  0
 25 26  1  0
 26 27  2  0
 26 28  1  0
 28 29  1  0
 29 30  1  6
 29 31  1  0
 29 35  1  0
 31 32  1  0
 32 33  2  0
 33 34  1  0
 35 34  1  6
 35 36  1  0
 36 37  1  6
M  END
