
     RDKit          3D

 37 42  0  0  0  0  0  0  0  0999 V2000
   -5.1120    4.9110    0.5870 O   0  0  0  0  0  0  0  0  0  0  0  0
   -4.2100    4.3100   -0.0550 C   0  0  0  0  0  0  0  0  0  0  0  0
   -3.9200    4.5830   -1.4870 C   0  0  0  0  0  0  0  0  0  0  0  0
   -2.8870    3.5280   -1.8630 C   0  0  0  0  0  0  0  0  0  0  0  0
   -3.0780    2.5150   -0.7720 C   0  0  1  0  0  0  0  0  0  0  0  0
   -4.3230    1.7280   -1.0790 C   0  0  0  0  0  0  0  0  0  0  0  0
   -4.3490    0.4480   -0.3120 C   0  0  0  0  0  0  0  0  0  0  0  0
   -3.2180   -0.4350   -0.8530 C   0  0  2  0  0  0  0  0  0  0  0  0
   -3.2640   -1.7060   -0.1170 C   0  0  0  0  0  0  0  0  0  0  0  0
   -3.4760   -2.8840   -0.7990 C   0  0  0  0  0  0  0  0  0  0  0  0
   -3.5250   -4.1100   -0.1280 C   0  0  0  0  0  0  0  0  0  0  0  0
   -3.7390   -5.3030   -0.8180 O   0  0  0  0  0  0  0  0  0  0  0  0
   -3.3610   -4.1550    1.2400 C   0  0  0  0  0  0  0  0  0  0  0  0
   -3.1520   -2.9710    1.9030 C   0  0  0  0  0  0  0  0  0  0  0  0
   -2.9830   -2.9740    3.2740 O   0  0  0  0  0  0  0  0  0  0  0  0
   -3.1020   -1.7600    1.2480 C   0  0  0  0  0  0  0  0  0  0  0  0
   -1.9550    0.3260   -0.6240 C   0  0  0  0  0  0  0  0  0  0  0  0
   -1.8870    1.6450   -0.5870 C   0  0  0  0  0  0  0  0  0  0  0  0
   -0.5820    2.3270   -0.3520 C   0  0  1  0  0  0  0  0  0  0  0  0
   -0.7870    3.6490    0.1000 O   0  0  0  0  0  0  0  0  0  0  0  0
    0.2600    1.6400    0.6700 C   0  0  1  0  0  0  0  0  0  0  0  0
    0.0780    2.2580    1.9290 O   0  0  0  0  0  0  0  0  0  0  0  0
    0.0080    0.1680    0.7720 C   0  0  2  0  0  0  0  0  0  0  0  0
    1.3010   -0.6040    1.0340 C   0  0  0  0  0  0  0  0  0  0  0  0
    1.8170   -1.1740   -0.2450 C   0  0  2  0  0  0  0  0  0  0  0  0
    3.3170   -1.3910   -0.2260 C   0  0  2  0  0  0  0  0  0  0  0  0
    3.6270   -2.3440    0.8820 C   0  0  0  0  0  0  0  0  0  0  0  0
    5.1040   -2.5550    1.1000 C   0  0  0  0  0  0  0  0  0  0  0  0
    5.9390   -1.5750    0.2680 C   0  0  0  0  0  0  0  0  0  0  0  0
    5.3730   -0.2040    0.5910 C   0  0  1  0  0  0  0  0  0  0  0  0
    6.3750    0.8270    0.1380 C   0  0  0  0  0  0  0  0  0  0  0  0
    5.9490    2.1230    0.3910 O   0  0  0  0  0  0  0  0  0  0  0  0
    4.0620   -0.0930   -0.1500 C   0  0  0  0  0  0  0  0  0  0  0  0
    1.4050   -0.4050   -1.4620 C   0  0  0  0  0  0  0  0  0  0  0  0
    0.0450   -0.3220   -1.5870 O   0  0  0  0  0  0  0  0  0  0  0  0
   -0.6690   -0.4250   -0.4210 C   0  0  2  0  0  0  0  0  0  0  0  0
   -3.3270    3.3240    0.3610 O   0  0  0  0  0  0  0  0  0  0  0  0
  1  2  2  0
  2  3  1  0
  2 37  1  0
  3  4  1  0
  5  4  1  6
  5  6  1  0
  5 18  1  0
  5 37  1  0
  6  7  1  0
  7  8  1  0
  8  9  1  1
  8 17  1  0
  9 10  2  0
  9 16  1  0
 10 11  1  0
 11 12  1  0
 11 13  2  0
 13 14  1  0
 14 15  1  0
 14 16  2  0
 17 18  2  0
 17 36  1  0
 18 19  1  0
 19 20  1  1
 19 21  1  0
 21 22  1  1
 21 23  1  0
 23 24  1  6
 23 36  1  0
 25 24  1  1
 25 26  1  0
 25 34  1  0
 26 27  1  1
 26 33  1  0
 27 28  1  0
 28 29  1  0
 29 30  1  0
 30 31  1  6
 30 33  1  0
 31 32  1  0
 34 35  1  0
 36 35  1  6
M  END
