
     RDKit          3D

 37 40  0  0  0  0  0  0  0  0999 V2000
   -0.2730    5.8180   -0.3240 C   0  0  0  0  0  0  0  0  0  0  0  0
   -0.2440    5.0400    0.9230 C   0  0  0  0  0  0  0  0  0  0  0  0
   -0.0650    3.5760    0.8420 C   0  0  2  0  0  0  0  0  0  0  0  0
    1.2280    3.1350    0.1790 C   0  0  0  0  0  0  0  0  0  0  0  0
    2.3460    2.8120    1.1200 C   0  0  2  0  0  0  0  0  0  0  0  0
    3.1960    3.8560    1.3850 O   0  0  0  0  0  0  0  0  0  0  0  0
    3.2220    1.5980    0.6870 C   0  0  0  0  0  0  0  0  0  0  0  0
    2.3560    0.4350    0.4450 C   0  0  0  0  0  0  0  0  0  0  0  0
    2.7940   -0.9670    0.4700 C   0  0  2  0  0  0  0  0  0  0  0  0
    4.0410   -1.1750   -0.3600 C   0  0  0  0  0  0  0  0  0  0  0  0
    5.1000   -1.6100    0.1630 O   0  0  0  0  0  0  0  0  0  0  0  0
    4.0530   -0.8950   -1.7080 O   0  0  0  0  0  0  0  0  0  0  0  0
    5.1700   -1.0660   -2.5440 C   0  0  0  0  0  0  0  0  0  0  0  0
    5.5840   -2.4940   -2.5860 C   0  0  0  0  0  0  0  0  0  0  0  0
    4.5080   -3.2400   -3.0780 O   0  0  0  0  0  0  0  0  0  0  0  0
    1.7120   -1.9260   -0.0180 C   0  0  0  0  0  0  0  0  0  0  0  0
    0.5500   -2.1510    0.9250 C   0  0  1  0  0  0  0  0  0  0  0  0
    1.1660   -2.4090    2.2890 C   0  0  0  0  0  0  0  0  0  0  0  0
   -0.3370   -0.9930    0.8840 C   0  0  0  0  0  0  0  0  0  0  0  0
   -1.8110   -1.0430    0.5330 C   0  0  1  0  0  0  0  0  0  0  0  0
   -2.0550   -1.7440   -0.7200 C   0  0  0  0  0  0  0  0  0  0  0  0
   -2.9310   -2.7370   -0.8950 C   0  0  0  0  0  0  0  0  0  0  0  0
   -3.0970   -3.3500   -2.1280 O   0  0  0  0  0  0  0  0  0  0  0  0
   -3.6050   -4.6700   -2.1350 C   0  0  0  0  0  0  0  0  0  0  0  0
   -4.8410   -4.7910   -1.2640 C   0  0  0  0  0  0  0  0  0  0  0  0
   -4.6390   -4.2350    0.0020 O   0  0  0  0  0  0  0  0  0  0  0  0
   -3.7380   -3.1940    0.2290 C   0  0  0  0  0  0  0  0  0  0  0  0
   -3.5770   -2.6150    1.3670 C   0  0  0  0  0  0  0  0  0  0  0  0
   -2.6610   -1.5350    1.6500 C   0  0  1  0  0  0  0  0  0  0  0  0
   -1.8460   -2.0150    2.7230 O   0  0  0  0  0  0  0  0  0  0  0  0
   -2.1330    0.4720    0.3750 C   0  0  1  0  0  0  0  0  0  0  0  0
   -0.9290    1.3320    0.3110 C   0  0  0  0  0  0  0  0  0  0  0  0
   -1.3060    2.8120    0.4460 C   0  0  2  0  0  0  0  0  0  0  0  0
   -1.9900    3.1650   -0.7980 C   0  0  0  0  0  0  0  0  0  0  0  0
   -2.4370    1.9940   -1.5980 C   0  0  0  0  0  0  0  0  0  0  0  0
   -2.9200    0.7880   -0.8540 C   0  0  2  0  0  0  0  0  0  0  0  0
   -4.2720    1.0360   -0.5170 O   0  0  0  0  0  0  0  0  0  0  0  0
  1  2  1  0
  3  2  1  6
  3  4  1  0
  3 33  1  0
  4  5  1  0
  5  6  1  6
  5  7  1  0
  7  8  1  0
  8  9  1  0
  9 10  1  6
  9 16  1  0
 10 11  2  0
 10 12  1  0
 12 13  1  0
 13 14  1  0
 14 15  1  0
 16 17  1  0
 17 18  1  1
 17 19  1  0
 20 19  1  1
 20 21  1  0
 20 29  1  0
 20 31  1  0
 21 22  2  0
 22 23  1  0
 22 27  1  0
 23 24  1  0
 24 25  1  0
 25 26  1  0
 26 27  1  0
 27 28  2  0
 28 29  1  0
 29 30  1  1
 31 32  1  6
 31 36  1  0
 32 33  1  0
 33 34  1  6
 34 35  1  0
 35 36  1  0
 36 37  1  1
M  END
