
     RDKit          3D

 37 41  0  0  0  0  0  0  0  0999 V2000
    3.6980    0.6900    2.6810 C   0  0  0  0  0  0  0  0  0  0  0  0
    3.4550    0.1040    1.3910 O   0  0  0  0  0  0  0  0  0  0  0  0
    3.0210   -1.1870    1.2480 C   0  0  0  0  0  0  0  0  0  0  0  0
    2.8510   -1.8230    2.3410 O   0  0  0  0  0  0  0  0  0  0  0  0
    2.7530   -1.8630   -0.0120 C   0  0  2  0  0  0  0  0  0  0  0  0
    2.4880   -3.2430    0.3520 O   0  0  0  0  0  0  0  0  0  0  0  0
    3.9290   -1.9610   -0.9160 C   0  0  0  0  0  0  0  0  0  0  0  0
    3.6160   -3.0120   -1.9660 C   0  0  0  0  0  0  0  0  0  0  0  0
    2.4640   -2.7020   -2.5840 O   0  0  0  0  0  0  0  0  0  0  0  0
    1.3650   -2.4400   -1.8580 C   0  0  0  0  0  0  0  0  0  0  0  0
    1.4450   -1.4660   -0.6950 C   0  0  2  0  0  0  0  0  0  0  0  0
    1.2570   -0.0690   -1.0350 C   0  0  1  0  0  0  0  0  0  0  0  0
    2.0600    0.3280   -2.2350 C   0  0  0  0  0  0  0  0  0  0  0  0
    1.1090    0.9970   -3.1620 C   0  0  0  0  0  0  0  0  0  0  0  0
   -0.1820    1.0360   -2.4580 C   0  0  0  0  0  0  0  0  0  0  0  0
    0.0140    0.7110   -0.9870 C   0  0  2  0  0  0  0  0  0  0  0  0
    0.3260    2.1280   -0.4250 C   0  0  2  0  0  0  0  0  0  0  0  0
    1.6610    2.6880   -0.5670 C   0  0  0  0  0  0  0  0  0  0  0  0
    1.5640    4.0310    0.2550 C   0  0  0  0  0  0  0  0  0  0  0  0
    1.2770    3.7560    1.6880 C   0  0  2  0  0  0  0  0  0  0  0  0
    2.3290    4.2740    2.6340 C   0  0  0  0  0  0  0  0  0  0  0  0
    1.0190    2.3950    1.8530 O   0  0  0  0  0  0  0  0  0  0  0  0
   -0.0530    2.1210    1.0000 C   0  0  2  0  0  0  0  0  0  0  0  0
   -0.6390    0.7550    1.2310 C   0  0  0  0  0  0  0  0  0  0  0  0
   -1.1480    0.4300   -0.1940 C   0  0  1  0  0  0  0  0  0  0  0  0
   -1.9020    1.7000   -0.3350 O   0  0  0  0  0  0  0  0  0  0  0  0
   -2.2530   -0.5030   -0.2480 C   0  0  2  0  0  0  0  0  0  0  0  0
   -3.1400   -0.3660    1.0160 C   0  0  2  0  0  0  0  0  0  0  0  0
   -3.6440    0.9210    1.1640 O   0  0  0  0  0  0  0  0  0  0  0  0
   -2.7810   -1.1320    2.1900 C   0  0  0  0  0  0  0  0  0  0  0  0
   -3.7690   -0.8320    3.3470 C   0  0  0  0  0  0  0  0  0  0  0  0
   -3.4340   -1.5550    4.4640 O   0  0  0  0  0  0  0  0  0  0  0  0
   -2.0680   -1.9800   -0.3770 C   0  0  0  0  0  0  0  0  0  0  0  0
   -3.2960   -2.7800   -0.6630 C   0  0  0  0  0  0  0  0  0  0  0  0
   -3.9070   -2.5030   -2.0110 C   0  0  0  0  0  0  0  0  0  0  0  0
   -3.2190   -1.2260   -2.4900 C   0  0  0  0  0  0  0  0  0  0  0  0
   -3.2790   -0.2410   -1.3500 C   0  0  0  0  0  0  0  0  0  0  0  0
  1  2  1  0
  2  3  1  0
  3  4  2  0
  3  5  1  0
  5  6  1  1
  5  7  1  0
  5 11  1  0
  7  8  1  0
  8  9  1  0
  9 10  1  0
 11 10  1  6
 11 12  1  0
 12 13  1  6
 12 16  1  0
 13 14  1  0
 14 15  1  0
 16 15  1  6
 16 17  1  0
 16 25  1  0
 17 18  1  1
 17 23  1  0
 18 19  1  0
 19 20  1  0
 20 21  1  1
 20 22  1  0
 22 23  1  0
 23 24  1  1
 24 25  1  0
 25 26  1  6
 25 27  1  0
 27 28  1  0
 27 33  1  6
 27 37  1  0
 28 29  1  1
 28 30  1  0
 30 31  1  0
 31 32  1  0
 33 34  1  0
 34 35  1  0
 35 36  1  0
 36 37  1  0
M  END
