
     RDKit          3D

 10  9  0  0  0  0  0  0  0  0999 V2000
    3.7280    0.6420    0.1830 O   0  0  0  0  0  0  0  0  0  0  0  0
    2.7820   -0.2920   -0.2480 C   0  0  0  0  0  0  0  0  0  0  0  0
    1.3950    0.2190    0.1560 C   0  0  0  0  0  0  0  0  0  0  0  0
    0.4080   -0.6330   -0.2260 O   0  0  0  0  0  0  0  0  0  0  0  0
   -0.8470   -0.2810    0.1330 C   0  0  2  0  0  0  0  0  0  0  0  0
   -0.9210   -0.1870    1.5340 O   0  0  0  0  0  0  0  0  0  0  0  0
   -1.8680   -1.3820   -0.2190 C   0  0  0  0  0  0  0  0  0  0  0  0
   -3.1380   -0.9610    0.1740 O   0  0  0  0  0  0  0  0  0  0  0  0
   -1.4180    0.9800   -0.4320 C   0  0  0  0  0  0  0  0  0  0  0  0
   -0.7110    2.0840   -0.0970 F   0  0  0  0  0  0  0  0  0  0  0  0
  1  2  1  0
  2  3  1  0
  3  4  1  0
  4  5  1  0
  5  6  1  1
  5  7  1  0
  5  9  1  0
  7  8  1  0
  9 10  1  0
M  END
