
     RDKit          3D

 10  9  0  0  0  0  0  0  0  0999 V2000
    3.0280   -0.3690    1.5230 O   0  0  0  0  0  0  0  0  0  0  0  0
    2.6640    0.3680    0.4050 C   0  0  0  0  0  0  0  0  0  0  0  0
    1.2510   -0.0070    0.0010 C   0  0  1  0  0  0  0  0  0  0  0  0
    1.3170   -1.3950   -0.2760 O   0  0  0  0  0  0  0  0  0  0  0  0
    0.3410    0.1840    0.9960 O   0  0  0  0  0  0  0  0  0  0  0  0
   -0.7690    0.9180    0.7390 C   0  0  0  0  0  0  0  0  0  0  0  0
   -1.7150    0.4040   -0.2880 C   0  0  1  0  0  0  0  0  0  0  0  0
   -1.1580    0.2440   -1.5460 O   0  0  0  0  0  0  0  0  0  0  0  0
   -2.4280   -0.8670    0.1460 C   0  0  0  0  0  0  0  0  0  0  0  0
   -1.5880   -1.9040    0.4130 F   0  0  0  0  0  0  0  0  0  0  0  0
  1  2  1  0
  2  3  1  0
  3  4  1  1
  3  5  1  0
  5  6  1  0
  6  7  1  0
  7  8  1  6
  7  9  1  0
  9 10  1  0
M  END
