
     RDKit          3D

 10  9  0  0  0  0  0  0  0  0999 V2000
   -1.2710   -1.0360   -0.8040 C   0  0  0  0  0  0  0  0  0  0  0  0
   -0.7430    0.3320   -0.5300 C   0  0  1  0  0  0  0  0  0  0  0  0
   -1.1220    1.2000   -1.5810 O   0  0  0  0  0  0  0  0  0  0  0  0
   -1.4510    0.8720    0.7200 C   0  0  0  0  0  0  0  0  0  0  0  0
   -2.8310    0.8620    0.5350 O   0  0  0  0  0  0  0  0  0  0  0  0
    0.6150    0.4230   -0.4100 O   0  0  0  0  0  0  0  0  0  0  0  0
    1.1790   -0.3510    0.5640 C   0  0  0  0  0  0  0  0  0  0  0  0
    2.6920   -0.0990    0.5260 C   0  0  1  0  0  0  0  0  0  0  0  0
    3.1810   -0.4510   -0.7260 O   0  0  0  0  0  0  0  0  0  0  0  0
    2.9690    1.2230    0.8170 F   0  0  0  0  0  0  0  0  0  0  0  0
  2  1  1  6
  2  3  1  0
  2  4  1  0
  2  6  1  0
  4  5  1  0
  6  7  1  0
  7  8  1  0
  8  9  1  6
  8 10  1  0
M  END
