
     RDKit          3D

 23 25  0  0  0  0  0  0  0  0999 V2000
   -6.2710   -1.6030   -0.7580 C   0  0  0  0  0  0  0  0  0  0  0  0
   -5.1410   -1.5750   -0.0890 C   0  0  0  0  0  0  0  0  0  0  0  0
   -4.5840   -2.5780    0.7870 C   0  0  0  0  0  0  0  0  0  0  0  0
   -3.4820   -2.2230    1.2630 N   0  0  0  0  0  0  0  0  0  0  0  0
   -3.0930   -0.8860    0.7790 C   0  0  0  0  0  0  0  0  0  0  0  0
   -2.0510   -0.3140    1.1030 N   0  0  0  0  0  0  0  0  0  0  0  0
   -1.3240    0.7460    0.9720 N   0  0  0  0  0  0  0  0  0  0  0  0
   -0.0780    0.8810    0.6990 C   0  0  0  0  0  0  0  0  0  0  0  0
    0.6060    2.0290    0.5810 N   0  0  0  0  0  0  0  0  0  0  0  0
    1.8870    1.7680    0.2870 C   0  0  0  0  0  0  0  0  0  0  0  0
    3.0160    2.5330    0.0570 C   0  0  0  0  0  0  0  0  0  0  0  0
    4.1900    1.9440   -0.2230 N   0  0  0  0  0  0  0  0  0  0  0  0
    4.3380    0.6390   -0.2960 N   0  0  0  0  0  0  0  0  0  0  0  0
    5.6010   -0.0000   -0.5970 C   0  0  0  0  0  0  0  0  0  0  0  0
    6.3970   -0.2890    0.6590 C   0  0  0  0  0  0  0  0  0  0  0  0
    3.2460   -0.1410   -0.0750 C   0  0  0  0  0  0  0  0  0  0  0  0
    3.3610   -1.3980   -0.1380 O   0  0  0  0  0  0  0  0  0  0  0  0
    2.0070    0.3790    0.2180 C   0  0  0  0  0  0  0  0  0  0  0  0
    0.7840   -0.1340    0.4770 N   0  0  0  0  0  0  0  0  0  0  0  0
    0.4300   -1.5500    0.5140 C   0  0  0  0  0  0  0  0  0  0  0  0
   -4.1580   -0.4400   -0.1050 C   0  0  0  0  0  0  0  0  0  0  0  0
   -4.3390    0.6530   -0.8020 C   0  0  0  0  0  0  0  0  0  0  0  0
   -3.4490    1.8040   -0.8830 C   0  0  0  0  0  0  0  0  0  0  0  0
  1  2  2  0
  2  3  1  0
  2 21  1  0
  3  4  2  0
  4  5  1  0
  5  6  2  3
  5 21  1  0
  6  7  1  0
  7  8  2  3
  8  9  1  0
  8 19  1  0
  9 10  1  0
 10 11  1  0
 10 18  2  0
 11 12  2  0
 12 13  1  0
 13 14  1  0
 13 16  1  0
 14 15  1  0
 16 17  2  0
 16 18  1  0
 18 19  1  0
 19 20  1  0
 21 22  2  3
 22 23  1  0
M  END
