
     RDKit          3D

 10  9  0  0  0  0  0  0  0  0999 V2000
    2.8490   -0.6580    0.2570 C   0  0  0  0  0  0  0  0  0  0  0  0
    1.4820   -1.0060    0.3470 O   0  0  0  0  0  0  0  0  0  0  0  0
    0.7830    0.1930    0.1520 C   0  0  0  0  0  0  0  0  0  0  0  0
   -0.7180   -0.0420    0.2240 C   0  0  1  0  0  0  0  0  0  0  0  0
   -1.0400   -0.5520    1.4650 O   0  0  0  0  0  0  0  0  0  0  0  0
   -1.3830    1.2990   -0.0320 C   0  0  0  0  0  0  0  0  0  0  0  0
   -0.9690    1.6960   -1.3230 O   0  0  0  0  0  0  0  0  0  0  0  0
   -1.1480   -1.0540   -0.8230 C   0  0  2  0  0  0  0  0  0  0  0  0
   -2.5260   -1.2300   -0.6920 O   0  0  0  0  0  0  0  0  0  0  0  0
   -0.4940   -2.2390   -0.5780 F   0  0  0  0  0  0  0  0  0  0  0  0
  1  2  1  0
  2  3  1  0
  3  4  1  0
  4  5  1  1
  4  6  1  0
  4  8  1  0
  6  7  1  0
  8  9  1  1
  8 10  1  0
M  END
