
     RDKit          3D

 28 31  0  0  0  0  0  0  0  0999 V2000
    7.7180   -0.4600    0.2480 C   0  0  0  0  0  0  0  0  0  0  0  0
    7.7460    0.7930   -0.1890 C   0  0  0  0  0  0  0  0  0  0  0  0
    6.7400    1.3000   -1.1580 C   0  0  0  0  0  0  0  0  0  0  0  0
    5.7940    0.2560   -1.5140 N   0  0  0  0  0  0  0  0  0  0  0  0
    5.8190   -0.6710   -2.5320 N   0  0  0  0  0  0  0  0  0  0  0  0
    4.8180   -1.4130   -2.5310 N   0  0  0  0  0  0  0  0  0  0  0  0
    3.9220   -1.0770   -1.4530 C   0  0  0  0  0  0  0  0  0  0  0  0
    2.7650   -1.6260   -1.1770 C   0  0  0  0  0  0  0  0  0  0  0  0
    1.8850   -1.2700   -0.0780 C   0  0  0  0  0  0  0  0  0  0  0  0
    2.3210   -1.1980    1.2300 C   0  0  0  0  0  0  0  0  0  0  0  0
    1.4820   -0.8270    2.2730 C   0  0  0  0  0  0  0  0  0  0  0  0
    0.1710   -0.5220    1.9740 C   0  0  0  0  0  0  0  0  0  0  0  0
   -0.7710   -0.1160    3.0740 C   0  0  0  0  0  0  0  0  0  0  0  0
   -0.3270   -0.5750    0.6910 C   0  0  0  0  0  0  0  0  0  0  0  0
   -1.6390   -0.2610    0.4540 O   0  0  0  0  0  0  0  0  0  0  0  0
   -2.2420   -0.2840   -0.8230 C   0  0  0  0  0  0  0  0  0  0  0  0
   -3.6700    0.1070   -0.7670 C   0  0  0  0  0  0  0  0  0  0  0  0
   -4.3450    0.3660   -1.9480 C   0  0  0  0  0  0  0  0  0  0  0  0
   -5.6690    0.7220   -1.9120 C   0  0  0  0  0  0  0  0  0  0  0  0
   -6.3440    0.8280   -0.7320 C   0  0  0  0  0  0  0  0  0  0  0  0
   -5.6630    0.5680    0.4330 C   0  0  0  0  0  0  0  0  0  0  0  0
   -4.3580    0.2180    0.3810 N   0  0  0  0  0  0  0  0  0  0  0  0
   -6.6270    0.7580    1.5080 C   0  0  0  0  0  0  0  0  0  0  0  0
   -7.8080    1.1070    1.0330 C   0  0  0  0  0  0  0  0  0  0  0  0
   -7.7590    1.1910   -0.4410 C   0  0  0  0  0  0  0  0  0  0  0  0
    0.5410   -0.9470   -0.3090 C   0  0  0  0  0  0  0  0  0  0  0  0
    4.5720    0.0310   -0.7800 C   0  0  0  0  0  0  0  0  0  0  0  0
    4.2150    0.6950    0.2160 O   0  0  0  0  0  0  0  0  0  0  0  0
  1  2  2  0
  2  3  1  0
  3  4  1  0
  4  5  1  0
  4 27  1  0
  5  6  2  0
  6  7  1  0
  7  8  2  3
  7 27  1  0
  8  9  1  0
  9 10  2  0
  9 26  1  0
 10 11  1  0
 11 12  2  0
 12 13  1  0
 12 14  1  0
 14 15  1  0
 14 26  2  0
 15 16  1  0
 16 17  1  0
 17 18  2  0
 17 22  1  0
 18 19  1  0
 19 20  2  0
 20 21  1  0
 20 25  1  0
 21 22  2  0
 21 23  1  0
 23 24  2  0
 24 25  1  0
 27 28  2  0
M  END
