
     RDKit          3D

 28 31  0  0  0  0  0  0  0  0999 V2000
   -3.4140    2.6890    0.6730 C   0  0  0  0  0  0  0  0  0  0  0  0
   -3.0700    1.4020    0.5160 C   0  0  0  0  0  0  0  0  0  0  0  0
   -3.8070    0.3050    1.0790 C   0  0  0  0  0  0  0  0  0  0  0  0
   -5.0370    0.7050    1.8630 C   0  0  0  0  0  0  0  0  0  0  0  0
   -3.5440   -0.9810    0.9660 C   0  0  0  0  0  0  0  0  0  0  0  0
   -4.4000   -2.0400    1.6210 C   0  0  0  0  0  0  0  0  0  0  0  0
   -5.4510   -2.2370    2.3860 C   0  0  0  0  0  0  0  0  0  0  0  0
   -5.6200   -3.7050    2.5590 C   0  0  0  0  0  0  0  0  0  0  0  0
   -4.5150   -4.2850    1.8090 C   0  0  0  0  0  0  0  0  0  0  0  0
   -3.8010   -3.2990    1.2590 C   0  0  0  0  0  0  0  0  0  0  0  0
   -2.6360   -3.0590    0.4260 C   0  0  0  0  0  0  0  0  0  0  0  0
   -1.8900   -3.9500   -0.0560 O   0  0  0  0  0  0  0  0  0  0  0  0
   -2.5020   -1.6120    0.2590 N   0  0  0  0  0  0  0  0  0  0  0  0
   -1.4250   -1.0860   -0.5440 C   0  0  0  0  0  0  0  0  0  0  0  0
   -0.2570   -0.7730    0.3240 C   0  0  0  0  0  0  0  0  0  0  0  0
    0.8610   -0.2210   -0.5290 C   0  0  0  0  0  0  0  0  0  0  0  0
    0.7070   -0.1000   -1.7600 O   0  0  0  0  0  0  0  0  0  0  0  0
    2.0910    0.1660    0.0540 N   0  0  0  0  0  0  0  0  0  0  0  0
    3.2200    0.6970   -0.6140 C   0  0  0  0  0  0  0  0  0  0  0  0
    4.3350    0.9850    0.1830 C   0  0  0  0  0  0  0  0  0  0  0  0
    5.4980    1.5060   -0.3210 C   0  0  0  0  0  0  0  0  0  0  0  0
    5.5780    1.7590   -1.6710 C   0  0  0  0  0  0  0  0  0  0  0  0
    4.4750    1.4740   -2.4620 C   0  0  0  0  0  0  0  0  0  0  0  0
    3.3160    0.9530   -1.9460 C   0  0  0  0  0  0  0  0  0  0  0  0
    4.8490    1.8230   -3.7200 N   0  0  0  0  0  0  0  0  0  0  0  0
    6.1150    2.2960   -3.6930 C   0  0  0  0  0  0  0  0  0  0  0  0
    6.5810    2.2600   -2.4190 N   0  0  0  0  0  0  0  0  0  0  0  0
    7.8880    2.6820   -1.9940 C   0  0  0  0  0  0  0  0  0  0  0  0
  1  2  2  0
  2  3  1  0
  3  4  1  0
  3  5  2  3
  5  6  1  0
  5 13  1  0
  6  7  2  0
  6 10  1  0
  7  8  1  0
  8  9  1  0
  9 10  2  0
 10 11  1  0
 11 12  2  0
 11 13  1  0
 13 14  1  0
 14 15  1  0
 15 16  1  0
 16 17  2  0
 16 18  1  0
 18 19  1  0
 19 20  2  0
 19 24  1  0
 20 21  1  0
 21 22  2  0
 22 23  1  0
 22 27  1  0
 23 24  2  0
 23 25  1  0
 25 26  2  0
 26 27  1  0
 27 28  1  0
M  END
