
     RDKit          3D

 25 28  0  0  0  0  0  0  0  0999 V2000
   -4.7060   -1.6030   -0.1010 C   0  0  0  0  0  0  0  0  0  0  0  0
   -4.9580   -0.1970   -0.4640 C   0  0  1  0  0  0  0  0  0  0  0  0
   -6.0750    0.3660    0.3400 N   0  0  0  0  0  0  0  0  0  0  0  0
   -3.8310    0.7310   -0.3330 C   0  0  0  0  0  0  0  0  0  0  0  0
   -3.9630    2.1340   -0.3330 C   0  0  0  0  0  0  0  0  0  0  0  0
   -5.2100    2.7880   -0.4380 N   0  0  0  0  0  0  0  0  0  0  0  0
   -2.7800    2.7180   -0.2270 N   0  0  0  0  0  0  0  0  0  0  0  0
   -1.8470    1.7570   -0.1560 C   0  0  0  0  0  0  0  0  0  0  0  0
   -0.4750    1.7870   -0.0500 C   0  0  0  0  0  0  0  0  0  0  0  0
    0.2580    0.6210   -0.0100 C   0  0  0  0  0  0  0  0  0  0  0  0
   -0.3470   -0.6110   -0.0720 C   0  0  0  0  0  0  0  0  0  0  0  0
   -1.7240   -0.6520   -0.1770 C   0  0  0  0  0  0  0  0  0  0  0  0
   -2.4780    0.5170   -0.2190 C   0  0  0  0  0  0  0  0  0  0  0  0
    0.3950   -1.8790   -0.0240 C   0  0  0  0  0  0  0  0  0  0  0  0
    1.8480   -1.8080    0.0270 C   0  0  0  0  0  0  0  0  0  0  0  0
    2.4820   -0.4650    0.0940 C   0  0  0  0  0  0  0  0  0  0  0  0
    3.9540   -0.3790    0.1680 C   0  0  0  0  0  0  0  0  0  0  0  0
    4.6620    0.7870    0.2160 C   0  0  0  0  0  0  0  0  0  0  0  0
    6.0640    0.7890    0.2830 C   0  0  0  0  0  0  0  0  0  0  0  0
    6.7840   -0.3770    0.3020 C   0  0  0  0  0  0  0  0  0  0  0  0
    8.2500   -0.3890    0.3720 C   0  0  0  0  0  0  0  0  0  0  0  0
    8.9530    0.6450    0.4120 O   0  0  0  0  0  0  0  0  0  0  0  0
    6.0750   -1.5610    0.2540 C   0  0  0  0  0  0  0  0  0  0  0  0
    4.6940   -1.5480    0.1890 C   0  0  0  0  0  0  0  0  0  0  0  0
    1.7100    0.5960    0.0730 C   0  0  0  0  0  0  0  0  0  0  0  0
  2  1  1  1
  2  3  1  0
  2  4  1  0
  4  5  2  0
  4 13  1  0
  5  6  1  0
  5  7  1  0
  7  8  1  0
  8  9  2  0
  8 13  1  0
  9 10  1  0
 10 11  2  0
 10 25  1  0
 11 12  1  0
 11 14  1  0
 12 13  2  0
 14 15  1  0
 15 16  1  0
 16 17  1  0
 16 25  2  0
 17 18  2  0
 17 24  1  0
 18 19  1  0
 19 20  2  0
 20 21  1  0
 20 23  1  0
 21 22  2  0
 23 24  2  0
M  CHG  1   3   1
M  END
