
     RDKit          3D

 30 32  0  0  0  0  0  0  0  0999 V2000
   -7.8290    1.6630    0.8400 C   0  0  0  0  0  0  0  0  0  0  0  0
   -6.5850    1.0370    0.9310 O   0  0  0  0  0  0  0  0  0  0  0  0
   -5.8250    0.6430   -0.1600 C   0  0  0  0  0  0  0  0  0  0  0  0
   -6.2210    0.8280   -1.4690 C   0  0  0  0  0  0  0  0  0  0  0  0
   -5.3960    0.4020   -2.5140 C   0  0  0  0  0  0  0  0  0  0  0  0
   -4.1790   -0.2080   -2.2630 C   0  0  0  0  0  0  0  0  0  0  0  0
   -3.7860   -0.3920   -0.9540 C   0  0  0  0  0  0  0  0  0  0  0  0
   -2.5590   -1.0070   -0.7410 O   0  0  0  0  0  0  0  0  0  0  0  0
   -1.3940   -0.2680   -0.6420 C   0  0  0  0  0  0  0  0  0  0  0  0
   -1.5300    0.9910   -0.7570 O   0  0  0  0  0  0  0  0  0  0  0  0
   -0.0880   -0.8690   -0.4200 C   0  0  0  0  0  0  0  0  0  0  0  0
    0.0610   -2.2180   -0.2960 C   0  0  0  0  0  0  0  0  0  0  0  0
    1.3310   -2.7370   -0.0850 C   0  0  0  0  0  0  0  0  0  0  0  0
    2.4300   -1.8890   -0.0020 C   0  0  0  0  0  0  0  0  0  0  0  0
    2.2910   -0.5120   -0.1270 C   0  0  0  0  0  0  0  0  0  0  0  0
    3.4340    0.3810   -0.0460 C   0  0  0  0  0  0  0  0  0  0  0  0
    4.5830   -0.1620    0.1440 O   0  0  0  0  0  0  0  0  0  0  0  0
    3.3660    1.7860   -0.1610 N   0  0  0  0  0  0  0  0  0  0  0  0
    4.5920    2.5480   -0.0600 C   0  0  0  0  0  0  0  0  0  0  0  0
    4.3620    4.0210   -0.2010 C   0  0  0  0  0  0  0  0  0  0  0  0
    5.6360    4.7020   -0.0870 N   0  0  0  0  0  0  0  0  0  0  0  0
    1.0220   -0.0190   -0.3360 C   0  0  0  0  0  0  0  0  0  0  0  0
    3.5760   -2.6860    0.2140 N   0  0  0  0  0  0  0  0  0  0  0  0
    3.2720   -4.0160   -0.3000 C   0  0  1  0  0  0  0  0  0  0  0  0
    4.1080   -5.0810    0.3720 C   0  0  0  0  0  0  0  0  0  0  0  0
    5.4410   -4.8180    0.1440 F   0  0  0  0  0  0  0  0  0  0  0  0
    1.8120   -4.1290    0.0870 C   0  0  0  0  0  0  0  0  0  0  0  0
   -4.6110    0.0340    0.0570 C   0  0  0  0  0  0  0  0  0  0  0  0
   -4.1940   -0.1620    1.3550 O   0  0  0  0  0  0  0  0  0  0  0  0
   -3.4300    0.8500    1.9840 C   0  0  0  0  0  0  0  0  0  0  0  0
  1  2  1  0
  2  3  1  0
  3  4  2  0
  3 28  1  0
  4  5  1  0
  5  6  2  0
  6  7  1  0
  7  8  1  0
  7 28  2  0
  8  9  1  0
  9 10  2  0
  9 11  1  0
 11 12  2  0
 11 22  1  0
 12 13  1  0
 13 14  2  0
 13 27  1  0
 14 15  1  0
 14 23  1  0
 15 16  1  0
 15 22  2  0
 16 17  2  0
 16 18  1  0
 18 19  1  0
 19 20  1  0
 20 21  1  0
 23 24  1  0
 24 25  1  1
 24 27  1  0
 25 26  1  0
 28 29  1  0
 29 30  1  0
M  CHG  1  21   1
M  END
