
     RDKit          3D

 30 31  0  0  0  0  0  0  0  0999 V2000
   -7.7140    0.0730   -0.6690 C   0  0  0  0  0  0  0  0  0  0  0  0
   -6.2370    0.2270   -1.0610 C   0  0  2  0  0  0  0  0  0  0  0  0
   -6.2660    0.6550   -2.5340 C   0  0  0  0  0  0  0  0  0  0  0  0
   -5.6820   -1.0210   -0.9950 O   0  0  0  0  0  0  0  0  0  0  0  0
   -4.6010   -1.1610   -0.1440 C   0  0  1  0  0  0  0  0  0  0  0  0
   -4.9530   -0.8040    1.2870 C   0  0  0  0  0  0  0  0  0  0  0  0
   -4.2460   -2.6380   -0.1520 C   0  0  0  0  0  0  0  0  0  0  0  0
   -3.4770   -0.3010   -0.6020 C   0  0  0  0  0  0  0  0  0  0  0  0
   -2.3020   -0.3950    0.2420 N   0  0  0  0  0  0  0  0  0  0  0  0
   -1.1050   -0.2050   -0.5480 C   0  0  0  0  0  0  0  0  0  0  0  0
   -0.0140    0.4530    0.2680 C   0  0  1  0  0  0  0  0  0  0  0  0
    0.3790   -0.3490    1.4660 C   0  0  0  0  0  0  0  0  0  0  0  0
    1.3730    0.4520    2.2650 C   0  0  0  0  0  0  0  0  0  0  0  0
    1.7570    1.7380    1.5630 C   0  0  0  0  0  0  0  0  0  0  0  0
    2.1970    1.4650    0.1300 C   0  0  1  0  0  0  0  0  0  0  0  0
    3.5180    0.8750    0.2210 N   0  0  0  0  0  0  0  0  0  0  0  0
    4.6900    1.4900   -0.2600 C   0  0  0  0  0  0  0  0  0  0  0  0
    4.5500    2.6180   -0.7950 O   0  0  0  0  0  0  0  0  0  0  0  0
    6.0330    0.9240   -0.1860 C   0  0  0  0  0  0  0  0  0  0  0  0
    6.3070   -0.2510    0.3520 C   0  0  0  0  0  0  0  0  0  0  0  0
    7.6460   -0.8210    0.4290 C   0  0  0  0  0  0  0  0  0  0  0  0
    7.8710   -2.0000    0.9760 C   0  0  0  0  0  0  0  0  0  0  0  0
    6.7980   -2.6820    1.4740 F   0  0  0  0  0  0  0  0  0  0  0  0
    8.7790   -0.0800   -0.1080 C   0  0  0  0  0  0  0  0  0  0  0  0
    9.9640   -0.5100   -0.0760 O   0  0  0  0  0  0  0  0  0  0  0  0
    8.4810    1.2140   -0.7000 C   0  0  0  0  0  0  0  0  0  0  0  0
    9.4290    1.9050   -1.1840 O   0  0  0  0  0  0  0  0  0  0  0  0
    7.1360    1.6510   -0.7110 N   0  0  0  0  0  0  0  0  0  0  0  0
    1.2080    0.6340   -0.6080 C   0  0  1  0  0  0  0  0  0  0  0  0
    1.6910   -0.5910   -1.0460 O   0  0  0  0  0  0  0  0  0  0  0  0
  2  1  1  6
  2  3  1  0
  2  4  1  0
  4  5  1  0
  5  6  1  1
  5  7  1  0
  5  8  1  0
  8  9  1  0
  9 10  1  0
 11 10  1  6
 11 12  1  0
 11 29  1  0
 12 13  1  0
 13 14  1  0
 14 15  1  0
 15 16  1  1
 15 29  1  0
 16 17  1  0
 17 18  2  0
 17 19  1  0
 19 20  2  0
 19 28  1  0
 20 21  1  0
 21 22  2  3
 21 24  1  0
 22 23  1  0
 24 25  2  0
 24 26  1  0
 26 27  2  0
 26 28  1  0
 29 30  1  1
M  CHG  1   9   1
M  END
