
     RDKit          3D

 29 32  0  0  0  0  0  0  0  0999 V2000
    6.6520    2.6460    0.0840 C   0  0  0  0  0  0  0  0  0  0  0  0
    5.5050    2.5490    1.0650 C   0  0  0  0  0  0  0  0  0  0  0  0
    4.8390    1.2690    0.8550 N   0  0  0  0  0  0  0  0  0  0  0  0
    5.1240    0.1180    1.4680 N   0  0  0  0  0  0  0  0  0  0  0  0
    4.3170   -0.8670    1.0430 C   0  0  0  0  0  0  0  0  0  0  0  0
    4.3050   -2.2930    1.4710 C   0  0  0  0  0  0  0  0  0  0  0  0
    3.4600   -0.3300    0.1050 C   0  0  0  0  0  0  0  0  0  0  0  0
    2.4260   -0.8460   -0.6700 C   0  0  0  0  0  0  0  0  0  0  0  0
    1.7120   -0.0700   -1.5520 C   0  0  0  0  0  0  0  0  0  0  0  0
    0.5790   -0.5350   -2.3810 C   0  0  0  0  0  0  0  0  0  0  0  0
    0.0120   -1.8520   -2.0130 C   0  0  0  0  0  0  0  0  0  0  0  0
   -0.6040   -1.8040   -0.6380 C   0  0  0  0  0  0  0  0  0  0  0  0
   -1.6970   -0.8090   -0.6110 N   0  0  0  0  0  0  0  0  0  0  0  0
   -1.8100   -0.3960    0.7880 C   0  0  0  0  0  0  0  0  0  0  0  0
   -2.0250    1.0980    0.8920 C   0  0  0  0  0  0  0  0  0  0  0  0
   -2.9220    1.6070   -0.2160 C   0  0  0  0  0  0  0  0  0  0  0  0
   -4.3390    1.7260    0.3010 C   0  0  0  0  0  0  0  0  0  0  0  0
   -4.9430    0.3490    0.2140 C   0  0  0  0  0  0  0  0  0  0  0  0
   -6.1670    0.2350    0.7130 C   0  0  0  0  0  0  0  0  0  0  0  0
   -6.6500   -1.1450    0.5730 C   0  0  0  0  0  0  0  0  0  0  0  0
   -5.5320   -1.8280   -0.0810 C   0  0  0  0  0  0  0  0  0  0  0  0
   -4.5540   -0.9650   -0.2850 C   0  0  0  0  0  0  0  0  0  0  0  0
   -3.1340   -1.6190   -1.0630 S   0  0  1  0  0  0  0  0  0  0  0  0
   -3.3670   -1.5750   -2.5510 O   0  0  0  0  0  0  0  0  0  0  0  0
   -3.0590   -3.0930   -0.7010 O   0  0  0  0  0  0  0  0  0  0  0  0
    2.0900    1.2420   -1.6170 N   0  0  0  0  0  0  0  0  0  0  0  0
    3.0850    1.7580   -0.8780 C   0  0  0  0  0  0  0  0  0  0  0  0
    3.4040    2.9920   -0.9720 O   0  0  0  0  0  0  0  0  0  0  0  0
    3.8140    0.9990    0.0140 C   0  0  0  0  0  0  0  0  0  0  0  0
  1  2  1  0
  2  3  1  0
  3  4  1  0
  3 29  1  0
  4  5  2  0
  5  6  1  0
  5  7  1  0
  7  8  1  0
  7 29  2  0
  8  9  2  0
  9 10  1  0
  9 26  1  0
 10 11  1  0
 11 12  1  0
 12 13  1  0
 13 14  1  0
 23 13  1  6
 14 15  1  0
 15 16  1  0
 16 17  1  0
 17 18  1  0
 18 19  2  0
 18 22  1  0
 19 20  1  0
 20 21  1  0
 21 22  2  0
 22 23  1  0
 23 24  2  0
 23 25  2  0
 26 27  1  0
 27 28  2  0
 27 29  1  0
M  END
