
     RDKit          3D

 29 30  0  0  0  0  0  0  0  0999 V2000
    8.4630    2.8370    1.9540 C   0  0  0  0  0  0  0  0  0  0  0  0
    7.0520    2.7910    1.8760 O   0  0  0  0  0  0  0  0  0  0  0  0
    6.4340    2.0200    0.8820 C   0  0  0  0  0  0  0  0  0  0  0  0
    7.1510    1.3780    0.0700 O   0  0  0  0  0  0  0  0  0  0  0  0
    4.9540    2.0130    0.8520 C   0  0  0  0  0  0  0  0  0  0  0  0
    4.4260    1.1440   -0.2670 C   0  0  1  0  0  0  0  0  0  0  0  0
    4.8570   -0.1920   -0.1160 O   0  0  0  0  0  0  0  0  0  0  0  0
    5.5290   -0.8230   -1.1520 C   0  0  0  0  0  0  0  0  0  0  0  0
    5.9980   -2.2400   -1.0170 C   0  0  0  0  0  0  0  0  0  0  0  0
    5.7350   -0.1810   -2.2010 O   0  0  0  0  0  0  0  0  0  0  0  0
    2.9210    1.1370   -0.1300 C   0  0  0  0  0  0  0  0  0  0  0  0
    2.3600    2.2370   -0.2360 O   0  0  0  0  0  0  0  0  0  0  0  0
    2.2160   -0.0500    0.1020 N   0  0  0  0  0  0  0  0  0  0  0  0
    0.8160   -0.1550    0.2490 C   0  0  0  0  0  0  0  0  0  0  0  0
   -0.0130    0.9030    0.4560 C   0  0  0  0  0  0  0  0  0  0  0  0
   -1.3990    0.7410    0.5760 C   0  0  0  0  0  0  0  0  0  0  0  0
   -2.1080    1.9660    0.7900 N   0  0  0  0  0  0  0  0  0  0  0  0
   -1.9710   -0.4810    0.4920 C   0  0  0  0  0  0  0  0  0  0  0  0
   -3.3870   -0.6700    0.6120 C   0  0  0  0  0  0  0  0  0  0  0  0
   -4.3530    0.1700    0.8060 C   0  0  0  0  0  0  0  0  0  0  0  0
   -5.7880   -0.2780    0.8980 C   0  0  1  0  0  0  0  0  0  0  0  0
   -6.8190    0.6460    1.3670 C   0  0  0  0  0  0  0  0  0  0  0  0
   -6.7590    0.2510   -0.0740 C   0  0  1  0  0  0  0  0  0  0  0  0
   -6.3650    1.3800   -1.0150 C   0  0  0  0  0  0  0  0  0  0  0  0
   -7.7650   -0.7180   -0.6450 C   0  0  0  0  0  0  0  0  0  0  0  0
   -1.1300   -1.5840    0.2790 C   0  0  0  0  0  0  0  0  0  0  0  0
   -1.7200   -2.9370    0.1820 C   0  0  0  0  0  0  0  0  0  0  0  0
   -0.7010   -3.9400   -0.0370 N   0  0  0  0  0  0  0  0  0  0  0  0
    0.2170   -1.4180    0.1630 C   0  0  0  0  0  0  0  0  0  0  0  0
  1  2  1  0
  2  3  1  0
  3  4  2  0
  3  5  1  0
  6  5  1  1
  6  7  1  0
  6 11  1  0
  7  8  1  0
  8  9  1  0
  8 10  2  0
 11 12  2  0
 11 13  1  0
 13 14  1  0
 14 15  2  0
 14 29  1  0
 15 16  1  0
 16 17  1  0
 16 18  2  0
 18 19  1  0
 18 26  1  0
 19 20  2  3
 21 20  1  6
 21 22  1  0
 21 23  1  0
 22 23  1  0
 23 24  1  6
 23 25  1  0
 26 27  1  0
 26 29  2  0
 27 28  1  0
M  CHG  1  28   1
M  END
