
     RDKit          3D

 30 31  0  0  0  0  0  0  0  0999 V2000
    2.0710   -0.8920   -0.5970 C   0  0  0  0  0  0  0  0  0  0  0  0
    1.9090    0.2220    0.3560 C   0  0  0  0  0  0  0  0  0  0  0  0
    2.9660    0.6350    1.1270 C   0  0  0  0  0  0  0  0  0  0  0  0
    4.2900    0.0480    1.0620 C   0  0  0  0  0  0  0  0  0  0  0  0
    4.4790   -0.9100    0.2750 O   0  0  0  0  0  0  0  0  0  0  0  0
    5.3320    0.5170    1.8330 O   0  0  0  0  0  0  0  0  0  0  0  0
    6.6290   -0.0310    1.7710 C   0  0  0  0  0  0  0  0  0  0  0  0
    7.2120    0.1420    0.3690 C   0  0  0  0  0  0  0  0  0  0  0  0
    7.2700    1.6310    0.0270 C   0  0  0  0  0  0  0  0  0  0  0  0
    7.8050    1.6990   -1.2540 F   0  0  0  0  0  0  0  0  0  0  0  0
    2.7430    1.6820    2.0010 C   0  0  0  0  0  0  0  0  0  0  0  0
    1.5250    2.2750    2.0850 N   0  0  0  0  0  0  0  0  0  0  0  0
    0.5130    1.8560    1.3240 C   0  0  0  0  0  0  0  0  0  0  0  0
   -0.6270    2.3910    1.3840 O   0  0  0  0  0  0  0  0  0  0  0  0
    0.6610    0.8180    0.4310 C   0  0  0  0  0  0  0  0  0  0  0  0
   -0.4130    0.3130   -0.4210 C   0  0  0  0  0  0  0  0  0  0  0  0
   -0.4560    0.5550   -1.7720 C   0  0  0  0  0  0  0  0  0  0  0  0
   -1.4930    0.0650   -2.5780 C   0  0  0  0  0  0  0  0  0  0  0  0
   -2.5310   -0.6860   -2.0710 C   0  0  0  0  0  0  0  0  0  0  0  0
   -3.5670   -1.2610   -2.8250 N   0  0  0  0  0  0  0  0  0  0  0  0
   -3.8050   -1.0010   -4.1700 C   0  0  0  0  0  0  0  0  0  0  0  0
   -3.1310   -0.2310   -4.8550 O   0  0  0  0  0  0  0  0  0  0  0  0
   -2.4810   -0.9230   -0.7050 C   0  0  0  0  0  0  0  0  0  0  0  0
   -3.5760   -1.6550   -0.0190 C   0  0  1  0  0  0  0  0  0  0  0  0
   -3.1140   -2.1170    1.3650 C   0  0  0  0  0  0  0  0  0  0  0  0
   -4.8120   -0.8080    0.1080 C   0  0  1  0  0  0  0  0  0  0  0  0
   -5.8570   -1.4610    0.7560 O   0  0  0  0  0  0  0  0  0  0  0  0
   -4.5640    0.4900    0.8550 C   0  0  0  0  0  0  0  0  0  0  0  0
   -5.7670    1.3260    0.8270 N   0  0  0  0  0  0  0  0  0  0  0  0
   -1.4390   -0.4310    0.0990 C   0  0  0  0  0  0  0  0  0  0  0  0
  1  2  1  0
  2  3  1  0
  2 15  2  0
  3  4  1  0
  3 11  2  0
  4  5  2  0
  4  6  1  0
  6  7  1  0
  7  8  1  0
  8  9  1  0
  9 10  1  0
 11 12  1  0
 12 13  1  0
 13 14  2  0
 13 15  1  0
 15 16  1  0
 16 17  2  0
 16 30  1  0
 17 18  1  0
 18 19  2  0
 19 20  1  0
 19 23  1  0
 20 21  1  0
 21 22  2  0
 23 24  1  0
 23 30  2  0
 24 25  1  1
 24 26  1  0
 26 27  1  1
 26 28  1  0
 28 29  1  0
M  CHG  1  29   1
M  END
