
     RDKit          3D

 30 32  0  0  0  0  0  0  0  0999 V2000
    5.7410   -1.3260    3.8010 C   0  0  0  0  0  0  0  0  0  0  0  0
    6.3970   -0.4730    2.8930 O   0  0  0  0  0  0  0  0  0  0  0  0
    5.8150   -0.0940    1.6970 C   0  0  0  0  0  0  0  0  0  0  0  0
    6.5240    0.7490    0.8530 C   0  0  0  0  0  0  0  0  0  0  0  0
    5.9410    1.1180   -0.3250 C   0  0  0  0  0  0  0  0  0  0  0  0
    6.6210    1.9560   -1.1860 O   0  0  0  0  0  0  0  0  0  0  0  0
    6.0070    2.3300   -2.4030 C   0  0  0  0  0  0  0  0  0  0  0  0
    6.8200    3.1620   -3.1300 F   0  0  0  0  0  0  0  0  0  0  0  0
    4.6630    0.6520   -0.6630 C   0  0  0  0  0  0  0  0  0  0  0  0
    3.9650   -0.1760    0.1610 C   0  0  0  0  0  0  0  0  0  0  0  0
    2.5950   -0.7090   -0.1590 C   0  0  1  0  0  0  0  0  0  0  0  0
    1.8010   -0.5020    0.9330 O   0  0  0  0  0  0  0  0  0  0  0  0
    2.1400   -0.1340   -1.4420 C   0  0  0  0  0  0  0  0  0  0  0  0
    0.8660   -0.5830   -1.9250 N   0  0  0  0  0  0  0  0  0  0  0  0
   -0.3710   -0.3210   -1.1920 C   0  0  0  0  0  0  0  0  0  0  0  0
   -0.2640    0.3170   -0.1610 O   0  0  0  0  0  0  0  0  0  0  0  0
   -1.5720   -0.8040   -1.7000 N   0  0  0  0  0  0  0  0  0  0  0  0
   -2.8890   -0.6590   -1.3450 C   0  0  0  0  0  0  0  0  0  0  0  0
   -3.5180    0.0240   -0.4670 C   0  0  0  0  0  0  0  0  0  0  0  0
   -2.8340    0.9270    0.4140 C   0  0  0  0  0  0  0  0  0  0  0  0
   -1.9830    1.6870   -0.1730 O   0  0  0  0  0  0  0  0  0  0  0  0
   -3.1440    0.9300    1.8450 C   0  0  0  0  0  0  0  0  0  0  0  0
   -4.6520    0.6670    2.0250 C   0  0  2  0  0  0  0  0  0  0  0  0
   -4.8290   -0.6740    2.6520 C   0  0  0  0  0  0  0  0  0  0  0  0
   -5.3700    0.8030    0.7630 N   0  0  0  0  0  0  0  0  0  0  0  0
   -4.9880   -0.1330   -0.2420 C   0  0  1  0  0  0  0  0  0  0  0  0
   -5.6740    0.1550   -1.5390 C   0  0  0  0  0  0  0  0  0  0  0  0
   -4.9040   -0.4350   -2.7100 C   0  0  0  0  0  0  0  0  0  0  0  0
   -3.9030   -1.4690   -2.2270 C   0  0  0  0  0  0  0  0  0  0  0  0
    4.5480   -0.5550    1.3590 C   0  0  0  0  0  0  0  0  0  0  0  0
  1  2  1  0
  2  3  1  0
  3  4  2  0
  3 30  1  0
  4  5  1  0
  5  6  1  0
  5  9  2  0
  6  7  1  0
  7  8  1  0
  9 10  1  0
 10 11  1  0
 10 30  2  0
 11 12  1  1
 11 13  1  0
 13 14  1  0
 14 15  1  0
 15 16  2  0
 15 17  1  0
 17 18  1  0
 18 19  2  0
 18 29  1  0
 19 20  1  0
 19 26  1  0
 20 21  2  0
 20 22  1  0
 22 23  1  0
 23 24  1  6
 23 25  1  0
 25 26  1  0
 26 27  1  6
 27 28  1  0
 28 29  1  0
M  CHG  1  25   1
M  END
