
     RDKit          3D

 40 44  0  0  0  0  0  0  0  0999 V2000
   -4.7380   -1.7700   -0.9150 O   0  0  0  0  0  0  0  0  0  0  0  0
   -5.0410   -1.3130    0.2070 C   0  0  0  0  0  0  0  0  0  0  0  0
   -4.3020   -1.8430    1.3930 C   0  0  0  0  0  0  0  0  0  0  0  0
   -2.8720   -1.5290    1.3390 C   0  0  0  0  0  0  0  0  0  0  0  0
   -1.8510   -2.1680    0.6710 C   0  0  0  0  0  0  0  0  0  0  0  0
   -0.6780   -1.4670    0.9480 C   0  0  0  0  0  0  0  0  0  0  0  0
    0.6490   -1.6150    0.5730 C   0  0  0  0  0  0  0  0  0  0  0  0
    1.5570   -0.7070    1.0500 C   0  0  0  0  0  0  0  0  0  0  0  0
    2.9170   -0.7640    0.7050 N   0  0  0  0  0  0  0  0  0  0  0  0
    3.5890    0.3980    0.4990 C   0  0  0  0  0  0  0  0  0  0  0  0
    4.9150    0.4520    0.1440 C   0  0  0  0  0  0  0  0  0  0  0  0
    5.5670    1.6350   -0.0560 F   0  0  0  0  0  0  0  0  0  0  0  0
    5.6230   -0.7260   -0.0170 C   0  0  0  0  0  0  0  0  0  0  0  0
    7.0380   -0.7050   -0.4060 C   0  0  0  0  0  0  0  0  0  0  0  0
    7.8630   -1.7690   -0.6030 C   0  0  0  0  0  0  0  0  0  0  0  0
    9.1020   -1.2430   -0.9600 C   0  0  0  0  0  0  0  0  0  0  0  0
    8.9500    0.1180   -0.9590 C   0  0  0  0  0  0  0  0  0  0  0  0
   10.0260    1.0780   -1.2870 C   0  0  0  0  0  0  0  0  0  0  0  0
   11.1770    0.6840   -1.5970 O   0  0  0  0  0  0  0  0  0  0  0  0
    9.7850    2.5410   -1.2580 C   0  0  0  0  0  0  0  0  0  0  0  0
    9.2150    3.1270   -2.8240 Cl  0  0  0  0  0  0  0  0  0  0  0  0
    7.7130    0.3780   -0.6250 O   0  0  0  0  0  0  0  0  0  0  0  0
    4.9190   -1.8910    0.1980 C   0  0  0  0  0  0  0  0  0  0  0  0
    3.5840   -1.9090    0.5540 C   0  0  0  0  0  0  0  0  0  0  0  0
    3.0070   -3.0440    0.7350 O   0  0  0  0  0  0  0  0  0  0  0  0
    1.1470    0.3270    1.8860 C   0  0  0  0  0  0  0  0  0  0  0  0
   -0.1650    0.4930    2.2710 C   0  0  0  0  0  0  0  0  0  0  0  0
   -1.0710   -0.4350    1.7780 C   0  0  0  0  0  0  0  0  0  0  0  0
   -2.3490   -0.4970    1.9860 O   0  0  0  0  0  0  0  0  0  0  0  0
   -6.0470   -0.3350    0.3070 N   0  0  0  0  0  0  0  0  0  0  0  0
   -6.8080    0.2290   -0.7350 C   0  0  0  0  0  0  0  0  0  0  0  0
   -6.7650   -0.1750   -2.0410 C   0  0  0  0  0  0  0  0  0  0  0  0
   -7.5770    0.4380   -3.0110 C   0  0  0  0  0  0  0  0  0  0  0  0
   -8.4420    1.4530   -2.7130 C   0  0  0  0  0  0  0  0  0  0  0  0
   -8.4850    1.8630   -1.3840 C   0  0  0  0  0  0  0  0  0  0  0  0
   -7.6960    1.2760   -0.4140 C   0  0  0  0  0  0  0  0  0  0  0  0
   -7.7270    1.6710    0.9010 O   0  0  0  0  0  0  0  0  0  0  0  0
   -8.5210    2.6810    1.4210 C   0  0  2  0  0  0  0  0  0  0  0  0
   -7.6460    3.6500    1.9320 F   0  0  0  0  0  0  0  0  0  0  0  0
   -9.3250    2.1950    2.4710 F   0  0  0  0  0  0  0  0  0  0  0  0
  1  2  2  0
  2  3  1  0
  2 30  1  0
  3  4  1  0
  4  5  2  0
  4 29  1  0
  5  6  1  0
  6  7  2  0
  6 28  1  0
  7  8  1  0
  8  9  1  0
  8 26  2  0
  9 10  1  0
  9 24  1  0
 10 11  2  0
 11 12  1  0
 11 13  1  0
 13 14  1  0
 13 23  2  0
 14 15  2  0
 14 22  1  0
 15 16  1  0
 16 17  2  0
 17 18  1  0
 17 22  1  0
 18 19  2  0
 18 20  1  0
 20 21  1  0
 23 24  1  0
 24 25  2  0
 26 27  1  0
 27 28  2  0
 28 29  1  0
 30 31  1  0
 31 32  2  0
 31 36  1  0
 32 33  1  0
 33 34  2  0
 34 35  1  0
 35 36  2  0
 36 37  1  0
 37 38  1  0
 38 39  1  1
 38 40  1  0
M  END
