
     RDKit          3D

 39 42  0  0  0  0  0  0  0  0999 V2000
   -0.6420   -0.5080   -3.7760 C   0  0  0  0  0  0  0  0  0  0  0  0
   -0.9100    0.0850   -2.5460 O   0  0  0  0  0  0  0  0  0  0  0  0
   -2.0960   -0.0700   -1.8460 C   0  0  0  0  0  0  0  0  0  0  0  0
   -3.0720   -0.8540   -2.4030 C   0  0  0  0  0  0  0  0  0  0  0  0
   -4.2720   -1.0180   -1.7090 C   0  0  0  0  0  0  0  0  0  0  0  0
   -4.4890   -0.4160   -0.4970 C   0  0  0  0  0  0  0  0  0  0  0  0
   -5.7080   -0.5330    0.2080 N   0  0  0  0  0  0  0  0  0  0  0  0
   -6.8700   -1.0690   -0.3260 C   0  0  0  0  0  0  0  0  0  0  0  0
   -6.9830   -1.5250   -1.4840 O   0  0  0  0  0  0  0  0  0  0  0  0
   -8.1170   -1.1350    0.5060 C   0  0  0  0  0  0  0  0  0  0  0  0
   -8.9920   -2.1240    0.3920 C   0  0  0  0  0  0  0  0  0  0  0  0
  -10.0990   -2.2060    1.1770 C   0  0  0  0  0  0  0  0  0  0  0  0
  -11.1680   -3.0830    1.3000 O   0  0  0  0  0  0  0  0  0  0  0  0
   -9.8990   -0.7010    2.2180 S   0  0  0  0  0  0  0  0  0  0  0  0
   -8.3290   -0.1420    1.4570 C   0  0  0  0  0  0  0  0  0  0  0  0
   -7.6670    1.0610    1.8540 C   0  0  0  0  0  0  0  0  0  0  0  0
   -3.4510    0.3760    0.0240 C   0  0  0  0  0  0  0  0  0  0  0  0
   -2.2630    0.5540   -0.6350 C   0  0  0  0  0  0  0  0  0  0  0  0
   -1.2310    1.3260   -0.1390 O   0  0  0  0  0  0  0  0  0  0  0  0
    0.0540    0.8750    0.0290 C   0  0  0  0  0  0  0  0  0  0  0  0
    0.3510   -0.2820   -0.2720 O   0  0  0  0  0  0  0  0  0  0  0  0
    1.1280    1.7740    0.5790 C   0  0  0  0  0  0  0  0  0  0  0  0
    0.8090    3.0550    1.0340 C   0  0  0  0  0  0  0  0  0  0  0  0
    2.3940    3.7040    1.5350 S   0  0  0  0  0  0  0  0  0  0  0  0
    3.3320    2.2870    1.1200 C   0  0  0  0  0  0  0  0  0  0  0  0
    4.7850    2.1570    1.2960 C   0  0  0  0  0  0  0  0  0  0  0  0
    5.3980    3.1080    1.7910 O   0  0  0  0  0  0  0  0  0  0  0  0
    5.4810    0.9980    0.9160 N   0  0  0  0  0  0  0  0  0  0  0  0
    6.8480    0.8170    1.0490 O   0  0  0  0  0  0  0  0  0  0  0  0
    7.5110   -0.1520    0.3080 C   0  0  0  0  0  0  0  0  0  0  0  0
    6.8240   -0.8540   -0.4790 O   0  0  0  0  0  0  0  0  0  0  0  0
    8.9500   -0.3930    0.4010 C   0  0  0  0  0  0  0  0  0  0  0  0
    9.6430   -1.2900   -0.2630 C   0  0  0  0  0  0  0  0  0  0  0  0
    9.1470   -2.2140   -1.2080 O   0  0  0  0  0  0  0  0  0  0  0  0
   11.0330   -1.1650    0.1510 C   0  0  0  0  0  0  0  0  0  0  0  0
   11.1880   -0.2110    1.0490 C   0  0  0  0  0  0  0  0  0  0  0  0
    9.8580    0.3380    1.2580 C   0  0  0  0  0  0  0  0  0  0  0  0
    9.5030    1.2850    2.0360 O   0  0  0  0  0  0  0  0  0  0  0  0
    2.4260    1.4250    0.6420 C   0  0  0  0  0  0  0  0  0  0  0  0
  1  2  1  0
  2  3  1  0
  3  4  2  0
  3 18  1  0
  4  5  1  0
  5  6  2  0
  6  7  1  0
  6 17  1  0
  7  8  1  0
  8  9  2  0
  8 10  1  0
 10 11  1  0
 10 15  2  0
 11 12  2  0
 12 13  1  0
 12 14  1  0
 14 15  1  0
 15 16  1  0
 17 18  2  0
 18 19  1  0
 19 20  1  0
 20 21  2  0
 20 22  1  0
 22 23  2  0
 22 39  1  0
 23 24  1  0
 24 25  1  0
 25 26  1  0
 25 39  2  0
 26 27  2  0
 26 28  1  0
 28 29  1  0
 29 30  1  0
 30 31  2  0
 30 32  1  0
 32 33  2  0
 32 37  1  0
 33 34  1  0
 33 35  1  0
 35 36  2  0
 36 37  1  0
 37 38  2  0
M  CHG  1  13  -1
M  END
