
     RDKit          3D

 40 44  0  0  0  0  0  0  0  0999 V2000
   -6.8880   -5.3810   -1.0450 C   0  0  0  0  0  0  0  0  0  0  0  0
   -5.6560   -4.5390   -0.7850 C   0  0  0  0  0  0  0  0  0  0  0  0
   -6.0400   -3.1980   -0.6710 O   0  0  0  0  0  0  0  0  0  0  0  0
   -5.1260   -2.2070   -0.4260 C   0  0  0  0  0  0  0  0  0  0  0  0
   -3.7960   -2.5220   -0.2840 C   0  0  0  0  0  0  0  0  0  0  0  0
   -2.9030   -1.4730   -0.0320 C   0  0  0  0  0  0  0  0  0  0  0  0
   -3.2910   -0.1820    0.0750 C   0  0  0  0  0  0  0  0  0  0  0  0
   -2.4640    0.8580    0.3160 O   0  0  0  0  0  0  0  0  0  0  0  0
   -1.1260    0.9260    0.4820 C   0  0  0  0  0  0  0  0  0  0  0  0
   -0.3150    1.1740   -0.6140 C   0  0  0  0  0  0  0  0  0  0  0  0
    1.0790    1.2590   -0.4670 C   0  0  0  0  0  0  0  0  0  0  0  0
    1.6870    1.1010    0.7480 C   0  0  0  0  0  0  0  0  0  0  0  0
    3.0350    1.1820    0.9490 O   0  0  0  0  0  0  0  0  0  0  0  0
    3.9550    1.4510   -0.0320 C   0  0  1  0  0  0  0  0  0  0  0  0
    4.3250    3.2220    0.0530 Cl  0  0  0  0  0  0  0  0  0  0  0  0
    5.2440    0.7820    0.0950 N   0  0  0  0  0  0  0  0  0  0  0  0
    5.7440    0.4070    1.2500 N   0  0  0  0  0  0  0  0  0  0  0  0
    6.9580   -0.1950    1.3680 C   0  0  0  0  0  0  0  0  0  0  0  0
    7.4080   -0.5420    2.4930 O   0  0  0  0  0  0  0  0  0  0  0  0
    7.7420   -0.4470    0.2550 C   0  0  0  0  0  0  0  0  0  0  0  0
    8.9920   -1.0550    0.3400 C   0  0  0  0  0  0  0  0  0  0  0  0
    9.7200   -1.2690   -0.8100 C   0  0  0  0  0  0  0  0  0  0  0  0
    9.2370   -0.8920   -2.0520 C   0  0  0  0  0  0  0  0  0  0  0  0
    7.9960   -0.2940   -2.0900 C   0  0  0  0  0  0  0  0  0  0  0  0
    7.2350   -0.0610   -0.9660 C   0  0  0  0  0  0  0  0  0  0  0  0
    6.0010    0.5410   -1.0120 C   0  0  0  0  0  0  0  0  0  0  0  0
    5.5210    0.9000   -2.1180 O   0  0  0  0  0  0  0  0  0  0  0  0
    0.8780    0.8510    1.8390 C   0  0  0  0  0  0  0  0  0  0  0  0
   -0.4870    0.7660    1.7070 C   0  0  0  0  0  0  0  0  0  0  0  0
   -4.6660    0.1120   -0.0750 C   0  0  0  0  0  0  0  0  0  0  0  0
   -5.0500    1.5150    0.0450 C   0  0  0  0  0  0  0  0  0  0  0  0
   -6.3570    1.9980   -0.0870 C   0  0  0  0  0  0  0  0  0  0  0  0
   -6.3000    3.3630    0.0940 C   0  0  0  0  0  0  0  0  0  0  0  0
   -4.9650    3.6610    0.3270 C   0  0  0  0  0  0  0  0  0  0  0  0
   -4.4120    5.0220    0.5810 C   0  0  2  0  0  0  0  0  0  0  0  0
   -4.3680    5.3120    1.9470 F   0  0  0  0  0  0  0  0  0  0  0  0
   -5.1020    5.9820   -0.1210 F   0  0  0  0  0  0  0  0  0  0  0  0
   -3.0820    5.0830    0.1400 F   0  0  0  0  0  0  0  0  0  0  0  0
   -4.2840    2.5410    0.2870 O   0  0  0  0  0  0  0  0  0  0  0  0
   -5.5550   -0.8840   -0.3200 C   0  0  0  0  0  0  0  0  0  0  0  0
  1  2  1  0
  2  3  1  0
  3  4  1  0
  4  5  2  0
  4 40  1  0
  5  6  1  0
  6  7  2  0
  7  8  1  0
  7 30  1  0
  8  9  1  0
  9 10  2  0
  9 29  1  0
 10 11  1  0
 11 12  2  0
 12 13  1  0
 12 28  1  0
 13 14  1  0
 14 15  1  1
 14 16  1  0
 16 17  1  0
 16 26  1  0
 17 18  1  0
 18 19  2  0
 18 20  1  0
 20 21  2  0
 20 25  1  0
 21 22  1  0
 22 23  2  0
 23 24  1  0
 24 25  2  0
 25 26  1  0
 26 27  2  0
 28 29  2  0
 30 31  1  0
 30 40  2  0
 31 32  2  0
 31 39  1  0
 32 33  1  0
 33 34  2  0
 34 35  1  0
 34 39  1  0
 35 36  1  1
 35 37  1  0
 35 38  1  0
M  END
