
     RDKit          3D

 40 43  0  0  0  0  0  0  0  0999 V2000
   -2.1940   -4.3600    4.7810 C   0  0  0  0  0  0  0  0  0  0  0  0
   -3.5230   -4.1010    4.4430 O   0  0  0  0  0  0  0  0  0  0  0  0
   -3.8120   -3.1720    3.4290 C   0  0  0  0  0  0  0  0  0  0  0  0
   -5.1090   -2.9060    3.0800 C   0  0  0  0  0  0  0  0  0  0  0  0
   -5.3340   -1.9790    2.0690 C   0  0  0  0  0  0  0  0  0  0  0  0
   -4.3080   -1.3270    1.4150 C   0  0  0  0  0  0  0  0  0  0  0  0
   -4.6430   -0.4460    0.3620 N   0  0  0  0  0  0  0  0  0  0  0  0
   -5.9330    0.0560    0.0430 C   0  0  0  0  0  0  0  0  0  0  0  0
   -6.9110   -0.2720    0.7290 O   0  0  0  0  0  0  0  0  0  0  0  0
   -6.1130    0.9730   -1.1110 C   0  0  0  0  0  0  0  0  0  0  0  0
   -7.3620    1.2210   -1.6420 C   0  0  0  0  0  0  0  0  0  0  0  0
   -7.5500    2.0830   -2.7030 C   0  0  0  0  0  0  0  0  0  0  0  0
   -6.4790    2.7140   -3.2520 C   0  0  0  0  0  0  0  0  0  0  0  0
   -6.3750    3.5800   -4.2630 N   0  0  0  0  0  0  0  0  0  0  0  0
   -5.0830    3.8910   -4.3890 C   0  0  0  0  0  0  0  0  0  0  0  0
   -4.4050    3.2280   -3.4740 O   0  0  0  0  0  0  0  0  0  0  0  0
   -5.2190    2.4960   -2.7560 C   0  0  0  0  0  0  0  0  0  0  0  0
   -5.0510    1.6150   -1.6760 C   0  0  0  0  0  0  0  0  0  0  0  0
   -3.0050   -1.6100    1.7860 C   0  0  0  0  0  0  0  0  0  0  0  0
   -1.8880   -0.9370    1.1780 C   0  0  0  0  0  0  0  0  0  0  0  0
   -1.9960   -0.0550    0.3230 O   0  0  0  0  0  0  0  0  0  0  0  0
   -0.5530   -1.2700    1.5480 N   0  0  0  0  0  0  0  0  0  0  0  0
    0.5620   -0.6020    0.9420 N   0  0  0  0  0  0  0  0  0  0  0  0
    1.8620   -1.0450    1.2390 C   0  0  0  0  0  0  0  0  0  0  0  0
    2.0130   -2.0270    2.0420 O   0  0  0  0  0  0  0  0  0  0  0  0
    3.0250   -0.4890    0.7190 O   0  0  0  0  0  0  0  0  0  0  0  0
    4.2700   -1.0440    1.1110 C   0  0  0  0  0  0  0  0  0  0  0  0
    5.4130   -0.3800    0.4910 C   0  0  0  0  0  0  0  0  0  0  0  0
    5.8840   -0.7120   -0.7680 C   0  0  0  0  0  0  0  0  0  0  0  0
    6.9860   -0.0920   -1.3020 C   0  0  0  0  0  0  0  0  0  0  0  0
    7.6740    0.8850   -0.6140 C   0  0  0  0  0  0  0  0  0  0  0  0
    9.0800    1.6230   -1.3400 S   0  0  2  0  0  0  0  0  0  0  0  0
    9.7650    0.5710   -2.2000 O   0  0  0  0  0  0  0  0  0  0  0  0
   10.0920    2.0170   -0.2740 O   0  0  0  0  0  0  0  0  0  0  0  0
    8.6790    2.9520   -2.2760 O   0  0  0  0  0  0  0  0  0  0  0  0
    9.3970    2.9590   -3.4770 C   0  0  0  0  0  0  0  0  0  0  0  0
    9.0420    4.0690   -4.2220 O   0  0  0  0  0  0  0  0  0  0  0  0
    7.1910    1.2020    0.6340 C   0  0  0  0  0  0  0  0  0  0  0  0
    6.0960    0.6150    1.2120 C   0  0  0  0  0  0  0  0  0  0  0  0
   -2.7580   -2.5480    2.8080 C   0  0  0  0  0  0  0  0  0  0  0  0
  1  2  1  0
  2  3  1  0
  3  4  2  0
  3 40  1  0
  4  5  1  0
  5  6  2  0
  6  7  1  0
  6 19  1  0
  7  8  1  0
  8  9  2  0
  8 10  1  0
 10 11  2  0
 10 18  1  0
 11 12  1  0
 12 13  2  0
 13 14  1  0
 13 17  1  0
 14 15  2  0
 15 16  1  0
 16 17  1  0
 17 18  2  0
 19 20  1  0
 19 40  2  0
 20 21  2  0
 20 22  1  0
 22 23  1  0
 23 24  1  0
 24 25  2  0
 24 26  1  0
 26 27  1  0
 27 28  1  0
 28 29  2  0
 28 39  1  0
 29 30  1  0
 30 31  2  0
 31 32  1  0
 31 38  1  0
 32 33  2  0
 32 34  2  0
 32 35  1  6
 35 36  1  0
 36 37  1  0
 38 39  2  0
M  CHG  2  14   1  37  -1
M  END
