
     RDKit          3D

 40 43  0  0  0  0  0  0  0  0999 V2000
   -0.3260    3.3610    0.7800 C   0  0  0  0  0  0  0  0  0  0  0  0
   -1.2070    2.4370    0.2280 O   0  0  0  0  0  0  0  0  0  0  0  0
   -1.3190    1.1110    0.4680 C   0  0  0  0  0  0  0  0  0  0  0  0
   -0.5980    0.2180   -0.1690 C   0  0  0  0  0  0  0  0  0  0  0  0
    0.4050    0.4500   -1.1940 C   0  0  0  0  0  0  0  0  0  0  0  0
    1.4820   -0.4380   -1.2950 C   0  0  0  0  0  0  0  0  0  0  0  0
    2.4220   -0.2420   -2.2380 C   0  0  0  0  0  0  0  0  0  0  0  0
    3.4060   -1.0490   -2.3480 O   0  0  0  0  0  0  0  0  0  0  0  0
    2.3220    0.8670   -3.1270 C   0  0  0  0  0  0  0  0  0  0  0  0
    3.3750    1.0090   -4.0880 C   0  0  1  0  0  0  0  0  0  0  0  0
    3.5670    2.2160   -4.8120 N   0  0  0  0  0  0  0  0  0  0  0  0
    4.3920    2.2500   -6.0220 C   0  0  0  0  0  0  0  0  0  0  0  0
    4.2540    3.3470   -6.6200 O   0  0  0  0  0  0  0  0  0  0  0  0
    5.3020    1.3050   -6.6380 C   0  0  0  0  0  0  0  0  0  0  0  0
    5.6500    0.0640   -5.8470 C   0  0  0  0  0  0  0  0  0  0  0  0
    5.7650    0.3790   -4.3720 C   0  0  0  0  0  0  0  0  0  0  0  0
    4.7840    0.8070   -3.5470 C   0  0  0  0  0  0  0  0  0  0  0  0
    5.2170    1.1750   -2.2230 C   0  0  2  0  0  0  0  0  0  0  0  0
    4.3200    1.3450   -1.2300 F   0  0  0  0  0  0  0  0  0  0  0  0
    5.9590    2.3910   -2.2450 F   0  0  0  0  0  0  0  0  0  0  0  0
    6.4920   -0.0250   -1.6980 Cl  0  0  0  0  0  0  0  0  0  0  0  0
    1.2540    1.6900   -2.9840 C   0  0  0  0  0  0  0  0  0  0  0  0
    0.9490    2.8910   -3.8140 C   0  0  0  0  0  0  0  0  0  0  0  0
    0.3520    1.4360   -2.0210 O   0  0  0  0  0  0  0  0  0  0  0  0
   -2.2590    0.5540    1.4720 C   0  0  0  0  0  0  0  0  0  0  0  0
   -3.1230    1.2140    2.2670 C   0  0  0  0  0  0  0  0  0  0  0  0
   -3.7590    0.2100    3.0180 C   0  0  0  0  0  0  0  0  0  0  0  0
   -3.2710   -0.9970    2.6640 C   0  0  0  0  0  0  0  0  0  0  0  0
   -3.4650   -2.3620    3.0320 C   0  0  0  0  0  0  0  0  0  0  0  0
   -2.9210   -3.1640    2.0920 O   0  0  0  0  0  0  0  0  0  0  0  0
   -4.0740   -3.0610    4.0840 C   0  0  0  0  0  0  0  0  0  0  0  0
   -4.2450   -4.4130    3.9040 C   0  0  0  0  0  0  0  0  0  0  0  0
   -4.8530   -5.2590    4.8970 C   0  0  0  0  0  0  0  0  0  0  0  0
   -5.2710   -4.7730    6.0460 C   0  0  0  0  0  0  0  0  0  0  0  0
   -5.1230   -3.3800    6.3300 N   0  0  0  0  0  0  0  0  0  0  0  0
   -5.5800   -2.8500    7.5950 C   0  0  0  0  0  0  0  0  0  0  0  0
   -4.5260   -2.5520    5.3500 C   0  0  0  0  0  0  0  0  0  0  0  0
   -4.1810   -1.3400    5.7790 C   0  0  0  0  0  0  0  0  0  0  0  0
   -4.6020   -0.8460    6.9330 F   0  0  0  0  0  0  0  0  0  0  0  0
   -2.3540   -0.7160    1.7080 O   0  0  0  0  0  0  0  0  0  0  0  0
  1  2  1  0
  2  3  1  0
  3  4  2  3
  3 25  1  0
  4  5  1  0
  5  6  2  0
  5 24  1  0
  6  7  1  0
  7  8  2  0
  7  9  1  0
 10  9  1  1
  9 22  2  0
 10 11  1  0
 10 17  1  0
 11 12  1  0
 12 13  2  0
 12 14  1  0
 14 15  1  0
 15 16  1  0
 16 17  2  0
 17 18  1  0
 18 19  1  1
 18 20  1  0
 18 21  1  0
 22 23  1  0
 22 24  1  0
 25 26  2  0
 25 40  1  0
 26 27  1  0
 27 28  2  0
 28 29  1  0
 28 40  1  0
 29 30  2  0
 29 31  1  0
 31 32  2  0
 31 37  1  0
 32 33  1  0
 33 34  2  0
 34 35  1  0
 35 36  1  0
 35 37  1  0
 37 38  2  3
 38 39  1  0
M  END
