
     RDKit          3D

 12 12  0  0  0  0  0  0  0  0999 V2000
    3.1500   -0.6520    0.0490 C   0  0  0  0  0  0  0  0  0  0  0  0
    2.3060    0.1740    0.7710 O   0  0  0  0  0  0  0  0  0  0  0  0
    0.9870    0.1280    0.3270 C   0  0  2  0  0  0  0  0  0  0  0  0
    0.4810    1.4780   -0.1040 C   0  0  0  0  0  0  0  0  0  0  0  0
   -0.6490    1.1890   -1.1250 C   0  0  0  0  0  0  0  0  0  0  0  0
   -1.6760    0.0440   -0.4440 S   0  0  0  0  0  0  0  0  0  0  0  0
   -1.8350   -0.7760   -1.5850 O   0  0  0  0  0  0  0  0  0  0  0  0
   -1.9760    1.0800    0.7520 O   0  0  0  0  0  0  0  0  0  0  0  0
   -3.3840    0.2680   -0.6340 O   0  0  0  0  0  0  0  0  0  0  0  0
   -1.1220   -1.0910    0.5870 C   0  0  0  0  0  0  0  0  0  0  0  0
    0.0710   -0.4840    1.3680 C   0  0  1  0  0  0  0  0  0  0  0  0
    0.7490   -1.4760    2.0130 O   0  0  0  0  0  0  0  0  0  0  0  0
  1  2  1  0
  3  2  1  1
  3  4  1  0
  3 11  1  0
  4  5  1  0
  5  6  1  0
  6  7  2  0
  6  8  1  0
  6  9  1  0
  6 10  1  0
 10 11  1  0
 11 12  1  6
M  END
