
     RDKit          3D

 11 10  0  0  0  0  0  0  0  0999 V2000
    3.7110    1.4460   -0.7610 O   0  0  0  0  0  0  0  0  0  0  0  0
    2.9510    0.6070    0.0400 C   0  0  0  0  0  0  0  0  0  0  0  0
    1.6260    1.2770    0.3590 C   0  0  0  0  0  0  0  0  0  0  0  0
    0.6350    0.1750    1.4080 S   0  0  0  0  0  0  0  0  0  0  0  0
    0.1880   -1.2890    0.4460 C   0  0  0  0  0  0  0  0  0  0  0  0
   -0.7410   -0.9550   -0.6840 C   0  0  1  0  0  0  0  0  0  0  0  0
   -0.9760   -2.1990   -1.3560 O   0  0  0  0  0  0  0  0  0  0  0  0
   -2.1150   -0.5180   -0.2590 C   0  0  1  0  0  0  0  0  0  0  0  0
   -2.6450   -1.4810    0.5890 O   0  0  0  0  0  0  0  0  0  0  0  0
   -2.1770    0.8280    0.3630 C   0  0  0  0  0  0  0  0  0  0  0  0
   -1.6260    1.8120   -0.4410 O   0  0  0  0  0  0  0  0  0  0  0  0
  1  2  1  0
  2  3  1  0
  3  4  1  0
  4  5  1  0
  5  6  1  0
  6  7  1  6
  6  8  1  0
  8  9  1  1
  8 10  1  0
 10 11  1  0
M  END
