
     RDKit          3D

 25 26  0  0  0  0  0  0  0  0999 V2000
    3.8330    1.1990   -0.3850 C   0  0  0  0  0  0  0  0  0  0  0  0
    3.7410   -0.1060    0.2740 C   0  0  0  0  0  0  0  0  0  0  0  0
    2.5580   -0.6180    0.4760 C   0  0  0  0  0  0  0  0  0  0  0  0
    1.2710   -0.0500    0.1530 C   0  0  0  0  0  0  0  0  0  0  0  0
    0.2650   -0.8900    0.3090 O   0  0  0  0  0  0  0  0  0  0  0  0
    0.8400    1.1930   -0.2790 N   0  0  0  0  0  0  0  0  0  0  0  0
   -0.4390    1.7160   -0.6440 C   0  0  0  0  0  0  0  0  0  0  0  0
   -1.2010    1.2110   -1.7680 C   0  0  0  0  0  0  0  0  0  0  0  0
   -1.8590   -0.1080   -1.8320 C   0  0  0  0  0  0  0  0  0  0  0  0
   -2.9570   -0.3110   -0.9170 N   0  0  0  0  0  0  0  0  0  0  0  0
   -2.7690   -0.8860    0.3740 C   0  0  0  0  0  0  0  0  0  0  0  0
   -4.1130   -1.2150    1.0420 C   0  0  0  0  0  0  0  0  0  0  0  0
   -4.7390    0.0090    1.6420 C   0  0  0  0  0  0  0  0  0  0  0  0
   -5.1040    1.0580    0.6400 C   0  0  0  0  0  0  0  0  0  0  0  0
   -5.4410    0.4560   -0.6960 C   0  0  0  0  0  0  0  0  0  0  0  0
   -4.2280    0.1150   -1.4770 C   0  0  0  0  0  0  0  0  0  0  0  0
   -4.2820    0.1940   -2.7330 O   0  0  0  0  0  0  0  0  0  0  0  0
    2.4980   -1.9140    1.1020 O   0  0  0  0  0  0  0  0  0  0  0  0
    3.5850   -2.7010    1.3820 C   0  0  0  0  0  0  0  0  0  0  0  0
    4.8760   -2.0400    1.1440 C   0  0  0  0  0  0  0  0  0  0  0  0
    4.9990   -0.7950    0.6150 C   0  0  0  0  0  0  0  0  0  0  0  0
    6.3120   -0.2740    0.4960 C   0  0  0  0  0  0  0  0  0  0  0  0
    7.6510   -1.3980    0.9750 Cl  0  0  0  0  0  0  0  0  0  0  0  0
    6.7410    0.8700    0.0980 C   0  0  0  0  0  0  0  0  0  0  0  0
    8.5410    1.1320    0.0930 Cl  0  0  0  0  0  0  0  0  0  0  0  0
  1  2  1  0
  2  3  2  0
  2 21  1  0
  3  4  1  0
  3 18  1  0
  4  5  2  0
  4  6  1  0
  6  7  1  0
  7  8  1  0
  8  9  1  0
  9 10  1  0
 10 11  1  0
 10 16  1  0
 11 12  1  0
 12 13  1  0
 13 14  1  0
 14 15  1  0
 15 16  1  0
 16 17  2  0
 18 19  1  0
 19 20  1  0
 20 21  2  0
 21 22  1  0
 22 23  1  0
 22 24  2  3
 24 25  1  0
M  END
