
     RDKit          3D

 25 27  0  0  0  0  0  0  0  0999 V2000
   -6.2130   -0.6090    0.6790 C   0  0  0  0  0  0  0  0  0  0  0  0
   -5.2010   -0.8230   -0.4180 C   0  0  1  0  0  0  0  0  0  0  0  0
   -5.6270   -0.1010   -1.6780 C   0  0  0  0  0  0  0  0  0  0  0  0
   -3.8620   -0.4150   -0.0020 N   0  0  0  0  0  0  0  0  0  0  0  0
   -3.4840    0.8950    0.3770 C   0  0  0  0  0  0  0  0  0  0  0  0
   -4.2300    1.9340    0.4210 O   0  0  0  0  0  0  0  0  0  0  0  0
   -2.0630    0.8780    0.7210 C   0  0  0  0  0  0  0  0  0  0  0  0
   -1.2180    1.9140    1.1530 C   0  0  0  0  0  0  0  0  0  0  0  0
    0.0830    1.6070    1.4040 C   0  0  0  0  0  0  0  0  0  0  0  0
    0.5800    0.3230    1.2450 C   0  0  0  0  0  0  0  0  0  0  0  0
    1.9080    0.0260    1.5050 O   0  0  0  0  0  0  0  0  0  0  0  0
    2.8290    0.1360    0.4710 C   0  0  0  0  0  0  0  0  0  0  0  0
    2.4320    0.5360   -0.8030 C   0  0  0  0  0  0  0  0  0  0  0  0
    3.3420    0.6470   -1.8330 C   0  0  0  0  0  0  0  0  0  0  0  0
    4.6770    0.3700   -1.6550 C   0  0  0  0  0  0  0  0  0  0  0  0
    5.8330    0.5170   -2.9830 Cl  0  0  0  0  0  0  0  0  0  0  0  0
    5.0950   -0.0280   -0.4020 C   0  0  0  0  0  0  0  0  0  0  0  0
    6.4680   -0.3190   -0.1900 N   0  0  0  0  0  0  0  0  0  0  0  0
    6.9840   -0.7470    1.0720 C   0  0  0  0  0  0  0  0  0  0  0  0
    6.2600   -2.2940    1.6230 Cl  0  0  0  0  0  0  0  0  0  0  0  0
    4.1690   -0.1390    0.6400 C   0  0  0  0  0  0  0  0  0  0  0  0
   -0.2410   -0.6900    0.8240 C   0  0  0  0  0  0  0  0  0  0  0  0
   -1.5810   -0.3960    0.5600 C   0  0  0  0  0  0  0  0  0  0  0  0
   -2.6990   -1.2180    0.1070 C   0  0  0  0  0  0  0  0  0  0  0  0
   -2.6540   -2.4410   -0.1490 O   0  0  0  0  0  0  0  0  0  0  0  0
  2  1  1  1
  2  3  1  0
  2  4  1  0
  4  5  1  0
  4 24  1  0
  5  6  2  0
  5  7  1  0
  7  8  2  0
  7 23  1  0
  8  9  1  0
  9 10  2  0
 10 11  1  0
 10 22  1  0
 11 12  1  0
 12 13  2  0
 12 21  1  0
 13 14  1  0
 14 15  2  0
 15 16  1  0
 15 17  1  0
 17 18  1  0
 17 21  2  0
 18 19  1  0
 19 20  1  0
 22 23  2  0
 23 24  1  0
 24 25  2  0
M  END
