
     RDKit          3D

 25 27  0  0  0  0  0  0  0  0999 V2000
   -0.4670    3.8630   -0.4160 C   0  0  0  0  0  0  0  0  0  0  0  0
   -0.4120    2.3920   -0.3980 C   0  0  0  0  0  0  0  0  0  0  0  0
   -1.5670    1.7200   -0.2680 C   0  0  0  0  0  0  0  0  0  0  0  0
   -1.5590    0.2770   -0.2450 C   0  0  0  0  0  0  0  0  0  0  0  0
   -2.6020   -0.4820   -0.1270 C   0  0  0  0  0  0  0  0  0  0  0  0
   -3.9630   -0.0610    0.0050 C   0  0  0  0  0  0  0  0  0  0  0  0
   -4.2780    1.1770    0.0170 O   0  0  0  0  0  0  0  0  0  0  0  0
   -5.0870   -0.9430    0.1330 N   0  0  0  0  0  0  0  0  0  0  0  0
   -6.4530   -0.4320    0.2640 C   0  0  0  0  0  0  0  0  0  0  0  0
   -2.3750   -1.9840   -0.1280 C   0  0  1  0  0  0  0  0  0  0  0  0
   -2.9650   -2.6030    1.4190 Cl  0  0  0  0  0  0  0  0  0  0  0  0
   -3.2470   -2.7050   -1.4610 Cl  0  0  0  0  0  0  0  0  0  0  0  0
   -0.2310   -0.3100   -0.3670 N   0  0  0  0  0  0  0  0  0  0  0  0
    0.2750   -0.7880   -1.6240 C   0  0  0  0  0  0  0  0  0  0  0  0
    1.3970   -1.7650   -1.3760 C   0  0  0  0  0  0  0  0  0  0  0  0
    2.4660   -1.0990   -0.5780 C   0  0  0  0  0  0  0  0  0  0  0  0
    3.7980   -1.1330   -0.8650 C   0  0  0  0  0  0  0  0  0  0  0  0
    4.7520   -0.4900   -0.0770 C   0  0  0  0  0  0  0  0  0  0  0  0
    4.2920    0.1950    1.0250 C   0  0  0  0  0  0  0  0  0  0  0  0
    2.9290    0.2440    1.3410 C   0  0  0  0  0  0  0  0  0  0  0  0
    2.0070   -0.3990    0.5470 C   0  0  0  0  0  0  0  0  0  0  0  0
    0.5550   -0.3790    0.8350 C   0  0  0  0  0  0  0  0  0  0  0  0
    5.3940    0.7440    1.6460 O   0  0  0  0  0  0  0  0  0  0  0  0
    6.5770    0.4090    0.9370 C   0  0  0  0  0  0  0  0  0  0  0  0
    6.1380   -0.3750   -0.1540 O   0  0  0  0  0  0  0  0  0  0  0  0
  1  2  1  0
  2  3  2  3
  3  4  1  0
  4  5  2  3
  4 13  1  0
  5  6  1  0
  5 10  1  0
  6  7  2  0
  6  8  1  0
  8  9  1  0
 10 11  1  1
 10 12  1  0
 13 14  1  0
 13 22  1  0
 14 15  1  0
 15 16  1  0
 16 17  2  0
 16 21  1  0
 17 18  1  0
 18 19  2  0
 18 25  1  0
 19 20  1  0
 19 23  1  0
 20 21  2  0
 21 22  1  0
 23 24  1  0
 24 25  1  0
M  END
