
     RDKit          3D

 25 27  0  0  0  0  0  0  0  0999 V2000
   -2.5720   -2.1320    3.2090 C   0  0  0  0  0  0  0  0  0  0  0  0
   -2.3450   -1.2980    2.1110 O   0  0  0  0  0  0  0  0  0  0  0  0
   -1.0630   -1.0690    1.5900 C   0  0  0  0  0  0  0  0  0  0  0  0
    0.0310   -1.6890    2.1810 C   0  0  0  0  0  0  0  0  0  0  0  0
    1.3180   -1.5110    1.7240 C   0  0  0  0  0  0  0  0  0  0  0  0
    1.5770   -0.6890    0.6350 C   0  0  0  0  0  0  0  0  0  0  0  0
    2.9500   -0.5050    0.1550 C   0  0  0  0  0  0  0  0  0  0  0  0
    3.9200   -1.1010    0.7370 O   0  0  0  0  0  0  0  0  0  0  0  0
    3.3060    0.3090   -0.9410 N   0  0  0  0  0  0  0  0  0  0  0  0
    4.6400    0.4560   -1.3670 C   0  0  0  0  0  0  0  0  0  0  0  0
    5.1650   -0.3950   -2.3050 C   0  0  0  0  0  0  0  0  0  0  0  0
    4.1420   -1.6560   -2.9500 Cl  0  0  0  0  0  0  0  0  0  0  0  0
    6.4960   -0.2340   -2.7190 C   0  0  0  0  0  0  0  0  0  0  0  0
    7.2490    0.7340   -2.2100 N   0  0  0  0  0  0  0  0  0  0  0  0
    6.7680    1.5920   -1.2850 C   0  0  0  0  0  0  0  0  0  0  0  0
    5.4390    1.4490   -0.8570 C   0  0  0  0  0  0  0  0  0  0  0  0
    4.8630    2.5760    0.3360 Cl  0  0  0  0  0  0  0  0  0  0  0  0
    0.5090   -0.0790    0.0520 C   0  0  0  0  0  0  0  0  0  0  0  0
   -0.8220   -0.2550    0.5140 C   0  0  0  0  0  0  0  0  0  0  0  0
   -1.7970    0.4090   -0.1540 O   0  0  0  0  0  0  0  0  0  0  0  0
   -3.1330    0.4520    0.0300 C   0  0  2  0  0  0  0  0  0  0  0  0
   -3.9210    0.0530   -1.2440 C   0  0  0  0  0  0  0  0  0  0  0  0
   -5.3230    0.4330   -0.8100 C   0  0  0  0  0  0  0  0  0  0  0  0
   -5.0950    1.8430   -0.2810 C   0  0  0  0  0  0  0  0  0  0  0  0
   -3.6660    1.8950    0.1910 C   0  0  0  0  0  0  0  0  0  0  0  0
  1  2  1  0
  2  3  1  0
  3  4  2  0
  3 19  1  0
  4  5  1  0
  5  6  2  0
  6  7  1  0
  6 18  1  0
  7  8  2  0
  7  9  1  0
  9 10  1  0
 10 11  2  0
 10 16  1  0
 11 12  1  0
 11 13  1  0
 13 14  2  0
 14 15  1  0
 15 16  2  0
 16 17  1  0
 18 19  2  0
 19 20  1  0
 21 20  1  6
 21 22  1  0
 21 25  1  0
 22 23  1  0
 23 24  1  0
 24 25  1  0
M  END
