
     RDKit          3D

 25 28  0  0  0  0  0  0  0  0999 V2000
   -5.4650    2.4260    0.5400 C   0  0  0  0  0  0  0  0  0  0  0  0
   -4.6180    2.3360   -0.6620 N   0  0  0  0  0  0  0  0  0  0  0  0
   -3.3210    1.9000   -0.3490 C   0  0  0  0  0  0  0  0  0  0  0  0
   -3.0090    0.4480   -0.2080 C   0  0  0  0  0  0  0  0  0  0  0  0
   -1.6430    0.2230    0.1000 C   0  0  0  0  0  0  0  0  0  0  0  0
   -0.5420    1.1840    0.2890 C   0  0  0  0  0  0  0  0  0  0  0  0
    0.6950    0.5960    0.5890 N   0  0  0  0  0  0  0  0  0  0  0  0
    0.8420   -0.1920    1.7420 C   0  0  0  0  0  0  0  0  0  0  0  0
    1.7960   -1.3450    1.6320 C   0  0  0  0  0  0  0  0  0  0  0  0
    2.2250   -1.6050    0.2090 C   0  0  0  0  0  0  0  0  0  0  0  0
    2.7650   -0.3290   -0.3600 C   0  0  2  0  0  0  0  0  0  0  0  0
    3.9970   -0.0110    0.3390 N   0  0  2  0  0  0  0  0  0  0  0  0
    4.6390    1.1730   -0.1950 C   0  0  0  0  0  0  0  0  0  0  0  0
    6.0760    0.8450   -0.4340 C   0  0  0  0  0  0  0  0  0  0  0  0
    6.3130   -0.4860    0.2140 C   0  0  0  0  0  0  0  0  0  0  0  0
    4.9270   -1.0980    0.2060 C   0  0  0  0  0  0  0  0  0  0  0  0
    1.7970    0.8190   -0.2490 C   0  0  0  0  0  0  0  0  0  0  0  0
   -1.5040   -1.5160    0.2180 S   0  0  0  0  0  0  0  0  0  0  0  0
   -3.1650   -1.8790   -0.1250 C   0  0  0  0  0  0  0  0  0  0  0  0
   -3.8390   -3.1120   -0.2070 C   0  0  0  0  0  0  0  0  0  0  0  0
   -2.8790   -4.5370    0.0720 Cl  0  0  0  0  0  0  0  0  0  0  0  0
   -5.1850   -3.1470   -0.4960 C   0  0  0  0  0  0  0  0  0  0  0  0
   -5.7480   -1.9450   -0.6790 N   0  0  0  0  0  0  0  0  0  0  0  0
   -5.1230   -0.7630   -0.6040 C   0  0  0  0  0  0  0  0  0  0  0  0
   -3.7460   -0.6650   -0.3120 C   0  0  0  0  0  0  0  0  0  0  0  0
  1  2  1  0
  2  3  1  0
  3  4  1  0
  4  5  2  0
  4 25  1  0
  5  6  1  0
  5 18  1  0
  6  7  1  0
  7  8  1  0
  7 17  1  0
  8  9  1  0
  9 10  1  0
 11 10  1  1
 11 12  1  0
 11 17  1  0
 12 13  1  6
 12 16  1  0
 13 14  1  0
 14 15  1  0
 15 16  1  0
 18 19  1  0
 19 20  2  0
 19 25  1  0
 20 21  1  0
 20 22  1  0
 22 23  2  0
 23 24  1  0
 24 25  2  0
M  CHG  3   2   1  12   1  23   1
M  END
