
     RDKit          3D

 13 13  0  0  0  0  0  0  0  0999 V2000
    4.4820   -0.2330    0.2270 C   0  0  0  0  0  0  0  0  0  0  0  0
    3.1260   -0.6630   -0.1630 C   0  0  0  0  0  0  0  0  0  0  0  0
    2.0830    0.1270    0.0620 C   0  0  0  0  0  0  0  0  0  0  0  0
    2.2850    1.3770    0.6760 N   0  0  0  0  0  0  0  0  0  0  0  0
    0.7330   -0.2670   -0.3110 C   0  0  0  0  0  0  0  0  0  0  0  0
   -0.2360    0.5170   -0.0780 N   0  0  0  0  0  0  0  0  0  0  0  0
   -1.6110    0.2530   -0.3930 C   0  0  2  0  0  0  0  0  0  0  0  0
   -2.2920    1.4400   -0.7260 O   0  0  0  0  0  0  0  0  0  0  0  0
   -2.2780    2.3250    0.2750 N   0  0  0  0  0  0  0  0  0  0  0  0
   -2.3310   -0.3650    0.6720 N   0  0  0  0  0  0  0  0  0  0  0  0
   -2.8480   -1.6140    0.2020 C   0  0  0  0  0  0  0  0  0  0  0  0
   -2.3210   -1.7120   -1.1890 C   0  0  0  0  0  0  0  0  0  0  0  0
   -1.6600   -0.5610   -1.5000 O   0  0  0  0  0  0  0  0  0  0  0  0
  1  2  1  0
  2  3  2  3
  3  4  1  0
  3  5  1  0
  5  6  2  3
  6  7  1  0
  7  8  1  6
  7 10  1  0
  7 13  1  0
  8  9  1  0
 10 11  1  0
 11 12  1  0
 12 13  1  0
M  CHG  1   9   1
M  END
