
     RDKit          3D

 26 26  0  0  0  0  0  0  0  0999 V2000
    1.0220    1.7840   -0.1640 C   0  0  0  0  0  0  0  0  0  0  0  0
    0.5960    0.3410   -0.1120 C   0  0  0  0  0  0  0  0  0  0  0  0
    1.6570   -0.5290    0.2480 N   0  0  0  0  0  0  0  0  0  0  0  0
    2.8080   -0.6730   -0.5940 C   0  0  0  0  0  0  0  0  0  0  0  0
    4.0510   -0.5080   -0.1660 C   0  0  0  0  0  0  0  0  0  0  0  0
    4.3040   -0.1630    1.2180 C   0  0  0  0  0  0  0  0  0  0  0  0
    5.4970    0.0190    1.7260 C   0  0  0  0  0  0  0  0  0  0  0  0
    6.7810   -0.0880    1.0110 C   0  0  0  0  0  0  0  0  0  0  0  0
    7.6380    1.4800    1.0900 Cl  0  0  0  0  0  0  0  0  0  0  0  0
   -0.6480    0.0270   -0.3890 C   0  0  0  0  0  0  0  0  0  0  0  0
   -1.5980    1.0960   -0.7450 C   0  0  0  0  0  0  0  0  0  0  0  0
   -1.2270    2.2900   -0.7860 O   0  0  0  0  0  0  0  0  0  0  0  0
   -2.9620    0.7810   -1.0510 N   0  0  0  0  0  0  0  0  0  0  0  0
   -3.8420    1.8530   -1.4000 C   0  0  0  0  0  0  0  0  0  0  0  0
   -4.5390    2.5060   -0.2830 C   0  0  0  0  0  0  0  0  0  0  0  0
   -5.2930    3.4630   -0.5430 O   0  0  0  0  0  0  0  0  0  0  0  0
   -4.4390    2.1390    1.1370 C   0  0  1  0  0  0  0  0  0  0  0  0
   -3.1030    2.0460    1.5350 F   0  0  0  0  0  0  0  0  0  0  0  0
   -4.9650    3.1620    1.9420 F   0  0  0  0  0  0  0  0  0  0  0  0
   -5.3300    0.6640    1.4950 Cl  0  0  0  0  0  0  0  0  0  0  0  0
   -3.3640   -0.5730   -1.0020 C   0  0  0  0  0  0  0  0  0  0  0  0
   -4.5530   -0.8970   -1.2680 O   0  0  0  0  0  0  0  0  0  0  0  0
   -2.4430   -1.6330   -0.6540 C   0  0  0  0  0  0  0  0  0  0  0  0
   -2.9030   -3.0260   -0.6150 C   0  0  0  0  0  0  0  0  0  0  0  0
   -1.1770   -1.3460   -0.3690 C   0  0  0  0  0  0  0  0  0  0  0  0
   -0.3010   -2.4700   -0.0220 C   0  0  0  0  0  0  0  0  0  0  0  0
  1  2  1  0
  2  3  1  0
  2 10  2  3
  3  4  1  0
  4  5  2  3
  5  6  1  0
  6  7  2  3
  7  8  1  0
  8  9  1  0
 10 11  1  0
 10 25  1  0
 11 12  2  0
 11 13  1  0
 13 14  1  0
 13 21  1  0
 14 15  1  0
 15 16  2  0
 15 17  1  0
 17 18  1  1
 17 19  1  0
 17 20  1  0
 21 22  2  0
 21 23  1  0
 23 24  1  0
 23 25  2  0
 25 26  1  0
M  END
