
     RDKit          3D

 26 27  0  0  0  0  0  0  0  0999 V2000
    4.4520   -1.0940   -1.5750 C   0  0  0  0  0  0  0  0  0  0  0  0
    4.4090   -0.1520   -0.7110 C   0  0  0  0  0  0  0  0  0  0  0  0
    5.5230    0.7100   -0.7390 F   0  0  0  0  0  0  0  0  0  0  0  0
    3.4300    0.2090    0.3030 C   0  0  0  0  0  0  0  0  0  0  0  0
    3.7210    1.2930    1.0520 C   0  0  0  0  0  0  0  0  0  0  0  0
    2.9090    1.8340    2.1070 C   0  0  2  0  0  0  0  0  0  0  0  0
    2.6370    0.9890    3.1640 F   0  0  0  0  0  0  0  0  0  0  0  0
    1.4200    2.5690    1.4700 Cl  0  0  0  0  0  0  0  0  0  0  0  0
    3.8020    3.2240    2.9020 Cl  0  0  0  0  0  0  0  0  0  0  0  0
    2.2300   -0.5390    0.4950 C   0  0  0  0  0  0  0  0  0  0  0  0
    1.4050   -0.1580    1.4040 O   0  0  0  0  0  0  0  0  0  0  0  0
    1.7950   -1.7350   -0.2430 C   0  0  0  0  0  0  0  0  0  0  0  0
    0.4610   -2.1800    0.2310 N   0  0  0  0  0  0  0  0  0  0  0  0
   -0.7000   -1.3890    0.0690 C   0  0  0  0  0  0  0  0  0  0  0  0
   -0.6780   -0.1710   -0.5900 C   0  0  0  0  0  0  0  0  0  0  0  0
   -1.8580    0.5300   -0.7090 C   0  0  0  0  0  0  0  0  0  0  0  0
   -3.0520    0.0630   -0.1980 C   0  0  0  0  0  0  0  0  0  0  0  0
   -3.0380   -1.1610    0.4550 C   0  0  0  0  0  0  0  0  0  0  0  0
   -1.8820   -1.8910    0.5950 C   0  0  0  0  0  0  0  0  0  0  0  0
   -1.8950   -3.1930    1.2970 C   0  0  0  0  0  0  0  0  0  0  0  0
   -4.1330    1.0140   -0.4730 C   0  0  0  0  0  0  0  0  0  0  0  0
   -5.3340    0.8740   -0.1360 O   0  0  0  0  0  0  0  0  0  0  0  0
   -3.5670    2.1070   -1.1830 N   0  0  0  0  0  0  0  0  0  0  0  0
   -4.2310    3.3000   -1.6780 C   0  0  0  0  0  0  0  0  0  0  0  0
   -2.1990    1.8290   -1.3310 C   0  0  0  0  0  0  0  0  0  0  0  0
   -1.2970    2.5280   -1.9030 O   0  0  0  0  0  0  0  0  0  0  0  0
  1  2  2  0
  2  3  1  0
  2  4  1  0
  4  5  2  3
  4 10  1  0
  5  6  1  0
  6  7  1  1
  6  8  1  0
  6  9  1  0
 10 11  2  0
 10 12  1  0
 12 13  1  0
 13 14  1  0
 14 15  2  0
 14 19  1  0
 15 16  1  0
 16 17  2  0
 16 25  1  0
 17 18  1  0
 17 21  1  0
 18 19  2  0
 19 20  1  0
 21 22  2  0
 21 23  1  0
 23 24  1  0
 23 25  1  0
 25 26  2  0
M  END
