
     RDKit          3D

 20 22  0  0  0  0  0  0  0  0999 V2000
   -0.3470    0.7390    2.0920 O   0  0  0  0  0  0  0  0  0  0  0  0
   -0.9320    1.1360    1.0530 C   0  0  0  0  0  0  0  0  0  0  0  0
   -0.3000    2.0700    0.2770 O   0  0  0  0  0  0  0  0  0  0  0  0
    0.9520    2.6340    0.5300 C   0  0  0  0  0  0  0  0  0  0  0  0
    2.0590    1.6100    0.5840 C   0  0  0  0  0  0  0  0  0  0  0  0
    2.1730    0.8610   -0.7310 C   0  0  0  0  0  0  0  0  0  0  0  0
    3.2800   -0.1280   -0.6070 C   0  0  0  0  0  0  0  0  0  0  0  0
    3.1510   -1.4450   -0.7400 C   0  0  0  0  0  0  0  0  0  0  0  0
    4.4880   -2.1030   -0.5470 C   0  0  0  0  0  0  0  0  0  0  0  0
    5.2060   -1.0690    0.3060 C   0  0  0  0  0  0  0  0  0  0  0  0
    4.6970    0.2270   -0.3150 C   0  0  0  0  0  0  0  0  0  0  0  0
   -2.2420    0.5870    0.7290 C   0  0  0  0  0  0  0  0  0  0  0  0
   -3.0220    0.9050   -0.3620 C   0  0  0  0  0  0  0  0  0  0  0  0
   -4.1810    0.1520   -0.2770 C   0  0  0  0  0  0  0  0  0  0  0  0
   -4.1100   -0.6220    0.8620 C   0  0  0  0  0  0  0  0  0  0  0  0
   -2.9240   -0.3250    1.4340 N   0  0  0  0  0  0  0  0  0  0  0  0
   -5.3560   -1.4260    0.9520 C   0  0  0  0  0  0  0  0  0  0  0  0
   -5.8560   -1.4490   -0.4710 C   0  0  0  0  0  0  0  0  0  0  0  0
   -5.4470   -0.1130   -0.9650 C   0  0  0  0  0  0  0  0  0  0  0  0
   -6.0050    0.6560   -1.7770 O   0  0  0  0  0  0  0  0  0  0  0  0
  1  2  2  0
  2  3  1  0
  2 12  1  0
  3  4  1  0
  4  5  1  0
  5  6  1  0
  6  7  1  0
  7  8  2  0
  7 11  1  0
  8  9  1  0
  9 10  1  0
 10 11  1  0
 12 13  2  0
 12 16  1  0
 13 14  1  0
 14 15  2  0
 14 19  1  0
 15 16  1  0
 15 17  1  0
 17 18  1  0
 18 19  1  0
 19 20  2  0
M  END
