
     RDKit          3D

 20 21  0  0  0  0  0  0  0  0999 V2000
   -2.1210    1.6800    2.1120 C   0  0  0  0  0  0  0  0  0  0  0  0
   -3.0590    1.3750    1.0050 C   0  0  0  0  0  0  0  0  0  0  0  0
   -3.9460    2.2810    0.6570 N   0  0  0  0  0  0  0  0  0  0  0  0
   -4.7440    1.7720   -0.4260 C   0  0  0  0  0  0  0  0  0  0  0  0
   -4.2360    0.4280   -0.6950 C   0  0  0  0  0  0  0  0  0  0  0  0
   -4.7610   -0.4930   -1.7350 C   0  0  0  0  0  0  0  0  0  0  0  0
   -3.2160    0.2030    0.1760 C   0  0  0  0  0  0  0  0  0  0  0  0
   -2.5010   -1.0700    0.2200 C   0  0  0  0  0  0  0  0  0  0  0  0
   -1.2070   -1.2110   -0.0140 O   0  0  0  0  0  0  0  0  0  0  0  0
    0.0140   -0.9240    0.4320 C   0  0  0  0  0  0  0  0  0  0  0  0
    0.1350   -0.2790    1.4850 O   0  0  0  0  0  0  0  0  0  0  0  0
    1.2680   -1.3430   -0.2730 C   0  0  2  0  0  0  0  0  0  0  0  0
    1.2070   -0.7490   -1.6480 C   0  0  0  0  0  0  0  0  0  0  0  0
    1.1420   -2.8630   -0.4720 C   0  0  0  0  0  0  0  0  0  0  0  0
    2.5100   -1.1150    0.4830 C   0  0  0  0  0  0  0  0  0  0  0  0
    2.8670    0.2650    0.8790 C   0  0  2  0  0  0  0  0  0  0  0  0
    3.0480    1.2320   -0.2580 C   0  0  0  0  0  0  0  0  0  0  0  0
    4.3980    1.8760    0.1070 C   0  0  0  0  0  0  0  0  0  0  0  0
    5.0760    0.6070    0.6490 C   0  0  0  0  0  0  0  0  0  0  0  0
    4.1100    0.1840    1.5540 O   0  0  0  0  0  0  0  0  0  0  0  0
  1  2  1  0
  2  3  2  0
  2  7  1  0
  3  4  1  0
  4  5  1  0
  5  6  1  0
  5  7  2  0
  7  8  1  0
  8  9  1  0
  9 10  1  0
 10 11  2  0
 10 12  1  0
 12 13  1  6
 12 14  1  0
 12 15  1  0
 16 15  1  6
 16 17  1  0
 16 20  1  0
 17 18  1  0
 18 19  1  0
 19 20  1  0
M  END
