
     RDKit          3D

 20 22  0  0  0  0  0  0  0  0999 V2000
    1.0810   -0.2300    1.0060 O   0  0  0  0  0  0  0  0  0  0  0  0
    0.6560    0.6230    0.2170 C   0  0  0  0  0  0  0  0  0  0  0  0
    1.6220    1.6370   -0.3570 C   0  0  0  0  0  0  0  0  0  0  0  0
    2.8630    1.4130    0.1260 O   0  0  0  0  0  0  0  0  0  0  0  0
    3.4670    0.2200   -0.1060 C   0  0  1  0  0  0  0  0  0  0  0  0
    4.7140    0.3000   -0.9480 C   0  0  0  0  0  0  0  0  0  0  0  0
    5.8130    0.1040    0.0660 C   0  0  0  0  0  0  0  0  0  0  0  0
    5.2980   -0.5890    1.1200 O   0  0  0  0  0  0  0  0  0  0  0  0
    3.9120   -0.5590    1.0780 C   0  0  0  0  0  0  0  0  0  0  0  0
   -0.7120    0.6610   -0.1520 N   0  0  0  0  0  0  0  0  0  0  0  0
   -1.7190   -0.2210    0.3060 C   0  0  0  0  0  0  0  0  0  0  0  0
   -1.4720   -1.2450    1.1880 C   0  0  0  0  0  0  0  0  0  0  0  0
   -2.4970   -2.0910    1.6130 C   0  0  0  0  0  0  0  0  0  0  0  0
   -3.7500   -1.8890    1.1410 C   0  0  0  0  0  0  0  0  0  0  0  0
   -4.0300   -0.8640    0.2500 C   0  0  0  0  0  0  0  0  0  0  0  0
   -5.3250   -0.6810   -0.2170 C   0  0  0  0  0  0  0  0  0  0  0  0
   -5.6350    0.3240   -1.0990 C   0  0  0  0  0  0  0  0  0  0  0  0
   -4.6420    1.1650   -1.5280 C   0  0  0  0  0  0  0  0  0  0  0  0
   -3.3270    0.9840   -1.0580 C   0  0  0  0  0  0  0  0  0  0  0  0
   -3.0180   -0.0160   -0.1790 C   0  0  0  0  0  0  0  0  0  0  0  0
  1  2  2  0
  2  3  1  0
  2 10  1  0
  3  4  1  0
  5  4  1  1
  5  6  1  0
  5  9  1  0
  6  7  1  0
  7  8  1  0
  8  9  1  0
 10 11  1  0
 11 12  2  0
 11 20  1  0
 12 13  1  0
 13 14  2  0
 14 15  1  0
 15 16  2  0
 15 20  1  0
 16 17  1  0
 17 18  2  0
 18 19  1  0
 19 20  2  0
M  END
