
     RDKit          3D

 20 21  0  0  0  0  0  0  0  0999 V2000
   -3.7650    0.9590   -2.9550 C   0  0  0  0  0  0  0  0  0  0  0  0
   -3.5860    1.1210   -1.6530 C   0  0  0  0  0  0  0  0  0  0  0  0
   -4.7440    1.2520   -0.7130 C   0  0  0  0  0  0  0  0  0  0  0  0
   -4.2510    1.1160    0.6790 C   0  0  0  0  0  0  0  0  0  0  0  0
   -4.7830    1.7130    1.6490 O   0  0  0  0  0  0  0  0  0  0  0  0
   -3.0840    0.2340    0.8940 C   0  0  0  0  0  0  0  0  0  0  0  0
   -2.0950    0.2360    0.0530 C   0  0  0  0  0  0  0  0  0  0  0  0
   -2.1870    1.1710   -1.1380 C   0  0  0  0  0  0  0  0  0  0  0  0
   -0.9330   -0.6380    0.2330 C   0  0  0  0  0  0  0  0  0  0  0  0
   -0.7330   -1.1520    1.6050 C   0  0  1  0  0  0  0  0  0  0  0  0
    0.6390   -0.6800    2.1050 C   0  0  0  0  0  0  0  0  0  0  0  0
    1.6880   -1.2150    1.2040 C   0  0  0  0  0  0  0  0  0  0  0  0
    1.3710   -1.9170    0.2300 O   0  0  0  0  0  0  0  0  0  0  0  0
    3.0710   -0.9070    1.4810 N   0  0  0  0  0  0  0  0  0  0  0  0
    4.0920   -1.4150    0.6240 C   0  0  0  0  0  0  0  0  0  0  0  0
    4.0260   -0.9980   -0.8060 C   0  0  0  0  0  0  0  0  0  0  0  0
    4.1620    0.4700   -0.9840 C   0  0  0  0  0  0  0  0  0  0  0  0
    3.1020    1.3140   -0.3470 C   0  0  0  0  0  0  0  0  0  0  0  0
   -1.7700   -0.8040    2.6130 C   0  0  0  0  0  0  0  0  0  0  0  0
   -3.0570   -0.6080    2.0210 O   0  0  0  0  0  0  0  0  0  0  0  0
  1  2  2  0
  2  3  1  0
  2  8  1  0
  3  4  1  0
  4  5  2  0
  4  6  1  0
  6  7  2  0
  6 20  1  0
  7  8  1  0
  7  9  1  0
  9 10  1  0
 10 11  1  1
 10 19  1  0
 11 12  1  0
 12 13  2  0
 12 14  1  0
 14 15  1  0
 15 16  1  0
 16 17  1  0
 17 18  1  0
 19 20  1  0
M  END
