
     RDKit          3D

 21 24  0  0  0  0  0  0  0  0999 V2000
   -6.2570   -0.5180    0.4760 C   0  0  0  0  0  0  0  0  0  0  0  0
   -5.1860   -0.1170   -0.4930 C   0  0  0  0  0  0  0  0  0  0  0  0
   -3.8660    0.1990    0.1670 C   0  0  2  0  0  0  0  0  0  0  0  0
   -2.7990    0.6020   -0.8330 C   0  0  0  0  0  0  0  0  0  0  0  0
   -1.5020    0.9120   -0.1940 C   0  0  0  0  0  0  0  0  0  0  0  0
   -0.4070    0.2140   -0.5060 C   0  0  0  0  0  0  0  0  0  0  0  0
    0.9040    0.4490    0.0680 C   0  0  0  0  0  0  0  0  0  0  0  0
    1.6630   -0.6180   -0.1040 C   0  0  0  0  0  0  0  0  0  0  0  0
    0.8920   -1.6720   -0.8280 C   0  0  0  0  0  0  0  0  0  0  0  0
   -0.2620   -0.9020   -1.4550 C   0  0  2  0  0  0  0  0  0  0  0  0
    0.1540   -0.3900   -2.6860 O   0  0  0  0  0  0  0  0  0  0  0  0
    3.0490   -0.5140    0.4440 C   0  0  1  0  0  0  0  0  0  0  0  0
    3.8550   -1.7370    0.2100 C   0  0  0  0  0  0  0  0  0  0  0  0
    5.2480   -1.5090   -0.1930 C   0  0  0  0  0  0  0  0  0  0  0  0
    5.7900   -0.3170   -0.0980 C   0  0  0  0  0  0  0  0  0  0  0  0
    5.0760    0.8690    0.4070 C   0  0  0  0  0  0  0  0  0  0  0  0
    3.6350    0.7630   -0.0590 C   0  0  2  0  0  0  0  0  0  0  0  0
    2.8400    1.9070    0.5850 C   0  0  0  0  0  0  0  0  0  0  0  0
    1.4790    1.5460    0.7370 O   0  0  0  0  0  0  0  0  0  0  0  0
   -3.4350   -0.5080    1.4010 C   0  0  0  0  0  0  0  0  0  0  0  0
   -3.8530    0.9180    1.4720 C   0  0  0  0  0  0  0  0  0  0  0  0
  1  2  1  0
  3  2  1  6
  3  4  1  0
  3 20  1  0
  3 21  1  0
  4  5  1  0
  5  6  2  3
  6  7  1  0
  6 10  1  0
  7  8  2  0
  7 19  1  0
  8  9  1  0
  8 12  1  0
  9 10  1  0
 10 11  1  6
 12 13  1  6
 12 17  1  0
 13 14  1  0
 14 15  2  0
 15 16  1  0
 17 16  1  1
 17 18  1  0
 18 19  1  0
 20 21  1  0
M  END
