
     RDKit          3D

 21 24  0  0  0  0  0  0  0  0999 V2000
    2.0850   -1.3270   -2.1090 C   0  0  0  0  0  0  0  0  0  0  0  0
    2.8030   -0.8470   -0.8400 C   0  0  2  0  0  0  0  0  0  0  0  0
    4.2360   -0.4480   -1.1490 C   0  0  0  0  0  0  0  0  0  0  0  0
    2.6700   -1.7270    0.3860 C   0  0  0  0  0  0  0  0  0  0  0  0
    2.0640   -0.2670    0.2580 C   0  0  2  0  0  0  0  0  0  0  0  0
    0.5640   -0.2910    0.3110 C   0  0  0  0  0  0  0  0  0  0  0  0
   -0.1790    0.7910    0.2810 C   0  0  0  0  0  0  0  0  0  0  0  0
    0.3280    2.1460    0.1750 C   0  0  0  0  0  0  0  0  0  0  0  0
   -0.5650    3.1460    0.2390 C   0  0  0  0  0  0  0  0  0  0  0  0
   -0.2030    4.5850    0.1480 C   0  0  0  0  0  0  0  0  0  0  0  0
    1.1090    4.8390   -0.1940 O   0  0  0  0  0  0  0  0  0  0  0  0
    2.0400    3.8670   -0.2730 C   0  0  0  0  0  0  0  0  0  0  0  0
    1.6810    2.5710   -0.0990 C   0  0  0  0  0  0  0  0  0  0  0  0
   -1.6880    0.6920    0.3680 C   0  0  0  0  0  0  0  0  0  0  0  0
   -2.2160   -0.6510    0.5440 C   0  0  1  0  0  0  0  0  0  0  0  0
   -2.3120   -1.1250    1.9770 C   0  0  0  0  0  0  0  0  0  0  0  0
   -3.5400   -0.9330   -0.1120 C   0  0  0  0  0  0  0  0  0  0  0  0
   -3.5290   -2.4550   -0.2530 C   0  0  0  0  0  0  0  0  0  0  0  0
   -2.0730   -2.8890   -0.0530 C   0  0  0  0  0  0  0  0  0  0  0  0
   -1.3370   -1.6160   -0.2630 C   0  0  2  0  0  0  0  0  0  0  0  0
   -0.0860   -1.5310    0.3940 O   0  0  0  0  0  0  0  0  0  0  0  0
  2  1  1  6
  2  3  1  0
  2  4  1  0
  2  5  1  0
  4  5  1  0
  5  6  1  6
  6  7  2  0
  6 21  1  0
  7  8  1  0
  7 14  1  0
  8  9  2  0
  8 13  1  0
  9 10  1  0
 10 11  1  0
 11 12  1  0
 12 13  2  0
 14 15  1  0
 15 16  1  1
 15 17  1  0
 15 20  1  0
 17 18  1  0
 18 19  1  0
 20 19  1  1
 20 21  1  0
M  END
