
     RDKit          3D

 21 24  0  0  0  0  0  0  0  0999 V2000
   -4.4890    2.3700   -0.1940 O   0  0  0  0  0  0  0  0  0  0  0  0
   -3.3890    1.5760    0.0350 C   0  0  2  0  0  0  0  0  0  0  0  0
   -2.3500    1.6270   -1.1010 C   0  0  0  0  0  0  0  0  0  0  0  0
   -2.0550    0.2070   -0.7680 C   0  0  1  0  0  0  0  0  0  0  0  0
   -1.2010   -0.1460    0.3820 C   0  0  0  0  0  0  0  0  0  0  0  0
    0.1790    0.3320    0.4050 C   0  0  0  0  0  0  0  0  0  0  0  0
    1.1780   -0.5760    0.4200 C   0  0  0  0  0  0  0  0  0  0  0  0
    2.6080   -0.1550    0.4430 C   0  0  1  0  0  0  0  0  0  0  0  0
    3.4010   -1.3000    0.9970 C   0  0  0  0  0  0  0  0  0  0  0  0
    3.9400   -2.2430   -0.0140 C   0  0  0  0  0  0  0  0  0  0  0  0
    4.8340   -1.4060   -0.9410 C   0  0  0  0  0  0  0  0  0  0  0  0
    3.9200   -0.5060   -1.6900 C   0  0  0  0  0  0  0  0  0  0  0  0
    2.9900    0.3140   -0.8990 C   0  0  0  0  0  0  0  0  0  0  0  0
    2.7030    0.9590    1.4650 C   0  0  0  0  0  0  0  0  0  0  0  0
    1.7370    2.0600    1.2870 C   0  0  0  0  0  0  0  0  0  0  0  0
    0.5280    1.7500    0.4370 C   0  0  0  0  0  0  0  0  0  0  0  0
   -3.5290    0.1230   -0.3440 C   0  0  1  0  0  0  0  0  0  0  0  0
   -3.8800   -0.8590    0.6920 C   0  0  0  0  0  0  0  0  0  0  0  0
   -4.5290   -1.9660   -0.1540 C   0  0  0  0  0  0  0  0  0  0  0  0
   -5.2560   -1.2500   -1.0780 O   0  0  0  0  0  0  0  0  0  0  0  0
   -4.4790   -0.1670   -1.4630 C   0  0  0  0  0  0  0  0  0  0  0  0
  2  1  1  6
  2  3  1  0
  2 17  1  0
  3  4  1  0
  4  5  1  1
  4 17  1  0
  5  6  1  0
  6  7  2  0
  6 16  1  0
  7  8  1  0
  8  9  1  1
  8 13  1  0
  8 14  1  0
  9 10  1  0
 10 11  1  0
 11 12  1  0
 12 13  1  0
 14 15  1  0
 15 16  1  0
 17 18  1  1
 17 21  1  0
 18 19  1  0
 19 20  1  0
 20 21  1  0
M  END
