
     RDKit          3D

 21 24  0  0  0  0  0  0  0  0999 V2000
   -1.4640    1.0370   -1.3190 C   0  0  0  0  0  0  0  0  0  0  0  0
   -2.0170    0.0530   -0.3590 C   0  0  1  0  0  0  0  0  0  0  0  0
   -2.7560    0.8030    0.7570 C   0  0  2  0  0  0  0  0  0  0  0  0
   -3.9430    1.6490    0.2490 C   0  0  0  0  0  0  0  0  0  0  0  0
   -2.7140    2.2800    0.7900 C   0  0  0  0  0  0  0  0  0  0  0  0
   -3.0730   -0.5630   -1.0840 O   0  0  0  0  0  0  0  0  0  0  0  0
   -3.6160   -1.6260   -0.3890 C   0  0  0  0  0  0  0  0  0  0  0  0
   -2.6600   -2.8180   -0.4140 C   0  0  0  0  0  0  0  0  0  0  0  0
   -1.2850   -2.2390   -0.6920 C   0  0  0  0  0  0  0  0  0  0  0  0
   -1.1700   -0.9820    0.1880 C   0  0  2  0  0  0  0  0  0  0  0  0
   -1.7830   -1.3870    1.4140 O   0  0  0  0  0  0  0  0  0  0  0  0
    0.2230   -0.7580    0.5700 C   0  0  2  0  0  0  0  0  0  0  0  0
    0.3540    0.3180    1.6610 C   0  0  0  0  0  0  0  0  0  0  0  0
    1.8830    0.4970    1.6100 C   0  0  0  0  0  0  0  0  0  0  0  0
    2.0610    0.6620    0.1150 C   0  0  1  0  0  0  0  0  0  0  0  0
    3.4540    0.6710   -0.3170 C   0  0  0  0  0  0  0  0  0  0  0  0
    4.0690   -0.1620   -1.1020 C   0  0  0  0  0  0  0  0  0  0  0  0
    5.5090    0.2400   -1.2690 C   0  0  0  0  0  0  0  0  0  0  0  0
    5.5860    1.4460   -0.4360 C   0  0  0  0  0  0  0  0  0  0  0  0
    4.4100    1.6930    0.1090 C   0  0  0  0  0  0  0  0  0  0  0  0
    1.2480   -0.4820   -0.4380 C   0  0  0  0  0  0  0  0  0  0  0  0
  2  1  1  6
  2  3  1  0
  2  6  1  0
  2 10  1  0
  3  4  1  6
  3  5  1  0
  4  5  1  0
  6  7  1  0
  7  8  1  0
  8  9  1  0
  9 10  1  0
 10 11  1  1
 10 12  1  0
 12 13  1  1
 12 21  1  0
 13 14  1  0
 14 15  1  0
 15 16  1  1
 15 21  1  0
 16 17  2  0
 16 20  1  0
 17 18  1  0
 18 19  1  0
 19 20  2  0
M  END
