
     RDKit          3D

 20 20  0  0  0  0  0  0  0  0999 V2000
    0.2810    0.9710    0.8030 O   0  0  0  0  0  0  0  0  0  0  0  0
   -0.2890   -0.1210    0.5750 C   0  0  0  0  0  0  0  0  0  0  0  0
    0.5040   -1.2830    0.4280 N   0  0  0  0  0  0  0  0  0  0  0  0
    1.9460   -1.2420    0.5320 C   0  0  0  0  0  0  0  0  0  0  0  0
    2.5250   -0.3550   -0.5170 C   0  0  2  0  0  0  0  0  0  0  0  0
    2.1320   -0.8960   -1.7650 O   0  0  0  0  0  0  0  0  0  0  0  0
    4.0430   -0.3980   -0.5420 C   0  0  1  0  0  0  0  0  0  0  0  0
    4.4510    0.3800   -1.6260 O   0  0  0  0  0  0  0  0  0  0  0  0
    4.6360    0.2260    0.7000 C   0  0  0  0  0  0  0  0  0  0  0  0
    4.1980    1.5410    0.8720 O   0  0  0  0  0  0  0  0  0  0  0  0
   -1.7730   -0.1460    0.4680 C   0  0  2  0  0  0  0  0  0  0  0  0
   -2.3370   -1.0400    1.5550 C   0  0  0  0  0  0  0  0  0  0  0  0
   -1.8870   -2.3490    1.4740 O   0  0  0  0  0  0  0  0  0  0  0  0
   -2.2620   -0.6410   -0.8690 C   0  0  0  0  0  0  0  0  0  0  0  0
   -3.5150    0.1060   -1.3010 C   0  0  1  0  0  0  0  0  0  0  0  0
   -4.2440    0.4810   -0.1660 O   0  0  0  0  0  0  0  0  0  0  0  0
   -3.2350    1.2100   -2.0720 O   0  0  0  0  0  0  0  0  0  0  0  0
   -2.9140    2.3370   -1.3090 C   0  0  0  0  0  0  0  0  0  0  0  0
   -1.7470    1.9130   -0.4140 C   0  0  0  0  0  0  0  0  0  0  0  0
   -2.2860    1.1670    0.6200 O   0  0  0  0  0  0  0  0  0  0  0  0
  1  2  2  0
  2  3  1  0
  2 11  1  0
  3  4  1  0
  4  5  1  0
  5  6  1  6
  5  7  1  0
  7  8  1  6
  7  9  1  0
  9 10  1  0
 11 12  1  1
 11 14  1  0
 11 20  1  0
 12 13  1  0
 14 15  1  0
 15 16  1  1
 15 17  1  0
 17 18  1  0
 18 19  1  0
 19 20  1  0
M  END
