
     RDKit          3D

 25 27  0  0  0  0  0  0  0  0999 V2000
   -6.8820    0.9340    1.6100 C   0  0  0  0  0  0  0  0  0  0  0  0
   -6.2540    0.0370    0.5580 C   0  0  0  0  0  0  0  0  0  0  0  0
   -5.9350    0.8310   -0.6800 C   0  0  0  0  0  0  0  0  0  0  0  0
   -5.3120   -0.0660   -1.7220 C   0  0  0  0  0  0  0  0  0  0  0  0
   -4.0960   -0.6190   -1.1600 N   0  0  0  0  0  0  0  0  0  0  0  0
   -4.0220   -1.7340   -0.4880 N   0  0  0  0  0  0  0  0  0  0  0  0
   -2.9010   -2.2520    0.0350 C   0  0  0  0  0  0  0  0  0  0  0  0
   -1.7190   -1.5540   -0.1470 C   0  0  0  0  0  0  0  0  0  0  0  0
   -0.4450   -1.7260    0.2010 N   0  0  0  0  0  0  0  0  0  0  0  0
    0.2900   -0.7050   -0.2580 C   0  0  0  0  0  0  0  0  0  0  0  0
    1.6800   -0.5010   -0.1080 N   0  0  0  0  0  0  0  0  0  0  0  0
    2.3220    0.6320   -0.6510 C   0  0  0  0  0  0  0  0  0  0  0  0
    1.5760    1.4470   -1.2760 O   0  0  0  0  0  0  0  0  0  0  0  0
    3.7320    0.9140   -0.5440 C   0  0  0  0  0  0  0  0  0  0  0  0
    4.5550    0.1200    0.0840 C   0  0  0  0  0  0  0  0  0  0  0  0
    6.0010    0.4180    0.1890 C   0  0  0  0  0  0  0  0  0  0  0  0
    6.6700    1.5100   -0.3250 C   0  0  0  0  0  0  0  0  0  0  0  0
    7.9510    1.3750    0.0030 O   0  0  0  0  0  0  0  0  0  0  0  0
    8.1260    0.2730    0.6870 C   0  0  0  0  0  0  0  0  0  0  0  0
    9.4560   -0.1780    1.2110 C   0  0  0  0  0  0  0  0  0  0  0  0
    6.9380   -0.3210    0.8060 N   0  0  0  0  0  0  0  0  0  0  0  0
   -0.5420    0.1180   -0.9040 N   0  0  0  0  0  0  0  0  0  0  0  0
   -1.7790   -0.3830   -0.8490 C   0  0  0  0  0  0  0  0  0  0  0  0
   -2.9500    0.0930   -1.3570 C   0  0  0  0  0  0  0  0  0  0  0  0
   -2.9860    1.1630   -1.9940 O   0  0  0  0  0  0  0  0  0  0  0  0
  1  2  1  0
  2  3  1  0
  3  4  1  0
  4  5  1  0
  5  6  1  0
  5 24  1  0
  6  7  2  0
  7  8  1  0
  8  9  1  0
  8 23  2  0
  9 10  1  0
 10 11  1  0
 10 22  2  0
 11 12  1  0
 12 13  2  0
 12 14  1  0
 14 15  2  3
 15 16  1  0
 16 17  2  0
 16 21  1  0
 17 18  1  0
 18 19  1  0
 19 20  1  0
 19 21  2  0
 22 23  1  0
 23 24  1  0
 24 25  2  0
M  END
