
     RDKit          3D

 26 28  0  0  0  0  0  0  0  0999 V2000
   -5.2430   -0.4700    2.7190 C   0  0  0  0  0  0  0  0  0  0  0  0
   -5.2550   -0.6480    1.2220 C   0  0  0  0  0  0  0  0  0  0  0  0
   -3.9630   -0.3290    0.5850 C   0  0  0  0  0  0  0  0  0  0  0  0
   -3.3060   -1.2480   -0.1020 C   0  0  0  0  0  0  0  0  0  0  0  0
   -3.9470   -2.5900   -0.1810 C   0  0  0  0  0  0  0  0  0  0  0  0
   -2.0220   -1.0760   -0.8020 C   0  0  0  0  0  0  0  0  0  0  0  0
   -1.4600    0.2640   -0.6460 C   0  0  0  0  0  0  0  0  0  0  0  0
   -0.3430    0.5730   -1.1850 N   0  0  0  0  0  0  0  0  0  0  0  0
    0.2920    1.8820   -1.0770 C   0  0  0  0  0  0  0  0  0  0  0  0
    1.7110    2.1110   -1.2390 N   0  0  0  0  0  0  0  0  0  0  0  0
    2.1650    1.8350   -2.5060 C   0  0  0  0  0  0  0  0  0  0  0  0
    1.1610    1.5440   -3.2850 O   0  0  0  0  0  0  0  0  0  0  0  0
    3.5380    1.8600   -2.9490 C   0  0  0  0  0  0  0  0  0  0  0  0
    4.7000    2.2080   -1.6200 S   0  0  0  0  0  0  0  0  0  0  0  0
    4.8540    0.9070   -0.4430 C   0  0  0  0  0  0  0  0  0  0  0  0
    5.6870   -0.1610   -0.6350 N   0  0  0  0  0  0  0  0  0  0  0  0
    5.6090   -0.9870    0.3710 N   0  0  0  0  0  0  0  0  0  0  0  0
    6.3170   -2.2550    0.5870 C   0  0  0  0  0  0  0  0  0  0  0  0
    4.7190   -0.4510    1.2220 C   0  0  0  0  0  0  0  0  0  0  0  0
    4.3400   -0.9340    2.3440 O   0  0  0  0  0  0  0  0  0  0  0  0
    4.2500    0.7110    0.7330 N   0  0  0  0  0  0  0  0  0  0  0  0
   -0.3010    2.6980   -0.4360 N   0  0  0  0  0  0  0  0  0  0  0  0
   -1.5230    2.5430    0.2080 C   0  0  0  0  0  0  0  0  0  0  0  0
   -2.0070    3.4820    0.8120 O   0  0  0  0  0  0  0  0  0  0  0  0
   -2.1890    1.2550    0.1300 C   0  0  0  0  0  0  0  0  0  0  0  0
   -3.3460    0.9930    0.6940 C   0  0  0  0  0  0  0  0  0  0  0  0
  1  2  1  0
  2  3  1  0
  3  4  2  0
  3 26  1  0
  4  5  1  0
  4  6  1  0
  6  7  1  0
  7  8  2  0
  7 25  1  0
  8  9  1  0
  9 10  1  0
  9 22  2  0
 10 11  1  0
 11 12  2  0
 11 13  1  0
 13 14  1  0
 14 15  1  0
 15 16  2  0
 15 21  1  0
 16 17  1  0
 17 18  1  0
 17 19  1  0
 19 20  2  0
 19 21  1  0
 22 23  1  0
 23 24  2  0
 23 25  1  0
 25 26  2  0
M  END
