
     RDKit          3D

 26 28  0  0  0  0  0  0  0  0999 V2000
   -6.0940   -2.0490    0.6310 C   0  0  0  0  0  0  0  0  0  0  0  0
   -6.8990   -1.1110    0.2920 C   0  0  0  0  0  0  0  0  0  0  0  0
   -6.7430    0.2410   -0.1140 C   0  0  0  0  0  0  0  0  0  0  0  0
   -7.9370    0.8790   -0.3840 C   0  0  0  0  0  0  0  0  0  0  0  0
   -5.5640    1.0530   -0.2920 C   0  0  0  0  0  0  0  0  0  0  0  0
   -5.7680    2.2810   -0.6830 O   0  0  0  0  0  0  0  0  0  0  0  0
   -4.2270    0.7030   -0.1020 N   0  0  0  0  0  0  0  0  0  0  0  0
   -3.1140    1.6090   -0.3130 C   0  0  0  0  0  0  0  0  0  0  0  0
   -3.1190    2.9120   -0.7150 C   0  0  0  0  0  0  0  0  0  0  0  0
   -1.8090    3.2980   -0.7530 N   0  0  0  0  0  0  0  0  0  0  0  0
   -1.0300    2.2710   -0.3890 C   0  0  0  0  0  0  0  0  0  0  0  0
    0.2360    1.8640   -0.1860 N   0  0  0  0  0  0  0  0  0  0  0  0
    0.2520    0.5740    0.2120 C   0  0  0  0  0  0  0  0  0  0  0  0
    1.4690   -0.2500    0.5400 C   0  0  2  0  0  0  0  0  0  0  0  0
    2.1720    0.3940    1.7020 C   0  0  0  0  0  0  0  0  0  0  0  0
    3.2190    1.3450    1.1900 C   0  0  0  0  0  0  0  0  0  0  0  0
    4.2380    0.6710    0.3150 C   0  0  0  0  0  0  0  0  0  0  0  0
    3.7190   -0.3950   -0.4660 N   0  0  0  0  0  0  0  0  0  0  0  0
    4.3980   -1.9260   -0.0810 S   0  0  2  0  0  0  0  0  0  0  0  0
    3.7590   -3.0130   -0.8910 O   0  0  0  0  0  0  0  0  0  0  0  0
    4.2090   -2.2730    1.3830 O   0  0  0  0  0  0  0  0  0  0  0  0
    6.1510   -1.9570   -0.3720 C   0  0  0  0  0  0  0  0  0  0  0  0
    6.4840   -1.6730   -1.8150 C   0  0  0  0  0  0  0  0  0  0  0  0
    2.3170   -0.4120   -0.6750 C   0  0  0  0  0  0  0  0  0  0  0  0
   -1.0390    0.2000    0.2480 N   0  0  0  0  0  0  0  0  0  0  0  0
   -1.8180    1.2210   -0.1140 N   0  0  0  0  0  0  0  0  0  0  0  0
  1  2  2  0
  2  3  1  0
  3  4  2  0
  3  5  1  0
  5  6  2  0
  5  7  1  0
  7  8  1  0
  8  9  2  0
  8 26  1  0
  9 10  1  0
 10 11  2  0
 11 12  1  0
 11 26  1  0
 12 13  2  0
 14 13  1  6
 13 25  1  0
 14 15  1  0
 14 24  1  0
 15 16  1  0
 16 17  1  0
 17 18  1  0
 18 19  1  0
 18 24  1  0
 19 20  2  0
 19 21  2  0
 19 22  1  6
 22 23  1  0
 25 26  1  0
M  END
