
     RDKit          3D

 10 10  0  0  0  0  0  0  0  0999 V2000
   -2.5470    0.6160    0.4870 O   0  0  0  0  0  0  0  0  0  0  0  0
   -1.6630   -0.4190    0.2200 C   0  0  0  0  0  0  0  0  0  0  0  0
   -0.3750   -0.1720    0.0780 C   0  0  0  0  0  0  0  0  0  0  0  0
    0.2700    1.1310    0.1720 C   0  0  0  0  0  0  0  0  0  0  0  0
   -0.6230    2.7800    0.5270 Br  0  0  0  0  0  0  0  0  0  0  0  0
    1.5830    0.9540   -0.0330 C   0  0  0  0  0  0  0  0  0  0  0  0
    1.8340   -0.4750   -0.2680 C   0  0  0  0  0  0  0  0  0  0  0  0
    3.5730   -1.2160   -0.6110 Br  0  0  0  0  0  0  0  0  0  0  0  0
    0.6780   -1.1370   -0.2030 C   0  0  0  0  0  0  0  0  0  0  0  0
    0.4630   -3.0220   -0.4390 Br  0  0  0  0  0  0  0  0  0  0  0  0
  1  2  1  0
  2  3  2  3
  3  4  1  0
  3  9  1  0
  4  5  1  0
  4  6  2  0
  6  7  1  0
  7  8  1  0
  7  9  2  0
  9 10  1  0
M  END
