
     RDKit          3D

 12 12  0  0  0  0  0  0  0  0999 V2000
   -2.4320    0.7080    1.5130 Br  0  0  0  0  0  0  0  0  0  0  0  0
   -2.3970   -0.0030   -0.2790 C   0  0  0  0  0  0  0  0  0  0  0  0
   -4.0400   -0.3950   -1.1710 Br  0  0  0  0  0  0  0  0  0  0  0  0
   -1.2680   -0.2300   -0.9190 C   0  0  0  0  0  0  0  0  0  0  0  0
   -1.3580   -0.9370   -2.7050 Br  0  0  0  0  0  0  0  0  0  0  0  0
    0.0640   -0.0100   -0.3420 C   0  0  0  0  0  0  0  0  0  0  0  0
    1.0120    0.6740   -0.9290 O   0  0  0  0  0  0  0  0  0  0  0  0
    2.1040    0.7150   -0.1950 C   0  0  0  0  0  0  0  0  0  0  0  0
    3.6850    1.6240   -0.7390 Br  0  0  0  0  0  0  0  0  0  0  0  0
    1.8590    0.0090    0.9550 C   0  0  0  0  0  0  0  0  0  0  0  0
    0.5550   -0.4610    0.8710 C   0  0  0  0  0  0  0  0  0  0  0  0
   -0.3350   -1.5390    2.1660 Br  0  0  0  0  0  0  0  0  0  0  0  0
  1  2  1  0
  2  3  1  0
  2  4  2  3
  4  5  1  0
  4  6  1  0
  6  7  1  0
  6 11  2  0
  7  8  1  0
  8  9  1  0
  8 10  2  0
 10 11  1  0
 11 12  1  0
M  END
