
     RDKit          3D

 11 11  0  0  0  0  0  0  0  0999 V2000
   -1.8050   -0.7770   -0.5530 C   0  0  0  0  0  0  0  0  0  0  0  0
   -1.0760   -0.1950    0.4740 O   0  0  0  0  0  0  0  0  0  0  0  0
    0.0900    0.5510    0.3290 C   0  0  0  0  0  0  0  0  0  0  0  0
    1.2090   -0.1000    0.3150 C   0  0  0  0  0  0  0  0  0  0  0  0
    2.8560    0.8450    0.1200 Br  0  0  0  0  0  0  0  0  0  0  0  0
    1.2390   -1.6020    0.4540 C   0  0  0  0  0  0  0  0  0  0  0  0
    2.0500   -2.3070   -1.1250 Br  0  0  0  0  0  0  0  0  0  0  0  0
   -0.0580    1.9910    0.2080 C   0  0  2  0  0  0  0  0  0  0  0  0
    1.5730    3.0040    0.0820 Br  0  0  0  0  0  0  0  0  0  0  0  0
   -1.0310    2.7240    1.7510 Br  0  0  0  0  0  0  0  0  0  0  0  0
   -1.1060    2.4190   -1.4030 Br  0  0  0  0  0  0  0  0  0  0  0  0
  1  2  1  0
  2  3  1  0
  3  4  2  0
  3  8  1  0
  4  5  1  0
  4  6  1  0
  6  7  1  0
  8  9  1  0
  8 10  1  1
  8 11  1  0
  9  5  1  0
M  END
