
     RDKit          3D

 31 33  0  0  0  0  0  0  0  0999 V2000
   -1.9170    1.7930   -1.7210 C   0  0  0  0  0  0  0  0  0  0  0  0
   -2.9500    0.8830   -1.6370 O   0  0  0  0  0  0  0  0  0  0  0  0
   -3.4060    0.7420   -0.3280 C   0  0  2  0  0  0  0  0  0  0  0  0
   -4.4400   -0.1640   -0.2220 O   0  0  0  0  0  0  0  0  0  0  0  0
   -5.4320    0.2680   -0.9720 O   0  0  0  0  0  0  0  0  0  0  0  0
   -5.0100   -0.0100   -2.6200 P   0  0  0  0  0  0  0  0  0  0  0  0
   -5.3690    1.3600   -3.6210 O   0  0  0  0  0  0  0  0  0  0  0  0
   -5.6560   -1.4700   -3.2500 O   0  0  0  0  0  0  0  0  0  0  0  0
   -3.8540    1.9530    0.1960 O   0  0  0  0  0  0  0  0  0  0  0  0
   -3.5850    1.8360    1.4580 O   0  0  0  0  0  0  0  0  0  0  0  0
   -2.4300    1.2230    1.5640 O   0  0  0  0  0  0  0  0  0  0  0  0
   -2.2830    0.4390    0.5010 N   0  0  0  0  0  0  0  0  0  0  0  0
   -2.2450   -0.9700    0.8300 C   0  0  0  0  0  0  0  0  0  0  0  0
   -1.0620   -1.2420    1.6930 C   0  0  0  0  0  0  0  0  0  0  0  0
   -1.2680   -1.7310    2.8600 N   0  0  0  0  0  0  0  0  0  0  0  0
    0.2240   -0.9960    1.3020 O   0  0  0  0  0  0  0  0  0  0  0  0
    1.4030   -1.2670    2.0060 C   0  0  2  0  0  0  0  0  0  0  0  0
    1.6260   -3.0680    2.3920 P   0  0  0  0  0  0  0  0  0  0  0  0
    2.3830   -3.4590    3.6930 O   0  0  0  0  0  0  0  0  0  0  0  0
    1.3640   -0.5370    3.2560 N   0  0  0  0  0  0  0  0  0  0  0  0
    2.3260    0.3040    3.3620 C   0  0  0  0  0  0  0  0  0  0  0  0
    3.1200    0.2430    2.2090 O   0  0  0  0  0  0  0  0  0  0  0  0
    2.6010   -0.7020    1.3450 C   0  0  0  0  0  0  0  0  0  0  0  0
    3.2120   -1.1040   -0.1260 P   0  0  0  0  0  0  0  0  0  0  0  0
    4.7340   -0.2820   -0.7930 C   0  0  2  0  0  0  0  0  0  0  0  0
    5.8420   -0.6250   -0.0540 O   0  0  0  0  0  0  0  0  0  0  0  0
    4.5640    1.0900   -0.7920 O   0  0  0  0  0  0  0  0  0  0  0  0
    3.2450    1.3930   -1.3160 C   0  0  0  0  0  0  0  0  0  0  0  0
    3.0760    0.2370   -2.5450 P   0  0  0  0  0  0  0  0  0  0  0  0
    4.8820   -0.5930   -2.2160 N   0  0  0  0  0  0  0  0  0  0  0  0
    5.7490    0.3660   -2.7640 N   0  0  0  0  0  0  0  0  0  0  0  0
  1  2  1  0
  3  2  1  6
  3  4  1  0
  3  9  1  0
  3 12  1  0
  4  5  1  0
  5  6  1  0
  6  7  1  0
  6  8  1  0
  9 10  1  0
 10 11  1  0
 11 12  1  0
 12 13  1  0
 13 14  1  0
 14 15  2  0
 14 16  1  0
 17 16  1  6
 17 18  1  0
 17 20  1  0
 17 23  1  0
 18 19  2  0
 20 21  2  0
 21 22  1  0
 22 23  1  0
 23 24  2  3
 24 25  1  0
 25 26  1  1
 25 27  1  0
 25 30  1  0
 27 28  1  0
 28 29  2  0
 29 30  1  0
 30 31  1  0
M  END
