
     RDKit          3D

 32 32  0  0  0  0  0  0  0  0999 V2000
   -3.0900   -2.8480   -1.6690 C   0  0  0  0  0  0  0  0  0  0  0  0
   -3.3160   -1.9120   -0.4780 C   0  0  2  0  0  0  0  0  0  0  0  0
   -4.6480   -1.7830   -0.1750 O   0  0  0  0  0  0  0  0  0  0  0  0
   -4.8160   -1.6120    1.1020 O   0  0  0  0  0  0  0  0  0  0  0  0
   -3.6850   -1.3710    1.7160 O   0  0  0  0  0  0  0  0  0  0  0  0
   -3.8570   -0.2930    2.4930 O   0  0  0  0  0  0  0  0  0  0  0  0
   -3.0560   -0.0550    3.6150 C   0  0  0  0  0  0  0  0  0  0  0  0
   -3.5720    0.4120    4.6780 O   0  0  0  0  0  0  0  0  0  0  0  0
   -1.6190   -0.3250    3.6260 C   0  0  0  0  0  0  0  0  0  0  0  0
   -1.1530   -0.8150    4.7150 O   0  0  0  0  0  0  0  0  0  0  0  0
   -0.7680   -0.0710    2.5180 N   0  0  0  0  0  0  0  0  0  0  0  0
   -0.8630    1.0040    1.7110 O   0  0  0  0  0  0  0  0  0  0  0  0
   -0.3610    0.8180    0.4540 C   0  0  1  0  0  0  0  0  0  0  0  0
   -0.7640    2.0510   -0.3700 C   0  0  0  0  0  0  0  0  0  0  0  0
   -0.1920    3.3110    0.2410 C   0  0  0  0  0  0  0  0  0  0  0  0
   -0.7490    4.7270   -0.8430 P   0  0  0  0  0  0  0  0  0  0  0  0
   -2.2000    5.3660   -0.1930 O   0  0  0  0  0  0  0  0  0  0  0  0
   -0.9040    4.1400   -2.4470 O   0  0  0  0  0  0  0  0  0  0  0  0
    1.1710    0.7250    0.4760 C   0  0  0  0  0  0  0  0  0  0  0  0
    1.5810    0.5310   -0.9020 N   0  0  0  0  0  0  0  0  0  0  0  0
    3.3380    0.3990   -1.0880 P   0  0  0  0  0  0  0  0  0  0  0  0
    3.7550    0.4730   -2.7580 O   0  0  0  0  0  0  0  0  0  0  0  0
    4.0710   -1.0410   -0.2160 C   0  0  1  0  0  0  0  0  0  0  0  0
    5.1460   -0.5390    0.6430 N   0  0  0  0  0  0  0  0  0  0  0  0
    3.1820   -1.7500    0.5550 O   0  0  0  0  0  0  0  0  0  0  0  0
    4.7650   -1.9320   -1.2510 C   0  0  0  0  0  0  0  0  0  0  0  0
    5.6740   -1.1790   -1.9610 O   0  0  0  0  0  0  0  0  0  0  0  0
   -0.9840   -0.6540   -0.4280 P   0  0  0  0  0  0  0  0  0  0  0  0
   -0.2200   -2.5380    0.3220 P   0  0  0  0  0  0  0  0  0  0  0  0
   -0.1760   -3.7740   -0.6230 O   0  0  0  0  0  0  0  0  0  0  0  0
   -2.6860   -0.6580   -0.8280 N   0  0  0  0  0  0  0  0  0  0  0  0
   -3.3860    0.4120   -0.4880 O   0  0  0  0  0  0  0  0  0  0  0  0
  2  1  1  6
  2  3  1  0
  2 31  1  0
  3  4  1  0
  4  5  1  0
  5  6  1  0
  6  7  1  0
  7  8  2  0
  7  9  1  0
  9 10  2  0
  9 11  1  0
 11 12  1  0
 12 13  1  0
 13 14  1  6
 13 19  1  0
 13 28  1  0
 14 15  1  0
 15 16  1  0
 16 17  1  0
 16 18  1  0
 19 20  1  0
 20 21  1  0
 21 22  1  0
 21 23  1  0
 23 24  1  1
 23 25  1  0
 23 26  1  0
 26 27  1  0
 28 29  1  0
 28 31  1  0
 29 30  2  0
 31 32  1  0
M  END
