
     RDKit          3D

 12 11  0  0  0  0  0  0  0  0999 V2000
    3.5360   -1.1450    1.3710 O   0  0  0  0  0  0  0  0  0  0  0  0
    3.9740   -0.2790    0.3770 C   0  0  0  0  0  0  0  0  0  0  0  0
    3.1020    0.8060    0.3410 O   0  0  0  0  0  0  0  0  0  0  0  0
    1.7890    0.3340    0.0490 C   0  0  0  0  0  0  0  0  0  0  0  0
    0.9760    1.4210    0.0230 O   0  0  0  0  0  0  0  0  0  0  0  0
   -0.3320    1.2160   -0.2520 C   0  0  0  0  0  0  0  0  0  0  0  0
   -1.0680    0.3260    0.7040 C   0  0  2  0  0  0  0  0  0  0  0  0
   -0.5460   -0.9460    0.7080 O   0  0  0  0  0  0  0  0  0  0  0  0
   -2.5360    0.3100    0.3190 C   0  0  1  0  0  0  0  0  0  0  0  0
   -3.1000    1.5700    0.2970 O   0  0  0  0  0  0  0  0  0  0  0  0
   -2.6730   -0.4070   -0.9980 C   0  0  0  0  0  0  0  0  0  0  0  0
   -2.0910   -1.6620   -0.9380 O   0  0  0  0  0  0  0  0  0  0  0  0
  1  2  1  0
  2  3  1  0
  3  4  1  0
  4  5  1  0
  5  6  1  0
  6  7  1  0
  7  8  1  6
  7  9  1  0
  9 10  1  6
  9 11  1  0
 11 12  1  0
M  END
