
     RDKit          3D

 12 11  0  0  0  0  0  0  0  0999 V2000
    1.2430   -0.8990   -0.4870 O   0  0  0  0  0  0  0  0  0  0  0  0
    0.8340    0.2210   -0.0980 C   0  0  0  0  0  0  0  0  0  0  0  0
   -0.5730    0.4700    0.3270 C   0  0  0  0  0  0  0  0  0  0  0  0
   -1.3440   -0.6740    0.2360 O   0  0  0  0  0  0  0  0  0  0  0  0
   -2.6270   -0.3770    0.6410 C   0  0  2  0  0  0  0  0  0  0  0  0
   -3.0400   -1.2070    1.7090 O   0  0  0  0  0  0  0  0  0  0  0  0
   -3.5810   -0.6740   -0.5010 C   0  0  0  0  0  0  0  0  0  0  0  0
   -4.8730   -0.3580   -0.0450 O   0  0  0  0  0  0  0  0  0  0  0  0
    1.7370    1.2610   -0.0680 O   0  0  0  0  0  0  0  0  0  0  0  0
    3.0630    1.0690   -0.4580 C   0  0  0  0  0  0  0  0  0  0  0  0
    3.8190    0.0530    0.3460 C   0  0  0  0  0  0  0  0  0  0  0  0
    5.1210    0.0050   -0.1950 O   0  0  0  0  0  0  0  0  0  0  0  0
  1  2  2  0
  2  3  1  0
  2  9  1  0
  3  4  1  0
  4  5  1  0
  5  6  1  1
  5  7  1  0
  7  8  1  0
  9 10  1  0
 10 11  1  0
 11 12  1  0
M  END
