
     RDKit          3D

 19 21  0  0  0  0  0  0  0  0999 V2000
   -2.3720   -3.1550   -0.4370 N   0  0  0  0  0  0  0  0  0  0  0  0
   -2.5000   -1.7270   -0.6500 C   0  0  1  0  0  0  0  0  0  0  0  0
   -3.4280   -1.0840    0.3590 C   0  0  0  0  0  0  0  0  0  0  0  0
   -3.0320    0.3810    0.2470 C   0  0  0  0  0  0  0  0  0  0  0  0
   -1.6350    0.3480   -0.1440 N   0  0  0  0  0  0  0  0  0  0  0  0
   -0.8550    1.5310   -0.3080 C   0  0  0  0  0  0  0  0  0  0  0  0
   -1.4090    2.5460   -0.8770 N   0  0  0  0  0  0  0  0  0  0  0  0
   -0.9050    3.8140   -1.1690 N   0  0  0  0  0  0  0  0  0  0  0  0
    0.2520    4.4430   -0.5940 C   0  0  0  0  0  0  0  0  0  0  0  0
    1.2410    3.8160    0.0610 C   0  0  0  0  0  0  0  0  0  0  0  0
    1.4250    2.4130    0.3650 C   0  0  0  0  0  0  0  0  0  0  0  0
    0.5310    1.4480    0.2050 C   0  0  0  0  0  0  0  0  0  0  0  0
    0.8820    0.1760    0.5470 O   0  0  0  0  0  0  0  0  0  0  0  0
    2.1890   -0.2630    0.7230 C   0  0  1  0  0  0  0  0  0  0  0  0
    2.2430   -1.7500    1.1030 C   0  0  0  0  0  0  0  0  0  0  0  0
    3.6330   -2.0940    0.6360 C   0  0  0  0  0  0  0  0  0  0  0  0
    4.0800   -1.0970   -0.1790 O   0  0  0  0  0  0  0  0  0  0  0  0
    2.9990   -0.3080   -0.5530 C   0  0  0  0  0  0  0  0  0  0  0  0
   -1.1820   -1.0110   -0.3310 C   0  0  0  0  0  0  0  0  0  0  0  0
  2  1  1  1
  2  3  1  0
  2 19  1  0
  3  4  1  0
  4  5  1  0
  5  6  1  0
  5 19  1  0
  6  7  2  0
  6 12  1  0
  7  8  1  0
  8  9  1  0
  9 10  2  0
 10 11  1  0
 11 12  2  0
 12 13  1  0
 14 13  1  6
 14 15  1  0
 14 18  1  0
 15 16  1  0
 16 17  1  0
 17 18  1  0
M  CHG  1   1   1
M  END
