
     RDKit          3D

 13 12  0  0  0  0  0  0  0  0999 V2000
    1.4850    2.2030    1.0800 O   0  0  0  0  0  0  0  0  0  0  0  0
    1.6460    1.1570    0.3340 C   0  0  0  0  0  0  0  0  0  0  0  0
    2.7960    0.3760    0.4630 O   0  0  0  0  0  0  0  0  0  0  0  0
    0.6040    0.8170   -0.6360 C   0  0  0  0  0  0  0  0  0  0  0  0
   -0.2240   -0.3900   -0.2950 C   0  0  2  0  0  0  0  0  0  0  0  0
   -1.1630   -0.4870   -1.3510 O   0  0  0  0  0  0  0  0  0  0  0  0
   -0.9730   -0.3110    0.9800 C   0  0  0  0  0  0  0  0  0  0  0  0
   -1.9200    0.8080    0.9800 C   0  0  0  0  0  0  0  0  0  0  0  0
   -2.4940    1.1150    2.0500 O   0  0  0  0  0  0  0  0  0  0  0  0
   -2.2470    1.5750   -0.1170 O   0  0  0  0  0  0  0  0  0  0  0  0
    0.6330   -1.6110   -0.3870 C   0  0  0  0  0  0  0  0  0  0  0  0
    1.5330   -1.8740    0.4510 O   0  0  0  0  0  0  0  0  0  0  0  0
    0.4080   -2.4780   -1.4490 O   0  0  0  0  0  0  0  0  0  0  0  0
  1  2  2  0
  2  3  1  0
  2  4  1  0
  4  5  1  0
  5  6  1  6
  5  7  1  0
  5 11  1  0
  7  8  1  0
  8  9  2  0
  8 10  1  0
 11 12  2  0
 11 13  1  0
M  END
