
     RDKit          3D

 25 28  0  0  0  0  0  0  0  0999 V2000
   -5.5690    2.9010   -0.7080 C   0  0  0  0  0  0  0  0  0  0  0  0
   -4.9130    1.5960   -0.4910 C   0  0  0  0  0  0  0  0  0  0  0  0
   -5.4930    0.3550   -0.3640 C   0  0  0  0  0  0  0  0  0  0  0  0
   -4.4830   -0.5870   -0.1710 C   0  0  0  0  0  0  0  0  0  0  0  0
   -4.7440   -2.0240    0.0110 C   0  0  0  0  0  0  0  0  0  0  0  0
   -6.1910   -2.2650   -0.0650 N   0  0  0  0  0  0  0  0  0  0  0  0
   -3.3030    0.1110   -0.1850 C   0  0  0  0  0  0  0  0  0  0  0  0
   -1.9560   -0.4080   -0.0280 C   0  0  0  0  0  0  0  0  0  0  0  0
   -0.8100    0.3160   -0.0480 N   0  0  0  0  0  0  0  0  0  0  0  0
    0.2590   -0.4900    0.1250 C   0  0  0  0  0  0  0  0  0  0  0  0
    1.6680   -0.0660    0.1610 C   0  0  0  0  0  0  0  0  0  0  0  0
    2.7870   -0.7750    0.3250 N   0  0  0  0  0  0  0  0  0  0  0  0
    3.8880    0.0150    0.2930 C   0  0  0  0  0  0  0  0  0  0  0  0
    5.2460   -0.2250    0.4110 C   0  0  0  0  0  0  0  0  0  0  0  0
    6.1680    0.7990    0.3380 C   0  0  0  0  0  0  0  0  0  0  0  0
    7.6370    0.5650    0.4630 C   0  0  0  0  0  0  0  0  0  0  0  0
    5.6570    2.0710    0.1400 C   0  0  0  0  0  0  0  0  0  0  0  0
    6.5440    3.1600    0.0560 N   0  0  0  0  0  0  0  0  0  0  0  0
    4.3250    2.2810    0.0270 N   0  0  0  0  0  0  0  0  0  0  0  0
    3.4200    1.2940    0.0970 C   0  0  0  0  0  0  0  0  0  0  0  0
    2.0820    1.2250    0.0200 N   0  0  0  0  0  0  0  0  0  0  0  0
   -0.2290   -1.7570    0.2580 C   0  0  0  0  0  0  0  0  0  0  0  0
    0.5090   -3.0120    0.4680 C   0  0  0  0  0  0  0  0  0  0  0  0
   -1.5790   -1.6710    0.1600 N   0  0  0  0  0  0  0  0  0  0  0  0
   -3.5890    1.4220   -0.3790 N   0  0  0  0  0  0  0  0  0  0  0  0
  1  2  1  0
  2  3  2  0
  2 25  1  0
  3  4  1  0
  4  5  1  0
  4  7  2  0
  5  6  1  0
  7  8  1  0
  7 25  1  0
  8  9  2  0
  8 24  1  0
  9 10  1  0
 10 11  1  0
 10 22  2  0
 11 12  1  0
 11 21  2  0
 12 13  1  0
 13 14  2  0
 13 20  1  0
 14 15  1  0
 15 16  1  0
 15 17  2  0
 17 18  1  0
 17 19  1  0
 19 20  2  0
 20 21  1  0
 22 23  1  0
 22 24  1  0
M  CHG  2   6   1  21   1
M  END
