
     RDKit          3D

 25 27  0  0  0  0  0  0  0  0999 V2000
   -3.5500   -0.6410   -2.7740 C   0  0  0  0  0  0  0  0  0  0  0  0
   -3.2170   -1.0650   -1.3790 C   0  0  0  0  0  0  0  0  0  0  0  0
   -3.7910   -1.9750   -0.6800 N   0  0  0  0  0  0  0  0  0  0  0  0
   -3.2150   -2.1300    0.6250 C   0  0  0  0  0  0  0  0  0  0  0  0
   -2.2110   -1.0810    0.6760 N   0  0  0  0  0  0  0  0  0  0  0  0
   -1.4340   -0.7650    1.8580 C   0  0  0  0  0  0  0  0  0  0  0  0
   -2.1580   -0.4250   -0.5690 C   0  0  0  0  0  0  0  0  0  0  0  0
   -1.4050    0.5570   -0.9570 C   0  0  0  0  0  0  0  0  0  0  0  0
   -0.3540    1.2400   -0.2650 C   0  0  0  0  0  0  0  0  0  0  0  0
   -0.4800    2.5430    0.0380 N   0  0  0  0  0  0  0  0  0  0  0  0
    0.5060    3.2260    0.6480 C   0  0  0  0  0  0  0  0  0  0  0  0
    0.3700    4.6590    0.9830 C   0  0  0  0  0  0  0  0  0  0  0  0
   -0.9370    5.1420    0.5560 N   0  0  0  0  0  0  0  0  0  0  0  0
    1.6660    2.5500    0.9600 C   0  0  0  0  0  0  0  0  0  0  0  0
    2.7650    3.1910    1.6070 N   0  0  0  0  0  0  0  0  0  0  0  0
    1.7790    1.2520    0.6510 N   0  0  0  0  0  0  0  0  0  0  0  0
    0.8160    0.5410    0.0430 C   0  0  0  0  0  0  0  0  0  0  0  0
    0.9770   -0.8090   -0.3080 N   0  0  0  0  0  0  0  0  0  0  0  0
    2.0730   -1.6500   -0.0690 C   0  0  0  0  0  0  0  0  0  0  0  0
    3.1990   -1.2690    0.5810 C   0  0  0  0  0  0  0  0  0  0  0  0
    4.2530   -2.1700    0.7830 C   0  0  0  0  0  0  0  0  0  0  0  0
    4.1630   -3.4580    0.3270 C   0  0  0  0  0  0  0  0  0  0  0  0
    3.0350   -3.8520   -0.3280 C   0  0  0  0  0  0  0  0  0  0  0  0
    2.0140   -2.9650   -0.5200 C   0  0  0  0  0  0  0  0  0  0  0  0
    0.8600   -3.4490   -1.2150 N   0  0  0  0  0  0  0  0  0  0  0  0
  1  2  1  0
  2  3  2  0
  2  7  1  0
  3  4  1  0
  4  5  1  0
  5  6  1  0
  5  7  1  0
  7  8  2  3
  8  9  1  0
  9 10  2  0
  9 17  1  0
 10 11  1  0
 11 12  1  0
 11 14  2  0
 12 13  1  0
 14 15  1  0
 14 16  1  0
 16 17  2  0
 17 18  1  0
 18 19  1  0
 19 20  2  0
 19 24  1  0
 20 21  1  0
 21 22  2  0
 22 23  1  0
 23 24  2  0
 24 25  1  0
M  CHG  2   3   1  13   1
M  END
