
     RDKit          3D

 25 28  0  0  0  0  0  0  0  0999 V2000
   -2.5690   -0.5990    1.8490 N   0  0  0  0  0  0  0  0  0  0  0  0
   -2.6090   -0.1910    0.4910 C   0  0  0  0  0  0  0  0  0  0  0  0
   -3.7170    0.0380   -0.0790 N   0  0  0  0  0  0  0  0  0  0  0  0
   -4.9870   -0.0710    0.5130 C   0  0  0  0  0  0  0  0  0  0  0  0
   -5.2860    0.0890    1.7910 C   0  0  0  0  0  0  0  0  0  0  0  0
   -6.7680   -0.1210    1.9770 C   0  0  0  0  0  0  0  0  0  0  0  0
   -7.0070   -1.0600    0.8660 N   0  0  0  0  0  0  0  0  0  0  0  0
   -6.2600   -0.3860   -0.1770 C   0  0  0  0  0  0  0  0  0  0  0  0
   -1.3370   -0.0460   -0.2230 C   0  0  0  0  0  0  0  0  0  0  0  0
   -0.1290   -0.2940    0.3920 C   0  0  0  0  0  0  0  0  0  0  0  0
    1.0710   -0.1570   -0.2800 C   0  0  0  0  0  0  0  0  0  0  0  0
    2.2500   -0.4000    0.3240 N   0  0  0  0  0  0  0  0  0  0  0  0
    3.4190   -0.2600   -0.3530 C   0  0  0  0  0  0  0  0  0  0  0  0
    4.6260   -0.5200    0.2990 C   0  0  0  0  0  0  0  0  0  0  0  0
    5.7980   -0.3680   -0.4170 C   0  0  0  0  0  0  0  0  0  0  0  0
    7.1270   -0.6210    0.1940 C   0  0  0  0  0  0  0  0  0  0  0  0
    7.5790    0.6580    0.7420 N   0  0  0  0  0  0  0  0  0  0  0  0
    5.7580    0.0280   -1.7350 C   0  0  0  0  0  0  0  0  0  0  0  0
    4.5730    0.2830   -2.3750 C   0  0  0  0  0  0  0  0  0  0  0  0
    3.3810    0.1360   -1.6730 C   0  0  0  0  0  0  0  0  0  0  0  0
    2.1870    0.3710   -2.2440 N   0  0  0  0  0  0  0  0  0  0  0  0
    1.0100    0.2420   -1.6020 C   0  0  0  0  0  0  0  0  0  0  0  0
   -0.1700    0.4790   -2.1850 N   0  0  0  0  0  0  0  0  0  0  0  0
   -1.3460    0.3530   -1.5540 C   0  0  0  0  0  0  0  0  0  0  0  0
   -2.5910    0.6080   -2.1850 N   0  0  0  0  0  0  0  0  0  0  0  0
  1  2  1  0
  2  3  2  3
  2  9  1  0
  3  4  1  0
  4  5  2  0
  4  8  1  0
  5  6  1  0
  6  7  1  0
  7  8  1  0
  9 10  2  0
  9 24  1  0
 10 11  1  0
 11 12  2  0
 11 22  1  0
 12 13  1  0
 13 14  2  0
 13 20  1  0
 14 15  1  0
 15 16  1  0
 15 18  2  0
 16 17  1  0
 18 19  1  0
 19 20  2  0
 20 21  1  0
 21 22  2  0
 22 23  1  0
 23 24  2  0
 24 25  1  0
M  CHG  2   7   1  17   1
M  END
