
     RDKit          3D

 20 19  0  0  0  0  0  0  0  0999 V2000
    0.7340   -3.7250    1.4140 N   0  0  0  0  0  0  0  0  0  0  0  0
    0.6390   -2.3970    0.9460 C   0  0  0  0  0  0  0  0  0  0  0  0
    1.0760   -2.0830   -0.5840 S   0  0  0  0  0  0  0  0  0  0  0  0
    0.2010   -1.3170    1.8450 C   0  0  0  0  0  0  0  0  0  0  0  0
   -0.3310   -0.1310    1.1340 C   0  0  2  0  0  0  0  0  0  0  0  0
   -1.5270   -0.5040    0.4480 O   0  0  0  0  0  0  0  0  0  0  0  0
   -2.2440    0.3420   -0.3160 C   0  0  0  0  0  0  0  0  0  0  0  0
   -2.6600    0.1840   -1.4750 C   0  0  0  0  0  0  0  0  0  0  0  0
   -2.4030   -1.0730   -2.2720 C   0  0  0  0  0  0  0  0  0  0  0  0
   -3.6990   -1.5780   -2.5600 O   0  0  0  0  0  0  0  0  0  0  0  0
   -2.5520    1.6870    0.3550 C   0  0  0  0  0  0  0  0  0  0  0  0
   -3.2270    2.5380   -0.4720 O   0  0  0  0  0  0  0  0  0  0  0  0
    0.5910    0.5380    0.2320 C   0  0  0  0  0  0  0  0  0  0  0  0
    0.5560    0.8710   -0.8420 O   0  0  0  0  0  0  0  0  0  0  0  0
    2.0510    0.8390    1.1220 N   0  0  0  0  0  0  0  0  0  0  0  0
    2.7490    1.4460   -0.0750 C   0  0  0  0  0  0  0  0  0  0  0  0
    2.2900    1.9790   -0.9760 O   0  0  0  0  0  0  0  0  0  0  0  0
    4.1500    1.1250    0.3220 N   0  0  0  0  0  0  0  0  0  0  0  0
    4.8700    2.2040   -0.8410 C   0  0  0  0  0  0  0  0  0  0  0  0
    4.1320    2.7890   -1.4700 O   0  0  0  0  0  0  0  0  0  0  0  0
  1  2  1  0
  2  3  2  0
  2  4  1  0
  5  4  1  6
  5  6  1  0
  5 13  1  0
  6  7  1  0
  7  8  2  3
  7 11  1  0
  8  9  1  0
  9 10  1  0
 11 12  1  0
 13 14  2  0
 13 15  1  0
 15 16  1  0
 16 17  2  0
 16 18  1  0
 18 19  1  0
 19 20  2  0
M  END
