
     RDKit          3D

 20 19  0  0  0  0  0  0  0  0999 V2000
   -3.8760   -2.5850   -0.9340 N   0  0  0  0  0  0  0  0  0  0  0  0
   -2.6850   -1.8500   -1.1560 C   0  0  0  0  0  0  0  0  0  0  0  0
   -2.0150   -2.1360   -2.2010 O   0  0  0  0  0  0  0  0  0  0  0  0
   -2.2240   -0.7920   -0.2200 C   0  0  0  0  0  0  0  0  0  0  0  0
   -0.9370   -0.2270   -0.7620 C   0  0  0  0  0  0  0  0  0  0  0  0
   -0.3390    0.8430    0.0520 C   0  0  2  0  0  0  0  0  0  0  0  0
    0.0020    0.6040    1.3440 O   0  0  0  0  0  0  0  0  0  0  0  0
    1.2620    0.8450    1.7560 C   0  0  0  0  0  0  0  0  0  0  0  0
    2.2460   -0.0880    1.2100 C   0  0  0  0  0  0  0  0  0  0  0  0
    3.4870    0.2060    1.1250 O   0  0  0  0  0  0  0  0  0  0  0  0
    1.8660   -1.3690    0.7580 N   0  0  0  0  0  0  0  0  0  0  0  0
    2.8520   -2.2700    0.2050 C   0  0  0  0  0  0  0  0  0  0  0  0
    3.5250   -1.7420   -1.0270 C   0  0  0  0  0  0  0  0  0  0  0  0
    4.4690   -2.6530   -1.5220 O   0  0  0  0  0  0  0  0  0  0  0  0
   -1.1550    2.1150   -0.0650 C   0  0  0  0  0  0  0  0  0  0  0  0
   -1.5340    2.4540   -1.1900 O   0  0  0  0  0  0  0  0  0  0  0  0
   -1.4610    2.8690    1.0670 N   0  0  0  0  0  0  0  0  0  0  0  0
   -2.2250    4.0770    1.0280 C   0  0  0  0  0  0  0  0  0  0  0  0
   -2.4980    4.7860    2.1860 O   0  0  0  0  0  0  0  0  0  0  0  0
   -2.8040    4.6710   -0.3750 S   0  0  0  0  0  0  0  0  0  0  0  0
  1  2  1  0
  2  3  2  0
  2  4  1  0
  4  5  1  0
  6  5  1  1
  6  7  1  0
  6 15  1  0
  7  8  1  0
  8  9  1  0
  9 10  2  0
  9 11  1  0
 11 12  1  0
 12 13  1  0
 13 14  1  0
 15 16  2  0
 15 17  1  0
 17 18  1  0
 18 19  1  0
 18 20  2  0
M  END
