
     RDKit          3D

 20 19  0  0  0  0  0  0  0  0999 V2000
    6.2620   -0.1170   -0.6430 C   0  0  0  0  0  0  0  0  0  0  0  0
    5.2820    0.1090    0.3140 O   0  0  0  0  0  0  0  0  0  0  0  0
    4.7810    1.3820    0.1720 C   0  0  2  0  0  0  0  0  0  0  0  0
    4.9880    2.2290    1.4040 C   0  0  0  0  0  0  0  0  0  0  0  0
    3.3150    1.3620   -0.1140 C   0  0  0  0  0  0  0  0  0  0  0  0
    2.6520    2.4150   -0.2790 O   0  0  0  0  0  0  0  0  0  0  0  0
    2.6200    0.1080   -0.2080 N   0  0  0  0  0  0  0  0  0  0  0  0
    1.1960    0.0730   -0.4860 C   0  0  0  0  0  0  0  0  0  0  0  0
    0.7670   -1.3680   -0.5220 C   0  0  0  0  0  0  0  0  0  0  0  0
   -0.6290   -1.5520   -0.7890 N   0  0  0  0  0  0  0  0  0  0  0  0
   -1.6230   -1.0220    0.0590 C   0  0  0  0  0  0  0  0  0  0  0  0
   -1.3290   -0.3740    1.0730 O   0  0  0  0  0  0  0  0  0  0  0  0
   -3.0020   -1.2140   -0.2230 N   0  0  0  0  0  0  0  0  0  0  0  0
   -4.0780   -0.7170    0.5760 C   0  0  2  0  0  0  0  0  0  0  0  0
   -4.9700   -1.8040    1.1140 C   0  0  0  0  0  0  0  0  0  0  0  0
   -5.9770   -1.1800    1.8750 O   0  0  0  0  0  0  0  0  0  0  0  0
   -4.9180    0.2340   -0.2240 C   0  0  2  0  0  0  0  0  0  0  0  0
   -5.4320   -0.4630   -1.3380 O   0  0  0  0  0  0  0  0  0  0  0  0
   -3.8900    1.6160   -0.8190 S   0  0  0  0  0  0  0  0  0  0  0  0
   -3.3620    2.5410    0.5030 O   0  0  0  0  0  0  0  0  0  0  0  0
  1  2  1  0
  2  3  1  0
  3  4  1  1
  3  5  1  0
  5  6  2  0
  5  7  1  0
  7  8  1  0
  8  9  1  0
  9 10  1  0
 10 11  1  0
 11 12  2  0
 11 13  1  0
 13 14  1  0
 14 15  1  6
 14 17  1  0
 15 16  1  0
 17 18  1  6
 17 19  1  0
 19 20  1  0
M  END
