
     RDKit          3D

 29 32  0  0  0  0  0  0  0  0999 V2000
   -8.1400   -3.1130    0.5810 C   0  0  0  0  0  0  0  0  0  0  0  0
   -6.9480   -2.3900    0.5250 O   0  0  0  0  0  0  0  0  0  0  0  0
   -6.8620   -1.0360    0.7890 C   0  0  0  0  0  0  0  0  0  0  0  0
   -7.9500   -0.2810    1.1330 C   0  0  0  0  0  0  0  0  0  0  0  0
   -7.8930    1.0650    1.4010 C   0  0  0  0  0  0  0  0  0  0  0  0
   -6.6590    1.6690    1.3120 C   0  0  0  0  0  0  0  0  0  0  0  0
   -5.5070    0.9540    0.9650 C   0  0  0  0  0  0  0  0  0  0  0  0
   -5.6140   -0.3760    0.7090 C   0  0  0  0  0  0  0  0  0  0  0  0
   -4.5770   -1.1540    0.3640 O   0  0  0  0  0  0  0  0  0  0  0  0
   -3.2460   -0.9310    0.1420 C   0  0  0  0  0  0  0  0  0  0  0  0
   -2.8920   -0.0370   -1.0210 C   0  0  0  0  0  0  0  0  0  0  0  0
   -1.3840    0.0490   -1.0520 C   0  0  0  0  0  0  0  0  0  0  0  0
   -0.5220   -0.5510   -0.2160 N   0  0  0  0  0  0  0  0  0  0  0  0
    0.7090   -0.2220   -0.5790 C   0  0  0  0  0  0  0  0  0  0  0  0
    0.6500    0.5910   -1.6480 N   0  0  0  0  0  0  0  0  0  0  0  0
   -0.6340    0.7430   -1.9190 N   0  0  0  0  0  0  0  0  0  0  0  0
    1.7820    1.1700   -2.3420 C   0  0  0  0  0  0  0  0  0  0  0  0
    2.4750    2.1060   -1.3920 C   0  0  0  0  0  0  0  0  0  0  0  0
    2.9330    1.4230   -0.1330 C   0  0  0  0  0  0  0  0  0  0  0  0
    3.0940    0.0100   -0.2280 N   0  0  0  0  0  0  0  0  0  0  0  0
    4.1670   -0.4210    0.6210 C   0  0  0  0  0  0  0  0  0  0  0  0
    5.5160    0.0010    0.2290 C   0  0  0  0  0  0  0  0  0  0  0  0
    5.8580    0.7040   -0.8960 C   0  0  0  0  0  0  0  0  0  0  0  0
    7.2020    1.0090   -1.1410 C   0  0  0  0  0  0  0  0  0  0  0  0
    8.1990    0.6440   -0.3220 N   0  0  0  0  0  0  0  0  0  0  0  0
    7.8710   -0.0460    0.7830 C   0  0  0  0  0  0  0  0  0  0  0  0
    6.5730   -0.3660    1.0640 C   0  0  0  0  0  0  0  0  0  0  0  0
    6.2680   -1.0960    2.2390 N   0  0  0  0  0  0  0  0  0  0  0  0
    1.9020   -0.7250    0.1480 C   0  0  0  0  0  0  0  0  0  0  0  0
  1  2  1  0
  2  3  1  0
  3  4  2  0
  3  8  1  0
  4  5  1  0
  5  6  2  0
  6  7  1  0
  7  8  2  0
  8  9  1  0
  9 10  1  0
 10 11  1  0
 11 12  1  0
 12 13  1  0
 12 16  2  0
 13 14  2  0
 14 15  1  0
 14 29  1  0
 15 16  1  0
 15 17  1  0
 17 18  1  0
 18 19  1  0
 19 20  1  0
 20 21  1  0
 20 29  1  0
 21 22  1  0
 22 23  2  0
 22 27  1  0
 23 24  1  0
 24 25  2  0
 25 26  1  0
 26 27  2  0
 27 28  1  0
M  CHG  1  25   1
M  END
