
     RDKit          3D

 28 31  0  0  0  0  0  0  0  0999 V2000
    3.0070   -4.9210   -1.8140 C   0  0  0  0  0  0  0  0  0  0  0  0
    2.7830   -3.6160   -1.0980 C   0  0  0  0  0  0  0  0  0  0  0  0
    2.5710   -3.4540    0.2080 N   0  0  0  0  0  0  0  0  0  0  0  0
    2.4110   -2.1100    0.4740 C   0  0  0  0  0  0  0  0  0  0  0  0
    2.1970   -1.5920    1.8390 C   0  0  0  0  0  0  0  0  0  0  0  0
    0.7880   -1.6790    2.2840 C   0  0  0  0  0  0  0  0  0  0  0  0
   -0.1820   -0.9530    1.5120 N   0  0  0  0  0  0  0  0  0  0  0  0
   -1.5740   -0.9590    1.8320 C   0  0  0  0  0  0  0  0  0  0  0  0
   -1.9390   -1.6330    2.8330 O   0  0  0  0  0  0  0  0  0  0  0  0
   -2.5280   -0.2390    1.0640 N   0  0  0  0  0  0  0  0  0  0  0  0
   -3.9150   -0.2650    1.4100 C   0  0  0  0  0  0  0  0  0  0  0  0
   -4.7820    0.5430    0.5040 C   0  0  1  0  0  0  0  0  0  0  0  0
   -4.4300    1.9960    0.4640 C   0  0  0  0  0  0  0  0  0  0  0  0
   -5.4340    2.7050   -0.4200 C   0  0  0  0  0  0  0  0  0  0  0  0
   -5.4040    2.1460   -1.6880 O   0  0  0  0  0  0  0  0  0  0  0  0
   -5.8580    0.8150   -1.6690 C   0  0  0  0  0  0  0  0  0  0  0  0
   -4.8170    0.0230   -0.9050 C   0  0  0  0  0  0  0  0  0  0  0  0
    2.5310   -1.4810   -0.6870 N   0  0  0  0  0  0  0  0  0  0  0  0
    2.4760   -0.0550   -0.9230 C   0  0  0  0  0  0  0  0  0  0  0  0
    1.4040    0.4890   -1.5960 C   0  0  0  0  0  0  0  0  0  0  0  0
    1.3620    1.8480   -1.8290 C   0  0  0  0  0  0  0  0  0  0  0  0
    2.3780    2.6880   -1.3980 C   0  0  0  0  0  0  0  0  0  0  0  0
    3.4360    2.1120   -0.7270 C   0  0  0  0  0  0  0  0  0  0  0  0
    3.5030    0.7570   -0.4830 C   0  0  0  0  0  0  0  0  0  0  0  0
    4.7700    0.5170    0.2240 C   0  0  0  0  0  0  0  0  0  0  0  0
    5.1120    1.8080    0.7980 N   0  0  0  0  0  0  0  0  0  0  0  0
    4.6420    2.7910   -0.1640 C   0  0  0  0  0  0  0  0  0  0  0  0
    2.7540   -2.3950   -1.6270 N   0  0  0  0  0  0  0  0  0  0  0  0
  1  2  1  0
  2  3  1  0
  2 28  2  0
  3  4  2  0
  4  5  1  0
  4 18  1  0
  5  6  1  0
  6  7  1  0
  7  8  1  0
  8  9  2  0
  8 10  1  0
 10 11  1  0
 12 11  1  1
 12 13  1  0
 12 17  1  0
 13 14  1  0
 14 15  1  0
 15 16  1  0
 16 17  1  0
 18 19  1  0
 18 28  1  0
 19 20  2  0
 19 24  1  0
 20 21  1  0
 21 22  2  0
 22 23  1  0
 23 24  2  0
 23 27  1  0
 24 25  1  0
 25 26  1  0
 26 27  1  0
M  CHG  1  26   1
M  END
