
     RDKit          3D

 29 31  0  0  0  0  0  0  0  0999 V2000
   -4.1600   -4.5200    1.9400 C   0  0  0  0  0  0  0  0  0  0  0  0
   -4.3990   -3.7550    0.8850 C   0  0  0  0  0  0  0  0  0  0  0  0
   -3.5840   -2.5580    0.6540 C   0  0  0  0  0  0  0  0  0  0  0  0
   -3.7570   -1.7480   -0.3690 C   0  0  0  0  0  0  0  0  0  0  0  0
   -2.9880   -0.5890   -0.6170 N   0  0  0  0  0  0  0  0  0  0  0  0
   -1.9260   -0.1120    0.1710 C   0  0  0  0  0  0  0  0  0  0  0  0
   -1.5650   -0.7040    1.1980 O   0  0  0  0  0  0  0  0  0  0  0  0
   -1.2280    1.1040   -0.2210 C   0  0  0  0  0  0  0  0  0  0  0  0
   -1.6020    1.6890   -1.2910 O   0  0  0  0  0  0  0  0  0  0  0  0
   -0.1730    1.7060    0.4740 N   0  0  0  0  0  0  0  0  0  0  0  0
    0.4050    2.9200   -0.0540 C   0  0  0  0  0  0  0  0  0  0  0  0
    1.5380    2.7640   -0.9940 C   0  0  0  0  0  0  0  0  0  0  0  0
    1.9650    4.1880   -1.3920 C   0  0  0  0  0  0  0  0  0  0  0  0
    2.3700    4.9400   -0.2350 N   0  0  0  0  0  0  0  0  0  0  0  0
    3.3200    5.9730   -0.6210 C   0  0  0  0  0  0  0  0  0  0  0  0
    0.3230    1.1870    1.7020 C   0  0  0  0  0  0  0  0  0  0  0  0
    1.3940    0.2140    1.6900 C   0  0  0  0  0  0  0  0  0  0  0  0
    2.2040    0.0470    2.7780 N   0  0  0  0  0  0  0  0  0  0  0  0
    3.0770   -0.8690    2.5510 N   0  0  0  0  0  0  0  0  0  0  0  0
    2.8800   -1.3390    1.3150 C   0  0  0  0  0  0  0  0  0  0  0  0
    1.8530   -0.6860    0.7760 N   0  0  0  0  0  0  0  0  0  0  0  0
    1.3430   -0.9570   -0.5600 C   0  0  0  0  0  0  0  0  0  0  0  0
    2.2850   -1.7830   -1.3320 C   0  0  0  0  0  0  0  0  0  0  0  0
    1.8960   -2.3930   -2.4730 C   0  0  0  0  0  0  0  0  0  0  0  0
    3.6730   -1.9780   -0.9040 C   0  0  0  0  0  0  0  0  0  0  0  0
    3.6540   -2.4150    0.5660 C   0  0  0  0  0  0  0  0  0  0  0  0
   -4.8470   -2.1190   -1.2960 C   0  0  0  0  0  0  0  0  0  0  0  0
   -5.6080   -3.1570   -1.1600 C   0  0  0  0  0  0  0  0  0  0  0  0
   -5.4720   -4.1060   -0.0420 C   0  0  0  0  0  0  0  0  0  0  0  0
  1  2  2  0
  2  3  1  0
  2 29  1  0
  3  4  2  0
  4  5  1  0
  4 27  1  0
  5  6  1  0
  6  7  2  0
  6  8  1  0
  8  9  2  0
  8 10  1  0
 10 11  1  0
 10 16  1  0
 11 12  1  0
 12 13  1  0
 13 14  1  0
 14 15  1  0
 16 17  1  0
 17 18  2  0
 17 21  1  0
 18 19  1  0
 19 20  2  0
 20 21  1  0
 20 26  1  0
 21 22  1  0
 22 23  1  0
 23 24  2  0
 23 25  1  0
 25 26  1  0
 27 28  2  0
 28 29  1  0
M  CHG  1  14   1
M  END
