
     RDKit          3D

  9  9  0  0  0  0  0  0  0  0999 V2000
   -2.8680   -0.1380    0.1990 C   0  0  0  0  0  0  0  0  0  0  0  0
   -1.4980    0.2630    0.5120 N   0  0  0  0  0  0  0  0  0  0  0  0
   -0.6830    0.2260   -0.6980 C   0  0  0  0  0  0  0  0  0  0  0  0
    0.7460    0.0580   -0.3310 C   0  0  0  0  0  0  0  0  0  0  0  0
    1.3950   -1.1480   -0.1680 C   0  0  0  0  0  0  0  0  0  0  0  0
    2.6670   -0.8510    0.1610 N   0  0  0  0  0  0  0  0  0  0  0  0
    2.8500    0.4810    0.2130 C   0  0  0  0  0  0  0  0  0  0  0  0
    3.9200    1.1170    0.4910 O   0  0  0  0  0  0  0  0  0  0  0  0
    1.6550    1.0170   -0.0930 N   0  0  0  0  0  0  0  0  0  0  0  0
  1  2  1  0
  2  3  1  0
  3  4  1  0
  4  5  2  0
  4  9  1  0
  5  6  1  0
  6  7  1  0
  7  8  2  0
  7  9  1  0
M  CHG  1   2   1
M  END
