
     RDKit          3D

 19 20  0  0  0  0  0  0  0  0999 V2000
   -5.0390   -0.8880   -0.6000 C   0  0  0  0  0  0  0  0  0  0  0  0
   -3.6490   -0.5010   -0.1780 C   0  0  0  0  0  0  0  0  0  0  0  0
   -2.9910   -1.1800    0.8230 C   0  0  0  0  0  0  0  0  0  0  0  0
   -1.7150   -0.8610    1.2440 C   0  0  0  0  0  0  0  0  0  0  0  0
   -0.8670   -1.3430    2.1690 N   0  0  0  0  0  0  0  0  0  0  0  0
    0.2920   -0.6500    2.1760 C   0  0  0  0  0  0  0  0  0  0  0  0
    1.4240   -0.8740    3.0260 N   0  0  0  0  0  0  0  0  0  0  0  0
    0.1460    0.2880    1.2220 N   0  0  0  0  0  0  0  0  0  0  0  0
    1.1340    1.2730    0.8550 C   0  0  0  0  0  0  0  0  0  0  0  0
    2.0550    0.8080   -0.2570 C   0  0  0  0  0  0  0  0  0  0  0  0
    2.8170   -0.4260    0.1240 C   0  0  0  0  0  0  0  0  0  0  0  0
    3.7270   -0.9090   -0.9460 C   0  0  0  0  0  0  0  0  0  0  0  0
    4.7670    0.0740   -1.2620 C   0  0  0  0  0  0  0  0  0  0  0  0
    4.9360    1.1500   -0.6610 O   0  0  0  0  0  0  0  0  0  0  0  0
    5.6530   -0.1920   -2.3190 O   0  0  0  0  0  0  0  0  0  0  0  0
   -1.0710    0.1870    0.6320 C   0  0  0  0  0  0  0  0  0  0  0  0
   -1.7020    0.8970   -0.3830 C   0  0  0  0  0  0  0  0  0  0  0  0
   -2.9820    0.5480   -0.7780 C   0  0  0  0  0  0  0  0  0  0  0  0
   -3.6610    1.3090   -1.8660 C   0  0  0  0  0  0  0  0  0  0  0  0
  1  2  1  0
  2  3  2  0
  2 18  1  0
  3  4  1  0
  4  5  1  0
  4 16  2  0
  5  6  2  0
  6  7  1  0
  6  8  1  0
  8  9  1  0
  8 16  1  0
  9 10  1  0
 10 11  1  0
 11 12  1  0
 12 13  1  0
 13 14  2  0
 13 15  1  0
 16 17  1  0
 17 18  2  0
 18 19  1  0
M  END
