
     RDKit          3D

 26 29  0  0  0  0  0  0  0  0999 V2000
    2.2660    1.2470    2.3180 C   0  0  0  0  0  0  0  0  0  0  0  0
    2.4990    0.3390    1.2000 C   0  0  0  0  0  0  0  0  0  0  0  0
    3.0880   -0.8850    1.3450 N   0  0  0  0  0  0  0  0  0  0  0  0
    3.1720   -1.4610    0.1270 C   0  0  0  0  0  0  0  0  0  0  0  0
    3.7280   -2.7690   -0.2360 C   0  0  1  0  0  0  0  0  0  0  0  0
    2.9350   -3.6240   -1.1800 C   0  0  0  0  0  0  0  0  0  0  0  0
    4.2620   -3.0120   -1.6360 C   0  0  0  0  0  0  0  0  0  0  0  0
    2.6220   -0.5740   -0.8010 C   0  0  0  0  0  0  0  0  0  0  0  0
    2.2050    0.5450   -0.1180 C   0  0  0  0  0  0  0  0  0  0  0  0
    1.5530    1.6920   -0.6880 C   0  0  0  0  0  0  0  0  0  0  0  0
    2.2510    2.7350   -0.9970 O   0  0  0  0  0  0  0  0  0  0  0  0
    0.1660    1.7980   -0.9600 N   0  0  0  0  0  0  0  0  0  0  0  0
   -0.3830    2.9990   -1.4970 C   0  0  0  0  0  0  0  0  0  0  0  0
   -0.8480    4.0150   -0.5030 C   0  0  0  0  0  0  0  0  0  0  0  0
   -1.3950    5.1870   -1.3310 C   0  0  0  0  0  0  0  0  0  0  0  0
   -1.8690    6.2100   -0.5440 O   0  0  0  0  0  0  0  0  0  0  0  0
   -0.6490    0.6740   -0.6940 C   0  0  0  0  0  0  0  0  0  0  0  0
   -1.2750    0.0490   -1.7810 C   0  0  0  0  0  0  0  0  0  0  0  0
   -2.0730   -1.0590   -1.5910 C   0  0  0  0  0  0  0  0  0  0  0  0
   -2.2560   -1.5620   -0.2960 C   0  0  0  0  0  0  0  0  0  0  0  0
   -1.6460   -0.9530    0.7750 C   0  0  0  0  0  0  0  0  0  0  0  0
   -0.8450    0.1630    0.5680 C   0  0  0  0  0  0  0  0  0  0  0  0
   -1.8860   -1.5530    2.1130 C   0  0  0  0  0  0  0  0  0  0  0  0
   -3.3810   -1.7510    2.2460 C   0  0  0  0  0  0  0  0  0  0  0  0
   -3.9200   -2.6780    1.2090 C   0  0  0  0  0  0  0  0  0  0  0  0
   -3.0980   -2.7520   -0.0440 C   0  0  0  0  0  0  0  0  0  0  0  0
  1  2  1  0
  2  3  1  0
  2  9  2  0
  3  4  1  0
  5  4  1  6
  4  8  2  0
  5  6  1  0
  5  7  1  0
  6  7  1  0
  8  9  1  0
  9 10  1  0
 10 11  2  0
 10 12  1  0
 12 13  1  0
 12 17  1  0
 13 14  1  0
 14 15  1  0
 15 16  1  0
 17 18  2  0
 17 22  1  0
 18 19  1  0
 19 20  2  0
 20 21  1  0
 20 26  1  0
 21 22  2  0
 21 23  1  0
 23 24  1  0
 24 25  1  0
 25 26  1  0
M  END
