
     RDKit          3D

 26 28  0  0  0  0  0  0  0  0999 V2000
   -5.6850    2.2240   -1.4230 C   0  0  0  0  0  0  0  0  0  0  0  0
   -4.6340    1.3210   -0.9140 C   0  0  0  0  0  0  0  0  0  0  0  0
   -4.7160   -0.0290   -1.1490 C   0  0  0  0  0  0  0  0  0  0  0  0
   -3.7310   -0.8710   -0.6710 C   0  0  0  0  0  0  0  0  0  0  0  0
   -2.6480   -0.4110    0.0450 C   0  0  0  0  0  0  0  0  0  0  0  0
   -1.6090   -1.3480    0.5420 C   0  0  0  0  0  0  0  0  0  0  0  0
   -0.4970   -1.5490   -0.4480 C   0  0  0  0  0  0  0  0  0  0  0  0
    0.5340   -2.4050   -0.1080 N   0  0  0  0  0  0  0  0  0  0  0  0
    0.3210   -3.7960    0.0180 C   0  0  0  0  0  0  0  0  0  0  0  0
    0.8060   -4.3400    1.3540 C   0  0  0  0  0  0  0  0  0  0  0  0
    0.8310   -3.3500    2.3750 N   0  0  0  0  0  0  0  0  0  0  0  0
    1.4610   -2.1140    2.0790 C   0  0  0  0  0  0  0  0  0  0  0  0
    1.6680   -1.9700    0.6000 C   0  0  2  0  0  0  0  0  0  0  0  0
    2.2110   -0.6730    0.2080 C   0  0  0  0  0  0  0  0  0  0  0  0
    2.5780    0.2260    1.1720 C   0  0  0  0  0  0  0  0  0  0  0  0
    3.0950    1.4630    0.8060 C   0  0  0  0  0  0  0  0  0  0  0  0
    3.2440    1.8010   -0.5270 C   0  0  0  0  0  0  0  0  0  0  0  0
    3.8070    3.1440   -0.9140 C   0  0  0  0  0  0  0  0  0  0  0  0
    5.2790    2.9730   -1.0220 C   0  0  0  0  0  0  0  0  0  0  0  0
    5.8550    1.8690   -0.8110 O   0  0  0  0  0  0  0  0  0  0  0  0
    6.1210    4.0340   -1.3680 O   0  0  0  0  0  0  0  0  0  0  0  0
    2.8760    0.9000   -1.4970 C   0  0  0  0  0  0  0  0  0  0  0  0
    2.3580   -0.3410   -1.1130 C   0  0  0  0  0  0  0  0  0  0  0  0
   -2.5860    0.9480    0.2690 C   0  0  0  0  0  0  0  0  0  0  0  0
   -3.5650    1.8150   -0.2020 C   0  0  0  0  0  0  0  0  0  0  0  0
   -3.5060    3.2780    0.0350 C   0  0  0  0  0  0  0  0  0  0  0  0
  1  2  1  0
  2  3  2  0
  2 25  1  0
  3  4  1  0
  4  5  2  0
  5  6  1  0
  5 24  1  0
  6  7  1  0
  7  8  1  0
  8  9  1  0
  8 13  1  0
  9 10  1  0
 10 11  1  0
 11 12  1  0
 12 13  1  0
 13 14  1  1
 14 15  2  0
 14 23  1  0
 15 16  1  0
 16 17  2  0
 17 18  1  0
 17 22  1  0
 18 19  1  0
 19 20  2  0
 19 21  1  0
 22 23  2  0
 24 25  2  0
 25 26  1  0
M  END
