
     RDKit          3D

 26 29  0  0  0  0  0  0  0  0999 V2000
   -6.9300    1.4440    0.4030 C   0  0  0  0  0  0  0  0  0  0  0  0
   -6.3790    0.5130   -0.6810 C   0  0  2  0  0  0  0  0  0  0  0  0
   -6.4150   -0.9220   -0.2870 C   0  0  0  0  0  0  0  0  0  0  0  0
   -5.8390   -1.3060    1.0020 C   0  0  0  0  0  0  0  0  0  0  0  0
   -4.6520   -0.5570    1.4750 C   0  0  0  0  0  0  0  0  0  0  0  0
   -3.6780   -0.2980    0.4000 C   0  0  0  0  0  0  0  0  0  0  0  0
   -3.8750    0.3910   -0.7630 C   0  0  0  0  0  0  0  0  0  0  0  0
   -2.8870    0.5650   -1.6620 N   0  0  0  0  0  0  0  0  0  0  0  0
   -1.6540    0.0720   -1.4740 C   0  0  0  0  0  0  0  0  0  0  0  0
   -1.3920   -0.6340   -0.3250 C   0  0  0  0  0  0  0  0  0  0  0  0
   -0.0890   -1.2010   -0.0630 C   0  0  0  0  0  0  0  0  0  0  0  0
    1.0240   -0.5780   -0.2530 C   0  0  0  0  0  0  0  0  0  0  0  0
    1.1570    0.8330   -0.7710 C   0  0  0  0  0  0  0  0  0  0  0  0
    2.4350    1.3910   -0.1030 C   0  0  0  0  0  0  0  0  0  0  0  0
    3.6080    0.7690   -0.7460 N   0  0  0  0  0  0  0  0  0  0  0  0
    4.6780    0.9490    0.1860 C   0  0  0  0  0  0  0  0  0  0  0  0
    6.0480    0.5660   -0.2530 C   0  0  1  0  0  0  0  0  0  0  0  0
    6.9800    0.8690    0.9070 C   0  0  0  0  0  0  0  0  0  0  0  0
    7.2820   -0.5580    1.3880 C   0  0  0  0  0  0  0  0  0  0  0  0
    7.3060   -1.2790    0.0320 C   0  0  0  0  0  0  0  0  0  0  0  0
    6.2090   -0.7390   -0.5850 O   0  0  0  0  0  0  0  0  0  0  0  0
    3.2810   -0.6180   -1.0410 C   0  0  0  0  0  0  0  0  0  0  0  0
    2.3720   -1.2110    0.0200 C   0  0  0  0  0  0  0  0  0  0  0  0
   -2.4200   -0.8120    0.6100 C   0  0  0  0  0  0  0  0  0  0  0  0
   -2.2280   -1.4500    1.6790 O   0  0  0  0  0  0  0  0  0  0  0  0
   -5.1070    1.0200   -1.2570 C   0  0  0  0  0  0  0  0  0  0  0  0
  2  1  1  1
  2  3  1  0
  2 26  1  0
  3  4  1  0
  4  5  1  0
  5  6  1  0
  6  7  2  0
  6 24  1  0
  7  8  1  0
  7 26  1  0
  8  9  1  0
  9 10  2  0
 10 11  1  0
 10 24  1  0
 11 12  2  3
 12 13  1  0
 12 23  1  0
 13 14  1  0
 14 15  1  0
 15 16  1  0
 15 22  1  0
 17 16  1  1
 17 18  1  0
 17 21  1  0
 18 19  1  0
 19 20  1  0
 20 21  1  0
 22 23  1  0
 24 25  2  0
M  END
