
     RDKit          3D

  9  9  0  0  0  0  0  0  0  0999 V2000
    2.6910   -0.6700    0.2630 N   0  0  0  0  0  0  0  0  0  0  0  0
    1.3240   -0.3850    0.0840 C   0  0  0  0  0  0  0  0  0  0  0  0
    0.5140   -1.3870   -0.1270 N   0  0  0  0  0  0  0  0  0  0  0  0
   -0.8910   -1.4010   -0.3380 C   0  0  0  0  0  0  0  0  0  0  0  0
   -1.3280   -2.3790   -0.9910 O   0  0  0  0  0  0  0  0  0  0  0  0
   -1.9010   -0.4210    0.1060 C   0  0  0  0  0  0  0  0  0  0  0  0
   -1.5480    0.9240   -0.2910 N   0  0  0  0  0  0  0  0  0  0  0  0
   -0.3020    1.5480   -0.0140 C   0  0  0  0  0  0  0  0  0  0  0  0
    0.9100    1.0340    0.1480 C   0  0  0  0  0  0  0  0  0  0  0  0
  1  2  1  0
  2  3  2  0
  2  9  1  0
  3  4  1  0
  4  5  2  0
  4  6  1  0
  6  7  1  0
  7  8  1  0
  8  9  2  0
M  END
