
     RDKit          3D

  8  8  0  0  0  0  0  0  0  0999 V2000
    3.0660    0.1540    0.3360 N   0  0  0  0  0  0  0  0  0  0  0  0
    1.8990   -0.5040    0.1070 O   0  0  0  0  0  0  0  0  0  0  0  0
    0.9090    0.4370   -0.1570 C   0  0  0  0  0  0  0  0  0  0  0  0
   -0.4140   -0.2310   -0.4200 C   0  0  2  0  0  0  0  0  0  0  0  0
   -1.5110    0.8010   -0.4580 C   0  0  0  0  0  0  0  0  0  0  0  0
   -2.5960    0.2020    0.0190 C   0  0  0  0  0  0  0  0  0  0  0  0
   -2.1760   -1.1810    0.3470 C   0  0  0  0  0  0  0  0  0  0  0  0
   -0.8380   -1.0010    0.6910 O   0  0  0  0  0  0  0  0  0  0  0  0
  1  2  1  0
  2  3  1  0
  4  3  1  1
  4  5  1  0
  4  8  1  0
  5  6  2  0
  6  7  1  0
  7  8  1  0
M  CHG  1   1   1
M  END
