
     RDKit          3D

  8  8  0  0  0  0  0  0  0  0999 V2000
   -0.4200   -1.2770    0.8770 C   0  0  0  0  0  0  0  0  0  0  0  0
   -0.3150   -0.1020   -0.0330 C   0  0  1  0  0  0  0  0  0  0  0  0
    1.0420    0.1560   -0.5780 C   0  0  0  0  0  0  0  0  0  0  0  0
    2.0560    0.4110    0.3950 N   0  0  0  0  0  0  0  0  0  0  0  0
   -1.2280   -0.3860   -1.2380 C   0  0  0  0  0  0  0  0  0  0  0  0
   -2.4500   -0.0170   -0.6940 O   0  0  0  0  0  0  0  0  0  0  0  0
   -2.2930    1.0520    0.0000 O   0  0  0  0  0  0  0  0  0  0  0  0
   -1.0180    1.1240    0.4900 C   0  0  0  0  0  0  0  0  0  0  0  0
  2  1  1  1
  2  3  1  0
  2  5  1  0
  2  8  1  0
  3  4  1  0
  5  6  1  0
  6  7  1  0
  7  8  1  0
M  CHG  1   4   1
M  END
