
     RDKit          3D

  8  7  0  0  0  0  0  0  0  0999 V2000
   -1.1340   -1.9480    0.6070 C   0  0  0  0  0  0  0  0  0  0  0  0
   -0.8060   -0.7330    0.2350 C   0  0  0  0  0  0  0  0  0  0  0  0
   -1.8900    0.1960   -0.1610 C   0  0  0  0  0  0  0  0  0  0  0  0
   -1.7390    0.6370   -1.4890 O   0  0  0  0  0  0  0  0  0  0  0  0
    0.5800   -0.3300    0.2190 C   0  0  0  0  0  0  0  0  0  0  0  0
    1.5370   -1.2530    0.6040 O   0  0  0  0  0  0  0  0  0  0  0  0
    0.9600    0.8770   -0.1450 C   0  0  0  0  0  0  0  0  0  0  0  0
    2.3170    1.2680   -0.1600 N   0  0  0  0  0  0  0  0  0  0  0  0
  1  2  2  0
  2  3  1  0
  2  5  1  0
  3  4  1  0
  5  6  1  0
  5  7  2  3
  7  8  1  0
M  CHG  1   8   1
M  END
