
     RDKit          3D

  8  8  0  0  0  0  0  0  0  0999 V2000
   -1.2400   -0.4770    0.9110 C   0  0  0  0  0  0  0  0  0  0  0  0
   -0.5950   -0.2620   -0.4200 C   0  0  2  0  0  0  0  0  0  0  0  0
   -1.3320    0.6340   -1.3390 C   0  0  0  0  0  0  0  0  0  0  0  0
   -0.3670   -1.5420   -0.9760 O   0  0  0  0  0  0  0  0  0  0  0  0
    0.5470   -2.1080   -0.2570 O   0  0  0  0  0  0  0  0  0  0  0  0
    1.4480   -1.1640    0.1700 C   0  0  0  0  0  0  0  0  0  0  0  0
    0.8710    0.1690   -0.2860 C   0  0  2  0  0  0  0  0  0  0  0  0
    1.0580    1.2200    0.6430 N   0  0  0  0  0  0  0  0  0  0  0  0
  2  1  1  1
  2  3  1  0
  2  4  1  0
  2  7  1  0
  4  5  1  0
  5  6  1  0
  6  7  1  0
  7  8  1  1
M  CHG  1   8   1
M  END
