
     RDKit          3D

  8  8  0  0  0  0  0  0  0  0999 V2000
   -1.7190   -0.8750   -0.4030 N   0  0  0  0  0  0  0  0  0  0  0  0
   -0.5290   -0.0940   -0.4950 C   0  0  1  0  0  0  0  0  0  0  0  0
   -0.4860    1.0130    0.5350 C   0  0  0  0  0  0  0  0  0  0  0  0
    0.8160    1.7650    0.5050 C   0  0  0  0  0  0  0  0  0  0  0  0
    1.8110    1.1360   -0.2800 O   0  0  0  0  0  0  0  0  0  0  0  0
    1.8540   -0.2480   -0.2830 C   0  0  0  0  0  0  0  0  0  0  0  0
    0.7090   -0.9020   -0.3880 C   0  0  0  0  0  0  0  0  0  0  0  0
    0.6730   -2.3090   -0.3970 O   0  0  0  0  0  0  0  0  0  0  0  0
  2  1  1  1
  2  3  1  0
  2  7  1  0
  3  4  1  0
  4  5  1  0
  5  6  1  0
  6  7  2  0
  7  8  1  0
M  CHG  1   1   1
M  END
