
     RDKit          3D

 25 26  0  0  0  0  0  0  0  0999 V2000
   -7.1970    1.0650    0.7110 C   0  0  0  0  0  0  0  0  0  0  0  0
   -5.9810    1.9370    0.8200 C   0  0  0  0  0  0  0  0  0  0  0  0
   -4.9170    1.3290    0.1520 O   0  0  0  0  0  0  0  0  0  0  0  0
   -4.3950    0.0910    0.4740 C   0  0  0  0  0  0  0  0  0  0  0  0
   -4.8800   -0.5580    1.4190 O   0  0  0  0  0  0  0  0  0  0  0  0
   -3.2430   -0.4020   -0.3620 C   0  0  2  0  0  0  0  0  0  0  0  0
   -2.7930   -1.7660    0.1190 C   0  0  0  0  0  0  0  0  0  0  0  0
   -1.2900   -1.7550    0.4190 C   0  0  0  0  0  0  0  0  0  0  0  0
   -0.5340   -1.2090   -0.7950 C   0  0  1  0  0  0  0  0  0  0  0  0
   -1.0110   -2.1050   -1.9580 C   0  0  0  0  0  0  0  0  0  0  0  0
   -0.9160    0.1960   -0.9990 C   0  0  2  0  0  0  0  0  0  0  0  0
    0.0870    1.2720   -0.8970 C   0  0  0  0  0  0  0  0  0  0  0  0
    0.8050    1.5460    0.3440 C   0  0  0  0  0  0  0  0  0  0  0  0
    1.6730    0.4850    0.8950 C   0  0  0  0  0  0  0  0  0  0  0  0
    2.7870    0.0570    0.0220 C   0  0  0  0  0  0  0  0  0  0  0  0
    2.9530    0.6140   -1.0320 O   0  0  0  0  0  0  0  0  0  0  0  0
    3.6780   -1.0280    0.4360 C   0  0  0  0  0  0  0  0  0  0  0  0
    5.1290   -0.6680    0.5480 C   0  0  1  0  0  0  0  0  0  0  0  0
    5.8160   -1.8280    0.9400 O   0  0  0  0  0  0  0  0  0  0  0  0
    5.7680   -0.0800   -0.6410 C   0  0  0  0  0  0  0  0  0  0  0  0
    6.0470    1.3390   -0.2710 C   0  0  0  0  0  0  0  0  0  0  0  0
    6.2970    1.2490    1.1290 O   0  0  0  0  0  0  0  0  0  0  0  0
    5.3860    0.3290    1.6120 C   0  0  0  0  0  0  0  0  0  0  0  0
    4.8470    0.3030    2.7420 O   0  0  0  0  0  0  0  0  0  0  0  0
   -2.1320    0.5870   -0.1380 C   0  0  0  0  0  0  0  0  0  0  0  0
  1  2  1  0
  2  3  1  0
  3  4  1  0
  4  5  2  0
  6  4  1  1
  6  7  1  0
  6 25  1  0
  7  8  1  0
  8  9  1  0
  9 10  1  6
  9 11  1  0
 11 12  1  1
 11 25  1  0
 12 13  1  0
 13 14  1  0
 14 15  1  0
 15 16  2  0
 15 17  1  0
 17 18  1  0
 18 19  1  1
 18 20  1  0
 18 23  1  0
 20 21  1  0
 21 22  1  0
 22 23  1  0
 23 24  2  0
M  END
