
     RDKit          3D

 25 26  0  0  0  0  0  0  0  0999 V2000
    1.9060    5.8970    0.9410 C   0  0  0  0  0  0  0  0  0  0  0  0
    1.1590    4.8180    0.4090 O   0  0  0  0  0  0  0  0  0  0  0  0
    0.5750    3.8470    1.1870 C   0  0  0  0  0  0  0  0  0  0  0  0
    0.6800    3.8720    2.4290 O   0  0  0  0  0  0  0  0  0  0  0  0
   -0.2250    2.6940    0.6050 C   0  0  0  0  0  0  0  0  0  0  0  0
    0.7360    1.5320    0.6100 C   0  0  2  0  0  0  0  0  0  0  0  0
    1.8060    1.9800   -0.1740 O   0  0  0  0  0  0  0  0  0  0  0  0
    0.0820    0.3100   -0.0210 C   0  0  1  0  0  0  0  0  0  0  0  0
    0.9520   -0.8810   -0.0470 C   0  0  0  0  0  0  0  0  0  0  0  0
    2.2600   -0.7430   -0.7880 C   0  0  0  0  0  0  0  0  0  0  0  0
    3.0100   -2.0210   -0.7500 C   0  0  0  0  0  0  0  0  0  0  0  0
    4.2090   -2.1550   -0.2230 C   0  0  0  0  0  0  0  0  0  0  0  0
    4.6510   -3.5460   -0.3560 C   0  0  0  0  0  0  0  0  0  0  0  0
    5.8610   -4.0500    0.0350 O   0  0  0  0  0  0  0  0  0  0  0  0
    3.6200   -4.1490   -0.9250 C   0  0  0  0  0  0  0  0  0  0  0  0
    2.6360   -3.3370   -1.2450 C   0  0  0  0  0  0  0  0  0  0  0  0
   -1.1870    0.0580    0.6840 C   0  0  0  0  0  0  0  0  0  0  0  0
   -2.0670   -1.0690    0.3400 C   0  0  1  0  0  0  0  0  0  0  0  0
   -1.6190   -2.4570    0.4640 C   0  0  0  0  0  0  0  0  0  0  0  0
   -3.2210   -0.8910    1.1480 O   0  0  0  0  0  0  0  0  0  0  0  0
   -4.3580   -1.4400    0.6400 C   0  0  0  0  0  0  0  0  0  0  0  0
   -4.9510   -0.6530   -0.5240 C   0  0  0  0  0  0  0  0  0  0  0  0
   -3.7670    0.1040   -1.1320 C   0  0  0  0  0  0  0  0  0  0  0  0
   -2.6110   -0.8290   -1.0650 C   0  0  0  0  0  0  0  0  0  0  0  0
   -2.1220   -1.3680   -2.0240 O   0  0  0  0  0  0  0  0  0  0  0  0
  1  2  1  0
  2  3  1  0
  3  4  2  0
  3  5  1  0
  5  6  1  0
  6  7  1  6
  6  8  1  0
  8  9  1  1
  8 17  1  0
  9 10  1  0
 10 11  1  0
 11 12  2  0
 11 16  1  0
 12 13  1  0
 13 14  1  0
 13 15  2  0
 15 16  2  0
 17 18  1  0
 18 19  1  6
 18 20  1  0
 18 24  1  0
 20 21  1  0
 21 22  1  0
 22 23  1  0
 23 24  1  0
 24 25  2  0
M  END
