
     RDKit          3D

 25 26  0  0  0  0  0  0  0  0999 V2000
   -4.4310   -2.3990   -0.6820 C   0  0  0  0  0  0  0  0  0  0  0  0
   -3.2730   -1.4800   -0.9850 C   0  0  1  0  0  0  0  0  0  0  0  0
   -3.7750   -0.2850   -1.4640 O   0  0  0  0  0  0  0  0  0  0  0  0
   -2.3760   -1.2570    0.2090 C   0  0  2  0  0  0  0  0  0  0  0  0
   -1.8230   -2.6000    0.6300 C   0  0  0  0  0  0  0  0  0  0  0  0
   -3.1680   -0.6800    1.3290 C   0  0  0  0  0  0  0  0  0  0  0  0
   -1.3090   -0.4310   -0.2070 O   0  0  0  0  0  0  0  0  0  0  0  0
   -0.2880   -0.0190    0.6280 C   0  0  0  0  0  0  0  0  0  0  0  0
   -0.2860   -0.3800    1.8100 O   0  0  0  0  0  0  0  0  0  0  0  0
    0.7640    0.8610    0.0020 C   0  0  2  0  0  0  0  0  0  0  0  0
    1.2790    0.0800   -1.1620 C   0  0  0  0  0  0  0  0  0  0  0  0
    1.8250   -1.2110   -0.6670 C   0  0  0  0  0  0  0  0  0  0  0  0
    1.7530   -1.5380    0.5380 O   0  0  0  0  0  0  0  0  0  0  0  0
    2.4400   -2.1060   -1.5330 O   0  0  0  0  0  0  0  0  0  0  0  0
    2.9870   -3.3390   -1.1870 C   0  0  0  0  0  0  0  0  0  0  0  0
    4.0930   -3.2210   -0.1900 C   0  0  0  0  0  0  0  0  0  0  0  0
    5.1300   -2.4310   -0.7110 O   0  0  0  0  0  0  0  0  0  0  0  0
    1.8580    1.1850    0.9550 C   0  0  0  0  0  0  0  0  0  0  0  0
    2.4130    2.5520    0.9420 C   0  0  0  0  0  0  0  0  0  0  0  0
    1.6340    3.6210    0.2700 C   0  0  2  0  0  0  0  0  0  0  0  0
    0.3880    4.0150    1.0790 C   0  0  0  0  0  0  0  0  0  0  0  0
   -0.4490    2.7680    0.9060 C   0  0  0  0  0  0  0  0  0  0  0  0
    0.0130    2.1090   -0.3970 C   0  0  2  0  0  0  0  0  0  0  0  0
   -1.2070    1.8780   -1.2150 C   0  0  0  0  0  0  0  0  0  0  0  0
    0.9440    3.1400   -0.9890 C   0  0  0  0  0  0  0  0  0  0  0  0
  2  1  1  1
  2  3  1  0
  2  4  1  0
  4  5  1  1
  4  6  1  0
  4  7  1  0
  7  8  1  0
  8  9  2  0
  8 10  1  0
 10 11  1  6
 10 18  1  0
 10 23  1  0
 11 12  1  0
 12 13  2  0
 12 14  1  0
 14 15  1  0
 15 16  1  0
 16 17  1  0
 18 19  1  0
 20 19  1  1
 20 21  1  0
 20 25  1  0
 21 22  1  0
 22 23  1  0
 23 24  1  6
 23 25  1  0
M  END
