
     RDKit          3D

  7  7  0  0  0  0  0  0  0  0999 V2000
   -0.2700    1.1850   -0.8780 N   0  0  0  0  0  0  0  0  0  0  0  0
   -0.0580    0.0860    0.0120 C   0  0  2  0  0  0  0  0  0  0  0  0
    1.3310   -0.4170    0.1730 C   0  0  0  0  0  0  0  0  0  0  0  0
    1.5770   -1.3820    0.9430 O   0  0  0  0  0  0  0  0  0  0  0  0
    2.3720    0.1590   -0.5140 O   0  0  0  0  0  0  0  0  0  0  0  0
   -1.1870   -0.9450    0.0680 C   0  0  0  0  0  0  0  0  0  0  0  0
   -0.9420   -0.0750    1.2290 C   0  0  0  0  0  0  0  0  0  0  0  0
  2  1  1  6
  2  3  1  0
  2  6  1  0
  2  7  1  0
  3  4  2  0
  3  5  1  0
  6  7  1  0
M  CHG  1   1   1
M  END
