
     RDKit          3D

 25 26  0  0  0  0  0  0  0  0999 V2000
    4.9230   -0.3980   -0.0250 C   0  0  0  0  0  0  0  0  0  0  0  0
    3.9170   -0.7930    0.9930 C   0  0  0  0  0  0  0  0  0  0  0  0
    2.7830   -1.5780    0.4800 C   0  0  0  0  0  0  0  0  0  0  0  0
    1.8650   -0.9710   -0.5320 C   0  0  2  0  0  0  0  0  0  0  0  0
    2.5390   -0.6410   -1.8210 C   0  0  0  0  0  0  0  0  0  0  0  0
    3.0270   -1.8510   -2.3610 O   0  0  0  0  0  0  0  0  0  0  0  0
    1.1860    0.2810    0.0670 C   0  0  0  0  0  0  0  0  0  0  0  0
   -0.2760    0.1990   -0.0910 C   0  0  2  0  0  0  0  0  0  0  0  0
   -1.0580    1.4150    0.3600 C   0  0  0  0  0  0  0  0  0  0  0  0
   -0.7690    2.6810   -0.2560 C   0  0  0  0  0  0  0  0  0  0  0  0
   -1.6890    3.3230   -0.9930 C   0  0  0  0  0  0  0  0  0  0  0  0
   -1.4770    4.6130   -1.6520 C   0  0  0  0  0  0  0  0  0  0  0  0
   -0.2400    5.1950   -1.3750 O   0  0  0  0  0  0  0  0  0  0  0  0
    0.7300    4.5730   -0.6220 C   0  0  0  0  0  0  0  0  0  0  0  0
    0.4890    3.3710   -0.0820 C   0  0  0  0  0  0  0  0  0  0  0  0
   -0.9380   -0.9160    0.6600 C   0  0  0  0  0  0  0  0  0  0  0  0
   -0.3800   -1.6650    1.4510 O   0  0  0  0  0  0  0  0  0  0  0  0
   -2.2890   -1.0810    0.4160 O   0  0  0  0  0  0  0  0  0  0  0  0
   -3.0240   -2.0960    1.0640 C   0  0  2  0  0  0  0  0  0  0  0  0
   -3.6550   -2.9530   -0.0110 C   0  0  0  0  0  0  0  0  0  0  0  0
   -4.1400   -1.4110    1.8590 C   0  0  0  0  0  0  0  0  0  0  0  0
   -4.9200   -2.3370    2.5350 O   0  0  0  0  0  0  0  0  0  0  0  0
   -0.5920   -0.1160   -1.5590 C   0  0  0  0  0  0  0  0  0  0  0  0
   -0.0190   -1.4860   -1.8060 C   0  0  0  0  0  0  0  0  0  0  0  0
    0.8700   -1.9000   -0.8320 O   0  0  0  0  0  0  0  0  0  0  0  0
  1  2  1  0
  2  3  1  0
  4  3  1  1
  4  5  1  0
  4  7  1  0
  4 25  1  0
  5  6  1  0
  7  8  1  0
  8  9  1  1
  8 16  1  0
  8 23  1  0
  9 10  1  0
 10 11  2  0
 10 15  1  0
 11 12  1  0
 12 13  1  0
 13 14  1  0
 14 15  2  0
 16 17  2  0
 16 18  1  0
 18 19  1  0
 19 20  1  6
 19 21  1  0
 21 22  1  0
 23 24  1  0
 24 25  1  0
M  END
