
     RDKit          3D

 12 11  0  0  0  0  0  0  0  0999 V2000
   -3.2550   -1.3590    0.1090 C   0  0  0  0  0  0  0  0  0  0  0  0
   -1.8660   -1.4270   -0.3630 C   0  0  0  0  0  0  0  0  0  0  0  0
   -1.0650   -0.3760   -0.4170 C   0  0  0  0  0  0  0  0  0  0  0  0
    0.3240   -0.5430   -0.9080 C   0  0  0  0  0  0  0  0  0  0  0  0
    1.1840   -0.1610    0.1160 O   0  0  0  0  0  0  0  0  0  0  0  0
    2.4800   -0.3220   -0.3570 C   0  0  0  0  0  0  0  0  0  0  0  0
    3.5060    0.0740    0.7040 C   0  0  0  0  0  0  0  0  0  0  0  0
    3.2640   -0.7820    1.7990 O   0  0  0  0  0  0  0  0  0  0  0  0
   -1.4970    0.9340   -0.0120 C   0  0  0  0  0  0  0  0  0  0  0  0
   -2.7830    1.1080    0.4500 O   0  0  0  0  0  0  0  0  0  0  0  0
   -0.6860    1.9570   -0.0770 C   0  0  0  0  0  0  0  0  0  0  0  0
   -1.0890    3.2520    0.3150 O   0  0  0  0  0  0  0  0  0  0  0  0
  1  2  1  0
  2  3  2  3
  3  4  1  0
  3  9  1  0
  4  5  1  0
  5  6  1  0
  6  7  1  0
  7  8  1  0
  9 10  1  0
  9 11  2  3
 11 12  1  0
M  END
