
     RDKit          3D

 12 12  0  0  0  0  0  0  0  0999 V2000
    2.9360    0.7890   -0.3790 C   0  0  0  0  0  0  0  0  0  0  0  0
    2.5860   -0.4580    0.3670 C   0  0  0  0  0  0  0  0  0  0  0  0
    1.3910   -1.0580   -0.0030 O   0  0  0  0  0  0  0  0  0  0  0  0
    0.1350   -0.5370    0.0440 C   0  0  0  0  0  0  0  0  0  0  0  0
   -0.0490    0.7440    0.5070 C   0  0  0  0  0  0  0  0  0  0  0  0
   -1.3100    1.3300    0.5780 C   0  0  0  0  0  0  0  0  0  0  0  0
   -1.4170    2.6290    1.0570 O   0  0  0  0  0  0  0  0  0  0  0  0
   -2.3970    0.5890    0.1660 C   0  0  0  0  0  0  0  0  0  0  0  0
   -2.2400   -0.7050   -0.3050 C   0  0  0  0  0  0  0  0  0  0  0  0
   -3.3700   -1.4010   -0.7040 O   0  0  0  0  0  0  0  0  0  0  0  0
   -0.9630   -1.2600   -0.3620 C   0  0  0  0  0  0  0  0  0  0  0  0
   -0.7760   -2.5510   -0.8290 O   0  0  0  0  0  0  0  0  0  0  0  0
  1  2  1  0
  2  3  1  0
  3  4  1  0
  4  5  2  0
  4 11  1  0
  5  6  1  0
  6  7  1  0
  6  8  2  0
  8  9  1  0
  9 10  1  0
  9 11  2  0
 11 12  1  0
M  END
