
     RDKit          3D

 12 12  0  0  0  0  0  0  0  0999 V2000
    3.6050    0.6410    0.4400 C   0  0  0  0  0  0  0  0  0  0  0  0
    2.7040   -0.1010   -0.3170 O   0  0  0  0  0  0  0  0  0  0  0  0
    1.3270   -0.0790   -0.1800 C   0  0  0  0  0  0  0  0  0  0  0  0
    0.6600    0.6900    0.7350 C   0  0  0  0  0  0  0  0  0  0  0  0
   -0.7160    0.6630    0.8160 C   0  0  0  0  0  0  0  0  0  0  0  0
   -1.3950    1.4610    1.7640 O   0  0  0  0  0  0  0  0  0  0  0  0
   -1.4510   -0.1540   -0.0370 C   0  0  0  0  0  0  0  0  0  0  0  0
   -2.9310   -0.1380    0.1010 C   0  0  0  0  0  0  0  0  0  0  0  0
   -3.4500   -1.0230   -0.8470 O   0  0  0  0  0  0  0  0  0  0  0  0
   -0.7870   -0.9240   -0.9530 C   0  0  0  0  0  0  0  0  0  0  0  0
    0.5880   -0.8820   -1.0180 C   0  0  0  0  0  0  0  0  0  0  0  0
    1.2350   -1.6710   -1.9540 O   0  0  0  0  0  0  0  0  0  0  0  0
  1  2  1  0
  2  3  1  0
  3  4  2  0
  3 11  1  0
  4  5  1  0
  5  6  1  0
  5  7  2  0
  7  8  1  0
  7 10  1  0
  8  9  1  0
 10 11  2  0
 11 12  1  0
M  END
