
     RDKit          3D

 12 12  0  0  0  0  0  0  0  0999 V2000
    2.8580   -1.0990   -1.1750 O   0  0  0  0  0  0  0  0  0  0  0  0
    2.0860   -0.7370   -0.0620 C   0  0  1  0  0  0  0  0  0  0  0  0
    2.8390   -0.1080    0.9000 O   0  0  0  0  0  0  0  0  0  0  0  0
    0.9590    0.1110   -0.5910 C   0  0  2  0  0  0  0  0  0  0  0  0
    1.5180    1.2260   -1.2280 O   0  0  0  0  0  0  0  0  0  0  0  0
    0.0550    0.5530    0.5470 C   0  0  1  0  0  0  0  0  0  0  0  0
    0.8350    1.2740    1.4490 O   0  0  0  0  0  0  0  0  0  0  0  0
   -1.0110    1.4320   -0.0720 C   0  0  0  0  0  0  0  0  0  0  0  0
   -2.3350    0.7340   -0.1760 C   0  0  0  0  0  0  0  0  0  0  0  0
   -2.2400   -0.7180   -0.5610 C   0  0  0  0  0  0  0  0  0  0  0  0
   -1.3360   -1.5150    0.3520 C   0  0  0  0  0  0  0  0  0  0  0  0
   -0.5220   -0.6260    1.2550 C   0  0  0  0  0  0  0  0  0  0  0  0
  2  1  1  6
  2  3  1  0
  2  4  1  0
  4  5  1  1
  4  6  1  0
  6  7  1  1
  6  8  1  0
  6 12  1  0
  8  9  1  0
  9 10  1  0
 10 11  1  0
 11 12  1  0
M  END
