
     RDKit          3D

 33 37  0  0  0  0  0  0  0  0999 V2000
    1.5610   -3.1440   -0.1210 C   0  0  0  0  0  0  0  0  0  0  0  0
    1.5210   -2.9130   -1.5840 C   0  0  0  0  0  0  0  0  0  0  0  0
    1.7440   -3.9840   -2.4670 C   0  0  0  0  0  0  0  0  0  0  0  0
    1.7400   -3.8580   -3.8240 C   0  0  0  0  0  0  0  0  0  0  0  0
    1.5000   -2.5890   -4.3850 C   0  0  0  0  0  0  0  0  0  0  0  0
    1.2770   -1.5470   -3.5070 C   0  0  0  0  0  0  0  0  0  0  0  0
    0.9490    0.0630   -4.1730 Cl  0  0  0  0  0  0  0  0  0  0  0  0
    1.2860   -1.6880   -2.1270 C   0  0  0  0  0  0  0  0  0  0  0  0
    1.0680   -0.5310   -1.2800 N   0  0  0  0  0  0  0  0  0  0  0  0
   -0.0040   -0.2160   -0.6150 C   0  0  0  0  0  0  0  0  0  0  0  0
   -1.3130   -0.9410   -0.5060 C   0  0  0  0  0  0  0  0  0  0  0  0
   -2.4140   -0.0970   -0.1560 N   0  0  0  0  0  0  0  0  0  0  0  0
   -2.8580   -0.1880    1.2110 C   0  0  2  0  0  0  0  0  0  0  0  0
   -3.7730   -1.3730    1.3590 C   0  0  0  0  0  0  0  0  0  0  0  0
   -4.7770   -1.2220    0.4480 O   0  0  0  0  0  0  0  0  0  0  0  0
   -5.6310   -0.1980    0.6410 C   0  0  0  0  0  0  0  0  0  0  0  0
   -5.0460    1.0800    1.1390 C   0  0  1  0  0  0  0  0  0  0  0  0
   -5.2570    2.1950    0.1460 C   0  0  0  0  0  0  0  0  0  0  0  0
   -6.5050    2.5900    0.8870 C   0  0  0  0  0  0  0  0  0  0  0  0
   -5.9260    1.8680    2.0880 C   0  0  0  0  0  0  0  0  0  0  0  0
   -3.6310    1.0380    1.5710 C   0  0  0  0  0  0  0  0  0  0  0  0
    0.1990    0.9670    0.0270 N   0  0  0  0  0  0  0  0  0  0  0  0
    1.4620    1.3280   -0.3030 N   0  0  0  0  0  0  0  0  0  0  0  0
    2.0310    0.4420   -1.0960 C   0  0  0  0  0  0  0  0  0  0  0  0
    3.6220    0.3010   -1.8750 S   0  0  0  0  0  0  0  0  0  0  0  0
    4.8150   -0.4660   -0.7610 C   0  0  0  0  0  0  0  0  0  0  0  0
    5.6440    0.3840   -0.0420 C   0  0  0  0  0  0  0  0  0  0  0  0
    6.3770    1.1590    0.6210 C   0  0  0  0  0  0  0  0  0  0  0  0
    7.2020    2.0660    1.3930 C   0  0  0  0  0  0  0  0  0  0  0  0
    7.0330    3.4090    1.5690 C   0  0  0  0  0  0  0  0  0  0  0  0
    8.0640    3.8410    2.3770 C   0  0  0  0  0  0  0  0  0  0  0  0
    8.8230    2.7410    2.6630 C   0  0  0  0  0  0  0  0  0  0  0  0
    8.2770    1.7320    2.0660 O   0  0  0  0  0  0  0  0  0  0  0  0
  1  2  1  0
  2  3  2  0
  2  8  1  0
  3  4  1  0
  4  5  2  0
  5  6  1  0
  6  7  1  0
  6  8  2  0
  8  9  1  0
  9 10  1  0
  9 24  1  0
 10 11  1  0
 10 22  2  0
 11 12  1  0
 13 12  1  6
 13 14  1  0
 13 21  1  0
 14 15  1  0
 15 16  1  0
 17 16  1  6
 17 18  1  0
 17 20  1  0
 17 21  1  0
 18 19  1  0
 19 20  1  0
 22 23  1  0
 23 24  2  0
 24 25  1  0
 25 26  1  0
 26 27  1  0
 27 28  3  0
 28 29  1  0
 29 30  2  0
 29 33  1  0
 30 31  1  0
 31 32  2  0
 32 33  1  0
M  CHG  1  12   1
M  END
