
     RDKit          3D

 33 35  0  0  0  0  0  0  0  0999 V2000
   -9.1030   -0.1790   -2.0070 C   0  0  0  0  0  0  0  0  0  0  0  0
   -8.7960   -1.0760   -0.8160 C   0  0  0  0  0  0  0  0  0  0  0  0
   -8.0210   -0.3060    0.1180 N   0  0  0  0  0  0  0  0  0  0  0  0
   -8.6480    0.4010    1.0640 C   0  0  0  0  0  0  0  0  0  0  0  0
   -9.9250    0.3920    1.1360 O   0  0  0  0  0  0  0  0  0  0  0  0
   -7.9080    1.1060    1.9180 N   0  0  0  0  0  0  0  0  0  0  0  0
   -6.5450    1.0970    1.8170 C   0  0  0  0  0  0  0  0  0  0  0  0
   -5.9750    1.7970    2.6750 O   0  0  0  0  0  0  0  0  0  0  0  0
   -5.8880    0.4090    0.8930 N   0  0  0  0  0  0  0  0  0  0  0  0
   -4.5300    0.3130    0.6780 N   0  0  0  0  0  0  0  0  0  0  0  0
   -3.4600    0.9170    1.3710 C   0  0  0  0  0  0  0  0  0  0  0  0
   -3.7590    1.6750    2.3360 O   0  0  0  0  0  0  0  0  0  0  0  0
   -2.0410    0.7150    1.0320 C   0  0  0  0  0  0  0  0  0  0  0  0
   -1.0770    1.5200    1.5370 N   0  0  0  0  0  0  0  0  0  0  0  0
    0.1350    1.1330    1.1090 C   0  0  0  0  0  0  0  0  0  0  0  0
    1.4250    1.5900    1.3130 C   0  0  0  0  0  0  0  0  0  0  0  0
    2.5270    0.9540    0.7070 C   0  0  0  0  0  0  0  0  0  0  0  0
    2.3640   -0.1300   -0.0980 C   0  0  0  0  0  0  0  0  0  0  0  0
    3.4290   -0.7960   -0.7420 N   0  0  0  0  0  0  0  0  0  0  0  0
    4.7700   -0.3630   -0.8340 C   0  0  0  0  0  0  0  0  0  0  0  0
    5.1300    0.7030   -0.3280 O   0  0  0  0  0  0  0  0  0  0  0  0
    5.7320   -1.2630   -1.5770 C   0  0  0  0  0  0  0  0  0  0  0  0
    7.0840   -0.6110   -1.5020 C   0  0  0  0  0  0  0  0  0  0  0  0
    7.5010   -0.4840   -0.1750 N   0  0  0  0  0  0  0  0  0  0  0  0
    8.7230    0.1180    0.1460 C   0  0  1  0  0  0  0  0  0  0  0  0
    9.9470   -0.5840   -0.3850 C   0  0  0  0  0  0  0  0  0  0  0  0
    8.7810    1.5460   -0.2040 N   0  0  0  0  0  0  0  0  0  0  0  0
    1.0460   -0.5580   -0.2770 C   0  0  0  0  0  0  0  0  0  0  0  0
   -0.0260    0.0550    0.3080 C   0  0  0  0  0  0  0  0  0  0  0  0
   -1.4010   -0.1980    0.2680 C   0  0  0  0  0  0  0  0  0  0  0  0
   -1.9730   -1.3240   -0.4910 C   0  0  0  0  0  0  0  0  0  0  0  0
   -6.6830   -0.3030    0.0340 C   0  0  0  0  0  0  0  0  0  0  0  0
   -6.1280   -0.9890   -0.8800 O   0  0  0  0  0  0  0  0  0  0  0  0
  1  2  1  0
  2  3  1  0
  3  4  1  0
  3 32  1  0
  4  5  2  0
  4  6  1  0
  6  7  1  0
  7  8  2  0
  7  9  1  0
  9 10  1  0
  9 32  1  0
 10 11  1  0
 11 12  2  0
 11 13  1  0
 13 14  1  0
 13 30  2  0
 14 15  1  0
 15 16  2  0
 15 29  1  0
 16 17  1  0
 17 18  2  0
 18 19  1  0
 18 28  1  0
 19 20  1  0
 20 21  2  0
 20 22  1  0
 22 23  1  0
 23 24  1  0
 24 25  1  0
 25 26  1  6
 25 27  1  0
 28 29  2  0
 29 30  1  0
 30 31  1  0
 32 33  2  0
M  END
