
     RDKit          3D

 33 35  0  0  0  0  0  0  0  0999 V2000
    7.3400   -2.0540    4.1390 C   0  0  0  0  0  0  0  0  0  0  0  0
    5.9210   -2.4920    4.3730 C   0  0  0  0  0  0  0  0  0  0  0  0
    5.0620   -2.0730    3.3180 O   0  0  0  0  0  0  0  0  0  0  0  0
    5.2510   -2.4620    2.0200 C   0  0  0  0  0  0  0  0  0  0  0  0
    6.2170   -3.2170    1.7500 O   0  0  0  0  0  0  0  0  0  0  0  0
    4.3410   -2.0080    0.9580 C   0  0  0  0  0  0  0  0  0  0  0  0
    4.5520   -2.4130   -0.3380 C   0  0  0  0  0  0  0  0  0  0  0  0
    3.6910   -1.9810   -1.3320 C   0  0  0  0  0  0  0  0  0  0  0  0
    2.6120   -1.1460   -1.0680 C   0  0  0  0  0  0  0  0  0  0  0  0
    1.8240   -0.7600   -2.1660 N   0  0  0  0  0  0  0  0  0  0  0  0
    0.4590   -0.2950   -2.0890 C   0  0  0  0  0  0  0  0  0  0  0  0
    0.0440   -0.2730   -0.9340 O   0  0  0  0  0  0  0  0  0  0  0  0
   -0.2780    0.0830   -3.2520 C   0  0  0  0  0  0  0  0  0  0  0  0
   -1.5420    0.5180   -3.1660 C   0  0  0  0  0  0  0  0  0  0  0  0
   -2.1770    0.6130   -1.8750 C   0  0  0  0  0  0  0  0  0  0  0  0
   -1.7010    0.2270   -0.7840 O   0  0  0  0  0  0  0  0  0  0  0  0
   -3.4770    1.1970   -1.6920 N   0  0  0  0  0  0  0  0  0  0  0  0
   -4.0880    1.2660   -0.3680 C   0  0  0  0  0  0  0  0  0  0  0  0
   -3.3270    2.0690    0.6210 C   0  0  0  0  0  0  0  0  0  0  0  0
   -3.9930    2.1200    1.9790 C   0  0  1  0  0  0  0  0  0  0  0  0
   -4.1570    0.7470    2.5890 C   0  0  0  0  0  0  0  0  0  0  0  0
   -4.2020    1.0830    4.0710 C   0  0  0  0  0  0  0  0  0  0  0  0
   -3.6380    2.3870    4.2310 N   0  0  0  0  0  0  0  0  0  0  0  0
   -3.0500    2.7790    2.9680 C   0  0  0  0  0  0  0  0  0  0  0  0
   -2.3780    0.8500   -4.3470 C   0  0  0  0  0  0  0  0  0  0  0  0
   -3.7300    0.4810   -4.2560 N   0  0  0  0  0  0  0  0  0  0  0  0
   -2.0550    1.3760   -5.5070 N   0  0  0  0  0  0  0  0  0  0  0  0
   -0.7400    1.7560   -5.8960 N   0  0  0  0  0  0  0  0  0  0  0  0
    0.3980    0.9260   -5.5920 C   0  0  0  0  0  0  0  0  0  0  0  0
    1.3570    1.0460   -6.3690 O   0  0  0  0  0  0  0  0  0  0  0  0
    0.4960    0.0010   -4.4860 N   0  0  0  0  0  0  0  0  0  0  0  0
    2.4510   -0.7760    0.2310 C   0  0  0  0  0  0  0  0  0  0  0  0
    3.3060   -1.2060    1.2140 N   0  0  0  0  0  0  0  0  0  0  0  0
  1  2  1  0
  2  3  1  0
  3  4  1  0
  4  5  2  0
  4  6  1  0
  6  7  2  0
  6 33  1  0
  7  8  1  0
  8  9  2  0
  9 10  1  0
  9 32  1  0
 10 11  1  0
 11 12  2  0
 11 13  1  0
 13 14  2  0
 13 31  1  0
 14 15  1  0
 14 25  1  0
 15 16  2  0
 15 17  1  0
 17 18  1  0
 18 19  1  0
 20 19  1  6
 20 21  1  0
 20 24  1  0
 21 22  1  0
 22 23  1  0
 23 24  1  0
 25 26  1  0
 25 27  2  0
 27 28  1  0
 28 29  1  0
 29 30  2  0
 29 31  1  0
 32 33  2  0
M  END
