
     RDKit          3D

 33 37  0  0  0  0  0  0  0  0999 V2000
    9.8590   -0.4130   -0.1090 C   0  0  0  0  0  0  0  0  0  0  0  0
    8.4490   -0.4810   -0.5080 C   0  0  0  0  0  0  0  0  0  0  0  0
    7.4640   -0.2390    0.4790 C   0  0  0  0  0  0  0  0  0  0  0  0
    6.1180   -0.2440    0.1580 C   0  0  0  0  0  0  0  0  0  0  0  0
    5.6430   -0.4810   -1.1450 C   0  0  0  0  0  0  0  0  0  0  0  0
    4.3700   -0.4980   -1.5810 C   0  0  0  0  0  0  0  0  0  0  0  0
    3.0980   -0.0200   -0.9490 C   0  0  0  0  0  0  0  0  0  0  0  0
    2.1150    0.1090   -1.7590 O   0  0  0  0  0  0  0  0  0  0  0  0
    2.8690    0.3180    0.3530 N   0  0  0  0  0  0  0  0  0  0  0  0
    1.5950    0.9700    0.6920 C   0  0  0  0  0  0  0  0  0  0  0  0
    1.7870    2.2110    1.3550 C   0  0  0  0  0  0  0  0  0  0  0  0
    0.7150    3.0680    1.4770 C   0  0  0  0  0  0  0  0  0  0  0  0
   -0.5090    2.7280    0.9710 C   0  0  0  0  0  0  0  0  0  0  0  0
   -1.8530    3.8780    1.0870 Cl  0  0  0  0  0  0  0  0  0  0  0  0
   -0.6880    1.4700    0.3180 C   0  0  0  0  0  0  0  0  0  0  0  0
   -1.9890    1.3300   -0.3370 C   0  0  0  0  0  0  0  0  0  0  0  0
   -2.8720    0.3180   -0.0110 N   0  0  2  0  0  0  0  0  0  0  0  0
   -2.8030    0.1120    1.4420 C   0  0  0  0  0  0  0  0  0  0  0  0
   -4.2730   -0.1980    1.8090 C   0  0  0  0  0  0  0  0  0  0  0  0
   -4.5300   -1.4530    1.1920 N   0  0  0  0  0  0  0  0  0  0  0  0
   -5.9050   -1.7990    1.0670 C   0  0  0  0  0  0  0  0  0  0  0  0
   -6.6810   -0.9620    0.1010 C   0  0  0  0  0  0  0  0  0  0  0  0
   -7.2950    0.2380    0.3480 C   0  0  0  0  0  0  0  0  0  0  0  0
   -7.9030    0.6540   -0.8190 C   0  0  0  0  0  0  0  0  0  0  0  0
   -7.6400   -0.3220   -1.7430 C   0  0  0  0  0  0  0  0  0  0  0  0
   -6.9230   -1.2480   -1.1700 O   0  0  0  0  0  0  0  0  0  0  0  0
   -3.6450   -1.9130    0.2150 C   0  0  0  0  0  0  0  0  0  0  0  0
   -3.0210   -0.8680   -0.7320 C   0  0  0  0  0  0  0  0  0  0  0  0
    0.3870    0.6240    0.2020 C   0  0  0  0  0  0  0  0  0  0  0  0
    4.2170   -0.7810   -2.9360 N   0  0  0  0  0  0  0  0  0  0  0  0
    5.8260   -1.0110   -3.6150 S   0  0  0  0  0  0  0  0  0  0  0  0
    6.6520   -0.7130   -2.0530 C   0  0  0  0  0  0  0  0  0  0  0  0
    8.0060   -0.7200   -1.7830 C   0  0  0  0  0  0  0  0  0  0  0  0
  1  2  1  0
  2  3  2  0
  2 33  1  0
  3  4  1  0
  4  5  2  0
  5  6  1  0
  5 32  1  0
  6  7  1  0
  6 30  2  0
  7  8  2  0
  7  9  1  0
  9 10  1  0
 10 11  2  0
 10 29  1  0
 11 12  1  0
 12 13  2  0
 13 14  1  0
 13 15  1  0
 15 16  1  0
 15 29  2  0
 17 16  1  6
 17 18  1  0
 17 28  1  0
 18 19  1  0
 19 20  1  0
 20 21  1  0
 20 27  1  0
 21 22  1  0
 22 23  2  0
 22 26  1  0
 23 24  1  0
 24 25  2  0
 25 26  1  0
 27 28  1  0
 30 31  1  0
 31 32  1  0
 32 33  2  0
M  CHG  1  17   1
M  END
