
     RDKit          3D

 33 37  0  0  0  0  0  0  0  0999 V2000
   -4.6140    3.5780    0.9490 C   0  0  0  0  0  0  0  0  0  0  0  0
   -4.1410    2.9380    2.1880 C   0  0  0  0  0  0  0  0  0  0  0  0
   -3.7470    1.7450    2.3350 N   0  0  0  0  0  0  0  0  0  0  0  0
   -3.6830    0.7590    1.3050 C   0  0  0  0  0  0  0  0  0  0  0  0
   -2.5600    0.6610    0.5120 C   0  0  0  0  0  0  0  0  0  0  0  0
   -1.4420    1.6160    0.7430 C   0  0  0  0  0  0  0  0  0  0  0  0
   -0.3010    1.4030   -0.0920 N   0  0  0  0  0  0  0  0  0  0  0  0
    0.4730    0.2180   -0.0100 C   0  0  0  0  0  0  0  0  0  0  0  0
    0.1200   -0.6520    0.8400 O   0  0  0  0  0  0  0  0  0  0  0  0
    1.5950    0.0700   -0.8820 C   0  0  0  0  0  0  0  0  0  0  0  0
    1.7070    0.0420   -2.2570 C   0  0  0  0  0  0  0  0  0  0  0  0
    2.9760   -0.0940   -2.5710 N   0  0  0  0  0  0  0  0  0  0  0  0
    3.7630   -0.1620   -1.4340 N   0  0  0  0  0  0  0  0  0  0  0  0
    2.9080   -0.0610   -0.4140 C   0  0  0  0  0  0  0  0  0  0  0  0
    3.9860   -0.1680    1.0220 S   0  0  0  0  0  0  0  0  0  0  0  0
    5.4800   -0.3400    0.0930 C   0  0  0  0  0  0  0  0  0  0  0  0
    6.7890   -0.4840    0.5110 C   0  0  0  0  0  0  0  0  0  0  0  0
    7.7970   -0.6050   -0.4080 C   0  0  0  0  0  0  0  0  0  0  0  0
    9.1120   -0.7530   -0.0210 O   0  0  0  0  0  0  0  0  0  0  0  0
    9.6060   -0.8040    1.2740 C   0  0  0  0  0  0  0  0  0  0  0  0
    7.4090   -0.5710   -1.7290 C   0  0  0  0  0  0  0  0  0  0  0  0
    6.1100   -0.4280   -2.1410 C   0  0  0  0  0  0  0  0  0  0  0  0
    5.0520   -0.3020   -1.1980 C   0  0  0  0  0  0  0  0  0  0  0  0
   -2.5410   -0.3010   -0.4550 C   0  0  0  0  0  0  0  0  0  0  0  0
   -3.6280   -1.1750   -0.6480 C   0  0  0  0  0  0  0  0  0  0  0  0
   -3.4940   -2.0430   -1.5950 C   0  0  0  0  0  0  0  0  0  0  0  0
   -4.4530   -3.0720   -2.0210 C   0  0  0  0  0  0  0  0  0  0  0  0
   -4.7280   -1.0440    0.1640 C   0  0  0  0  0  0  0  0  0  0  0  0
   -4.7720   -0.0700    1.1570 C   0  0  0  0  0  0  0  0  0  0  0  0
   -6.0530   -0.1630    1.8610 C   0  0  0  0  0  0  0  0  0  0  0  0
   -6.5470    0.8640    3.1820 Cl  0  0  0  0  0  0  0  0  0  0  0  0
   -6.7230   -1.1370    1.3100 C   0  0  0  0  0  0  0  0  0  0  0  0
   -5.8760   -1.6810    0.2440 C   0  0  0  0  0  0  0  0  0  0  0  0
  1  2  1  0
  2  3  2  3
  3  4  1  0
  4  5  1  0
  4 29  2  0
  5  6  1  0
  5 24  2  0
  6  7  1  0
  7  8  1  0
  8  9  2  0
  8 10  1  0
 10 11  1  0
 10 14  2  0
 11 12  2  0
 12 13  1  0
 13 14  1  0
 13 23  1  0
 14 15  1  0
 15 16  1  0
 16 17  2  0
 16 23  1  0
 17 18  1  0
 18 19  1  0
 18 21  2  0
 19 20  1  0
 21 22  1  0
 22 23  2  0
 24 25  1  0
 25 26  2  3
 25 28  1  0
 26 27  1  0
 28 29  1  0
 28 33  2  0
 29 30  1  0
 30 31  1  0
 30 32  2  0
 32 33  1  0
M  CHG  1   3   1
M  END
