
     RDKit          3D

 33 37  0  0  0  0  0  0  0  0999 V2000
   10.0980    1.1640   -0.0210 C   0  0  0  0  0  0  0  0  0  0  0  0
    8.9810    0.1880   -0.0830 C   0  0  0  0  0  0  0  0  0  0  0  0
    7.6380    0.7990    0.1030 C   0  0  0  0  0  0  0  0  0  0  0  0
    6.7360    1.3670   -0.3250 N   0  0  0  0  0  0  0  0  0  0  0  0
    5.5870    1.6170    0.0860 N   0  0  0  0  0  0  0  0  0  0  0  0
    5.2240    1.1880    1.2010 C   0  0  0  0  0  0  0  0  0  0  0  0
    4.0370    1.0980    2.0230 N   0  0  0  0  0  0  0  0  0  0  0  0
    3.4800   -0.2500    2.0570 O   0  0  0  0  0  0  0  0  0  0  0  0
    2.5190   -0.3210    0.9250 C   0  0  0  0  0  0  0  0  0  0  0  0
    1.1970    0.0150    1.1260 C   0  0  0  0  0  0  0  0  0  0  0  0
    0.3610   -0.0350    0.0160 C   0  0  0  0  0  0  0  0  0  0  0  0
   -0.9730    0.4200   -0.0040 C   0  0  0  0  0  0  0  0  0  0  0  0
   -2.0540   -0.1470    0.6580 N   0  0  2  0  0  0  0  0  0  0  0  0
   -2.0160   -1.0870    1.6910 C   0  0  0  0  0  0  0  0  0  0  0  0
   -3.4580   -1.6030    1.9820 C   0  0  0  0  0  0  0  0  0  0  0  0
   -4.4710   -0.8960    1.1660 C   0  0  0  0  0  0  0  0  0  0  0  0
   -5.7430   -0.5120    1.6170 C   0  0  0  0  0  0  0  0  0  0  0  0
   -6.6420    0.1310    0.7640 C   0  0  0  0  0  0  0  0  0  0  0  0
   -6.2910    0.4040   -0.5680 C   0  0  0  0  0  0  0  0  0  0  0  0
   -5.0680    0.0130   -0.9430 C   0  0  0  0  0  0  0  0  0  0  0  0
   -4.5480    0.3330   -2.6290 Cl  0  0  0  0  0  0  0  0  0  0  0  0
   -4.1750   -0.6110   -0.1400 C   0  0  0  0  0  0  0  0  0  0  0  0
   -2.7830   -0.9590   -0.4690 C   0  0  0  0  0  0  0  0  0  0  0  0
   -7.4410    1.1220   -1.2280 C   0  0  0  0  0  0  0  0  0  0  0  0
   -7.9510    1.8660    0.0170 C   0  0  0  0  0  0  0  0  0  0  0  0
   -8.0000    0.6780    0.9970 C   0  0  0  0  0  0  0  0  0  0  0  0
    0.8900   -0.4260   -1.2290 C   0  0  0  0  0  0  0  0  0  0  0  0
    0.0550   -0.4450   -2.3490 O   0  0  0  0  0  0  0  0  0  0  0  0
    0.4660   -0.7650   -3.6540 C   0  0  0  0  0  0  0  0  0  0  0  0
    2.1990   -0.7730   -1.3660 C   0  0  0  0  0  0  0  0  0  0  0  0
    3.0430   -0.7220   -0.2270 C   0  0  0  0  0  0  0  0  0  0  0  0
    4.4010   -1.3120   -0.4060 C   0  0  0  0  0  0  0  0  0  0  0  0
    6.8070    0.3040    1.7610 S   0  0  0  0  0  0  0  0  0  0  0  0
  1  2  1  0
  2  3  1  0
  3  4  2  0
  3 33  1  0
  4  5  1  0
  5  6  2  0
  6  7  1  0
  6 33  1  0
  7  8  1  0
  8  9  1  0
  9 10  2  0
  9 31  1  0
 10 11  1  0
 11 12  1  0
 11 27  2  0
 13 12  1  6
 13 14  1  0
 13 23  1  0
 14 15  1  0
 15 16  1  0
 16 17  2  0
 16 22  1  0
 17 18  1  0
 18 19  2  0
 18 26  1  0
 19 20  1  0
 19 24  1  0
 20 21  1  0
 20 22  2  0
 22 23  1  0
 24 25  1  0
 25 26  1  0
 27 28  1  0
 27 30  1  0
 28 29  1  0
 30 31  2  0
 31 32  1  0
M  CHG  1  13   1
M  END
