
     RDKit          3D

 25 26  0  0  0  0  0  0  0  0999 V2000
    1.7290   -3.6690   -0.9600 C   0  0  0  0  0  0  0  0  0  0  0  0
    0.9040   -3.2740    0.1670 C   0  0  0  0  0  0  0  0  0  0  0  0
   -0.0320   -4.3000    0.5950 O   0  0  0  0  0  0  0  0  0  0  0  0
    0.9010   -2.1580    0.8200 C   0  0  0  0  0  0  0  0  0  0  0  0
   -0.1050   -2.0240    1.9860 C   0  0  0  0  0  0  0  0  0  0  0  0
   -0.9530   -0.8450    1.7260 N   0  0  0  0  0  0  0  0  0  0  0  0
   -1.7180   -0.8030    0.5710 C   0  0  0  0  0  0  0  0  0  0  0  0
   -1.5960   -1.8600   -0.1960 O   0  0  0  0  0  0  0  0  0  0  0  0
   -2.6170    0.1570    0.0370 C   0  0  0  0  0  0  0  0  0  0  0  0
   -2.9720    1.3040    0.5240 C   0  0  0  0  0  0  0  0  0  0  0  0
   -2.4450    1.7980    1.8000 C   0  0  0  0  0  0  0  0  0  0  0  0
   -3.9580    2.1720   -0.2460 C   0  0  0  0  0  0  0  0  0  0  0  0
   -5.1450    1.4020   -0.7190 C   0  0  0  0  0  0  0  0  0  0  0  0
   -4.7730   -0.0010   -1.0640 C   0  0  0  0  0  0  0  0  0  0  0  0
   -3.3000   -0.1670   -1.3110 C   0  0  0  0  0  0  0  0  0  0  0  0
    1.7160   -0.9980    0.6140 C   0  0  0  0  0  0  0  0  0  0  0  0
    1.5060   -0.0030    1.4210 O   0  0  0  0  0  0  0  0  0  0  0  0
    2.7220   -0.7520   -0.3330 N   0  0  0  0  0  0  0  0  0  0  0  0
    3.4940    0.4330   -0.4610 C   0  0  0  0  0  0  0  0  0  0  0  0
    3.6690    1.3270    0.5510 C   0  0  0  0  0  0  0  0  0  0  0  0
    4.4320    2.4920    0.3230 C   0  0  0  0  0  0  0  0  0  0  0  0
    4.9880    2.7100   -0.9110 C   0  0  0  0  0  0  0  0  0  0  0  0
    5.7300    3.8570   -1.1100 O   0  0  0  0  0  0  0  0  0  0  0  0
    4.8180    1.8140   -1.9410 C   0  0  0  0  0  0  0  0  0  0  0  0
    4.0740    0.6810   -1.7150 C   0  0  0  0  0  0  0  0  0  0  0  0
  1  2  1  0
  2  3  1  0
  2  4  2  3
  4  5  1  0
  4 16  1  0
  5  6  1  0
  6  7  1  0
  7  8  2  0
  7  9  1  0
  9 10  2  0
  9 15  1  0
 10 11  1  0
 10 12  1  0
 12 13  1  0
 13 14  1  0
 14 15  1  0
 16 17  2  0
 16 18  1  0
 18 19  1  0
 19 20  2  0
 19 25  1  0
 20 21  1  0
 21 22  2  0
 22 23  1  0
 22 24  1  0
 24 25  2  0
M  END
