
     RDKit          3D

 12 12  0  0  0  0  0  0  0  0999 V2000
   -2.5760    0.0050   -0.0000 O   0  0  0  0  0  0  0  0  0  0  0  0
   -1.1770    0.0310   -0.0010 C   0  0  0  0  0  0  0  0  0  0  0  0
   -0.4270   -1.1260    0.0420 C   0  0  0  0  0  0  0  0  0  0  0  0
   -1.3150   -2.6430    0.0980 Cl  0  0  0  0  0  0  0  0  0  0  0  0
    0.9510   -1.0870    0.0400 C   0  0  0  0  0  0  0  0  0  0  0  0
    1.8590   -2.5710    0.0950 Cl  0  0  0  0  0  0  0  0  0  0  0  0
    1.6420    0.1060   -0.0040 C   0  0  0  0  0  0  0  0  0  0  0  0
    3.3980    0.1630   -0.0060 Cl  0  0  0  0  0  0  0  0  0  0  0  0
    0.8840    1.2590   -0.0470 C   0  0  0  0  0  0  0  0  0  0  0  0
    1.7220    2.7810   -0.1030 Cl  0  0  0  0  0  0  0  0  0  0  0  0
   -0.5000    1.2350   -0.0460 C   0  0  0  0  0  0  0  0  0  0  0  0
   -1.4160    2.7290   -0.1010 Cl  0  0  0  0  0  0  0  0  0  0  0  0
  1  2  1  0
  2  3  2  0
  2 11  1  0
  3  4  1  0
  3  5  1  0
  5  6  1  0
  5  7  2  0
  7  8  1  0
  7  9  1  0
  9 10  1  0
  9 11  2  0
 11 12  1  0
M  END
