
     RDKit          3D

 16 17  0  0  0  0  0  0  0  0999 V2000
    5.3770    1.3420   -0.9130 O   0  0  0  0  0  0  0  0  0  0  0  0
    5.0960    0.2950   -0.2820 C   0  0  0  0  0  0  0  0  0  0  0  0
    6.0060   -0.1780    0.6480 O   0  0  0  0  0  0  0  0  0  0  0  0
    3.8350   -0.4360   -0.5030 C   0  0  0  0  0  0  0  0  0  0  0  0
    2.6650    0.2340    0.1870 C   0  0  0  0  0  0  0  0  0  0  0  0
    1.3840   -0.5340   -0.0540 C   0  0  0  0  0  0  0  0  0  0  0  0
    0.2040    0.1280    0.6330 C   0  0  0  0  0  0  0  0  0  0  0  0
   -1.0070   -0.6970    0.3390 C   0  0  2  0  0  0  0  0  0  0  0  0
   -1.2920   -0.7760   -1.4740 S   0  0  0  0  0  0  0  0  0  0  0  0
   -3.1010   -0.5600   -1.4500 C   0  0  0  0  0  0  0  0  0  0  0  0
   -3.4160   -0.7140    0.0170 C   0  0  2  0  0  0  0  0  0  0  0  0
   -4.4920    0.2220    0.3060 N   0  0  0  0  0  0  0  0  0  0  0  0
   -3.8680    1.4970    0.3760 C   0  0  0  0  0  0  0  0  0  0  0  0
   -4.5080    2.5800    0.3670 O   0  0  0  0  0  0  0  0  0  0  0  0
   -2.4390    1.3080    0.4540 N   0  0  0  0  0  0  0  0  0  0  0  0
   -2.2850   -0.0910    0.7930 C   0  0  2  0  0  0  0  0  0  0  0  0
  1  2  2  0
  2  3  1  0
  2  4  1  0
  4  5  1  0
  5  6  1  0
  6  7  1  0
  8  7  1  6
  8  9  1  0
  8 16  1  0
  9 10  1  0
 11 10  1  6
 11 12  1  0
 11 16  1  0
 12 13  1  0
 13 14  2  0
 13 15  1  0
 16 15  1  6
M  END
