
     RDKit          3D

 27 28  0  0  0  0  0  0  0  0999 V2000
   -4.9640   -0.6970    2.1110 C   0  0  0  0  0  0  0  0  0  0  0  0
   -5.7700   -0.3760    1.1430 C   0  0  0  0  0  0  0  0  0  0  0  0
   -7.1100   -0.9320    1.1060 C   0  0  0  0  0  0  0  0  0  0  0  0
   -7.9540   -0.6580    0.1820 N   0  0  0  0  0  0  0  0  0  0  0  0
   -5.3930    0.5490    0.0730 C   0  0  1  0  0  0  0  0  0  0  0  0
   -6.2390    1.6960    0.1810 O   0  0  0  0  0  0  0  0  0  0  0  0
   -3.9740    1.0290    0.0810 C   0  0  2  0  0  0  0  0  0  0  0  0
   -2.9570    0.0350   -0.3670 C   0  0  0  0  0  0  0  0  0  0  0  0
   -1.6550    0.7420   -0.3770 N   0  0  0  0  0  0  0  0  0  0  0  0
   -0.4940   -0.0380   -0.4480 C   0  0  0  0  0  0  0  0  0  0  0  0
   -0.6370   -1.3140   -0.4940 O   0  0  0  0  0  0  0  0  0  0  0  0
    0.8700    0.4290   -0.4750 C   0  0  0  0  0  0  0  0  0  0  0  0
    1.2240    1.6400   -0.4420 O   0  0  0  0  0  0  0  0  0  0  0  0
    1.9490   -0.4950   -0.5450 N   0  0  0  0  0  0  0  0  0  0  0  0
    3.3360   -0.0590   -0.5750 C   0  0  1  0  0  0  0  0  0  0  0  0
    4.0870   -0.4970    0.5810 C   0  0  0  0  0  0  0  0  0  0  0  0
    5.2250   -1.1320    0.4970 C   0  0  0  0  0  0  0  0  0  0  0  0
    5.8460   -1.4990    1.7330 N   0  0  0  0  0  0  0  0  0  0  0  0
    5.8460   -1.4570   -0.7760 C   0  0  0  0  0  0  0  0  0  0  0  0
    7.0470   -2.1270   -0.8420 O   0  0  0  0  0  0  0  0  0  0  0  0
    8.3120   -1.5130   -0.7750 C   0  0  0  0  0  0  0  0  0  0  0  0
    5.2480   -1.1040   -1.8960 C   0  0  0  0  0  0  0  0  0  0  0  0
    3.9850   -0.4000   -1.8450 C   0  0  0  0  0  0  0  0  0  0  0  0
    3.4460   -0.0790   -2.9630 O   0  0  0  0  0  0  0  0  0  0  0  0
   -1.7630    2.1610   -0.3110 C   0  0  0  0  0  0  0  0  0  0  0  0
   -2.6110    2.6310    0.8590 C   0  0  0  0  0  0  0  0  0  0  0  0
   -3.5610    1.6730    1.2110 O   0  0  0  0  0  0  0  0  0  0  0  0
  1  2  2  0
  2  3  1  0
  2  5  1  0
  3  4  2  0
  5  6  1  1
  5  7  1  0
  7  8  1  1
  7 27  1  0
  8  9  1  0
  9 10  1  0
  9 25  1  0
 10 11  2  0
 10 12  1  0
 12 13  2  0
 12 14  1  0
 15 14  1  6
 15 16  1  0
 15 23  1  0
 16 17  2  0
 17 18  1  0
 17 19  1  0
 19 20  1  0
 19 22  2  0
 20 21  1  0
 22 23  1  0
 23 24  2  0
 25 26  1  0
 26 27  1  0
M  END
