
     RDKit          3D

 27 29  0  0  0  0  0  0  0  0999 V2000
    5.7460    3.1560   -0.8050 C   0  0  0  0  0  0  0  0  0  0  0  0
    5.1080    1.8240   -1.0980 C   0  0  0  0  0  0  0  0  0  0  0  0
    5.5640    0.7660   -0.5940 O   0  0  0  0  0  0  0  0  0  0  0  0
    3.9880    1.7650   -1.9480 N   0  0  0  0  0  0  0  0  0  0  0  0
    3.2850    0.5790   -2.3120 C   0  0  0  0  0  0  0  0  0  0  0  0
    2.7490   -0.0560   -1.0450 C   0  0  0  0  0  0  0  0  0  0  0  0
    2.9770    0.4680    0.0720 O   0  0  0  0  0  0  0  0  0  0  0  0
    2.0200   -1.1840   -1.0500 O   0  0  0  0  0  0  0  0  0  0  0  0
    1.4430   -1.9240   -0.0870 C   0  0  2  0  0  0  0  0  0  0  0  0
    2.3200   -2.5100    1.0060 C   0  0  0  0  0  0  0  0  0  0  0  0
    0.9490   -3.2160   -0.8260 C   0  0  0  0  0  0  0  0  0  0  0  0
    0.2800   -1.2190    0.5400 C   0  0  0  0  0  0  0  0  0  0  0  0
   -0.9650   -1.1210    0.1100 C   0  0  0  0  0  0  0  0  0  0  0  0
   -1.6430   -1.6220   -1.0570 N   0  0  0  0  0  0  0  0  0  0  0  0
   -2.8410   -0.8970   -1.4090 C   0  0  0  0  0  0  0  0  0  0  0  0
   -3.7840   -1.5360   -1.9380 O   0  0  0  0  0  0  0  0  0  0  0  0
   -2.8470    0.5410   -1.1120 C   0  0  0  0  0  0  0  0  0  0  0  0
   -2.5910    0.7720    0.3540 C   0  0  1  0  0  0  0  0  0  0  0  0
   -3.8910    1.0360    1.0110 C   0  0  0  0  0  0  0  0  0  0  0  0
   -4.4180    0.4500    2.0650 C   0  0  0  0  0  0  0  0  0  0  0  0
   -5.7300    1.0740    2.3220 C   0  0  0  0  0  0  0  0  0  0  0  0
   -5.6940    2.2530    1.5820 O   0  0  0  0  0  0  0  0  0  0  0  0
   -4.8040    2.0170    0.5720 N   0  0  0  0  0  0  0  0  0  0  0  0
   -1.8210   -0.3320    1.0300 C   0  0  2  0  0  0  0  0  0  0  0  0
   -0.9050    0.1450    2.0160 N   0  0  0  0  0  0  0  0  0  0  0  0
    0.3610   -0.4210    1.7660 C   0  0  0  0  0  0  0  0  0  0  0  0
    1.4050   -0.2820    2.4660 O   0  0  0  0  0  0  0  0  0  0  0  0
  1  2  1  0
  2  3  2  0
  2  4  1  0
  4  5  1  0
  5  6  1  0
  6  7  2  0
  6  8  1  0
  8  9  1  0
  9 10  1  1
  9 11  1  0
  9 12  1  0
 12 13  2  0
 12 26  1  0
 13 14  1  0
 13 24  1  0
 14 15  1  0
 15 16  2  0
 15 17  1  0
 17 18  1  0
 18 19  1  1
 18 24  1  0
 19 20  2  0
 19 23  1  0
 20 21  1  0
 21 22  1  0
 22 23  1  0
 24 25  1  1
 25 26  1  0
 26 27  2  0
M  END
