
     RDKit          3D

 27 29  0  0  0  0  0  0  0  0999 V2000
    5.5170   -0.3670   -1.0360 C   0  0  0  0  0  0  0  0  0  0  0  0
    4.9680    0.0670    0.0740 C   0  0  0  0  0  0  0  0  0  0  0  0
    5.5180    1.2560    0.6470 N   0  0  0  0  0  0  0  0  0  0  0  0
    4.9750    1.7450    1.8530 C   0  0  0  0  0  0  0  0  0  0  0  0
    3.9860    1.1390    2.4580 C   0  0  0  0  0  0  0  0  0  0  0  0
    3.5090    1.6860    3.6440 O   0  0  0  0  0  0  0  0  0  0  0  0
    3.4060   -0.0720    1.8980 C   0  0  0  0  0  0  0  0  0  0  0  0
    3.8730   -0.5780    0.7660 C   0  0  0  0  0  0  0  0  0  0  0  0
    3.3060   -1.7110    0.2650 O   0  0  0  0  0  0  0  0  0  0  0  0
    2.4810   -1.7590   -0.8320 C   0  0  0  0  0  0  0  0  0  0  0  0
    1.2470   -0.9320   -0.6520 C   0  0  0  0  0  0  0  0  0  0  0  0
    1.0040   -0.2600    0.3860 O   0  0  0  0  0  0  0  0  0  0  0  0
    0.3440   -0.9390   -1.7260 N   0  0  0  0  0  0  0  0  0  0  0  0
   -0.8740   -0.1220   -1.5490 C   0  0  0  0  0  0  0  0  0  0  0  0
   -1.9520   -0.8070   -1.6110 C   0  0  0  0  0  0  0  0  0  0  0  0
   -3.3180   -0.3680   -1.4800 C   0  0  0  0  0  0  0  0  0  0  0  0
   -4.3560   -1.1520   -1.6070 N   0  0  0  0  0  0  0  0  0  0  0  0
   -5.5410   -0.3990   -1.4190 C   0  0  0  0  0  0  0  0  0  0  0  0
   -6.7000   -0.6660   -1.7420 O   0  0  0  0  0  0  0  0  0  0  0  0
   -5.0550    0.8360   -0.7180 C   0  0  1  0  0  0  0  0  0  0  0  0
   -5.1240    0.6300    0.7520 C   0  0  1  0  0  0  0  0  0  0  0  0
   -4.4330   -0.4760    1.4590 C   0  0  0  0  0  0  0  0  0  0  0  0
   -3.8770    0.9670    1.5330 C   0  0  0  0  0  0  0  0  0  0  0  0
   -3.7530    0.8990   -1.2030 O   0  0  0  0  0  0  0  0  0  0  0  0
   -0.6030    1.2570   -1.3760 C   0  0  0  0  0  0  0  0  0  0  0  0
   -1.5640    2.2640   -1.2160 N   0  0  0  0  0  0  0  0  0  0  0  0
    0.6180    1.6690   -1.3610 O   0  0  0  0  0  0  0  0  0  0  0  0
  1  2  2  0
  2  3  1  0
  2  8  1  0
  3  4  1  0
  4  5  2  0
  5  6  1  0
  5  7  1  0
  7  8  2  0
  8  9  1  0
  9 10  1  0
 10 11  1  0
 11 12  2  0
 11 13  1  0
 13 14  1  0
 14 15  2  3
 14 25  1  0
 15 16  1  0
 16 17  2  0
 16 24  1  0
 17 18  1  0
 18 19  2  0
 18 20  1  0
 20 21  1  0
 20 24  1  6
 21 22  1  6
 21 23  1  0
 22 23  1  0
 25 26  1  0
 25 27  2  0
M  END
