
     RDKit          3D

 27 29  0  0  0  0  0  0  0  0999 V2000
    5.5410   -0.4340    0.7730 C   0  0  0  0  0  0  0  0  0  0  0  0
    4.5250    0.4020    1.4690 C   0  0  0  0  0  0  0  0  0  0  0  0
    3.6430    1.1110    0.5210 C   0  0  0  0  0  0  0  0  0  0  0  0
    2.8140    0.3370   -0.4100 C   0  0  2  0  0  0  0  0  0  0  0  0
    3.4650   -0.5650   -1.3820 C   0  0  0  0  0  0  0  0  0  0  0  0
    2.0220    1.3070   -1.1920 N   0  0  0  0  0  0  0  0  0  0  0  0
    0.7290    0.7240   -1.3670 C   0  0  0  0  0  0  0  0  0  0  0  0
   -0.0250    1.1350   -2.2910 O   0  0  0  0  0  0  0  0  0  0  0  0
    0.4960   -0.2980   -0.4190 N   0  0  0  0  0  0  0  0  0  0  0  0
   -0.6470   -1.0490   -0.0530 C   0  0  0  0  0  0  0  0  0  0  0  0
   -1.8550   -0.5640    0.0030 C   0  0  0  0  0  0  0  0  0  0  0  0
   -1.9280    0.8310   -0.2740 N   0  0  0  0  0  0  0  0  0  0  0  0
   -3.0680    1.6240   -0.5770 C   0  0  0  0  0  0  0  0  0  0  0  0
   -2.9130    2.8680   -1.2840 C   0  0  0  0  0  0  0  0  0  0  0  0
   -1.8020    3.2870   -1.6340 O   0  0  0  0  0  0  0  0  0  0  0  0
   -4.0600    3.6490   -1.5950 O   0  0  0  0  0  0  0  0  0  0  0  0
   -4.3270    1.3610   -0.1960 C   0  0  0  0  0  0  0  0  0  0  0  0
   -4.7610    0.1980    0.6120 C   0  0  0  0  0  0  0  0  0  0  0  0
   -4.3470   -1.0850    0.0090 C   0  0  0  0  0  0  0  0  0  0  0  0
   -2.9720   -1.5500    0.1180 C   0  0  2  0  0  0  0  0  0  0  0  0
   -2.6820   -2.5600    1.1110 C   0  0  0  0  0  0  0  0  0  0  0  0
   -3.4940   -2.9280    2.0200 O   0  0  0  0  0  0  0  0  0  0  0  0
   -1.4030   -3.1690    1.0510 N   0  0  0  0  0  0  0  0  0  0  0  0
   -0.3600   -2.4350    0.4780 C   0  0  0  0  0  0  0  0  0  0  0  0
    0.8070   -2.8820    0.3850 O   0  0  0  0  0  0  0  0  0  0  0  0
    1.7260   -0.3410    0.3600 C   0  0  0  0  0  0  0  0  0  0  0  0
    1.8240   -0.8600    1.4800 O   0  0  0  0  0  0  0  0  0  0  0  0
  1  2  1  0
  2  3  1  0
  3  4  1  0
  4  5  1  6
  4  6  1  0
  4 26  1  0
  6  7  1  0
  7  8  2  0
  7  9  1  0
  9 10  1  0
  9 26  1  0
 10 11  2  0
 10 24  1  0
 11 12  1  0
 11 20  1  0
 12 13  1  0
 13 14  1  0
 13 17  2  0
 14 15  2  0
 14 16  1  0
 17 18  1  0
 18 19  1  0
 20 19  1  1
 20 21  1  0
 21 22  2  0
 21 23  1  0
 23 24  1  0
 24 25  2  0
 26 27  2  0
M  END
