
     RDKit          3D

 27 28  0  0  0  0  0  0  0  0999 V2000
    3.3460    1.4090    2.5880 C   0  0  0  0  0  0  0  0  0  0  0  0
    2.3060    0.6000    2.0390 O   0  0  0  0  0  0  0  0  0  0  0  0
    2.1710    0.4880    0.6380 C   0  0  0  0  0  0  0  0  0  0  0  0
    1.2190    1.2440    0.1180 C   0  0  0  0  0  0  0  0  0  0  0  0
    0.8700    1.3160   -1.3170 C   0  0  0  0  0  0  0  0  0  0  0  0
   -0.5440    1.8050   -1.5310 C   0  0  1  0  0  0  0  0  0  0  0  0
   -1.2430    1.0360   -2.5430 N   0  0  0  0  0  0  0  0  0  0  0  0
   -1.2760    1.9340   -0.3260 O   0  0  0  0  0  0  0  0  0  0  0  0
   -2.1710    0.9940    0.1690 C   0  0  0  0  0  0  0  0  0  0  0  0
   -3.3330    1.3750    0.6760 C   0  0  0  0  0  0  0  0  0  0  0  0
   -3.6840    2.8190    0.7160 C   0  0  0  0  0  0  0  0  0  0  0  0
   -2.9220    3.7050    0.2880 O   0  0  0  0  0  0  0  0  0  0  0  0
   -4.3390    0.4330    1.2140 C   0  0  0  0  0  0  0  0  0  0  0  0
   -3.8530   -0.9590    1.3370 C   0  0  0  0  0  0  0  0  0  0  0  0
   -2.9510   -1.3580    0.1830 C   0  0  0  0  0  0  0  0  0  0  0  0
   -1.7630   -0.4150    0.1030 C   0  0  2  0  0  0  0  0  0  0  0  0
   -0.8760   -0.7790    1.1900 N   0  0  0  0  0  0  0  0  0  0  0  0
    0.0140   -1.8500    1.2350 C   0  0  0  0  0  0  0  0  0  0  0  0
    0.3390   -2.2290    2.4320 O   0  0  0  0  0  0  0  0  0  0  0  0
    0.6320   -2.6060    0.1650 C   0  0  0  0  0  0  0  0  0  0  0  0
    0.2180   -3.8680    0.1590 O   0  0  0  0  0  0  0  0  0  0  0  0
    1.5600   -2.1880   -0.8090 N   0  0  0  0  0  0  0  0  0  0  0  0
    2.8260   -1.5410   -0.6770 C   0  0  0  0  0  0  0  0  0  0  0  0
    3.9980   -2.1560   -1.3730 C   0  0  0  0  0  0  0  0  0  0  0  0
    5.2560   -1.5500   -1.2520 N   0  0  0  0  0  0  0  0  0  0  0  0
    3.8410   -3.2100   -2.0590 O   0  0  0  0  0  0  0  0  0  0  0  0
    3.0580   -0.4070   -0.0540 C   0  0  0  0  0  0  0  0  0  0  0  0
  1  2  1  0
  2  3  1  0
  3  4  2  0
  3 27  1  0
  4  5  1  0
  5  6  1  0
  6  7  1  6
  6  8  1  0
  8  9  1  0
  9 10  2  0
  9 16  1  0
 10 11  1  0
 10 13  1  0
 11 12  2  0
 13 14  1  0
 14 15  1  0
 16 15  1  1
 16 17  1  0
 17 18  1  0
 18 19  2  0
 18 20  1  0
 20 21  2  0
 20 22  1  0
 22 23  1  0
 23 24  1  0
 23 27  2  0
 24 25  1  0
 24 26  2  0
M  END
