
     RDKit          3D

 20 22  0  0  0  0  0  0  0  0999 V2000
    6.8980   -0.1830    0.0970 C   0  0  0  0  0  0  0  0  0  0  0  0
    5.3430    0.6270   -0.3670 S   0  0  0  0  0  0  0  0  0  0  0  0
    3.9940   -0.5130   -0.0570 C   0  0  0  0  0  0  0  0  0  0  0  0
    2.6490    0.0820   -0.4170 C   0  0  1  0  0  0  0  0  0  0  0  0
    1.5380   -0.9040   -0.1440 C   0  0  0  0  0  0  0  0  0  0  0  0
    0.3710   -0.0410   -0.1470 N   0  0  1  0  0  0  0  0  0  0  0  0
   -0.7050   -0.7600    0.5050 C   0  0  0  0  0  0  0  0  0  0  0  0
   -2.0080   -0.2430    0.0080 C   0  0  0  0  0  0  0  0  0  0  0  0
   -2.2530    0.7520   -0.9200 C   0  0  0  0  0  0  0  0  0  0  0  0
   -3.5900    0.9020   -1.0770 N   0  0  0  0  0  0  0  0  0  0  0  0
   -4.2470    0.0310   -0.2780 C   0  0  0  0  0  0  0  0  0  0  0  0
   -5.5890   -0.2050   -0.0770 C   0  0  0  0  0  0  0  0  0  0  0  0
   -6.5790    0.5300   -0.7730 N   0  0  0  0  0  0  0  0  0  0  0  0
   -5.9190   -1.1620    0.8070 N   0  0  0  0  0  0  0  0  0  0  0  0
   -4.9520   -1.8540    1.4620 C   0  0  0  0  0  0  0  0  0  0  0  0
   -3.6420   -1.6260    1.2690 N   0  0  0  0  0  0  0  0  0  0  0  0
   -3.2620   -0.6780    0.3940 C   0  0  0  0  0  0  0  0  0  0  0  0
    0.7670    1.1010    0.6220 C   0  0  0  0  0  0  0  0  0  0  0  0
    2.2710    1.2250    0.5150 C   0  0  2  0  0  0  0  0  0  0  0  0
    2.6790    2.4120   -0.0480 O   0  0  0  0  0  0  0  0  0  0  0  0
  1  2  1  0
  2  3  1  0
  4  3  1  1
  4  5  1  0
  4 19  1  0
  5  6  1  0
  6  7  1  1
  6 18  1  0
  7  8  1  0
  8  9  2  0
  8 17  1  0
  9 10  1  0
 10 11  1  0
 11 12  2  0
 11 17  1  0
 12 13  1  0
 12 14  1  0
 14 15  2  0
 15 16  1  0
 16 17  2  0
 18 19  1  0
 19 20  1  6
M  CHG  1   6   1
M  END
