
     RDKit          3D

 25 27  0  0  0  0  0  0  0  0999 V2000
    7.9490   -0.7550    0.6710 C   0  0  0  0  0  0  0  0  0  0  0  0
    7.4490    0.5150    0.5290 O   0  0  0  0  0  0  0  0  0  0  0  0
    6.1120    0.6630    0.8000 C   0  0  0  0  0  0  0  0  0  0  0  0
    5.2770   -0.1930   -0.1060 C   0  0  0  0  0  0  0  0  0  0  0  0
    3.9190   -0.0480    0.1610 O   0  0  0  0  0  0  0  0  0  0  0  0
    3.1440   -0.7940   -0.6250 N   0  0  2  0  0  0  0  0  0  0  0  0
    3.6760   -1.9980   -0.9230 O   0  0  0  0  0  0  0  0  0  0  0  0
    2.8360   -0.0220   -1.8240 C   0  0  0  0  0  0  0  0  0  0  0  0
    2.3670    1.3290   -1.3830 C   0  0  0  0  0  0  0  0  0  0  0  0
    2.1810    1.4240   -0.0040 O   0  0  0  0  0  0  0  0  0  0  0  0
    1.3870    0.3940    0.4970 C   0  0  1  0  0  0  0  0  0  0  0  0
   -0.0370    0.6810    0.0770 C   0  0  0  0  0  0  0  0  0  0  0  0
   -0.9650   -0.3100    0.5320 N   0  0  0  0  0  0  0  0  0  0  0  0
   -2.1550   -0.2590   -0.3320 C   0  0  2  0  0  0  0  0  0  0  0  0
   -2.7140    1.1270   -0.4120 C   0  0  0  0  0  0  0  0  0  0  0  0
   -3.3530    1.5540    0.8850 C   0  0  0  0  0  0  0  0  0  0  0  0
   -4.1350    0.4930    1.5600 C   0  0  0  0  0  0  0  0  0  0  0  0
   -4.3570   -0.7520    0.7840 C   0  0  1  0  0  0  0  0  0  0  0  0
   -5.5400   -0.6660   -0.0810 N   0  0  0  0  0  0  0  0  0  0  0  0
   -6.1580    0.4630   -0.4710 C   0  0  0  0  0  0  0  0  0  0  0  0
   -7.2350    0.1550   -1.2800 C   0  0  0  0  0  0  0  0  0  0  0  0
   -7.2320   -1.2270   -1.3580 C   0  0  0  0  0  0  0  0  0  0  0  0
   -6.2010   -1.6730   -0.6260 N   0  0  0  0  0  0  0  0  0  0  0  0
   -3.1680   -1.2750    0.0540 C   0  0  0  0  0  0  0  0  0  0  0  0
    1.8600   -0.9560    0.0710 C   0  0  0  0  0  0  0  0  0  0  0  0
  1  2  1  0
  2  3  1  0
  3  4  1  0
  4  5  1  0
  5  6  1  0
  6  7  1  6
  6  8  1  0
  6 25  1  0
  8  9  1  0
  9 10  1  0
 10 11  1  0
 11 12  1  6
 11 25  1  0
 12 13  1  0
 14 13  1  1
 14 15  1  0
 14 24  1  0
 15 16  1  0
 16 17  1  0
 17 18  1  0
 18 19  1  6
 18 24  1  0
 19 20  1  0
 19 23  1  0
 20 21  2  0
 21 22  1  0
 22 23  2  0
M  CHG  3   6   1   7  -1  13   1
M  END
