
     RDKit          3D

 25 26  0  0  0  0  0  0  0  0999 V2000
    6.7910   -1.4080    1.6900 C   0  0  0  0  0  0  0  0  0  0  0  0
    6.0270   -0.6330    0.7600 N   0  0  0  0  0  0  0  0  0  0  0  0
    5.3320   -1.4070   -0.2360 C   0  0  0  0  0  0  0  0  0  0  0  0
    4.0850   -0.6170   -0.5680 C   0  0  0  0  0  0  0  0  0  0  0  0
    4.0270    0.3560   -1.5240 C   0  0  0  0  0  0  0  0  0  0  0  0
    2.6980    0.8080   -1.4880 C   0  0  0  0  0  0  0  0  0  0  0  0
    2.0230    0.1080   -0.5360 C   0  0  0  0  0  0  0  0  0  0  0  0
    0.6510    0.1280   -0.0550 C   0  0  0  0  0  0  0  0  0  0  0  0
    0.3760   -0.6970    0.9410 O   0  0  0  0  0  0  0  0  0  0  0  0
   -0.4310    0.8720   -0.4680 N   0  0  0  0  0  0  0  0  0  0  0  0
   -1.7290    0.6260    0.2850 C   0  0  0  0  0  0  0  0  0  0  0  0
   -2.3870   -0.4770   -0.4280 C   0  0  0  0  0  0  0  0  0  0  0  0
   -3.6440   -0.9970   -0.0090 N   0  0  0  0  0  0  0  0  0  0  0  0
   -4.0880   -2.2150   -0.6710 C   0  0  0  0  0  0  0  0  0  0  0  0
   -5.2130   -2.8040   -0.3980 C   0  0  0  0  0  0  0  0  0  0  0  0
   -6.1470   -2.2940    0.6090 C   0  0  0  0  0  0  0  0  0  0  0  0
   -5.6450   -1.0680    1.2350 C   0  0  0  0  0  0  0  0  0  0  0  0
   -4.4860   -0.4510    0.9620 C   0  0  0  0  0  0  0  0  0  0  0  0
   -4.1910    0.8050    1.7000 C   0  0  0  0  0  0  0  0  0  0  0  0
   -0.4520    1.8280   -1.5170 C   0  0  0  0  0  0  0  0  0  0  0  0
   -0.1720    3.2440   -1.1580 C   0  0  0  0  0  0  0  0  0  0  0  0
    1.0840    3.5000   -0.5420 N   0  0  0  0  0  0  0  0  0  0  0  0
    1.9870    4.2150   -1.0750 O   0  0  0  0  0  0  0  0  0  0  0  0
    1.4610    3.0040    0.6970 O   0  0  0  0  0  0  0  0  0  0  0  0
    2.9410   -0.7390   -0.0230 O   0  0  0  0  0  0  0  0  0  0  0  0
  1  2  1  0
  2  3  1  0
  3  4  1  0
  4  5  2  0
  4 25  1  0
  5  6  1  0
  6  7  2  0
  7  8  1  0
  7 25  1  0
  8  9  2  0
  8 10  1  0
 10 11  1  0
 10 20  1  0
 11 12  1  0
 12 13  1  0
 13 14  1  0
 13 18  1  0
 14 15  2  0
 15 16  1  0
 16 17  1  0
 17 18  2  0
 18 19  1  0
 20 21  1  0
 21 22  1  0
 22 23  2  0
 22 24  1  0
M  CHG  3   2   1  22   1  24  -1
M  END
