
     RDKit          3D

 20 22  0  0  0  0  0  0  0  0999 V2000
    6.9770    0.3350   -0.3450 N   0  0  0  0  0  0  0  0  0  0  0  0
    6.4070   -0.2650    0.8510 C   0  0  0  0  0  0  0  0  0  0  0  0
    4.9430   -0.5740    0.6450 C   0  0  0  0  0  0  0  0  0  0  0  0
    4.1980    0.5920    0.3520 O   0  0  0  0  0  0  0  0  0  0  0  0
    2.8380    0.5770    0.1220 C   0  0  0  0  0  0  0  0  0  0  0  0
    2.2360    1.7000   -0.4980 N   0  0  0  0  0  0  0  0  0  0  0  0
    2.1740   -0.4650    0.4840 N   0  0  0  0  0  0  0  0  0  0  0  0
    0.7710   -0.5270    0.2690 C   0  0  0  0  0  0  0  0  0  0  0  0
   -0.0850    0.3010    0.9820 C   0  0  0  0  0  0  0  0  0  0  0  0
   -1.4410    0.2250    0.7580 C   0  0  0  0  0  0  0  0  0  0  0  0
   -1.9560   -0.6520   -0.1560 C   0  0  0  0  0  0  0  0  0  0  0  0
   -1.0730   -1.4970   -0.8820 C   0  0  0  0  0  0  0  0  0  0  0  0
    0.2220   -1.3670   -0.6110 N   0  0  0  0  0  0  0  0  0  0  0  0
   -3.4020   -0.5740   -0.2770 C   0  0  2  0  0  0  0  0  0  0  0  0
   -3.9710   -1.6880   -0.8760 O   0  0  0  0  0  0  0  0  0  0  0  0
   -3.8420    0.6870   -1.0480 C   0  0  0  0  0  0  0  0  0  0  0  0
   -5.2790    0.6700   -0.7340 N   0  0  0  0  0  0  0  0  0  0  0  0
   -5.3540    0.2860    0.6680 C   0  0  0  0  0  0  0  0  0  0  0  0
   -4.0350   -0.2560    1.0560 C   0  0  2  0  0  0  0  0  0  0  0  0
   -2.8490    1.0960    1.4990 S   0  0  0  0  0  0  0  0  0  0  0  0
  1  2  1  0
  2  3  1  0
  3  4  1  0
  4  5  1  0
  5  6  1  0
  5  7  2  3
  7  8  1  0
  8  9  2  0
  8 13  1  0
  9 10  1  0
 10 11  2  0
 10 20  1  0
 11 12  1  0
 11 14  1  0
 12 13  2  0
 14 15  1  6
 14 16  1  0
 14 19  1  0
 16 17  1  0
 17 18  1  0
 19 18  1  6
 19 20  1  0
M  CHG  1  17   1
M  END
