
     RDKit          3D

 20 21  0  0  0  0  0  0  0  0999 V2000
    6.1630    0.7350   -0.5750 C   0  0  0  0  0  0  0  0  0  0  0  0
    5.4030    0.1520    0.5710 C   0  0  0  0  0  0  0  0  0  0  0  0
    4.0360    0.0620    0.3220 O   0  0  0  0  0  0  0  0  0  0  0  0
    3.3350   -0.4740    1.3720 C   0  0  0  0  0  0  0  0  0  0  0  0
    1.8980   -0.5130    0.9740 C   0  0  0  0  0  0  0  0  0  0  0  0
    1.0320    0.1310    1.6740 N   0  0  0  0  0  0  0  0  0  0  0  0
   -0.4060    0.2410    1.4870 C   0  0  0  0  0  0  0  0  0  0  0  0
   -1.0960    0.7510    2.6060 N   0  0  0  0  0  0  0  0  0  0  0  0
   -1.0530   -0.0500    0.3850 C   0  0  0  0  0  0  0  0  0  0  0  0
   -0.4750   -0.5410   -0.8960 C   0  0  0  0  0  0  0  0  0  0  0  0
    0.6500   -1.0650   -1.1580 N   0  0  0  0  0  0  0  0  0  0  0  0
    1.6700   -1.3080   -0.2020 N   0  0  0  0  0  0  0  0  0  0  0  0
   -1.3940   -0.3510   -2.0740 C   0  0  1  0  0  0  0  0  0  0  0  0
   -2.2050   -1.4590   -2.2880 O   0  0  0  0  0  0  0  0  0  0  0  0
   -2.2140    0.8900   -1.9880 C   0  0  0  0  0  0  0  0  0  0  0  0
   -2.7850    1.2220   -0.6420 C   0  0  1  0  0  0  0  0  0  0  0  0
   -4.2400    1.2920   -0.7700 N   0  0  0  0  0  0  0  0  0  0  0  0
   -2.4920    0.1190    0.3700 C   0  0  2  0  0  0  0  0  0  0  0  0
   -3.3840    0.2580    1.8810 S   0  0  0  0  0  0  0  0  0  0  0  0
   -3.4290   -1.3250    2.8080 C   0  0  0  0  0  0  0  0  0  0  0  0
  1  2  1  0
  2  3  1  0
  3  4  1  0
  4  5  1  0
  5  6  2  0
  5 12  1  0
  6  7  1  0
  7  8  1  0
  7  9  2  0
  9 10  1  0
  9 18  1  0
 10 11  2  0
 10 13  1  0
 11 12  1  0
 13 14  1  1
 13 15  1  0
 15 16  1  0
 16 17  1  6
 16 18  1  0
 18 19  1  1
 19 20  1  0
M  CHG  1  17   1
M  END
