
     RDKit          3D

 12 13  0  0  0  0  0  0  0  0999 V2000
    2.5110   -1.1160   -0.6830 C   0  0  0  0  0  0  0  0  0  0  0  0
    2.0390    0.1090   -0.5160 C   0  0  0  0  0  0  0  0  0  0  0  0
    1.1660    0.8290   -1.4760 C   0  0  0  0  0  0  0  0  0  0  0  0
   -0.0330    1.1500   -0.8710 O   0  0  0  0  0  0  0  0  0  0  0  0
   -0.7500    0.0670   -0.4200 C   0  0  2  0  0  0  0  0  0  0  0  0
   -2.0960    0.0720   -1.0750 C   0  0  0  0  0  0  0  0  0  0  0  0
   -3.0780   -0.1740    0.0300 C   0  0  0  0  0  0  0  0  0  0  0  0
   -2.4250    0.1940    1.3250 C   0  0  0  0  0  0  0  0  0  0  0  0
   -0.9540    0.2220    1.0600 C   0  0  0  0  0  0  0  0  0  0  0  0
    2.5000    0.5920    0.7000 O   0  0  0  0  0  0  0  0  0  0  0  0
    3.4910   -0.3130    1.2130 C   0  0  0  0  0  0  0  0  0  0  0  0
    3.2820   -1.4410    0.4200 O   0  0  0  0  0  0  0  0  0  0  0  0
  1  2  2  0
  1 12  1  0
  2  3  1  0
  2 10  1  0
  3  4  1  0
  5  4  1  6
  5  6  1  0
  5  9  1  0
  6  7  1  0
  7  8  1  0
  8  9  1  0
 10 11  1  0
 11 12  1  0
M  END
