
     RDKit          3D

 14 14  0  0  0  0  0  0  0  0999 V2000
    5.3640   -0.4060    0.1510 C   0  0  0  0  0  0  0  0  0  0  0  0
    4.1380    0.4520    0.4330 C   0  0  0  0  0  0  0  0  0  0  0  0
    2.9680   -0.2270    0.0960 O   0  0  0  0  0  0  0  0  0  0  0  0
    1.8980    0.5890    0.3690 C   0  0  0  0  0  0  0  0  0  0  0  0
    0.5960   -0.0640    0.0350 C   0  0  0  0  0  0  0  0  0  0  0  0
   -0.5520    0.5970    0.2410 N   0  0  0  0  0  0  0  0  0  0  0  0
   -1.7620    0.0790   -0.0330 C   0  0  0  0  0  0  0  0  0  0  0  0
   -3.0190    0.8470    0.2110 C   0  0  1  0  0  0  0  0  0  0  0  0
   -3.7780    1.0870   -1.0710 C   0  0  0  0  0  0  0  0  0  0  0  0
   -3.8760    0.1280    1.2030 C   0  0  0  0  0  0  0  0  0  0  0  0
   -1.8440   -1.1860   -0.5500 C   0  0  0  0  0  0  0  0  0  0  0  0
   -0.6630   -1.8700   -0.7640 C   0  0  0  0  0  0  0  0  0  0  0  0
   -0.7270   -3.0470   -1.2440 O   0  0  0  0  0  0  0  0  0  0  0  0
    0.5210   -1.3020   -0.4700 N   0  0  0  0  0  0  0  0  0  0  0  0
  1  2  1  0
  2  3  1  0
  3  4  1  0
  4  5  1  0
  5  6  2  0
  5 14  1  0
  6  7  1  0
  7  8  1  0
  7 11  2  0
  8  9  1  6
  8 10  1  0
 11 12  1  0
 12 13  2  0
 12 14  1  0
M  END
