
     RDKit          3D

 19 19  0  0  0  0  0  0  0  0999 V2000
    4.4020   -0.1730    1.4020 O   0  0  0  0  0  0  0  0  0  0  0  0
    4.1920   -0.5360    0.0610 C   0  0  0  0  0  0  0  0  0  0  0  0
    3.9510    0.6880   -0.7560 C   0  0  0  0  0  0  0  0  0  0  0  0
    2.8550    1.4060   -0.3670 O   0  0  0  0  0  0  0  0  0  0  0  0
    1.6310    0.7560   -0.4950 C   0  0  2  0  0  0  0  0  0  0  0  0
    0.9710    1.4670   -1.5380 O   0  0  0  0  0  0  0  0  0  0  0  0
    0.8000    0.8580    0.7320 C   0  0  2  0  0  0  0  0  0  0  0  0
    1.4370    0.3020    1.8190 O   0  0  0  0  0  0  0  0  0  0  0  0
   -0.5760    0.2130    0.6380 C   0  0  1  0  0  0  0  0  0  0  0  0
   -1.4430    0.8240   -0.3900 C   0  0  2  0  0  0  0  0  0  0  0  0
   -2.8000    1.2660    0.1130 C   0  0  0  0  0  0  0  0  0  0  0  0
   -3.6900    0.2570    0.7000 C   0  0  0  0  0  0  0  0  0  0  0  0
   -4.8710    0.9510    1.0930 O   0  0  0  0  0  0  0  0  0  0  0  0
   -1.3940    0.3670   -1.6580 O   0  0  0  0  0  0  0  0  0  0  0  0
   -1.7820   -0.8490   -2.0220 C   0  0  0  0  0  0  0  0  0  0  0  0
   -0.8320   -1.8230   -1.6280 O   0  0  0  0  0  0  0  0  0  0  0  0
   -1.1940   -2.0860   -0.2850 C   0  0  0  0  0  0  0  0  0  0  0  0
   -0.3470   -1.2460    0.5750 C   0  0  2  0  0  0  0  0  0  0  0  0
   -0.4310   -1.7560    1.8920 O   0  0  0  0  0  0  0  0  0  0  0  0
  1  2  1  0
  2  3  1  0
  3  4  1  0
  4  5  1  0
  5  6  1  6
  5  7  1  0
  7  8  1  1
  7  9  1  0
  9 10  1  6
  9 18  1  0
 10 11  1  1
 10 14  1  0
 11 12  1  0
 12 13  1  0
 14 15  1  0
 15 16  1  0
 16 17  1  0
 17 18  1  0
 18 19  1  1
M  END
