
     RDKit          3D

 14 14  0  0  0  0  0  0  0  0999 V2000
   -3.5540   -0.7890   -0.0060 C   0  0  0  0  0  0  0  0  0  0  0  0
   -2.2660   -0.9170    0.2180 C   0  0  0  0  0  0  0  0  0  0  0  0
   -1.6760   -2.2870    0.0780 C   0  0  0  0  0  0  0  0  0  0  0  0
   -1.4370    0.2490    0.6090 C   0  0  2  0  0  0  0  0  0  0  0  0
   -2.2090    1.5150    0.6000 C   0  0  0  0  0  0  0  0  0  0  0  0
   -1.4580    2.6600    0.6930 O   0  0  0  0  0  0  0  0  0  0  0  0
   -0.2780    2.6670    0.0120 C   0  0  0  0  0  0  0  0  0  0  0  0
   -0.0640    1.4990   -0.9050 C   0  0  0  0  0  0  0  0  0  0  0  0
   -0.2410    0.2680   -0.1710 N   0  0  0  0  0  0  0  0  0  0  0  0
    0.9420   -0.0880    0.5850 C   0  0  0  0  0  0  0  0  0  0  0  0
    2.0580   -0.4820   -0.3060 C   0  0  0  0  0  0  0  0  0  0  0  0
    1.9900   -0.5100   -1.5570 O   0  0  0  0  0  0  0  0  0  0  0  0
    3.2910   -0.8510    0.3180 N   0  0  0  0  0  0  0  0  0  0  0  0
    4.4490   -1.2520   -0.4560 C   0  0  0  0  0  0  0  0  0  0  0  0
  1  2  2  0
  2  3  1  0
  4  2  1  6
  4  5  1  0
  4  9  1  0
  5  6  1  0
  6  7  1  0
  7  8  1  0
  8  9  1  0
  9 10  1  0
 10 11  1  0
 11 12  2  0
 11 13  1  0
 13 14  1  0
M  END
