
     RDKit          3D

 20 20  0  0  0  0  0  0  0  0999 V2000
    4.8340    0.7910   -1.5250 C   0  0  0  0  0  0  0  0  0  0  0  0
    3.9290    0.1590   -0.4580 C   0  0  1  0  0  0  0  0  0  0  0  0
    3.7350   -1.1730   -0.7860 O   0  0  0  0  0  0  0  0  0  0  0  0
    4.6580    0.2460    0.8520 C   0  0  0  0  0  0  0  0  0  0  0  0
    3.9480   -0.3640    1.8840 O   0  0  0  0  0  0  0  0  0  0  0  0
    2.6310    0.9190   -0.4830 C   0  0  2  0  0  0  0  0  0  0  0  0
    2.7840    2.2460   -0.1600 O   0  0  0  0  0  0  0  0  0  0  0  0
    1.5990    0.2150    0.3590 C   0  0  2  0  0  0  0  0  0  0  0  0
    1.5410   -1.1010   -0.0560 O   0  0  0  0  0  0  0  0  0  0  0  0
    0.2210   -1.4380   -0.2570 C   0  0  0  0  0  0  0  0  0  0  0  0
   -0.4800   -0.3330    0.5090 C   0  0  2  0  0  0  0  0  0  0  0  0
   -1.8910   -0.1520    0.0380 C   0  0  0  0  0  0  0  0  0  0  0  0
   -2.2400    0.8490   -0.5930 O   0  0  0  0  0  0  0  0  0  0  0  0
   -2.7840   -1.1170    0.3210 O   0  0  0  0  0  0  0  0  0  0  0  0
   -4.1100   -1.3140    0.0980 C   0  0  0  0  0  0  0  0  0  0  0  0
   -5.1310   -0.5190    0.8080 C   0  0  2  0  0  0  0  0  0  0  0  0
   -6.4040   -1.0060    0.3870 O   0  0  0  0  0  0  0  0  0  0  0  0
   -5.0650    0.9500    0.5510 C   0  0  0  0  0  0  0  0  0  0  0  0
   -5.2100    1.1870   -0.8030 O   0  0  0  0  0  0  0  0  0  0  0  0
    0.3120    0.7530    0.1340 O   0  0  0  0  0  0  0  0  0  0  0  0
  2  1  1  6
  2  3  1  0
  2  4  1  0
  2  6  1  0
  4  5  1  0
  6  7  1  1
  6  8  1  0
  8  9  1  6
  8 20  1  0
  9 10  1  0
 10 11  1  0
 11 12  1  6
 11 20  1  0
 12 13  2  0
 12 14  1  0
 14 15  1  0
 15 16  1  0
 16 17  1  6
 16 18  1  0
 18 19  1  0
M  END
