
     RDKit          3D

 14 14  0  0  0  0  0  0  0  0999 V2000
    5.0200    0.5560    0.2350 C   0  0  0  0  0  0  0  0  0  0  0  0
    3.6880    0.0690   -0.1720 N   0  0  0  0  0  0  0  0  0  0  0  0
    2.5120    0.5720    0.4080 C   0  0  0  0  0  0  0  0  0  0  0  0
    2.5790    1.4560    1.2920 O   0  0  0  0  0  0  0  0  0  0  0  0
    1.1850    0.0320   -0.0520 C   0  0  0  0  0  0  0  0  0  0  0  0
    1.2080   -0.9740   -1.0550 C   0  0  0  0  0  0  0  0  0  0  0  0
    1.2480   -1.8120   -1.8890 N   0  0  0  0  0  0  0  0  0  0  0  0
    0.1400    0.5160    0.4990 C   0  0  0  0  0  0  0  0  0  0  0  0
   -1.2370    0.2000    0.2660 C   0  0  0  0  0  0  0  0  0  0  0  0
   -2.2050    0.8490    0.9860 C   0  0  0  0  0  0  0  0  0  0  0  0
   -3.5900    0.4440    0.6650 C   0  0  0  0  0  0  0  0  0  0  0  0
   -3.6960   -1.0710    0.6110 C   0  0  0  0  0  0  0  0  0  0  0  0
   -2.5380   -1.6780    0.1450 O   0  0  0  0  0  0  0  0  0  0  0  0
   -1.8270   -0.7500   -0.6700 C   0  0  0  0  0  0  0  0  0  0  0  0
  1  2  1  0
  2  3  1  0
  3  4  2  0
  3  5  1  0
  5  6  1  0
  5  8  2  3
  6  7  3  0
  8  9  1  0
  9 10  2  0
  9 14  1  0
 10 11  1  0
 11 12  1  0
 12 13  1  0
 13 14  1  0
M  END
