
     RDKit          3D

 27 28  0  0  0  0  0  0  0  0999 V2000
   -5.1920    3.9610    0.4780 C   0  0  0  0  0  0  0  0  0  0  0  0
   -4.2120    3.0270    1.1080 C   0  0  0  0  0  0  0  0  0  0  0  0
   -4.1680    1.7780    0.4130 O   0  0  0  0  0  0  0  0  0  0  0  0
   -3.2410    0.7670    0.7100 C   0  0  0  0  0  0  0  0  0  0  0  0
   -2.4250    1.0280    1.6050 O   0  0  0  0  0  0  0  0  0  0  0  0
   -3.2700   -0.4980   -0.0190 C   0  0  0  0  0  0  0  0  0  0  0  0
   -4.5150   -1.1760   -0.0950 C   0  0  0  0  0  0  0  0  0  0  0  0
   -4.6210   -2.4200   -0.6460 C   0  0  0  0  0  0  0  0  0  0  0  0
   -3.4930   -3.0780   -1.1640 C   0  0  0  0  0  0  0  0  0  0  0  0
   -2.2990   -2.4030   -1.0770 C   0  0  0  0  0  0  0  0  0  0  0  0
   -2.1790   -1.1390   -0.5200 C   0  0  0  0  0  0  0  0  0  0  0  0
   -0.6580   -0.2700   -0.5830 S   0  0  1  0  0  0  0  0  0  0  0  0
   -0.6100    0.7190   -1.7240 O   0  0  0  0  0  0  0  0  0  0  0  0
   -0.3320    0.4450    0.6660 O   0  0  0  0  0  0  0  0  0  0  0  0
    0.5650   -1.4160   -0.8600 N   0  0  0  0  0  0  0  0  0  0  0  0
    1.9880   -1.0750   -0.4840 C   0  0  0  0  0  0  0  0  0  0  0  0
    2.1790    0.0030   -0.0490 O   0  0  0  0  0  0  0  0  0  0  0  0
    2.7470   -2.1940   -0.7460 N   0  0  0  0  0  0  0  0  0  0  0  0
    4.2180   -1.5660   -0.1300 C   0  0  0  0  0  0  0  0  0  0  0  0
    5.1750   -2.4510   -0.1890 N   0  0  0  0  0  0  0  0  0  0  0  0
    6.4200   -2.0330    0.3400 C   0  0  0  0  0  0  0  0  0  0  0  0
    7.7180   -3.1950    0.3050 Cl  0  0  0  0  0  0  0  0  0  0  0  0
    6.5580   -0.7960    0.8530 C   0  0  0  0  0  0  0  0  0  0  0  0
    5.4680    0.0980    0.8710 C   0  0  0  0  0  0  0  0  0  0  0  0
    5.5550    1.3330    1.3690 O   0  0  0  0  0  0  0  0  0  0  0  0
    4.5990    2.3450    1.4890 C   0  0  0  0  0  0  0  0  0  0  0  0
    4.2860   -0.4110    0.3300 N   0  0  0  0  0  0  0  0  0  0  0  0
  1  2  1  0
  2  3  1  0
  3  4  1  0
  4  5  2  0
  4  6  1  0
  6  7  2  0
  6 11  1  0
  7  8  1  0
  8  9  2  0
  9 10  1  0
 10 11  2  0
 11 12  1  0
 12 13  2  0
 12 14  2  0
 12 15  1  6
 15 16  1  0
 16 17  2  0
 16 18  1  0
 18 19  1  0
 19 20  2  0
 19 27  1  0
 20 21  1  0
 21 22  1  0
 21 23  2  0
 23 24  1  0
 24 25  1  0
 24 27  2  0
 25 26  1  0
M  END
