
     RDKit          3D

 14 14  0  0  0  0  0  0  0  0999 V2000
   -1.4210   -1.8620    3.2970 C   0  0  0  0  0  0  0  0  0  0  0  0
   -0.5900   -0.7890    2.9140 O   0  0  0  0  0  0  0  0  0  0  0  0
   -0.3690   -0.4870    1.5920 C   0  0  0  0  0  0  0  0  0  0  0  0
   -0.9680   -1.2460    0.6170 C   0  0  0  0  0  0  0  0  0  0  0  0
   -0.7290   -0.9210   -0.6970 C   0  0  0  0  0  0  0  0  0  0  0  0
    0.0780    0.1210   -1.1080 C   0  0  0  0  0  0  0  0  0  0  0  0
    0.3010    0.4200   -2.4790 N   0  0  0  0  0  0  0  0  0  0  0  0
   -0.2960   -0.3720   -3.5200 C   0  0  0  0  0  0  0  0  0  0  0  0
    0.0830    0.1230   -4.8450 C   0  0  0  0  0  0  0  0  0  0  0  0
    0.3660    0.5180   -5.9060 N   0  0  0  0  0  0  0  0  0  0  0  0
    0.6690    0.8690   -0.0900 C   0  0  0  0  0  0  0  0  0  0  0  0
    0.4450    0.5630    1.2410 C   0  0  0  0  0  0  0  0  0  0  0  0
    1.0620    1.3450    2.2380 O   0  0  0  0  0  0  0  0  0  0  0  0
    1.9010    2.4270    1.8860 C   0  0  0  0  0  0  0  0  0  0  0  0
  1  2  1  0
  2  3  1  0
  3  4  2  0
  3 12  1  0
  4  5  1  0
  5  6  2  0
  6  7  1  0
  6 11  1  0
  7  8  1  0
  8  9  1  0
  9 10  3  0
 11 12  2  0
 12 13  1  0
 13 14  1  0
M  END
