
     RDKit          3D

 12 13  0  0  0  0  0  0  0  0999 V2000
    3.1320   -0.6500    0.2560 N   0  0  0  0  0  0  0  0  0  0  0  0
    1.8200   -0.2200   -0.0040 C   0  0  0  0  0  0  0  0  0  0  0  0
    1.5860    0.8020   -0.9110 C   0  0  0  0  0  0  0  0  0  0  0  0
    0.2900    1.2130   -1.1550 C   0  0  0  0  0  0  0  0  0  0  0  0
   -0.8070    0.6200   -0.5040 C   0  0  0  0  0  0  0  0  0  0  0  0
   -0.5590   -0.3890    0.3890 C   0  0  0  0  0  0  0  0  0  0  0  0
    0.7570   -0.8090    0.6390 C   0  0  0  0  0  0  0  0  0  0  0  0
   -1.5740   -1.1390    1.1710 C   0  0  0  0  0  0  0  0  0  0  0  0
   -3.2340   -1.0460    0.4210 S   0  0  0  0  0  0  0  0  0  0  0  0
   -3.3070    0.6340   -0.2490 C   0  0  0  0  0  0  0  0  0  0  0  0
   -4.6810    1.5010   -0.1780 S   0  0  0  0  0  0  0  0  0  0  0  0
   -2.1000    1.1120   -0.8140 N   0  0  0  0  0  0  0  0  0  0  0  0
  1  2  1  0
  2  3  2  0
  2  7  1  0
  3  4  1  0
  4  5  2  0
  5  6  1  0
  5 12  1  0
  6  7  2  0
  6  8  1  0
  8  9  1  0
  9 10  1  0
 10 11  2  0
 10 12  1  0
M  CHG  1   1   1
M  END
