
     RDKit          3D

 11 12  0  0  0  0  0  0  0  0999 V2000
   -1.4910   -0.5580    1.5290 C   0  0  0  0  0  0  0  0  0  0  0  0
   -1.5490    0.0650    0.1560 C   0  0  0  0  0  0  0  0  0  0  0  0
   -2.7020    0.4220   -0.4160 C   0  0  0  0  0  0  0  0  0  0  0  0
   -2.6770    0.9860   -1.6750 C   0  0  0  0  0  0  0  0  0  0  0  0
   -0.9690    1.0140   -2.0650 S   0  0  0  0  0  0  0  0  0  0  0  0
   -0.3830    0.2880   -0.5620 C   0  0  0  0  0  0  0  0  0  0  0  0
    1.0230    0.0210   -0.2360 C   0  0  0  0  0  0  0  0  0  0  0  0
    2.0160    0.3220   -1.1020 N   0  0  0  0  0  0  0  0  0  0  0  0
    3.1980   -0.0160   -0.5720 C   0  0  0  0  0  0  0  0  0  0  0  0
    2.9200   -0.5390    0.6570 C   0  0  0  0  0  0  0  0  0  0  0  0
    1.5900   -0.5070    0.8410 N   0  0  0  0  0  0  0  0  0  0  0  0
  1  2  1  0
  2  3  1  0
  2  6  2  0
  3  4  2  0
  4  5  1  0
  5  6  1  0
  6  7  1  0
  7  8  1  0
  7 11  2  0
  8  9  1  0
  9 10  2  0
 10 11  1  0
M  CHG  1  11   1
M  END
