
     RDKit          3D

 20 22  0  0  0  0  0  0  0  0999 V2000
    5.5490   -0.7440   -1.4090 N   0  0  0  0  0  0  0  0  0  0  0  0
    5.1860   -0.1780   -0.1700 C   0  0  0  0  0  0  0  0  0  0  0  0
    6.0930    0.3620    0.6800 N   0  0  0  0  0  0  0  0  0  0  0  0
    5.7510    0.8990    1.8630 C   0  0  0  0  0  0  0  0  0  0  0  0
    4.4580    0.9070    2.2320 N   0  0  0  0  0  0  0  0  0  0  0  0
    3.5090    0.3730    1.4050 C   0  0  0  0  0  0  0  0  0  0  0  0
    2.1720    0.2450    1.5090 N   0  0  0  0  0  0  0  0  0  0  0  0
    1.6840   -0.3570    0.4180 C   0  0  0  0  0  0  0  0  0  0  0  0
    0.2660   -0.6760    0.1700 C   0  0  0  0  0  0  0  0  0  0  0  0
   -0.3680    0.5140   -0.5180 C   0  0  0  0  0  0  0  0  0  0  0  0
   -1.7950    0.1590   -0.7460 C   0  0  0  0  0  0  0  0  0  0  0  0
   -2.1430   -0.6380   -1.6690 O   0  0  0  0  0  0  0  0  0  0  0  0
   -2.7710    0.6980    0.0540 O   0  0  0  0  0  0  0  0  0  0  0  0
   -4.1460    0.4110   -0.0980 C   0  0  0  0  0  0  0  0  0  0  0  0
   -5.0170    1.0580   -0.8370 C   0  0  0  0  0  0  0  0  0  0  0  0
   -6.3330    0.4200   -0.7000 C   0  0  0  0  0  0  0  0  0  0  0  0
   -6.1040   -0.7010    0.2320 C   0  0  0  0  0  0  0  0  0  0  0  0
   -4.8320   -0.6720    0.5560 C   0  0  0  0  0  0  0  0  0  0  0  0
    2.7330   -0.6290   -0.4190 C   0  0  0  0  0  0  0  0  0  0  0  0
    3.8700   -0.1730    0.1980 C   0  0  0  0  0  0  0  0  0  0  0  0
  1  2  1  0
  2  3  2  0
  2 20  1  0
  3  4  1  0
  4  5  2  0
  5  6  1  0
  6  7  1  0
  6 20  2  0
  7  8  1  0
  8  9  1  0
  8 19  2  0
  9 10  1  0
 10 11  1  0
 11 12  2  0
 11 13  1  0
 13 14  1  0
 14 15  2  0
 14 18  1  0
 15 16  1  0
 16 17  1  0
 17 18  2  0
 19 20  1  0
M  END
