
     RDKit          3D

 20 22  0  0  0  0  0  0  0  0999 V2000
    5.3560    1.2740    0.6140 N   0  0  0  0  0  0  0  0  0  0  0  0
    4.0670    0.7250    0.3720 C   0  0  0  0  0  0  0  0  0  0  0  0
    3.8710   -0.2160   -0.6180 C   0  0  0  0  0  0  0  0  0  0  0  0
    2.6210   -0.7480   -0.8530 C   0  0  0  0  0  0  0  0  0  0  0  0
    1.5050   -0.3830   -0.1300 C   0  0  0  0  0  0  0  0  0  0  0  0
    0.1870   -0.9520   -0.3890 C   0  0  0  0  0  0  0  0  0  0  0  0
   -0.9800   -0.2200   -0.1780 C   0  0  0  0  0  0  0  0  0  0  0  0
   -2.2240   -0.7620   -0.4250 C   0  0  0  0  0  0  0  0  0  0  0  0
   -3.4150    0.0630   -0.1840 C   0  0  0  0  0  0  0  0  0  0  0  0
   -4.7010   -0.2830   -0.3670 N   0  0  0  0  0  0  0  0  0  0  0  0
   -5.5400    0.7170   -0.0480 C   0  0  0  0  0  0  0  0  0  0  0  0
   -4.7140    1.7590    0.3620 C   0  0  0  0  0  0  0  0  0  0  0  0
   -3.4410    1.3360    0.2690 N   0  0  0  0  0  0  0  0  0  0  0  0
   -2.3480   -2.0210   -0.8790 N   0  0  0  0  0  0  0  0  0  0  0  0
   -1.2530   -2.7820   -1.1040 C   0  0  0  0  0  0  0  0  0  0  0  0
   -1.4140   -3.9540   -1.5290 O   0  0  0  0  0  0  0  0  0  0  0  0
    0.0120   -2.2360   -0.8550 C   0  0  0  0  0  0  0  0  0  0  0  0
    1.6970    0.5580    0.8610 C   0  0  0  0  0  0  0  0  0  0  0  0
    2.9530    1.0950    1.1000 C   0  0  0  0  0  0  0  0  0  0  0  0
    3.1590    2.0460    2.0990 O   0  0  0  0  0  0  0  0  0  0  0  0
  1  2  1  0
  2  3  2  0
  2 19  1  0
  3  4  1  0
  4  5  2  0
  5  6  1  0
  5 18  1  0
  6  7  1  0
  6 17  2  0
  7  8  2  0
  8  9  1  0
  8 14  1  0
  9 10  2  0
  9 13  1  0
 10 11  1  0
 11 12  2  0
 12 13  1  0
 14 15  1  0
 15 16  2  0
 15 17  1  0
 18 19  2  0
 19 20  1  0
M  END
