
     RDKit          3D

 20 22  0  0  0  0  0  0  0  0999 V2000
   -4.4630   -0.0750   -0.7660 C   0  0  0  0  0  0  0  0  0  0  0  0
   -3.1570    0.4220   -1.3680 C   0  0  0  0  0  0  0  0  0  0  0  0
   -2.0800    0.4750   -0.3150 C   0  0  0  0  0  0  0  0  0  0  0  0
   -1.1050   -0.5010   -0.2550 C   0  0  0  0  0  0  0  0  0  0  0  0
   -0.0980   -0.5110    0.6880 C   0  0  0  0  0  0  0  0  0  0  0  0
    0.9050   -1.5710    0.7040 C   0  0  0  0  0  0  0  0  0  0  0  0
    0.6660   -2.8660    0.9760 N   0  0  0  0  0  0  0  0  0  0  0  0
    1.7820   -3.5730    0.9120 N   0  0  0  0  0  0  0  0  0  0  0  0
    2.7840   -2.7440    0.5930 C   0  0  0  0  0  0  0  0  0  0  0  0
    2.2560   -1.4720    0.4560 C   0  0  0  0  0  0  0  0  0  0  0  0
    2.9630   -0.2560    0.1150 C   0  0  0  0  0  0  0  0  0  0  0  0
    2.7880    0.5450   -0.9820 C   0  0  0  0  0  0  0  0  0  0  0  0
    3.6700    1.5670   -0.8780 N   0  0  0  0  0  0  0  0  0  0  0  0
    4.3860    1.4230    0.2510 C   0  0  0  0  0  0  0  0  0  0  0  0
    3.9360    0.2980    0.8450 N   0  0  0  0  0  0  0  0  0  0  0  0
   -0.0410    0.4970    1.6310 C   0  0  0  0  0  0  0  0  0  0  0  0
    0.9390    0.5640    2.6180 O   0  0  0  0  0  0  0  0  0  0  0  0
   -1.0170    1.4740    1.5710 C   0  0  0  0  0  0  0  0  0  0  0  0
   -2.0230    1.4800    0.6260 C   0  0  0  0  0  0  0  0  0  0  0  0
   -2.9860    2.4680    0.5880 O   0  0  0  0  0  0  0  0  0  0  0  0
  1  2  1  0
  2  3  1  0
  3  4  2  0
  3 19  1  0
  4  5  1  0
  5  6  1  0
  5 16  2  0
  6  7  1  0
  6 10  2  0
  7  8  1  0
  8  9  2  0
  9 10  1  0
 10 11  1  0
 11 12  2  0
 11 15  1  0
 12 13  1  0
 13 14  1  0
 14 15  2  0
 16 17  1  0
 16 18  1  0
 18 19  2  0
 19 20  1  0
M  END
