
     RDKit          3D

 13 13  0  0  0  0  0  0  0  0999 V2000
   -3.3370    0.6150    0.4430 N   0  0  0  0  0  0  0  0  0  0  0  0
   -2.7510   -0.4740   -0.2550 C   0  0  0  0  0  0  0  0  0  0  0  0
   -3.6960   -1.2130   -1.3790 S   0  0  0  0  0  0  0  0  0  0  0  0
   -1.3680   -0.9410   -0.0060 C   0  0  0  0  0  0  0  0  0  0  0  0
   -0.4570    0.1490   -0.2820 N   0  0  0  0  0  0  0  0  0  0  0  0
    0.9750   -0.0280   -0.1190 C   0  0  0  0  0  0  0  0  0  0  0  0
    1.4500   -1.2120   -0.1480 N   0  0  0  0  0  0  0  0  0  0  0  0
    3.1660   -1.0230    0.0760 S   0  0  1  0  0  0  0  0  0  0  0  0
    3.6100   -1.6690    1.3510 O   0  0  0  0  0  0  0  0  0  0  0  0
    3.9360   -1.4960   -1.1060 O   0  0  0  0  0  0  0  0  0  0  0  0
    3.1280    0.7000    0.1980 N   0  0  0  0  0  0  0  0  0  0  0  0
    1.8920    1.0270    0.0710 C   0  0  0  0  0  0  0  0  0  0  0  0
    1.5770    2.4050    0.1330 O   0  0  0  0  0  0  0  0  0  0  0  0
  1  2  1  0
  2  3  2  0
  2  4  1  0
  4  5  1  0
  5  6  1  0
  6  7  2  0
  6 12  1  0
  8  7  1  6
  8  9  2  0
  8 10  2  0
  8 11  1  0
 11 12  2  0
 12 13  1  0
M  END
