
     RDKit          3D

 13 13  0  0  0  0  0  0  0  0999 V2000
    3.0570   -0.3950    1.3280 O   0  0  0  0  0  0  0  0  0  0  0  0
    3.0230    0.6090    0.5670 C   0  0  0  0  0  0  0  0  0  0  0  0
    3.8900    1.6650    0.7900 O   0  0  0  0  0  0  0  0  0  0  0  0
    2.0720    0.5780   -0.4880 N   0  0  0  0  0  0  0  0  0  0  0  0
    1.2270   -0.4920   -0.6770 N   0  0  0  0  0  0  0  0  0  0  0  0
   -0.0430   -0.3920   -0.4750 C   0  0  0  0  0  0  0  0  0  0  0  0
   -0.7970    1.0610    0.0400 S   0  0  0  0  0  0  0  0  0  0  0  0
   -2.5010    0.8680    0.2180 C   0  0  0  0  0  0  0  0  0  0  0  0
   -3.5070    2.0640    0.6940 S   0  0  0  0  0  0  0  0  0  0  0  0
   -2.9460   -0.3660   -0.0730 N   0  0  0  0  0  0  0  0  0  0  0  0
   -2.2320   -1.3810   -0.4580 N   0  0  0  0  0  0  0  0  0  0  0  0
   -0.9160   -1.4380   -0.6540 C   0  0  0  0  0  0  0  0  0  0  0  0
   -0.3710   -2.5310   -1.0390 O   0  0  0  0  0  0  0  0  0  0  0  0
  1  2  2  0
  2  3  1  0
  2  4  1  0
  4  5  1  0
  5  6  2  3
  6  7  1  0
  6 12  1  0
  7  8  1  0
  8  9  2  0
  8 10  1  0
 10 11  1  0
 11 12  1  0
 12 13  2  0
M  END
