
     RDKit          3D

 12 12  0  0  0  0  0  0  0  0999 V2000
    3.6980    0.4240    0.3900 N   0  0  0  0  0  0  0  0  0  0  0  0
    2.5710    0.5420   -0.3760 O   0  0  0  0  0  0  0  0  0  0  0  0
    2.1560   -0.7320   -0.8070 C   0  0  0  0  0  0  0  0  0  0  0  0
    0.6770   -0.6480   -1.8230 S   0  0  0  0  0  0  0  0  0  0  0  0
   -0.7060   -0.1050   -0.8420 C   0  0  0  0  0  0  0  0  0  0  0  0
   -1.0470    1.1720   -0.6720 N   0  0  0  0  0  0  0  0  0  0  0  0
   -2.0800    1.5440    0.0610 N   0  0  0  0  0  0  0  0  0  0  0  0
   -2.8620    0.6260    0.6910 C   0  0  0  0  0  0  0  0  0  0  0  0
   -4.1480    1.0820    1.6050 S   0  0  0  0  0  0  0  0  0  0  0  0
   -2.5340   -0.6670    0.5310 N   0  0  0  0  0  0  0  0  0  0  0  0
   -1.4880   -1.0710   -0.2100 C   0  0  0  0  0  0  0  0  0  0  0  0
   -1.2250   -2.3090   -0.3260 O   0  0  0  0  0  0  0  0  0  0  0  0
  1  2  1  0
  2  3  1  0
  3  4  1  0
  4  5  1  0
  5  6  2  0
  5 11  1  0
  6  7  1  0
  7  8  1  0
  8  9  2  0
  8 10  1  0
 10 11  1  0
 11 12  2  0
M  END
