
     RDKit          3D

 12 12  0  0  0  0  0  0  0  0999 V2000
    3.2410    1.0580   -0.2750 N   0  0  0  0  0  0  0  0  0  0  0  0
    2.6370    0.0220   -0.8940 O   0  0  0  0  0  0  0  0  0  0  0  0
    2.3480   -1.0150   -0.0190 C   0  0  0  0  0  0  0  0  0  0  0  0
    1.2560   -0.5480    1.3230 S   0  0  0  0  0  0  0  0  0  0  0  0
   -0.3710   -0.1250    0.7850 C   0  0  0  0  0  0  0  0  0  0  0  0
   -0.6640    1.1470    0.4530 N   0  0  0  0  0  0  0  0  0  0  0  0
   -1.8810    1.4800    0.0460 N   0  0  0  0  0  0  0  0  0  0  0  0
   -2.8880    0.5910   -0.0620 C   0  0  0  0  0  0  0  0  0  0  0  0
   -4.3750    1.0020   -0.5590 S   0  0  0  0  0  0  0  0  0  0  0  0
   -2.6360   -0.6870    0.2600 N   0  0  0  0  0  0  0  0  0  0  0  0
   -1.3950   -1.0430    0.6780 C   0  0  0  0  0  0  0  0  0  0  0  0
   -1.1610   -2.2370    0.9780 O   0  0  0  0  0  0  0  0  0  0  0  0
  1  2  1  0
  2  3  1  0
  3  4  1  0
  4  5  1  0
  5  6  2  0
  5 11  1  0
  6  7  1  0
  7  8  1  0
  8  9  2  0
  8 10  1  0
 10 11  1  0
 11 12  2  0
M  END
