
     RDKit          3D

 13 13  0  0  0  0  0  0  0  0999 V2000
   -4.4310    0.1460    0.0370 C   0  0  0  0  0  0  0  0  0  0  0  0
   -3.0030    0.4580    0.3360 C   0  0  0  0  0  0  0  0  0  0  0  0
   -2.7050    1.5630    0.8530 O   0  0  0  0  0  0  0  0  0  0  0  0
   -1.9600   -0.4560    0.0540 N   0  0  0  0  0  0  0  0  0  0  0  0
   -0.6500   -0.0870    0.3640 C   0  0  0  0  0  0  0  0  0  0  0  0
    0.0090    0.8370    0.8430 N   0  0  0  0  0  0  0  0  0  0  0  0
    1.2490    0.9090    1.0150 N   0  0  0  0  0  0  0  0  0  0  0  0
    2.0400   -0.0920    0.6670 C   0  0  0  0  0  0  0  0  0  0  0  0
    3.7310   -0.4240    0.7180 S   0  0  1  0  0  0  0  0  0  0  0  0
    4.5280    0.1190   -0.7380 N   0  0  0  0  0  0  0  0  0  0  0  0
    4.3190    0.3720    1.8520 O   0  0  0  0  0  0  0  0  0  0  0  0
    4.0150   -1.8940    0.9290 O   0  0  0  0  0  0  0  0  0  0  0  0
    0.7540   -1.2700    0.0060 S   0  0  0  0  0  0  0  0  0  0  0  0
  1  2  1  0
  2  3  2  0
  2  4  1  0
  4  5  1  0
  5  6  2  0
  5 13  1  0
  6  7  1  0
  7  8  2  0
  8  9  1  0
  8 13  1  0
  9 10  1  6
  9 11  2  0
  9 12  2  0
M  END
