
     RDKit          3D

 13 13  0  0  0  0  0  0  0  0999 V2000
    4.4320    0.2140   -0.2310 N   0  0  0  0  0  0  0  0  0  0  0  0
    3.2160   -0.0860    0.4260 C   0  0  0  0  0  0  0  0  0  0  0  0
    3.2630   -0.5580    1.5810 O   0  0  0  0  0  0  0  0  0  0  0  0
    1.9120    0.1470   -0.2240 C   0  0  0  0  0  0  0  0  0  0  0  0
    0.8410   -0.2460    0.6690 N   0  0  0  0  0  0  0  0  0  0  0  0
   -0.5110   -0.1120    0.2570 C   0  0  0  0  0  0  0  0  0  0  0  0
   -0.7550    0.3500   -0.8860 O   0  0  0  0  0  0  0  0  0  0  0  0
   -1.5910   -0.4690    1.0630 O   0  0  0  0  0  0  0  0  0  0  0  0
   -2.9070   -0.2840    0.5290 C   0  0  0  0  0  0  0  0  0  0  0  0
   -3.1970    0.1690   -0.5960 N   0  0  0  0  0  0  0  0  0  0  0  0
   -4.4420    0.3360   -1.0800 N   0  0  0  0  0  0  0  0  0  0  0  0
   -5.6630   -0.5960   -0.1940 S   0  0  0  0  0  0  0  0  0  0  0  0
   -4.3370   -0.7270    1.5220 S   0  0  0  0  0  0  0  0  0  0  0  0
  1  2  1  0
  2  3  2  0
  2  4  1  0
  4  5  1  0
  5  6  1  0
  6  7  2  0
  6  8  1  0
  8  9  1  0
  9 10  2  0
  9 13  1  0
 10 11  1  0
 11 12  1  0
 12 13  1  0
M  END
