
     RDKit          3D

 20 22  0  0  0  0  0  0  0  0999 V2000
   -5.2410   -1.1200    0.1430 N   0  0  0  0  0  0  0  0  0  0  0  0
   -3.8610   -0.7980    0.1200 C   0  0  0  0  0  0  0  0  0  0  0  0
   -2.9110   -1.7470    0.3400 C   0  0  0  0  0  0  0  0  0  0  0  0
   -1.6090   -1.3820    0.3060 N   0  0  0  0  0  0  0  0  0  0  0  0
   -1.2210   -0.1220    0.0650 C   0  0  0  0  0  0  0  0  0  0  0  0
    0.2000    0.2100    0.0410 C   0  0  0  0  0  0  0  0  0  0  0  0
    0.6440    1.4880   -0.2020 C   0  0  0  0  0  0  0  0  0  0  0  0
    2.0050    1.7830   -0.2200 C   0  0  0  0  0  0  0  0  0  0  0  0
    2.9280    0.7860    0.0080 C   0  0  0  0  0  0  0  0  0  0  0  0
    4.2830    1.0170    0.0030 C   0  0  0  0  0  0  0  0  0  0  0  0
    4.9370    2.7700   -0.3290 Br  0  0  0  0  0  0  0  0  0  0  0  0
    5.1810   -0.0240    0.2400 C   0  0  0  0  0  0  0  0  0  0  0  0
    4.7240   -1.3040    0.4840 C   0  0  0  0  0  0  0  0  0  0  0  0
    5.9460   -2.7540    0.8130 Br  0  0  0  0  0  0  0  0  0  0  0  0
    3.3590   -1.4980    0.4810 C   0  0  0  0  0  0  0  0  0  0  0  0
    2.4560   -0.4840    0.2500 C   0  0  0  0  0  0  0  0  0  0  0  0
    1.1140   -0.7350    0.2590 N   0  0  0  0  0  0  0  0  0  0  0  0
   -2.1800    0.7870   -0.1480 N   0  0  0  0  0  0  0  0  0  0  0  0
   -3.4830    0.5180   -0.1330 C   0  0  0  0  0  0  0  0  0  0  0  0
   -4.4730    1.4890   -0.3590 N   0  0  0  0  0  0  0  0  0  0  0  0
  1  2  1  0
  2  3  2  0
  2 19  1  0
  3  4  1  0
  4  5  2  0
  5  6  1  0
  5 18  1  0
  6  7  2  0
  6 17  1  0
  7  8  1  0
  8  9  2  0
  9 10  1  0
  9 16  1  0
 10 11  1  0
 10 12  2  0
 12 13  1  0
 13 14  1  0
 13 15  2  0
 15 16  1  0
 16 17  2  0
 18 19  2  0
 19 20  1  0
M  END
