
     RDKit          3D

 13 13  0  0  0  0  0  0  0  0999 V2000
   -3.3740    0.5150    0.2280 N   0  0  0  0  0  0  0  0  0  0  0  0
   -2.7220   -0.3490   -0.6940 C   0  0  0  0  0  0  0  0  0  0  0  0
   -3.7000   -1.2940   -1.6020 S   0  0  0  0  0  0  0  0  0  0  0  0
   -1.2780   -0.4440   -0.9090 C   0  0  0  0  0  0  0  0  0  0  0  0
   -0.4960    0.1050    0.1710 N   0  0  0  0  0  0  0  0  0  0  0  0
    0.9450   -0.0830    0.2480 C   0  0  0  0  0  0  0  0  0  0  0  0
    1.4070   -1.2390   -0.0650 N   0  0  0  0  0  0  0  0  0  0  0  0
    3.1190   -1.1290    0.1370 S   0  0  2  0  0  0  0  0  0  0  0  0
    3.7920   -1.3200   -1.1650 O   0  0  0  0  0  0  0  0  0  0  0  0
    3.6000   -2.0650    1.2160 O   0  0  0  0  0  0  0  0  0  0  0  0
    3.1370    0.5190    0.6420 N   0  0  0  0  0  0  0  0  0  0  0  0
    1.9120    0.8960    0.6420 C   0  0  0  0  0  0  0  0  0  0  0  0
    1.6010    2.2180    1.0240 O   0  0  0  0  0  0  0  0  0  0  0  0
  1  2  1  0
  2  3  2  0
  2  4  1  0
  4  5  1  0
  5  6  1  0
  6  7  2  0
  6 12  1  0
  8  7  1  6
  8  9  2  0
  8 10  2  0
  8 11  1  0
 11 12  2  0
 12 13  1  0
M  END
