
     RDKit          3D

 12 12  0  0  0  0  0  0  0  0999 V2000
   -3.2670   -1.7650    0.0870 O   0  0  0  0  0  0  0  0  0  0  0  0
   -2.3650   -0.9080   -0.1390 C   0  0  0  0  0  0  0  0  0  0  0  0
   -1.2000   -1.2350   -0.7230 N   0  0  0  0  0  0  0  0  0  0  0  0
   -0.2410   -0.2920   -0.9580 C   0  0  0  0  0  0  0  0  0  0  0  0
    1.3000   -0.7520   -1.7440 S   0  0  0  0  0  0  0  0  0  0  0  0
    2.5450   -1.2110   -0.5250 C   0  0  0  0  0  0  0  0  0  0  0  0
    3.0900    0.1830    0.4920 S   0  0  0  0  0  0  0  0  0  0  0  0
    1.8840    0.7990    1.5060 O   0  0  0  0  0  0  0  0  0  0  0  0
   -0.4540    0.9890   -0.6040 N   0  0  0  0  0  0  0  0  0  0  0  0
   -1.6190    1.3140   -0.0200 C   0  0  0  0  0  0  0  0  0  0  0  0
   -1.8070    2.5200    0.3080 O   0  0  0  0  0  0  0  0  0  0  0  0
   -2.5680    0.3750    0.2110 N   0  0  0  0  0  0  0  0  0  0  0  0
  1  2  2  0
  2  3  1  0
  2 12  1  0
  3  4  2  0
  4  5  1  0
  4  9  1  0
  5  6  1  0
  6  7  1  0
  7  8  1  0
  9 10  1  0
 10 11  2  0
 10 12  1  0
M  END
