
     RDKit          3D

 12 12  0  0  0  0  0  0  0  0999 V2000
   -3.2960   -1.4740    0.2080 O   0  0  0  0  0  0  0  0  0  0  0  0
   -2.1870   -0.8900    0.0530 C   0  0  0  0  0  0  0  0  0  0  0  0
   -1.6540   -0.1010    0.9980 N   0  0  0  0  0  0  0  0  0  0  0  0
   -0.4630    0.5090    0.7950 C   0  0  0  0  0  0  0  0  0  0  0  0
   -0.0460    1.2280    1.7370 O   0  0  0  0  0  0  0  0  0  0  0  0
    0.2120    0.3310   -0.3710 N   0  0  0  0  0  0  0  0  0  0  0  0
    1.4800    0.9930   -0.5400 C   0  0  0  0  0  0  0  0  0  0  0  0
    2.9130    0.0850   -0.0400 S   0  0  0  0  0  0  0  0  0  0  0  0
    3.0700   -0.2360    1.6030 O   0  0  0  0  0  0  0  0  0  0  0  0
   -0.3350   -0.4590   -1.3010 C   0  0  0  0  0  0  0  0  0  0  0  0
    0.5210   -0.6470   -2.7070 S   0  0  0  0  0  0  0  0  0  0  0  0
   -1.5020   -1.0590   -1.1070 N   0  0  0  0  0  0  0  0  0  0  0  0
  1  2  2  0
  2  3  1  0
  2 12  1  0
  3  4  1  0
  4  5  2  0
  4  6  1  0
  6  7  1  0
  6 10  1  0
  7  8  1  0
  8  9  1  0
 10 11  2  0
 10 12  1  0
M  END
