
     RDKit          3D

 13 13  0  0  0  0  0  0  0  0999 V2000
    3.3950    0.4650    0.2090 N   0  0  0  0  0  0  0  0  0  0  0  0
    2.0910   -0.0580    0.3430 C   0  0  0  0  0  0  0  0  0  0  0  0
    1.2630    0.0090    1.7670 S   0  0  0  0  0  0  0  0  0  0  0  0
    1.4800   -0.6830   -0.8760 C   0  0  0  0  0  0  0  0  0  0  0  0
    0.1650   -1.1450   -0.5170 N   0  0  0  0  0  0  0  0  0  0  0  0
   -0.8950   -0.2140   -0.2020 C   0  0  0  0  0  0  0  0  0  0  0  0
   -0.7440    1.0300   -0.5110 N   0  0  0  0  0  0  0  0  0  0  0  0
   -2.1940    1.8120    0.0140 S   0  0  2  0  0  0  0  0  0  0  0  0
   -2.9320    2.3920   -1.1380 O   0  0  0  0  0  0  0  0  0  0  0  0
   -1.9350    2.8200    1.0830 O   0  0  0  0  0  0  0  0  0  0  0  0
   -2.9450    0.3860    0.6360 N   0  0  0  0  0  0  0  0  0  0  0  0
   -2.1160   -0.5550    0.4310 C   0  0  0  0  0  0  0  0  0  0  0  0
   -2.4580   -1.8660    0.8400 O   0  0  0  0  0  0  0  0  0  0  0  0
  1  2  1  0
  2  3  2  0
  2  4  1  0
  4  5  1  0
  5  6  1  0
  6  7  2  0
  6 12  1  0
  8  7  1  6
  8  9  2  0
  8 10  2  0
  8 11  1  0
 11 12  2  0
 12 13  1  0
M  END
