
     RDKit          3D

 13 13  0  0  0  0  0  0  0  0999 V2000
    2.2430   -1.8400    0.7310 O   0  0  0  0  0  0  0  0  0  0  0  0
    2.4360   -0.9170   -0.0550 C   0  0  0  0  0  0  0  0  0  0  0  0
    4.1180   -0.6740   -0.7210 S   0  0  0  0  0  0  0  0  0  0  0  0
    1.4040   -0.0510   -0.4490 N   0  0  0  0  0  0  0  0  0  0  0  0
    0.0790   -0.0180   -0.1020 N   0  0  0  0  0  0  0  0  0  0  0  0
   -0.6460    0.9900   -0.6950 C   0  0  0  0  0  0  0  0  0  0  0  0
   -0.1000    1.7990   -1.4880 O   0  0  0  0  0  0  0  0  0  0  0  0
   -1.9460    1.1830   -0.4810 N   0  0  0  0  0  0  0  0  0  0  0  0
   -2.6190    0.3850    0.3400 C   0  0  0  0  0  0  0  0  0  0  0  0
   -3.8650    0.5890    0.5300 O   0  0  0  0  0  0  0  0  0  0  0  0
   -1.9530   -0.5940    0.9260 N   0  0  0  0  0  0  0  0  0  0  0  0
   -0.6110   -0.7990    0.7110 C   0  0  0  0  0  0  0  0  0  0  0  0
    0.0680   -2.0520    1.5100 S   0  0  0  0  0  0  0  0  0  0  0  0
  1  2  2  0
  2  3  1  0
  2  4  1  0
  4  5  1  0
  5  6  1  0
  5 12  1  0
  6  7  2  0
  6  8  1  0
  8  9  1  0
  9 10  2  0
  9 11  1  0
 11 12  1  0
 12 13  2  0
M  END
