
     RDKit          3D

 20 22  0  0  0  0  0  0  0  0999 V2000
   -5.0110    1.6990    0.7130 N   0  0  0  0  0  0  0  0  0  0  0  0
   -3.6900    1.2220    0.5050 C   0  0  0  0  0  0  0  0  0  0  0  0
   -2.6290    2.0370    0.8310 C   0  0  0  0  0  0  0  0  0  0  0  0
   -1.3870    1.5290    0.6110 N   0  0  0  0  0  0  0  0  0  0  0  0
   -1.2030    0.2980    0.1020 C   0  0  0  0  0  0  0  0  0  0  0  0
    0.1690   -0.1630   -0.1000 C   0  0  0  0  0  0  0  0  0  0  0  0
    0.4070   -1.4200   -0.6190 C   0  0  0  0  0  0  0  0  0  0  0  0
    1.7000   -1.8890   -0.8240 C   0  0  0  0  0  0  0  0  0  0  0  0
    2.7750   -1.0870   -0.5030 C   0  0  0  0  0  0  0  0  0  0  0  0
    4.0860   -1.4820   -0.6780 C   0  0  0  0  0  0  0  0  0  0  0  0
    4.4250   -3.2220   -1.3970 Br  0  0  0  0  0  0  0  0  0  0  0  0
    5.1550   -0.6880   -0.3610 C   0  0  0  0  0  0  0  0  0  0  0  0
    4.8880    0.5640    0.1570 C   0  0  0  0  0  0  0  0  0  0  0  0
    6.3310    1.7280    0.6230 Br  0  0  0  0  0  0  0  0  0  0  0  0
    3.5670    0.9710    0.3360 C   0  0  0  0  0  0  0  0  0  0  0  0
    2.4970    0.1690    0.0160 C   0  0  0  0  0  0  0  0  0  0  0  0
    1.2290    0.6000    0.2050 N   0  0  0  0  0  0  0  0  0  0  0  0
   -2.2600   -0.4740   -0.2060 N   0  0  0  0  0  0  0  0  0  0  0  0
   -3.5340   -0.0440   -0.0180 C   0  0  0  0  0  0  0  0  0  0  0  0
   -4.6560   -0.8540   -0.3410 N   0  0  0  0  0  0  0  0  0  0  0  0
  1  2  1  0
  2  3  2  0
  2 19  1  0
  3  4  1  0
  4  5  2  0
  5  6  1  0
  5 18  1  0
  6  7  2  0
  6 17  1  0
  7  8  1  0
  8  9  2  0
  9 10  1  0
  9 16  1  0
 10 11  1  0
 10 12  2  0
 12 13  1  0
 13 14  1  0
 13 15  2  0
 15 16  1  0
 16 17  2  0
 18 19  2  0
 19 20  1  0
M  END
