
     RDKit          3D

 13 13  0  0  0  0  0  0  0  0999 V2000
   -4.4170    0.1570   -0.1040 C   0  0  0  0  0  0  0  0  0  0  0  0
   -3.0260   -0.3630    0.0560 C   0  0  0  0  0  0  0  0  0  0  0  0
   -2.8320   -1.4950    0.5640 O   0  0  0  0  0  0  0  0  0  0  0  0
   -1.9000    0.3790   -0.3480 N   0  0  0  0  0  0  0  0  0  0  0  0
   -0.6100   -0.1890   -0.1610 C   0  0  0  0  0  0  0  0  0  0  0  0
   -0.0610   -1.1320    0.2390 N   0  0  0  0  0  0  0  0  0  0  0  0
    1.2180   -1.3390    0.2620 N   0  0  0  0  0  0  0  0  0  0  0  0
    2.0390   -0.5850   -0.1310 C   0  0  0  0  0  0  0  0  0  0  0  0
    3.7200   -0.2350   -0.3840 S   0  0  2  0  0  0  0  0  0  0  0  0
    4.3960    0.5820    1.0050 N   0  0  0  0  0  0  0  0  0  0  0  0
    3.9810    0.5340   -1.6470 O   0  0  0  0  0  0  0  0  0  0  0  0
    4.4380   -1.5550   -0.4640 O   0  0  0  0  0  0  0  0  0  0  0  0
    0.9020    0.8180   -0.7090 S   0  0  0  0  0  0  0  0  0  0  0  0
  1  2  1  0
  2  3  2  0
  2  4  1  0
  4  5  1  0
  5  6  2  0
  5 13  1  0
  6  7  1  0
  7  8  2  0
  8  9  1  0
  8 13  1  0
  9 10  1  1
  9 11  2  0
  9 12  2  0
M  END
