
     RDKit          3D

 26 25  0  0  0  0  0  0  0  0999 V2000
    6.7020   -0.7320   -0.0910 C   0  0  0  0  0  0  0  0  0  0  0  0
    5.5100   -1.6400    0.1670 C   0  0  2  0  0  0  0  0  0  0  0  0
    5.4970   -2.6560   -0.9720 C   0  0  0  0  0  0  0  0  0  0  0  0
    3.9540   -0.7470    0.0930 S   0  0  0  0  0  0  0  0  0  0  0  0
    3.8280    0.4470    1.4390 C   0  0  1  0  0  0  0  0  0  0  0  0
    4.8530    1.5160    1.2520 C   0  0  0  0  0  0  0  0  0  0  0  0
    2.4420    1.0060    1.5450 C   0  0  0  0  0  0  0  0  0  0  0  0
    1.7960    0.8650    2.6040 O   0  0  0  0  0  0  0  0  0  0  0  0
    1.8380    1.6990    0.4570 N   0  0  0  0  0  0  0  0  0  0  0  0
    0.5360    2.2530    0.4800 C   0  0  0  0  0  0  0  0  0  0  0  0
   -0.6010    1.2740    0.7620 C   0  0  1  0  0  0  0  0  0  0  0  0
   -1.8340    2.0650    0.7810 C   0  0  0  0  0  0  0  0  0  0  0  0
   -3.1510    1.4860    1.0660 C   0  0  0  0  0  0  0  0  0  0  0  0
   -3.7100    0.5720    0.0860 C   0  0  0  0  0  0  0  0  0  0  0  0
   -3.4350    0.8160   -1.1590 O   0  0  0  0  0  0  0  0  0  0  0  0
   -4.5240   -0.5540    0.2570 N   0  0  0  0  0  0  0  0  0  0  0  0
   -4.9420   -1.2960   -0.9110 C   0  0  0  0  0  0  0  0  0  0  0  0
   -6.2500   -0.7770   -1.4710 C   0  0  0  0  0  0  0  0  0  0  0  0
   -6.5810   -1.5420   -2.5900 O   0  0  0  0  0  0  0  0  0  0  0  0
   -4.9450   -0.9740    1.5200 C   0  0  0  0  0  0  0  0  0  0  0  0
   -4.6760   -0.4440    2.6290 O   0  0  0  0  0  0  0  0  0  0  0  0
   -5.7750   -2.1350    1.5620 O   0  0  0  0  0  0  0  0  0  0  0  0
   -0.4320    0.0160    0.0600 C   0  0  1  0  0  0  0  0  0  0  0  0
   -1.4310   -0.9390    0.2500 O   0  0  0  0  0  0  0  0  0  0  0  0
    0.1020   -0.0540   -1.3130 C   0  0  0  0  0  0  0  0  0  0  0  0
   -0.7670    0.1580   -2.4170 N   0  0  0  0  0  0  0  0  0  0  0  0
  2  1  1  6
  2  3  1  0
  2  4  1  0
  4  5  1  0
  5  6  1  6
  5  7  1  0
  7  8  2  0
  7  9  1  0
  9 10  1  0
 11 10  1  6
 11 12  1  0
 11 23  1  0
 12 13  1  0
 13 14  1  0
 14 15  2  0
 14 16  1  0
 16 17  1  0
 16 20  1  0
 17 18  1  0
 18 19  1  0
 20 21  2  0
 20 22  1  0
 23 24  1  6
 23 25  1  0
 25 26  1  0
M  CHG  1  26   1
M  END
