
     RDKit          3D

 26 26  0  0  0  0  0  0  0  0999 V2000
   -6.1700    1.3960   -2.0700 C   0  0  0  0  0  0  0  0  0  0  0  0
   -4.9400    1.1570   -2.6500 O   0  0  0  0  0  0  0  0  0  0  0  0
   -3.9380    0.9760   -1.7240 C   0  0  0  0  0  0  0  0  0  0  0  0
   -4.2190   -0.1900   -0.8560 C   0  0  0  0  0  0  0  0  0  0  0  0
   -3.1520   -0.4630    0.1730 C   0  0  1  0  0  0  0  0  0  0  0  0
   -3.5750   -1.5770    0.8960 O   0  0  0  0  0  0  0  0  0  0  0  0
   -1.9110   -0.9020   -0.5730 C   0  0  0  0  0  0  0  0  0  0  0  0
   -0.8580   -1.3450    0.3040 N   0  0  0  0  0  0  0  0  0  0  0  0
    0.3610   -1.7860   -0.2620 C   0  0  0  0  0  0  0  0  0  0  0  0
    0.4570   -1.7640   -1.5370 O   0  0  0  0  0  0  0  0  0  0  0  0
    1.5040   -2.2610    0.5650 C   0  0  0  0  0  0  0  0  0  0  0  0
    2.6670   -2.6860   -0.2640 C   0  0  0  0  0  0  0  0  0  0  0  0
    3.3730   -1.4780   -1.3470 S   0  0  0  0  0  0  0  0  0  0  0  0
    4.1720   -0.0780   -0.6040 C   0  0  1  0  0  0  0  0  0  0  0  0
    3.3060    0.9130    0.0780 C   0  0  0  0  0  0  0  0  0  0  0  0
    4.0790    1.2520    1.3450 C   0  0  0  0  0  0  0  0  0  0  0  0
    5.3580    0.7290    1.1420 O   0  0  0  0  0  0  0  0  0  0  0  0
    5.1570   -0.4860    0.4880 C   0  0  2  0  0  0  0  0  0  0  0  0
    6.4430   -0.9720   -0.1020 C   0  0  0  0  0  0  0  0  0  0  0  0
    7.0030   -0.0560   -1.0620 N   0  0  0  0  0  0  0  0  0  0  0  0
   -2.8040    0.6660    1.0580 C   0  0  0  0  0  0  0  0  0  0  0  0
   -3.9040    1.1960    1.8830 C   0  0  0  0  0  0  0  0  0  0  0  0
   -5.0420    0.6600    1.8090 O   0  0  0  0  0  0  0  0  0  0  0  0
   -3.7540    2.2840    2.7630 N   0  0  0  0  0  0  0  0  0  0  0  0
   -4.8230    2.7920    3.5580 C   0  0  0  0  0  0  0  0  0  0  0  0
   -5.9680    2.2630    3.4940 O   0  0  0  0  0  0  0  0  0  0  0  0
  1  2  1  0
  2  3  1  0
  3  4  1  0
  4  5  1  0
  5  6  1  1
  5  7  1  0
  5 21  1  0
  7  8  1  0
  8  9  1  0
  9 10  2  0
  9 11  1  0
 11 12  1  0
 12 13  1  0
 14 13  1  1
 14 15  1  0
 14 18  1  0
 15 16  1  0
 16 17  1  0
 17 18  1  0
 18 19  1  6
 19 20  1  0
 21 22  1  0
 22 23  2  0
 22 24  1  0
 24 25  1  0
 25 26  2  0
M  CHG  1  20   1
M  END
