
     RDKit          3D

 26 25  0  0  0  0  0  0  0  0999 V2000
    7.2830    0.8960    0.9080 C   0  0  0  0  0  0  0  0  0  0  0  0
    6.4650    0.6720   -0.3390 C   0  0  0  0  0  0  0  0  0  0  0  0
    5.1450    1.4160   -0.3110 C   0  0  0  0  0  0  0  0  0  0  0  0
    4.4340    1.1080   -1.6030 C   0  0  0  0  0  0  0  0  0  0  0  0
    3.0890    1.7910   -1.7090 C   0  0  0  0  0  0  0  0  0  0  0  0
    2.2430    1.3000   -0.5540 C   0  0  0  0  0  0  0  0  0  0  0  0
    2.0230   -0.4980   -0.6130 S   0  0  0  0  0  0  0  0  0  0  0  0
    1.0430   -0.9800    0.8020 C   0  0  0  0  0  0  0  0  0  0  0  0
   -0.3700   -0.5190    0.8100 C   0  0  2  0  0  0  0  0  0  0  0  0
   -1.1280   -1.0080   -0.3270 N   0  0  0  0  0  0  0  0  0  0  0  0
   -2.2240   -1.9310   -0.1530 C   0  0  0  0  0  0  0  0  0  0  0  0
   -2.4670   -2.2720    1.0290 O   0  0  0  0  0  0  0  0  0  0  0  0
   -2.9840   -2.4150   -1.3320 C   0  0  0  0  0  0  0  0  0  0  0  0
   -4.1220   -3.3070   -1.0230 C   0  0  0  0  0  0  0  0  0  0  0  0
   -5.1430   -2.6140   -0.1580 C   0  0  2  0  0  0  0  0  0  0  0  0
   -6.1980   -3.6320    0.0560 N   0  0  0  0  0  0  0  0  0  0  0  0
   -5.7590   -1.4440   -0.8290 C   0  0  0  0  0  0  0  0  0  0  0  0
   -5.0740   -0.4280   -1.0420 O   0  0  0  0  0  0  0  0  0  0  0  0
   -7.0820   -1.4600   -1.2220 O   0  0  0  0  0  0  0  0  0  0  0  0
   -0.5790    0.9220    0.9750 C   0  0  0  0  0  0  0  0  0  0  0  0
   -1.3460    1.5500    0.1960 O   0  0  0  0  0  0  0  0  0  0  0  0
    0.0830    1.6110    2.0150 N   0  0  0  0  0  0  0  0  0  0  0  0
   -0.0940    3.0240    2.2130 C   0  0  0  0  0  0  0  0  0  0  0  0
   -1.5090    3.3200    2.4730 C   0  0  0  0  0  0  0  0  0  0  0  0
   -2.3410    2.3820    2.4900 O   0  0  0  0  0  0  0  0  0  0  0  0
   -1.9340    4.6100    2.6980 O   0  0  0  0  0  0  0  0  0  0  0  0
  1  2  1  0
  2  3  1  0
  3  4  1  0
  4  5  1  0
  5  6  1  0
  6  7  1  0
  7  8  1  0
  9  8  1  6
  9 10  1  0
  9 20  1  0
 10 11  1  0
 11 12  2  0
 11 13  1  0
 13 14  1  0
 14 15  1  0
 15 16  1  6
 15 17  1  0
 17 18  2  0
 17 19  1  0
 20 21  2  0
 20 22  1  0
 22 23  1  0
 23 24  1  0
 24 25  2  0
 24 26  1  0
M  CHG  1  16   1
M  END
