
     RDKit          3D

 16 16  0  0  0  0  0  0  0  0999 V2000
    6.0760    0.3020   -1.0360 N   0  0  0  0  0  0  0  0  0  0  0  0
    5.8620   -0.2750    0.0900 C   0  0  0  0  0  0  0  0  0  0  0  0
    7.2070   -0.7890    1.1230 Cl  0  0  0  0  0  0  0  0  0  0  0  0
    4.5460   -0.4830    0.4700 O   0  0  0  0  0  0  0  0  0  0  0  0
    3.5360    0.4090    0.1210 C   0  0  0  0  0  0  0  0  0  0  0  0
    2.1730   -0.0310    0.6530 C   0  0  0  0  0  0  0  0  0  0  0  0
    1.2920    0.9460    0.2260 O   0  0  0  0  0  0  0  0  0  0  0  0
   -0.0130    0.8040    0.6020 C   0  0  0  0  0  0  0  0  0  0  0  0
   -0.5840   -0.4680    0.0810 C   0  0  0  0  0  0  0  0  0  0  0  0
   -2.0410   -0.6550    0.4600 C   0  0  1  0  0  0  0  0  0  0  0  0
   -2.2090   -0.6770    1.8920 N   0  0  0  0  0  0  0  0  0  0  0  0
   -2.8660    0.4430   -0.1570 C   0  0  1  0  0  0  0  0  0  0  0  0
   -2.7460    0.5160   -1.5200 O   0  0  0  0  0  0  0  0  0  0  0  0
   -3.9720    0.1730   -2.0810 C   0  0  0  0  0  0  0  0  0  0  0  0
   -4.5920   -0.6140   -0.9260 C   0  0  0  0  0  0  0  0  0  0  0  0
   -4.1980    0.1740    0.1540 O   0  0  0  0  0  0  0  0  0  0  0  0
  1  2  2  0
  2  3  1  0
  2  4  1  0
  4  5  1  0
  5  6  1  0
  6  7  1  0
  7  8  1  0
  8  9  1  0
  9 10  1  0
 10 11  1  1
 10 12  1  0
 12 13  1  6
 12 16  1  0
 13 14  1  0
 14 15  1  0
 15 16  1  0
M  CHG  2   1   1  11   1
M  END
