
     RDKit          3D

 18 18  0  0  0  0  0  0  0  0999 V2000
    5.7660   -0.8230    1.4160 C   0  0  0  0  0  0  0  0  0  0  0  0
    5.8810   -0.2560    0.0440 C   0  0  0  0  0  0  0  0  0  0  0  0
    4.9250    0.7420   -0.2470 O   0  0  0  0  0  0  0  0  0  0  0  0
    3.5630    0.5060   -0.2130 C   0  0  0  0  0  0  0  0  0  0  0  0
    3.1800   -0.6460    0.0900 O   0  0  0  0  0  0  0  0  0  0  0  0
    2.6200    1.5880   -0.5270 C   0  0  0  0  0  0  0  0  0  0  0  0
    1.2790    1.1940   -0.4500 O   0  0  0  0  0  0  0  0  0  0  0  0
    0.6880    0.7040    0.7140 C   0  0  0  0  0  0  0  0  0  0  0  0
    1.4330    0.6290    1.7240 O   0  0  0  0  0  0  0  0  0  0  0  0
   -0.7080    0.3030    0.7630 C   0  0  0  0  0  0  0  0  0  0  0  0
   -1.4790    0.3900   -0.3110 C   0  0  0  0  0  0  0  0  0  0  0  0
   -2.8700   -0.0090   -0.2660 C   0  0  0  0  0  0  0  0  0  0  0  0
   -3.7180    0.0380   -1.2750 C   0  0  0  0  0  0  0  0  0  0  0  0
   -3.4580    0.4760   -2.5830 O   0  0  0  0  0  0  0  0  0  0  0  0
   -5.0580   -0.4450   -0.8760 C   0  0  2  0  0  0  0  0  0  0  0  0
   -5.8330    0.6680   -0.5500 O   0  0  0  0  0  0  0  0  0  0  0  0
   -4.7760   -1.2780    0.3490 C   0  0  0  0  0  0  0  0  0  0  0  0
   -3.5730   -0.5420    0.9370 C   0  0  0  0  0  0  0  0  0  0  0  0
  1  2  1  0
  2  3  1  0
  3  4  1  0
  4  5  2  0
  4  6  1  0
  6  7  1  0
  7  8  1  0
  8  9  2  0
  8 10  1  0
 10 11  2  3
 11 12  1  0
 12 13  2  0
 12 18  1  0
 13 14  1  0
 13 15  1  0
 15 16  1  1
 15 17  1  0
 17 18  1  0
M  END
