
     RDKit          3D

 18 18  0  0  0  0  0  0  0  0999 V2000
   -4.7980    0.4310   -0.0210 C   0  0  0  0  0  0  0  0  0  0  0  0
   -3.3740    0.2370   -0.5070 C   0  0  2  0  0  0  0  0  0  0  0  0
   -3.1950    1.0610   -1.7440 C   0  0  0  0  0  0  0  0  0  0  0  0
   -3.2240   -1.2340   -0.8430 C   0  0  0  0  0  0  0  0  0  0  0  0
   -2.5230    0.6180    0.5530 O   0  0  0  0  0  0  0  0  0  0  0  0
   -1.1470    0.5760    0.4780 C   0  0  0  0  0  0  0  0  0  0  0  0
   -0.6340    0.1730   -0.6010 O   0  0  0  0  0  0  0  0  0  0  0  0
   -0.2950    0.9930    1.6380 C   0  0  0  0  0  0  0  0  0  0  0  0
    1.0510    0.8470    1.2790 O   0  0  0  0  0  0  0  0  0  0  0  0
    1.6350   -0.3570    0.9030 C   0  0  0  0  0  0  0  0  0  0  0  0
    0.9030   -1.3730    0.8870 O   0  0  0  0  0  0  0  0  0  0  0  0
    3.0430   -0.4620    0.5360 C   0  0  0  0  0  0  0  0  0  0  0  0
    3.5070   -1.6440    0.1940 C   0  0  0  0  0  0  0  0  0  0  0  0
    4.9040   -1.8430   -0.1880 C   0  0  0  0  0  0  0  0  0  0  0  0
    5.6280   -0.6530   -0.1370 O   0  0  0  0  0  0  0  0  0  0  0  0
    5.1580    0.5820    0.2170 C   0  0  0  0  0  0  0  0  0  0  0  0
    3.8910    0.7150    0.5550 C   0  0  0  0  0  0  0  0  0  0  0  0
    3.4390    1.9770    0.9090 O   0  0  0  0  0  0  0  0  0  0  0  0
  2  1  1  1
  2  3  1  0
  2  4  1  0
  2  5  1  0
  5  6  1  0
  6  7  2  0
  6  8  1  0
  8  9  1  0
  9 10  1  0
 10 11  2  0
 10 12  1  0
 12 13  2  0
 12 17  1  0
 13 14  1  0
 14 15  1  0
 15 16  1  0
 16 17  2  0
 17 18  1  0
M  END
