
     RDKit          3D

 18 18  0  0  0  0  0  0  0  0999 V2000
    1.4810    1.7680    1.5280 C   0  0  0  0  0  0  0  0  0  0  0  0
    2.1250    0.7540    0.6060 C   0  0  0  0  0  0  0  0  0  0  0  0
    3.3940    0.5080    0.8690 C   0  0  0  0  0  0  0  0  0  0  0  0
    4.2900   -0.3880    0.2000 C   0  0  0  0  0  0  0  0  0  0  0  0
    5.5010   -0.4660    0.6290 O   0  0  0  0  0  0  0  0  0  0  0  0
    3.9870   -1.2030   -0.8890 O   0  0  0  0  0  0  0  0  0  0  0  0
    1.3670    0.2050   -0.4960 C   0  0  0  0  0  0  0  0  0  0  0  0
    0.2090   -0.6810   -0.2490 C   0  0  1  0  0  0  0  0  0  0  0  0
   -0.8990   -0.1150    0.5300 C   0  0  0  0  0  0  0  0  0  0  0  0
   -0.8700    0.0890    1.7850 O   0  0  0  0  0  0  0  0  0  0  0  0
   -2.1100    0.2570   -0.0630 O   0  0  0  0  0  0  0  0  0  0  0  0
   -3.1850    0.8030    0.6680 C   0  0  1  0  0  0  0  0  0  0  0  0
   -3.4870    2.1820    0.0750 C   0  0  0  0  0  0  0  0  0  0  0  0
   -4.4560   -0.0120    0.4910 C   0  0  0  0  0  0  0  0  0  0  0  0
   -0.3440   -0.9160   -1.5580 O   0  0  0  0  0  0  0  0  0  0  0  0
    0.4650   -1.9040   -2.0910 C   0  0  0  0  0  0  0  0  0  0  0  0
    0.8400   -2.7250   -0.8760 C   0  0  0  0  0  0  0  0  0  0  0  0
    0.5560   -1.9410    0.2280 O   0  0  0  0  0  0  0  0  0  0  0  0
  1  2  1  0
  2  3  2  3
  2  7  1  0
  3  4  1  0
  4  5  2  0
  4  6  1  0
  8  7  1  6
  8  9  1  0
  8 15  1  0
  8 18  1  0
  9 10  2  0
  9 11  1  0
 11 12  1  0
 12 13  1  6
 12 14  1  0
 15 16  1  0
 16 17  1  0
 17 18  1  0
M  END
