
     RDKit          3D

 18 18  0  0  0  0  0  0  0  0999 V2000
    3.1270   -2.4000   -0.4370 C   0  0  0  0  0  0  0  0  0  0  0  0
    2.9930   -1.1130    0.3100 C   0  0  0  0  0  0  0  0  0  0  0  0
    2.0840   -0.9210    1.1510 O   0  0  0  0  0  0  0  0  0  0  0  0
    3.8850   -0.0570    0.1000 O   0  0  0  0  0  0  0  0  0  0  0  0
    3.7840    1.1580    0.7840 C   0  0  0  0  0  0  0  0  0  0  0  0
    2.4780    1.8370    0.5310 C   0  0  0  0  0  0  0  0  0  0  0  0
    2.1860    2.9370    1.0480 O   0  0  0  0  0  0  0  0  0  0  0  0
    1.5880    1.2300   -0.2880 O   0  0  0  0  0  0  0  0  0  0  0  0
    0.3230    1.6080   -0.6940 C   0  0  0  0  0  0  0  0  0  0  0  0
   -0.7030    1.7140    0.4430 C   0  0  1  0  0  0  0  0  0  0  0  0
   -0.3180    2.6820    1.3520 O   0  0  0  0  0  0  0  0  0  0  0  0
   -2.0650    2.0070   -0.1190 C   0  0  0  0  0  0  0  0  0  0  0  0
   -2.4510    0.9890   -0.9900 O   0  0  0  0  0  0  0  0  0  0  0  0
   -2.6360   -0.3430   -0.6620 C   0  0  0  0  0  0  0  0  0  0  0  0
   -1.7310   -1.2670   -0.4320 C   0  0  0  0  0  0  0  0  0  0  0  0
   -2.3900   -2.5520   -0.1170 C   0  0  0  0  0  0  0  0  0  0  0  0
   -3.8160   -2.2500   -0.1950 C   0  0  0  0  0  0  0  0  0  0  0  0
   -3.9680   -0.9800   -0.5090 C   0  0  0  0  0  0  0  0  0  0  0  0
  1  2  1  0
  2  3  2  0
  2  4  1  0
  4  5  1  0
  5  6  1  0
  6  7  2  0
  6  8  1  0
  8  9  1  0
  9 10  1  0
 10 11  1  1
 10 12  1  0
 12 13  1  0
 13 14  1  0
 14 15  2  0
 14 18  1  0
 15 16  1  0
 16 17  1  0
 17 18  2  0
M  END
