
     RDKit          3D

 21 23  0  0  0  0  0  0  0  0999 V2000
   -2.2920   -3.4710   -0.6320 C   0  0  0  0  0  0  0  0  0  0  0  0
   -2.9480   -1.8150   -0.5290 S   0  0  0  0  0  0  0  0  0  0  0  0
   -1.6660   -0.5920   -0.2350 C   0  0  0  0  0  0  0  0  0  0  0  0
   -0.3730   -0.9110   -0.1110 N   0  0  0  0  0  0  0  0  0  0  0  0
    0.5730    0.0030    0.1080 N   0  0  0  0  0  0  0  0  0  0  0  0
    1.9470   -0.3320    0.2400 C   0  0  0  0  0  0  0  0  0  0  0  0
    2.7450    0.0630    1.2750 C   0  0  0  0  0  0  0  0  0  0  0  0
    4.0720   -0.3050    1.3310 C   0  0  0  0  0  0  0  0  0  0  0  0
    4.6230   -1.0830    0.3370 C   0  0  0  0  0  0  0  0  0  0  0  0
    5.9450   -1.4580    0.3780 F   0  0  0  0  0  0  0  0  0  0  0  0
    3.8360   -1.4930   -0.7170 C   0  0  0  0  0  0  0  0  0  0  0  0
    4.3990   -2.2560   -1.6820 F   0  0  0  0  0  0  0  0  0  0  0  0
    2.5270   -1.1150   -0.7480 C   0  0  0  0  0  0  0  0  0  0  0  0
    0.2210    1.2940    0.2080 C   0  0  0  0  0  0  0  0  0  0  0  0
    1.0760    2.1930    0.4130 O   0  0  0  0  0  0  0  0  0  0  0  0
   -1.1000    1.7240    0.0920 C   0  0  0  0  0  0  0  0  0  0  0  0
   -1.4370    3.0550    0.1980 C   0  0  0  0  0  0  0  0  0  0  0  0
   -2.7680    3.3860    0.0700 C   0  0  0  0  0  0  0  0  0  0  0  0
   -3.7110    2.4050   -0.1550 C   0  0  0  0  0  0  0  0  0  0  0  0
   -3.3710    1.0730   -0.2610 C   0  0  0  0  0  0  0  0  0  0  0  0
   -2.0420    0.7320   -0.1340 C   0  0  0  0  0  0  0  0  0  0  0  0
  1  2  1  0
  2  3  1  0
  3  4  2  0
  3 21  1  0
  4  5  1  0
  5  6  1  0
  5 14  1  0
  6  7  2  0
  6 13  1  0
  7  8  1  0
  8  9  2  0
  9 10  1  0
  9 11  1  0
 11 12  1  0
 11 13  2  0
 14 15  2  0
 14 16  1  0
 16 17  2  0
 16 21  1  0
 17 18  1  0
 18 19  2  0
 19 20  1  0
 20 21  2  0
M  END
