
     RDKit          3D

 24 27  0  0  0  0  0  0  0  0999 V2000
    5.0490   -2.7810    0.0680 C   0  0  0  0  0  0  0  0  0  0  0  0
    4.0950   -1.7920   -0.0940 O   0  0  0  0  0  0  0  0  0  0  0  0
    4.2640   -0.4300   -0.0390 C   0  0  0  0  0  0  0  0  0  0  0  0
    5.4210    0.2490    0.1650 C   0  0  0  0  0  0  0  0  0  0  0  0
    5.4150    1.6220    0.2150 C   0  0  0  0  0  0  0  0  0  0  0  0
    4.2560    2.3660    0.0540 C   0  0  0  0  0  0  0  0  0  0  0  0
    3.0680    1.6850   -0.1650 C   0  0  0  0  0  0  0  0  0  0  0  0
    3.0970    0.3250   -0.2030 C   0  0  0  0  0  0  0  0  0  0  0  0
    1.8850   -0.4900   -0.6080 C   0  0  0  0  0  0  0  0  0  0  0  0
    1.0930   -0.5750    0.5630 N   0  0  0  0  0  0  0  0  0  0  0  0
   -0.2870   -0.4020    0.4940 C   0  0  1  0  0  0  0  0  0  0  0  0
   -0.9260   -0.6830    1.8380 C   0  0  0  0  0  0  0  0  0  0  0  0
   -2.1950    0.0350    1.9620 O   0  0  0  0  0  0  0  0  0  0  0  0
   -2.8950    0.2690    0.7580 C   0  0  0  0  0  0  0  0  0  0  0  0
   -2.1220    0.8260   -0.2780 C   0  0  0  0  0  0  0  0  0  0  0  0
   -2.6470    1.0860   -1.4820 C   0  0  0  0  0  0  0  0  0  0  0  0
   -3.9900    0.8290   -1.7840 C   0  0  0  0  0  0  0  0  0  0  0  0
   -4.5170    1.0690   -3.0150 F   0  0  0  0  0  0  0  0  0  0  0  0
   -4.7410    0.2880   -0.7620 C   0  0  0  0  0  0  0  0  0  0  0  0
   -4.1890    0.0180    0.4860 C   0  0  0  0  0  0  0  0  0  0  0  0
   -5.1930   -0.5130    1.3350 O   0  0  0  0  0  0  0  0  0  0  0  0
   -6.4370    0.0190    0.8260 C   0  0  0  0  0  0  0  0  0  0  0  0
   -6.1760   -0.1580   -0.6570 C   0  0  0  0  0  0  0  0  0  0  0  0
   -0.6950    1.0290    0.1320 C   0  0  0  0  0  0  0  0  0  0  0  0
  1  2  1  0
  2  3  1  0
  3  4  2  0
  3  8  1  0
  4  5  1  0
  5  6  2  0
  6  7  1  0
  7  8  2  0
  8  9  1  0
  9 10  1  0
 11 10  1  1
 11 12  1  0
 11 24  1  0
 12 13  1  0
 13 14  1  0
 14 15  2  0
 14 20  1  0
 15 16  1  0
 15 24  1  0
 16 17  2  0
 17 18  1  0
 17 19  1  0
 19 20  2  0
 19 23  1  0
 20 21  1  0
 21 22  1  0
 22 23  1  0
M  CHG  1  10   1
M  END
