
     RDKit          3D

 24 27  0  0  0  0  0  0  0  0999 V2000
   -2.5540    1.9000   -0.7540 C   0  0  0  0  0  0  0  0  0  0  0  0
   -3.5460    1.0990   -0.0230 C   0  0  0  0  0  0  0  0  0  0  0  0
   -4.7690    1.6630    0.3740 C   0  0  0  0  0  0  0  0  0  0  0  0
   -5.7070    0.9240    1.0570 C   0  0  0  0  0  0  0  0  0  0  0  0
   -5.4320   -0.3870    1.3510 C   0  0  0  0  0  0  0  0  0  0  0  0
   -6.3270   -1.1780    2.0310 F   0  0  0  0  0  0  0  0  0  0  0  0
   -4.2480   -0.9120    0.9600 C   0  0  0  0  0  0  0  0  0  0  0  0
   -3.2510   -0.2160    0.2620 C   0  0  0  0  0  0  0  0  0  0  0  0
   -2.0160   -0.9200   -0.0900 C   0  0  2  0  0  0  0  0  0  0  0  0
   -0.9480   -0.7780    0.8570 N   0  0  0  0  0  0  0  0  0  0  0  0
    0.0410   -1.8230    0.5420 C   0  0  0  0  0  0  0  0  0  0  0  0
    0.6900   -1.5710   -0.7850 C   0  0  2  0  0  0  0  0  0  0  0  0
    2.0360   -0.9350   -0.6180 C   0  0  0  0  0  0  0  0  0  0  0  0
    3.1880   -1.4190   -1.0230 C   0  0  0  0  0  0  0  0  0  0  0  0
    4.2890   -0.5360   -0.6930 C   0  0  0  0  0  0  0  0  0  0  0  0
    5.6020   -0.5540   -0.8710 C   0  0  0  0  0  0  0  0  0  0  0  0
    6.4110    0.4770   -0.4240 O   0  0  0  0  0  0  0  0  0  0  0  0
    5.9180    1.6070    0.2420 C   0  0  0  0  0  0  0  0  0  0  0  0
    4.4600    1.6090    0.4300 C   0  0  0  0  0  0  0  0  0  0  0  0
    3.6940    0.5980   -0.0110 C   0  0  0  0  0  0  0  0  0  0  0  0
    2.2430    0.3620    0.0490 C   0  0  0  0  0  0  0  0  0  0  0  0
   -0.1410   -0.7660   -1.6330 O   0  0  0  0  0  0  0  0  0  0  0  0
   -1.5150   -0.7130   -1.4550 C   0  0  0  0  0  0  0  0  0  0  0  0
   -2.3280   -0.5020   -2.3800 O   0  0  0  0  0  0  0  0  0  0  0  0
  1  2  1  0
  2  3  2  0
  2  8  1  0
  3  4  1  0
  4  5  2  0
  5  6  1  0
  5  7  1  0
  7  8  2  0
  9  8  1  1
  9 10  1  0
  9 23  1  0
 10 11  1  0
 11 12  1  0
 12 13  1  1
 12 22  1  0
 13 14  2  0
 13 21  1  0
 14 15  1  0
 15 16  2  0
 15 20  1  0
 16 17  1  0
 17 18  1  0
 18 19  1  0
 19 20  2  0
 20 21  1  0
 22 23  1  0
 23 24  2  0
M  CHG  1  10   1
M  END
