
     RDKit          3D

 10 10  0  0  0  0  0  0  0  0999 V2000
   -1.3700    1.0550   -0.4290 C   0  0  0  0  0  0  0  0  0  0  0  0
   -0.4560    0.4370    0.5980 C   0  0  1  0  0  0  0  0  0  0  0  0
    0.0320    1.3390    1.4990 O   0  0  0  0  0  0  0  0  0  0  0  0
   -1.2580   -0.6870    1.2650 C   0  0  0  0  0  0  0  0  0  0  0  0
   -1.2660   -1.7350    0.3800 O   0  0  0  0  0  0  0  0  0  0  0  0
   -0.1980   -1.6000   -0.4840 C   0  0  0  0  0  0  0  0  0  0  0  0
    0.6160   -0.4200   -0.0430 C   0  0  2  0  0  0  0  0  0  0  0  0
    1.5180   -0.8340    0.9060 O   0  0  0  0  0  0  0  0  0  0  0  0
    1.3190    0.2960   -1.1500 C   0  0  0  0  0  0  0  0  0  0  0  0
    1.9640    1.3990   -0.5800 O   0  0  0  0  0  0  0  0  0  0  0  0
  2  1  1  6
  2  3  1  0
  2  4  1  0
  2  7  1  0
  4  5  1  0
  5  6  1  0
  6  7  1  0
  7  8  1  1
  7  9  1  0
  9 10  1  0
M  END
