
     RDKit          3D

 27 29  0  0  0  0  0  0  0  0999 V2000
   -3.8500   -2.4960    0.3280 O   0  0  0  0  0  0  0  0  0  0  0  0
   -3.1290   -1.1570    0.4380 S   0  0  1  0  0  0  0  0  0  0  0  0
   -3.1670   -0.7280    1.9200 O   0  0  0  0  0  0  0  0  0  0  0  0
   -1.5090   -1.5060    0.0740 N   0  0  0  0  0  0  0  0  0  0  0  0
   -0.5610   -0.4780    0.1960 C   0  0  0  0  0  0  0  0  0  0  0  0
    0.8290   -0.9410   -0.1660 C   0  0  0  0  0  0  0  0  0  0  0  0
    1.3020   -2.0180    0.6590 N   0  0  0  0  0  0  0  0  0  0  0  0
    2.2720   -1.4920    1.6110 C   0  0  0  0  0  0  0  0  0  0  0  0
    3.5820   -1.2090    0.9270 C   0  0  0  0  0  0  0  0  0  0  0  0
    4.0470    0.0230    0.9400 C   0  0  0  0  0  0  0  0  0  0  0  0
    5.2920    0.4350    0.3230 C   0  0  0  0  0  0  0  0  0  0  0  0
    5.7230    1.7660    0.3770 C   0  0  0  0  0  0  0  0  0  0  0  0
    6.8850    2.1840   -0.1910 C   0  0  0  0  0  0  0  0  0  0  0  0
    7.6830    1.2800   -0.8510 C   0  0  0  0  0  0  0  0  0  0  0  0
    9.3300    1.7820   -1.6780 Br  0  0  0  0  0  0  0  0  0  0  0  0
    7.2990   -0.0320   -0.9290 C   0  0  0  0  0  0  0  0  0  0  0  0
    6.1010   -0.4520   -0.3400 C   0  0  0  0  0  0  0  0  0  0  0  0
   -3.9280    0.0110   -0.5460 C   0  0  0  0  0  0  0  0  0  0  0  0
   -3.3450    0.5790   -1.6600 C   0  0  0  0  0  0  0  0  0  0  0  0
   -4.0720    1.4990   -2.3800 C   0  0  0  0  0  0  0  0  0  0  0  0
   -5.3480    1.8750   -2.0410 C   0  0  0  0  0  0  0  0  0  0  0  0
   -5.9050    1.2800   -0.9110 C   0  0  0  0  0  0  0  0  0  0  0  0
   -7.2080    1.6820   -0.6060 C   0  0  0  0  0  0  0  0  0  0  0  0
   -7.7870    1.1220    0.4760 N   0  0  0  0  0  0  0  0  0  0  0  0
   -7.1530    0.2150    1.2380 C   0  0  0  0  0  0  0  0  0  0  0  0
   -5.8500   -0.1980    0.9460 C   0  0  0  0  0  0  0  0  0  0  0  0
   -5.2270    0.3530   -0.1500 C   0  0  0  0  0  0  0  0  0  0  0  0
  1  2  2  0
  2  3  2  0
  2  4  1  6
  2 18  1  0
  4  5  1  0
  5  6  1  0
  6  7  1  0
  7  8  1  0
  8  9  1  0
  9 10  2  3
 10 11  1  0
 11 12  2  0
 11 17  1  0
 12 13  1  0
 13 14  2  0
 14 15  1  0
 14 16  1  0
 16 17  2  0
 18 19  2  0
 18 27  1  0
 19 20  1  0
 20 21  2  0
 21 22  1  0
 22 23  2  0
 22 27  1  0
 23 24  1  0
 24 25  2  0
 25 26  1  0
 26 27  2  0
M  CHG  1   7   1
M  END
