
     RDKit          3D

 11 11  0  0  0  0  0  0  0  0999 V2000
   -3.7180   -0.3850   -0.7990 O   0  0  0  0  0  0  0  0  0  0  0  0
   -2.7720    0.5010   -0.2550 C   0  0  0  0  0  0  0  0  0  0  0  0
   -1.4970   -0.2840   -0.0430 C   0  0  1  0  0  0  0  0  0  0  0  0
   -1.1030   -0.7590   -1.2980 O   0  0  0  0  0  0  0  0  0  0  0  0
    0.2440   -1.0420   -1.0730 C   0  0  0  0  0  0  0  0  0  0  0  0
    0.6910    0.0950   -0.2190 C   0  0  2  0  0  0  0  0  0  0  0  0
    1.3070    1.2320   -0.9870 C   0  0  0  0  0  0  0  0  0  0  0  0
    1.5990    2.2480   -0.0760 O   0  0  0  0  0  0  0  0  0  0  0  0
    1.7380   -0.4250    0.7470 C   0  0  0  0  0  0  0  0  0  0  0  0
    2.8450   -0.8020   -0.0030 O   0  0  0  0  0  0  0  0  0  0  0  0
   -0.4620    0.5020    0.4110 O   0  0  0  0  0  0  0  0  0  0  0  0
  1  2  1  0
  3  2  1  6
  3  4  1  0
  3 11  1  0
  4  5  1  0
  5  6  1  0
  6  7  1  6
  6  9  1  0
  6 11  1  0
  7  8  1  0
  9 10  1  0
M  END
