
     RDKit          3D

 11 11  0  0  0  0  0  0  0  0999 V2000
    3.1090    0.4770    0.8040 O   0  0  0  0  0  0  0  0  0  0  0  0
    1.9970    0.2540   -0.0410 C   0  0  1  0  0  0  0  0  0  0  0  0
    1.7480    1.4510   -0.7180 O   0  0  0  0  0  0  0  0  0  0  0  0
    2.3220   -0.7560   -0.9270 O   0  0  0  0  0  0  0  0  0  0  0  0
    0.8080   -0.0860    0.8190 C   0  0  0  0  0  0  0  0  0  0  0  0
   -0.4130   -0.3370   -0.0260 C   0  0  1  0  0  0  0  0  0  0  0  0
   -0.2220   -1.3960   -0.9150 O   0  0  0  0  0  0  0  0  0  0  0  0
   -1.6400   -0.5670    0.8040 C   0  0  0  0  0  0  0  0  0  0  0  0
   -2.7210    0.1130    0.0270 C   0  0  0  0  0  0  0  0  0  0  0  0
   -2.1620    0.6860   -1.0800 O   0  0  0  0  0  0  0  0  0  0  0  0
   -0.8030    0.8740   -0.8400 C   0  0  0  0  0  0  0  0  0  0  0  0
  2  1  1  1
  2  3  1  0
  2  4  1  0
  2  5  1  0
  5  6  1  0
  6  7  1  6
  6  8  1  0
  6 11  1  0
  8  9  1  0
  9 10  1  0
 10 11  1  0
M  END
