
     RDKit          3D

 20 20  0  0  0  0  0  0  0  0999 V2000
   -4.9980    0.9320    2.1980 C   0  0  0  0  0  0  0  0  0  0  0  0
   -3.9160    0.0660    1.5880 C   0  0  0  0  0  0  0  0  0  0  0  0
   -3.1800    0.7970    0.6960 O   0  0  0  0  0  0  0  0  0  0  0  0
   -1.9200   -0.0550   -0.0700 P   0  0  0  0  0  0  0  0  0  0  0  0
   -1.0830    0.9890   -1.1980 O   0  0  0  0  0  0  0  0  0  0  0  0
    0.1970    0.5510   -1.6700 C   0  0  0  0  0  0  0  0  0  0  0  0
    0.2260    0.1920   -2.9010 C   0  0  0  0  0  0  0  0  0  0  0  0
    1.3550   -0.2890   -3.6480 C   0  0  0  0  0  0  0  0  0  0  0  0
    2.5240   -0.4510   -3.2500 O   0  0  0  0  0  0  0  0  0  0  0  0
    1.2010   -0.6370   -4.9940 F   0  0  0  0  0  0  0  0  0  0  0  0
    1.3120    0.5640   -0.7030 C   0  0  0  0  0  0  0  0  0  0  0  0
    1.1790    0.9590    0.5700 C   0  0  0  0  0  0  0  0  0  0  0  0
    2.3850    0.8650    1.2360 O   0  0  0  0  0  0  0  0  0  0  0  0
    3.3580    0.7070    0.1930 C   0  0  1  0  0  0  0  0  0  0  0  0
    4.4090   -0.2290    0.7170 C   0  0  0  0  0  0  0  0  0  0  0  0
    5.0180    0.4000    1.9540 C   0  0  0  0  0  0  0  0  0  0  0  0
    2.6320    0.1990   -0.8860 O   0  0  0  0  0  0  0  0  0  0  0  0
   -2.5900   -1.8420   -1.1370 P   0  0  0  0  0  0  0  0  0  0  0  0
   -4.1410   -1.6250   -1.8630 O   0  0  0  0  0  0  0  0  0  0  0  0
   -2.5260   -3.2570   -0.1450 O   0  0  0  0  0  0  0  0  0  0  0  0
  1  2  1  0
  2  3  1  0
  3  4  1  0
  4  5  1  0
  4 18  1  0
  5  6  1  0
  6  7  2  3
  6 11  1  0
  7  8  1  0
  8  9  2  0
  8 10  1  0
 11 12  2  0
 11 17  1  0
 12 13  1  0
 13 14  1  0
 14 15  1  1
 14 17  1  0
 15 16  1  0
 18 19  1  0
 18 20  1  0
M  END
