
     RDKit          3D

 20 20  0  0  0  0  0  0  0  0999 V2000
   -4.5240    2.5230   -0.3880 C   0  0  0  0  0  0  0  0  0  0  0  0
   -3.9050    1.2770    0.1960 C   0  0  0  0  0  0  0  0  0  0  0  0
   -2.5410    1.4070    0.3760 O   0  0  0  0  0  0  0  0  0  0  0  0
   -1.8730   -0.0260    1.0390 P   0  0  0  0  0  0  0  0  0  0  0  0
   -0.4150   -0.6130    0.0850 C   0  0  0  0  0  0  0  0  0  0  0  0
    0.3230    0.5000   -0.6100 C   0  0  1  0  0  0  0  0  0  0  0  0
   -0.4670    1.1660   -1.4970 F   0  0  0  0  0  0  0  0  0  0  0  0
    0.8210    1.4860    0.4400 C   0  0  0  0  0  0  0  0  0  0  0  0
    1.5510    2.4420   -0.2350 O   0  0  0  0  0  0  0  0  0  0  0  0
    2.3810    1.4490   -1.4260 P   0  0  0  0  0  0  0  0  0  0  0  0
    4.0340    1.2560   -1.0670 O   0  0  0  0  0  0  0  0  0  0  0  0
    4.3140    0.2860   -0.1340 C   0  0  2  0  0  0  0  0  0  0  0  0
    5.0900    0.9690    0.9980 C   0  0  0  0  0  0  0  0  0  0  0  0
    5.2650   -0.7260   -0.7160 C   0  0  0  0  0  0  0  0  0  0  0  0
    5.6630   -0.5780   -1.9000 O   0  0  0  0  0  0  0  0  0  0  0  0
    5.7150   -1.8050   -0.0060 O   0  0  0  0  0  0  0  0  0  0  0  0
    1.4700   -0.0370   -1.1980 O   0  0  0  0  0  0  0  0  0  0  0  0
   -3.1040   -1.2470    1.0950 O   0  0  0  0  0  0  0  0  0  0  0  0
   -2.8040   -2.2120    0.1610 C   0  0  0  0  0  0  0  0  0  0  0  0
   -3.8230   -3.3270    0.1320 C   0  0  0  0  0  0  0  0  0  0  0  0
  1  2  1  0
  2  3  1  0
  3  4  1  0
  4  5  1  0
  4 18  1  0
  5  6  1  0
  6  7  1  6
  6  8  1  0
  6 17  1  0
  8  9  1  0
  9 10  1  0
 10 11  1  0
 10 17  1  0
 11 12  1  0
 12 13  1  1
 12 14  1  0
 14 15  2  0
 14 16  1  0
 18 19  1  0
 19 20  1  0
M  END
