
     RDKit          3D

 20 20  0  0  0  0  0  0  0  0999 V2000
   -5.6210   -0.5250   -1.6580 C   0  0  0  0  0  0  0  0  0  0  0  0
   -4.8100   -0.5700   -0.3650 C   0  0  0  0  0  0  0  0  0  0  0  0
   -3.4930   -0.3420   -0.7040 O   0  0  0  0  0  0  0  0  0  0  0  0
   -2.5010   -0.3800    0.7430 P   0  0  0  0  0  0  0  0  0  0  0  0
   -1.8390   -2.1010    0.9070 C   0  0  0  0  0  0  0  0  0  0  0  0
   -1.2400    0.7780    0.5270 O   0  0  0  0  0  0  0  0  0  0  0  0
   -0.0010    0.1430    0.5960 C   0  0  0  0  0  0  0  0  0  0  0  0
    1.0710    1.1910    0.4030 C   0  0  1  0  0  0  0  0  0  0  0  0
    0.9830    2.1330    1.5930 C   0  0  0  0  0  0  0  0  0  0  0  0
    2.3040    0.5730    0.4690 O   0  0  0  0  0  0  0  0  0  0  0  0
    2.5010   -0.6480   -0.7500 P   0  0  0  0  0  0  0  0  0  0  0  0
    4.2310   -0.7980   -0.9890 O   0  0  0  0  0  0  0  0  0  0  0  0
    4.5150   -1.5500    0.1550 C   0  0  0  0  0  0  0  0  0  0  0  0
    3.5480   -2.7060    0.1580 C   0  0  0  0  0  0  0  0  0  0  0  0
    2.2690   -2.1780    0.0750 O   0  0  0  0  0  0  0  0  0  0  0  0
    0.8510    1.9450   -0.8870 C   0  0  1  0  0  0  0  0  0  0  0  0
   -0.3960    2.5480   -0.7960 F   0  0  0  0  0  0  0  0  0  0  0  0
    1.8480    3.0200   -1.0340 C   0  0  0  0  0  0  0  0  0  0  0  0
    2.6220    3.0110   -2.0250 O   0  0  0  0  0  0  0  0  0  0  0  0
    1.9380    4.0350   -0.0940 O   0  0  0  0  0  0  0  0  0  0  0  0
  1  2  1  0
  2  3  1  0
  3  4  1  0
  4  5  1  0
  4  6  1  0
  6  7  1  0
  7  8  1  0
  8  9  1  1
  8 10  1  0
  8 16  1  0
 10 11  1  0
 11 12  1  0
 11 15  1  0
 12 13  1  0
 13 14  1  0
 14 15  1  0
 16 17  1  1
 16 18  1  0
 18 19  2  0
 18 20  1  0
M  END
