
     RDKit          3D

 22 23  0  0  0  0  0  0  0  0999 V2000
   -3.4170    3.0180   -2.7980 O   0  0  0  0  0  0  0  0  0  0  0  0
   -3.0030    2.0990   -1.9540 O   0  0  0  0  0  0  0  0  0  0  0  0
   -1.9470    2.6030   -1.1950 C   0  0  0  0  0  0  0  0  0  0  0  0
   -1.4440    1.5720   -0.2100 C   0  0  0  0  0  0  0  0  0  0  0  0
   -0.9670    0.3750   -0.8950 N   0  0  0  0  0  0  0  0  0  0  0  0
   -0.5080   -0.5670    0.1350 C   0  0  2  0  0  0  0  0  0  0  0  0
    0.3890    0.2160    0.9710 N   0  0  0  0  0  0  0  0  0  0  0  0
    1.2130   -0.4350    1.7380 C   0  0  0  0  0  0  0  0  0  0  0  0
    2.0550    0.3020    2.5240 O   0  0  0  0  0  0  0  0  0  0  0  0
    2.6340    1.5300    2.1250 C   0  0  0  0  0  0  0  0  0  0  0  0
    3.4750    1.2610    0.8990 C   0  0  1  0  0  0  0  0  0  0  0  0
    4.4480    0.3160    1.3020 O   0  0  0  0  0  0  0  0  0  0  0  0
    2.7540    0.6900   -0.1410 O   0  0  0  0  0  0  0  0  0  0  0  0
    2.8980    1.4500   -1.2220 O   0  0  0  0  0  0  0  0  0  0  0  0
    1.1360   -1.9140    1.6640 C   0  0  0  0  0  0  0  0  0  0  0  0
    1.1670   -2.3110    0.3570 O   0  0  0  0  0  0  0  0  0  0  0  0
    0.3140   -1.6360   -0.5010 C   0  0  1  0  0  0  0  0  0  0  0  0
   -0.4280   -2.6570   -1.2880 C   0  0  0  0  0  0  0  0  0  0  0  0
   -1.6980   -2.3240   -1.6740 O   0  0  0  0  0  0  0  0  0  0  0  0
   -2.5400   -2.6250   -0.5770 C   0  0  0  0  0  0  0  0  0  0  0  0
   -2.7220   -1.2830    0.1310 C   0  0  0  0  0  0  0  0  0  0  0  0
   -1.5780   -1.0580    0.8690 O   0  0  0  0  0  0  0  0  0  0  0  0
  1  2  1  0
  2  3  1  0
  3  4  1  0
  4  5  1  0
  6  5  1  6
  6  7  1  0
  6 17  1  0
  6 22  1  0
  7  8  2  0
  8  9  1  0
  8 15  1  0
  9 10  1  0
 10 11  1  0
 11 12  1  1
 11 13  1  0
 13 14  1  0
 15 16  1  0
 16 17  1  0
 17 18  1  1
 18 19  1  0
 19 20  1  0
 20 21  1  0
 21 22  1  0
M  END
