
     RDKit          3D

 27 27  0  0  0  0  0  0  0  0999 V2000
   -7.0720   -0.6590    1.3010 C   0  0  0  0  0  0  0  0  0  0  0  0
   -6.5460   -0.3840   -0.0930 C   0  0  0  0  0  0  0  0  0  0  0  0
   -6.4110   -1.6080   -0.8990 C   0  0  0  0  0  0  0  0  0  0  0  0
   -5.2340   -1.9520   -1.3620 C   0  0  0  0  0  0  0  0  0  0  0  0
   -4.0230   -1.1930   -1.1310 C   0  0  0  0  0  0  0  0  0  0  0  0
   -3.5330   -0.3170   -1.9810 C   0  0  0  0  0  0  0  0  0  0  0  0
   -2.6490    0.5000   -1.4060 C   0  0  0  0  0  0  0  0  0  0  0  0
   -2.3440    1.8690   -1.8760 C   0  0  0  0  0  0  0  0  0  0  0  0
   -2.0930   -0.1800   -0.2970 N   0  0  0  0  0  0  0  0  0  0  0  0
   -0.8560    0.0860    0.3200 C   0  0  0  0  0  0  0  0  0  0  0  0
   -0.5640   -0.6500    1.3160 O   0  0  0  0  0  0  0  0  0  0  0  0
    0.0880    1.1170   -0.0890 C   0  0  0  0  0  0  0  0  0  0  0  0
    1.3850    1.1450    0.6650 C   0  0  0  0  0  0  0  0  0  0  0  0
    2.2100   -0.0900    0.5410 C   0  0  0  0  0  0  0  0  0  0  0  0
    3.4480   -0.0200    1.2770 N   0  0  0  0  0  0  0  0  0  0  0  0
    4.5190    0.8350    0.9450 C   0  0  0  0  0  0  0  0  0  0  0  0
    4.4190    2.2310    1.0320 O   0  0  0  0  0  0  0  0  0  0  0  0
    5.6760    0.3500    0.5330 C   0  0  0  0  0  0  0  0  0  0  0  0
    5.8310   -1.0860    0.4260 C   0  0  0  0  0  0  0  0  0  0  0  0
    7.1220   -1.6930   -0.0340 C   0  0  0  0  0  0  0  0  0  0  0  0
    4.9080   -1.9100    0.7060 O   0  0  0  0  0  0  0  0  0  0  0  0
    7.0910    1.4210    0.0910 P   0  0  0  0  0  0  0  0  0  0  0  0
    6.6410    3.1060    0.2410 O   0  0  0  0  0  0  0  0  0  0  0  0
    7.6080    1.1250   -1.5600 O   0  0  0  0  0  0  0  0  0  0  0  0
   -3.0870   -1.2000    0.0320 C   0  0  0  0  0  0  0  0  0  0  0  0
   -7.8690   -2.6280   -1.2440 P   0  0  0  0  0  0  0  0  0  0  0  0
   -7.9270   -3.6860   -2.3810 O   0  0  0  0  0  0  0  0  0  0  0  0
  1  2  1  0
  2  3  1  0
  3  4  2  3
  3 26  1  0
  4  5  1  0
  5  6  2  0
  5 25  1  0
  6  7  2  0
  7  8  1  0
  7  9  1  0
  9 10  1  0
  9 25  1  0
 10 11  2  0
 10 12  1  0
 12 13  1  0
 13 14  1  0
 14 15  1  0
 15 16  1  0
 16 17  1  0
 16 18  2  3
 18 19  1  0
 18 22  1  0
 19 20  1  0
 19 21  2  0
 22 23  1  0
 22 24  1  0
 26 27  2  0
M  END
