
     RDKit          3D

 27 27  0  0  0  0  0  0  0  0999 V2000
   -1.7320   -3.1150   -2.2240 C   0  0  0  0  0  0  0  0  0  0  0  0
   -2.1880   -1.9920   -1.7240 C   0  0  0  0  0  0  0  0  0  0  0  0
   -3.3010   -0.9690   -2.7580 P   0  0  0  0  0  0  0  0  0  0  0  0
   -3.1330    0.7560   -2.0930 C   0  0  0  0  0  0  0  0  0  0  0  0
   -3.1270    0.6420   -0.5830 C   0  0  0  0  0  0  0  0  0  0  0  0
   -1.9790   -0.0810   -0.0800 N   0  0  0  0  0  0  0  0  0  0  0  0
   -0.9400    0.5160    0.7390 C   0  0  1  0  0  0  0  0  0  0  0  0
    0.2320   -0.2670    0.8540 C   0  0  0  0  0  0  0  0  0  0  0  0
    1.2510   -0.7380    0.2270 C   0  0  0  0  0  0  0  0  0  0  0  0
    2.1910   -1.5980    1.1010 C   0  0  0  0  0  0  0  0  0  0  0  0
    3.8630   -0.9900    1.2990 P   0  0  0  0  0  0  0  0  0  0  0  0
    5.1310   -1.9900    0.7280 O   0  0  0  0  0  0  0  0  0  0  0  0
    4.1420   -0.5550    2.9680 O   0  0  0  0  0  0  0  0  0  0  0  0
    1.6500   -0.5930   -1.1570 C   0  0  1  0  0  0  0  0  0  0  0  0
    0.8210    0.1160   -2.1420 C   0  0  0  0  0  0  0  0  0  0  0  0
    3.0230    0.1180   -1.1860 C   0  0  0  0  0  0  0  0  0  0  0  0
    1.8890   -1.8870   -1.7440 O   0  0  0  0  0  0  0  0  0  0  0  0
   -0.6960    1.9180    0.2350 C   0  0  0  0  0  0  0  0  0  0  0  0
    0.4150    2.6310    0.9190 C   0  0  0  0  0  0  0  0  0  0  0  0
    0.6030    4.0700    0.4890 C   0  0  0  0  0  0  0  0  0  0  0  0
    1.1620    2.2260    1.7450 O   0  0  0  0  0  0  0  0  0  0  0  0
   -1.6750    0.7600    2.0300 C   0  0  0  0  0  0  0  0  0  0  0  0
   -2.9120    0.8980    1.9290 O   0  0  0  0  0  0  0  0  0  0  0  0
   -1.1200    0.8430    3.3080 N   0  0  0  0  0  0  0  0  0  0  0  0
   -1.9030    1.0770    4.4160 O   0  0  0  0  0  0  0  0  0  0  0  0
   -1.8660   -1.4940   -0.3820 C   0  0  0  0  0  0  0  0  0  0  0  0
   -1.4860   -2.3790    0.5110 C   0  0  0  0  0  0  0  0  0  0  0  0
  1  2  2  0
  2  3  1  0
  2 26  1  0
  3  4  1  0
  4  5  1  0
  5  6  1  0
  6  7  1  0
  6 26  1  0
  7  8  1  0
  7 18  1  6
  7 22  1  0
  8  9  2  3
  9 10  1  0
  9 14  1  0
 10 11  1  0
 11 12  1  0
 11 13  1  0
 14 15  1  6
 14 16  1  0
 14 17  1  0
 18 19  1  0
 19 20  1  0
 19 21  2  0
 22 23  2  0
 22 24  1  0
 24 25  1  0
 26 27  2  0
M  END
