
     RDKit          3D

 21 21  0  0  0  0  0  0  0  0999 V2000
   -3.8000   -2.9660   -1.1110 C   0  0  0  0  0  0  0  0  0  0  0  0
   -2.4340   -3.4170   -0.6510 C   0  0  0  0  0  0  0  0  0  0  0  0
   -1.5440   -2.0290    0.1480 S   0  0  0  0  0  0  0  0  0  0  0  0
   -1.2270   -0.8040   -1.1380 C   0  0  0  0  0  0  0  0  0  0  0  0
   -0.4950    0.4100   -0.6160 C   0  0  2  0  0  0  0  0  0  0  0  0
    0.7710   -0.0080   -0.0690 N   0  0  0  0  0  0  0  0  0  0  0  0
    2.0190    0.4650   -0.5840 C   0  0  0  0  0  0  0  0  0  0  0  0
    1.9280    1.2750   -1.5510 O   0  0  0  0  0  0  0  0  0  0  0  0
    3.3110    0.0620   -0.0560 C   0  0  0  0  0  0  0  0  0  0  0  0
    4.3970    0.5670   -0.6150 C   0  0  0  0  0  0  0  0  0  0  0  0
    5.7700    0.2140   -0.1420 C   0  0  0  0  0  0  0  0  0  0  0  0
    5.7770   -0.6850    0.9260 O   0  0  0  0  0  0  0  0  0  0  0  0
    4.6530   -1.2230    1.5240 C   0  0  0  0  0  0  0  0  0  0  0  0
    3.4560   -0.8550    1.0400 C   0  0  0  0  0  0  0  0  0  0  0  0
   -1.3360    1.1270    0.3650 C   0  0  0  0  0  0  0  0  0  0  0  0
   -1.0110    1.3590    1.5370 O   0  0  0  0  0  0  0  0  0  0  0  0
   -2.5770    1.5690   -0.0720 O   0  0  0  0  0  0  0  0  0  0  0  0
   -3.5020    2.2620    0.7110 C   0  0  0  0  0  0  0  0  0  0  0  0
   -2.8650    3.5400    1.1710 C   0  0  0  0  0  0  0  0  0  0  0  0
   -1.6900    3.8240    0.8450 O   0  0  0  0  0  0  0  0  0  0  0  0
   -3.5390    4.4630    1.9740 O   0  0  0  0  0  0  0  0  0  0  0  0
  1  2  1  0
  2  3  1  0
  3  4  1  0
  5  4  1  1
  5  6  1  0
  5 15  1  0
  6  7  1  0
  7  8  2  0
  7  9  1  0
  9 10  2  0
  9 14  1  0
 10 11  1  0
 11 12  1  0
 12 13  1  0
 13 14  2  0
 15 16  2  0
 15 17  1  0
 17 18  1  0
 18 19  1  0
 19 20  2  0
 19 21  1  0
M  END
