
     RDKit          3D

 27 27  0  0  0  0  0  0  0  0999 V2000
   -1.5100    0.6290   -3.2400 C   0  0  0  0  0  0  0  0  0  0  0  0
   -0.1640    0.9740   -2.6570 C   0  0  0  0  0  0  0  0  0  0  0  0
    0.2940   -0.0380   -1.2380 P   0  0  0  0  0  0  0  0  0  0  0  0
    1.8770    0.3760   -0.4410 C   0  0  0  0  0  0  0  0  0  0  0  0
    2.2330   -0.3220    0.6050 C   0  0  0  0  0  0  0  0  0  0  0  0
    3.4330   -0.2160    1.4350 C   0  0  2  0  0  0  0  0  0  0  0  0
    3.5980   -1.4540    2.3330 C   0  0  0  0  0  0  0  0  0  0  0  0
    3.3100    0.9480    2.3860 C   0  0  0  0  0  0  0  0  0  0  0  0
    4.6300   -0.1030    0.7500 O   0  0  0  0  0  0  0  0  0  0  0  0
    2.6610    1.4900   -1.0520 C   0  0  2  0  0  0  0  0  0  0  0  0
    3.0690    1.1740   -2.4050 N   0  0  0  0  0  0  0  0  0  0  0  0
    3.6580    2.0040   -0.2690 O   0  0  0  0  0  0  0  0  0  0  0  0
    1.7140    2.5460   -1.1810 O   0  0  0  0  0  0  0  0  0  0  0  0
   -0.9970   -0.6510   -0.1760 C   0  0  0  0  0  0  0  0  0  0  0  0
   -1.3840   -1.9300   -0.4260 C   0  0  0  0  0  0  0  0  0  0  0  0
   -0.6630   -2.5700   -1.5260 C   0  0  0  0  0  0  0  0  0  0  0  0
   -0.9510   -3.8110   -1.8500 C   0  0  0  0  0  0  0  0  0  0  0  0
   -0.2670   -4.4360   -2.9040 O   0  0  0  0  0  0  0  0  0  0  0  0
   -2.4440   -2.6950    0.2790 C   0  0  0  0  0  0  0  0  0  0  0  0
   -3.4150   -1.7540    0.6520 O   0  0  0  0  0  0  0  0  0  0  0  0
   -3.2820   -1.2340    1.8980 C   0  0  0  0  0  0  0  0  0  0  0  0
   -2.1360   -0.2840    2.0790 C   0  0  0  0  0  0  0  0  0  0  0  0
   -1.5410    0.1780    0.8510 N   0  0  0  0  0  0  0  0  0  0  0  0
   -1.4430    1.5850    0.5420 C   0  0  0  0  0  0  0  0  0  0  0  0
   -2.7430    2.2600    0.2560 C   0  0  1  0  0  0  0  0  0  0  0  0
   -3.4160    1.6850   -0.8320 O   0  0  0  0  0  0  0  0  0  0  0  0
   -3.8620    2.4610    1.6940 P   0  0  0  0  0  0  0  0  0  0  0  0
  1  2  1  0
  2  3  1  0
  3  4  1  0
  3 14  1  0
  4  5  2  3
  4 10  1  0
  5  6  1  0
  6  7  1  1
  6  8  1  0
  6  9  1  0
 10 11  1  6
 10 12  1  0
 10 13  1  0
 14 15  2  0
 14 23  1  0
 15 16  1  0
 15 19  1  0
 16 17  2  3
 17 18  1  0
 19 20  1  0
 20 21  1  0
 21 22  1  0
 22 23  1  0
 23 24  1  0
 24 25  1  0
 25 26  1  6
 25 27  1  0
M  END
