
     RDKit          3D

 27 27  0  0  0  0  0  0  0  0999 V2000
   -2.1370   -3.6340   -0.5280 C   0  0  0  0  0  0  0  0  0  0  0  0
   -1.5990   -2.3100   -0.1710 C   0  0  0  0  0  0  0  0  0  0  0  0
   -1.3250   -1.3800   -1.0630 C   0  0  0  0  0  0  0  0  0  0  0  0
   -1.5570   -1.6700   -2.3980 O   0  0  0  0  0  0  0  0  0  0  0  0
   -0.5510   -2.1250   -3.2780 C   0  0  0  0  0  0  0  0  0  0  0  0
   -0.8200   -0.1520   -0.6680 O   0  0  0  0  0  0  0  0  0  0  0  0
   -0.8500    0.2060    0.6830 C   0  0  0  0  0  0  0  0  0  0  0  0
   -2.0080    0.8460    1.1630 C   0  0  0  0  0  0  0  0  0  0  0  0
   -3.3650    1.1520   -0.0240 P   0  0  0  0  0  0  0  0  0  0  0  0
   -4.7150    1.7680    0.9060 O   0  0  0  0  0  0  0  0  0  0  0  0
   -2.9260    2.3090   -1.2300 O   0  0  0  0  0  0  0  0  0  0  0  0
   -4.0990    3.0370   -1.5330 C   0  0  0  0  0  0  0  0  0  0  0  0
   -3.8230    4.0830   -2.5840 C   0  0  0  0  0  0  0  0  0  0  0  0
   -2.0530    1.1910    2.4390 N   0  0  0  0  0  0  0  0  0  0  0  0
   -1.0770    0.9780    3.3230 C   0  0  0  0  0  0  0  0  0  0  0  0
   -1.1660    1.3830    4.7610 C   0  0  0  0  0  0  0  0  0  0  0  0
   -0.6490    2.7680    4.9910 C   0  0  0  0  0  0  0  0  0  0  0  0
    0.0580    0.3590    2.8830 C   0  0  0  0  0  0  0  0  0  0  0  0
    0.1920   -0.0440    1.5290 C   0  0  0  0  0  0  0  0  0  0  0  0
    1.2640   -0.5910    1.1570 N   0  0  0  0  0  0  0  0  0  0  0  0
    1.7010   -1.0690   -0.0930 C   0  0  0  0  0  0  0  0  0  0  0  0
    3.2490   -1.2030   -0.0980 C   0  0  0  0  0  0  0  0  0  0  0  0
    3.5890   -1.7210   -1.4840 C   0  0  0  0  0  0  0  0  0  0  0  0
    5.0820   -1.9050   -1.6450 C   0  0  0  0  0  0  0  0  0  0  0  0
    5.9960   -0.3230   -1.4060 P   0  0  0  0  0  0  0  0  0  0  0  0
    7.2430   -0.5570   -0.2230 O   0  0  0  0  0  0  0  0  0  0  0  0
    6.7320    0.2330   -2.8740 O   0  0  0  0  0  0  0  0  0  0  0  0
  1  2  1  0
  2  3  2  3
  3  4  1  0
  3  6  1  0
  4  5  1  0
  6  7  1  0
  7  8  2  0
  7 19  1  0
  8  9  1  0
  8 14  1  0
  9 10  1  0
  9 11  1  0
 11 12  1  0
 12 13  1  0
 14 15  1  0
 15 16  1  0
 15 18  2  0
 16 17  1  0
 18 19  1  0
 19 20  2  3
 20 21  1  0
 21 22  1  0
 22 23  1  0
 23 24  1  0
 24 25  1  0
 25 26  1  0
 25 27  1  0
M  END
