
     RDKit          3D

 40 42  0  0  0  0  0  0  0  0999 V2000
    2.2370   -6.7510    0.4340 C   0  0  0  0  0  0  0  0  0  0  0  0
    0.9800   -6.2950    0.7790 O   0  0  0  0  0  0  0  0  0  0  0  0
    1.0050   -5.2030    1.6110 C   0  0  0  0  0  0  0  0  0  0  0  0
    1.6820   -3.9860    1.0900 C   0  0  0  0  0  0  0  0  0  0  0  0
    1.1690   -3.3920   -0.0640 O   0  0  0  0  0  0  0  0  0  0  0  0
   -0.0970   -2.8450   -0.0720 C   0  0  0  0  0  0  0  0  0  0  0  0
   -1.1820   -3.5680   -0.4020 C   0  0  0  0  0  0  0  0  0  0  0  0
   -1.0780   -4.8980   -0.7590 O   0  0  0  0  0  0  0  0  0  0  0  0
   -2.2520   -5.6030   -1.0980 C   0  0  0  0  0  0  0  0  0  0  0  0
   -2.4380   -2.9520   -0.3820 C   0  0  0  0  0  0  0  0  0  0  0  0
   -2.5810   -1.6360   -0.0350 C   0  0  0  0  0  0  0  0  0  0  0  0
   -1.4610   -0.8690    0.3120 C   0  0  0  0  0  0  0  0  0  0  0  0
   -1.6990    0.4250    0.8410 N   0  0  0  0  0  0  0  0  0  0  0  0
   -2.8750    1.1630    0.5660 C   0  0  0  0  0  0  0  0  0  0  0  0
   -3.4310    1.0020   -0.5820 N   0  0  0  0  0  0  0  0  0  0  0  0
   -4.6090    1.6840   -0.9720 C   0  0  0  0  0  0  0  0  0  0  0  0
   -4.7460    2.7910   -1.6640 C   0  0  0  0  0  0  0  0  0  0  0  0
   -3.5170    3.5400   -2.1760 C   0  0  2  0  0  0  0  0  0  0  0  0
   -2.3600    2.9380   -1.8040 F   0  0  0  0  0  0  0  0  0  0  0  0
   -3.6010    4.8630   -1.7810 F   0  0  0  0  0  0  0  0  0  0  0  0
   -3.6640    3.5370   -3.5580 F   0  0  0  0  0  0  0  0  0  0  0  0
   -6.1190    3.2330   -1.9260 C   0  0  0  0  0  0  0  0  0  0  0  0
   -7.0370    2.8020   -0.8060 C   0  0  0  0  0  0  0  0  0  0  0  0
   -6.2580    1.1420   -0.5350 S   0  0  0  0  0  0  0  0  0  0  0  0
   -3.4130    2.1020    1.6060 C   0  0  2  0  0  0  0  0  0  0  0  0
   -4.5330    2.7440    1.1880 F   0  0  0  0  0  0  0  0  0  0  0  0
   -2.4720    3.0340    1.9710 F   0  0  0  0  0  0  0  0  0  0  0  0
   -3.7300    1.3660    2.7240 F   0  0  0  0  0  0  0  0  0  0  0  0
   -0.2280   -1.4640    0.2890 C   0  0  0  0  0  0  0  0  0  0  0  0
    1.0020   -0.7520    0.5540 C   0  0  0  0  0  0  0  0  0  0  0  0
    1.2200    0.5340    0.5910 C   0  0  0  0  0  0  0  0  0  0  0  0
    2.5950    1.0070    0.8990 C   0  0  0  0  0  0  0  0  0  0  0  0
    3.4650    0.1390    1.1040 O   0  0  0  0  0  0  0  0  0  0  0  0
    2.9100    2.3830    0.9580 N   0  0  0  0  0  0  0  0  0  0  0  0
    4.2540    2.8320    1.2580 C   0  0  0  0  0  0  0  0  0  0  0  0
    5.2660    2.3330    0.2460 C   0  0  1  0  0  0  0  0  0  0  0  0
    5.0300    2.9690   -1.0870 C   0  0  0  0  0  0  0  0  0  0  0  0
    5.7020    4.3180   -0.9460 C   0  0  0  0  0  0  0  0  0  0  0  0
    6.5450    4.1570    0.3030 C   0  0  0  0  0  0  0  0  0  0  0  0
    6.5120    2.8180    0.6250 O   0  0  0  0  0  0  0  0  0  0  0  0
  1  2  1  0
  2  3  1  0
  3  4  1  0
  4  5  1  0
  5  6  1  0
  6  7  2  0
  6 29  1  0
  7  8  1  0
  7 10  1  0
  8  9  1  0
 10 11  2  0
 11 12  1  0
 12 13  1  0
 12 29  2  0
 13 14  1  0
 14 15  2  3
 14 25  1  0
 15 16  1  0
 16 17  2  0
 16 24  1  0
 17 18  1  0
 17 22  1  0
 18 19  1  6
 18 20  1  0
 18 21  1  0
 22 23  1  0
 23 24  1  0
 25 26  1  6
 25 27  1  0
 25 28  1  0
 29 30  1  0
 30 31  2  3
 31 32  1  0
 32 33  2  0
 32 34  1  0
 34 35  1  0
 36 35  1  1
 36 37  1  0
 36 40  1  0
 37 38  1  0
 38 39  1  0
 39 40  1  0
M  END
