
     RDKit          3D

 40 42  0  0  0  0  0  0  0  0999 V2000
   -4.9290    3.9670   -1.8540 C   0  0  0  0  0  0  0  0  0  0  0  0
   -3.8950    2.9700   -1.3090 C   0  0  0  0  0  0  0  0  0  0  0  0
   -4.4270    2.5130    0.0160 C   0  0  0  0  0  0  0  0  0  0  0  0
   -3.5160    1.4950    0.7080 C   0  0  2  0  0  0  0  0  0  0  0  0
   -2.1900    2.0450    0.9680 C   0  0  0  0  0  0  0  0  0  0  0  0
   -1.0390    1.5000    0.2500 N   0  0  0  0  0  0  0  0  0  0  0  0
    0.0530    2.3540   -0.0880 C   0  0  0  0  0  0  0  0  0  0  0  0
   -0.2540    3.3190   -0.8580 O   0  0  0  0  0  0  0  0  0  0  0  0
    1.4760    2.2890    0.3200 C   0  0  1  0  0  0  0  0  0  0  0  0
    2.4090    2.5370   -0.8120 C   0  0  0  0  0  0  0  0  0  0  0  0
    1.6510    3.4810    1.2830 C   0  0  0  0  0  0  0  0  0  0  0  0
    1.3680    4.8070    0.7090 C   0  0  0  0  0  0  0  0  0  0  0  0
    1.7720    1.1360    1.1480 N   0  0  0  0  0  0  0  0  0  0  0  0
    2.9380    0.4600    1.3880 C   0  0  0  0  0  0  0  0  0  0  0  0
    3.3420    0.3430    2.6060 O   0  0  0  0  0  0  0  0  0  0  0  0
    3.8710   -0.2030    0.4100 C   0  0  1  0  0  0  0  0  0  0  0  0
    5.2220    0.3110    0.6820 C   0  0  1  0  0  0  0  0  0  0  0  0
    5.8450    0.0930    2.0150 C   0  0  0  0  0  0  0  0  0  0  0  0
    6.2410    0.1880   -0.4150 C   0  0  0  0  0  0  0  0  0  0  0  0
    3.5540   -1.6330    0.2180 C   0  0  1  0  0  0  0  0  0  0  0  0
    3.3990   -2.0070   -1.2500 C   0  0  0  0  0  0  0  0  0  0  0  0
    4.1860   -3.1570   -1.7180 C   0  0  0  0  0  0  0  0  0  0  0  0
    5.5630   -3.3400   -1.2350 C   0  0  0  0  0  0  0  0  0  0  0  0
    5.6300   -3.1310    0.2370 C   0  0  0  0  0  0  0  0  0  0  0  0
    4.3360   -2.7060    0.8400 C   0  0  0  0  0  0  0  0  0  0  0  0
    2.2290   -1.7650    0.7750 O   0  0  0  0  0  0  0  0  0  0  0  0
    1.0820   -2.2760    0.3890 C   0  0  0  0  0  0  0  0  0  0  0  0
    0.6260   -3.3180    1.0140 O   0  0  0  0  0  0  0  0  0  0  0  0
    0.1940   -1.8650   -0.6570 N   0  0  0  0  0  0  0  0  0  0  0  0
   -0.1320   -0.4880   -0.9700 C   0  0  0  0  0  0  0  0  0  0  0  0
   -1.1430    0.0940   -0.0370 C   0  0  2  0  0  0  0  0  0  0  0  0
   -2.4790   -0.3650   -0.5660 C   0  0  0  0  0  0  0  0  0  0  0  0
   -3.5950    0.2120    0.0890 N   0  0  0  0  0  0  0  0  0  0  0  0
   -4.8100   -0.5070    0.1330 C   0  0  0  0  0  0  0  0  0  0  0  0
   -5.8090   -0.0150    0.7090 O   0  0  0  0  0  0  0  0  0  0  0  0
   -4.9570   -1.7610   -0.4450 O   0  0  0  0  0  0  0  0  0  0  0  0
   -6.1870   -2.4750   -0.3940 C   0  0  2  0  0  0  0  0  0  0  0  0
   -5.9620   -3.7930   -1.1250 C   0  0  0  0  0  0  0  0  0  0  0  0
   -7.2220   -1.7160   -1.2330 C   0  0  0  0  0  0  0  0  0  0  0  0
   -6.6470   -2.6780    1.0120 C   0  0  0  0  0  0  0  0  0  0  0  0
  1  2  1  0
  2  3  1  0
  4  3  1  6
  4  5  1  0
  4 33  1  0
  5  6  1  0
  6  7  1  0
  6 31  1  0
  7  8  2  0
  7  9  1  0
  9 10  1  6
  9 11  1  0
  9 13  1  0
 11 12  1  0
 13 14  1  0
 14 15  2  0
 16 14  1  1
 16 17  1  0
 16 20  1  0
 17 18  1  1
 17 19  1  0
 20 21  1  6
 20 25  1  0
 20 26  1  0
 21 22  1  0
 22 23  1  0
 23 24  1  0
 24 25  1  0
 26 27  1  0
 27 28  2  0
 27 29  1  0
 29 30  1  0
 31 30  1  6
 31 32  1  0
 32 33  1  0
 33 34  1  0
 34 35  2  0
 34 36  1  0
 36 37  1  0
 37 38  1  6
 37 39  1  0
 37 40  1  0
M  END
