
     RDKit          3D

 40 42  0  0  0  0  0  0  0  0999 V2000
   -5.7920   -0.0870    1.5980 C   0  0  0  0  0  0  0  0  0  0  0  0
   -5.2280    0.2190    0.3120 N   0  0  0  0  0  0  0  0  0  0  0  0
   -5.6960   -0.4400   -0.8590 C   0  0  0  0  0  0  0  0  0  0  0  0
   -4.9640   -1.7080   -1.2190 C   0  0  2  0  0  0  0  0  0  0  0  0
   -5.5880   -2.1860   -2.3970 O   0  0  0  0  0  0  0  0  0  0  0  0
   -5.1950   -2.8040   -0.1830 C   0  0  0  0  0  0  0  0  0  0  0  0
   -4.4340   -4.0440   -0.6130 C   0  0  2  0  0  0  0  0  0  0  0  0
   -4.6640   -5.0150    0.3440 F   0  0  0  0  0  0  0  0  0  0  0  0
   -3.1090   -3.7730   -0.7730 F   0  0  0  0  0  0  0  0  0  0  0  0
   -4.2010    1.1960    0.2140 C   0  0  0  0  0  0  0  0  0  0  0  0
   -3.8300    1.7700    1.2620 O   0  0  0  0  0  0  0  0  0  0  0  0
   -3.5660    1.5510   -1.0660 C   0  0  0  0  0  0  0  0  0  0  0  0
   -2.5930    2.6310   -0.8470 N   0  0  0  0  0  0  0  0  0  0  0  0
   -2.9760    3.9730   -1.1640 C   0  0  0  0  0  0  0  0  0  0  0  0
   -3.6270    4.7940   -0.1220 C   0  0  2  0  0  0  0  0  0  0  0  0
   -4.8350    4.2930    0.3130 F   0  0  0  0  0  0  0  0  0  0  0  0
   -3.7980    6.0760   -0.6670 F   0  0  0  0  0  0  0  0  0  0  0  0
   -2.8780    4.9760    1.0330 F   0  0  0  0  0  0  0  0  0  0  0  0
   -1.2950    2.3160   -0.3830 C   0  0  0  0  0  0  0  0  0  0  0  0
   -1.0440    1.0790   -0.1600 O   0  0  0  0  0  0  0  0  0  0  0  0
   -0.2050    3.2230   -0.1290 C   0  0  0  0  0  0  0  0  0  0  0  0
   -0.3000    4.5400   -0.3490 O   0  0  0  0  0  0  0  0  0  0  0  0
    0.8180    5.1450   -0.0410 C   0  0  0  0  0  0  0  0  0  0  0  0
    1.0860    6.4910   -0.1370 F   0  0  0  0  0  0  0  0  0  0  0  0
    1.6970    4.1840    0.4060 C   0  0  0  0  0  0  0  0  0  0  0  0
    1.0540    2.9680    0.3520 C   0  0  0  0  0  0  0  0  0  0  0  0
    1.5740    1.6470    0.7280 C   0  0  0  0  0  0  0  0  0  0  0  0
    0.9190    0.9010    1.4930 O   0  0  0  0  0  0  0  0  0  0  0  0
    2.8190    1.1820    0.2440 N   0  0  0  0  0  0  0  0  0  0  0  0
    3.4280   -0.0650    0.5240 C   0  0  0  0  0  0  0  0  0  0  0  0
    2.7560   -1.1510    0.9790 C   0  0  0  0  0  0  0  0  0  0  0  0
    3.4790   -2.3300    1.2550 C   0  0  0  0  0  0  0  0  0  0  0  0
    4.8200   -2.3710    1.0650 C   0  0  0  0  0  0  0  0  0  0  0  0
    5.5190   -1.2930    0.6080 C   0  0  0  0  0  0  0  0  0  0  0  0
    4.7920   -0.1480    0.3440 C   0  0  0  0  0  0  0  0  0  0  0  0
    6.9660   -1.4770    0.4730 C   0  0  0  0  0  0  0  0  0  0  0  0
    7.2980   -2.9190    0.2060 C   0  0  1  0  0  0  0  0  0  0  0  0
    7.0730   -3.3690   -1.1950 C   0  0  0  0  0  0  0  0  0  0  0  0
    8.6700   -3.2520    0.7510 C   0  0  0  0  0  0  0  0  0  0  0  0
    6.0030   -3.6810    1.2860 S   0  0  0  0  0  0  0  0  0  0  0  0
  1  2  1  0
  2  3  1  0
  2 10  1  0
  3  4  1  0
  4  5  1  6
  4  6  1  0
  6  7  1  0
  7  8  1  1
  7  9  1  0
 10 11  2  0
 10 12  1  0
 12 13  1  0
 13 14  1  0
 13 19  1  0
 14 15  1  0
 15 16  1  1
 15 17  1  0
 15 18  1  0
 19 20  2  0
 19 21  1  0
 21 22  1  0
 21 26  2  0
 22 23  1  0
 23 24  1  0
 23 25  2  0
 25 26  1  0
 26 27  1  0
 27 28  2  0
 27 29  1  0
 29 30  1  0
 30 31  2  0
 30 35  1  0
 31 32  1  0
 32 33  2  0
 33 34  1  0
 33 40  1  0
 34 35  2  0
 34 36  1  0
 36 37  1  0
 37 38  1  6
 37 39  1  0
 37 40  1  0
M  END
