
     RDKit          3D

 40 42  0  0  0  0  0  0  0  0999 V2000
   -5.8070    3.6190    2.5590 C   0  0  0  0  0  0  0  0  0  0  0  0
   -5.4030    2.4720    1.9990 C   0  0  0  0  0  0  0  0  0  0  0  0
   -6.0720    1.7700    1.1450 O   0  0  0  0  0  0  0  0  0  0  0  0
   -5.4020    0.6660    0.7630 C   0  0  0  0  0  0  0  0  0  0  0  0
   -6.0100   -0.2340   -0.1940 C   0  0  0  0  0  0  0  0  0  0  0  0
   -5.5090   -1.3000   -0.7060 C   0  0  0  0  0  0  0  0  0  0  0  0
   -6.3100   -2.0040   -1.6190 F   0  0  0  0  0  0  0  0  0  0  0  0
   -4.2110    0.6690    1.4320 C   0  0  0  0  0  0  0  0  0  0  0  0
   -3.1590   -0.3480    1.3390 C   0  0  0  0  0  0  0  0  0  0  0  0
   -2.3000   -0.2750    0.1600 C   0  0  0  0  0  0  0  0  0  0  0  0
   -2.5170    0.6040   -0.7420 O   0  0  0  0  0  0  0  0  0  0  0  0
   -1.2070   -1.1840    0.0090 N   0  0  0  0  0  0  0  0  0  0  0  0
   -0.3260   -1.1560   -1.1240 C   0  0  1  0  0  0  0  0  0  0  0  0
    0.9750   -0.4740   -0.6820 C   0  0  0  0  0  0  0  0  0  0  0  0
    1.4220   -0.7700    0.4540 O   0  0  0  0  0  0  0  0  0  0  0  0
    1.6620    0.4400   -1.4730 N   0  0  0  0  0  0  0  0  0  0  0  0
    2.9060    1.0530   -0.9980 C   0  0  0  0  0  0  0  0  0  0  0  0
    3.6430    1.9710   -1.7270 N   0  0  0  0  0  0  0  0  0  0  0  0
    4.7070    2.4300   -1.2090 C   0  0  0  0  0  0  0  0  0  0  0  0
    5.5880    3.4500   -1.9410 C   0  0  0  0  0  0  0  0  0  0  0  0
    5.1240    2.0340    0.0410 C   0  0  0  0  0  0  0  0  0  0  0  0
    6.2340    2.3650    0.8470 C   0  0  0  0  0  0  0  0  0  0  0  0
    7.0890    3.1840    0.4400 O   0  0  0  0  0  0  0  0  0  0  0  0
    6.4160    1.8050    2.1010 O   0  0  0  0  0  0  0  0  0  0  0  0
    7.5310    2.1400    2.9060 C   0  0  1  0  0  0  0  0  0  0  0  0
    7.1410    2.6030    4.1370 F   0  0  0  0  0  0  0  0  0  0  0  0
    8.3280    0.9960    3.0250 F   0  0  0  0  0  0  0  0  0  0  0  0
    3.7880    0.8880    0.4240 S   0  0  0  0  0  0  0  0  0  0  0  0
    0.0100   -2.4140   -1.7610 C   0  0  0  0  0  0  0  0  0  0  0  0
    1.1200   -2.4310   -2.6200 C   0  0  0  0  0  0  0  0  0  0  0  0
    1.5560   -3.5600   -3.2610 C   0  0  0  0  0  0  0  0  0  0  0  0
    2.6320   -3.5590   -4.0890 F   0  0  0  0  0  0  0  0  0  0  0  0
    0.9020   -4.7520   -3.0790 C   0  0  0  0  0  0  0  0  0  0  0  0
   -0.1720   -4.7740   -2.2580 C   0  0  0  0  0  0  0  0  0  0  0  0
   -0.6200   -3.6060   -1.5980 C   0  0  0  0  0  0  0  0  0  0  0  0
   -1.8010   -3.7170   -0.7390 C   0  0  0  0  0  0  0  0  0  0  0  0
   -4.2030    1.8230    2.2250 C   0  0  0  0  0  0  0  0  0  0  0  0
   -3.2260    2.1930    3.0090 C   0  0  0  0  0  0  0  0  0  0  0  0
   -3.3230    3.3350    3.7200 F   0  0  0  0  0  0  0  0  0  0  0  0
   -2.0980    1.4910    3.1360 F   0  0  0  0  0  0  0  0  0  0  0  0
  1  2  2  0
  2  3  1  0
  2 37  1  0
  3  4  1  0
  4  5  1  0
  4  8  2  0
  5  6  2  3
  6  7  1  0
  8  9  1  0
  8 37  1  0
  9 10  1  0
 10 11  2  0
 10 12  1  0
 13 12  1  1
 13 14  1  0
 13 29  1  0
 14 15  2  0
 14 16  1  0
 16 17  1  0
 17 18  2  0
 17 28  1  0
 18 19  1  0
 19 20  1  0
 19 21  2  0
 21 22  1  0
 21 28  1  0
 22 23  2  0
 22 24  1  0
 24 25  1  0
 25 26  1  1
 25 27  1  0
 29 30  2  0
 29 35  1  0
 30 31  1  0
 31 32  1  0
 31 33  2  0
 33 34  1  0
 34 35  2  0
 35 36  1  0
 37 38  2  3
 38 39  1  0
 38 40  1  0
M  END
