
     RDKit          3D

 40 41  0  0  0  0  0  0  0  0999 V2000
    6.1840    0.1480    2.0350 C   0  0  0  0  0  0  0  0  0  0  0  0
    4.7950   -0.1670    1.8770 O   0  0  0  0  0  0  0  0  0  0  0  0
    4.0080    0.8860    1.3300 C   0  0  0  0  0  0  0  0  0  0  0  0
    3.5310    0.7860    0.0550 C   0  0  0  0  0  0  0  0  0  0  0  0
    3.9670   -0.5050   -0.5440 C   0  0  0  0  0  0  0  0  0  0  0  0
    2.9150   -1.6210   -0.4030 C   0  0  1  0  0  0  0  0  0  0  0  0
    2.4100   -1.6610    1.0230 C   0  0  0  0  0  0  0  0  0  0  0  0
    1.7220   -1.3020   -1.2720 C   0  0  0  0  0  0  0  0  0  0  0  0
    0.8960   -2.5630   -1.4560 C   0  0  2  0  0  0  0  0  0  0  0  0
    1.7320   -3.6300   -1.6240 O   0  0  0  0  0  0  0  0  0  0  0  0
    1.7150   -4.6360   -0.7170 C   0  0  0  0  0  0  0  0  0  0  0  0
   -0.1030   -2.4060   -2.5800 C   0  0  2  0  0  0  0  0  0  0  0  0
    0.0360   -1.2660   -3.3040 O   0  0  0  0  0  0  0  0  0  0  0  0
   -1.5340   -2.5800   -2.0260 C   0  0  1  0  0  0  0  0  0  0  0  0
   -1.6130   -3.9870   -1.6460 C   0  0  0  0  0  0  0  0  0  0  0  0
   -1.8710   -1.5020   -1.0210 C   0  0  0  0  0  0  0  0  0  0  0  0
   -2.7330   -1.2000   -0.1070 C   0  0  0  0  0  0  0  0  0  0  0  0
   -3.9780   -1.9630    0.3870 C   0  0  0  0  0  0  0  0  0  0  0  0
   -2.7450    0.0330    0.8380 C   0  0  2  0  0  0  0  0  0  0  0  0
   -3.3420   -0.2940    2.0570 O   0  0  0  0  0  0  0  0  0  0  0  0
   -2.9060   -0.2390    3.3230 C   0  0  0  0  0  0  0  0  0  0  0  0
   -3.6340   -0.6120    4.4830 N   0  0  0  0  0  0  0  0  0  0  0  0
   -1.7540    0.1880    3.3870 O   0  0  0  0  0  0  0  0  0  0  0  0
   -3.3030    1.2450    0.1470 C   0  0  1  0  0  0  0  0  0  0  0  0
   -4.4150    0.9350   -0.6400 O   0  0  0  0  0  0  0  0  0  0  0  0
   -4.2520    1.2740   -1.9480 C   0  0  0  0  0  0  0  0  0  0  0  0
   -3.6190    2.3620    1.0910 C   0  0  0  0  0  0  0  0  0  0  0  0
   -2.8780    3.4190    1.3220 C   0  0  0  0  0  0  0  0  0  0  0  0
   -1.5730    3.8790    0.7930 C   0  0  0  0  0  0  0  0  0  0  0  0
   -0.9360    4.1140   -0.3190 C   0  0  0  0  0  0  0  0  0  0  0  0
   -1.4460    3.9550   -1.7740 C   0  0  0  0  0  0  0  0  0  0  0  0
    0.4840    4.6030   -0.4940 C   0  0  0  0  0  0  0  0  0  0  0  0
    0.6370    5.5710   -1.3800 O   0  0  0  0  0  0  0  0  0  0  0  0
    1.7350    4.2590    0.0850 N   0  0  0  0  0  0  0  0  0  0  0  0
    2.4470    3.0480    0.3290 C   0  0  0  0  0  0  0  0  0  0  0  0
    2.9610    3.0720    1.5960 C   0  0  0  0  0  0  0  0  0  0  0  0
    3.7600    2.0250    2.1840 C   0  0  0  0  0  0  0  0  0  0  0  0
    4.2130    2.0900    3.3570 O   0  0  0  0  0  0  0  0  0  0  0  0
    2.7260    1.8740   -0.4950 C   0  0  0  0  0  0  0  0  0  0  0  0
    2.2480    1.7890   -1.7470 O   0  0  0  0  0  0  0  0  0  0  0  0
  1  2  1  0
  2  3  1  0
  3  4  2  0
  3 37  1  0
  4  5  1  0
  4 39  1  0
  5  6  1  0
  6  7  1  1
  6  8  1  0
  8  9  1  0
  9 10  1  6
  9 12  1  0
 10 11  1  0
 12 13  1  1
 12 14  1  0
 14 15  1  1
 14 16  1  0
 16 17  2  0
 17 18  1  0
 17 19  1  0
 19 20  1  1
 19 24  1  0
 20 21  1  0
 21 22  1  0
 21 23  2  0
 24 25  1  1
 24 27  1  0
 25 26  1  0
 27 28  2  0
 28 29  1  0
 29 30  2  0
 30 31  1  0
 30 32  1  0
 32 33  2  0
 32 34  1  0
 34 35  1  0
 35 36  2  0
 35 39  1  0
 36 37  1  0
 37 38  2  0
 39 40  2  0
M  END
