
     RDKit          3D

 40 42  0  0  0  0  0  0  0  0999 V2000
    1.6360    2.7180   -1.3420 O   0  0  0  0  0  0  0  0  0  0  0  0
    1.5940    1.7800   -0.5070 C   0  0  0  0  0  0  0  0  0  0  0  0
    2.6890    0.9070   -0.4730 N   0  0  0  0  0  0  0  0  0  0  0  0
    3.8500    1.0610   -1.3590 C   0  0  0  0  0  0  0  0  0  0  0  0
    4.8770    0.0070   -1.1080 C   0  0  0  0  0  0  0  0  0  0  0  0
    5.5060   -0.1040    0.2060 C   0  0  0  0  0  0  0  0  0  0  0  0
    5.1820    0.8130    1.1230 C   0  0  0  0  0  0  0  0  0  0  0  0
    5.5540    1.0770    2.5130 C   0  0  0  0  0  0  0  0  0  0  0  0
    7.1880    0.5570    2.9890 S   0  0  0  0  0  0  0  0  0  0  0  0
    7.5500   -1.1640    2.6470 C   0  0  0  0  0  0  0  0  0  0  0  0
    7.6640   -1.2790    1.1310 C   0  0  0  0  0  0  0  0  0  0  0  0
    6.3860   -1.1620    0.4990 N   0  0  0  0  0  0  0  0  0  0  0  0
    5.1940   -0.8430   -2.0610 C   0  0  0  0  0  0  0  0  0  0  0  0
    6.1360   -1.8100   -1.8390 F   0  0  0  0  0  0  0  0  0  0  0  0
    4.5400   -0.7780   -3.4170 C   0  0  1  0  0  0  0  0  0  0  0  0
    3.2060   -1.0590   -3.3750 F   0  0  0  0  0  0  0  0  0  0  0  0
    4.8700    0.4350   -3.9710 F   0  0  0  0  0  0  0  0  0  0  0  0
    5.1680   -1.7310   -4.2330 F   0  0  0  0  0  0  0  0  0  0  0  0
    0.4280    1.6640    0.3560 C   0  0  0  0  0  0  0  0  0  0  0  0
    0.3350    0.7440    1.2240 O   0  0  0  0  0  0  0  0  0  0  0  0
   -0.6680    2.6400    0.2150 C   0  0  1  0  0  0  0  0  0  0  0  0
   -1.2650    2.4970   -1.1740 C   0  0  0  0  0  0  0  0  0  0  0  0
   -1.8040    1.1010   -1.2400 C   0  0  0  0  0  0  0  0  0  0  0  0
   -3.0260    0.9950   -0.3200 C   0  0  0  0  0  0  0  0  0  0  0  0
   -2.6450    1.3400    1.0120 N   0  0  0  0  0  0  0  0  0  0  0  0
   -3.1260    0.6690    2.1500 C   0  0  0  0  0  0  0  0  0  0  0  0
   -2.5960    1.0470    3.2740 O   0  0  0  0  0  0  0  0  0  0  0  0
   -4.1320   -0.3750    2.1790 C   0  0  0  0  0  0  0  0  0  0  0  0
   -4.7720   -0.5520    0.9600 O   0  0  0  0  0  0  0  0  0  0  0  0
   -5.7650   -1.4810    0.7300 C   0  0  0  0  0  0  0  0  0  0  0  0
   -6.1680   -2.3020    1.7640 C   0  0  0  0  0  0  0  0  0  0  0  0
   -7.1640   -3.2180    1.4980 C   0  0  0  0  0  0  0  0  0  0  0  0
   -7.7460   -3.3250    0.2530 C   0  0  0  0  0  0  0  0  0  0  0  0
   -7.3060   -2.4760   -0.7550 C   0  0  0  0  0  0  0  0  0  0  0  0
   -6.3260   -1.5560   -0.5390 C   0  0  0  0  0  0  0  0  0  0  0  0
   -5.8600   -0.6980   -1.5030 O   0  0  0  0  0  0  0  0  0  0  0  0
   -6.2580   -0.5820   -2.8250 C   0  0  1  0  0  0  0  0  0  0  0  0
   -6.6810    0.7220   -3.0810 F   0  0  0  0  0  0  0  0  0  0  0  0
   -5.1390   -0.8380   -3.6270 F   0  0  0  0  0  0  0  0  0  0  0  0
   -1.7520    2.4880    1.2080 C   0  0  0  0  0  0  0  0  0  0  0  0
  1  2  2  0
  2  3  1  0
  2 19  1  0
  3  4  1  0
  4  5  1  0
  5  6  1  0
  5 13  2  3
  6  7  2  0
  6 12  1  0
  7  8  1  0
  8  9  1  0
  9 10  1  0
 10 11  1  0
 11 12  1  0
 13 14  1  0
 13 15  1  0
 15 16  1  1
 15 17  1  0
 15 18  1  0
 19 20  2  0
 21 19  1  1
 21 22  1  0
 21 40  1  0
 22 23  1  0
 23 24  1  0
 24 25  1  0
 25 26  1  0
 25 40  1  0
 26 27  2  0
 26 28  1  0
 28 29  1  0
 29 30  1  0
 30 31  2  0
 30 35  1  0
 31 32  1  0
 32 33  2  0
 33 34  1  0
 34 35  2  0
 35 36  1  0
 36 37  1  0
 37 38  1  1
 37 39  1  0
M  END
