
     RDKit          3D

 19 20  0  0  0  0  0  0  0  0999 V2000
   -4.5280    0.0530   -1.2750 C   0  0  0  0  0  0  0  0  0  0  0  0
   -3.3610    0.8130   -0.9250 O   0  0  0  0  0  0  0  0  0  0  0  0
   -2.8530    0.7150    0.3700 C   0  0  0  0  0  0  0  0  0  0  0  0
   -3.2300    1.3890    1.4760 N   0  0  0  0  0  0  0  0  0  0  0  0
   -2.4900    0.9920    2.4870 N   0  0  0  0  0  0  0  0  0  0  0  0
   -1.6230    0.0500    2.0380 C   0  0  0  0  0  0  0  0  0  0  0  0
   -1.8260   -0.1470    0.7100 C   0  0  0  0  0  0  0  0  0  0  0  0
   -1.1320   -1.0730   -0.1970 C   0  0  0  0  0  0  0  0  0  0  0  0
   -0.1870   -0.4050   -1.1240 C   0  0  0  0  0  0  0  0  0  0  0  0
   -0.4900   -0.0580   -2.4030 N   0  0  0  0  0  0  0  0  0  0  0  0
    0.5580    0.5700   -2.9690 C   0  0  0  0  0  0  0  0  0  0  0  0
    1.5150    0.6070   -2.0270 N   0  0  0  0  0  0  0  0  0  0  0  0
    1.0880    0.0160   -0.8850 C   0  0  0  0  0  0  0  0  0  0  0  0
    1.8760   -0.1650    0.3190 C   0  0  0  0  0  0  0  0  0  0  0  0
    1.4420   -0.7950    1.3400 N   0  0  0  0  0  0  0  0  0  0  0  0
    3.2000    0.3670    0.4130 N   0  0  0  0  0  0  0  0  0  0  0  0
    4.4790   -0.4880    1.3410 P   0  0  0  0  0  0  0  0  0  0  0  0
    4.8290   -2.0380    0.6190 O   0  0  0  0  0  0  0  0  0  0  0  0
    5.9310    0.4540    1.2900 O   0  0  0  0  0  0  0  0  0  0  0  0
  1  2  1  0
  2  3  1  0
  3  4  1  0
  3  7  2  0
  4  5  1  0
  5  6  2  0
  6  7  1  0
  7  8  1  0
  8  9  1  0
  9 10  1  0
  9 13  2  0
 10 11  2  0
 11 12  1  0
 12 13  1  0
 13 14  1  0
 14 15  2  0
 14 16  1  0
 16 17  1  0
 17 18  1  0
 17 19  1  0
M  END
