
     RDKit          3D

 20 21  0  0  0  0  0  0  0  0999 V2000
   -3.7190   -1.6680   -0.1920 C   0  0  0  0  0  0  0  0  0  0  0  0
   -2.2370   -1.5910    0.1280 C   0  0  0  0  0  0  0  0  0  0  0  0
   -1.6240   -0.4750   -0.6940 C   0  0  0  0  0  0  0  0  0  0  0  0
   -0.2220   -0.3040   -0.4650 N   0  0  0  0  0  0  0  0  0  0  0  0
    0.7320   -1.2240   -0.9550 C   0  0  0  0  0  0  0  0  0  0  0  0
    0.4710   -2.2340   -1.7010 N   0  0  0  0  0  0  0  0  0  0  0  0
    2.1180   -1.0320   -0.6460 N   0  0  0  0  0  0  0  0  0  0  0  0
    2.5400    0.0490    0.1330 C   0  0  0  0  0  0  0  0  0  0  0  0
    3.7850    0.3100    0.4710 C   0  0  0  0  0  0  0  0  0  0  0  0
    4.9330   -0.4550    0.1090 C   0  0  0  0  0  0  0  0  0  0  0  0
    6.0790   -0.0660    0.5340 O   0  0  0  0  0  0  0  0  0  0  0  0
    4.9680   -1.5980   -0.6670 O   0  0  0  0  0  0  0  0  0  0  0  0
    1.5150    0.9530    0.6050 N   0  0  0  0  0  0  0  0  0  0  0  0
    1.6450    2.0410    1.3560 N   0  0  0  0  0  0  0  0  0  0  0  0
    0.4670    2.5870    1.5730 N   0  0  0  0  0  0  0  0  0  0  0  0
   -0.4840    1.8450    0.9480 C   0  0  0  0  0  0  0  0  0  0  0  0
   -2.2670    2.2000    0.9730 P   0  0  0  0  0  0  0  0  0  0  0  0
   -2.6150    3.1710   -0.4210 O   0  0  0  0  0  0  0  0  0  0  0  0
   -2.6180    3.1550    2.3750 O   0  0  0  0  0  0  0  0  0  0  0  0
    0.2070    0.8150    0.3410 C   0  0  0  0  0  0  0  0  0  0  0  0
  1  2  1  0
  2  3  1  0
  3  4  1  0
  4  5  1  0
  4 20  1  0
  5  6  2  0
  5  7  1  0
  7  8  1  0
  8  9  2  3
  8 13  1  0
  9 10  1  0
 10 11  2  0
 10 12  1  0
 13 14  1  0
 13 20  1  0
 14 15  2  0
 15 16  1  0
 16 17  1  0
 16 20  2  0
 17 18  1  0
 17 19  1  0
M  END
