
     RDKit          3D

 27 28  0  0  0  0  0  0  0  0999 V2000
   -1.0970   -3.5840   -2.4580 O   0  0  0  0  0  0  0  0  0  0  0  0
   -1.1230   -3.0790   -1.2850 C   0  0  0  0  0  0  0  0  0  0  0  0
   -2.0490   -3.7350   -0.3300 C   0  0  0  0  0  0  0  0  0  0  0  0
   -3.0690   -2.7890   -0.1040 O   0  0  0  0  0  0  0  0  0  0  0  0
   -3.0870   -2.4730    1.1800 O   0  0  0  0  0  0  0  0  0  0  0  0
   -2.6110   -1.2090    1.6510 C   0  0  0  0  0  0  0  0  0  0  0  0
   -2.4870   -1.2900    2.8920 O   0  0  0  0  0  0  0  0  0  0  0  0
   -2.4330   -0.3120    0.6830 O   0  0  0  0  0  0  0  0  0  0  0  0
   -1.9680    0.9790    0.5870 C   0  0  0  0  0  0  0  0  0  0  0  0
   -2.7490    1.9970    0.1110 C   0  0  0  0  0  0  0  0  0  0  0  0
   -2.3270    3.3330    0.0340 C   0  0  0  0  0  0  0  0  0  0  0  0
   -3.1490    4.3330   -0.4620 O   0  0  0  0  0  0  0  0  0  0  0  0
   -2.9640    4.9840   -1.6010 O   0  0  0  0  0  0  0  0  0  0  0  0
   -1.0630    3.6560    0.4550 C   0  0  0  0  0  0  0  0  0  0  0  0
   -0.2720    2.6290    0.9290 C   0  0  0  0  0  0  0  0  0  0  0  0
   -0.6670    1.3280    1.0030 C   0  0  0  0  0  0  0  0  0  0  0  0
    0.0970    0.2600    1.4400 O   0  0  0  0  0  0  0  0  0  0  0  0
    0.8680   -0.6550    0.6930 C   0  0  2  0  0  0  0  0  0  0  0  0
    1.5630   -0.0560   -0.5310 C   0  0  0  0  0  0  0  0  0  0  0  0
    2.5040   -1.0940   -0.8390 O   0  0  0  0  0  0  0  0  0  0  0  0
    3.6300   -0.6420   -0.6550 O   0  0  0  0  0  0  0  0  0  0  0  0
    4.8820   -0.3630   -0.6900 C   0  0  0  0  0  0  0  0  0  0  0  0
    5.6020   -0.9390   -1.5810 O   0  0  0  0  0  0  0  0  0  0  0  0
    5.5760    0.5120    0.1590 O   0  0  0  0  0  0  0  0  0  0  0  0
    6.8960    0.7220    0.0460 O   0  0  0  0  0  0  0  0  0  0  0  0
    0.3410   -1.9740    0.3400 C   0  0  0  0  0  0  0  0  0  0  0  0
   -0.3780   -2.0130   -0.8680 O   0  0  0  0  0  0  0  0  0  0  0  0
  1  2  2  0
  2  3  1  0
  2 27  1  0
  3  4  1  0
  4  5  1  0
  5  6  1  0
  6  7  2  0
  6  8  1  0
  8  9  1  0
  9 10  2  0
  9 16  1  0
 10 11  1  0
 11 12  1  0
 11 14  2  0
 12 13  1  0
 14 15  1  0
 15 16  2  0
 16 17  1  0
 17 18  1  0
 18 19  1  6
 18 26  1  0
 19 20  1  0
 20 21  1  0
 21 22  1  0
 22 23  2  0
 22 24  1  0
 24 25  1  0
 26 27  1  0
M  END
