
     RDKit          3D

 30 31  0  0  0  0  0  0  0  0999 V2000
   -8.5550    1.5460    0.9030 O   0  0  0  0  0  0  0  0  0  0  0  0
   -7.9190    2.5410    0.5300 C   0  0  0  0  0  0  0  0  0  0  0  0
   -8.6210    3.7450    0.4100 O   0  0  0  0  0  0  0  0  0  0  0  0
   -6.5370    2.4780    0.2330 N   0  0  0  0  0  0  0  0  0  0  0  0
   -5.8290    1.2520    0.3560 C   0  0  0  0  0  0  0  0  0  0  0  0
   -6.4380    0.2320    0.7290 O   0  0  0  0  0  0  0  0  0  0  0  0
   -4.3830    1.1920    0.0430 C   0  0  0  0  0  0  0  0  0  0  0  0
   -3.8660   -0.1160    0.2290 O   0  0  0  0  0  0  0  0  0  0  0  0
   -2.5250   -0.4160   -0.0040 C   0  0  0  0  0  0  0  0  0  0  0  0
   -1.8250    0.5810   -0.3930 O   0  0  0  0  0  0  0  0  0  0  0  0
   -1.9850   -1.7110    0.1730 N   0  0  0  0  0  0  0  0  0  0  0  0
   -0.5700   -1.9270   -0.0950 C   0  0  2  0  0  0  0  0  0  0  0  0
   -0.0890   -3.6820    0.2700 P   0  0  0  0  0  0  0  0  0  0  0  0
   -0.8550   -4.8130   -0.7570 O   0  0  0  0  0  0  0  0  0  0  0  0
    1.6370   -3.7790    0.2340 O   0  0  0  0  0  0  0  0  0  0  0  0
    0.1900   -1.0420    0.8390 C   0  0  0  0  0  0  0  0  0  0  0  0
    1.2860   -0.3270    0.2560 N   0  0  0  0  0  0  0  0  0  0  0  0
    2.0900    0.4910    1.1360 C   0  0  0  0  0  0  0  0  0  0  0  0
    3.3050    1.0130    0.3920 C   0  0  1  0  0  0  0  0  0  0  0  0
    4.1600   -0.0570    0.0790 O   0  0  0  0  0  0  0  0  0  0  0  0
    5.7560    0.2380    0.6900 P   0  0  0  0  0  0  0  0  0  0  0  0
    6.6920   -1.2030    0.6480 O   0  0  0  0  0  0  0  0  0  0  0  0
    6.7090    1.8990   -0.3760 P   0  0  0  0  0  0  0  0  0  0  0  0
    6.0350    3.4070    0.1930 O   0  0  0  0  0  0  0  0  0  0  0  0
    8.4100    1.9210   -0.0540 O   0  0  0  0  0  0  0  0  0  0  0  0
    2.8230    1.4860   -0.8760 O   0  0  0  0  0  0  0  0  0  0  0  0
    2.3570    0.4890   -1.7200 N   0  0  0  0  0  0  0  0  0  0  0  0
    1.5940   -0.3990   -1.1290 C   0  0  0  0  0  0  0  0  0  0  0  0
    1.0050   -1.5370   -1.8750 C   0  0  0  0  0  0  0  0  0  0  0  0
   -0.3860   -1.6000   -1.4930 N   0  0  0  0  0  0  0  0  0  0  0  0
  1  2  2  0
  2  3  1  0
  2  4  1  0
  4  5  1  0
  5  6  2  0
  5  7  1  0
  7  8  1  0
  8  9  1  0
  9 10  2  0
  9 11  1  0
 12 11  1  1
 12 13  1  0
 12 16  1  0
 12 30  1  0
 13 14  1  0
 13 15  1  0
 16 17  1  0
 17 18  1  0
 17 28  1  0
 18 19  1  0
 19 20  1  6
 19 26  1  0
 20 21  1  0
 21 22  1  0
 21 23  1  0
 23 24  1  0
 23 25  1  0
 26 27  1  0
 27 28  2  0
 28 29  1  0
 29 30  1  0
M  END
