
     RDKit          3D

 30 31  0  0  0  0  0  0  0  0999 V2000
   -3.1440   -1.1800    3.0870 O   0  0  0  0  0  0  0  0  0  0  0  0
   -3.8100    0.2100    2.8260 P   0  0  0  0  0  0  0  0  0  0  0  0
   -3.0790    1.2800    1.6700 O   0  0  0  0  0  0  0  0  0  0  0  0
   -2.5300    0.5010    0.6190 C   0  0  1  0  0  0  0  0  0  0  0  0
   -3.6330   -0.2210    0.0520 N   0  0  0  0  0  0  0  0  0  0  0  0
   -4.8270    0.3800   -0.4130 C   0  0  0  0  0  0  0  0  0  0  0  0
   -4.9810    1.6230   -0.3460 O   0  0  0  0  0  0  0  0  0  0  0  0
   -5.9150   -0.3730   -0.9790 N   0  0  0  0  0  0  0  0  0  0  0  0
   -7.4050    0.4500   -1.5510 P   0  0  0  0  0  0  0  0  0  0  0  0
   -8.8150   -0.0650   -0.7150 O   0  0  0  0  0  0  0  0  0  0  0  0
   -7.5700    0.3760   -3.2700 O   0  0  0  0  0  0  0  0  0  0  0  0
   -1.9480    1.4710   -0.3450 C   0  0  0  0  0  0  0  0  0  0  0  0
   -1.2490    0.8320   -1.3470 O   0  0  0  0  0  0  0  0  0  0  0  0
   -0.2940   -0.0490   -0.9080 C   0  0  0  0  0  0  0  0  0  0  0  0
   -0.5870   -0.7670    0.3460 C   0  0  1  0  0  0  0  0  0  0  0  0
    0.6680   -0.8530    1.1910 C   0  0  0  0  0  0  0  0  0  0  0  0
    1.7650   -0.3250    0.7970 N   0  0  0  0  0  0  0  0  0  0  0  0
    3.0280   -0.3130    1.4630 C   0  0  1  0  0  0  0  0  0  0  0  0
    3.5650    0.9660    1.5880 O   0  0  0  0  0  0  0  0  0  0  0  0
    4.7490    1.1660    0.9320 C   0  0  0  0  0  0  0  0  0  0  0  0
    4.7000    0.9770   -0.5590 C   0  0  0  0  0  0  0  0  0  0  0  0
    5.9910    1.2220   -1.0450 O   0  0  0  0  0  0  0  0  0  0  0  0
    6.0610    1.0380   -2.7670 P   0  0  0  0  0  0  0  0  0  0  0  0
    7.7040    1.2160   -3.2980 O   0  0  0  0  0  0  0  0  0  0  0  0
    5.3430   -0.4330   -3.2800 O   0  0  0  0  0  0  0  0  0  0  0  0
    3.0250   -1.0230    2.7780 C   0  0  0  0  0  0  0  0  0  0  0  0
    4.0910   -1.0890    3.4660 O   0  0  0  0  0  0  0  0  0  0  0  0
    1.8070   -1.6030    3.2070 N   0  0  0  0  0  0  0  0  0  0  0  0
    0.6460   -1.5270    2.4390 N   0  0  0  0  0  0  0  0  0  0  0  0
   -1.5590   -0.2830    1.1560 O   0  0  0  0  0  0  0  0  0  0  0  0
  1  2  2  0
  2  3  1  0
  3  4  1  0
  4  5  1  6
  4 12  1  0
  4 30  1  0
  5  6  1  0
  6  7  2  0
  6  8  1  0
  8  9  1  0
  9 10  1  0
  9 11  1  0
 12 13  1  0
 13 14  1  0
 14 15  1  0
 15 16  1  1
 15 30  1  0
 16 17  2  0
 16 29  1  0
 17 18  1  0
 18 19  1  1
 18 26  1  0
 19 20  1  0
 20 21  1  0
 21 22  1  0
 22 23  1  0
 23 24  1  0
 23 25  1  0
 26 27  2  0
 26 28  1  0
 28 29  1  0
M  END
