
     RDKit          3D

 31 32  0  0  0  0  0  0  0  0999 V2000
    1.7180   -1.1120    1.6990 N   0  0  0  0  0  0  0  0  0  0  0  0
    1.6980   -0.7850    0.4270 C   0  0  0  0  0  0  0  0  0  0  0  0
    0.7480   -1.3060   -0.4660 N   0  0  0  0  0  0  0  0  0  0  0  0
   -0.0940   -0.5800   -1.3490 C   0  0  0  0  0  0  0  0  0  0  0  0
   -1.2120    0.1520   -0.7500 C   0  0  0  0  0  0  0  0  0  0  0  0
   -2.4380   -0.0410   -1.1880 N   0  0  0  0  0  0  0  0  0  0  0  0
   -3.3650    0.7120   -0.5290 N   0  0  0  0  0  0  0  0  0  0  0  0
   -4.8020    0.7580   -0.7410 C   0  0  1  0  0  0  0  0  0  0  0  0
   -5.5660    0.6530    0.5380 C   0  0  0  0  0  0  0  0  0  0  0  0
   -6.2690    1.8460    0.2180 O   0  0  0  0  0  0  0  0  0  0  0  0
   -5.3440    2.1200   -0.7660 C   0  0  0  0  0  0  0  0  0  0  0  0
   -5.0780    3.1680   -1.4330 O   0  0  0  0  0  0  0  0  0  0  0  0
   -2.7020    1.4850    0.4470 C   0  0  0  0  0  0  0  0  0  0  0  0
   -3.1450    2.2960    1.2830 O   0  0  0  0  0  0  0  0  0  0  0  0
   -1.2400    1.1480    0.3070 C   0  0  1  0  0  0  0  0  0  0  0  0
   -0.7530    0.7020    1.5310 O   0  0  0  0  0  0  0  0  0  0  0  0
    0.1080    1.5420    2.0090 O   0  0  0  0  0  0  0  0  0  0  0  0
   -0.4210    3.1790    1.9990 P   0  0  0  0  0  0  0  0  0  0  0  0
   -1.0740    3.8980    3.1940 O   0  0  0  0  0  0  0  0  0  0  0  0
    0.5930   -2.7680   -0.4590 C   0  0  0  0  0  0  0  0  0  0  0  0
    2.2200   -3.5180   -0.8980 P   0  0  0  0  0  0  0  0  0  0  0  0
    2.9720   -4.2440    0.4870 O   0  0  0  0  0  0  0  0  0  0  0  0
    2.0240   -4.7540   -2.0900 O   0  0  0  0  0  0  0  0  0  0  0  0
    2.7070    0.0980   -0.0050 N   0  0  0  0  0  0  0  0  0  0  0  0
    4.0930   -0.2720    0.1170 C   0  0  0  0  0  0  0  0  0  0  0  0
    4.4680   -1.3610    0.6190 O   0  0  0  0  0  0  0  0  0  0  0  0
    5.0640    0.6050   -0.3390 O   0  0  0  0  0  0  0  0  0  0  0  0
    6.3530    0.2780   -0.2360 O   0  0  0  0  0  0  0  0  0  0  0  0
    2.3080    1.6870   -0.6850 P   0  0  0  0  0  0  0  0  0  0  0  0
    3.1710    1.9030   -2.1790 O   0  0  0  0  0  0  0  0  0  0  0  0
    2.7120    2.9140    0.4560 O   0  0  0  0  0  0  0  0  0  0  0  0
  1  2  2  0
  2  3  1  0
  2 24  1  0
  3  4  1  0
  3 20  1  0
  4  5  1  0
  5  6  2  0
  5 15  1  0
  6  7  1  0
  8  7  1  1
  7 13  1  0
  8  9  1  0
  8 11  1  0
  9 10  1  0
 10 11  1  0
 11 12  2  0
 13 14  2  0
 13 15  1  0
 15 16  1  1
 16 17  1  0
 17 18  1  0
 18 19  2  0
 20 21  1  0
 21 22  1  0
 21 23  1  0
 24 25  1  0
 24 29  1  0
 25 26  2  0
 25 27  1  0
 27 28  1  0
 29 30  1  0
 29 31  1  0
M  END
