
     RDKit          3D

 30 32  0  0  0  0  0  0  0  0999 V2000
    5.0680    2.4820   -0.7900 C   0  0  0  0  0  0  0  0  0  0  0  0
    3.6320    2.1070   -0.8170 C   0  0  0  0  0  0  0  0  0  0  0  0
    2.7390    3.0090   -1.3050 C   0  0  0  0  0  0  0  0  0  0  0  0
    1.3660    2.7190   -1.3570 C   0  0  0  0  0  0  0  0  0  0  0  0
    0.4500    3.7400   -1.9530 C   0  0  0  0  0  0  0  0  0  0  0  0
    0.9750    1.4960   -0.8930 C   0  0  0  0  0  0  0  0  0  0  0  0
   -0.4390    1.1550   -0.8370 C   0  0  0  0  0  0  0  0  0  0  0  0
   -0.7130   -0.0480   -1.1130 O   0  0  0  0  0  0  0  0  0  0  0  0
   -1.4960    2.0190   -0.5060 N   0  0  0  0  0  0  0  0  0  0  0  0
   -2.9070    1.6420   -0.4740 C   0  0  0  0  0  0  0  0  0  0  0  0
   -3.2130    0.5340    0.4730 C   0  0  0  0  0  0  0  0  0  0  0  0
   -4.6780    0.1800    0.5250 C   0  0  0  0  0  0  0  0  0  0  0  0
   -5.2280   -0.2340   -0.7910 C   0  0  0  0  0  0  0  0  0  0  0  0
   -6.6790   -0.6060   -0.7630 C   0  0  2  0  0  0  0  0  0  0  0  0
   -7.4710    0.4410   -0.3320 O   0  0  0  0  0  0  0  0  0  0  0  0
   -7.9370    0.1810    0.9280 C   0  0  0  0  0  0  0  0  0  0  0  0
   -7.6930   -1.2580    1.2710 C   0  0  0  0  0  0  0  0  0  0  0  0
   -7.0510   -1.8020    0.0120 C   0  0  2  0  0  0  0  0  0  0  0  0
   -6.0070   -2.8270    0.2400 C   0  0  0  0  0  0  0  0  0  0  0  0
    1.9150    0.5880   -0.3980 C   0  0  0  0  0  0  0  0  0  0  0  0
    3.2440    0.8530   -0.3430 C   0  0  0  0  0  0  0  0  0  0  0  0
    4.2580   -0.0030    0.1480 N   0  0  0  0  0  0  0  0  0  0  0  0
    4.1010   -1.2900    0.6870 C   0  0  0  0  0  0  0  0  0  0  0  0
    2.9600   -1.7900    0.7660 O   0  0  0  0  0  0  0  0  0  0  0  0
    5.2800   -2.0950    1.1790 C   0  0  2  0  0  0  0  0  0  0  0  0
    5.9820   -1.4030    2.3160 C   0  0  0  0  0  0  0  0  0  0  0  0
    7.3460   -1.9760    2.4880 C   0  0  0  0  0  0  0  0  0  0  0  0
    8.1370   -2.1750    1.4350 C   0  0  0  0  0  0  0  0  0  0  0  0
    7.5370   -1.7780    0.1130 C   0  0  0  0  0  0  0  0  0  0  0  0
    6.1890   -2.4320    0.0310 C   0  0  0  0  0  0  0  0  0  0  0  0
  1  2  1  0
  2  3  2  0
  2 21  1  0
  3  4  1  0
  4  5  1  0
  4  6  2  0
  6  7  1  0
  6 20  1  0
  7  8  2  0
  7  9  1  0
  9 10  1  0
 10 11  1  0
 11 12  1  0
 12 13  1  0
 14 13  1  1
 14 15  1  0
 14 18  1  0
 15 16  1  0
 16 17  1  0
 17 18  1  0
 18 19  1  1
 20 21  2  0
 21 22  1  0
 22 23  1  0
 23 24  2  0
 25 23  1  6
 25 26  1  0
 25 30  1  0
 26 27  1  0
 27 28  2  0
 28 29  1  0
 29 30  1  0
M  END
