
     RDKit          3D

 31 36  0  0  0  0  0  0  0  0999 V2000
    6.1190    1.1970   -2.7510 N   0  0  0  0  0  0  0  0  0  0  0  0
    5.0250    0.2960   -2.8320 C   0  0  0  0  0  0  0  0  0  0  0  0
    4.9130   -0.4200   -3.8830 N   0  0  0  0  0  0  0  0  0  0  0  0
    4.0940    0.2350   -1.7180 C   0  0  0  0  0  0  0  0  0  0  0  0
    4.2850    1.0530   -0.5990 C   0  0  0  0  0  0  0  0  0  0  0  0
    3.4300    1.0320    0.4810 C   0  0  0  0  0  0  0  0  0  0  0  0
    2.3340    0.1990    0.5170 C   0  0  0  0  0  0  0  0  0  0  0  0
    1.4650    0.2250    1.7120 C   0  0  1  0  0  0  0  0  0  0  0  0
    0.1850    0.9720    1.5560 C   0  0  1  0  0  0  0  0  0  0  0  0
   -0.6400    0.5770    0.4080 C   0  0  0  0  0  0  0  0  0  0  0  0
   -0.4340    0.8240   -0.7980 O   0  0  0  0  0  0  0  0  0  0  0  0
   -1.7840   -0.1730    0.8550 N   0  0  0  0  0  0  0  0  0  0  0  0
   -2.6220   -1.0980    0.1250 C   0  0  0  0  0  0  0  0  0  0  0  0
   -3.7630   -0.3820   -0.5150 C   0  0  0  0  0  0  0  0  0  0  0  0
   -4.9340   -0.2330    0.1770 C   0  0  0  0  0  0  0  0  0  0  0  0
   -5.9800    0.4380   -0.4450 C   0  0  0  0  0  0  0  0  0  0  0  0
   -5.8130    0.9340   -1.7350 C   0  0  0  0  0  0  0  0  0  0  0  0
   -4.6290    0.7790   -2.4230 C   0  0  0  0  0  0  0  0  0  0  0  0
   -3.6030    0.1160   -1.8030 C   0  0  0  0  0  0  0  0  0  0  0  0
   -4.7580    1.3740   -3.6800 O   0  0  0  0  0  0  0  0  0  0  0  0
   -6.1400    1.6650   -3.9000 C   0  0  0  0  0  0  0  0  0  0  0  0
   -6.6620    1.6300   -2.5850 O   0  0  0  0  0  0  0  0  0  0  0  0
   -2.0040    0.1540    2.2640 C   0  0  0  0  0  0  0  0  0  0  0  0
   -0.6110    0.4760    2.7440 C   0  0  1  0  0  0  0  0  0  0  0  0
    0.0710   -0.8120    3.1410 C   0  0  2  0  0  0  0  0  0  0  0  0
    0.8860   -0.5940    4.3720 C   0  0  0  0  0  0  0  0  0  0  0  0
    2.0060   -1.5780    4.2410 C   0  0  0  0  0  0  0  0  0  0  0  0
    2.1410   -1.7850    2.7680 C   0  0  0  0  0  0  0  0  0  0  0  0
    1.0550   -1.0820    2.1150 N   0  0  2  0  0  0  0  0  0  0  0  0
    2.1310   -0.6120   -0.5740 C   0  0  0  0  0  0  0  0  0  0  0  0
    2.9950   -0.5960   -1.6760 C   0  0  0  0  0  0  0  0  0  0  0  0
  1  2  1  0
  2  3  2  0
  2  4  1  0
  4  5  2  0
  4 31  1  0
  5  6  1  0
  6  7  2  0
  8  7  1  6
  7 30  1  0
  8  9  1  0
  8 29  1  0
  9 10  1  6
  9 24  1  0
 10 11  2  0
 10 12  1  0
 12 13  1  0
 12 23  1  0
 13 14  1  0
 14 15  2  0
 14 19  1  0
 15 16  1  0
 16 17  2  0
 17 18  1  0
 17 22  1  0
 18 19  2  0
 18 20  1  0
 20 21  1  0
 21 22  1  0
 24 23  1  6
 24 25  1  0
 25 26  1  1
 25 29  1  0
 26 27  1  0
 27 28  1  0
 29 28  1  1
 30 31  2  0
M  CHG  2   3   1  29   1
M  END
