
     RDKit          3D

 30 32  0  0  0  0  0  0  0  0999 V2000
    5.6150    0.1560   -1.8910 C   0  0  0  0  0  0  0  0  0  0  0  0
    5.2830   -0.8200   -0.8180 C   0  0  1  0  0  0  0  0  0  0  0  0
    6.0130   -0.7200    0.4570 C   0  0  0  0  0  0  0  0  0  0  0  0
    5.9630    0.4790    1.2930 C   0  0  0  0  0  0  0  0  0  0  0  0
    6.4390    1.7530    0.6630 C   0  0  0  0  0  0  0  0  0  0  0  0
    6.3170    2.8110    1.7380 C   0  0  0  0  0  0  0  0  0  0  0  0
    5.9120    2.5820    2.8520 O   0  0  0  0  0  0  0  0  0  0  0  0
    3.7990   -1.0890   -0.7150 C   0  0  0  0  0  0  0  0  0  0  0  0
    2.9520    0.0930   -0.4360 C   0  0  0  0  0  0  0  0  0  0  0  0
    1.5280   -0.2490   -0.3530 N   0  0  0  0  0  0  0  0  0  0  0  0
    0.5840   -0.2560   -1.4190 C   0  0  0  0  0  0  0  0  0  0  0  0
    0.8360    0.0190   -2.6070 O   0  0  0  0  0  0  0  0  0  0  0  0
   -0.7140   -0.6460   -0.8420 C   0  0  0  0  0  0  0  0  0  0  0  0
   -1.8690   -0.2910   -1.3400 C   0  0  0  0  0  0  0  0  0  0  0  0
   -3.1330   -0.6780   -0.7660 C   0  0  0  0  0  0  0  0  0  0  0  0
   -3.3910   -2.0060   -0.4170 C   0  0  0  0  0  0  0  0  0  0  0  0
   -4.5740   -2.4190    0.1520 C   0  0  0  0  0  0  0  0  0  0  0  0
   -4.8030   -3.7780    0.4900 N   0  0  0  0  0  0  0  0  0  0  0  0
   -5.5280   -1.4470    0.3770 C   0  0  0  0  0  0  0  0  0  0  0  0
   -5.2880   -0.1330    0.0390 C   0  0  0  0  0  0  0  0  0  0  0  0
   -4.0960    0.2850   -0.5360 C   0  0  0  0  0  0  0  0  0  0  0  0
   -3.7080    1.6480   -0.9230 C   0  0  0  0  0  0  0  0  0  0  0  0
   -4.8790    2.5950   -1.0210 C   0  0  0  0  0  0  0  0  0  0  0  0
   -5.4370    3.0440    0.2830 C   0  0  0  0  0  0  0  0  0  0  0  0
   -5.8830    1.9380    1.1790 C   0  0  0  0  0  0  0  0  0  0  0  0
   -6.4400    0.7530    0.3810 C   0  0  0  0  0  0  0  0  0  0  0  0
   -0.3390   -1.4510    0.3560 C   0  0  1  0  0  0  0  0  0  0  0  0
    0.2200   -2.7960   -0.0200 C   0  0  0  0  0  0  0  0  0  0  0  0
    0.8380   -0.6210    0.8270 C   0  0  0  0  0  0  0  0  0  0  0  0
    1.1010   -0.3490    2.0090 O   0  0  0  0  0  0  0  0  0  0  0  0
  2  1  1  1
  2  3  1  0
  2  8  1  0
  3  4  1  0
  4  5  1  0
  5  6  1  0
  6  7  2  0
  8  9  1  0
  9 10  1  0
 10 11  1  0
 10 29  1  0
 11 12  2  0
 11 13  1  0
 13 14  2  3
 13 27  1  0
 14 15  1  0
 15 16  2  0
 15 21  1  0
 16 17  1  0
 17 18  1  0
 17 19  2  0
 19 20  1  0
 20 21  2  0
 20 26  1  0
 21 22  1  0
 22 23  1  0
 23 24  1  0
 24 25  1  0
 25 26  1  0
 27 28  1  6
 27 29  1  0
 29 30  2  0
M  END
