
     RDKit          3D

 30 32  0  0  0  0  0  0  0  0999 V2000
   -4.4410    1.3830    1.3620 C   0  0  0  0  0  0  0  0  0  0  0  0
   -3.6220    2.3540    1.1860 C   0  0  0  0  0  0  0  0  0  0  0  0
   -2.4020    2.5880    0.4960 C   0  0  0  0  0  0  0  0  0  0  0  0
   -2.0300    3.9610    0.6310 C   0  0  0  0  0  0  0  0  0  0  0  0
   -1.5670    1.8620   -0.3770 C   0  0  0  0  0  0  0  0  0  0  0  0
   -1.2920    0.7060   -0.8260 C   0  0  0  0  0  0  0  0  0  0  0  0
   -2.0080   -0.4530   -0.3220 C   0  0  0  0  0  0  0  0  0  0  0  0
   -1.9500   -0.4150    1.0870 C   0  0  0  0  0  0  0  0  0  0  0  0
   -2.4880   -1.4260    1.8110 C   0  0  0  0  0  0  0  0  0  0  0  0
   -2.4410   -1.4010    3.3210 C   0  0  0  0  0  0  0  0  0  0  0  0
   -3.0860   -2.4780    1.1600 C   0  0  0  0  0  0  0  0  0  0  0  0
   -3.1390   -2.5060   -0.2470 C   0  0  0  0  0  0  0  0  0  0  0  0
   -3.7990   -3.6700   -0.8720 C   0  0  0  0  0  0  0  0  0  0  0  0
   -2.5950   -1.4880   -0.9830 C   0  0  0  0  0  0  0  0  0  0  0  0
   -2.6890   -1.7490   -2.4590 C   0  0  0  0  0  0  0  0  0  0  0  0
   -1.2290   -1.5270   -2.9350 C   0  0  0  0  0  0  0  0  0  0  0  0
   -0.9700   -0.0900   -3.1420 C   0  0  0  0  0  0  0  0  0  0  0  0
   -0.3150    0.6630   -2.0050 C   0  0  2  0  0  0  0  0  0  0  0  0
    0.9710    0.0540   -1.6850 C   0  0  0  0  0  0  0  0  0  0  0  0
    1.4740   -0.9460   -2.3020 O   0  0  0  0  0  0  0  0  0  0  0  0
    1.8270    0.5250   -0.6210 N   0  0  0  0  0  0  0  0  0  0  0  0
    3.0880   -0.0480   -0.2840 C   0  0  2  0  0  0  0  0  0  0  0  0
    3.1410   -0.6650    1.0870 C   0  0  0  0  0  0  0  0  0  0  0  0
    4.2590    0.8860   -0.5470 C   0  0  1  0  0  0  0  0  0  0  0  0
    4.2360    2.0440    0.1220 O   0  0  0  0  0  0  0  0  0  0  0  0
    4.7850    2.1470    1.3440 C   0  0  0  0  0  0  0  0  0  0  0  0
    5.9620    1.3020    1.6560 C   0  0  0  0  0  0  0  0  0  0  0  0
    6.3940    0.4270    0.6200 N   0  0  0  0  0  0  0  0  0  0  0  0
    5.4830    0.0640   -0.3840 C   0  0  0  0  0  0  0  0  0  0  0  0
    5.6400   -0.9120   -1.1520 O   0  0  0  0  0  0  0  0  0  0  0  0
  1  2  2  0
  2  3  1  0
  3  4  2  0
  3  5  1  0
  5  6  2  3
  6  7  1  0
  6 18  1  0
  7  8  2  0
  7 14  1  0
  8  9  1  0
  9 10  1  0
  9 11  2  0
 11 12  1  0
 12 13  1  0
 12 14  2  0
 14 15  1  0
 15 16  1  0
 16 17  1  0
 17 18  1  0
 18 19  1  1
 19 20  2  0
 19 21  1  0
 21 22  1  0
 22 23  1  1
 22 24  1  0
 24 25  1  1
 24 29  1  0
 25 26  1  0
 26 27  1  0
 27 28  1  0
 28 29  1  0
 29 30  2  0
M  END
