
     RDKit          3D

 30 31  0  0  0  0  0  0  0  0999 V2000
    6.5760    1.5330   -0.8590 C   0  0  0  0  0  0  0  0  0  0  0  0
    5.8250    2.7230   -1.3330 C   0  0  0  0  0  0  0  0  0  0  0  0
    4.3710    2.7210   -1.0230 C   0  0  0  0  0  0  0  0  0  0  0  0
    3.9380    2.7020    0.3800 C   0  0  0  0  0  0  0  0  0  0  0  0
    4.2630    1.5380    1.2380 C   0  0  0  0  0  0  0  0  0  0  0  0
    3.7000    0.2770    0.7810 N   0  0  0  0  0  0  0  0  0  0  0  0
    2.3070    0.0710    0.6300 C   0  0  0  0  0  0  0  0  0  0  0  0
    1.5320    1.0090    0.9000 O   0  0  0  0  0  0  0  0  0  0  0  0
    1.7910   -1.2160    0.1660 C   0  0  0  0  0  0  0  0  0  0  0  0
    0.2980   -1.2990    0.0650 C   0  0  1  0  0  0  0  0  0  0  0  0
   -0.3960   -1.0620    1.4050 C   0  0  0  0  0  0  0  0  0  0  0  0
   -1.7730   -1.6300    1.2050 C   0  0  0  0  0  0  0  0  0  0  0  0
   -2.3880   -2.6260    2.0150 C   0  0  0  0  0  0  0  0  0  0  0  0
   -1.6640   -3.1900    2.9850 C   0  0  0  0  0  0  0  0  0  0  0  0
   -1.8800   -4.2200    4.0180 C   0  0  0  0  0  0  0  0  0  0  0  0
   -2.6980   -5.2550    4.0730 C   0  0  0  0  0  0  0  0  0  0  0  0
   -3.7190   -5.8260    3.1690 C   0  0  0  0  0  0  0  0  0  0  0  0
   -4.4660   -5.3770    2.1740 C   0  0  0  0  0  0  0  0  0  0  0  0
   -4.5670   -4.0700    1.5600 N   0  0  0  0  0  0  0  0  0  0  0  0
   -3.8100   -2.8470    1.6860 C   0  0  0  0  0  0  0  0  0  0  0  0
   -4.4660   -1.7920    1.4890 O   0  0  0  0  0  0  0  0  0  0  0  0
   -2.3850   -1.0230    0.1730 C   0  0  0  0  0  0  0  0  0  0  0  0
   -1.6760    0.0720   -0.5960 C   0  0  2  0  0  0  0  0  0  0  0  0
   -2.4780    0.3250   -1.8270 C   0  0  0  0  0  0  0  0  0  0  0  0
   -1.9280    1.3850   -2.7200 C   0  0  0  0  0  0  0  0  0  0  0  0
   -1.7980    2.7300   -2.1220 C   0  0  1  0  0  0  0  0  0  0  0  0
   -1.2180    3.6520   -3.2070 C   0  0  0  0  0  0  0  0  0  0  0  0
   -3.1080    3.3520   -1.7080 C   0  0  0  0  0  0  0  0  0  0  0  0
   -3.9860    3.5160   -2.7470 O   0  0  0  0  0  0  0  0  0  0  0  0
   -0.2890   -0.3900   -0.9920 C   0  0  0  0  0  0  0  0  0  0  0  0
  1  2  1  0
  2  3  1  0
  3  4  1  0
  4  5  1  0
  5  6  1  0
  6  7  1  0
  7  8  2  0
  7  9  1  0
 10  9  1  1
 10 11  1  0
 10 30  1  0
 11 12  1  0
 12 13  1  0
 12 22  2  0
 13 14  2  0
 13 20  1  0
 14 15  1  0
 15 16  2  0
 16 17  1  0
 17 18  2  0
 18 19  1  0
 19 20  1  0
 20 21  2  0
 22 23  1  0
 23 24  1  6
 23 30  1  0
 24 25  1  0
 25 26  1  0
 26 27  1  6
 26 28  1  0
 28 29  1  0
M  END
