
     RDKit          3D

 30 32  0  0  0  0  0  0  0  0999 V2000
   -8.3640    0.3220    0.7700 C   0  0  0  0  0  0  0  0  0  0  0  0
   -6.8590    0.1950    1.0420 C   0  0  0  0  0  0  0  0  0  0  0  0
   -6.1180    0.8190   -0.0740 C   0  0  2  0  0  0  0  0  0  0  0  0
   -6.5720    0.0320   -1.3530 C   0  0  0  0  0  0  0  0  0  0  0  0
   -4.6400    0.5050   -0.0120 C   0  0  0  0  0  0  0  0  0  0  0  0
   -3.7590    1.1260   -0.8680 C   0  0  0  0  0  0  0  0  0  0  0  0
   -2.4010    0.8320   -0.8540 C   0  0  0  0  0  0  0  0  0  0  0  0
   -1.8450   -0.0860    0.0050 C   0  0  0  0  0  0  0  0  0  0  0  0
   -0.4410   -0.4940    0.0740 C   0  0  1  0  0  0  0  0  0  0  0  0
    0.5390    0.3950    0.7180 C   0  0  2  0  0  0  0  0  0  0  0  0
    0.7030    1.7570    0.0450 C   0  0  0  0  0  0  0  0  0  0  0  0
    1.8140   -0.2640    0.9400 N   0  0  0  0  0  0  0  0  0  0  0  0
    3.1070    0.3130    0.7260 C   0  0  0  0  0  0  0  0  0  0  0  0
    3.1610    1.4590    0.3150 O   0  0  0  0  0  0  0  0  0  0  0  0
    4.3040   -0.5140    1.0050 C   0  0  0  0  0  0  0  0  0  0  0  0
    4.1730   -1.6020    1.6020 O   0  0  0  0  0  0  0  0  0  0  0  0
    5.6120   -0.0730    0.5920 C   0  0  0  0  0  0  0  0  0  0  0  0
    5.9090    1.0360   -0.1420 C   0  0  0  0  0  0  0  0  0  0  0  0
    7.2200    1.3230   -0.5030 C   0  0  0  0  0  0  0  0  0  0  0  0
    8.2820    0.5410   -0.1610 C   0  0  0  0  0  0  0  0  0  0  0  0
    9.6850    0.8250   -0.5670 C   0  0  0  0  0  0  0  0  0  0  0  0
    7.9820   -0.5990    0.5980 C   0  0  0  0  0  0  0  0  0  0  0  0
    6.6930   -0.8870    0.9560 C   0  0  0  0  0  0  0  0  0  0  0  0
   -0.2970   -1.9760    0.4750 C   0  0  0  0  0  0  0  0  0  0  0  0
   -1.2470   -2.5300   -0.5200 N   0  0  0  0  0  0  0  0  0  0  0  0
   -0.9590   -1.8450   -1.7290 C   0  0  0  0  0  0  0  0  0  0  0  0
   -1.4220   -2.1470   -2.8480 O   0  0  0  0  0  0  0  0  0  0  0  0
   -0.0230   -0.7330   -1.4280 C   0  0  0  0  0  0  0  0  0  0  0  0
   -2.7700   -0.6970    0.8660 C   0  0  0  0  0  0  0  0  0  0  0  0
   -4.1180   -0.4150    0.8610 C   0  0  0  0  0  0  0  0  0  0  0  0
  1  2  1  0
  2  3  1  0
  3  4  1  6
  3  5  1  0
  5  6  2  0
  5 30  1  0
  6  7  1  0
  7  8  2  0
  9  8  1  6
  8 29  1  0
  9 10  1  0
  9 24  1  0
  9 28  1  0
 10 11  1  6
 10 12  1  0
 12 13  1  0
 13 14  2  0
 13 15  1  0
 15 16  2  0
 15 17  1  0
 17 18  2  0
 17 23  1  0
 18 19  1  0
 19 20  2  0
 20 21  1  0
 20 22  1  0
 22 23  2  0
 24 25  1  0
 25 26  1  0
 26 27  2  0
 26 28  1  0
 29 30  2  0
M  END
