
     RDKit          3D

 32 35  0  0  0  0  0  0  0  0999 V2000
   -4.0990    2.4560    3.5780 C   0  0  0  0  0  0  0  0  0  0  0  0
   -5.0460    1.9870    2.8690 N   0  0  0  0  0  0  0  0  0  0  0  0
   -4.8670    1.8710    1.4900 N   0  0  0  0  0  0  0  0  0  0  0  0
   -5.4260    2.8560    0.6580 N   0  0  0  0  0  0  0  0  0  0  0  0
   -5.2290    2.7070   -0.7320 C   0  0  0  0  0  0  0  0  0  0  0  0
   -4.5390    1.6720   -1.2410 C   0  0  0  0  0  0  0  0  0  0  0  0
   -3.9540    0.6450   -0.4050 C   0  0  0  0  0  0  0  0  0  0  0  0
   -3.2220   -0.5010   -0.8680 C   0  0  0  0  0  0  0  0  0  0  0  0
   -3.4420   -1.7460   -0.3720 N   0  0  0  0  0  0  0  0  0  0  0  0
   -2.6510   -2.6460   -0.9180 C   0  0  0  0  0  0  0  0  0  0  0  0
   -2.4580   -4.0220   -0.8100 C   0  0  0  0  0  0  0  0  0  0  0  0
   -1.5230   -4.6860   -1.5750 C   0  0  0  0  0  0  0  0  0  0  0  0
   -0.7490   -3.9720   -2.4780 C   0  0  0  0  0  0  0  0  0  0  0  0
   -0.9190   -2.6190   -2.6020 C   0  0  0  0  0  0  0  0  0  0  0  0
   -1.8650   -1.9720   -1.8220 C   0  0  0  0  0  0  0  0  0  0  0  0
   -2.2410   -0.6490   -1.7670 N   0  0  0  0  0  0  0  0  0  0  0  0
   -1.6810    0.4500   -2.4650 C   0  0  0  0  0  0  0  0  0  0  0  0
   -0.7320    1.3470   -1.7510 C   0  0  0  0  0  0  0  0  0  0  0  0
    0.4970    0.7830   -1.2160 C   0  0  0  0  0  0  0  0  0  0  0  0
    0.7560   -0.4210   -1.3010 O   0  0  0  0  0  0  0  0  0  0  0  0
    1.4310    1.6290   -0.5790 N   0  0  0  0  0  0  0  0  0  0  0  0
    2.6670    1.2450   -0.0040 C   0  0  0  0  0  0  0  0  0  0  0  0
    3.5760    2.2580    0.3600 C   0  0  0  0  0  0  0  0  0  0  0  0
    4.7850    2.0080    0.9290 C   0  0  0  0  0  0  0  0  0  0  0  0
    5.1550    0.6810    1.1700 C   0  0  0  0  0  0  0  0  0  0  0  0
    6.3980    0.4160    1.7600 N   0  0  0  0  0  0  0  0  0  0  0  0
    6.8800   -0.9220    1.9700 C   0  0  0  0  0  0  0  0  0  0  0  0
    7.0640   -1.6410    0.6460 C   0  0  0  0  0  0  0  0  0  0  0  0
    4.2990   -0.3420    0.8310 C   0  0  0  0  0  0  0  0  0  0  0  0
    3.0690   -0.0400    0.2490 C   0  0  0  0  0  0  0  0  0  0  0  0
   -4.1430    0.7880    0.9260 C   0  0  0  0  0  0  0  0  0  0  0  0
   -3.5650   -0.2360    1.8440 C   0  0  0  0  0  0  0  0  0  0  0  0
  1  2  2  0
  2  3  1  0
  3  4  1  0
  3 31  1  0
  4  5  1  0
  5  6  2  0
  6  7  1  0
  7  8  1  0
  7 31  2  0
  8  9  2  0
  8 16  1  0
  9 10  1  0
 10 11  2  0
 10 15  1  0
 11 12  1  0
 12 13  2  0
 13 14  1  0
 14 15  2  0
 15 16  1  0
 16 17  1  0
 17 18  1  0
 18 19  1  0
 19 20  2  0
 19 21  1  0
 21 22  1  0
 22 23  2  0
 22 30  1  0
 23 24  1  0
 24 25  2  0
 25 26  1  0
 25 29  1  0
 26 27  1  0
 27 28  1  0
 29 30  2  0
 31 32  1  0
M  END
