
     RDKit          3D

 33 36  0  0  0  0  0  0  0  0999 V2000
   -5.2490    2.0090   -2.3830 C   0  0  0  0  0  0  0  0  0  0  0  0
   -5.3500    1.0110   -1.2870 C   0  0  0  0  0  0  0  0  0  0  0  0
   -6.4110    1.0480   -0.3960 C   0  0  0  0  0  0  0  0  0  0  0  0
   -6.5250    0.1370    0.6240 C   0  0  0  0  0  0  0  0  0  0  0  0
   -5.5560   -0.8330    0.7550 C   0  0  0  0  0  0  0  0  0  0  0  0
   -4.4900   -0.8600   -0.1520 C   0  0  0  0  0  0  0  0  0  0  0  0
   -4.3660    0.0500   -1.1790 C   0  0  0  0  0  0  0  0  0  0  0  0
   -3.4100   -1.8770   -0.0760 C   0  0  0  0  0  0  0  0  0  0  0  0
   -2.7890   -1.9830    1.2130 N   0  0  1  0  0  0  0  0  0  0  0  0
   -2.5340   -0.6680    1.7190 C   0  0  0  0  0  0  0  0  0  0  0  0
   -1.2700   -0.0200    1.3350 C   0  0  0  0  0  0  0  0  0  0  0  0
   -1.0790    1.1670    1.8160 O   0  0  0  0  0  0  0  0  0  0  0  0
   -0.3170   -0.5990    0.5150 N   0  0  0  0  0  0  0  0  0  0  0  0
    0.9210   -0.0140    0.1070 C   0  0  0  0  0  0  0  0  0  0  0  0
    1.8800   -0.8370   -0.4710 C   0  0  0  0  0  0  0  0  0  0  0  0
    3.0790   -0.3250   -0.8950 C   0  0  0  0  0  0  0  0  0  0  0  0
    3.3500    1.0190   -0.7530 C   0  0  0  0  0  0  0  0  0  0  0  0
    2.4270    1.8450   -0.1910 C   0  0  0  0  0  0  0  0  0  0  0  0
    1.2100    1.3110    0.2370 C   0  0  0  0  0  0  0  0  0  0  0  0
    2.9370    3.0870   -0.1750 N   0  0  0  0  0  0  0  0  0  0  0  0
    4.1680    3.0920   -0.7110 C   0  0  0  0  0  0  0  0  0  0  0  0
    4.9700    4.0480   -0.8780 O   0  0  0  0  0  0  0  0  0  0  0  0
    4.4110    1.8030   -1.0660 N   0  0  0  0  0  0  0  0  0  0  0  0
    5.6140    1.3190   -1.6880 C   0  0  0  0  0  0  0  0  0  0  0  0
    6.5880    0.9300   -0.6650 C   0  0  0  0  0  0  0  0  0  0  0  0
    7.3680    1.8220   -0.2310 O   0  0  0  0  0  0  0  0  0  0  0  0
    6.6740   -0.3820   -0.1660 N   0  0  0  0  0  0  0  0  0  0  0  0
    7.6680   -0.7230    0.8610 C   0  0  0  0  0  0  0  0  0  0  0  0
    9.3500   -0.3940    0.2310 S   0  0  0  0  0  0  0  0  0  0  0  0
   -3.4980   -2.7760    2.1720 C   0  0  0  0  0  0  0  0  0  0  0  0
   -4.9300   -2.6770    2.2630 C   0  0  0  0  0  0  0  0  0  0  0  0
   -5.5240   -3.6540    2.8360 O   0  0  0  0  0  0  0  0  0  0  0  0
   -5.7950   -1.6940    1.8340 O   0  0  0  0  0  0  0  0  0  0  0  0
  1  2  1  0
  2  3  2  0
  2  7  1  0
  3  4  1  0
  4  5  2  0
  5  6  1  0
  5 33  1  0
  6  7  2  0
  6  8  1  0
  8  9  1  0
  9 10  1  1
  9 30  1  0
 10 11  1  0
 11 12  2  0
 11 13  1  0
 13 14  1  0
 14 15  2  0
 14 19  1  0
 15 16  1  0
 16 17  2  0
 17 18  1  0
 17 23  1  0
 18 19  2  0
 18 20  1  0
 20 21  1  0
 21 22  2  0
 21 23  1  0
 23 24  1  0
 24 25  1  0
 25 26  2  0
 25 27  1  0
 27 28  1  0
 28 29  1  0
 30 31  1  0
 31 32  2  0
 31 33  1  0
M  CHG  1   9   1
M  END
