
     RDKit          3D

 33 36  0  0  0  0  0  0  0  0999 V2000
   -8.6000   -0.2890   -2.8990 C   0  0  0  0  0  0  0  0  0  0  0  0
   -7.1320   -0.0570   -2.6170 C   0  0  0  0  0  0  0  0  0  0  0  0
   -6.8280   -0.1460   -1.1730 C   0  0  0  0  0  0  0  0  0  0  0  0
   -7.7460   -0.4000   -0.2510 O   0  0  0  0  0  0  0  0  0  0  0  0
   -7.1720   -0.4140    0.9160 N   0  0  0  0  0  0  0  0  0  0  0  0
   -5.8630   -0.1710    0.8100 C   0  0  0  0  0  0  0  0  0  0  0  0
   -5.6250    0.0040   -0.5320 C   0  0  0  0  0  0  0  0  0  0  0  0
   -4.2480    0.2990   -1.0920 C   0  0  0  0  0  0  0  0  0  0  0  0
   -3.3080    0.1420    0.0470 N   0  0  0  0  0  0  0  0  0  0  0  0
   -2.1570   -0.6190   -0.1320 C   0  0  0  0  0  0  0  0  0  0  0  0
   -1.8630   -1.0790   -1.3110 O   0  0  0  0  0  0  0  0  0  0  0  0
   -1.2090   -0.9860    0.8560 N   0  0  0  0  0  0  0  0  0  0  0  0
   -0.0460   -1.7630    0.5560 C   0  0  0  0  0  0  0  0  0  0  0  0
    0.9060   -1.1340   -0.4300 C   0  0  1  0  0  0  0  0  0  0  0  0
    1.3810    0.1940    0.0950 C   0  0  0  0  0  0  0  0  0  0  0  0
    2.6970    0.5680   -0.4080 N   0  0  0  0  0  0  0  0  0  0  0  0
    3.6480    0.1570    0.5740 C   0  0  0  0  0  0  0  0  0  0  0  0
    5.0460    0.4790    0.2680 C   0  0  0  0  0  0  0  0  0  0  0  0
    5.6460    1.2950   -0.6000 C   0  0  0  0  0  0  0  0  0  0  0  0
    6.9930    1.3570   -0.6330 C   0  0  0  0  0  0  0  0  0  0  0  0
    7.7030    0.5900    0.2180 C   0  0  0  0  0  0  0  0  0  0  0  0
    9.1470    0.3700    0.4950 C   0  0  0  0  0  0  0  0  0  0  0  0
    9.6960   -0.6840   -0.3340 N   0  0  0  0  0  0  0  0  0  0  0  0
    6.3360   -0.2690    1.1140 S   0  0  0  0  0  0  0  0  0  0  0  0
    2.8550   -0.1270   -1.6740 C   0  0  0  0  0  0  0  0  0  0  0  0
    2.8900   -1.6300   -1.4980 C   0  0  0  0  0  0  0  0  0  0  0  0
    1.9640   -2.0560   -0.5660 O   0  0  0  0  0  0  0  0  0  0  0  0
   -3.7380    0.8080    1.2200 C   0  0  2  0  0  0  0  0  0  0  0  0
   -2.8010    1.4570    2.0870 C   0  0  0  0  0  0  0  0  0  0  0  0
   -1.6820    1.8310    1.6670 O   0  0  0  0  0  0  0  0  0  0  0  0
   -3.0850    1.6990    3.4220 O   0  0  0  0  0  0  0  0  0  0  0  0
   -2.1550    2.3430    4.2870 C   0  0  0  0  0  0  0  0  0  0  0  0
   -4.8000   -0.0790    1.8370 C   0  0  0  0  0  0  0  0  0  0  0  0
  1  2  1  0
  2  3  1  0
  3  4  1  0
  3  7  2  0
  4  5  1  0
  5  6  2  0
  6  7  1  0
  6 33  1  0
  7  8  1  0
  8  9  1  0
  9 10  1  0
  9 28  1  0
 10 11  2  0
 10 12  1  0
 12 13  1  0
 14 13  1  1
 14 15  1  0
 14 27  1  0
 15 16  1  0
 16 17  1  0
 16 25  1  0
 17 18  1  0
 18 19  2  0
 18 24  1  0
 19 20  1  0
 20 21  2  0
 21 22  1  0
 21 24  1  0
 22 23  1  0
 25 26  1  0
 26 27  1  0
 28 29  1  1
 28 33  1  0
 29 30  2  0
 29 31  1  0
 31 32  1  0
M  CHG  1  23   1
M  END
