
     RDKit          3D

 38 41  0  0  0  0  0  0  0  0999 V2000
   -5.4610    1.4390    2.6820 C   0  0  0  0  0  0  0  0  0  0  0  0
   -5.3370    1.9460    1.2560 C   0  0  0  0  0  0  0  0  0  0  0  0
   -6.2650    1.1540    0.3750 C   0  0  0  0  0  0  0  0  0  0  0  0
   -7.4870    1.7410    0.0220 C   0  0  0  0  0  0  0  0  0  0  0  0
   -8.4240    1.0860   -0.7340 C   0  0  0  0  0  0  0  0  0  0  0  0
   -9.6900    1.7400   -1.0790 C   0  0  0  0  0  0  0  0  0  0  0  0
   -9.9150    3.0540   -0.6140 N   0  0  0  0  0  0  0  0  0  0  0  0
  -10.5100    1.0920   -1.7740 O   0  0  0  0  0  0  0  0  0  0  0  0
   -8.1740   -0.2050   -1.1750 C   0  0  0  0  0  0  0  0  0  0  0  0
   -9.0890   -0.8660   -1.9220 N   0  0  0  0  0  0  0  0  0  0  0  0
   -8.8850   -2.1180   -2.3710 C   0  0  0  0  0  0  0  0  0  0  0  0
   -7.6870   -2.7250   -2.0410 C   0  0  0  0  0  0  0  0  0  0  0  0
   -6.7440   -2.0670   -1.2810 C   0  0  0  0  0  0  0  0  0  0  0  0
   -6.9710   -0.7670   -0.8220 C   0  0  0  0  0  0  0  0  0  0  0  0
   -6.0120   -0.1090   -0.0560 C   0  0  0  0  0  0  0  0  0  0  0  0
   -4.4850   -0.9280    0.2590 S   0  0  0  0  0  0  0  0  0  0  0  0
   -3.2750   -0.8210   -1.0520 C   0  0  1  0  0  0  0  0  0  0  0  0
   -2.7540    0.5770   -1.2000 C   0  0  0  0  0  0  0  0  0  0  0  0
   -1.7140    0.6700   -0.1070 C   0  0  0  0  0  0  0  0  0  0  0  0
   -1.1920   -0.7290    0.0800 C   0  0  2  0  0  0  0  0  0  0  0  0
    0.2080   -0.8360   -0.3030 N   0  0  0  0  0  0  0  0  0  0  0  0
    1.2290   -1.2770    0.5690 C   0  0  0  0  0  0  0  0  0  0  0  0
    0.9320   -1.5970    1.7370 O   0  0  0  0  0  0  0  0  0  0  0  0
    2.5600   -1.3750    0.1910 O   0  0  0  0  0  0  0  0  0  0  0  0
    3.5960   -1.8160    1.0480 C   0  0  0  0  0  0  0  0  0  0  0  0
    4.8770   -1.7720    0.2190 C   0  0  1  0  0  0  0  0  0  0  0  0
    4.6380   -2.6380   -0.8580 O   0  0  0  0  0  0  0  0  0  0  0  0
    5.1000   -0.4010   -0.2960 C   0  0  0  0  0  0  0  0  0  0  0  0
    5.3540    0.5530    0.6630 O   0  0  0  0  0  0  0  0  0  0  0  0
    6.4760    0.3090    1.4300 C   0  0  0  0  0  0  0  0  0  0  0  0
    7.7370    0.2280    0.6190 C   0  0  1  0  0  0  0  0  0  0  0  0
    8.0080    1.3930   -0.0740 O   0  0  0  0  0  0  0  0  0  0  0  0
    9.3220    1.1380   -0.5040 C   0  0  2  0  0  0  0  0  0  0  0  0
    9.2000    0.1000   -1.6020 C   0  0  0  0  0  0  0  0  0  0  0  0
    9.9350    0.5600    0.7500 C   0  0  1  0  0  0  0  0  0  0  0  0
   10.4240    1.7180    1.5860 C   0  0  0  0  0  0  0  0  0  0  0  0
    8.8600   -0.0190    1.4140 O   0  0  0  0  0  0  0  0  0  0  0  0
   -2.0610   -1.6460   -0.7320 C   0  0  0  0  0  0  0  0  0  0  0  0
  1  2  1  0
  2  3  1  0
  3  4  2  0
  3 15  1  0
  4  5  1  0
  5  6  1  0
  5  9  2  0
  6  7  1  0
  6  8  2  0
  9 10  1  0
  9 14  1  0
 10 11  2  0
 11 12  1  0
 12 13  2  0
 13 14  1  0
 14 15  2  0
 15 16  1  0
 17 16  1  1
 17 18  1  0
 17 38  1  0
 18 19  1  0
 19 20  1  0
 20 21  1  6
 20 38  1  0
 21 22  1  0
 22 23  2  0
 22 24  1  0
 24 25  1  0
 25 26  1  0
 26 27  1  6
 26 28  1  0
 28 29  1  0
 29 30  1  0
 31 30  1  1
 31 32  1  0
 31 37  1  0
 32 33  1  0
 33 34  1  6
 33 35  1  0
 35 36  1  1
 35 37  1  0
M  END
