
     RDKit          3D

 38 41  0  0  0  0  0  0  0  0999 V2000
    4.6030    0.7990   -1.8410 C   0  0  0  0  0  0  0  0  0  0  0  0
    3.3890    1.3390   -1.2110 C   0  0  0  0  0  0  0  0  0  0  0  0
    2.8970    2.5090   -1.7200 O   0  0  0  0  0  0  0  0  0  0  0  0
    2.7960    0.7250   -0.1990 C   0  0  0  0  0  0  0  0  0  0  0  0
    1.6340    1.1870    0.4430 C   0  0  0  0  0  0  0  0  0  0  0  0
    0.5800    1.5480    1.0690 C   0  0  0  0  0  0  0  0  0  0  0  0
   -0.1070    2.8180    0.7240 C   0  0  0  0  0  0  0  0  0  0  0  0
   -1.1650    3.0750    1.4180 O   0  0  0  0  0  0  0  0  0  0  0  0
    0.2160    3.7750   -0.2210 N   0  0  0  0  0  0  0  0  0  0  0  0
   -0.4850    5.0090   -0.4680 C   0  0  0  0  0  0  0  0  0  0  0  0
   -1.8910    4.9150   -0.8480 C   0  0  0  0  0  0  0  0  0  0  0  0
   -2.7140    3.8620   -0.5850 N   0  0  0  0  0  0  0  0  0  0  0  0
   -4.0000    3.8640   -0.9690 C   0  0  0  0  0  0  0  0  0  0  0  0
   -4.7260    2.8800   -0.7090 O   0  0  0  0  0  0  0  0  0  0  0  0
   -4.5690    4.9050   -1.6410 C   0  0  0  0  0  0  0  0  0  0  0  0
   -3.7180    6.0120   -1.9230 C   0  0  0  0  0  0  0  0  0  0  0  0
   -2.4720    5.9250   -1.5100 N   0  0  0  0  0  0  0  0  0  0  0  0
   -0.0960    0.7420    2.1430 C   0  0  2  0  0  0  0  0  0  0  0  0
    0.7550   -0.0970    2.7670 O   0  0  0  0  0  0  0  0  0  0  0  0
   -1.3900    0.2640    1.7020 C   0  0  0  0  0  0  0  0  0  0  0  0
   -2.3520   -0.4860    2.3610 C   0  0  0  0  0  0  0  0  0  0  0  0
   -3.4750   -0.8030    1.7130 C   0  0  0  0  0  0  0  0  0  0  0  0
   -3.5980   -0.3340    0.3690 C   0  0  0  0  0  0  0  0  0  0  0  0
   -2.1350    0.5080    0.1190 S   0  0  0  0  0  0  0  0  0  0  0  0
   -4.8650   -0.7040   -0.3360 C   0  0  0  0  0  0  0  0  0  0  0  0
   -4.9910   -2.1990   -0.2490 C   0  0  0  0  0  0  0  0  0  0  0  0
   -4.8450   -2.6920    1.1340 C   0  0  2  0  0  0  0  0  0  0  0  0
   -5.9500   -3.6470    1.5500 C   0  0  0  0  0  0  0  0  0  0  0  0
   -4.6980   -1.5560    2.1110 C   0  0  0  0  0  0  0  0  0  0  0  0
    3.5470   -0.4670    0.3370 C   0  0  0  0  0  0  0  0  0  0  0  0
    3.0230   -1.1700    1.2650 O   0  0  0  0  0  0  0  0  0  0  0  0
    4.7590   -0.8070   -0.1180 O   0  0  0  0  0  0  0  0  0  0  0  0
    5.4760   -1.9200    0.3850 C   0  0  0  0  0  0  0  0  0  0  0  0
    4.7080   -3.1860    0.0140 C   0  0  2  0  0  0  0  0  0  0  0  0
    5.4680   -4.3930    0.4210 C   0  0  0  0  0  0  0  0  0  0  0  0
    5.9090   -5.0030   -0.9220 C   0  0  0  0  0  0  0  0  0  0  0  0
    5.8830   -3.7400   -1.7640 C   0  0  0  0  0  0  0  0  0  0  0  0
    4.6680   -3.1370   -1.4000 O   0  0  0  0  0  0  0  0  0  0  0  0
  1  2  1  0
  2  3  1  0
  2  4  2  3
  4  5  1  0
  4 30  1  0
  5  6  2  3
  6  7  1  0
  6 18  1  0
  7  8  2  0
  7  9  1  0
  9 10  1  0
 10 11  1  0
 11 12  2  0
 11 17  1  0
 12 13  1  0
 13 14  2  0
 13 15  1  0
 15 16  2  0
 16 17  1  0
 18 19  1  6
 18 20  1  0
 20 21  2  0
 20 24  1  0
 21 22  1  0
 22 23  2  0
 22 29  1  0
 23 24  1  0
 23 25  1  0
 25 26  1  0
 26 27  1  0
 27 28  1  1
 27 29  1  0
 30 31  2  0
 30 32  1  0
 32 33  1  0
 34 33  1  6
 34 35  1  0
 34 38  1  0
 35 36  1  0
 36 37  1  0
 37 38  1  0
M  END
