
     RDKit          3D

 38 41  0  0  0  0  0  0  0  0999 V2000
   -7.6210   -4.1890    0.1720 C   0  0  0  0  0  0  0  0  0  0  0  0
   -8.3670   -3.1740    0.7730 O   0  0  0  0  0  0  0  0  0  0  0  0
   -8.0430   -1.8350    0.7390 C   0  0  0  0  0  0  0  0  0  0  0  0
   -6.8960   -1.4280    0.0650 C   0  0  0  0  0  0  0  0  0  0  0  0
   -6.5610   -0.0940    0.0230 C   0  0  0  0  0  0  0  0  0  0  0  0
   -5.3720    0.4020   -0.6630 C   0  0  0  0  0  0  0  0  0  0  0  0
   -5.1880    1.6560   -0.6470 O   0  0  0  0  0  0  0  0  0  0  0  0
   -4.4630   -0.4610   -1.3160 N   0  0  0  0  0  0  0  0  0  0  0  0
   -3.2880    0.0050   -1.9930 C   0  0  0  0  0  0  0  0  0  0  0  0
   -2.3130    0.7360   -1.0870 C   0  0  2  0  0  0  0  0  0  0  0  0
   -1.1490    1.2850   -1.8360 C   0  0  0  0  0  0  0  0  0  0  0  0
   -0.0180    1.4700   -0.9410 N   0  0  0  0  0  0  0  0  0  0  0  0
    1.2690    1.5300   -1.5370 C   0  0  0  0  0  0  0  0  0  0  0  0
    1.3040    1.4170   -2.8260 O   0  0  0  0  0  0  0  0  0  0  0  0
    2.5710    1.7000   -0.9250 C   0  0  2  0  0  0  0  0  0  0  0  0
    3.4980    0.4960   -1.2010 C   0  0  0  0  0  0  0  0  0  0  0  0
    4.6280    0.9230   -0.2480 C   0  0  2  0  0  0  0  0  0  0  0  0
    5.5490   -0.1730    0.0410 C   0  0  0  0  0  0  0  0  0  0  0  0
    6.3070   -0.2310    1.1900 C   0  0  0  0  0  0  0  0  0  0  0  0
    7.1780   -1.2730    1.4500 C   0  0  0  0  0  0  0  0  0  0  0  0
    7.3200   -2.3080    0.5500 C   0  0  0  0  0  0  0  0  0  0  0  0
    8.2600   -3.4400    0.8220 C   0  0  0  0  0  0  0  0  0  0  0  0
    9.9170   -3.0640    0.1670 S   0  0  0  0  0  0  0  0  0  0  0  0
   10.6460   -1.6740    1.0800 C   0  0  0  0  0  0  0  0  0  0  0  0
    6.5640   -2.2560   -0.6030 C   0  0  0  0  0  0  0  0  0  0  0  0
    5.6910   -1.2060   -0.8550 C   0  0  0  0  0  0  0  0  0  0  0  0
    3.8140    1.3300    0.8760 N   0  0  0  0  0  0  0  0  0  0  0  0
    2.6720    1.8120    0.4160 O   0  0  0  0  0  0  0  0  0  0  0  0
   -0.2250    1.5860    0.4680 C   0  0  1  0  0  0  0  0  0  0  0  0
   -0.3020    2.9770    1.0030 C   0  0  0  0  0  0  0  0  0  0  0  0
   -1.3980    3.8300    0.4470 C   0  0  0  0  0  0  0  0  0  0  0  0
   -1.3380    5.1240    1.0310 O   0  0  0  0  0  0  0  0  0  0  0  0
   -1.4340    0.8090    0.9430 C   0  0  0  0  0  0  0  0  0  0  0  0
   -1.8640   -0.0730   -0.0570 O   0  0  0  0  0  0  0  0  0  0  0  0
   -7.4230    0.7840    0.6800 C   0  0  0  0  0  0  0  0  0  0  0  0
   -8.5510    0.3880    1.3430 C   0  0  0  0  0  0  0  0  0  0  0  0
   -8.8600   -0.9490    1.3680 C   0  0  0  0  0  0  0  0  0  0  0  0
  -10.0050   -1.3760    2.0380 O   0  0  0  0  0  0  0  0  0  0  0  0
  1  2  1  0
  2  3  1  0
  3  4  2  0
  3 37  1  0
  4  5  1  0
  5  6  1  0
  5 35  2  0
  6  7  2  0
  6  8  1  0
  8  9  1  0
 10  9  1  6
 10 11  1  0
 10 34  1  0
 11 12  1  0
 12 13  1  0
 12 29  1  0
 13 14  2  0
 15 13  1  1
 15 16  1  0
 15 28  1  0
 16 17  1  0
 17 18  1  1
 17 27  1  0
 18 19  2  0
 18 26  1  0
 19 20  1  0
 20 21  2  0
 21 22  1  0
 21 25  1  0
 22 23  1  0
 23 24  1  0
 25 26  2  0
 27 28  1  0
 29 30  1  6
 29 33  1  0
 30 31  1  0
 31 32  1  0
 33 34  1  0
 35 36  1  0
 36 37  2  0
 37 38  1  0
M  END
