
     RDKit          3D

 38 41  0  0  0  0  0  0  0  0999 V2000
    5.6540   -0.5080   -1.7220 C   0  0  0  0  0  0  0  0  0  0  0  0
    5.2650    0.3570   -0.5140 C   0  0  1  0  0  0  0  0  0  0  0  0
    4.1520   -0.2370    0.0640 O   0  0  0  0  0  0  0  0  0  0  0  0
    2.9060    0.3460    0.2150 C   0  0  0  0  0  0  0  0  0  0  0  0
    2.7730    1.5170   -0.2090 O   0  0  0  0  0  0  0  0  0  0  0  0
    1.8640   -0.4720    0.8600 C   0  0  0  0  0  0  0  0  0  0  0  0
    0.5170    0.1680    0.9180 C   0  0  1  0  0  0  0  0  0  0  0  0
    0.6250    1.4130    1.6410 N   0  0  0  0  0  0  0  0  0  0  0  0
    0.0990    2.4260    0.8180 C   0  0  0  0  0  0  0  0  0  0  0  0
    0.3230    3.6440    0.9330 O   0  0  0  0  0  0  0  0  0  0  0  0
   -0.7510    1.7960   -0.1920 C   0  0  0  0  0  0  0  0  0  0  0  0
   -0.2150    0.3580   -0.3390 C   0  0  1  0  0  0  0  0  0  0  0  0
    0.5190    0.3160   -1.6200 C   0  0  0  0  0  0  0  0  0  0  0  0
   -1.4380   -0.5650   -0.4570 C   0  0  2  0  0  0  0  0  0  0  0  0
   -2.3770   -0.2820    0.6220 N   0  0  0  0  0  0  0  0  0  0  0  0
   -3.6950    0.2460    0.3650 C   0  0  0  0  0  0  0  0  0  0  0  0
   -3.9930    0.4540   -0.8060 O   0  0  0  0  0  0  0  0  0  0  0  0
   -4.6150    0.5200    1.3840 N   0  0  0  0  0  0  0  0  0  0  0  0
   -5.9120    1.0310    1.2680 C   0  0  0  0  0  0  0  0  0  0  0  0
   -6.5140    1.3690    0.1470 C   0  0  0  0  0  0  0  0  0  0  0  0
   -7.9010    1.9100    0.0700 C   0  0  0  0  0  0  0  0  0  0  0  0
   -8.5250    2.0210    1.3050 O   0  0  0  0  0  0  0  0  0  0  0  0
   -7.9340    1.6800    2.5050 C   0  0  0  0  0  0  0  0  0  0  0  0
   -6.7140    1.2170    2.5030 C   0  0  0  0  0  0  0  0  0  0  0  0
   -1.0330   -1.8890   -0.4200 O   0  0  0  0  0  0  0  0  0  0  0  0
   -1.3000   -2.6680   -1.4920 C   0  0  0  0  0  0  0  0  0  0  0  0
   -2.7200   -2.7660   -1.7630 C   0  0  0  0  0  0  0  0  0  0  0  0
   -3.5670   -2.1780   -2.6160 C   0  0  0  0  0  0  0  0  0  0  0  0
   -4.8640   -2.4700   -2.6490 C   0  0  0  0  0  0  0  0  0  0  0  0
   -5.3240   -3.4090   -1.7690 C   0  0  0  0  0  0  0  0  0  0  0  0
   -3.8640   -3.8900   -0.8670 S   0  0  0  0  0  0  0  0  0  0  0  0
    6.4310    0.2790    0.4070 C   0  0  0  0  0  0  0  0  0  0  0  0
    7.2210    1.3920    0.5950 C   0  0  0  0  0  0  0  0  0  0  0  0
    8.2990    1.2850    1.4580 C   0  0  0  0  0  0  0  0  0  0  0  0
    8.5330    0.0750    2.0880 C   0  0  0  0  0  0  0  0  0  0  0  0
    9.6260    0.0230    2.9420 O   0  0  0  0  0  0  0  0  0  0  0  0
    7.7450   -1.0290    1.8970 C   0  0  0  0  0  0  0  0  0  0  0  0
    6.6710   -0.9290    1.0400 C   0  0  0  0  0  0  0  0  0  0  0  0
  2  1  1  6
  2  3  1  0
  2 32  1  0
  3  4  1  0
  4  5  2  0
  4  6  1  0
  7  6  1  6
  7  8  1  0
  7 12  1  0
  8  9  1  0
  9 10  2  0
  9 11  1  0
 11 12  1  0
 12 13  1  6
 12 14  1  0
 14 15  1  1
 14 25  1  0
 15 16  1  0
 16 17  2  0
 16 18  1  0
 18 19  1  0
 19 20  2  0
 19 24  1  0
 20 21  1  0
 21 22  1  0
 22 23  1  0
 23 24  2  0
 25 26  1  0
 26 27  1  0
 27 28  2  0
 27 31  1  0
 28 29  1  0
 29 30  2  0
 30 31  1  0
 32 33  2  0
 32 38  1  0
 33 34  1  0
 34 35  2  0
 35 36  1  0
 35 37  1  0
 37 38  2  0
M  END
