
     RDKit          3D

 33 37  0  0  0  0  0  0  0  0999 V2000
    5.9750   -2.1230   -0.4130 C   0  0  0  0  0  0  0  0  0  0  0  0
    4.6250   -1.5790   -0.2720 C   0  0  0  0  0  0  0  0  0  0  0  0
    3.5760   -2.4420   -0.3970 C   0  0  0  0  0  0  0  0  0  0  0  0
    3.8800   -4.1430   -0.6640 Cl  0  0  0  0  0  0  0  0  0  0  0  0
    2.3520   -1.9370   -0.2970 N   0  0  0  0  0  0  0  0  0  0  0  0
    2.0680   -0.6280   -0.0840 C   0  0  0  0  0  0  0  0  0  0  0  0
    0.7640   -0.1070   -0.1510 C   0  0  0  0  0  0  0  0  0  0  0  0
   -0.3940    0.3410   -0.2100 O   0  0  0  0  0  0  0  0  0  0  0  0
   -1.5730    0.8160   -0.2720 C   0  0  0  0  0  0  0  0  0  0  0  0
   -1.7340    2.2120   -0.4940 C   0  0  0  0  0  0  0  0  0  0  0  0
   -2.9510    2.7530   -0.5780 C   0  0  0  0  0  0  0  0  0  0  0  0
   -3.1870    4.2140   -0.8080 C   0  0  0  0  0  0  0  0  0  0  0  0
   -4.0870    4.9320   -0.9640 N   0  0  0  0  0  0  0  0  0  0  0  0
   -4.0730    6.2390   -1.1570 C   0  0  0  0  0  0  0  0  0  0  0  0
   -2.8480    6.8030   -1.1730 C   0  0  0  0  0  0  0  0  0  0  0  0
   -1.7420    5.4020   -0.9010 S   0  0  0  0  0  0  0  0  0  0  0  0
   -4.0720    1.9740   -0.4510 C   0  0  0  0  0  0  0  0  0  0  0  0
   -3.9760    0.6370   -0.2340 C   0  0  0  0  0  0  0  0  0  0  0  0
   -2.7150    0.0740   -0.1440 C   0  0  0  0  0  0  0  0  0  0  0  0
   -2.5710   -1.3250    0.0980 O   0  0  0  0  0  0  0  0  0  0  0  0
   -3.7990   -1.9920    0.2590 C   0  0  0  0  0  0  0  0  0  0  0  0
   -3.7310   -3.4200    0.5830 C   0  0  0  0  0  0  0  0  0  0  0  0
   -4.2550   -4.4280   -0.1860 C   0  0  0  0  0  0  0  0  0  0  0  0
   -4.2120   -5.7540    0.1780 C   0  0  0  0  0  0  0  0  0  0  0  0
   -3.6070   -6.0130    1.3830 C   0  0  0  0  0  0  0  0  0  0  0  0
   -3.0830   -5.0590    2.1630 N   0  0  0  0  0  0  0  0  0  0  0  0
   -3.1220   -3.7440    1.7990 C   0  0  0  0  0  0  0  0  0  0  0  0
    3.1740    0.2360    0.0470 C   0  0  0  0  0  0  0  0  0  0  0  0
    4.4520   -0.2210   -0.0460 C   0  0  0  0  0  0  0  0  0  0  0  0
    5.6390    0.6540    0.1180 C   0  0  0  0  0  0  0  0  0  0  0  0
    5.1900    1.7240    1.1150 C   0  0  0  0  0  0  0  0  0  0  0  0
    4.0590    2.4610    0.5690 N   0  0  0  0  0  0  0  0  0  0  0  0
    2.9060    1.6500    0.3120 C   0  0  0  0  0  0  0  0  0  0  0  0
  1  2  1  0
  2  3  2  0
  2 29  1  0
  3  4  1  0
  3  5  1  0
  5  6  2  0
  6  7  1  0
  6 28  1  0
  7  8  1  0
  8  9  1  0
  9 10  2  0
  9 19  1  0
 10 11  1  0
 11 12  1  0
 11 17  2  0
 12 13  2  0
 12 16  1  0
 13 14  1  0
 14 15  2  0
 15 16  1  0
 17 18  1  0
 18 19  2  0
 19 20  1  0
 20 21  1  0
 21 22  1  0
 22 23  2  0
 22 27  1  0
 23 24  1  0
 24 25  2  0
 25 26  1  0
 26 27  2  0
 28 29  2  0
 28 33  1  0
 29 30  1  0
 30 31  1  0
 31 32  1  0
 32 33  1  0
M  CHG  1  32   1
M  END
