
     RDKit          3D

 33 37  0  0  0  0  0  0  0  0999 V2000
    7.0420    2.8690    0.1920 C   0  0  0  0  0  0  0  0  0  0  0  0
    7.5920    1.5010    0.5430 C   0  0  0  0  0  0  0  0  0  0  0  0
    8.9690    1.4200    0.6920 N   0  0  0  0  0  0  0  0  0  0  0  0
    9.2840   -0.3350    1.1060 S   0  0  0  0  0  0  0  0  0  0  0  0
    7.5550   -0.7790    1.0380 C   0  0  0  0  0  0  0  0  0  0  0  0
    6.9080    0.3730    0.7240 C   0  0  0  0  0  0  0  0  0  0  0  0
    5.3930    0.3580    0.5830 C   0  0  0  0  0  0  0  0  0  0  0  0
    4.8410   -0.9230    0.8030 N   0  0  0  0  0  0  0  0  0  0  0  0
    3.5530   -1.0370    0.1560 C   0  0  0  0  0  0  0  0  0  0  0  0
    2.4170   -0.6300    0.8170 C   0  0  0  0  0  0  0  0  0  0  0  0
    1.1620   -0.7320    0.2090 C   0  0  0  0  0  0  0  0  0  0  0  0
    1.1230   -1.2490   -1.0580 C   0  0  0  0  0  0  0  0  0  0  0  0
    2.2490   -1.6640   -1.7400 C   0  0  0  0  0  0  0  0  0  0  0  0
    3.4730   -1.5570   -1.1280 C   0  0  0  0  0  0  0  0  0  0  0  0
    4.9300   -2.0650   -1.9400 Cl  0  0  0  0  0  0  0  0  0  0  0  0
   -0.2910   -1.2610   -1.4910 C   0  0  0  0  0  0  0  0  0  0  0  0
   -1.0280   -0.7040   -0.3550 C   0  0  0  0  0  0  0  0  0  0  0  0
   -2.3620   -0.5240   -0.3040 C   0  0  0  0  0  0  0  0  0  0  0  0
   -2.9800    0.0280    0.8550 C   0  0  0  0  0  0  0  0  0  0  0  0
   -2.1310    0.3160    1.7980 O   0  0  0  0  0  0  0  0  0  0  0  0
   -4.3450    0.3070    1.1360 C   0  0  0  0  0  0  0  0  0  0  0  0
   -4.6630    0.8680    2.3950 C   0  0  0  0  0  0  0  0  0  0  0  0
   -5.9350    1.1850    2.7900 C   0  0  0  0  0  0  0  0  0  0  0  0
   -6.9890    0.9570    1.9380 C   0  0  0  0  0  0  0  0  0  0  0  0
   -6.7240    0.4210    0.7220 C   0  0  0  0  0  0  0  0  0  0  0  0
   -5.4060    0.0930    0.3140 C   0  0  0  0  0  0  0  0  0  0  0  0
   -5.2850   -0.4660   -0.9930 N   0  0  0  0  0  0  0  0  0  0  0  0
   -5.3630   -1.7810   -1.3460 C   0  0  0  0  0  0  0  0  0  0  0  0
   -5.2590   -1.8640   -2.7170 C   0  0  0  0  0  0  0  0  0  0  0  0
   -5.1190   -0.5830   -3.1520 N   0  0  0  0  0  0  0  0  0  0  0  0
   -5.1350    0.2650   -2.1100 C   0  0  0  0  0  0  0  0  0  0  0  0
   -5.0070    1.7500   -2.1880 C   0  0  0  0  0  0  0  0  0  0  0  0
   -0.1120   -0.4040    0.6370 O   0  0  0  0  0  0  0  0  0  0  0  0
  1  2  1  0
  2  3  2  0
  2  6  1  0
  3  4  1  0
  4  5  1  0
  5  6  2  0
  6  7  1  0
  7  8  1  0
  8  9  1  0
  9 10  2  0
  9 14  1  0
 10 11  1  0
 11 12  2  0
 11 33  1  0
 12 13  1  0
 12 16  1  0
 13 14  2  0
 14 15  1  0
 16 17  1  0
 17 18  2  3
 17 33  1  0
 18 19  1  0
 19 20  2  0
 19 21  1  0
 21 22  2  0
 21 26  1  0
 22 23  1  0
 23 24  2  0
 24 25  1  0
 25 26  2  0
 26 27  1  0
 27 28  1  0
 27 31  1  0
 28 29  2  0
 29 30  1  0
 30 31  2  0
 31 32  1  0
M  CHG  1   8   1
M  END
