
     RDKit          3D

 33 37  0  0  0  0  0  0  0  0999 V2000
    3.1530   -3.8570   -1.1250 C   0  0  0  0  0  0  0  0  0  0  0  0
    2.9940   -2.4600   -1.6980 C   0  0  0  0  0  0  0  0  0  0  0  0
    1.8960   -1.7460   -0.9290 C   0  0  2  0  0  0  0  0  0  0  0  0
    0.5880   -2.4060   -1.0050 C   0  0  2  0  0  0  0  0  0  0  0  0
   -0.3270   -1.4570   -1.7400 C   0  0  2  0  0  0  0  0  0  0  0  0
    0.4830   -0.2670   -1.9660 C   0  0  0  0  0  0  0  0  0  0  0  0
    0.1170    0.7560   -2.6350 O   0  0  0  0  0  0  0  0  0  0  0  0
    1.7460   -0.3830   -1.3440 N   0  0  0  0  0  0  0  0  0  0  0  0
    2.7470    0.6890   -1.1640 C   0  0  0  0  0  0  0  0  0  0  0  0
    2.5820    1.4340    0.0790 C   0  0  0  0  0  0  0  0  0  0  0  0
    1.7570    2.5290    0.1850 C   0  0  0  0  0  0  0  0  0  0  0  0
    1.6180    3.2330    1.3700 C   0  0  0  0  0  0  0  0  0  0  0  0
    2.3170    2.8440    2.4870 C   0  0  0  0  0  0  0  0  0  0  0  0
    3.1480    1.7510    2.4040 C   0  0  0  0  0  0  0  0  0  0  0  0
    3.2690    1.0650    1.2110 C   0  0  0  0  0  0  0  0  0  0  0  0
    3.7120    1.5980    3.6740 O   0  0  0  0  0  0  0  0  0  0  0  0
    3.6400    2.8820    4.3200 C   0  0  0  0  0  0  0  0  0  0  0  0
    2.3840    3.3480    3.8040 O   0  0  0  0  0  0  0  0  0  0  0  0
   -1.5010   -1.2560   -0.8390 C   0  0  2  0  0  0  0  0  0  0  0  0
   -2.2120    0.0030   -0.9700 C   0  0  0  0  0  0  0  0  0  0  0  0
   -3.4170    0.0750   -1.6310 C   0  0  0  0  0  0  0  0  0  0  0  0
   -4.1050    1.2900   -1.7570 C   0  0  0  0  0  0  0  0  0  0  0  0
   -3.6030    2.4420   -1.2270 C   0  0  0  0  0  0  0  0  0  0  0  0
   -4.2810    3.7300   -1.3350 C   0  0  0  0  0  0  0  0  0  0  0  0
   -3.6840    4.8760   -0.7470 N   0  0  0  0  0  0  0  0  0  0  0  0
   -5.3900    3.8770   -1.9340 N   0  0  0  0  0  0  0  0  0  0  0  0
   -2.3830    2.3720   -0.5560 C   0  0  0  0  0  0  0  0  0  0  0  0
   -1.7290    1.1750   -0.4450 C   0  0  0  0  0  0  0  0  0  0  0  0
   -0.9500   -1.4910    0.5070 N   0  0  1  0  0  0  0  0  0  0  0  0
   -2.0410   -1.7040    1.4400 C   0  0  0  0  0  0  0  0  0  0  0  0
   -0.1510   -2.6450    0.2720 C   0  0  1  0  0  0  0  0  0  0  0  0
   -1.0940   -3.8250   -0.0010 C   0  0  0  0  0  0  0  0  0  0  0  0
    0.7120   -3.0520    1.4320 C   0  0  0  0  0  0  0  0  0  0  0  0
  1  2  1  0
  3  2  1  6
  4  3  1  1
  3  8  1  0
  4  5  1  0
  4 31  1  0
  5  6  1  1
  5 19  1  0
  6  7  2  0
  6  8  1  0
  8  9  1  0
  9 10  1  0
 10 11  2  0
 10 15  1  0
 11 12  1  0
 12 13  2  0
 13 14  1  0
 13 18  1  0
 14 15  2  0
 14 16  1  0
 16 17  1  0
 17 18  1  0
 19 20  1  1
 19 29  1  0
 20 21  2  0
 20 28  1  0
 21 22  1  0
 22 23  2  0
 23 24  1  0
 23 27  1  0
 24 25  1  0
 24 26  2  0
 27 28  2  0
 29 30  1  1
 29 31  1  0
 31 32  1  6
 31 33  1  0
M  CHG  2  26   1  29   1
M  END
