
     RDKit          3D

 33 37  0  0  0  0  0  0  0  0999 V2000
   -2.9540   -4.1870   -0.4570 C   0  0  0  0  0  0  0  0  0  0  0  0
   -3.2760   -3.9930    0.9800 C   0  0  0  0  0  0  0  0  0  0  0  0
   -3.4880   -2.8540    1.4970 N   0  0  0  0  0  0  0  0  0  0  0  0
   -3.4590   -1.6250    0.8380 C   0  0  0  0  0  0  0  0  0  0  0  0
   -2.2820   -0.9300    0.7430 C   0  0  0  0  0  0  0  0  0  0  0  0
   -1.0860   -1.5290    1.3270 C   0  0  0  0  0  0  0  0  0  0  0  0
    0.1170   -0.7410    1.2420 N   0  0  0  0  0  0  0  0  0  0  0  0
    0.1850    0.4790    1.9470 C   0  0  0  0  0  0  0  0  0  0  0  0
   -0.7970    0.8400    2.6340 O   0  0  0  0  0  0  0  0  0  0  0  0
    1.3580    1.3040    1.8860 C   0  0  0  0  0  0  0  0  0  0  0  0
    1.6670    2.5080    2.4690 C   0  0  0  0  0  0  0  0  0  0  0  0
    2.8770    2.8490    2.0970 N   0  0  0  0  0  0  0  0  0  0  0  0
    3.4310    1.9000    1.2590 N   0  0  0  0  0  0  0  0  0  0  0  0
    2.4880    0.9850    1.1540 C   0  0  0  0  0  0  0  0  0  0  0  0
    3.2180   -0.2220    0.0750 S   0  0  0  0  0  0  0  0  0  0  0  0
    4.8190    0.6780   -0.1440 C   0  0  0  0  0  0  0  0  0  0  0  0
    5.9200    0.3700   -0.8560 C   0  0  0  0  0  0  0  0  0  0  0  0
    6.9840    1.2490   -0.8310 C   0  0  0  0  0  0  0  0  0  0  0  0
    8.1260    0.9600   -1.5500 O   0  0  0  0  0  0  0  0  0  0  0  0
    8.2840   -0.2000   -2.3290 C   0  0  0  0  0  0  0  0  0  0  0  0
    6.8330    2.3810   -0.0730 C   0  0  0  0  0  0  0  0  0  0  0  0
    5.6980    2.6640    0.6390 C   0  0  0  0  0  0  0  0  0  0  0  0
    4.5780    1.7720    0.6340 C   0  0  0  0  0  0  0  0  0  0  0  0
   -2.2030    0.2820    0.1040 C   0  0  0  0  0  0  0  0  0  0  0  0
   -3.3480    0.8700   -0.4890 C   0  0  0  0  0  0  0  0  0  0  0  0
   -3.2250    2.0190   -1.0820 C   0  0  0  0  0  0  0  0  0  0  0  0
   -4.2490    2.8280   -1.7660 C   0  0  0  0  0  0  0  0  0  0  0  0
   -4.5540    0.1740   -0.4010 C   0  0  0  0  0  0  0  0  0  0  0  0
   -4.5790   -1.0620    0.2630 C   0  0  0  0  0  0  0  0  0  0  0  0
   -5.9670   -1.5280    0.1840 C   0  0  0  0  0  0  0  0  0  0  0  0
   -6.5170   -3.0430    0.8730 Cl  0  0  0  0  0  0  0  0  0  0  0  0
   -6.7040   -0.6680   -0.4600 C   0  0  0  0  0  0  0  0  0  0  0  0
   -5.7750    0.4260   -0.8300 C   0  0  0  0  0  0  0  0  0  0  0  0
  1  2  1  0
  2  3  2  3
  3  4  1  0
  4  5  1  0
  4 29  2  0
  5  6  1  0
  5 24  2  0
  6  7  1  0
  7  8  1  0
  8  9  2  0
  8 10  1  0
 10 11  1  0
 10 14  2  0
 11 12  2  0
 12 13  1  0
 13 14  1  0
 13 23  1  0
 14 15  1  0
 15 16  1  0
 16 17  2  0
 16 23  1  0
 17 18  1  0
 18 19  1  0
 18 21  2  0
 19 20  1  0
 21 22  1  0
 22 23  2  0
 24 25  1  0
 25 26  2  3
 25 28  1  0
 26 27  1  0
 28 29  1  0
 28 33  2  0
 29 30  1  0
 30 31  1  0
 30 32  2  0
 32 33  1  0
M  CHG  1   3   1
M  END
