
     RDKit          3D

 33 35  0  0  0  0  0  0  0  0999 V2000
    7.6090   -3.6930   -1.8470 C   0  0  0  0  0  0  0  0  0  0  0  0
    7.6450   -3.2910   -0.3970 C   0  0  0  0  0  0  0  0  0  0  0  0
    6.5070   -2.4960   -0.1280 O   0  0  0  0  0  0  0  0  0  0  0  0
    6.2640   -1.3000   -0.7890 C   0  0  0  0  0  0  0  0  0  0  0  0
    7.1080   -0.9470   -1.6490 O   0  0  0  0  0  0  0  0  0  0  0  0
    5.0900   -0.4900   -0.5040 C   0  0  0  0  0  0  0  0  0  0  0  0
    4.9070    0.6880   -1.1970 C   0  0  0  0  0  0  0  0  0  0  0  0
    3.7860    1.4170   -0.8950 C   0  0  0  0  0  0  0  0  0  0  0  0
    2.8480    1.0440    0.0460 C   0  0  0  0  0  0  0  0  0  0  0  0
    1.7710    1.9310    0.2390 N   0  0  0  0  0  0  0  0  0  0  0  0
    0.4640    1.5020    0.7360 C   0  0  0  0  0  0  0  0  0  0  0  0
    0.4510    0.3070    0.9280 O   0  0  0  0  0  0  0  0  0  0  0  0
   -0.5670    2.4600    0.9490 C   0  0  0  0  0  0  0  0  0  0  0  0
   -1.7510    2.0900    1.3120 C   0  0  0  0  0  0  0  0  0  0  0  0
   -2.1470    0.7450    1.4840 C   0  0  0  0  0  0  0  0  0  0  0  0
   -3.2660    0.5780    2.1970 O   0  0  0  0  0  0  0  0  0  0  0  0
   -1.7240   -0.5210    1.0990 N   0  0  0  0  0  0  0  0  0  0  0  0
   -2.3680   -1.7940    1.4930 C   0  0  0  0  0  0  0  0  0  0  0  0
   -3.7670   -1.9370    0.9940 C   0  0  0  0  0  0  0  0  0  0  0  0
   -3.9080   -1.8940   -0.5070 C   0  0  1  0  0  0  0  0  0  0  0  0
   -5.4080   -2.0760   -0.8090 C   0  0  0  0  0  0  0  0  0  0  0  0
   -5.5300   -1.4620   -2.1660 C   0  0  0  0  0  0  0  0  0  0  0  0
   -4.4990   -0.4820   -2.3060 N   0  0  0  0  0  0  0  0  0  0  0  0
   -3.7180   -0.5030   -1.0760 C   0  0  0  0  0  0  0  0  0  0  0  0
   -2.9310    3.0470    1.5720 C   0  0  0  0  0  0  0  0  0  0  0  0
   -3.8830    2.5500    2.4730 N   0  0  0  0  0  0  0  0  0  0  0  0
   -3.1220    4.2020    1.0810 N   0  0  0  0  0  0  0  0  0  0  0  0
   -2.3480    4.9670    0.1720 N   0  0  0  0  0  0  0  0  0  0  0  0
   -0.9010    4.9110    0.1640 C   0  0  0  0  0  0  0  0  0  0  0  0
   -0.3040    5.8650   -0.3850 O   0  0  0  0  0  0  0  0  0  0  0  0
   -0.1340    3.8570    0.7310 N   0  0  0  0  0  0  0  0  0  0  0  0
    3.0780   -0.1290    0.7020 C   0  0  0  0  0  0  0  0  0  0  0  0
    4.2000   -0.8750    0.4100 N   0  0  0  0  0  0  0  0  0  0  0  0
  1  2  1  0
  2  3  1  0
  3  4  1  0
  4  5  2  0
  4  6  1  0
  6  7  2  0
  6 33  1  0
  7  8  1  0
  8  9  2  0
  9 10  1  0
  9 32  1  0
 10 11  1  0
 11 12  2  0
 11 13  1  0
 13 14  2  0
 13 31  1  0
 14 15  1  0
 14 25  1  0
 15 16  2  0
 15 17  1  0
 17 18  1  0
 18 19  1  0
 20 19  1  1
 20 21  1  0
 20 24  1  0
 21 22  1  0
 22 23  1  0
 23 24  1  0
 25 26  1  0
 25 27  2  0
 27 28  1  0
 28 29  1  0
 29 30  2  0
 29 31  1  0
 32 33  2  0
M  END
