
     RDKit          3D

 17 17  0  0  0  0  0  0  0  0999 V2000
   -0.1390   -0.9780    1.3540 O   0  0  0  0  0  0  0  0  0  0  0  0
   -0.6650   -0.5670    0.0850 C   0  0  1  0  0  0  0  0  0  0  0  0
    0.5130   -0.9160   -0.8410 C   0  0  0  0  0  0  0  0  0  0  0  0
    1.7640   -0.2400   -0.4990 C   0  0  0  0  0  0  0  0  0  0  0  0
    2.2110    0.9010   -1.1180 C   0  0  0  0  0  0  0  0  0  0  0  0
    3.3930    1.4930   -0.7170 C   0  0  0  0  0  0  0  0  0  0  0  0
    4.1000    0.9260    0.2940 C   0  0  0  0  0  0  0  0  0  0  0  0
    3.6840   -0.1810    0.9070 N   0  0  0  0  0  0  0  0  0  0  0  0
    2.5440   -0.7750    0.5410 C   0  0  0  0  0  0  0  0  0  0  0  0
   -1.9550   -1.6230   -0.4940 P   0  0  0  0  0  0  0  0  0  0  0  0
   -3.2930   -1.8830    0.4360 O   0  0  0  0  0  0  0  0  0  0  0  0
   -1.6830   -2.4550   -1.9030 O   0  0  0  0  0  0  0  0  0  0  0  0
   -2.7210   -0.5600   -1.2850 O   0  0  0  0  0  0  0  0  0  0  0  0
   -1.1430    1.0690    0.2370 P   0  0  0  0  0  0  0  0  0  0  0  0
   -0.8360    1.5690   -1.1690 O   0  0  0  0  0  0  0  0  0  0  0  0
   -0.0900    2.2060    0.8480 O   0  0  0  0  0  0  0  0  0  0  0  0
   -2.7840    1.4620    0.0700 O   0  0  0  0  0  0  0  0  0  0  0  0
  2  1  1  1
  2  3  1  0
  2 10  1  0
  2 14  1  0
  3  4  1  0
  4  5  2  0
  4  9  1  0
  5  6  1  0
  6  7  2  0
  7  8  1  0
  8  9  2  0
 10 11  1  0
 10 12  1  0
 10 13  1  0
 14 15  1  0
 14 16  1  0
 14 17  1  0
M  END
