
     RDKit          3D

 23 24  0  0  0  0  0  0  0  0999 V2000
   -3.2760    2.5760   -0.8180 O   0  0  0  0  0  0  0  0  0  0  0  0
   -2.7630    2.1440    0.2550 C   0  0  0  0  0  0  0  0  0  0  0  0
   -2.6120    3.0370    1.2920 O   0  0  0  0  0  0  0  0  0  0  0  0
   -2.3700    0.7610    0.3340 N   0  0  0  0  0  0  0  0  0  0  0  0
   -2.5820   -0.0050   -0.7830 N   0  0  0  0  0  0  0  0  0  0  0  0
   -1.8190   -1.2290   -0.8620 C   0  0  2  0  0  0  0  0  0  0  0  0
   -2.0810   -2.2100    0.2220 C   0  0  0  0  0  0  0  0  0  0  0  0
   -1.2370   -2.1670    1.4320 C   0  0  0  0  0  0  0  0  0  0  0  0
    0.0380   -1.5560    1.2780 N   0  0  0  0  0  0  0  0  0  0  0  0
    0.5000   -0.9260    0.0700 C   0  0  0  0  0  0  0  0  0  0  0  0
   -0.3540   -0.9750   -1.1160 C   0  0  2  0  0  0  0  0  0  0  0  0
   -0.1530    0.3670   -1.8410 C   0  0  0  0  0  0  0  0  0  0  0  0
    1.1850    0.4610   -2.3650 N   0  0  0  0  0  0  0  0  0  0  0  0
    2.3250    0.9220   -1.6780 C   0  0  0  0  0  0  0  0  0  0  0  0
    3.4190    0.3020   -1.9300 O   0  0  0  0  0  0  0  0  0  0  0  0
    2.4080    2.0170   -0.7160 C   0  0  0  0  0  0  0  0  0  0  0  0
    3.2480    1.7710    0.4280 N   0  0  0  0  0  0  0  0  0  0  0  0
    3.6460    0.5550    0.9960 C   0  0  0  0  0  0  0  0  0  0  0  0
    4.9360    0.4390    1.1220 O   0  0  0  0  0  0  0  0  0  0  0  0
    2.9090   -0.4930    1.4230 O   0  0  0  0  0  0  0  0  0  0  0  0
    2.0310   -0.6400    2.4200 O   0  0  0  0  0  0  0  0  0  0  0  0
    0.9510   -1.5310    2.3660 C   0  0  0  0  0  0  0  0  0  0  0  0
    0.7700   -2.3560    3.3280 O   0  0  0  0  0  0  0  0  0  0  0  0
  1  2  2  0
  2  3  1  0
  2  4  1  0
  4  5  1  0
  6  5  1  1
  6  7  1  0
  6 11  1  0
  7  8  1  0
  8  9  1  0
  9 10  1  0
  9 22  1  0
 10 11  1  0
 11 12  1  1
 12 13  1  0
 13 14  1  0
 14 15  2  0
 14 16  1  0
 16 17  1  0
 17 18  1  0
 18 19  2  0
 18 20  1  0
 20 21  1  0
 21 22  1  0
 22 23  2  0
M  END
