
     RDKit          3D

 23 24  0  0  0  0  0  0  0  0999 V2000
   -3.4650    2.0750   -0.4690 C   0  0  0  0  0  0  0  0  0  0  0  0
   -3.8070    0.9220    0.3160 N   0  0  0  0  0  0  0  0  0  0  0  0
   -5.1140    0.4030    0.2840 C   0  0  0  0  0  0  0  0  0  0  0  0
   -5.4320   -0.5970    0.9580 O   0  0  0  0  0  0  0  0  0  0  0  0
   -6.0970    1.0100   -0.5180 O   0  0  0  0  0  0  0  0  0  0  0  0
   -2.8290    0.3010    1.1270 C   0  0  0  0  0  0  0  0  0  0  0  0
   -3.1490   -0.7220    1.8180 O   0  0  0  0  0  0  0  0  0  0  0  0
   -1.5070    0.8140    1.1690 N   0  0  0  0  0  0  0  0  0  0  0  0
   -0.5200    0.2110    0.5940 C   0  0  0  0  0  0  0  0  0  0  0  0
    0.8190    0.6900    0.6110 N   0  0  0  0  0  0  0  0  0  0  0  0
    1.7440    0.0330    0.0060 C   0  0  0  0  0  0  0  0  0  0  0  0
    3.0730    0.5920    0.0770 N   0  0  0  0  0  0  0  0  0  0  0  0
    3.3100    1.8720    0.7250 C   0  0  0  0  0  0  0  0  0  0  0  0
    4.7670    2.1920    0.6460 C   0  0  0  0  0  0  0  0  0  0  0  0
    4.9860    3.4240    1.2710 O   0  0  0  0  0  0  0  0  0  0  0  0
    6.2560    3.7660    1.2360 O   0  0  0  0  0  0  0  0  0  0  0  0
    1.4870   -1.2140   -0.7420 C   0  0  0  0  0  0  0  0  0  0  0  0
    0.3530   -1.9440   -0.0770 C   0  0  2  0  0  0  0  0  0  0  0  0
   -0.3830   -2.9320   -0.9360 C   0  0  1  0  0  0  0  0  0  0  0  0
   -0.6530   -4.1400   -0.2620 O   0  0  0  0  0  0  0  0  0  0  0  0
   -0.2280   -5.1270   -1.0300 O   0  0  0  0  0  0  0  0  0  0  0  0
   -1.5140   -1.9630   -0.8770 C   0  0  0  0  0  0  0  0  0  0  0  0
   -0.7840   -1.0080   -0.1070 N   0  0  0  0  0  0  0  0  0  0  0  0
  1  2  1  0
  2  3  1  0
  2  6  1  0
  3  4  2  0
  3  5  1  0
  6  7  2  0
  6  8  1  0
  8  9  2  3
  9 10  1  0
  9 23  1  0
 10 11  2  0
 11 12  1  0
 11 17  1  0
 12 13  1  0
 13 14  1  0
 14 15  1  0
 15 16  1  0
 18 17  1  6
 18 19  1  0
 18 23  1  0
 19 20  1  1
 19 22  1  0
 20 21  1  0
 22 23  1  0
M  END
