
     RDKit          3D

 23 24  0  0  0  0  0  0  0  0999 V2000
   -4.1770    2.3830   -2.0680 N   0  0  0  0  0  0  0  0  0  0  0  0
   -3.7370    1.0460   -1.9120 C   0  0  0  0  0  0  0  0  0  0  0  0
   -4.3870    0.1110   -2.4450 O   0  0  0  0  0  0  0  0  0  0  0  0
   -2.5700    0.7510   -1.1620 N   0  0  0  0  0  0  0  0  0  0  0  0
   -2.0810   -0.5710   -0.9720 C   0  0  0  0  0  0  0  0  0  0  0  0
   -2.7310   -1.5040   -1.5040 O   0  0  0  0  0  0  0  0  0  0  0  0
   -0.8340   -0.8090   -0.1610 C   0  0  2  0  0  0  0  0  0  0  0  0
    0.2530   -0.0500   -0.8250 C   0  0  0  0  0  0  0  0  0  0  0  0
   -0.0210    0.5830   -1.8690 O   0  0  0  0  0  0  0  0  0  0  0  0
    1.5850    0.0060   -0.3510 N   0  0  0  0  0  0  0  0  0  0  0  0
    2.5560    0.7800   -1.0860 C   0  0  0  0  0  0  0  0  0  0  0  0
    3.9090    0.7080   -0.4150 C   0  0  0  0  0  0  0  0  0  0  0  0
    4.8540    1.4530   -1.1170 O   0  0  0  0  0  0  0  0  0  0  0  0
    6.0260    1.4120   -0.5690 O   0  0  0  0  0  0  0  0  0  0  0  0
   -0.5960   -2.2910   -0.2100 C   0  0  0  0  0  0  0  0  0  0  0  0
    0.2600   -2.8440    0.8520 C   0  0  0  0  0  0  0  0  0  0  0  0
    0.2330   -2.1720    2.1050 N   0  0  0  0  0  0  0  0  0  0  0  0
   -0.4970   -0.9920    2.2710 C   0  0  0  0  0  0  0  0  0  0  0  0
   -0.8170   -0.3280    3.3780 O   0  0  0  0  0  0  0  0  0  0  0  0
   -1.5170    0.7370    3.0730 C   0  0  0  0  0  0  0  0  0  0  0  0
   -2.0220    1.6660    3.9670 O   0  0  0  0  0  0  0  0  0  0  0  0
   -1.6480    0.7530    1.7340 N   0  0  0  0  0  0  0  0  0  0  0  0
   -1.0230   -0.3110    1.2110 C   0  0  0  0  0  0  0  0  0  0  0  0
  1  2  1  0
  2  3  2  0
  2  4  1  0
  4  5  1  0
  5  6  2  0
  7  5  1  6
  7  8  1  0
  7 15  1  0
  7 23  1  0
  8  9  2  0
  8 10  1  0
 10 11  1  0
 11 12  1  0
 12 13  1  0
 13 14  1  0
 15 16  1  0
 16 17  1  0
 17 18  1  0
 18 19  1  0
 18 23  2  0
 19 20  1  0
 20 21  1  0
 20 22  2  0
 22 23  1  0
M  END
