
     RDKit          3D

 23 25  0  0  0  0  0  0  0  0999 V2000
    6.1700    2.0030    0.7790 O   0  0  0  0  0  0  0  0  0  0  0  0
    5.4250    1.3630   -0.0100 C   0  0  0  0  0  0  0  0  0  0  0  0
    4.0240    1.1100    0.1620 N   0  0  0  0  0  0  0  0  0  0  0  0
    3.6790    0.0220   -0.7390 C   0  0  2  0  0  0  0  0  0  0  0  0
    3.7810   -1.1760   -0.0260 O   0  0  0  0  0  0  0  0  0  0  0  0
    2.7970   -2.0910    0.1440 N   0  0  0  0  0  0  0  0  0  0  0  0
    1.5720   -1.7720    0.3670 C   0  0  0  0  0  0  0  0  0  0  0  0
    0.5930   -2.8900    0.5350 C   0  0  0  0  0  0  0  0  0  0  0  0
   -0.6520   -2.5320   -0.0160 O   0  0  0  0  0  0  0  0  0  0  0  0
   -1.1900   -1.2130    0.0860 C   0  0  0  0  0  0  0  0  0  0  0  0
   -2.4860   -1.0710   -0.0610 C   0  0  0  0  0  0  0  0  0  0  0  0
   -3.3420    0.0780   -0.0210 C   0  0  0  0  0  0  0  0  0  0  0  0
   -4.6310   -0.0600   -0.2040 N   0  0  0  0  0  0  0  0  0  0  0  0
   -5.5990    0.9840   -0.1920 C   0  0  1  0  0  0  0  0  0  0  0  0
   -6.5030    0.6830    0.8490 O   0  0  0  0  0  0  0  0  0  0  0  0
   -5.0570    2.2530    0.0420 O   0  0  0  0  0  0  0  0  0  0  0  0
   -3.7050    2.4170    0.2360 C   0  0  0  0  0  0  0  0  0  0  0  0
   -2.9290    1.4030    0.2040 N   0  0  0  0  0  0  0  0  0  0  0  0
   -0.2220   -0.1850    0.3420 C   0  0  0  0  0  0  0  0  0  0  0  0
   -0.5990    1.1430    0.4650 O   0  0  0  0  0  0  0  0  0  0  0  0
    1.0570   -0.4760    0.4680 N   0  0  0  0  0  0  0  0  0  0  0  0
    4.7500    0.1290   -1.8170 C   0  0  0  0  0  0  0  0  0  0  0  0
    5.8280    0.7900   -1.1860 O   0  0  0  0  0  0  0  0  0  0  0  0
  1  2  2  0
  2  3  1  0
  2 23  1  0
  3  4  1  0
  4  5  1  1
  4 22  1  0
  5  6  1  0
  6  7  2  3
  7  8  1  0
  7 21  1  0
  8  9  1  0
  9 10  1  0
 10 11  2  3
 10 19  1  0
 11 12  1  0
 12 13  2  0
 12 18  1  0
 13 14  1  0
 14 15  1  1
 14 16  1  0
 16 17  1  0
 17 18  2  0
 19 20  1  0
 19 21  2  0
 22 23  1  0
M  END
