
     RDKit          3D

 23 24  0  0  0  0  0  0  0  0999 V2000
   -2.0110   -2.5360   -2.3730 O   0  0  0  0  0  0  0  0  0  0  0  0
   -3.2370   -2.3380   -2.1940 C   0  0  0  0  0  0  0  0  0  0  0  0
   -4.1670   -2.9860   -3.0060 O   0  0  0  0  0  0  0  0  0  0  0  0
   -3.6300   -1.4560   -1.1630 N   0  0  0  0  0  0  0  0  0  0  0  0
   -2.6380   -0.8280   -0.3710 C   0  0  0  0  0  0  0  0  0  0  0  0
   -2.9900    0.0260    0.6290 C   0  0  0  0  0  0  0  0  0  0  0  0
   -2.0100    0.6390    1.4030 C   0  0  0  0  0  0  0  0  0  0  0  0
   -2.2970    1.5110    2.4280 O   0  0  0  0  0  0  0  0  0  0  0  0
   -2.4170    2.8810    2.2280 C   0  0  0  0  0  0  0  0  0  0  0  0
   -2.2600    3.3690    1.0620 O   0  0  0  0  0  0  0  0  0  0  0  0
   -2.7120    3.7150    3.3170 O   0  0  0  0  0  0  0  0  0  0  0  0
   -0.7250    0.3620    1.1330 N   0  0  0  0  0  0  0  0  0  0  0  0
   -0.3550   -0.4820    0.1460 C   0  0  0  0  0  0  0  0  0  0  0  0
    1.0900   -0.7610   -0.1200 C   0  0  2  0  0  0  0  0  0  0  0  0
    1.7780   -0.9920    1.1190 N   0  0  0  0  0  0  0  0  0  0  0  0
    3.1740   -1.0160    1.3670 C   0  0  0  0  0  0  0  0  0  0  0  0
    3.5830   -1.6770    2.3700 O   0  0  0  0  0  0  0  0  0  0  0  0
    4.1830   -0.3690    0.6010 N   0  0  0  0  0  0  0  0  0  0  0  0
    4.0690    0.7470   -0.3290 C   0  0  0  0  0  0  0  0  0  0  0  0
    2.6150    1.2340   -0.3050 C   0  0  0  0  0  0  0  0  0  0  0  0
    1.7070    0.2750   -0.9970 C   0  0  1  0  0  0  0  0  0  0  0  0
    2.3740   -0.3030   -2.0830 O   0  0  0  0  0  0  0  0  0  0  0  0
   -1.3310   -1.0550   -0.5790 N   0  0  0  0  0  0  0  0  0  0  0  0
  1  2  2  0
  2  3  1  0
  2  4  1  0
  4  5  1  0
  5  6  2  0
  5 23  1  0
  6  7  1  0
  7  8  1  0
  7 12  2  0
  8  9  1  0
  9 10  2  0
  9 11  1  0
 12 13  1  0
 14 13  1  1
 13 23  2  0
 14 15  1  0
 14 21  1  0
 15 16  1  0
 16 17  2  0
 16 18  1  0
 18 19  1  0
 19 20  1  0
 20 21  1  0
 21 22  1  6
M  END
