
     RDKit          3D

 35 37  0  0  0  0  0  0  0  0999 V2000
   -4.9640   -3.1060    1.3870 C   0  0  0  0  0  0  0  0  0  0  0  0
   -3.8470   -3.9640    1.9180 C   0  0  0  0  0  0  0  0  0  0  0  0
   -2.6170   -3.4660    1.4330 O   0  0  0  0  0  0  0  0  0  0  0  0
   -2.2550   -2.1760    1.7460 C   0  0  0  0  0  0  0  0  0  0  0  0
   -3.0230   -1.4820    2.4490 O   0  0  0  0  0  0  0  0  0  0  0  0
   -0.9640   -1.5440    1.2810 C   0  0  2  0  0  0  0  0  0  0  0  0
    0.1230   -2.3610    1.9190 C   0  0  0  0  0  0  0  0  0  0  0  0
    1.7650   -1.8290    1.5750 S   0  0  0  0  0  0  0  0  0  0  0  0
    2.3410   -2.0620   -0.0740 C   0  0  0  0  0  0  0  0  0  0  0  0
    1.7240   -1.1470   -1.0410 C   0  0  0  0  0  0  0  0  0  0  0  0
    2.4620   -0.2800   -1.7240 C   0  0  0  0  0  0  0  0  0  0  0  0
    3.9100   -0.1800   -1.5650 C   0  0  2  0  0  0  0  0  0  0  0  0
    4.3220    0.5870   -0.3830 N   0  0  0  0  0  0  0  0  0  0  0  0
    5.6370    0.5090   -0.2520 O   0  0  0  0  0  0  0  0  0  0  0  0
    6.3990    1.0160   -1.2710 C   0  0  2  0  0  0  0  0  0  0  0  0
    7.3280   -0.0730   -1.8260 C   0  0  0  0  0  0  0  0  0  0  0  0
    7.2530    2.1350   -0.7670 C   0  0  0  0  0  0  0  0  0  0  0  0
    8.1580    1.8490    0.3780 C   0  0  0  0  0  0  0  0  0  0  0  0
    7.2510    3.2470   -1.2310 O   0  0  0  0  0  0  0  0  0  0  0  0
    5.5790    1.4470   -2.3810 N   0  0  0  0  0  0  0  0  0  0  0  0
    4.4370    0.6700   -2.7090 C   0  0  0  0  0  0  0  0  0  0  0  0
    3.8630    0.6260   -3.7890 O   0  0  0  0  0  0  0  0  0  0  0  0
   -0.8780   -0.1810    1.7390 N   0  0  0  0  0  0  0  0  0  0  0  0
   -1.7820    0.8310    1.3120 C   0  0  0  0  0  0  0  0  0  0  0  0
   -2.7870    0.5990    0.3750 C   0  0  0  0  0  0  0  0  0  0  0  0
   -3.6590    1.5810   -0.0450 C   0  0  0  0  0  0  0  0  0  0  0  0
   -4.6850    1.2460   -1.0330 C   0  0  1  0  0  0  0  0  0  0  0  0
   -6.0960    1.2840   -0.4310 C   0  0  0  0  0  0  0  0  0  0  0  0
   -6.9240    1.2310   -1.7220 C   0  0  0  0  0  0  0  0  0  0  0  0
   -5.9260    1.7190   -2.7470 C   0  0  0  0  0  0  0  0  0  0  0  0
   -4.8120    2.1770   -2.0460 O   0  0  0  0  0  0  0  0  0  0  0  0
   -3.5370    2.8470    0.4790 C   0  0  0  0  0  0  0  0  0  0  0  0
   -2.5430    3.0790    1.4060 C   0  0  0  0  0  0  0  0  0  0  0  0
   -1.6660    2.1040    1.8330 C   0  0  0  0  0  0  0  0  0  0  0  0
   -0.5910    2.3810    2.8430 C   0  0  0  0  0  0  0  0  0  0  0  0
  1  2  1  0
  2  3  1  0
  3  4  1  0
  4  5  2  0
  4  6  1  0
  6  7  1  1
  6 23  1  0
  7  8  1  0
  8  9  1  0
  9 10  1  0
 10 11  2  3
 12 11  1  6
 12 13  1  0
 12 21  1  0
 13 14  1  0
 14 15  1  0
 15 16  1  6
 15 17  1  0
 15 20  1  0
 17 18  1  0
 17 19  2  0
 20 21  1  0
 21 22  2  0
 23 24  1  0
 24 25  2  0
 24 34  1  0
 25 26  1  0
 27 26  1  1
 26 32  2  0
 27 28  1  0
 27 31  1  0
 28 29  1  0
 29 30  1  0
 30 31  1  0
 32 33  1  0
 33 34  2  0
 34 35  1  0
M  END
