
     RDKit          3D

 35 37  0  0  0  0  0  0  0  0999 V2000
    9.2320   -1.2060   -2.3730 C   0  0  0  0  0  0  0  0  0  0  0  0
    8.2490   -2.0690   -3.1520 C   0  0  0  0  0  0  0  0  0  0  0  0
    6.9420   -1.4150   -3.1900 N   0  0  0  0  0  0  0  0  0  0  0  0
    6.2140   -1.1390   -2.0000 C   0  0  0  0  0  0  0  0  0  0  0  0
    5.0610   -0.4270   -2.0250 C   0  0  0  0  0  0  0  0  0  0  0  0
    4.3730   -0.1700   -0.8470 C   0  0  0  0  0  0  0  0  0  0  0  0
    4.7850   -0.5980    0.3840 C   0  0  0  0  0  0  0  0  0  0  0  0
    4.1230   -0.3260    1.5960 N   0  0  0  0  0  0  0  0  0  0  0  0
    3.1460    0.6460    1.8370 C   0  0  0  0  0  0  0  0  0  0  0  0
    2.7730    1.3970    0.9120 O   0  0  0  0  0  0  0  0  0  0  0  0
    2.5220    0.8140    3.2050 C   0  0  0  0  0  0  0  0  0  0  0  0
    0.9540   -0.0650    3.2070 S   0  0  0  0  0  0  0  0  0  0  0  0
   -0.2700    0.7180    2.0760 C   0  0  0  0  0  0  0  0  0  0  0  0
   -0.6570    2.0580    2.5870 C   0  0  1  0  0  0  0  0  0  0  0  0
    0.4930    2.8640    2.6760 O   0  0  0  0  0  0  0  0  0  0  0  0
   -1.7040    2.8030    1.8170 C   0  0  2  0  0  0  0  0  0  0  0  0
   -1.1650    3.2470    0.4520 C   0  0  0  0  0  0  0  0  0  0  0  0
   -1.9870    3.9450    2.5050 O   0  0  0  0  0  0  0  0  0  0  0  0
   -2.4050    3.8800    3.7900 C   0  0  0  0  0  0  0  0  0  0  0  0
   -2.9270    2.0150    1.5010 C   0  0  0  0  0  0  0  0  0  0  0  0
   -4.0380    2.2880    2.0310 O   0  0  0  0  0  0  0  0  0  0  0  0
   -2.8740    0.9390    0.5900 N   0  0  0  0  0  0  0  0  0  0  0  0
   -4.0050    0.1460    0.2710 C   0  0  0  0  0  0  0  0  0  0  0  0
   -5.0760   -0.0350    1.1040 C   0  0  0  0  0  0  0  0  0  0  0  0
   -6.1850   -0.7960    0.7480 C   0  0  0  0  0  0  0  0  0  0  0  0
   -6.2610   -1.4110   -0.4730 C   0  0  0  0  0  0  0  0  0  0  0  0
   -5.1700   -1.2230   -1.3100 C   0  0  0  0  0  0  0  0  0  0  0  0
   -4.0730   -0.4810   -0.9820 C   0  0  0  0  0  0  0  0  0  0  0  0
   -5.0930   -1.7870   -2.5960 O   0  0  0  0  0  0  0  0  0  0  0  0
   -6.0400   -2.3920   -3.4300 C   0  0  0  0  0  0  0  0  0  0  0  0
   -7.0060   -3.2730   -2.6810 C   0  0  0  0  0  0  0  0  0  0  0  0
   -8.0200   -2.4760   -1.9000 C   0  0  0  0  0  0  0  0  0  0  0  0
   -7.4350   -2.1300   -0.6650 O   0  0  0  0  0  0  0  0  0  0  0  0
    5.9820   -1.3350    0.3870 C   0  0  0  0  0  0  0  0  0  0  0  0
    6.6620   -1.5890   -0.7770 C   0  0  0  0  0  0  0  0  0  0  0  0
  1  2  1  0
  2  3  1  0
  3  4  1  0
  4  5  2  0
  4 35  1  0
  5  6  1  0
  6  7  2  0
  7  8  1  0
  7 34  1  0
  8  9  1  0
  9 10  2  0
  9 11  1  0
 11 12  1  0
 12 13  1  0
 13 14  1  0
 14 15  1  6
 14 16  1  0
 16 17  1  6
 16 18  1  0
 16 20  1  0
 18 19  1  0
 20 21  2  0
 20 22  1  0
 22 23  1  0
 23 24  2  0
 23 28  1  0
 24 25  1  0
 25 26  2  0
 26 27  1  0
 26 33  1  0
 27 28  2  0
 27 29  1  0
 29 30  1  0
 30 31  1  0
 31 32  1  0
 32 33  1  0
 34 35  2  0
M  END
