
     RDKit          3D

 35 37  0  0  0  0  0  0  0  0999 V2000
   -8.0290    2.1500   -0.3810 C   0  0  0  0  0  0  0  0  0  0  0  0
   -7.8400    2.2110    0.9060 C   0  0  0  0  0  0  0  0  0  0  0  0
   -6.5690    1.9320    1.5770 C   0  0  0  0  0  0  0  0  0  0  0  0
   -5.5120    1.5470    0.7020 N   0  0  0  0  0  0  0  0  0  0  0  0
   -4.1780    1.2770    1.1780 C   0  0  0  0  0  0  0  0  0  0  0  0
   -3.9640    1.4150    2.3940 O   0  0  0  0  0  0  0  0  0  0  0  0
   -3.0640    0.8570    0.2940 C   0  0  2  0  0  0  0  0  0  0  0  0
   -3.4690    0.4910   -1.1020 C   0  0  0  0  0  0  0  0  0  0  0  0
   -4.3770   -0.6900   -1.2180 C   0  0  0  0  0  0  0  0  0  0  0  0
   -4.6560   -0.8480   -2.7210 C   0  0  0  0  0  0  0  0  0  0  0  0
   -5.5060   -1.9320   -2.9100 O   0  0  0  0  0  0  0  0  0  0  0  0
   -2.5680   -0.4490    0.9870 C   0  0  0  0  0  0  0  0  0  0  0  0
   -1.2750   -0.8490    0.3300 C   0  0  0  0  0  0  0  0  0  0  0  0
   -0.2570    0.1910    0.6250 C   0  0  1  0  0  0  0  0  0  0  0  0
    0.8640    0.3190   -0.3770 C   0  0  0  0  0  0  0  0  0  0  0  0
    1.6080   -0.7620   -0.4890 O   0  0  0  0  0  0  0  0  0  0  0  0
    1.9580   -2.0010   -0.7110 C   0  0  0  0  0  0  0  0  0  0  0  0
    1.0750   -3.0190   -1.0970 C   0  0  0  0  0  0  0  0  0  0  0  0
    1.5140   -4.2880   -1.2950 C   0  0  0  0  0  0  0  0  0  0  0  0
    2.8260   -4.5830   -1.1170 N   0  0  0  0  0  0  0  0  0  0  0  0
    3.7040   -3.6120   -0.7450 C   0  0  0  0  0  0  0  0  0  0  0  0
    3.3310   -2.3180   -0.5320 C   0  0  0  0  0  0  0  0  0  0  0  0
    4.2750   -1.3090   -0.2800 N   0  0  0  0  0  0  0  0  0  0  0  0
    5.5080   -1.5730    0.3190 C   0  0  0  0  0  0  0  0  0  0  0  0
    5.8870   -2.6880    0.7380 O   0  0  0  0  0  0  0  0  0  0  0  0
    6.4530   -0.4250    0.4640 C   0  0  0  0  0  0  0  0  0  0  0  0
    6.8540   -0.0530    1.7200 C   0  0  0  0  0  0  0  0  0  0  0  0
    7.9310    1.2620    1.8060 S   0  0  0  0  0  0  0  0  0  0  0  0
    8.3330    1.9100    0.2550 C   0  0  0  0  0  0  0  0  0  0  0  0
    9.2650    3.0470    0.0240 C   0  0  0  0  0  0  0  0  0  0  0  0
    7.7190    1.2590   -0.7940 C   0  0  0  0  0  0  0  0  0  0  0  0
    6.8670    0.2030   -0.7110 C   0  0  0  0  0  0  0  0  0  0  0  0
    6.3980   -0.2660   -1.8070 O   0  0  0  0  0  0  0  0  0  0  0  0
   -0.9230    1.4750    0.9970 C   0  0  0  0  0  0  0  0  0  0  0  0
   -2.0390    1.7520    0.2750 O   0  0  0  0  0  0  0  0  0  0  0  0
  1  2  2  0
  2  3  1  0
  3  4  1  0
  4  5  1  0
  5  6  2  0
  5  7  1  0
  7  8  1  6
  7 12  1  0
  7 35  1  0
  8  9  1  0
  9 10  1  0
 10 11  1  0
 12 13  1  0
 13 14  1  0
 14 15  1  6
 14 34  1  0
 15 16  1  0
 16 17  1  0
 17 18  2  0
 17 22  1  0
 18 19  1  0
 19 20  2  0
 20 21  1  0
 21 22  2  0
 22 23  1  0
 23 24  1  0
 24 25  2  0
 24 26  1  0
 26 27  2  0
 26 32  1  0
 27 28  1  0
 28 29  1  0
 29 30  1  0
 29 31  2  0
 31 32  1  0
 32 33  2  0
 34 35  1  0
M  END
