
     RDKit          3D

 35 37  0  0  0  0  0  0  0  0999 V2000
    6.2880    2.5790   -0.4110 C   0  0  0  0  0  0  0  0  0  0  0  0
    5.6290    1.4940    0.4000 C   0  0  0  0  0  0  0  0  0  0  0  0
    5.9040    0.1310   -0.1770 C   0  0  0  0  0  0  0  0  0  0  0  0
    7.0350   -0.5810    0.2460 C   0  0  0  0  0  0  0  0  0  0  0  0
    6.9010   -2.0910   -0.6900 S   0  0  0  0  0  0  0  0  0  0  0  0
    5.3270   -1.5750   -1.5440 C   0  0  0  0  0  0  0  0  0  0  0  0
    4.6690   -2.5000   -2.5110 C   0  0  0  0  0  0  0  0  0  0  0  0
    3.6660   -3.3380   -1.7500 C   0  0  1  0  0  0  0  0  0  0  0  0
    4.2420   -4.0780   -0.7460 O   0  0  0  0  0  0  0  0  0  0  0  0
    2.4640   -2.6140   -1.3320 C   0  0  0  0  0  0  0  0  0  0  0  0
    2.1270   -1.3750   -1.7730 C   0  0  0  0  0  0  0  0  0  0  0  0
    0.9690   -0.7720   -1.3410 C   0  0  0  0  0  0  0  0  0  0  0  0
    0.6370    0.4840   -1.7960 O   0  0  0  0  0  0  0  0  0  0  0  0
    0.1140   -1.4100   -0.4440 C   0  0  0  0  0  0  0  0  0  0  0  0
   -1.0920   -0.7270   -0.0270 C   0  0  0  0  0  0  0  0  0  0  0  0
   -1.9470   -1.2120    0.8530 C   0  0  0  0  0  0  0  0  0  0  0  0
   -3.1440   -0.5480    1.2750 C   0  0  0  0  0  0  0  0  0  0  0  0
   -3.9050   -1.0530    2.1330 O   0  0  0  0  0  0  0  0  0  0  0  0
   -3.5580    0.7180    0.7630 N   0  0  0  0  0  0  0  0  0  0  0  0
   -4.7560    1.3780    1.2160 C   0  0  2  0  0  0  0  0  0  0  0  0
   -5.9110    1.3470    0.2980 C   0  0  0  0  0  0  0  0  0  0  0  0
   -5.8240    1.9370   -1.0380 C   0  0  0  0  0  0  0  0  0  0  0  0
   -4.8290    1.3090   -1.8550 C   0  0  0  0  0  0  0  0  0  0  0  0
   -3.9840    0.7910   -2.5650 N   0  0  0  0  0  0  0  0  0  0  0  0
   -4.4020    2.6930    1.8050 C   0  0  2  0  0  0  0  0  0  0  0  0
   -5.5760    3.4890    2.3480 C   0  0  0  0  0  0  0  0  0  0  0  0
   -4.9280    4.8530    2.5010 C   0  0  0  0  0  0  0  0  0  0  0  0
   -3.8690    4.8880    1.5800 O   0  0  0  0  0  0  0  0  0  0  0  0
   -3.6960    3.6530    0.9330 C   0  0  0  0  0  0  0  0  0  0  0  0
   -3.1000    3.4100   -0.1160 O   0  0  0  0  0  0  0  0  0  0  0  0
    0.4330   -2.6500    0.0100 C   0  0  0  0  0  0  0  0  0  0  0  0
    1.6180   -3.2480   -0.4420 C   0  0  0  0  0  0  0  0  0  0  0  0
    1.9320   -4.4990    0.0220 O   0  0  0  0  0  0  0  0  0  0  0  0
    1.0780   -5.1600    0.9320 C   0  0  0  0  0  0  0  0  0  0  0  0
    5.1630   -0.4720   -1.0500 N   0  0  0  0  0  0  0  0  0  0  0  0
  1  2  1  0
  2  3  1  0
  3  4  2  0
  3 35  1  0
  4  5  1  0
  5  6  1  0
  6  7  1  0
  6 35  2  0
  7  8  1  0
  8  9  1  1
  8 10  1  0
 10 11  2  0
 10 32  1  0
 11 12  1  0
 12 13  1  0
 12 14  2  0
 14 15  1  0
 14 31  1  0
 15 16  2  3
 16 17  1  0
 17 18  2  0
 17 19  1  0
 19 20  1  0
 20 21  1  6
 20 25  1  0
 21 22  1  0
 22 23  1  0
 23 24  3  0
 25 26  1  6
 25 29  1  0
 26 27  1  0
 27 28  1  0
 28 29  1  0
 29 30  2  0
 31 32  2  0
 32 33  1  0
 33 34  1  0
M  END
