
     RDKit          3D

 13 13  0  0  0  0  0  0  0  0999 V2000
    3.7820    0.3750   -0.0190 C   0  0  0  0  0  0  0  0  0  0  0  0
    3.2870   -0.6140   -0.8320 O   0  0  0  0  0  0  0  0  0  0  0  0
    1.9930   -0.4320   -1.2540 C   0  0  0  0  0  0  0  0  0  0  0  0
    0.9980   -0.3530   -0.1320 C   0  0  1  0  0  0  0  0  0  0  0  0
   -0.4320   -0.2190   -0.6770 C   0  0  0  0  0  0  0  0  0  0  0  0
   -1.2960    0.2010    0.4590 C   0  0  1  0  0  0  0  0  0  0  0  0
   -1.3080    1.7260    0.4920 C   0  0  0  0  0  0  0  0  0  0  0  0
   -1.8530    2.1670   -0.7540 N   0  0  0  0  0  0  0  0  0  0  0  0
   -2.7280   -0.2420    0.3350 C   0  0  0  0  0  0  0  0  0  0  0  0
   -3.3390    0.2370   -0.8170 O   0  0  0  0  0  0  0  0  0  0  0  0
   -0.7790   -0.3270    1.6360 O   0  0  0  0  0  0  0  0  0  0  0  0
   -0.3060   -1.6050    1.3400 C   0  0  0  0  0  0  0  0  0  0  0  0
    0.9860   -1.5590    0.6780 N   0  0  0  0  0  0  0  0  0  0  0  0
  1  2  1  0
  2  3  1  0
  4  3  1  6
  4  5  1  0
  4 13  1  0
  5  6  1  0
  6  7  1  1
  6  9  1  0
  6 11  1  0
  7  8  1  0
  9 10  1  0
 11 12  1  0
 12 13  1  0
M  CHG  1  13   1
M  END
