
     RDKit          3D

 14 14  0  0  0  0  0  0  0  0999 V2000
   -2.5260   -0.9040   -0.6890 C   0  0  0  0  0  0  0  0  0  0  0  0
   -1.4200   -0.1240    0.0370 C   0  0  2  0  0  0  0  0  0  0  0  0
   -0.0860   -0.6400   -0.4210 C   0  0  1  0  0  0  0  0  0  0  0  0
   -0.0820   -0.5090   -1.8840 N   0  0  0  0  0  0  0  0  0  0  0  0
    1.0720    0.0880    0.1660 C   0  0  1  0  0  0  0  0  0  0  0  0
    1.0170   -0.0360    1.6360 N   0  0  0  0  0  0  0  0  0  0  0  0
    2.4210   -0.4220   -0.2390 C   0  0  0  0  0  0  0  0  0  0  0  0
    2.7270   -0.3900   -1.6940 C   0  0  1  0  0  0  0  0  0  0  0  0
    2.6590    0.9180   -2.2050 O   0  0  0  0  0  0  0  0  0  0  0  0
    4.0730   -0.8140   -1.9030 O   0  0  0  0  0  0  0  0  0  0  0  0
   -1.6250   -0.1580    1.3870 O   0  0  0  0  0  0  0  0  0  0  0  0
   -2.3240    0.9690    1.7700 C   0  0  0  0  0  0  0  0  0  0  0  0
   -2.7400    1.5730    0.4530 C   0  0  0  0  0  0  0  0  0  0  0  0
   -1.6280    1.2190   -0.3510 O   0  0  0  0  0  0  0  0  0  0  0  0
  2  1  1  6
  2  3  1  0
  2 11  1  0
  2 14  1  0
  3  4  1  6
  3  5  1  0
  5  6  1  1
  5  7  1  0
  7  8  1  0
  8  9  1  1
  8 10  1  0
 11 12  1  0
 12 13  1  0
 13 14  1  0
M  CHG  1   6   1
M  END
