
     RDKit          3D

 14 14  0  0  0  0  0  0  0  0999 V2000
   -2.9260    1.4720    0.2480 C   0  0  0  0  0  0  0  0  0  0  0  0
   -1.8340    0.4650    0.0930 C   0  0  2  0  0  0  0  0  0  0  0  0
   -1.5230   -0.2990    1.2760 N   0  0  0  0  0  0  0  0  0  0  0  0
   -0.6760    0.9460   -0.7910 C   0  0  1  0  0  0  0  0  0  0  0  0
    0.6250    0.7950   -0.1460 C   0  0  0  0  0  0  0  0  0  0  0  0
    1.4670    1.7190   -0.2630 O   0  0  0  0  0  0  0  0  0  0  0  0
    1.0170   -0.3080    0.6010 O   0  0  0  0  0  0  0  0  0  0  0  0
    2.3160   -0.3670    1.1970 C   0  0  0  0  0  0  0  0  0  0  0  0
    3.3810   -0.2890    0.1920 C   0  0  0  0  0  0  0  0  0  0  0  0
    4.7250   -0.3350    0.6340 N   0  0  0  0  0  0  0  0  0  0  0  0
    3.1110   -0.1840   -1.0440 O   0  0  0  0  0  0  0  0  0  0  0  0
   -1.5250   -0.1820   -1.1970 C   0  0  1  0  0  0  0  0  0  0  0  0
   -1.0590   -1.6010   -1.2510 C   0  0  0  0  0  0  0  0  0  0  0  0
   -2.4790    0.0970   -2.2070 O   0  0  0  0  0  0  0  0  0  0  0  0
  2  1  1  6
  2  3  1  0
  2  4  1  0
  2 12  1  0
  4  5  1  1
  4 12  1  0
  5  6  2  0
  5  7  1  0
  7  8  1  0
  8  9  1  0
  9 10  1  0
  9 11  2  0
 12 13  1  1
 12 14  1  0
M  CHG  1   3   1
M  END
