
     RDKit          3D

 14 14  0  0  0  0  0  0  0  0999 V2000
   -1.9830   -1.9350    0.6730 N   0  0  0  0  0  0  0  0  0  0  0  0
   -2.0960   -1.0510   -0.4860 C   0  0  1  0  0  0  0  0  0  0  0  0
   -2.8370    0.1760   -0.0420 C   0  0  0  0  0  0  0  0  0  0  0  0
   -2.0560    1.4470   -0.1920 C   0  0  2  0  0  0  0  0  0  0  0  0
   -2.1680    1.9310   -1.5160 O   0  0  0  0  0  0  0  0  0  0  0  0
   -0.6400    1.3590    0.2520 C   0  0  0  0  0  0  0  0  0  0  0  0
   -0.0010    0.0250    0.0970 C   0  0  2  0  0  0  0  0  0  0  0  0
    1.3590    0.1570   -0.0860 O   0  0  0  0  0  0  0  0  0  0  0  0
    2.1240   -0.3990    0.9110 C   0  0  0  0  0  0  0  0  0  0  0  0
    3.5590   -0.1640    0.5520 C   0  0  0  0  0  0  0  0  0  0  0  0
    4.4950   -0.5810    1.3120 O   0  0  0  0  0  0  0  0  0  0  0  0
    3.9390    0.5250   -0.6350 N   0  0  0  0  0  0  0  0  0  0  0  0
    5.2300    0.7490   -0.9780 O   0  0  0  0  0  0  0  0  0  0  0  0
   -0.6960   -0.7450   -0.9680 C   0  0  0  0  0  0  0  0  0  0  0  0
  2  1  1  1
  2  3  1  0
  2 14  1  0
  3  4  1  0
  4  5  1  6
  4  6  1  0
  6  7  1  0
  7  8  1  6
  7 14  1  0
  8  9  1  0
  9 10  1  0
 10 11  2  0
 10 12  1  0
 12 13  1  0
M  CHG  1   1   1
M  END
