
     RDKit          3D

 13 13  0  0  0  0  0  0  0  0999 V2000
   -0.3640    2.8290    0.2660 N   0  0  0  0  0  0  0  0  0  0  0  0
   -0.3030    1.4380    0.0130 C   0  0  1  0  0  0  0  0  0  0  0  0
    0.9000    0.7520    0.6170 C   0  0  0  0  0  0  0  0  0  0  0  0
    1.0510   -0.5810    0.1170 N   0  0  2  0  0  0  0  0  0  0  0  0
    1.8010   -0.4990   -1.1240 C   0  0  0  0  0  0  0  0  0  0  0  0
    3.2800   -0.7230   -0.8960 C   0  0  0  0  0  0  0  0  0  0  0  0
    3.7960    0.2340   -0.0260 O   0  0  0  0  0  0  0  0  0  0  0  0
   -0.1220   -1.3470   -0.0320 C   0  0  0  0  0  0  0  0  0  0  0  0
   -1.4240   -0.6630   -0.0860 C   0  0  1  0  0  0  0  0  0  0  0  0
   -1.8000   -0.3800   -1.4180 O   0  0  0  0  0  0  0  0  0  0  0  0
   -2.5360   -1.5670    0.4640 C   0  0  0  0  0  0  0  0  0  0  0  0
   -3.7680   -0.9130    0.4200 O   0  0  0  0  0  0  0  0  0  0  0  0
   -1.4750    0.6640    0.6320 C   0  0  0  0  0  0  0  0  0  0  0  0
  2  1  1  1
  2  3  1  0
  2 13  1  0
  3  4  1  0
  4  5  1  6
  4  8  1  0
  5  6  1  0
  6  7  1  0
  8  9  1  0
  9 10  1  6
  9 11  1  0
  9 13  1  0
 11 12  1  0
M  CHG  2   1   1   4   1
M  END
