
     RDKit          3D

 14 16  0  0  0  0  0  0  0  0999 V2000
   -4.9030    0.2140    0.5900 C   0  0  0  0  0  0  0  0  0  0  0  0
   -3.5000   -0.1440    0.2310 C   0  0  0  0  0  0  0  0  0  0  0  0
   -2.9330   -1.1510   -0.4520 C   0  0  0  0  0  0  0  0  0  0  0  0
   -1.5990   -1.1890   -0.6030 C   0  0  0  0  0  0  0  0  0  0  0  0
   -0.8650   -0.1970   -0.0540 C   0  0  0  0  0  0  0  0  0  0  0  0
    0.5830    0.0180   -0.0580 C   0  0  0  0  0  0  0  0  0  0  0  0
    1.4470   -0.8060   -0.6550 N   0  0  0  0  0  0  0  0  0  0  0  0
    2.6680   -0.3520   -0.4890 N   0  0  0  0  0  0  0  0  0  0  0  0
    3.9740   -0.6230   -0.7830 C   0  0  0  0  0  0  0  0  0  0  0  0
    4.7200    0.3830   -0.2260 C   0  0  0  0  0  0  0  0  0  0  0  0
    3.8840    1.2690    0.4070 C   0  0  0  0  0  0  0  0  0  0  0  0
    2.5860    0.7750    0.2230 C   0  0  0  0  0  0  0  0  0  0  0  0
    1.2840    1.0010    0.4880 N   0  0  0  0  0  0  0  0  0  0  0  0
   -2.0470    0.8870    0.7360 S   0  0  0  0  0  0  0  0  0  0  0  0
  1  2  1  0
  2  3  2  0
  2 14  1  0
  3  4  1  0
  4  5  2  0
  5  6  1  0
  5 14  1  0
  6  7  2  0
  6 13  1  0
  7  8  1  0
  8  9  1  0
  8 12  1  0
  9 10  2  0
 10 11  1  0
 11 12  2  0
 12 13  1  0
M  END
