
     RDKit          3D

 14 16  0  0  0  0  0  0  0  0999 V2000
    3.8910    0.2370    0.2430 C   0  0  0  0  0  0  0  0  0  0  0  0
    2.8430    0.4780    0.9950 C   0  0  0  0  0  0  0  0  0  0  0  0
    1.5940    0.0630    0.3080 C   0  0  0  0  0  0  0  0  0  0  0  0
    0.3020    0.2100    0.9120 C   0  0  0  0  0  0  0  0  0  0  0  0
    0.0420    0.7670    2.1480 N   0  0  0  0  0  0  0  0  0  0  0  0
   -1.2400    0.7490    2.4000 N   0  0  0  0  0  0  0  0  0  0  0  0
   -1.8510    0.1960    1.3720 C   0  0  0  0  0  0  0  0  0  0  0  0
   -0.8860   -0.1420    0.4400 N   0  0  0  0  0  0  0  0  0  0  0  0
   -1.4520   -0.7660   -0.7260 C   0  0  0  0  0  0  0  0  0  0  0  0
   -2.3550    0.2400   -1.4660 C   0  0  0  0  0  0  0  0  0  0  0  0
   -3.7250    0.2780   -0.8170 C   0  0  0  0  0  0  0  0  0  0  0  0
   -3.5300   -0.1750    0.9470 S   0  0  0  0  0  0  0  0  0  0  0  0
    1.9530   -0.4140   -0.8380 C   0  0  0  0  0  0  0  0  0  0  0  0
    3.4490   -0.3590   -1.0100 C   0  0  0  0  0  0  0  0  0  0  0  0
  1  2  2  0
  1 14  1  0
  2  3  1  0
  3  4  1  0
  3 13  2  0
  4  5  2  0
  4  8  1  0
  5  6  1  0
  6  7  2  0
  7  8  1  0
  7 12  1  0
  8  9  1  0
  9 10  1  0
 10 11  1  0
 11 12  1  0
 13 14  1  0
M  END
