
     RDKit          3D

 14 16  0  0  0  0  0  0  0  0999 V2000
    4.2640   -0.2830   -0.2360 C   0  0  0  0  0  0  0  0  0  0  0  0
    4.5280    0.8890    0.4200 C   0  0  0  0  0  0  0  0  0  0  0  0
    2.7910    1.4370    0.8260 S   0  0  0  0  0  0  0  0  0  0  0  0
    2.0150   -0.0510    0.0160 C   0  0  0  0  0  0  0  0  0  0  0  0
    0.5730   -0.1720    0.0230 C   0  0  0  0  0  0  0  0  0  0  0  0
    0.0240   -1.2620   -0.5710 C   0  0  0  0  0  0  0  0  0  0  0  0
   -1.3440   -1.4400   -0.6000 C   0  0  0  0  0  0  0  0  0  0  0  0
   -2.1600   -0.4950   -0.0170 C   0  0  0  0  0  0  0  0  0  0  0  0
   -3.5140   -0.3390    0.1440 C   0  0  0  0  0  0  0  0  0  0  0  0
   -3.7530    0.8500    0.8360 C   0  0  0  0  0  0  0  0  0  0  0  0
   -2.5600    1.3980    1.0860 N   0  0  0  0  0  0  0  0  0  0  0  0
   -1.5780    0.6230    0.5910 C   0  0  0  0  0  0  0  0  0  0  0  0
   -0.2400    0.7330    0.5830 N   0  0  0  0  0  0  0  0  0  0  0  0
    3.0400   -0.6500   -0.3800 N   0  0  0  0  0  0  0  0  0  0  0  0
  1  2  2  0
  1 14  1  0
  2  3  1  0
  3  4  1  0
  4  5  1  0
  4 14  2  0
  5  6  2  0
  5 13  1  0
  6  7  1  0
  7  8  2  0
  8  9  1  0
  8 12  1  0
  9 10  2  0
 10 11  1  0
 11 12  1  0
 12 13  2  0
M  END
