
     RDKit          3D

 28 30  0  0  0  0  0  0  0  0999 V2000
   -4.6220   -0.7230    3.2090 C   0  0  0  0  0  0  0  0  0  0  0  0
   -5.7240   -1.1100    2.2660 C   0  0  0  0  0  0  0  0  0  0  0  0
   -5.4940   -0.8710    0.9690 C   0  0  0  0  0  0  0  0  0  0  0  0
   -6.7930   -1.3310   -0.1040 Cl  0  0  0  0  0  0  0  0  0  0  0  0
   -4.2610   -0.2850    0.5320 C   0  0  0  0  0  0  0  0  0  0  0  0
   -4.0020   -0.0370   -0.7260 C   0  0  0  0  0  0  0  0  0  0  0  0
   -2.7390    0.5690   -1.2290 C   0  0  0  0  0  0  0  0  0  0  0  0
   -1.6080    0.8830   -0.5190 C   0  0  0  0  0  0  0  0  0  0  0  0
   -0.5230    1.4500   -1.1920 C   0  0  0  0  0  0  0  0  0  0  0  0
    0.5720    1.7360   -0.3990 O   0  0  0  0  0  0  0  0  0  0  0  0
    1.5270    0.8800    0.0730 C   0  0  0  0  0  0  0  0  0  0  0  0
    1.7110    0.6990    1.4550 C   0  0  0  0  0  0  0  0  0  0  0  0
    2.6480   -0.1420    1.9930 C   0  0  0  0  0  0  0  0  0  0  0  0
    3.4650   -0.8590    1.1590 C   0  0  0  0  0  0  0  0  0  0  0  0
    4.5000   -1.7870    1.7000 C   0  0  0  0  0  0  0  0  0  0  0  0
    6.0290   -0.9540    1.9450 S   0  0  1  0  0  0  0  0  0  0  0  0
    6.5780   -0.3160    0.3830 C   0  0  0  0  0  0  0  0  0  0  0  0
    5.8020    0.1960    2.8670 O   0  0  0  0  0  0  0  0  0  0  0  0
    7.0270   -1.9260    2.4920 O   0  0  0  0  0  0  0  0  0  0  0  0
    3.3100   -0.7040   -0.2080 C   0  0  0  0  0  0  0  0  0  0  0  0
    2.3450    0.1610   -0.7410 C   0  0  0  0  0  0  0  0  0  0  0  0
    2.2810    0.2530   -2.2110 C   0  0  0  0  0  0  0  0  0  0  0  0
   -0.6040    1.6820   -2.5340 C   0  0  0  0  0  0  0  0  0  0  0  0
   -1.7300    1.3680   -3.2370 C   0  0  0  0  0  0  0  0  0  0  0  0
   -2.8200    0.8020   -2.5830 C   0  0  0  0  0  0  0  0  0  0  0  0
   -4.1000    0.3750   -3.0240 N   0  0  0  0  0  0  0  0  0  0  0  0
   -4.8200   -0.2600   -1.9410 C   0  0  1  0  0  0  0  0  0  0  0  0
   -4.7970   -2.0170   -2.2760 Cl  0  0  0  0  0  0  0  0  0  0  0  0
  1  2  1  0
  2  3  2  3
  3  4  1  0
  3  5  1  0
  5  6  2  3
  6  7  1  0
  6 27  1  0
  7  8  2  0
  7 25  1  0
  8  9  1  0
  9 10  1  0
  9 23  2  0
 10 11  1  0
 11 12  2  0
 11 21  1  0
 12 13  1  0
 13 14  2  0
 14 15  1  0
 14 20  1  0
 15 16  1  0
 16 17  1  6
 16 18  2  0
 16 19  2  0
 20 21  2  0
 21 22  1  0
 23 24  1  0
 24 25  2  0
 25 26  1  0
 26 27  1  0
 27 28  1  6
M  END
