
     RDKit          3D

 28 30  0  0  0  0  0  0  0  0999 V2000
   -6.3820    2.7610    0.6720 C   0  0  0  0  0  0  0  0  0  0  0  0
   -5.1570    2.3160    0.8010 C   0  0  0  0  0  0  0  0  0  0  0  0
   -4.1970    2.9420    1.4100 O   0  0  0  0  0  0  0  0  0  0  0  0
   -3.0780    2.2860    1.3970 C   0  0  0  0  0  0  0  0  0  0  0  0
   -3.2920    1.0860    0.7080 C   0  0  0  0  0  0  0  0  0  0  0  0
   -2.2390    0.1310    0.4610 C   0  0  0  0  0  0  0  0  0  0  0  0
   -1.7920   -0.2220   -0.7890 C   0  0  0  0  0  0  0  0  0  0  0  0
   -0.7760   -1.1490   -0.9890 C   0  0  0  0  0  0  0  0  0  0  0  0
   -0.1590   -1.7660    0.0620 C   0  0  0  0  0  0  0  0  0  0  0  0
    0.8770   -2.7150   -0.1360 N   0  0  0  0  0  0  0  0  0  0  0  0
    2.1700   -2.4630   -1.2180 S   0  0  2  0  0  0  0  0  0  0  0  0
    1.6210   -2.2140   -2.6300 O   0  0  0  0  0  0  0  0  0  0  0  0
    3.0530   -3.6780   -1.2740 O   0  0  0  0  0  0  0  0  0  0  0  0
    3.1390   -1.0850   -0.8080 C   0  0  0  0  0  0  0  0  0  0  0  0
    2.7980    0.0710   -1.3540 C   0  0  0  0  0  0  0  0  0  0  0  0
    3.5660    1.2590   -1.0630 C   0  0  0  0  0  0  0  0  0  0  0  0
    4.6170    1.2770   -0.2770 C   0  0  0  0  0  0  0  0  0  0  0  0
    5.3320    2.5960   -0.0510 C   0  0  0  0  0  0  0  0  0  0  0  0
    7.0090    2.5190   -0.5770 Cl  0  0  0  0  0  0  0  0  0  0  0  0
    5.1360    0.0700    0.3470 C   0  0  0  0  0  0  0  0  0  0  0  0
    4.2720   -1.1070    0.1280 C   0  0  0  0  0  0  0  0  0  0  0  0
    4.4830   -2.2320    0.8060 C   0  0  0  0  0  0  0  0  0  0  0  0
    5.8270   -2.2770    1.9220 Cl  0  0  0  0  0  0  0  0  0  0  0  0
   -0.5870   -1.4330    1.3510 C   0  0  0  0  0  0  0  0  0  0  0  0
   -1.5930   -0.5150    1.5230 C   0  0  0  0  0  0  0  0  0  0  0  0
   -4.6010    1.1050    0.3350 C   0  0  0  0  0  0  0  0  0  0  0  0
   -5.3240    0.2100   -0.3230 C   0  0  0  0  0  0  0  0  0  0  0  0
   -4.7860   -1.0680   -0.8240 C   0  0  0  0  0  0  0  0  0  0  0  0
  1  2  2  0
  2  3  1  0
  2 26  1  0
  3  4  1  0
  4  5  2  0
  5  6  1  0
  5 26  1  0
  6  7  2  0
  6 25  1  0
  7  8  1  0
  8  9  2  0
  9 10  1  0
  9 24  1  0
 11 10  1  1
 11 12  2  0
 11 13  2  0
 11 14  1  0
 14 15  2  0
 14 21  1  0
 15 16  1  0
 16 17  2  0
 17 18  1  0
 17 20  1  0
 18 19  1  0
 20 21  1  0
 21 22  2  3
 22 23  1  0
 24 25  2  0
 26 27  2  3
 27 28  1  0
M  END
