
     RDKit          3D

 28 30  0  0  0  0  0  0  0  0999 V2000
    5.8060    2.3570    0.9910 C   0  0  0  0  0  0  0  0  0  0  0  0
    6.0170    1.5770   -0.2490 C   0  0  0  0  0  0  0  0  0  0  0  0
    5.5080    0.2860   -0.2810 O   0  0  0  0  0  0  0  0  0  0  0  0
    4.1100    0.0060   -0.1580 C   0  0  0  0  0  0  0  0  0  0  0  0
    3.3760    0.9670    0.0090 O   0  0  0  0  0  0  0  0  0  0  0  0
    3.7130   -1.4140   -0.2550 C   0  0  0  0  0  0  0  0  0  0  0  0
    4.5530   -2.4450    0.1070 C   0  0  0  0  0  0  0  0  0  0  0  0
    4.1010   -3.7640   -0.1080 C   0  0  0  0  0  0  0  0  0  0  0  0
    2.8600   -4.0050   -0.6650 C   0  0  0  0  0  0  0  0  0  0  0  0
    2.3360   -5.6760   -0.8940 Cl  0  0  0  0  0  0  0  0  0  0  0  0
    2.0140   -2.9520   -1.0310 C   0  0  0  0  0  0  0  0  0  0  0  0
    2.4610   -1.6940   -0.8100 C   0  0  0  0  0  0  0  0  0  0  0  0
    1.3840   -0.2100   -1.0350 S   0  0  0  0  0  0  0  0  0  0  0  0
    0.2750   -0.2740    0.4330 C   0  0  0  0  0  0  0  0  0  0  0  0
   -1.1500   -0.2310    0.1440 C   0  0  0  0  0  0  0  0  0  0  0  0
   -1.8060    0.9710    0.0870 N   0  0  0  0  0  0  0  0  0  0  0  0
   -3.1460    1.0850    0.0860 C   0  0  0  0  0  0  0  0  0  0  0  0
   -3.7900    2.3130    0.1500 C   0  0  0  0  0  0  0  0  0  0  0  0
   -3.0160    3.5640    0.2160 C   0  0  0  0  0  0  0  0  0  0  0  0
   -5.1820    2.4050    0.2490 C   0  0  0  0  0  0  0  0  0  0  0  0
   -5.9210    1.2740    0.2740 C   0  0  0  0  0  0  0  0  0  0  0  0
   -5.3180    0.0430    0.2170 C   0  0  0  0  0  0  0  0  0  0  0  0
   -6.0930   -1.2280    0.1940 C   0  0  0  0  0  0  0  0  0  0  0  0
   -3.9560   -0.0540    0.1350 C   0  0  0  0  0  0  0  0  0  0  0  0
   -3.3160   -1.3040    0.1860 C   0  0  0  0  0  0  0  0  0  0  0  0
   -3.9430   -2.3690    0.2250 O   0  0  0  0  0  0  0  0  0  0  0  0
   -1.9560   -1.3580    0.1940 C   0  0  0  0  0  0  0  0  0  0  0  0
   -1.1980   -2.9490    0.2910 Cl  0  0  0  0  0  0  0  0  0  0  0  0
  1  2  1  0
  2  3  1  0
  3  4  1  0
  4  5  2  0
  4  6  1  0
  6  7  2  0
  6 12  1  0
  7  8  1  0
  8  9  2  0
  9 10  1  0
  9 11  1  0
 11 12  2  0
 12 13  1  0
 13 14  1  0
 14 15  1  0
 15 16  1  0
 15 27  2  0
 16 17  1  0
 17 18  2  0
 17 24  1  0
 18 19  1  0
 18 20  1  0
 20 21  2  0
 21 22  1  0
 22 23  1  0
 22 24  2  0
 24 25  1  0
 25 26  2  0
 25 27  1  0
 27 28  1  0
M  END
