
     RDKit          3D

 28 30  0  0  0  0  0  0  0  0999 V2000
   -1.3810   -2.4350    0.9660 C   0  0  0  0  0  0  0  0  0  0  0  0
   -1.4290   -0.9290    0.9340 C   0  0  1  0  0  0  0  0  0  0  0  0
   -0.7770   -0.4480    2.2170 C   0  0  0  0  0  0  0  0  0  0  0  0
   -0.8710   -0.3340   -0.2290 N   0  0  0  0  0  0  0  0  0  0  0  0
   -1.6790    0.4800   -1.0600 C   0  0  0  0  0  0  0  0  0  0  0  0
   -1.1280    0.9890   -2.0850 O   0  0  0  0  0  0  0  0  0  0  0  0
   -3.0830    0.7410   -0.7780 C   0  0  0  0  0  0  0  0  0  0  0  0
   -4.0840   -0.0680   -1.2710 C   0  0  0  0  0  0  0  0  0  0  0  0
   -5.4270    0.2050   -0.9880 C   0  0  0  0  0  0  0  0  0  0  0  0
   -5.7660    1.2900   -0.2080 C   0  0  0  0  0  0  0  0  0  0  0  0
   -7.4270    1.6530    0.1610 Cl  0  0  0  0  0  0  0  0  0  0  0  0
   -4.7600    2.1180    0.2970 C   0  0  0  0  0  0  0  0  0  0  0  0
   -3.4480    1.8190   -0.0030 C   0  0  0  0  0  0  0  0  0  0  0  0
   -2.1880    2.8450    0.6240 Cl  0  0  0  0  0  0  0  0  0  0  0  0
    0.5280   -0.5340   -0.6070 C   0  0  0  0  0  0  0  0  0  0  0  0
    1.5130    0.1780   -0.0330 C   0  0  0  0  0  0  0  0  0  0  0  0
    2.7910   -0.0030   -0.3780 C   0  0  0  0  0  0  0  0  0  0  0  0
    4.0450    0.5910    0.0430 C   0  0  0  0  0  0  0  0  0  0  0  0
    5.2570    0.2110   -0.4850 C   0  0  0  0  0  0  0  0  0  0  0  0
    6.4320    0.7920   -0.0680 C   0  0  0  0  0  0  0  0  0  0  0  0
    6.4440    1.7770    0.8940 C   0  0  0  0  0  0  0  0  0  0  0  0
    5.2090    2.1350    1.4040 C   0  0  0  0  0  0  0  0  0  0  0  0
    4.0200    1.5730    1.0070 C   0  0  0  0  0  0  0  0  0  0  0  0
    2.7150   -1.3290   -1.6760 S   0  0  0  0  0  0  0  0  0  0  0  0
    0.8550   -1.4630   -1.5660 C   0  0  0  0  0  0  0  0  0  0  0  0
    0.1110   -2.3630   -2.3620 C   0  0  0  0  0  0  0  0  0  0  0  0
    0.6910   -3.1200   -3.1790 O   0  0  0  0  0  0  0  0  0  0  0  0
   -1.2480   -2.4420   -2.2730 O   0  0  0  0  0  0  0  0  0  0  0  0
  2  1  1  6
  2  3  1  0
  2  4  1  0
  4  5  1  0
  4 15  1  0
  5  6  2  0
  5  7  1  0
  7  8  2  0
  7 13  1  0
  8  9  1  0
  9 10  2  0
 10 11  1  0
 10 12  1  0
 12 13  2  0
 13 14  1  0
 15 16  1  0
 15 25  2  0
 16 17  2  0
 17 18  1  0
 17 24  1  0
 18 19  2  0
 18 23  1  0
 19 20  1  0
 20 21  2  0
 21 22  1  0
 22 23  2  0
 24 25  1  0
 25 26  1  0
 26 27  2  0
 26 28  1  0
M  END
