
     RDKit          3D

 28 30  0  0  0  0  0  0  0  0999 V2000
   -5.5150   -1.8180    1.6820 C   0  0  0  0  0  0  0  0  0  0  0  0
   -6.1810   -0.5900    1.0350 C   0  0  0  0  0  0  0  0  0  0  0  0
   -5.5750   -0.4910   -0.6490 S   0  0  0  0  0  0  0  0  0  0  0  0
   -3.8150   -0.0980   -0.6360 C   0  0  0  0  0  0  0  0  0  0  0  0
   -3.5220    1.2920   -0.2230 C   0  0  0  0  0  0  0  0  0  0  0  0
   -4.5810    2.1300    0.0300 C   0  0  0  0  0  0  0  0  0  0  0  0
   -4.3350    3.4480    0.3970 C   0  0  0  0  0  0  0  0  0  0  0  0
   -3.0310    3.8730    0.4950 C   0  0  0  0  0  0  0  0  0  0  0  0
   -2.7260    5.5300    0.9560 Cl  0  0  0  0  0  0  0  0  0  0  0  0
   -1.9800    3.0090    0.2350 C   0  0  0  0  0  0  0  0  0  0  0  0
   -2.1880    1.7070   -0.1280 C   0  0  0  0  0  0  0  0  0  0  0  0
   -1.1820    0.7780   -0.4070 N   0  0  0  0  0  0  0  0  0  0  0  0
    0.2170    0.9680   -0.3740 C   0  0  0  0  0  0  0  0  0  0  0  0
    0.6590    2.0930   -0.0610 O   0  0  0  0  0  0  0  0  0  0  0  0
    1.1500   -0.1360   -0.7000 C   0  0  0  0  0  0  0  0  0  0  0  0
    0.7560   -1.3860   -1.0480 C   0  0  0  0  0  0  0  0  0  0  0  0
    1.8900   -2.1460   -1.2790 C   0  0  0  0  0  0  0  0  0  0  0  0
    2.9580   -1.2750   -1.0480 C   0  0  0  0  0  0  0  0  0  0  0  0
    4.3360   -1.6960   -1.1860 C   0  0  0  0  0  0  0  0  0  0  0  0
    5.3150   -1.3020   -0.4150 C   0  0  0  0  0  0  0  0  0  0  0  0
    5.0830   -0.3710    0.6870 C   0  0  0  0  0  0  0  0  0  0  0  0
    6.1100    0.0100    1.4570 C   0  0  0  0  0  0  0  0  0  0  0  0
    7.4760   -0.4540    1.2630 C   0  0  0  0  0  0  0  0  0  0  0  0
    7.7680   -1.2950    0.2910 C   0  0  0  0  0  0  0  0  0  0  0  0
    9.4020   -1.8500    0.0600 Cl  0  0  0  0  0  0  0  0  0  0  0  0
    6.6960   -1.7470   -0.5800 C   0  0  0  0  0  0  0  0  0  0  0  0
    6.9050   -2.5590   -1.5400 O   0  0  0  0  0  0  0  0  0  0  0  0
    2.4420   -0.1200   -0.7130 O   0  0  0  0  0  0  0  0  0  0  0  0
  1  2  1  0
  2  3  1  0
  3  4  1  0
  4  5  1  0
  5  6  2  0
  5 11  1  0
  6  7  1  0
  7  8  2  0
  8  9  1  0
  8 10  1  0
 10 11  2  0
 11 12  1  0
 12 13  1  0
 13 14  2  0
 13 15  1  0
 15 16  2  0
 15 28  1  0
 16 17  1  0
 17 18  2  0
 18 19  1  0
 18 28  1  0
 19 20  2  3
 20 21  1  0
 20 26  1  0
 21 22  2  0
 22 23  1  0
 23 24  2  0
 24 25  1  0
 24 26  1  0
 26 27  2  0
M  END
