
     RDKit          3D

 44 48  0  0  0  0  0  0  0  0999 V2000
   -7.2380   -3.7680    2.0830 C   0  0  0  0  0  0  0  0  0  0  0  0
   -7.1170   -2.6880    1.0500 C   0  0  0  0  0  0  0  0  0  0  0  0
   -5.8870   -2.1990    0.6530 C   0  0  0  0  0  0  0  0  0  0  0  0
   -5.7260   -1.2030   -0.2940 C   0  0  0  0  0  0  0  0  0  0  0  0
   -6.8970   -0.6640   -0.8880 C   0  0  0  0  0  0  0  0  0  0  0  0
   -8.1150   -1.1450   -0.4960 C   0  0  0  0  0  0  0  0  0  0  0  0
   -8.2240   -2.1340    0.4520 C   0  0  0  0  0  0  0  0  0  0  0  0
   -9.4850   -2.6260    0.8520 N   0  0  0  0  0  0  0  0  0  0  0  0
   -6.5260    0.3140   -1.9590 C   0  0  1  0  0  0  0  0  0  0  0  0
   -6.3880    1.6550   -1.5510 N   0  0  0  0  0  0  0  0  0  0  0  0
   -6.7950    1.9590   -0.2060 C   0  0  0  0  0  0  0  0  0  0  0  0
   -8.0890    2.7350   -0.2500 C   0  0  0  0  0  0  0  0  0  0  0  0
   -9.1010    2.0120   -0.8660 O   0  0  0  0  0  0  0  0  0  0  0  0
   -5.1440   -0.2490   -2.3450 C   0  0  0  0  0  0  0  0  0  0  0  0
   -4.6490   -0.4640   -0.8940 C   0  0  2  0  0  0  0  0  0  0  0  0
   -3.2310   -0.6270   -0.7750 C   0  0  0  0  0  0  0  0  0  0  0  0
   -2.5690   -0.3670    0.5210 C   0  0  1  0  0  0  0  0  0  0  0  0
   -2.9140   -1.1680    1.7120 C   0  0  0  0  0  0  0  0  0  0  0  0
   -1.0990   -0.3060    0.3430 N   0  0  0  0  0  0  0  0  0  0  0  0
   -0.3800    0.8550    0.6470 C   0  0  0  0  0  0  0  0  0  0  0  0
   -0.9810    1.8740    1.0890 O   0  0  0  0  0  0  0  0  0  0  0  0
    1.0880    0.9080    0.4560 C   0  0  0  0  0  0  0  0  0  0  0  0
    1.8620    1.8020    1.1520 C   0  0  0  0  0  0  0  0  0  0  0  0
    3.2260    1.8610    0.9590 C   0  0  0  0  0  0  0  0  0  0  0  0
    3.8180    1.0150    0.0580 C   0  0  0  0  0  0  0  0  0  0  0  0
    5.3100    1.1080   -0.1310 C   0  0  0  0  0  0  0  0  0  0  0  0
    6.0160    0.1320    0.6900 C   0  0  0  0  0  0  0  0  0  0  0  0
    5.2690   -0.5920    1.4650 O   0  0  0  0  0  0  0  0  0  0  0  0
    7.3910   -0.0790    0.6890 N   0  0  0  0  0  0  0  0  0  0  0  0
    7.9730   -1.3030    1.2200 C   0  0  0  0  0  0  0  0  0  0  0  0
    9.0140   -1.8230    0.3050 C   0  0  1  0  0  0  0  0  0  0  0  0
    8.5730   -3.2140   -0.1460 C   0  0  0  0  0  0  0  0  0  0  0  0
    7.4410   -3.1360   -0.9500 O   0  0  0  0  0  0  0  0  0  0  0  0
    9.3220   -1.0280   -0.7900 O   0  0  0  0  0  0  0  0  0  0  0  0
    9.3280    0.3480   -0.6970 C   0  0  0  0  0  0  0  0  0  0  0  0
   10.2180    1.1780   -1.2910 C   0  0  0  0  0  0  0  0  0  0  0  0
   10.0900    2.5450   -1.1000 C   0  0  0  0  0  0  0  0  0  0  0  0
    9.0750    3.0830   -0.3160 C   0  0  0  0  0  0  0  0  0  0  0  0
    8.9070    4.5040   -0.0970 C   0  0  0  0  0  0  0  0  0  0  0  0
    9.6850    5.3290   -0.6190 O   0  0  0  0  0  0  0  0  0  0  0  0
    8.1850    2.1990    0.2750 C   0  0  0  0  0  0  0  0  0  0  0  0
    8.2850    0.8510    0.1030 C   0  0  0  0  0  0  0  0  0  0  0  0
    3.0450    0.1250   -0.6330 C   0  0  0  0  0  0  0  0  0  0  0  0
    1.6680    0.0610   -0.4430 C   0  0  0  0  0  0  0  0  0  0  0  0
  1  2  1  0
  2  3  2  0
  2  7  1  0
  3  4  1  0
  4  5  2  0
  4 15  1  0
  5  6  1  0
  5  9  1  0
  6  7  2  0
  7  8  1  0
  9 10  1  1
  9 14  1  0
 10 11  1  0
 11 12  1  0
 12 13  1  0
 14 15  1  0
 15 16  1  6
 16 17  1  0
 17 18  1  1
 17 19  1  0
 19 20  1  0
 20 21  2  0
 20 22  1  0
 22 23  2  0
 22 44  1  0
 23 24  1  0
 24 25  2  0
 25 26  1  0
 25 43  1  0
 26 27  1  0
 27 28  2  0
 27 29  1  0
 29 30  1  0
 29 42  1  0
 30 31  1  0
 31 32  1  6
 31 34  1  0
 32 33  1  0
 34 35  1  0
 35 36  2  0
 35 42  1  0
 36 37  1  0
 37 38  2  0
 38 39  1  0
 38 41  1  0
 39 40  2  0
 41 42  2  0
 43 44  2  0
M  CHG  1  10   1
M  END
