
     RDKit          3D

 44 47  0  0  0  0  0  0  0  0999 V2000
   -9.4790    0.8790   -1.2580 C   0  0  0  0  0  0  0  0  0  0  0  0
   -8.7430    0.5700    0.0430 C   0  0  0  0  0  0  0  0  0  0  0  0
   -8.8820   -0.9170    0.2620 C   0  0  0  0  0  0  0  0  0  0  0  0
   -8.2210   -1.3600    1.4800 N   0  0  1  0  0  0  0  0  0  0  0  0
   -8.9040   -2.5610    1.9100 C   0  0  0  0  0  0  0  0  0  0  0  0
   -6.8010   -1.5680    1.2670 C   0  0  1  0  0  0  0  0  0  0  0  0
   -6.1270   -1.4850    2.6200 C   0  0  0  0  0  0  0  0  0  0  0  0
   -4.7570   -2.1280    2.5960 C   0  0  0  0  0  0  0  0  0  0  0  0
   -3.9870   -1.6590    1.4180 C   0  0  0  0  0  0  0  0  0  0  0  0
   -2.8340   -0.9660    1.7890 C   0  0  0  0  0  0  0  0  0  0  0  0
   -2.0010   -0.4560    0.8090 C   0  0  0  0  0  0  0  0  0  0  0  0
   -0.8630    0.2300    1.1730 C   0  0  0  0  0  0  0  0  0  0  0  0
    0.0040    0.7630    0.2150 C   0  0  0  0  0  0  0  0  0  0  0  0
   -0.2560    0.6170   -1.1350 C   0  0  0  0  0  0  0  0  0  0  0  0
    0.6490    1.1810   -2.1480 C   0  0  0  0  0  0  0  0  0  0  0  0
    0.1850    1.3120   -3.2920 O   0  0  0  0  0  0  0  0  0  0  0  0
    1.9670    1.5630   -1.8800 N   0  0  0  0  0  0  0  0  0  0  0  0
    2.9260    2.1240   -2.7470 C   0  0  0  0  0  0  0  0  0  0  0  0
    2.6080    2.4290   -4.0490 C   0  0  0  0  0  0  0  0  0  0  0  0
    3.5770    3.0000   -4.8910 C   0  0  0  0  0  0  0  0  0  0  0  0
    4.8320    3.2490   -4.4100 C   0  0  0  0  0  0  0  0  0  0  0  0
    5.1300    2.9280   -3.0770 C   0  0  0  0  0  0  0  0  0  0  0  0
    4.2010    2.3710   -2.2420 C   0  0  0  0  0  0  0  0  0  0  0  0
    4.4740    2.0190   -0.8460 C   0  0  0  0  0  0  0  0  0  0  0  0
    5.8060    2.3000   -0.4100 N   0  0  0  0  0  0  0  0  0  0  0  0
    6.2010    1.9530    0.9330 C   0  0  0  0  0  0  0  0  0  0  0  0
    5.3760    1.4030    1.7000 O   0  0  0  0  0  0  0  0  0  0  0  0
    7.5350    2.2390    1.3920 C   0  0  1  0  0  0  0  0  0  0  0  0
    7.6150    3.8090    1.4190 C   0  0  0  0  0  0  0  0  0  0  0  0
    7.6830    1.9120    2.7390 O   0  0  0  0  0  0  0  0  0  0  0  0
    8.7070    1.7580    0.6470 C   0  0  0  0  0  0  0  0  0  0  0  0
    8.9610    0.3470    0.7880 N   0  0  0  0  0  0  0  0  0  0  0  0
    8.1080   -0.7100    0.4220 C   0  0  0  0  0  0  0  0  0  0  0  0
    7.0090   -0.4880   -0.0840 O   0  0  0  0  0  0  0  0  0  0  0  0
    8.5100   -2.1190    0.6350 C   0  0  0  0  0  0  0  0  0  0  0  0
    9.6450   -2.3740    1.1510 O   0  0  0  0  0  0  0  0  0  0  0  0
    7.7290   -3.1870    0.3090 O   0  0  0  0  0  0  0  0  0  0  0  0
    8.2090   -4.5200    0.5550 C   0  0  0  0  0  0  0  0  0  0  0  0
   -1.3980   -0.0730   -1.4760 C   0  0  0  0  0  0  0  0  0  0  0  0
   -2.2690   -0.6080   -0.5340 C   0  0  0  0  0  0  0  0  0  0  0  0
   -3.4110   -1.2940   -0.8780 C   0  0  0  0  0  0  0  0  0  0  0  0
   -4.2820   -1.8260    0.0790 C   0  0  0  0  0  0  0  0  0  0  0  0
   -5.4370   -2.5180   -0.5300 C   0  0  0  0  0  0  0  0  0  0  0  0
   -6.4830   -2.8110    0.5150 C   0  0  0  0  0  0  0  0  0  0  0  0
  1  2  1  0
  2  3  1  0
  3  4  1  0
  4  5  1  6
  4  6  1  0
  6  7  1  1
  6 44  1  0
  7  8  1  0
  8  9  1  0
  9 10  2  0
  9 42  1  0
 10 11  1  0
 11 12  2  0
 11 40  1  0
 12 13  1  0
 13 14  2  0
 14 15  1  0
 14 39  1  0
 15 16  2  0
 15 17  1  0
 17 18  1  0
 18 19  2  0
 18 23  1  0
 19 20  1  0
 20 21  2  0
 21 22  1  0
 22 23  2  0
 23 24  1  0
 24 25  1  0
 25 26  1  0
 26 27  2  0
 26 28  1  0
 28 29  1  1
 28 30  1  0
 28 31  1  0
 31 32  1  0
 32 33  1  0
 33 34  2  0
 33 35  1  0
 35 36  2  0
 35 37  1  0
 37 38  1  0
 39 40  2  0
 40 41  1  0
 41 42  2  0
 42 43  1  0
 43 44  1  0
M  CHG  1   4   1
M  END
