
     RDKit          3D

 35 39  0  0  0  0  0  0  0  0999 V2000
    5.0550    2.8930    0.0350 C   0  0  0  0  0  0  0  0  0  0  0  0
    4.8940    1.9130   -1.1130 C   0  0  2  0  0  0  0  0  0  0  0  0
    3.4900    1.6820   -1.3570 N   0  0  0  0  0  0  0  0  0  0  0  0
    2.6670    1.1050   -0.3220 C   0  0  0  0  0  0  0  0  0  0  0  0
    3.1850    0.7750    0.8720 N   0  0  0  0  0  0  0  0  0  0  0  0
    2.4660    0.2340    1.8710 C   0  0  0  0  0  0  0  0  0  0  0  0
    1.1120    0.0150    1.6220 C   0  0  0  0  0  0  0  0  0  0  0  0
    0.5450    0.3400    0.4080 C   0  0  0  0  0  0  0  0  0  0  0  0
   -0.8760    0.0940    0.1770 C   0  0  0  0  0  0  0  0  0  0  0  0
   -1.5490   -1.1130    0.1210 C   0  0  0  0  0  0  0  0  0  0  0  0
   -0.9250   -2.4300    0.2940 C   0  0  0  0  0  0  0  0  0  0  0  0
   -0.6370   -3.1190   -0.8750 C   0  0  0  0  0  0  0  0  0  0  0  0
   -0.0550   -4.3570   -0.7590 C   0  0  0  0  0  0  0  0  0  0  0  0
    0.2380   -4.9050    0.4750 C   0  0  0  0  0  0  0  0  0  0  0  0
    0.8140   -6.1280    0.5980 F   0  0  0  0  0  0  0  0  0  0  0  0
   -0.0660   -4.1860    1.6140 C   0  0  0  0  0  0  0  0  0  0  0  0
   -0.6450   -2.9520    1.5340 C   0  0  0  0  0  0  0  0  0  0  0  0
   -2.8940   -0.8920   -0.1200 C   0  0  0  0  0  0  0  0  0  0  0  0
   -3.7640   -1.7950   -0.2250 O   0  0  0  0  0  0  0  0  0  0  0  0
   -3.0170    0.4430   -0.2060 N   0  0  0  0  0  0  0  0  0  0  0  0
   -4.3110    1.0880   -0.4570 C   0  0  1  0  0  0  0  0  0  0  0  0
   -4.9860    0.5470   -1.6860 C   0  0  0  0  0  0  0  0  0  0  0  0
   -6.4650    0.3360   -1.4430 C   0  0  0  0  0  0  0  0  0  0  0  0
   -6.9990    1.5350   -0.8470 N   0  0  0  0  0  0  0  0  0  0  0  0
   -6.4490    1.7890    0.4750 C   0  0  0  0  0  0  0  0  0  0  0  0
   -5.2330    0.9110    0.7320 C   0  0  0  0  0  0  0  0  0  0  0  0
   -1.8460    1.0310   -0.0340 N   0  0  0  0  0  0  0  0  0  0  0  0
   -1.6130    2.4570   -0.0630 C   0  0  0  0  0  0  0  0  0  0  0  0
    1.3570    0.8770   -0.5200 N   0  0  0  0  0  0  0  0  0  0  0  0
    5.6270    0.6820   -0.7870 C   0  0  0  0  0  0  0  0  0  0  0  0
    6.5430    0.6940    0.2370 C   0  0  0  0  0  0  0  0  0  0  0  0
    7.2590   -0.4540    0.5840 C   0  0  0  0  0  0  0  0  0  0  0  0
    7.0550   -1.6300   -0.1040 C   0  0  0  0  0  0  0  0  0  0  0  0
    6.1440   -1.6670   -1.1320 C   0  0  0  0  0  0  0  0  0  0  0  0
    5.4520   -0.5180   -1.4510 C   0  0  0  0  0  0  0  0  0  0  0  0
  2  1  1  1
  2  3  1  0
  2 30  1  0
  3  4  1  0
  4  5  2  0
  4 29  1  0
  5  6  1  0
  6  7  2  0
  7  8  1  0
  8  9  1  0
  8 29  2  0
  9 10  2  0
  9 27  1  0
 10 11  1  0
 10 18  1  0
 11 12  2  0
 11 17  1  0
 12 13  1  0
 13 14  2  0
 14 15  1  0
 14 16  1  0
 16 17  2  0
 18 19  2  0
 18 20  1  0
 21 20  1  1
 20 27  1  0
 21 22  1  0
 21 26  1  0
 22 23  1  0
 23 24  1  0
 24 25  1  0
 25 26  1  0
 27 28  1  0
 30 31  2  0
 30 35  1  0
 31 32  1  0
 32 33  2  0
 33 34  1  0
 34 35  2  0
M  CHG  1  24   1
M  END
