
     RDKit          3D

 44 48  0  0  0  0  0  0  0  0999 V2000
   -7.6000   -2.7150    3.2160 C   0  0  0  0  0  0  0  0  0  0  0  0
   -6.2400   -2.5070    2.9840 O   0  0  0  0  0  0  0  0  0  0  0  0
   -5.7990   -3.4760    2.0790 C   0  0  0  0  0  0  0  0  0  0  0  0
   -4.3430   -3.3260    1.7690 C   0  0  0  0  0  0  0  0  0  0  0  0
   -4.0130   -1.9920    1.2120 C   0  0  1  0  0  0  0  0  0  0  0  0
   -2.4870   -1.9150    0.9380 C   0  0  0  0  0  0  0  0  0  0  0  0
   -2.1720   -0.5010    0.8280 N   0  0  0  0  0  0  0  0  0  0  0  0
   -1.1100   -0.0190    1.6200 C   0  0  0  0  0  0  0  0  0  0  0  0
   -0.5200   -0.8730    2.3790 O   0  0  0  0  0  0  0  0  0  0  0  0
   -0.6200    1.3770    1.6520 C   0  0  0  0  0  0  0  0  0  0  0  0
    0.2810    1.7260    2.7690 C   0  0  0  0  0  0  0  0  0  0  0  0
    1.5580    0.9990    2.9090 C   0  0  0  0  0  0  0  0  0  0  0  0
    2.4750    1.1320    1.7410 C   0  0  0  0  0  0  0  0  0  0  0  0
    2.0920    1.7560    0.7280 O   0  0  0  0  0  0  0  0  0  0  0  0
    3.7610    0.5330    1.8380 N   0  0  0  0  0  0  0  0  0  0  0  0
    4.6810    0.6440    0.7110 C   0  0  0  0  0  0  0  0  0  0  0  0
    4.4910   -0.4340   -0.2680 C   0  0  0  0  0  0  0  0  0  0  0  0
    5.3670   -0.4490   -1.4530 C   0  0  0  0  0  0  0  0  0  0  0  0
    5.2940   -1.4800   -2.4230 C   0  0  0  0  0  0  0  0  0  0  0  0
    6.1850   -1.2630   -3.3760 N   0  0  0  0  0  0  0  0  0  0  0  0
    6.8500   -0.1220   -3.0760 C   0  0  0  0  0  0  0  0  0  0  0  0
    7.8650    0.5610   -3.7130 C   0  0  0  0  0  0  0  0  0  0  0  0
    8.3980    1.7180   -3.2230 C   0  0  0  0  0  0  0  0  0  0  0  0
    7.9180    2.2280   -2.0620 C   0  0  0  0  0  0  0  0  0  0  0  0
    6.8890    1.5630   -1.3870 C   0  0  0  0  0  0  0  0  0  0  0  0
    6.3580    0.4010   -1.8850 C   0  0  0  0  0  0  0  0  0  0  0  0
    4.1890   -0.1350    3.0270 C   0  0  1  0  0  0  0  0  0  0  0  0
    4.5360   -1.5860    2.8200 C   0  0  0  0  0  0  0  0  0  0  0  0
    5.4510    0.5710    3.5060 C   0  0  0  0  0  0  0  0  0  0  0  0
   -2.9590    0.3020   -0.0270 C   0  0  2  0  0  0  0  0  0  0  0  0
   -4.2430   -0.2500   -0.5200 C   0  0  2  0  0  0  0  0  0  0  0  0
   -4.6200   -1.6170   -0.0960 C   0  0  2  0  0  0  0  0  0  0  0  0
   -6.0770   -1.7670   -0.1370 N   0  0  0  0  0  0  0  0  0  0  0  0
   -3.7460   -0.1440   -1.9510 C   0  0  1  0  0  0  0  0  0  0  0  0
   -3.5470   -1.4040   -2.6960 C   0  0  0  0  0  0  0  0  0  0  0  0
   -4.6300    0.6840   -2.6870 O   0  0  0  0  0  0  0  0  0  0  0  0
   -2.5310    0.5850   -1.4230 C   0  0  2  0  0  0  0  0  0  0  0  0
   -1.2450    0.0650   -1.9370 C   0  0  0  0  0  0  0  0  0  0  0  0
   -1.0920    0.8740   -3.2340 C   0  0  0  0  0  0  0  0  0  0  0  0
   -1.9670    1.9160   -3.1950 O   0  0  0  0  0  0  0  0  0  0  0  0
   -2.5550    1.9800   -1.9370 C   0  0  2  0  0  0  0  0  0  0  0  0
   -1.8880    3.0410   -1.1660 C   0  0  0  0  0  0  0  0  0  0  0  0
   -2.1070    4.3490   -1.9590 C   0  0  0  0  0  0  0  0  0  0  0  0
   -3.4860    4.5290   -2.0360 O   0  0  0  0  0  0  0  0  0  0  0  0
  1  2  1  0
  2  3  1  0
  3  4  1  0
  5  4  1  6
  5  6  1  0
  5 32  1  0
  6  7  1  0
  7  8  1  0
 30  7  1  6
  8  9  2  0
  8 10  1  0
 10 11  1  0
 11 12  1  0
 12 13  1  0
 13 14  2  0
 13 15  1  0
 15 16  1  0
 15 27  1  0
 16 17  1  0
 17 18  1  0
 18 19  2  0
 18 26  1  0
 19 20  1  0
 20 21  1  0
 21 22  2  0
 21 26  1  0
 22 23  1  0
 23 24  2  0
 24 25  1  0
 25 26  2  0
 27 28  1  6
 27 29  1  0
 30 31  1  0
 30 37  1  0
 31 32  1  1
 31 34  1  0
 32 33  1  1
 34 35  1  6
 34 36  1  0
 34 37  1  0
 37 38  1  6
 37 41  1  0
 38 39  1  0
 39 40  1  0
 40 41  1  0
 41 42  1  1
 42 43  1  0
 43 44  1  0
M  END
