
     RDKit          3D

 21 20  0  0  0  0  0  0  0  0999 V2000
   -4.8550    0.6270    1.1030 C   0  0  0  0  0  0  0  0  0  0  0  0
   -3.5540    0.2200    1.5390 N   0  0  0  0  0  0  0  0  0  0  0  0
   -2.9170   -0.7970    0.7950 C   0  0  1  0  0  0  0  0  0  0  0  0
   -3.8010   -1.6020   -0.1230 C   0  0  0  0  0  0  0  0  0  0  0  0
   -3.0460   -2.5850   -0.8020 O   0  0  0  0  0  0  0  0  0  0  0  0
   -1.7180   -0.2230    0.0430 C   0  0  1  0  0  0  0  0  0  0  0  0
   -1.1770   -1.2980   -0.6250 O   0  0  0  0  0  0  0  0  0  0  0  0
    0.1040   -1.5770   -0.1990 C   0  0  0  0  0  0  0  0  0  0  0  0
    0.9900   -0.4330   -0.5250 C   0  0  0  0  0  0  0  0  0  0  0  0
    2.3380   -0.6380   -0.1220 O   0  0  0  0  0  0  0  0  0  0  0  0
    3.2000    0.4440   -0.4240 C   0  0  0  0  0  0  0  0  0  0  0  0
    2.7550    1.4650   -0.9980 O   0  0  0  0  0  0  0  0  0  0  0  0
    4.6070    0.3910   -0.0780 C   0  0  0  0  0  0  0  0  0  0  0  0
    5.3980    1.4050   -0.3650 C   0  0  0  0  0  0  0  0  0  0  0  0
    4.9930    2.5990   -1.0100 N   0  0  0  0  0  0  0  0  0  0  0  0
    5.0960   -0.8050    0.5870 C   0  0  0  0  0  0  0  0  0  0  0  0
    4.2230   -1.8640    0.8760 N   0  0  0  0  0  0  0  0  0  0  0  0
    6.2980   -0.8820    0.8970 O   0  0  0  0  0  0  0  0  0  0  0  0
   -2.0940    0.8760   -0.8830 C   0  0  0  0  0  0  0  0  0  0  0  0
   -2.6250    2.1130   -0.4670 N   0  0  0  0  0  0  0  0  0  0  0  0
   -1.9330    0.7080   -2.1270 O   0  0  0  0  0  0  0  0  0  0  0  0
  1  2  1  0
  2  3  1  0
  3  4  1  6
  3  6  1  0
  4  5  1  0
  6  7  1  6
  6 19  1  0
  7  8  1  0
  8  9  1  0
  9 10  1  0
 10 11  1  0
 11 12  2  0
 11 13  1  0
 13 14  2  3
 13 16  1  0
 14 15  1  0
 16 17  1  0
 16 18  2  0
 19 20  1  0
 19 21  2  0
M  CHG  2   2   1  15   1
M  END
