
     RDKit          3D

 21 20  0  0  0  0  0  0  0  0999 V2000
    5.2770    2.5150    0.2980 N   0  0  0  0  0  0  0  0  0  0  0  0
    4.1160    1.7880   -0.0390 C   0  0  0  0  0  0  0  0  0  0  0  0
    3.0130    2.3310   -0.2490 O   0  0  0  0  0  0  0  0  0  0  0  0
    4.1980    0.3060   -0.1530 C   0  0  1  0  0  0  0  0  0  0  0  0
    4.6370   -0.3130    1.1570 C   0  0  0  0  0  0  0  0  0  0  0  0
    4.7110   -1.7530    1.0280 N   0  0  0  0  0  0  0  0  0  0  0  0
    2.8820   -0.2610   -0.5130 C   0  0  0  0  0  0  0  0  0  0  0  0
    2.3370   -1.0760    0.2650 O   0  0  0  0  0  0  0  0  0  0  0  0
    2.2100    0.0650   -1.6820 O   0  0  0  0  0  0  0  0  0  0  0  0
    0.9690   -0.4550   -2.0480 C   0  0  0  0  0  0  0  0  0  0  0  0
   -0.0850   -0.1100   -1.0140 C   0  0  0  0  0  0  0  0  0  0  0  0
    0.2390    0.5530   -0.0130 O   0  0  0  0  0  0  0  0  0  0  0  0
   -1.4160   -0.5270   -1.1670 N   0  0  0  0  0  0  0  0  0  0  0  0
   -2.5020   -0.2160   -0.1900 C   0  0  2  0  0  0  0  0  0  0  0  0
   -2.6260    1.2490   -0.2040 C   0  0  0  0  0  0  0  0  0  0  0  0
   -3.5450    1.9110    0.6460 N   0  0  0  0  0  0  0  0  0  0  0  0
   -2.1050   -0.8120    1.1620 C   0  0  0  0  0  0  0  0  0  0  0  0
   -3.0360   -0.6020    2.1450 O   0  0  0  0  0  0  0  0  0  0  0  0
   -3.6410   -1.0340   -0.7290 C   0  0  0  0  0  0  0  0  0  0  0  0
   -4.9360   -1.0450   -0.0640 C   0  0  0  0  0  0  0  0  0  0  0  0
   -5.6190    0.1300   -0.0070 O   0  0  0  0  0  0  0  0  0  0  0  0
  1  2  1  0
  2  3  2  0
  2  4  1  0
  4  5  1  1
  4  7  1  0
  5  6  1  0
  7  8  2  0
  7  9  1  0
  9 10  1  0
 10 11  1  0
 11 12  2  0
 11 13  1  0
 13 14  1  0
 14 15  1  1
 14 17  1  0
 14 19  1  0
 15 16  1  0
 17 18  1  0
 19 20  1  0
 20 21  1  0
M  CHG  2   6   1  16   1
M  END
