
     RDKit          3D

 16 15  0  0  0  0  0  0  0  0999 V2000
   -3.1810    1.3180   -0.2200 C   0  0  0  0  0  0  0  0  0  0  0  0
   -3.3530    0.7890    1.1710 C   0  0  2  0  0  0  0  0  0  0  0  0
   -3.9050    1.9080    2.0640 C   0  0  0  0  0  0  0  0  0  0  0  0
   -2.1660    0.3540    1.7540 O   0  0  0  0  0  0  0  0  0  0  0  0
   -1.3470   -0.6440    1.2770 C   0  0  0  0  0  0  0  0  0  0  0  0
   -1.7440   -1.9510    1.4670 O   0  0  0  0  0  0  0  0  0  0  0  0
   -0.2150   -0.3520    0.6560 C   0  0  0  0  0  0  0  0  0  0  0  0
    0.0960    0.9830    0.5140 O   0  0  0  0  0  0  0  0  0  0  0  0
    0.6610   -1.3630    0.1470 C   0  0  0  0  0  0  0  0  0  0  0  0
    0.0010   -3.1910    0.4720 Br  0  0  0  0  0  0  0  0  0  0  0  0
    1.7890   -1.2890   -0.4770 C   0  0  0  0  0  0  0  0  0  0  0  0
    2.6050   -0.1820   -0.9040 C   0  0  0  0  0  0  0  0  0  0  0  0
    2.1590    1.1180   -0.6270 O   0  0  0  0  0  0  0  0  0  0  0  0
    3.7460   -0.2710   -1.5390 C   0  0  0  0  0  0  0  0  0  0  0  0
    4.4050   -1.5070   -1.9320 C   0  0  0  0  0  0  0  0  0  0  0  0
    4.5600   -1.5360   -3.3440 O   0  0  0  0  0  0  0  0  0  0  0  0
  2  1  1  6
  2  3  1  0
  2  4  1  0
  4  5  1  0
  5  6  1  0
  5  7  2  3
  7  8  1  0
  7  9  1  0
  9 10  1  0
  9 11  2  3
 11 12  1  0
 12 13  1  0
 12 14  2  3
 14 15  1  0
 15 16  1  0
M  END
