
     RDKit          3D

 21 20  0  0  0  0  0  0  0  0999 V2000
   -0.3740    1.8660   -2.8190 C   0  0  0  0  0  0  0  0  0  0  0  0
   -0.2240    0.9560   -1.8470 C   0  0  0  0  0  0  0  0  0  0  0  0
    0.5550   -0.2410   -2.2100 C   0  0  0  0  0  0  0  0  0  0  0  0
    1.6920   -0.4910   -1.5060 O   0  0  0  0  0  0  0  0  0  0  0  0
    1.9630   -0.8060   -0.2230 C   0  0  0  0  0  0  0  0  0  0  0  0
    1.0060   -0.9210    0.5650 O   0  0  0  0  0  0  0  0  0  0  0  0
    3.3430   -1.0230    0.3080 C   0  0  2  0  0  0  0  0  0  0  0  0
    3.2590   -1.3340    1.6700 O   0  0  0  0  0  0  0  0  0  0  0  0
    2.5590   -2.4390    2.0890 C   0  0  0  0  0  0  0  0  0  0  0  0
    2.2120   -3.3240    1.2250 N   0  0  0  0  0  0  0  0  0  0  0  0
    4.1250    0.2380    0.0950 C   0  0  0  0  0  0  0  0  0  0  0  0
    4.3430    0.7520   -1.1990 N   0  0  0  0  0  0  0  0  0  0  0  0
    4.5790    0.8200    1.1060 O   0  0  0  0  0  0  0  0  0  0  0  0
   -0.8780    1.2670   -0.5780 C   0  0  0  0  0  0  0  0  0  0  0  0
   -1.8270    0.3310   -0.1840 O   0  0  0  0  0  0  0  0  0  0  0  0
   -2.4530    0.6580    0.9790 C   0  0  1  0  0  0  0  0  0  0  0  0
   -3.9240    0.9950    0.8020 C   0  0  0  0  0  0  0  0  0  0  0  0
   -4.1050    2.1160   -0.0820 N   0  0  0  0  0  0  0  0  0  0  0  0
   -2.3460   -0.4090    1.9930 C   0  0  0  0  0  0  0  0  0  0  0  0
   -1.7350   -1.6470    1.7330 N   0  0  0  0  0  0  0  0  0  0  0  0
   -2.8330   -0.2030    3.1640 O   0  0  0  0  0  0  0  0  0  0  0  0
  1  2  2  0
  2  3  1  0
  2 14  1  0
  3  4  1  0
  4  5  1  0
  5  6  2  0
  5  7  1  0
  7  8  1  1
  7 11  1  0
  8  9  1  0
  9 10  2  0
 11 12  1  0
 11 13  2  0
 14 15  1  0
 15 16  1  0
 16 17  1  6
 16 19  1  0
 17 18  1  0
 19 20  1  0
 19 21  2  0
M  CHG  2  10   1  18   1
M  END
