
     RDKit          3D

 21 23  0  0  0  0  0  0  0  0999 V2000
    3.5000   -1.5960    2.8830 N   0  0  0  0  0  0  0  0  0  0  0  0
    2.7310   -1.2540    2.0610 C   0  0  0  0  0  0  0  0  0  0  0  0
    1.8070   -0.8210    1.0490 C   0  0  0  0  0  0  0  0  0  0  0  0
    0.5100   -0.4740    1.3740 C   0  0  0  0  0  0  0  0  0  0  0  0
   -0.3740   -0.0590    0.4000 C   0  0  0  0  0  0  0  0  0  0  0  0
   -1.7480    0.3130    0.7160 C   0  0  0  0  0  0  0  0  0  0  0  0
   -2.4060    1.2790   -0.0340 C   0  0  0  0  0  0  0  0  0  0  0  0
   -3.7050    1.6640    0.2250 C   0  0  0  0  0  0  0  0  0  0  0  0
   -4.3880    1.0710    1.2730 C   0  0  0  0  0  0  0  0  0  0  0  0
   -5.6780    1.4650    1.5180 O   0  0  0  0  0  0  0  0  0  0  0  0
   -3.7480    0.1100    2.0270 C   0  0  0  0  0  0  0  0  0  0  0  0
   -4.3830   -0.4890    3.0560 F   0  0  0  0  0  0  0  0  0  0  0  0
   -2.4540   -0.2610    1.7530 C   0  0  0  0  0  0  0  0  0  0  0  0
    0.0230    0.0190   -0.9340 C   0  0  0  0  0  0  0  0  0  0  0  0
    1.3020   -0.3200   -1.2730 C   0  0  0  0  0  0  0  0  0  0  0  0
    1.7220   -0.2520   -2.5890 C   0  0  0  0  0  0  0  0  0  0  0  0
    3.0110   -0.5920   -2.9450 C   0  0  0  0  0  0  0  0  0  0  0  0
    3.8560   -1.0000   -1.9350 C   0  0  0  0  0  0  0  0  0  0  0  0
    5.1560   -1.3450   -2.2800 O   0  0  0  0  0  0  0  0  0  0  0  0
    3.4730   -1.0810   -0.6090 C   0  0  0  0  0  0  0  0  0  0  0  0
    2.1760   -0.7340   -0.2890 C   0  0  0  0  0  0  0  0  0  0  0  0
  1  2  3  0
  2  3  1  0
  3  4  2  0
  3 21  1  0
  4  5  1  0
  5  6  1  0
  5 14  2  0
  6  7  2  0
  6 13  1  0
  7  8  1  0
  8  9  2  0
  9 10  1  0
  9 11  1  0
 11 12  1  0
 11 13  2  0
 14 15  1  0
 15 16  2  0
 15 21  1  0
 16 17  1  0
 17 18  2  0
 18 19  1  0
 18 20  1  0
 20 21  2  0
M  END
