
     RDKit          3D

 21 20  0  0  0  0  0  0  0  0999 V2000
    2.0690    3.9860    0.0300 C   0  0  0  0  0  0  0  0  0  0  0  0
    1.6920    3.1670    1.1240 O   0  0  0  0  0  0  0  0  0  0  0  0
    0.6080    2.4190    0.8210 C   0  0  0  0  0  0  0  0  0  0  0  0
    0.7210    1.2040    0.0100 C   0  0  0  0  0  0  0  0  0  0  0  0
    1.6860    0.5700   -0.5230 C   0  0  0  0  0  0  0  0  0  0  0  0
    3.1010    0.6920   -0.5990 C   0  0  0  0  0  0  0  0  0  0  0  0
    3.7760    1.5750   -0.0260 O   0  0  0  0  0  0  0  0  0  0  0  0
    3.9250   -0.2250   -1.3720 N   0  0  0  0  0  0  0  0  0  0  0  0
    5.3360   -0.0860   -1.4350 C   0  0  0  0  0  0  0  0  0  0  0  0
    6.1100   -0.9990   -2.1990 N   0  0  0  0  0  0  0  0  0  0  0  0
    5.9060    0.8480   -0.8130 O   0  0  0  0  0  0  0  0  0  0  0  0
   -0.5790    0.5630   -0.2520 O   0  0  0  0  0  0  0  0  0  0  0  0
   -0.7380   -0.6470    0.4050 C   0  0  1  0  0  0  0  0  0  0  0  0
   -0.6280   -0.4290    1.8940 C   0  0  0  0  0  0  0  0  0  0  0  0
   -0.7910   -1.7190    2.5380 N   0  0  0  0  0  0  0  0  0  0  0  0
   -2.0250   -1.3520    0.0540 C   0  0  2  0  0  0  0  0  0  0  0  0
   -2.0630   -1.6370   -1.3590 N   0  0  0  0  0  0  0  0  0  0  0  0
   -3.2390   -0.5730    0.5070 C   0  0  0  0  0  0  0  0  0  0  0  0
   -4.5250   -1.2690    0.1620 C   0  0  1  0  0  0  0  0  0  0  0  0
   -5.5670   -0.4500    0.6330 O   0  0  0  0  0  0  0  0  0  0  0  0
   -4.7080   -1.3580   -1.2250 O   0  0  0  0  0  0  0  0  0  0  0  0
  1  2  1  0
  2  3  1  0
  3  4  1  0
  4  5  2  3
  4 12  1  0
  5  6  1  0
  6  7  2  0
  6  8  1  0
  8  9  1  0
  9 10  1  0
  9 11  2  0
 12 13  1  0
 13 14  1  1
 13 16  1  0
 14 15  1  0
 16 17  1  6
 16 18  1  0
 18 19  1  0
 19 20  1  1
 19 21  1  0
M  CHG  2  15   1  17   1
M  END
