
     RDKit          3D

 47 50  0  0  0  0  0  0  0  0999 V2000
    1.4300    1.2720    1.9910 C   0  0  0  0  0  0  0  0  0  0  0  0
    2.0790    0.7140    0.8810 O   0  0  0  0  0  0  0  0  0  0  0  0
    1.4940   -0.0080   -0.1280 C   0  0  0  0  0  0  0  0  0  0  0  0
    0.1530   -0.2460   -0.1230 C   0  0  0  0  0  0  0  0  0  0  0  0
   -0.4530   -0.9780   -1.1390 C   0  0  0  0  0  0  0  0  0  0  0  0
   -1.8200   -1.2290   -1.1640 O   0  0  0  0  0  0  0  0  0  0  0  0
   -2.7190   -0.7770   -0.1730 C   0  0  0  0  0  0  0  0  0  0  0  0
   -4.1130   -1.1710   -0.5590 C   0  0  0  0  0  0  0  0  0  0  0  0
   -4.3080   -1.7940   -1.6310 O   0  0  0  0  0  0  0  0  0  0  0  0
   -5.2330   -0.8520    0.2580 N   0  0  0  0  0  0  0  0  0  0  0  0
   -6.5110   -1.2050   -0.1280 N   0  0  0  0  0  0  0  0  0  0  0  0
   -7.3100   -2.1960    0.4820 C   0  0  0  0  0  0  0  0  0  0  0  0
   -6.8650   -2.8280    1.4450 O   0  0  0  0  0  0  0  0  0  0  0  0
   -8.6930   -2.4910   -0.0220 C   0  0  1  0  0  0  0  0  0  0  0  0
   -9.6760   -2.3040    1.0700 C   0  0  0  0  0  0  0  0  0  0  0  0
   -9.7310   -0.8920    1.5930 C   0  0  2  0  0  0  0  0  0  0  0  0
  -10.9910   -0.7880    2.3830 C   0  0  0  0  0  0  0  0  0  0  0  0
  -11.1700   -1.7210    3.4460 N   0  0  0  0  0  0  0  0  0  0  0  0
  -11.8750    0.0550    2.1630 O   0  0  0  0  0  0  0  0  0  0  0  0
   -9.6630    0.1170    0.5280 C   0  0  0  0  0  0  0  0  0  0  0  0
   -9.9410    1.4360    0.7980 C   0  0  0  0  0  0  0  0  0  0  0  0
   -9.8750    2.3970   -0.2180 C   0  0  0  0  0  0  0  0  0  0  0  0
   -9.5350    2.0530   -1.4940 C   0  0  0  0  0  0  0  0  0  0  0  0
   -9.4640    3.0980   -2.5690 C   0  0  0  0  0  0  0  0  0  0  0  0
   -9.2560    0.7100   -1.7500 C   0  0  0  0  0  0  0  0  0  0  0  0
   -9.3190   -0.2410   -0.7550 C   0  0  0  0  0  0  0  0  0  0  0  0
   -9.0230   -1.5730   -1.0810 O   0  0  0  0  0  0  0  0  0  0  0  0
    0.3740   -1.4480   -2.1420 C   0  0  0  0  0  0  0  0  0  0  0  0
    1.7250   -1.2240   -2.1730 C   0  0  0  0  0  0  0  0  0  0  0  0
    2.3000   -0.4950   -1.1580 C   0  0  0  0  0  0  0  0  0  0  0  0
    3.6550   -0.2540   -1.1840 O   0  0  0  0  0  0  0  0  0  0  0  0
    4.4590   -0.7560   -2.2180 C   0  0  0  0  0  0  0  0  0  0  0  0
    5.8470   -0.2740   -2.0900 C   0  0  0  0  0  0  0  0  0  0  0  0
    6.5390   -0.6180   -0.8670 N   0  0  0  0  0  0  0  0  0  0  0  0
    7.8890   -0.1520   -0.6710 C   0  0  0  0  0  0  0  0  0  0  0  0
    8.3610    0.5190   -1.5930 O   0  0  0  0  0  0  0  0  0  0  0  0
    8.6490   -0.4190    0.4820 N   0  0  0  0  0  0  0  0  0  0  0  0
    9.9690    0.0320    0.7180 C   0  0  0  0  0  0  0  0  0  0  0  0
   10.7990    0.6280   -0.1970 C   0  0  0  0  0  0  0  0  0  0  0  0
   12.0860    1.0740    0.1670 C   0  0  0  0  0  0  0  0  0  0  0  0
   12.5720    0.9360    1.4420 C   0  0  0  0  0  0  0  0  0  0  0  0
   13.9120    1.4320    1.7820 C   0  0  0  0  0  0  0  0  0  0  0  0
   14.3790    1.3250    2.9230 O   0  0  0  0  0  0  0  0  0  0  0  0
   14.7540    2.0920    0.7330 C   0  0  0  0  0  0  0  0  0  0  0  0
   15.9390    2.5830    1.2520 O   0  0  0  0  0  0  0  0  0  0  0  0
   11.7490    0.3390    2.3610 C   0  0  0  0  0  0  0  0  0  0  0  0
   10.4870   -0.1000    2.0140 C   0  0  0  0  0  0  0  0  0  0  0  0
  1  2  1  0
  2  3  1  0
  3  4  2  0
  3 30  1  0
  4  5  1  0
  5  6  1  0
  5 28  2  0
  6  7  1  0
  7  8  1  0
  8  9  2  0
  8 10  1  0
 10 11  1  0
 11 12  1  0
 12 13  2  0
 14 12  1  1
 14 15  1  0
 14 27  1  0
 15 16  1  0
 16 17  1  6
 16 20  1  0
 17 18  1  0
 17 19  2  0
 20 21  2  0
 20 26  1  0
 21 22  1  0
 22 23  2  0
 23 24  1  0
 23 25  1  0
 25 26  2  0
 26 27  1  0
 28 29  1  0
 29 30  2  0
 30 31  1  0
 31 32  1  0
 32 33  1  0
 33 34  1  0
 34 35  1  0
 35 36  2  0
 35 37  1  0
 37 38  1  0
 38 39  2  0
 38 47  1  0
 39 40  1  0
 40 41  2  0
 41 42  1  0
 41 46  1  0
 42 43  2  0
 42 44  1  0
 44 45  1  0
 46 47  2  0
M  END
