
     RDKit          3D

 40 42  0  0  0  0  0  0  0  0999 V2000
   -5.9390   -2.7910   -0.3410 C   0  0  0  0  0  0  0  0  0  0  0  0
   -4.6680   -2.9160    0.4630 C   0  0  1  0  0  0  0  0  0  0  0  0
   -3.7040   -3.7750   -0.2970 C   0  0  0  0  0  0  0  0  0  0  0  0
   -4.0850   -1.5290    0.7420 C   0  0  0  0  0  0  0  0  0  0  0  0
   -3.8180   -0.9150   -0.6050 C   0  0  0  0  0  0  0  0  0  0  0  0
   -3.2790    0.3760   -0.6210 N   0  0  0  0  0  0  0  0  0  0  0  0
   -1.9400    0.5180   -0.9310 C   0  0  0  0  0  0  0  0  0  0  0  0
   -1.0800    1.0980    0.1520 C   0  0  1  0  0  0  0  0  0  0  0  0
   -1.1660    0.2390    1.2770 O   0  0  0  0  0  0  0  0  0  0  0  0
    0.3780    1.0850   -0.2270 C   0  0  2  0  0  0  0  0  0  0  0  0
    0.7090    2.0070   -1.3850 C   0  0  0  0  0  0  0  0  0  0  0  0
    2.1520    1.9260   -1.7910 C   0  0  0  0  0  0  0  0  0  0  0  0
    3.1320    2.6860   -1.1970 C   0  0  0  0  0  0  0  0  0  0  0  0
    4.4960    2.5030   -1.5620 C   0  0  0  0  0  0  0  0  0  0  0  0
    4.8750    1.5830   -2.4970 C   0  0  0  0  0  0  0  0  0  0  0  0
    3.9020    0.8470   -3.0770 C   0  0  0  0  0  0  0  0  0  0  0  0
    2.5230    1.0060   -2.7330 C   0  0  0  0  0  0  0  0  0  0  0  0
    6.2350    1.4290   -2.8120 O   0  0  0  0  0  0  0  0  0  0  0  0
    7.0400    0.4210   -2.2110 C   0  0  0  0  0  0  0  0  0  0  0  0
    7.1550    0.4550   -0.7450 C   0  0  0  0  0  0  0  0  0  0  0  0
    6.0270   -0.0290    0.0930 C   0  0  0  0  0  0  0  0  0  0  0  0
    5.1950   -1.1100   -0.4780 C   0  0  0  0  0  0  0  0  0  0  0  0
    5.9470   -1.9840   -1.0830 O   0  0  0  0  0  0  0  0  0  0  0  0
    3.8240   -1.3010   -0.4560 N   0  0  0  0  0  0  0  0  0  0  0  0
    2.8470   -1.4270    0.5690 C   0  0  1  0  0  0  0  0  0  0  0  0
    3.1490   -0.9280    1.9320 C   0  0  1  0  0  0  0  0  0  0  0  0
    4.3450   -1.6290    2.5570 C   0  0  0  0  0  0  0  0  0  0  0  0
    3.2260    0.5360    2.1430 C   0  0  0  0  0  0  0  0  0  0  0  0
    1.4380   -1.2430    0.1690 C   0  0  0  0  0  0  0  0  0  0  0  0
    0.6690   -2.2220    0.6070 O   0  0  0  0  0  0  0  0  0  0  0  0
    0.7990   -0.2430   -0.5730 N   0  0  0  0  0  0  0  0  0  0  0  0
   -4.3750    1.6210   -0.7510 S   0  0  2  0  0  0  0  0  0  0  0  0
   -5.3010    1.4410   -1.9690 O   0  0  0  0  0  0  0  0  0  0  0  0
   -3.7460    2.9760   -0.9740 O   0  0  0  0  0  0  0  0  0  0  0  0
   -5.4460    1.6450    0.6190 C   0  0  0  0  0  0  0  0  0  0  0  0
   -5.0770    2.2890    1.8020 C   0  0  0  0  0  0  0  0  0  0  0  0
   -5.9240    2.3290    2.8880 C   0  0  0  0  0  0  0  0  0  0  0  0
   -7.1720    1.7260    2.8250 C   0  0  0  0  0  0  0  0  0  0  0  0
   -7.5460    1.0910    1.6710 C   0  0  0  0  0  0  0  0  0  0  0  0
   -6.6720    1.0580    0.5720 C   0  0  0  0  0  0  0  0  0  0  0  0
  2  1  1  6
  2  3  1  0
  2  4  1  0
  4  5  1  0
  5  6  1  0
  6  7  1  0
 32  6  1  1
  7  8  1  0
  8  9  1  1
  8 10  1  0
 10 11  1  6
 10 31  1  0
 11 12  1  0
 12 13  2  0
 12 17  1  0
 13 14  1  0
 14 15  2  0
 15 16  1  0
 15 18  1  0
 16 17  2  0
 18 19  1  0
 19 20  1  0
 20 21  1  0
 21 22  1  0
 22 23  2  0
 22 24  1  0
 25 24  1  6
 25 26  1  0
 25 29  1  0
 26 27  1  6
 26 28  1  0
 29 30  2  0
 29 31  1  0
 32 33  2  0
 32 34  2  0
 32 35  1  0
 35 36  2  0
 35 40  1  0
 36 37  1  0
 37 38  2  0
 38 39  1  0
 39 40  2  0
M  END
