
     RDKit          3D

 47 49  0  0  0  0  0  0  0  0999 V2000
   -5.9860   -0.0620    3.8110 C   0  0  0  0  0  0  0  0  0  0  0  0
   -6.3690   -1.0220    2.7660 N   0  0  0  0  0  0  0  0  0  0  0  0
   -7.6360   -0.7650    2.1810 C   0  0  0  0  0  0  0  0  0  0  0  0
   -8.3180    0.2470    2.6060 O   0  0  0  0  0  0  0  0  0  0  0  0
   -8.2490   -1.5570    1.1190 C   0  0  1  0  0  0  0  0  0  0  0  0
   -8.0140   -0.8680   -0.1980 C   0  0  0  0  0  0  0  0  0  0  0  0
   -7.8310   -0.3240   -1.2310 N   0  0  0  0  0  0  0  0  0  0  0  0
   -7.7670   -2.9650    1.0100 C   0  0  0  0  0  0  0  0  0  0  0  0
   -6.6800   -3.4090    0.5070 C   0  0  0  0  0  0  0  0  0  0  0  0
   -5.4920   -2.9520   -0.1300 C   0  0  0  0  0  0  0  0  0  0  0  0
   -4.6860   -3.8870   -0.6110 O   0  0  0  0  0  0  0  0  0  0  0  0
   -4.9910   -1.6740   -0.3630 N   0  0  0  0  0  0  0  0  0  0  0  0
   -3.8370   -1.2930   -1.1400 C   0  0  0  0  0  0  0  0  0  0  0  0
   -3.3640   -2.0160   -2.1780 C   0  0  0  0  0  0  0  0  0  0  0  0
   -2.4400   -1.4580   -3.0880 C   0  0  0  0  0  0  0  0  0  0  0  0
   -2.0110   -0.1890   -2.9410 C   0  0  0  0  0  0  0  0  0  0  0  0
   -1.1020    0.4840   -3.8550 O   0  0  0  0  0  0  0  0  0  0  0  0
   -0.7520    1.8040   -3.4740 C   0  0  0  0  0  0  0  0  0  0  0  0
    0.4800    1.7500   -2.5260 C   0  0  0  0  0  0  0  0  0  0  0  0
    0.7650    3.0720   -2.0610 O   0  0  0  0  0  0  0  0  0  0  0  0
    1.0160    0.6820   -2.3180 C   0  0  0  0  0  0  0  0  0  0  0  0
    2.1050    0.2060   -1.5480 C   0  0  0  0  0  0  0  0  0  0  0  0
    2.5910   -0.9860   -1.7860 O   0  0  0  0  0  0  0  0  0  0  0  0
    2.8000    0.8510   -0.4580 N   0  0  0  0  0  0  0  0  0  0  0  0
    3.9280    0.1790    0.0720 C   0  0  0  0  0  0  0  0  0  0  0  0
    5.2400    0.5240   -0.3080 C   0  0  0  0  0  0  0  0  0  0  0  0
    6.3180   -0.0580    0.2610 C   0  0  0  0  0  0  0  0  0  0  0  0
    7.6740    0.2240   -0.0010 O   0  0  0  0  0  0  0  0  0  0  0  0
    8.0600    1.4280   -0.5980 C   0  0  1  0  0  0  0  0  0  0  0  0
    8.2310    2.4260    0.5950 C   0  0  0  0  0  0  0  0  0  0  0  0
    9.6090    2.2370    1.1390 C   0  0  0  0  0  0  0  0  0  0  0  0
   10.5170    2.7980    0.0850 C   0  0  0  0  0  0  0  0  0  0  0  0
   11.5140    3.3950    0.4250 O   0  0  0  0  0  0  0  0  0  0  0  0
   10.1770    2.6170   -1.3360 C   0  0  0  0  0  0  0  0  0  0  0  0
    9.1490    1.5260   -1.5610 C   0  0  0  0  0  0  0  0  0  0  0  0
    6.0840   -1.0240    1.2340 C   0  0  0  0  0  0  0  0  0  0  0  0
    4.8320   -1.4020    1.6470 C   0  0  0  0  0  0  0  0  0  0  0  0
    3.7680   -0.7720    1.0400 C   0  0  0  0  0  0  0  0  0  0  0  0
    2.4640   -1.0930    1.3990 O   0  0  0  0  0  0  0  0  0  0  0  0
    2.2970   -2.1010    2.3920 C   0  0  0  0  0  0  0  0  0  0  0  0
   -2.4910    0.5240   -1.8760 C   0  0  0  0  0  0  0  0  0  0  0  0
   -3.4200    0.0250   -0.9220 C   0  0  0  0  0  0  0  0  0  0  0  0
   -3.7620    0.8240    0.0120 O   0  0  0  0  0  0  0  0  0  0  0  0
   -4.0650    1.7080    0.9380 C   0  0  0  0  0  0  0  0  0  0  0  0
   -9.7190   -1.4980    1.2760 C   0  0  0  0  0  0  0  0  0  0  0  0
  -10.6070   -2.3710    0.5960 N   0  0  0  0  0  0  0  0  0  0  0  0
  -10.2190   -0.6450    2.0410 O   0  0  0  0  0  0  0  0  0  0  0  0
  1  2  1  0
  2  3  1  0
  3  4  2  0
  3  5  1  0
  5  6  1  6
  5  8  1  0
  5 45  1  0
  6  7  3  0
  8  9  2  3
  9 10  1  0
 10 11  2  0
 10 12  1  0
 12 13  1  0
 13 14  2  0
 13 42  1  0
 14 15  1  0
 15 16  2  0
 16 17  1  0
 16 41  1  0
 17 18  1  0
 18 19  1  0
 19 20  1  0
 19 21  2  3
 21 22  1  0
 22 23  2  0
 22 24  1  0
 24 25  1  0
 25 26  2  0
 25 38  1  0
 26 27  1  0
 27 28  1  0
 27 36  2  0
 29 28  1  1
 29 30  1  0
 29 35  1  0
 30 31  1  0
 31 32  1  0
 32 33  2  0
 32 34  1  0
 34 35  1  0
 36 37  1  0
 37 38  2  0
 38 39  1  0
 39 40  1  0
 41 42  2  0
 42 43  1  0
 43 44  1  0
 45 46  1  0
 45 47  2  0
M  END
