
     RDKit          3D

 47 50  0  0  0  0  0  0  0  0999 V2000
    2.7490   -0.6850   -4.0620 C   0  0  0  0  0  0  0  0  0  0  0  0
    3.5270   -1.0340   -2.9280 O   0  0  0  0  0  0  0  0  0  0  0  0
    2.9260   -1.2630   -1.6850 C   0  0  0  0  0  0  0  0  0  0  0  0
    1.5640   -1.1550   -1.5190 C   0  0  0  0  0  0  0  0  0  0  0  0
    0.9270   -1.3740   -0.3150 C   0  0  0  0  0  0  0  0  0  0  0  0
   -0.5350   -1.2200   -0.1890 C   0  0  0  0  0  0  0  0  0  0  0  0
   -1.3020   -0.8300   -1.1600 C   0  0  0  0  0  0  0  0  0  0  0  0
   -2.7260   -0.8060   -0.6650 C   0  0  1  0  0  0  0  0  0  0  0  0
   -3.3440   -1.9110   -1.4990 C   0  0  0  0  0  0  0  0  0  0  0  0
   -3.4980   -3.1780   -0.8870 N   0  0  0  0  0  0  0  0  0  0  0  0
   -3.6850   -1.6690   -2.6700 O   0  0  0  0  0  0  0  0  0  0  0  0
   -2.6430   -1.1720    0.6980 N   0  0  0  0  0  0  0  0  0  0  0  0
   -3.5610   -1.2260    1.7750 C   0  0  0  0  0  0  0  0  0  0  0  0
   -3.1630   -1.7370    2.9000 O   0  0  0  0  0  0  0  0  0  0  0  0
   -4.9430   -0.7560    1.7810 C   0  0  0  0  0  0  0  0  0  0  0  0
   -5.4960   -0.1490    0.6340 N   0  0  0  0  0  0  0  0  0  0  0  0
   -6.3190   -1.0950   -0.2220 C   0  0  0  0  0  0  0  0  0  0  0  0
   -7.7380   -1.0630    0.2820 C   0  0  0  0  0  0  0  0  0  0  0  0
   -8.5560   -1.9820   -0.5330 C   0  0  0  0  0  0  0  0  0  0  0  0
   -9.9350   -2.2170   -0.3020 N   0  0  0  0  0  0  0  0  0  0  0  0
   -8.0030   -2.5930   -1.4880 O   0  0  0  0  0  0  0  0  0  0  0  0
   -5.4880    1.1700    0.1590 C   0  0  0  0  0  0  0  0  0  0  0  0
   -6.1190    1.3860   -0.9700 O   0  0  0  0  0  0  0  0  0  0  0  0
   -4.8920    2.3580    0.7150 C   0  0  0  0  0  0  0  0  0  0  0  0
   -4.1080    2.3590    1.8610 C   0  0  0  0  0  0  0  0  0  0  0  0
   -3.5570    3.5420    2.3530 C   0  0  0  0  0  0  0  0  0  0  0  0
   -3.7630    4.7430    1.7310 C   0  0  0  0  0  0  0  0  0  0  0  0
   -4.5170    4.7720    0.6160 C   0  0  0  0  0  0  0  0  0  0  0  0
   -5.1000    3.6020    0.0750 C   0  0  0  0  0  0  0  0  0  0  0  0
   -5.8250    3.7480   -1.0290 O   0  0  0  0  0  0  0  0  0  0  0  0
   -1.2760   -1.4460    0.9350 O   0  0  0  0  0  0  0  0  0  0  0  0
    1.7190   -1.7180    0.7630 C   0  0  0  0  0  0  0  0  0  0  0  0
    3.0880   -1.8320    0.6240 C   0  0  0  0  0  0  0  0  0  0  0  0
    3.6960   -1.6090   -0.5830 C   0  0  0  0  0  0  0  0  0  0  0  0
    5.0470   -1.7040   -0.7830 O   0  0  0  0  0  0  0  0  0  0  0  0
    5.9470   -2.0300    0.2410 C   0  0  0  0  0  0  0  0  0  0  0  0
    7.3550   -2.0480   -0.2510 C   0  0  2  0  0  0  0  0  0  0  0  0
    8.2180   -2.3370    0.8090 O   0  0  0  0  0  0  0  0  0  0  0  0
    7.7560   -0.8000   -0.9890 C   0  0  0  0  0  0  0  0  0  0  0  0
    7.8180    0.3670   -0.3700 O   0  0  0  0  0  0  0  0  0  0  0  0
    7.2600    1.3600    0.2920 C   0  0  0  0  0  0  0  0  0  0  0  0
    5.9310    1.4790    0.6280 C   0  0  0  0  0  0  0  0  0  0  0  0
    5.4220    2.5570    1.3260 C   0  0  0  0  0  0  0  0  0  0  0  0
    6.2570    3.5770    1.7160 C   0  0  0  0  0  0  0  0  0  0  0  0
    7.6040    3.4880    1.3900 C   0  0  0  0  0  0  0  0  0  0  0  0
    8.0920    2.4230    0.7060 C   0  0  0  0  0  0  0  0  0  0  0  0
    9.4770    2.3530    0.3760 N   0  0  0  0  0  0  0  0  0  0  0  0
  1  2  1  0
  2  3  1  0
  3  4  2  0
  3 34  1  0
  4  5  1  0
  5  6  1  0
  5 32  2  0
  6  7  2  0
  6 31  1  0
  7  8  1  0
  8  9  1  6
  8 12  1  0
  9 10  1  0
  9 11  2  0
 12 13  1  0
 12 31  1  0
 13 14  2  0
 13 15  1  0
 15 16  1  0
 16 17  1  0
 16 22  1  0
 17 18  1  0
 18 19  1  0
 19 20  1  0
 19 21  2  0
 22 23  2  0
 22 24  1  0
 24 25  2  0
 24 29  1  0
 25 26  1  0
 26 27  2  0
 27 28  1  0
 28 29  2  0
 29 30  1  0
 32 33  1  0
 33 34  2  0
 34 35  1  0
 35 36  1  0
 36 37  1  0
 37 38  1  1
 37 39  1  0
 39 40  1  0
 40 41  1  0
 41 42  2  0
 41 46  1  0
 42 43  1  0
 43 44  2  0
 44 45  1  0
 45 46  2  0
 46 47  1  0
M  END
