
     RDKit          3D

 46 48  0  0  0  0  0  0  0  0999 V2000
    8.6590   -0.4730   -1.5580 C   0  0  0  0  0  0  0  0  0  0  0  0
    7.4210   -1.2320   -1.9300 C   0  0  1  0  0  0  0  0  0  0  0  0
    7.7120   -2.5400   -2.3370 O   0  0  0  0  0  0  0  0  0  0  0  0
    6.3390   -1.1540   -0.9310 C   0  0  0  0  0  0  0  0  0  0  0  0
    6.5770   -1.6770    0.4340 C   0  0  1  0  0  0  0  0  0  0  0  0
    7.6700   -1.0690    1.2290 C   0  0  0  0  0  0  0  0  0  0  0  0
    7.6450   -1.6820    2.5150 O   0  0  0  0  0  0  0  0  0  0  0  0
    5.3170   -1.4140    1.1740 N   0  0  0  0  0  0  0  0  0  0  0  0
    4.4460   -2.4240    1.5930 C   0  0  0  0  0  0  0  0  0  0  0  0
    4.7550   -3.6230    1.3250 O   0  0  0  0  0  0  0  0  0  0  0  0
    3.2020   -2.1250    2.3210 C   0  0  0  0  0  0  0  0  0  0  0  0
    3.0110   -0.7200    2.5590 N   0  0  0  0  0  0  0  0  0  0  0  0
    3.4970   -0.1160    3.7780 C   0  0  0  0  0  0  0  0  0  0  0  0
    2.3410    0.0630    1.5840 C   0  0  0  0  0  0  0  0  0  0  0  0
    1.9330   -0.4750    0.5090 O   0  0  0  0  0  0  0  0  0  0  0  0
    2.1240    1.5300    1.8460 C   0  0  0  0  0  0  0  0  0  0  0  0
    1.4450    2.1180    0.7690 O   0  0  0  0  0  0  0  0  0  0  0  0
    0.1860    1.8060    0.3240 C   0  0  0  0  0  0  0  0  0  0  0  0
   -0.6020    0.8500    0.9260 C   0  0  0  0  0  0  0  0  0  0  0  0
   -1.8870    0.5410    0.4590 C   0  0  0  0  0  0  0  0  0  0  0  0
   -2.6420   -0.4410    1.1460 N   0  0  0  0  0  0  0  0  0  0  0  0
   -3.7810   -1.1270    0.6510 C   0  0  0  0  0  0  0  0  0  0  0  0
   -4.1690   -0.8770   -0.4960 O   0  0  0  0  0  0  0  0  0  0  0  0
   -4.4490   -2.0750    1.4650 N   0  0  0  0  0  0  0  0  0  0  0  0
   -5.6410   -2.8100    0.9740 C   0  0  1  0  0  0  0  0  0  0  0  0
   -6.0280   -3.7160    2.1690 C   0  0  0  0  0  0  0  0  0  0  0  0
   -6.7010   -1.8090    0.8320 C   0  0  0  0  0  0  0  0  0  0  0  0
   -8.0570   -2.1000    0.3680 C   0  0  1  0  0  0  0  0  0  0  0  0
   -8.2140   -2.6570   -1.0250 C   0  0  0  0  0  0  0  0  0  0  0  0
   -8.9270   -2.8860    1.3470 C   0  0  0  0  0  0  0  0  0  0  0  0
   -8.7710   -0.7120    0.3200 C   0  0  0  0  0  0  0  0  0  0  0  0
   -5.1910   -3.5950   -0.1480 C   0  0  0  0  0  0  0  0  0  0  0  0
   -5.9910   -4.5550   -0.8160 N   0  0  0  0  0  0  0  0  0  0  0  0
   -4.0270   -3.4760   -0.6080 O   0  0  0  0  0  0  0  0  0  0  0  0
   -2.3110    1.2530   -0.6340 C   0  0  0  0  0  0  0  0  0  0  0  0
   -1.5230    2.2140   -1.2410 C   0  0  0  0  0  0  0  0  0  0  0  0
   -0.2500    2.5220   -0.7820 C   0  0  0  0  0  0  0  0  0  0  0  0
    0.5500    3.5470   -1.4390 C   0  0  0  0  0  0  0  0  0  0  0  0
    1.7840    4.0190   -1.1610 C   0  0  0  0  0  0  0  0  0  0  0  0
    2.1090    5.0010   -2.0840 C   0  0  0  0  0  0  0  0  0  0  0  0
    1.0120    5.0810   -2.9100 C   0  0  0  0  0  0  0  0  0  0  0  0
    0.1370    4.2300   -2.5080 O   0  0  0  0  0  0  0  0  0  0  0  0
    1.0720    6.0690   -4.0180 C   0  0  0  0  0  0  0  0  0  0  0  0
    1.7920    7.3240   -3.6670 C   0  0  0  0  0  0  0  0  0  0  0  0
    3.0260    7.1410   -2.8480 C   0  0  0  0  0  0  0  0  0  0  0  0
    3.1760    5.8390   -2.3420 O   0  0  0  0  0  0  0  0  0  0  0  0
  2  1  1  1
  2  3  1  0
  2  4  1  0
  5  4  1  6
  5  6  1  0
  5  8  1  0
  6  7  1  0
  8  9  1  0
  9 10  2  0
  9 11  1  0
 11 12  1  0
 12 13  1  0
 12 14  1  0
 14 15  2  0
 14 16  1  0
 16 17  1  0
 17 18  1  0
 18 19  2  0
 18 37  1  0
 19 20  1  0
 20 21  1  0
 20 35  2  0
 21 22  1  0
 22 23  2  0
 22 24  1  0
 24 25  1  0
 25 26  1  1
 25 27  1  0
 25 32  1  0
 27 28  1  0
 28 29  1  6
 28 30  1  0
 28 31  1  0
 32 33  1  0
 32 34  2  0
 35 36  1  0
 36 37  2  0
 37 38  1  0
 38 39  2  0
 38 42  1  0
 39 40  1  0
 40 41  2  0
 40 46  1  0
 41 42  1  0
 41 43  1  0
 43 44  1  0
 44 45  1  0
 45 46  1  0
M  END
