
     RDKit          3D

 10 10  0  0  0  0  0  0  0  0999 V2000
   -1.1200    1.8770   -0.3790 C   0  0  0  0  0  0  0  0  0  0  0  0
   -0.9410    0.4450   -0.0130 C   0  0  0  0  0  0  0  0  0  0  0  0
   -1.9100   -0.4170    0.3280 N   0  0  0  0  0  0  0  0  0  0  0  0
   -1.4050   -1.6090    0.5930 N   0  0  0  0  0  0  0  0  0  0  0  0
   -0.0540   -1.5660    0.4310 C   0  0  0  0  0  0  0  0  0  0  0  0
    0.6890   -2.5600    0.6170 O   0  0  0  0  0  0  0  0  0  0  0  0
    0.2560   -0.2790    0.0500 C   0  0  0  0  0  0  0  0  0  0  0  0
    1.5670    0.2570   -0.2410 C   0  0  0  0  0  0  0  0  0  0  0  0
    2.6770   -0.4420   -0.1760 C   0  0  0  0  0  0  0  0  0  0  0  0
    4.3860    0.2860   -0.5620 Br  0  0  0  0  0  0  0  0  0  0  0  0
  1  2  1  0
  2  3  1  0
  2  7  2  0
  3  4  1  0
  4  5  1  0
  5  6  2  0
  5  7  1  0
  7  8  1  0
  8  9  2  3
  9 10  1  0
M  END
