
     RDKit          3D

 10 10  0  0  0  0  0  0  0  0999 V2000
   -1.0170    1.4220   -0.2750 C   0  0  0  0  0  0  0  0  0  0  0  0
   -0.3320    0.3170   -0.0600 C   0  0  0  0  0  0  0  0  0  0  0  0
    1.1210    0.1860   -0.1100 C   0  0  0  0  0  0  0  0  0  0  0  0
    1.9940    1.1430   -0.3780 C   0  0  0  0  0  0  0  0  0  0  0  0
    3.8610    0.7840   -0.3990 Br  0  0  0  0  0  0  0  0  0  0  0  0
    1.3780   -1.2130    0.1950 C   0  0  0  0  0  0  0  0  0  0  0  0
    2.5110   -1.7560    0.2570 O   0  0  0  0  0  0  0  0  0  0  0  0
    0.1130   -1.8100    0.4020 N   0  0  0  0  0  0  0  0  0  0  0  0
   -0.8630   -1.0160    0.2750 C   0  0  0  0  0  0  0  0  0  0  0  0
   -2.2720   -1.2540    0.4070 N   0  0  0  0  0  0  0  0  0  0  0  0
  1  2  2  0
  2  3  1  0
  2  9  1  0
  3  4  2  3
  3  6  1  0
  4  5  1  0
  6  7  2  0
  6  8  1  0
  8  9  2  0
  9 10  1  0
M  END
