
     RDKit          3D

 10 10  0  0  0  0  0  0  0  0999 V2000
   -0.7550    2.1200    0.2810 O   0  0  0  0  0  0  0  0  0  0  0  0
    0.0060    1.1470    0.2520 C   0  0  0  0  0  0  0  0  0  0  0  0
    1.4220    1.2880    0.4290 N   0  0  0  0  0  0  0  0  0  0  0  0
    2.3750    0.3450   -0.0630 C   0  0  0  0  0  0  0  0  0  0  0  0
    1.8590   -1.0330   -0.2330 C   0  0  0  0  0  0  0  0  0  0  0  0
    0.4760   -1.2160    0.0260 N   0  0  0  0  0  0  0  0  0  0  0  0
   -0.5300   -0.1940    0.0330 C   0  0  0  0  0  0  0  0  0  0  0  0
   -1.7750   -0.5000   -0.1450 C   0  0  0  0  0  0  0  0  0  0  0  0
   -2.9590    0.3480   -0.1800 C   0  0  0  0  0  0  0  0  0  0  0  0
   -4.1870   -0.2040    1.2420 Br  0  0  0  0  0  0  0  0  0  0  0  0
  1  2  2  0
  2  3  1  0
  2  7  1  0
  3  4  1  0
  4  5  1  0
  5  6  1  0
  6  7  1  0
  7  8  2  3
  8  9  1  0
  9 10  1  0
M  END
