
     RDKit          3D

 10 10  0  0  0  0  0  0  0  0999 V2000
    1.7480   -1.1390    0.0420 C   0  0  0  0  0  0  0  0  0  0  0  0
    0.9670    0.1500    0.0710 C   0  0  0  0  0  0  0  0  0  0  0  0
    1.5570    1.3680    0.2470 N   0  0  0  0  0  0  0  0  0  0  0  0
    0.6370    2.2900    0.1810 N   0  0  0  0  0  0  0  0  0  0  0  0
   -0.5590    1.7710   -0.0310 C   0  0  0  0  0  0  0  0  0  0  0  0
   -1.7910    2.4120   -0.1630 O   0  0  0  0  0  0  0  0  0  0  0  0
   -0.3760    0.3550   -0.1070 C   0  0  0  0  0  0  0  0  0  0  0  0
   -1.4660   -0.5560   -0.2680 C   0  0  0  0  0  0  0  0  0  0  0  0
   -1.6540   -1.8040   -0.1400 C   0  0  0  0  0  0  0  0  0  0  0  0
   -0.5560   -3.2540    0.3650 Br  0  0  0  0  0  0  0  0  0  0  0  0
  1  2  1  0
  2  3  1  0
  2  7  2  0
  3  4  1  0
  4  5  2  0
  5  6  1  0
  5  7  1  0
  7  8  1  0
  8  9  2  3
  9 10  1  0
M  END
