
     RDKit          3D

 19 21  0  0  0  0  0  0  0  0999 V2000
    5.3710    0.3410    0.1220 N   0  0  0  0  0  0  0  0  0  0  0  0
    4.0610    0.2320    0.6450 C   0  0  0  0  0  0  0  0  0  0  0  0
    3.8130   -0.0310    1.9530 N   0  0  0  0  0  0  0  0  0  0  0  0
    2.5540   -0.1270    2.4120 C   0  0  0  0  0  0  0  0  0  0  0  0
    2.3900   -0.3910    3.7250 F   0  0  0  0  0  0  0  0  0  0  0  0
    1.4730    0.0310    1.5990 N   0  0  0  0  0  0  0  0  0  0  0  0
    1.6630    0.2900    0.3130 C   0  0  0  0  0  0  0  0  0  0  0  0
    2.9540    0.3890   -0.1600 C   0  0  0  0  0  0  0  0  0  0  0  0
    2.8690    0.6520   -1.4760 N   0  0  0  0  0  0  0  0  0  0  0  0
    1.5580    0.7130   -1.8050 C   0  0  0  0  0  0  0  0  0  0  0  0
    0.8240    0.4890   -0.6990 N   0  0  0  0  0  0  0  0  0  0  0  0
   -0.6100    0.4810   -0.6860 C   0  0  1  0  0  0  0  0  0  0  0  0
   -1.2060   -0.7210   -1.3760 C   0  0  0  0  0  0  0  0  0  0  0  0
   -2.5320   -0.8760   -0.6400 C   0  0  2  0  0  0  0  0  0  0  0  0
   -3.5800   -0.7490   -1.5530 O   0  0  0  0  0  0  0  0  0  0  0  0
   -2.5210    0.2910    0.2860 C   0  0  1  0  0  0  0  0  0  0  0  0
   -3.3370    0.0830    1.5360 C   0  0  0  0  0  0  0  0  0  0  0  0
   -4.6610   -0.0280    1.1660 O   0  0  0  0  0  0  0  0  0  0  0  0
   -1.1470    0.4140    0.5790 O   0  0  0  0  0  0  0  0  0  0  0  0
  1  2  1  0
  2  3  2  0
  2  8  1  0
  3  4  1  0
  4  5  1  0
  4  6  2  0
  6  7  1  0
  7  8  2  0
  7 11  1  0
  8  9  1  0
  9 10  2  0
 10 11  1  0
 12 11  1  1
 12 13  1  0
 12 19  1  0
 13 14  1  0
 14 15  1  6
 14 16  1  0
 16 17  1  1
 16 19  1  0
 17 18  1  0
M  END
