
     RDKit          3D

 23 23  0  0  0  0  0  0  0  0999 V2000
    2.6030   -0.2700   -1.5230 O   0  0  0  0  0  0  0  0  0  0  0  0
    2.5860    0.2430   -0.3850 C   0  0  0  0  0  0  0  0  0  0  0  0
    3.6600    0.9580    0.0600 O   0  0  0  0  0  0  0  0  0  0  0  0
    4.8340    1.2000   -0.6190 C   0  0  0  0  0  0  0  0  0  0  0  0
    5.6480    0.0020   -0.9710 C   0  0  1  0  0  0  0  0  0  0  0  0
    5.9840   -0.6760    0.2050 O   0  0  0  0  0  0  0  0  0  0  0  0
    5.0680   -0.8390   -1.8990 O   0  0  0  0  0  0  0  0  0  0  0  0
    1.4100    0.0710    0.4610 C   0  0  1  0  0  0  0  0  0  0  0  0
    1.5990    0.7200    1.6800 O   0  0  0  0  0  0  0  0  0  0  0  0
    0.1530    0.7050   -0.1540 C   0  0  0  0  0  0  0  0  0  0  0  0
   -0.8570    0.0500    0.7620 C   0  0  1  0  0  0  0  0  0  0  0  0
   -0.7620    0.7090    2.0020 O   0  0  0  0  0  0  0  0  0  0  0  0
   -2.2590    0.1720    0.2510 C   0  0  1  0  0  0  0  0  0  0  0  0
   -3.1870   -0.5080    1.2260 C   0  0  0  0  0  0  0  0  0  0  0  0
   -2.9370   -1.8510    1.4000 O   0  0  0  0  0  0  0  0  0  0  0  0
   -2.5770    1.6660    0.2650 C   0  0  0  0  0  0  0  0  0  0  0  0
   -2.4310    2.0450    1.6220 O   0  0  0  0  0  0  0  0  0  0  0  0
   -2.4540   -0.4070   -1.1020 C   0  0  0  0  0  0  0  0  0  0  0  0
   -3.8830   -0.2530   -1.5510 C   0  0  0  0  0  0  0  0  0  0  0  0
   -4.0730   -0.8010   -2.8310 O   0  0  0  0  0  0  0  0  0  0  0  0
   -0.2990   -1.3010    0.9200 C   0  0  2  0  0  0  0  0  0  0  0  0
   -0.4850   -1.8380    2.2030 O   0  0  0  0  0  0  0  0  0  0  0  0
    1.0590   -1.2420    0.6920 O   0  0  0  0  0  0  0  0  0  0  0  0
  1  2  2  0
  2  3  1  0
  2  8  1  0
  3  4  1  0
  4  5  1  0
  5  6  1  1
  5  7  1  0
  8  9  1  1
  8 10  1  0
  8 23  1  0
 10 11  1  0
 11 12  1  1
 11 13  1  0
 11 21  1  0
 13 14  1  1
 13 16  1  0
 13 18  1  0
 14 15  1  0
 16 17  1  0
 18 19  1  0
 19 20  1  0
 21 22  1  1
 21 23  1  0
M  END
