
     RDKit          3D

 22 23  0  0  0  0  0  0  0  0999 V2000
    5.2520    0.7150    0.2000 C   0  0  0  0  0  0  0  0  0  0  0  0
    3.9600    0.1760    0.3290 O   0  0  0  0  0  0  0  0  0  0  0  0
    2.8880    0.8570    0.8530 C   0  0  0  0  0  0  0  0  0  0  0  0
    3.0340    2.0280    1.2500 O   0  0  0  0  0  0  0  0  0  0  0  0
    1.5660    0.2130    0.9510 C   0  0  2  0  0  0  0  0  0  0  0  0
    1.6190   -1.0460    0.4700 O   0  0  0  0  0  0  0  0  0  0  0  0
    0.4720   -1.6340    0.0270 C   0  0  2  0  0  0  0  0  0  0  0  0
    0.7610   -2.6720   -1.0260 C   0  0  0  0  0  0  0  0  0  0  0  0
   -0.1530   -3.3200   -1.5570 O   0  0  0  0  0  0  0  0  0  0  0  0
    2.0910   -2.9030   -1.4090 O   0  0  0  0  0  0  0  0  0  0  0  0
   -0.5520   -0.7060   -0.5180 C   0  0  1  0  0  0  0  0  0  0  0  0
   -0.0920   -0.1920   -1.8580 C   0  0  0  0  0  0  0  0  0  0  0  0
   -1.9510   -1.1880   -0.5050 C   0  0  1  0  0  0  0  0  0  0  0  0
   -2.1460   -2.1010    0.5250 O   0  0  0  0  0  0  0  0  0  0  0  0
   -2.8100    0.0470   -0.2020 C   0  0  0  0  0  0  0  0  0  0  0  0
   -1.8040    1.1720    0.0750 C   0  0  1  0  0  0  0  0  0  0  0  0
   -1.6770    1.8870   -1.0880 O   0  0  0  0  0  0  0  0  0  0  0  0
   -2.4100    2.0800    1.1330 C   0  0  0  0  0  0  0  0  0  0  0  0
   -3.6650    2.5100    0.6810 O   0  0  0  0  0  0  0  0  0  0  0  0
   -0.6120    0.4340    0.5120 C   0  0  1  0  0  0  0  0  0  0  0  0
   -0.8430   -0.1620    1.7400 O   0  0  0  0  0  0  0  0  0  0  0  0
    0.5960    1.0490    0.4240 O   0  0  0  0  0  0  0  0  0  0  0  0
  1  2  1  0
  2  3  1  0
  3  4  2  0
  5  3  1  6
  5  6  1  0
  5 22  1  0
  6  7  1  0
  7  8  1  6
  7 11  1  0
  8  9  2  0
  8 10  1  0
 11 12  1  6
 11 13  1  0
 11 20  1  0
 13 14  1  1
 13 15  1  0
 15 16  1  0
 16 17  1  6
 16 18  1  0
 16 20  1  0
 18 19  1  0
 20 21  1  1
 20 22  1  0
M  END
