
     RDKit          3D

 13 12  0  0  0  0  0  0  0  0999 V2000
   -2.8900    1.9720    0.6470 C   0  0  0  0  0  0  0  0  0  0  0  0
   -2.3510    0.8290    1.2930 O   0  0  0  0  0  0  0  0  0  0  0  0
   -0.9930    0.5470    1.2690 C   0  0  0  0  0  0  0  0  0  0  0  0
   -0.2560    1.0370    2.2430 C   0  0  0  0  0  0  0  0  0  0  0  0
    1.1130    0.8440    2.3590 O   0  0  0  0  0  0  0  0  0  0  0  0
   -0.3950   -0.2730    0.1900 C   0  0  0  0  0  0  0  0  0  0  0  0
   -1.2520   -0.7160   -0.7480 C   0  0  0  0  0  0  0  0  0  0  0  0
   -0.8010   -1.5470   -1.8890 C   0  0  0  0  0  0  0  0  0  0  0  0
   -1.5310   -2.8240   -1.7930 N   0  0  0  0  0  0  0  0  0  0  0  0
    0.8500   -0.5480    0.1420 O   0  0  0  0  0  0  0  0  0  0  0  0
    2.1230   -0.8300    0.0940 C   0  0  0  0  0  0  0  0  0  0  0  0
    3.0810    0.3060   -0.2550 C   0  0  0  0  0  0  0  0  0  0  0  0
    2.7930    0.8320   -1.5130 O   0  0  0  0  0  0  0  0  0  0  0  0
  1  2  1  0
  2  3  1  0
  3  4  2  3
  3  6  1  0
  4  5  1  0
  6  7  2  3
  6 10  1  0
  7  8  1  0
  8  9  1  0
 10 11  1  0
 11 12  1  0
 12 13  1  0
M  END
