
     RDKit          3D

 22 22  0  0  0  0  0  0  0  0999 V2000
    4.5920    1.7710    2.3880 O   0  0  0  0  0  0  0  0  0  0  0  0
    5.4290    1.0500    1.7730 C   0  0  0  0  0  0  0  0  0  0  0  0
    6.7720    1.1470    2.1450 O   0  0  0  0  0  0  0  0  0  0  0  0
    4.9930    0.2060    0.7720 O   0  0  0  0  0  0  0  0  0  0  0  0
    3.6230    0.1190    0.4070 C   0  0  0  0  0  0  0  0  0  0  0  0
    3.4220   -0.8720   -0.7070 C   0  0  2  0  0  0  0  0  0  0  0  0
    4.1230   -0.5410   -1.8490 O   0  0  0  0  0  0  0  0  0  0  0  0
    1.8960   -0.8450   -1.0090 C   0  0  1  0  0  0  0  0  0  0  0  0
    1.7120   -1.8040   -2.0320 O   0  0  0  0  0  0  0  0  0  0  0  0
    1.2660   -1.2550    0.0980 O   0  0  0  0  0  0  0  0  0  0  0  0
    0.3420   -0.5870    0.7550 C   0  0  0  0  0  0  0  0  0  0  0  0
   -0.9730   -0.3970    0.0470 C   0  0  2  0  0  0  0  0  0  0  0  0
   -1.5150   -1.6530   -0.2540 O   0  0  0  0  0  0  0  0  0  0  0  0
   -0.9150    0.3780   -1.2110 C   0  0  0  0  0  0  0  0  0  0  0  0
   -2.3380    0.5960   -1.7190 C   0  0  0  0  0  0  0  0  0  0  0  0
   -3.2030    1.3330   -0.7670 C   0  0  0  0  0  0  0  0  0  0  0  0
   -3.1920    0.7150    0.6210 C   0  0  1  0  0  0  0  0  0  0  0  0
   -4.2660   -0.3290    0.7700 C   0  0  1  0  0  0  0  0  0  0  0  0
   -5.5210    0.2870    0.5510 O   0  0  0  0  0  0  0  0  0  0  0  0
   -4.1230   -1.4020   -0.0940 O   0  0  0  0  0  0  0  0  0  0  0  0
   -1.8440    0.3250    1.0660 C   0  0  1  0  0  0  0  0  0  0  0  0
   -1.9380   -0.4130    2.2380 O   0  0  0  0  0  0  0  0  0  0  0  0
  1  2  2  0
  2  3  1  0
  2  4  1  0
  4  5  1  0
  5  6  1  0
  6  7  1  6
  6  8  1  0
  8  9  1  6
  8 10  1  0
 10 11  1  0
 11 12  1  0
 12 13  1  6
 12 14  1  0
 12 21  1  0
 14 15  1  0
 15 16  1  0
 17 16  1  6
 17 18  1  0
 17 21  1  0
 18 19  1  6
 18 20  1  0
 21 22  1  1
M  END
