
     RDKit          3D

 23 23  0  0  0  0  0  0  0  0999 V2000
   -3.2310    0.3890    2.0140 O   0  0  0  0  0  0  0  0  0  0  0  0
   -3.0690    1.3280    1.2480 C   0  0  0  0  0  0  0  0  0  0  0  0
   -3.9200    2.4300    1.3430 O   0  0  0  0  0  0  0  0  0  0  0  0
   -2.0250    1.3880    0.2190 C   0  0  2  0  0  0  0  0  0  0  0  0
   -2.7160    1.7530   -1.0760 C   0  0  0  0  0  0  0  0  0  0  0  0
   -3.6960    0.8710   -1.4810 O   0  0  0  0  0  0  0  0  0  0  0  0
   -1.1500    0.1700    0.1520 C   0  0  1  0  0  0  0  0  0  0  0  0
   -1.9590   -1.0320   -0.1860 C   0  0  0  0  0  0  0  0  0  0  0  0
   -1.1860   -2.3330   -0.2770 C   0  0  1  0  0  0  0  0  0  0  0  0
   -0.5700   -2.6330    0.9180 O   0  0  0  0  0  0  0  0  0  0  0  0
   -2.1940   -3.3300   -0.4170 O   0  0  0  0  0  0  0  0  0  0  0  0
   -0.0440    0.4670   -0.8010 C   0  0  0  0  0  0  0  0  0  0  0  0
    1.1610    0.6390    0.0690 C   0  0  2  0  0  0  0  0  0  0  0  0
    1.5160    2.1230    0.3140 C   0  0  0  0  0  0  0  0  0  0  0  0
    2.6790    2.0230    1.1370 O   0  0  0  0  0  0  0  0  0  0  0  0
    2.3050    0.1480   -0.5170 O   0  0  0  0  0  0  0  0  0  0  0  0
    2.4170   -1.1500   -0.8240 C   0  0  1  0  0  0  0  0  0  0  0  0
    2.5510   -1.2210   -2.2400 O   0  0  0  0  0  0  0  0  0  0  0  0
    3.7740   -1.6350   -0.3190 C   0  0  2  0  0  0  0  0  0  0  0  0
    3.9340   -1.4970    1.0350 O   0  0  0  0  0  0  0  0  0  0  0  0
    4.7900   -0.8940   -0.9460 O   0  0  0  0  0  0  0  0  0  0  0  0
    0.7790    0.0680    1.3600 C   0  0  0  0  0  0  0  0  0  0  0  0
   -0.5670   -0.0660    1.3930 O   0  0  0  0  0  0  0  0  0  0  0  0
  1  2  2  0
  2  3  1  0
  2  4  1  0
  4  5  1  6
  4  7  1  0
  5  6  1  0
  7  8  1  6
  7 12  1  0
  7 23  1  0
  8  9  1  0
  9 10  1  1
  9 11  1  0
 12 13  1  0
 13 14  1  1
 13 16  1  0
 13 22  1  0
 14 15  1  0
 16 17  1  0
 17 18  1  6
 17 19  1  0
 19 20  1  1
 19 21  1  0
 22 23  1  0
M  END
