
     RDKit          3D

 14 14  0  0  0  0  0  0  0  0999 V2000
    3.4490   -1.2840    1.0980 O   0  0  0  0  0  0  0  0  0  0  0  0
    3.1990   -0.7260   -0.1400 C   0  0  0  0  0  0  0  0  0  0  0  0
    2.0110    0.0380   -0.1720 O   0  0  0  0  0  0  0  0  0  0  0  0
    0.7560   -0.4980    0.1090 C   0  0  0  0  0  0  0  0  0  0  0  0
    0.5840   -1.8260    0.4410 C   0  0  0  0  0  0  0  0  0  0  0  0
   -0.6790   -2.3380    0.7170 C   0  0  0  0  0  0  0  0  0  0  0  0
   -1.7680   -1.4820    0.6520 C   0  0  0  0  0  0  0  0  0  0  0  0
   -3.0510   -1.9830    0.9280 O   0  0  0  0  0  0  0  0  0  0  0  0
   -1.5600   -0.1720    0.3190 C   0  0  0  0  0  0  0  0  0  0  0  0
   -0.3150    0.3670    0.0390 C   0  0  0  0  0  0  0  0  0  0  0  0
   -0.1870    1.6880   -0.2860 O   0  0  0  0  0  0  0  0  0  0  0  0
   -1.4760    2.8340   -0.3940 P   0  0  0  0  0  0  0  0  0  0  0  0
   -0.9600    4.4350   -0.6900 O   0  0  0  0  0  0  0  0  0  0  0  0
   -2.5940    2.7210    0.9240 O   0  0  0  0  0  0  0  0  0  0  0  0
  1  2  1  0
  2  3  1  0
  3  4  1  0
  4  5  2  0
  4 10  1  0
  5  6  1  0
  6  7  2  0
  7  8  1  0
  7  9  1  0
  9 10  2  0
 10 11  1  0
 11 12  1  0
 12 13  1  0
 12 14  1  0
M  END
