
     RDKit          3D

 15 14  0  0  0  0  0  0  0  0999 V2000
    4.5550    1.2630    0.6940 C   0  0  0  0  0  0  0  0  0  0  0  0
    4.8290    0.2070   -0.2920 C   0  0  0  0  0  0  0  0  0  0  0  0
    3.8510   -0.5140   -0.7630 C   0  0  0  0  0  0  0  0  0  0  0  0
    2.4530   -0.3380   -0.3640 C   0  0  0  0  0  0  0  0  0  0  0  0
    2.1060    0.5370    0.4740 O   0  0  0  0  0  0  0  0  0  0  0  0
    1.4470   -1.1300   -0.8920 O   0  0  0  0  0  0  0  0  0  0  0  0
    0.1200   -0.9360   -0.4890 C   0  0  0  0  0  0  0  0  0  0  0  0
   -0.6570   -1.8820   -1.1950 O   0  0  0  0  0  0  0  0  0  0  0  0
   -2.3070   -1.7210   -0.7660 P   0  0  0  0  0  0  0  0  0  0  0  0
   -2.6500   -2.5620    0.7100 O   0  0  0  0  0  0  0  0  0  0  0  0
   -2.6860   -0.0420   -0.5170 O   0  0  0  0  0  0  0  0  0  0  0  0
   -4.0590    0.0050   -0.2000 C   0  0  0  0  0  0  0  0  0  0  0  0
   -4.4710    1.3960    0.0290 C   0  0  0  0  0  0  0  0  0  0  0  0
   -5.6680    1.6310    0.3240 O   0  0  0  0  0  0  0  0  0  0  0  0
   -3.6200    2.4910   -0.0590 O   0  0  0  0  0  0  0  0  0  0  0  0
  1  2  1  0
  2  3  2  3
  3  4  1  0
  4  5  2  0
  4  6  1  0
  6  7  1  0
  7  8  1  0
  8  9  1  0
  9 10  1  0
  9 11  1  0
 11 12  1  0
 12 13  1  0
 13 14  2  0
 13 15  1  0
M  END
