
     RDKit          3D

 15 14  0  0  0  0  0  0  0  0999 V2000
   -2.9380   -2.4830    1.3550 C   0  0  0  0  0  0  0  0  0  0  0  0
   -2.1650   -1.3700    1.7240 O   0  0  0  0  0  0  0  0  0  0  0  0
   -0.9340   -1.0450    0.5590 P   0  0  0  0  0  0  0  0  0  0  0  0
   -0.5690   -2.4290   -0.4100 O   0  0  0  0  0  0  0  0  0  0  0  0
   -1.3570    0.4300   -0.4990 C   0  0  0  0  0  0  0  0  0  0  0  0
   -0.1560    1.2300   -0.8040 C   0  0  0  0  0  0  0  0  0  0  0  0
   -0.0200    2.4750   -0.4710 C   0  0  0  0  0  0  0  0  0  0  0  0
   -0.9550    3.3530    0.2460 C   0  0  0  0  0  0  0  0  0  0  0  0
   -1.3000    4.4680   -0.5610 O   0  0  0  0  0  0  0  0  0  0  0  0
    0.8650    0.5380   -1.5020 O   0  0  0  0  0  0  0  0  0  0  0  0
    1.8740   -0.1370   -0.8620 C   0  0  0  0  0  0  0  0  0  0  0  0
    1.8880   -0.1380    0.3940 O   0  0  0  0  0  0  0  0  0  0  0  0
    2.8830   -0.8230   -1.5460 O   0  0  0  0  0  0  0  0  0  0  0  0
    3.8610   -1.4770   -0.7960 C   0  0  0  0  0  0  0  0  0  0  0  0
    3.3500   -2.4560    0.0440 O   0  0  0  0  0  0  0  0  0  0  0  0
  1  2  1  0
  2  3  1  0
  3  4  1  0
  3  5  1  0
  5  6  1  0
  6  7  2  3
  6 10  1  0
  7  8  1  0
  8  9  1  0
 10 11  1  0
 11 12  2  0
 11 13  1  0
 13 14  1  0
 14 15  1  0
M  END
