
     RDKit          3D

 15 14  0  0  0  0  0  0  0  0999 V2000
    5.0520   -0.9280    0.1420 C   0  0  0  0  0  0  0  0  0  0  0  0
    3.9080    0.0190   -0.0160 C   0  0  0  0  0  0  0  0  0  0  0  0
    3.9750    1.2080    0.3950 O   0  0  0  0  0  0  0  0  0  0  0  0
    2.7230   -0.3640   -0.6220 O   0  0  0  0  0  0  0  0  0  0  0  0
    1.6210    0.4880   -0.7940 C   0  0  0  0  0  0  0  0  0  0  0  0
    1.1140    0.9780    0.4330 O   0  0  0  0  0  0  0  0  0  0  0  0
    0.0470    1.7690    0.1620 C   0  0  0  0  0  0  0  0  0  0  0  0
   -1.2690    1.2380   -0.1010 C   0  0  0  0  0  0  0  0  0  0  0  0
   -1.8560    0.0940   -0.1390 C   0  0  0  0  0  0  0  0  0  0  0  0
   -1.3190   -1.1960    0.1150 C   0  0  0  0  0  0  0  0  0  0  0  0
   -0.1900   -1.5450    0.4650 O   0  0  0  0  0  0  0  0  0  0  0  0
   -3.2630    0.1550   -0.4940 O   0  0  0  0  0  0  0  0  0  0  0  0
   -4.4330   -0.6230    0.5520 P   0  0  0  0  0  0  0  0  0  0  0  0
   -4.6010   -2.2970    0.2270 O   0  0  0  0  0  0  0  0  0  0  0  0
   -5.9510    0.1790    0.5450 O   0  0  0  0  0  0  0  0  0  0  0  0
  1  2  1  0
  2  3  2  0
  2  4  1  0
  4  5  1  0
  5  6  1  0
  6  7  1  0
  7  8  1  0
  8  9  2  3
  9 10  1  0
  9 12  1  0
 10 11  2  0
 12 13  1  0
 13 14  1  0
 13 15  1  0
M  END
