
     RDKit          3D

 15 14  0  0  0  0  0  0  0  0999 V2000
    1.3290   -1.1880   -1.7560 O   0  0  0  0  0  0  0  0  0  0  0  0
    0.8320   -0.5160   -0.8860 C   0  0  0  0  0  0  0  0  0  0  0  0
   -0.6570   -0.3540   -0.8640 C   0  0  0  0  0  0  0  0  0  0  0  0
   -1.0650    0.4380    0.1860 O   0  0  0  0  0  0  0  0  0  0  0  0
   -2.4170    0.6390    0.2720 C   0  0  0  0  0  0  0  0  0  0  0  0
   -3.2100   -0.6150    0.4420 C   0  0  0  0  0  0  0  0  0  0  0  0
   -4.6960   -0.3380    0.5350 C   0  0  0  0  0  0  0  0  0  0  0  0
   -5.2050    0.2860   -0.5790 O   0  0  0  0  0  0  0  0  0  0  0  0
    1.6270    0.1580    0.1620 C   0  0  0  0  0  0  0  0  0  0  0  0
    3.0150   -0.1290   -0.0490 O   0  0  0  0  0  0  0  0  0  0  0  0
    3.9880    0.3810    0.7960 C   0  0  0  0  0  0  0  0  0  0  0  0
    3.6300    1.0950    1.7420 O   0  0  0  0  0  0  0  0  0  0  0  0
    5.7320   -0.0460    0.4380 P   0  0  0  0  0  0  0  0  0  0  0  0
    5.7960   -1.4940   -0.5200 O   0  0  0  0  0  0  0  0  0  0  0  0
    6.3710    1.2510   -0.5490 O   0  0  0  0  0  0  0  0  0  0  0  0
  1  2  2  0
  2  3  1  0
  2  9  1  0
  3  4  1  0
  4  5  1  0
  5  6  1  0
  6  7  1  0
  7  8  1  0
  9 10  1  0
 10 11  1  0
 11 12  2  0
 11 13  1  0
 13 14  1  0
 13 15  1  0
M  END
