
     RDKit          3D

 15 14  0  0  0  0  0  0  0  0999 V2000
    4.8180   -0.1570   -0.5330 C   0  0  0  0  0  0  0  0  0  0  0  0
    3.7150    0.5780    0.1960 C   0  0  0  0  0  0  0  0  0  0  0  0
    2.5080   -0.0350   -0.1160 O   0  0  0  0  0  0  0  0  0  0  0  0
    1.1650    0.7170    0.6600 P   0  0  0  0  0  0  0  0  0  0  0  0
    0.7390    2.2300   -0.0520 O   0  0  0  0  0  0  0  0  0  0  0  0
   -0.2870   -0.4270    0.7700 C   0  0  0  0  0  0  0  0  0  0  0  0
   -1.1910   -0.0910   -0.2320 O   0  0  0  0  0  0  0  0  0  0  0  0
   -2.4050   -0.7350   -0.4600 C   0  0  0  0  0  0  0  0  0  0  0  0
   -3.5010   -0.0120   -0.3220 C   0  0  0  0  0  0  0  0  0  0  0  0
   -3.4800    1.3920    0.0500 C   0  0  0  0  0  0  0  0  0  0  0  0
   -2.3760    1.9570    0.2520 O   0  0  0  0  0  0  0  0  0  0  0  0
   -4.6360    2.1380    0.1930 O   0  0  0  0  0  0  0  0  0  0  0  0
   -2.4780   -2.1230   -0.8310 C   0  0  0  0  0  0  0  0  0  0  0  0
   -3.5920   -2.6510   -1.0230 O   0  0  0  0  0  0  0  0  0  0  0  0
   -1.3660   -2.9380   -0.9930 O   0  0  0  0  0  0  0  0  0  0  0  0
  1  2  1  0
  2  3  1  0
  3  4  1  0
  4  5  1  0
  4  6  1  0
  6  7  1  0
  7  8  1  0
  8  9  2  3
  8 13  1  0
  9 10  1  0
 10 11  2  0
 10 12  1  0
 13 14  2  0
 13 15  1  0
M  END
