
     RDKit          3D

 30 33  0  0  0  0  0  0  0  0999 V2000
   -2.6770   -1.0570   -2.2460 C   0  0  0  0  0  0  0  0  0  0  0  0
   -2.9680   -0.8990   -0.7920 C   0  0  0  0  0  0  0  0  0  0  0  0
   -2.7180    0.1540    0.0330 C   0  0  0  0  0  0  0  0  0  0  0  0
   -2.1010    1.4350   -0.2560 C   0  0  1  0  0  0  0  0  0  0  0  0
   -2.6000    2.4240    0.8800 C   0  0  0  0  0  0  0  0  0  0  0  0
   -2.5550    3.7910    0.2290 C   0  0  0  0  0  0  0  0  0  0  0  0
   -1.1200    4.1360   -0.0950 C   0  0  0  0  0  0  0  0  0  0  0  0
   -0.2610    3.0510   -0.4590 C   0  0  0  0  0  0  0  0  0  0  0  0
   -0.7080    1.6260   -0.2660 N   0  0  0  0  0  0  0  0  0  0  0  0
    0.3700    0.7130   -0.0580 C   0  0  0  0  0  0  0  0  0  0  0  0
    1.4960    1.3120    0.2290 O   0  0  0  0  0  0  0  0  0  0  0  0
    0.2710   -0.7040   -0.1730 C   0  0  0  0  0  0  0  0  0  0  0  0
    1.3680   -1.5880    0.2560 C   0  0  2  0  0  0  0  0  0  0  0  0
    1.7180   -1.6230    1.7200 C   0  0  0  0  0  0  0  0  0  0  0  0
    2.9070   -2.5050    1.5720 N   0  0  0  0  0  0  0  0  0  0  0  0
    3.6360   -1.7830    0.5430 C   0  0  0  0  0  0  0  0  0  0  0  0
    5.0030   -1.6070    0.3470 C   0  0  0  0  0  0  0  0  0  0  0  0
    5.4510   -0.8050   -0.6820 C   0  0  0  0  0  0  0  0  0  0  0  0
    6.9170   -0.5680   -0.8800 C   0  0  2  0  0  0  0  0  0  0  0  0
    7.2880   -0.8550   -2.1670 F   0  0  0  0  0  0  0  0  0  0  0  0
    7.7910   -1.7010    0.2030 Cl  0  0  0  0  0  0  0  0  0  0  0  0
    7.3120    1.1230   -0.4630 Cl  0  0  0  0  0  0  0  0  0  0  0  0
    4.5370   -0.1800   -1.5240 C   0  0  0  0  0  0  0  0  0  0  0  0
    3.1810   -0.3780   -1.3100 C   0  0  0  0  0  0  0  0  0  0  0  0
    2.7240   -1.1700   -0.2860 C   0  0  0  0  0  0  0  0  0  0  0  0
   -3.2120   -0.2440    1.2840 C   0  0  0  0  0  0  0  0  0  0  0  0
   -3.2050    0.4540    2.5340 N   0  0  0  0  0  0  0  0  0  0  0  0
   -3.7140   -1.4830    1.1370 N   0  0  0  0  0  0  0  0  0  0  0  0
   -3.5860   -1.9020   -0.0910 N   0  0  0  0  0  0  0  0  0  0  0  0
   -4.0370   -3.1790   -0.6190 C   0  0  0  0  0  0  0  0  0  0  0  0
  1  2  1  0
  2  3  2  0
  2 29  1  0
  4  3  1  1
  3 26  1  0
  4  5  1  0
  4  9  1  0
  5  6  1  0
  6  7  1  0
  7  8  1  0
  8  9  1  0
  9 10  1  0
 10 11  2  0
 10 12  1  0
 13 12  1  1
 13 14  1  0
 13 25  1  0
 14 15  1  0
 15 16  1  0
 16 17  2  0
 16 25  1  0
 17 18  1  0
 18 19  1  0
 18 23  2  0
 19 20  1  6
 19 21  1  0
 19 22  1  0
 23 24  1  0
 24 25  2  0
 26 27  1  0
 26 28  2  0
 28 29  1  0
 29 30  1  0
M  CHG  1  28   1
M  END
