
     RDKit          3D

 38 42  0  0  0  0  0  0  0  0999 V2000
    5.6760   -2.8670   -1.0850 C   0  0  0  0  0  0  0  0  0  0  0  0
    5.9280   -1.5250   -0.5900 N   0  0  1  0  0  0  0  0  0  0  0  0
    7.3760   -1.4710   -0.3590 C   0  0  0  0  0  0  0  0  0  0  0  0
    5.4970   -0.6060   -1.6180 C   0  0  0  0  0  0  0  0  0  0  0  0
    5.6330    0.7740   -1.1060 C   0  0  0  0  0  0  0  0  0  0  0  0
    6.7890    1.5050   -1.1510 N   0  0  0  0  0  0  0  0  0  0  0  0
    6.6180    2.7010   -0.6140 C   0  0  0  0  0  0  0  0  0  0  0  0
    5.3020    2.7320   -0.2120 C   0  0  0  0  0  0  0  0  0  0  0  0
    4.7220    1.5260   -0.5330 N   0  0  0  0  0  0  0  0  0  0  0  0
    3.3330    1.2990   -0.2170 C   0  0  0  0  0  0  0  0  0  0  0  0
    2.7680    0.0780   -0.0380 C   0  0  0  0  0  0  0  0  0  0  0  0
    1.4200   -0.0690    0.3090 C   0  0  0  0  0  0  0  0  0  0  0  0
    0.5840    0.9790    0.4900 C   0  0  0  0  0  0  0  0  0  0  0  0
   -0.7370    0.8860    0.9460 N   0  0  0  0  0  0  0  0  0  0  0  0
   -1.6120   -0.2510    0.9150 C   0  0  0  0  0  0  0  0  0  0  0  0
   -1.1880   -1.2680    0.3900 O   0  0  0  0  0  0  0  0  0  0  0  0
   -2.9450   -0.0670    1.5320 C   0  0  0  0  0  0  0  0  0  0  0  0
   -3.0510    0.4970    2.8190 C   0  0  0  0  0  0  0  0  0  0  0  0
   -4.3500    0.5680    3.1500 C   0  0  0  0  0  0  0  0  0  0  0  0
   -4.8770    1.1050    4.4560 C   0  0  1  0  0  0  0  0  0  0  0  0
   -5.5510    2.2650    4.2510 F   0  0  0  0  0  0  0  0  0  0  0  0
   -5.7460    0.1230    4.9440 F   0  0  0  0  0  0  0  0  0  0  0  0
   -3.8510    1.2690    5.3310 F   0  0  0  0  0  0  0  0  0  0  0  0
   -5.0430    0.0850    2.1430 N   0  0  0  0  0  0  0  0  0  0  0  0
   -4.1760   -0.3050    1.1460 N   0  0  0  0  0  0  0  0  0  0  0  0
   -4.7140   -0.8180   -0.0630 C   0  0  0  0  0  0  0  0  0  0  0  0
   -4.2610   -1.8720   -0.7880 C   0  0  0  0  0  0  0  0  0  0  0  0
   -4.8950   -2.3210   -1.9550 C   0  0  0  0  0  0  0  0  0  0  0  0
   -6.0450   -1.6900   -2.4330 C   0  0  0  0  0  0  0  0  0  0  0  0
   -6.8410   -1.8850   -3.4700 O   0  0  0  0  0  0  0  0  0  0  0  0
   -7.7970   -0.9880   -3.4310 N   0  0  0  0  0  0  0  0  0  0  0  0
   -7.6310   -0.1840   -2.3450 C   0  0  0  0  0  0  0  0  0  0  0  0
   -8.5190    0.8820   -2.0410 N   0  0  0  0  0  0  0  0  0  0  0  0
   -6.5010   -0.6260   -1.6980 C   0  0  0  0  0  0  0  0  0  0  0  0
   -5.8740   -0.1980   -0.5640 C   0  0  0  0  0  0  0  0  0  0  0  0
    1.1510    2.2490    0.3090 C   0  0  0  0  0  0  0  0  0  0  0  0
    0.3670    3.3520    0.4720 F   0  0  0  0  0  0  0  0  0  0  0  0
    2.4760    2.3940   -0.0320 C   0  0  0  0  0  0  0  0  0  0  0  0
  2  1  1  6
  2  3  1  0
  2  4  1  0
  4  5  1  0
  5  6  2  0
  5  9  1  0
  6  7  1  0
  7  8  2  0
  8  9  1  0
  9 10  1  0
 10 11  2  0
 10 38  1  0
 11 12  1  0
 12 13  2  0
 13 14  1  0
 13 36  1  0
 14 15  1  0
 15 16  2  0
 15 17  1  0
 17 18  2  0
 17 25  1  0
 18 19  1  0
 19 20  1  0
 19 24  2  0
 20 21  1  6
 20 22  1  0
 20 23  1  0
 24 25  1  0
 25 26  1  0
 26 27  2  0
 26 35  1  0
 27 28  1  0
 28 29  2  0
 29 30  1  0
 29 34  1  0
 30 31  1  0
 31 32  2  0
 32 33  1  0
 32 34  1  0
 34 35  2  0
 36 37  1  0
 36 38  2  0
M  CHG  1   2   1
M  END
