
     RDKit          3D

 30 33  0  0  0  0  0  0  0  0999 V2000
   -2.4000   -1.0060    1.5490 C   0  0  0  0  0  0  0  0  0  0  0  0
   -1.7900   -1.0320    0.1500 C   0  0  0  0  0  0  0  0  0  0  0  0
   -0.9370   -2.0100   -0.0250 C   0  0  0  0  0  0  0  0  0  0  0  0
   -0.1410   -2.3790   -1.2140 C   0  0  0  0  0  0  0  0  0  0  0  0
    1.1690   -2.8320   -0.7820 N   0  0  0  0  0  0  0  0  0  0  0  0
    2.1450   -1.8060   -0.6230 C   0  0  0  0  0  0  0  0  0  0  0  0
    2.0590   -1.0510    0.6830 C   0  0  0  0  0  0  0  0  0  0  0  0
    2.5070    0.3580    0.5860 C   0  0  0  0  0  0  0  0  0  0  0  0
    1.6890    1.4520    0.4520 C   0  0  0  0  0  0  0  0  0  0  0  0
    2.4450    2.5790    0.3950 N   0  0  0  0  0  0  0  0  0  0  0  0
    3.7010    2.1950    0.4910 N   0  0  0  0  0  0  0  0  0  0  0  0
    3.7960    0.8760    0.6080 C   0  0  0  0  0  0  0  0  0  0  0  0
    5.0460    0.1370    0.7360 C   0  0  0  0  0  0  0  0  0  0  0  0
    6.3210    0.6590    0.7570 C   0  0  0  0  0  0  0  0  0  0  0  0
    7.1830   -0.3950    0.8910 C   0  0  0  0  0  0  0  0  0  0  0  0
    6.4490   -1.4610    0.9440 O   0  0  0  0  0  0  0  0  0  0  0  0
    5.1830   -1.1880    0.8550 N   0  0  0  0  0  0  0  0  0  0  0  0
    0.1830    1.3480    0.3820 C   0  0  0  0  0  0  0  0  0  0  0  0
   -0.1700    1.2770   -1.0460 C   0  0  0  0  0  0  0  0  0  0  0  0
   -1.4180    0.8340   -1.4870 N   0  0  0  0  0  0  0  0  0  0  0  0
   -2.2660    0.0200   -0.7580 C   0  0  2  0  0  0  0  0  0  0  0  0
   -3.5600    0.6130   -0.2660 C   0  0  0  0  0  0  0  0  0  0  0  0
   -4.6180   -0.2620    0.0430 C   0  0  0  0  0  0  0  0  0  0  0  0
   -5.8440    0.1300    0.4680 C   0  0  0  0  0  0  0  0  0  0  0  0
   -7.1160   -1.0540    0.8340 Cl  0  0  0  0  0  0  0  0  0  0  0  0
   -6.0980    1.4760    0.6150 C   0  0  0  0  0  0  0  0  0  0  0  0
   -7.3210    1.8940    1.0400 F   0  0  0  0  0  0  0  0  0  0  0  0
   -5.1010    2.3600    0.3270 C   0  0  0  0  0  0  0  0  0  0  0  0
   -3.8380    1.9320   -0.1110 C   0  0  0  0  0  0  0  0  0  0  0  0
   -2.7100    3.1970   -0.3850 Cl  0  0  0  0  0  0  0  0  0  0  0  0
  1  2  1  0
  2  3  2  0
  2 21  1  0
  3  4  1  0
  4  5  1  0
  5  6  1  0
  6  7  1  0
  7  8  1  0
  8  9  1  0
  8 12  2  0
  9 10  2  0
  9 18  1  0
 10 11  1  0
 11 12  1  0
 12 13  1  0
 13 14  1  0
 13 17  2  0
 14 15  2  0
 15 16  1  0
 16 17  1  0
 18 19  1  0
 19 20  1  0
 20 21  1  0
 21 22  1  1
 22 23  2  0
 22 29  1  0
 23 24  1  0
 24 25  1  0
 24 26  2  0
 26 27  1  0
 26 28  1  0
 28 29  2  0
 29 30  1  0
M  CHG  1  20   1
M  END
