
     RDKit          3D

 16 15  0  0  0  0  0  0  0  0999 V2000
   -2.0210   -2.4570    1.5900 C   0  0  0  0  0  0  0  0  0  0  0  0
   -1.6460   -1.5230    0.4590 C   0  0  0  0  0  0  0  0  0  0  0  0
   -1.6320   -0.2350    0.9380 O   0  0  0  0  0  0  0  0  0  0  0  0
   -1.3040    0.7380    0.0340 C   0  0  1  0  0  0  0  0  0  0  0  0
   -2.2690    0.8690   -1.1270 C   0  0  0  0  0  0  0  0  0  0  0  0
   -1.3380    1.9850    0.6940 O   0  0  0  0  0  0  0  0  0  0  0  0
   -1.0170    3.0290   -0.1570 C   0  0  0  0  0  0  0  0  0  0  0  0
    0.3860    0.5460   -0.6790 P   0  0  0  0  0  0  0  0  0  0  0  0
    1.5860    0.1370    0.5340 O   0  0  0  0  0  0  0  0  0  0  0  0
    2.6680    0.9770    0.7510 C   0  0  0  0  0  0  0  0  0  0  0  0
    3.7200    0.6880    1.7640 C   0  0  0  0  0  0  0  0  0  0  0  0
    2.7160    2.0130    0.0380 O   0  0  0  0  0  0  0  0  0  0  0  0
    0.4480   -0.6830   -1.9280 O   0  0  0  0  0  0  0  0  0  0  0  0
    1.3900   -1.7020   -1.9450 C   0  0  0  0  0  0  0  0  0  0  0  0
    2.2470   -1.7580   -1.0250 O   0  0  0  0  0  0  0  0  0  0  0  0
    1.3890   -2.6590   -2.9760 O   0  0  0  0  0  0  0  0  0  0  0  0
  1  2  1  0
  2  3  1  0
  3  4  1  0
  4  5  1  6
  4  6  1  0
  4  8  1  0
  6  7  1  0
  8  9  1  0
  8 13  1  0
  9 10  1  0
 10 11  1  0
 10 12  2  0
 13 14  1  0
 14 15  2  0
 14 16  1  0
M  END
