
     RDKit          3D

 16 15  0  0  0  0  0  0  0  0999 V2000
   -2.0250    3.7530    0.0630 C   0  0  0  0  0  0  0  0  0  0  0  0
   -1.4970    2.6690   -0.6000 O   0  0  0  0  0  0  0  0  0  0  0  0
   -1.7260    1.1820    0.2480 P   0  0  0  0  0  0  0  0  0  0  0  0
   -3.3490    0.6320    0.2180 O   0  0  0  0  0  0  0  0  0  0  0  0
   -0.5300   -0.1170   -0.2950 C   0  0  2  0  0  0  0  0  0  0  0  0
   -0.9440   -1.3360    0.2090 O   0  0  0  0  0  0  0  0  0  0  0  0
   -1.2190   -2.2250   -0.6940 O   0  0  0  0  0  0  0  0  0  0  0  0
   -2.4350   -1.9580   -1.2750 C   0  0  0  0  0  0  0  0  0  0  0  0
   -2.6880   -2.9440   -2.2410 O   0  0  0  0  0  0  0  0  0  0  0  0
    0.8720    0.1660    0.1970 C   0  0  2  0  0  0  0  0  0  0  0  0
    0.8610    0.1980    1.7190 C   0  0  0  0  0  0  0  0  0  0  0  0
    1.3260    1.3970   -0.2960 O   0  0  0  0  0  0  0  0  0  0  0  0
    1.8450   -0.8960   -0.2300 C   0  0  0  0  0  0  0  0  0  0  0  0
    3.2110   -0.5130    0.3130 C   0  0  0  0  0  0  0  0  0  0  0  0
    4.2300   -1.5140   -0.0660 C   0  0  0  0  0  0  0  0  0  0  0  0
    3.9130   -2.4740   -0.7240 O   0  0  0  0  0  0  0  0  0  0  0  0
  1  2  1  0
  2  3  1  0
  3  4  1  0
  3  5  1  0
  5  6  1  1
  5 10  1  0
  6  7  1  0
  7  8  1  0
  8  9  1  0
 10 11  1  1
 10 12  1  0
 10 13  1  0
 13 14  1  0
 14 15  1  0
 15 16  2  0
M  END
