
     RDKit          3D

 33 34  0  0  0  0  0  0  0  0999 V2000
   -7.7630   -0.1000    1.3510 C   0  0  0  0  0  0  0  0  0  0  0  0
   -6.7280    0.5110    0.8400 C   0  0  0  0  0  0  0  0  0  0  0  0
   -6.7160    1.9360    0.6980 C   0  0  0  0  0  0  0  0  0  0  0  0
   -5.7260    2.5180    0.2100 O   0  0  0  0  0  0  0  0  0  0  0  0
   -7.8000    2.6870    1.0990 O   0  0  0  0  0  0  0  0  0  0  0  0
   -5.5710   -0.2670    0.4100 C   0  0  0  0  0  0  0  0  0  0  0  0
   -5.6300   -1.4930    0.5530 O   0  0  0  0  0  0  0  0  0  0  0  0
   -4.4550    0.2570   -0.1280 O   0  0  0  0  0  0  0  0  0  0  0  0
   -3.2980   -0.3620   -0.6050 C   0  0  2  0  0  0  0  0  0  0  0  0
   -3.5210   -1.1770   -1.8010 C   0  0  0  0  0  0  0  0  0  0  0  0
   -4.3990   -2.2870   -1.7970 N   0  0  0  0  0  0  0  0  0  0  0  0
   -2.6730   -1.2140    0.4970 C   0  0  0  0  0  0  0  0  0  0  0  0
   -2.3060   -0.4110    1.6700 C   0  0  0  0  0  0  0  0  0  0  0  0
   -2.5200    0.8190    1.7360 O   0  0  0  0  0  0  0  0  0  0  0  0
   -1.6870   -0.9860    2.7970 O   0  0  0  0  0  0  0  0  0  0  0  0
   -2.3030    0.7130   -0.9270 C   0  0  0  0  0  0  0  0  0  0  0  0
   -2.6550    1.9340   -0.5880 O   0  0  0  0  0  0  0  0  0  0  0  0
   -1.0650    0.6350   -1.5300 N   0  0  0  0  0  0  0  0  0  0  0  0
   -0.3350   -0.4660   -2.0700 C   0  0  0  0  0  0  0  0  0  0  0  0
    1.1560   -0.0430   -2.1650 C   0  0  0  0  0  0  0  0  0  0  0  0
    1.5110    0.5080   -0.8060 C   0  0  1  0  0  0  0  0  0  0  0  0
    2.9170    0.5990   -0.7490 O   0  0  0  0  0  0  0  0  0  0  0  0
    3.7130   -0.0640    0.1680 C   0  0  0  0  0  0  0  0  0  0  0  0
    3.1520   -0.8020    1.0160 O   0  0  0  0  0  0  0  0  0  0  0  0
    5.1730    0.1470    0.0830 C   0  0  1  0  0  0  0  0  0  0  0  0
    5.5700    1.5780    0.2460 C   0  0  0  0  0  0  0  0  0  0  0  0
    5.3580    2.0530    1.5370 O   0  0  0  0  0  0  0  0  0  0  0  0
    6.2400    1.3400    2.3780 C   0  0  0  0  0  0  0  0  0  0  0  0
    5.6730   -0.0610    2.4760 C   0  0  0  0  0  0  0  0  0  0  0  0
    5.8760   -0.7110    1.1070 C   0  0  1  0  0  0  0  0  0  0  0  0
    5.3550   -2.0560    1.1200 N   0  0  0  0  0  0  0  0  0  0  0  0
    0.8570    1.8750   -0.7230 C   0  0  0  0  0  0  0  0  0  0  0  0
   -0.3300    1.9300   -1.6600 C   0  0  0  0  0  0  0  0  0  0  0  0
  1  2  2  0
  2  3  1  0
  2  6  1  0
  3  4  2  0
  3  5  1  0
  6  7  2  0
  6  8  1  0
  8  9  1  0
  9 10  1  6
  9 12  1  0
  9 16  1  0
 10 11  1  0
 12 13  1  0
 13 14  2  0
 13 15  1  0
 16 17  2  0
 16 18  1  0
 18 19  1  0
 18 33  1  0
 19 20  1  0
 20 21  1  0
 21 22  1  6
 21 32  1  0
 22 23  1  0
 23 24  2  0
 25 23  1  1
 25 26  1  0
 25 30  1  0
 26 27  1  0
 27 28  1  0
 28 29  1  0
 29 30  1  0
 30 31  1  1
 32 33  1  0
M  CHG  3   5  -1  11   1  31   1
M  END
