
     RDKit          3D

 33 36  0  0  0  0  0  0  0  0999 V2000
   -3.7600    4.1310    1.0160 C   0  0  0  0  0  0  0  0  0  0  0  0
   -2.7370    3.3240    0.3280 C   0  0  0  0  0  0  0  0  0  0  0  0
   -3.0150    2.0250   -0.1020 C   0  0  0  0  0  0  0  0  0  0  0  0
   -2.0760    1.2570   -0.7600 C   0  0  0  0  0  0  0  0  0  0  0  0
   -2.2950   -0.0290   -1.1980 O   0  0  0  0  0  0  0  0  0  0  0  0
   -3.4700   -0.7110   -0.9850 C   0  0  0  0  0  0  0  0  0  0  0  0
   -3.4140   -1.8240   -0.1560 C   0  0  0  0  0  0  0  0  0  0  0  0
   -4.5040   -2.6110    0.1590 C   0  0  0  0  0  0  0  0  0  0  0  0
   -5.7320   -2.2820   -0.3790 C   0  0  0  0  0  0  0  0  0  0  0  0
   -6.8750   -3.0230   -0.1050 O   0  0  0  0  0  0  0  0  0  0  0  0
   -5.8220   -1.1830   -1.2080 C   0  0  0  0  0  0  0  0  0  0  0  0
   -4.7140   -0.3960   -1.5180 C   0  0  0  0  0  0  0  0  0  0  0  0
   -4.8540    0.9660   -2.5850 Cl  0  0  0  0  0  0  0  0  0  0  0  0
   -0.8280    1.8120   -0.9840 C   0  0  0  0  0  0  0  0  0  0  0  0
    0.1560    1.0340   -1.7440 C   0  0  0  0  0  0  0  0  0  0  0  0
    0.4190   -0.1950   -1.1640 O   0  0  0  0  0  0  0  0  0  0  0  0
    0.8700   -0.3890    0.0990 C   0  0  0  0  0  0  0  0  0  0  0  0
    1.0960    0.5940    0.8630 O   0  0  0  0  0  0  0  0  0  0  0  0
    1.1070   -1.7760    0.6370 C   0  0  1  0  0  0  0  0  0  0  0  0
    1.6660   -2.6700   -0.4340 C   0  0  0  0  0  0  0  0  0  0  0  0
    3.1430   -2.7700   -0.4920 C   0  0  0  0  0  0  0  0  0  0  0  0
    3.8320   -1.5850    0.0520 C   0  0  0  0  0  0  0  0  0  0  0  0
    4.9550   -1.0550   -0.5780 C   0  0  0  0  0  0  0  0  0  0  0  0
    5.5340    0.0590   -0.0170 C   0  0  0  0  0  0  0  0  0  0  0  0
    6.7360    0.6660   -0.6900 C   0  0  0  0  0  0  0  0  0  0  0  0
    5.0040    0.6090    1.1300 C   0  0  0  0  0  0  0  0  0  0  0  0
    5.5640    1.6100    1.5990 O   0  0  0  0  0  0  0  0  0  0  0  0
    3.9210    0.0870    1.7290 N   0  0  0  0  0  0  0  0  0  0  0  0
    3.3520   -0.9860    1.1970 C   0  0  0  0  0  0  0  0  0  0  0  0
    2.1250   -1.6290    1.7770 C   0  0  0  0  0  0  0  0  0  0  0  0
   -0.5510    3.0780   -0.5650 C   0  0  0  0  0  0  0  0  0  0  0  0
   -1.4990    3.8550    0.0960 C   0  0  0  0  0  0  0  0  0  0  0  0
   -1.1330    5.4740    0.6130 Cl  0  0  0  0  0  0  0  0  0  0  0  0
  1  2  1  0
  2  3  2  0
  2 32  1  0
  3  4  1  0
  4  5  1  0
  4 14  2  0
  5  6  1  0
  6  7  2  0
  6 12  1  0
  7  8  1  0
  8  9  2  0
  9 10  1  0
  9 11  1  0
 11 12  2  0
 12 13  1  0
 14 15  1  0
 14 31  1  0
 15 16  1  0
 16 17  1  0
 17 18  2  0
 19 17  1  6
 19 20  1  0
 19 30  1  0
 20 21  1  0
 21 22  1  0
 22 23  1  0
 22 29  2  0
 23 24  2  0
 24 25  1  0
 24 26  1  0
 26 27  2  0
 26 28  1  0
 28 29  1  0
 29 30  1  0
 31 32  2  0
 32 33  1  0
M  END
