
     RDKit          3D

 33 36  0  0  0  0  0  0  0  0999 V2000
   -6.8010    4.4430    0.8230 C   0  0  0  0  0  0  0  0  0  0  0  0
   -5.5430    3.6830    0.5340 C   0  0  0  0  0  0  0  0  0  0  0  0
   -4.4890    4.1400   -0.2350 C   0  0  0  0  0  0  0  0  0  0  0  0
   -3.5470    3.1480   -0.2520 C   0  0  0  0  0  0  0  0  0  0  0  0
   -4.0370    2.0900    0.5080 C   0  0  0  0  0  0  0  0  0  0  0  0
   -3.3410    0.8400    0.7430 C   0  0  0  0  0  0  0  0  0  0  0  0
   -3.6830    0.0500    1.6760 O   0  0  0  0  0  0  0  0  0  0  0  0
   -2.2180    0.4600   -0.0950 N   0  0  0  0  0  0  0  0  0  0  0  0
   -1.4840   -0.7100    0.1210 C   0  0  2  0  0  0  0  0  0  0  0  0
   -0.1390   -0.8590   -0.4190 C   0  0  0  0  0  0  0  0  0  0  0  0
    1.0260   -0.3010   -0.3570 O   0  0  0  0  0  0  0  0  0  0  0  0
    1.8820    0.0030    0.6480 C   0  0  0  0  0  0  0  0  0  0  0  0
    1.4840   -0.2110    1.8200 O   0  0  0  0  0  0  0  0  0  0  0  0
    3.2350    0.5460    0.3500 C   0  0  0  0  0  0  0  0  0  0  0  0
    3.7190    1.7030    0.8150 C   0  0  0  0  0  0  0  0  0  0  0  0
    5.0370    2.0940    0.4930 C   0  0  0  0  0  0  0  0  0  0  0  0
    5.8050    1.2760   -0.2980 C   0  0  0  0  0  0  0  0  0  0  0  0
    5.2740    0.1050   -0.7550 C   0  0  0  0  0  0  0  0  0  0  0  0
    3.9920   -0.2990   -0.4580 C   0  0  0  0  0  0  0  0  0  0  0  0
    3.5540   -1.5730   -1.0340 C   0  0  0  0  0  0  0  0  0  0  0  0
    7.1880    1.8660   -0.4690 C   0  0  0  0  0  0  0  0  0  0  0  0
    7.0710    3.1450    0.2960 C   0  0  0  0  0  0  0  0  0  0  0  0
    5.7790    3.2000    0.8160 O   0  0  0  0  0  0  0  0  0  0  0  0
   -2.1060   -2.0390   -0.2040 C   0  0  0  0  0  0  0  0  0  0  0  0
   -1.4160   -3.1180    0.3660 C   0  0  0  0  0  0  0  0  0  0  0  0
   -1.8570   -4.4150    0.2020 C   0  0  0  0  0  0  0  0  0  0  0  0
   -1.1520   -5.5380    0.8650 C   0  0  0  0  0  0  0  0  0  0  0  0
   -2.9900   -4.6380   -0.5320 C   0  0  0  0  0  0  0  0  0  0  0  0
   -3.5500   -6.2980   -0.7970 Cl  0  0  0  0  0  0  0  0  0  0  0  0
   -3.6890   -3.5840   -1.0930 C   0  0  0  0  0  0  0  0  0  0  0  0
   -3.2110   -2.2710   -0.9050 C   0  0  0  0  0  0  0  0  0  0  0  0
   -4.1230   -0.9470   -1.6500 Cl  0  0  0  0  0  0  0  0  0  0  0  0
   -5.2040    2.4670    0.9390 O   0  0  0  0  0  0  0  0  0  0  0  0
  1  2  1  0
  2  3  2  0
  2 33  1  0
  3  4  1  0
  4  5  2  0
  5  6  1  0
  5 33  1  0
  6  7  2  0
  6  8  1  0
  8  9  1  0
  9 10  1  6
  9 24  1  0
 10 11  1  0
 11 12  1  0
 12 13  2  0
 12 14  1  0
 14 15  2  0
 14 19  1  0
 15 16  1  0
 16 17  2  0
 16 23  1  0
 17 18  1  0
 17 21  1  0
 18 19  2  0
 19 20  1  0
 21 22  1  0
 22 23  1  0
 24 25  2  0
 24 31  1  0
 25 26  1  0
 26 27  1  0
 26 28  2  0
 28 29  1  0
 28 30  1  0
 30 31  2  0
 31 32  1  0
M  END
