
     RDKit          3D

 33 36  0  0  0  0  0  0  0  0999 V2000
   -3.4010    4.8470   -2.1040 C   0  0  0  0  0  0  0  0  0  0  0  0
   -2.7810    3.5910   -1.5750 C   0  0  0  0  0  0  0  0  0  0  0  0
   -2.9220    2.4280   -2.2720 C   0  0  0  0  0  0  0  0  0  0  0  0
   -2.3440    1.2350   -1.7890 C   0  0  0  0  0  0  0  0  0  0  0  0
   -2.5100    0.0960   -2.5250 O   0  0  0  0  0  0  0  0  0  0  0  0
   -1.6290    1.2000   -0.6150 C   0  0  0  0  0  0  0  0  0  0  0  0
   -1.0410   -0.0620   -0.0990 C   0  0  1  0  0  0  0  0  0  0  0  0
    0.0200    0.3000    0.8540 N   0  0  0  0  0  0  0  0  0  0  0  0
    1.3870    0.0330    0.5380 C   0  0  0  0  0  0  0  0  0  0  0  0
    1.5920   -0.5210   -0.5900 O   0  0  0  0  0  0  0  0  0  0  0  0
    2.4730    0.3820    1.4650 C   0  0  0  0  0  0  0  0  0  0  0  0
    3.7150    0.0140    0.9560 O   0  0  0  0  0  0  0  0  0  0  0  0
    4.2610    0.4640   -0.2200 C   0  0  0  0  0  0  0  0  0  0  0  0
    3.6290    1.2720   -0.9250 O   0  0  0  0  0  0  0  0  0  0  0  0
    5.5740    0.0210   -0.6770 C   0  0  0  0  0  0  0  0  0  0  0  0
    6.3110   -0.8830    0.0960 C   0  0  0  0  0  0  0  0  0  0  0  0
    7.5420   -1.3470   -0.2600 C   0  0  0  0  0  0  0  0  0  0  0  0
    8.1010   -0.9090   -1.4430 C   0  0  0  0  0  0  0  0  0  0  0  0
    9.6780   -1.4780   -1.9380 Cl  0  0  0  0  0  0  0  0  0  0  0  0
    7.3710   -0.0050   -2.2220 C   0  0  0  0  0  0  0  0  0  0  0  0
    6.1280    0.4500   -1.8410 C   0  0  0  0  0  0  0  0  0  0  0  0
   -1.9870   -0.8980    0.6390 C   0  0  0  0  0  0  0  0  0  0  0  0
   -2.4920   -0.4480    1.8650 C   0  0  0  0  0  0  0  0  0  0  0  0
   -3.3730   -1.2130    2.5970 C   0  0  0  0  0  0  0  0  0  0  0  0
   -3.7880   -2.4620    2.1340 C   0  0  0  0  0  0  0  0  0  0  0  0
   -3.3060   -2.9310    0.9270 C   0  0  0  0  0  0  0  0  0  0  0  0
   -2.4220   -2.1340    0.2220 C   0  0  0  0  0  0  0  0  0  0  0  0
   -3.8660   -4.1910    0.6900 O   0  0  0  0  0  0  0  0  0  0  0  0
   -5.0450   -4.3240    1.4680 C   0  0  0  0  0  0  0  0  0  0  0  0
   -4.7030   -3.4920    2.6790 C   0  0  0  0  0  0  0  0  0  0  0  0
   -1.5080    2.4000    0.0630 C   0  0  0  0  0  0  0  0  0  0  0  0
   -2.0690    3.5710   -0.4020 C   0  0  0  0  0  0  0  0  0  0  0  0
   -1.8870    5.0570    0.4890 Cl  0  0  0  0  0  0  0  0  0  0  0  0
  1  2  1  0
  2  3  2  0
  2 32  1  0
  3  4  1  0
  4  5  1  0
  4  6  2  0
  6  7  1  0
  6 31  1  0
  7  8  1  1
  7 22  1  0
  8  9  1  0
  9 10  2  0
  9 11  1  0
 11 12  1  0
 12 13  1  0
 13 14  2  0
 13 15  1  0
 15 16  2  0
 15 21  1  0
 16 17  1  0
 17 18  2  0
 18 19  1  0
 18 20  1  0
 20 21  2  0
 22 23  2  0
 22 27  1  0
 23 24  1  0
 24 25  2  0
 25 26  1  0
 25 30  1  0
 26 27  2  0
 26 28  1  0
 28 29  1  0
 29 30  1  0
 31 32  2  0
 32 33  1  0
M  END
