
     RDKit          3D

 33 36  0  0  0  0  0  0  0  0999 V2000
   -0.6250    4.4480    1.0470 C   0  0  0  0  0  0  0  0  0  0  0  0
   -0.8230    3.0690    0.8510 O   0  0  0  0  0  0  0  0  0  0  0  0
    0.2840    2.1990    0.6850 C   0  0  0  0  0  0  0  0  0  0  0  0
    1.3570    2.8320    0.7410 O   0  0  0  0  0  0  0  0  0  0  0  0
    0.1890    0.7900    0.4890 C   0  0  0  0  0  0  0  0  0  0  0  0
    1.2630   -0.0060    0.3990 C   0  0  0  0  0  0  0  0  0  0  0  0
    2.5770    0.4910    0.5010 C   0  0  0  0  0  0  0  0  0  0  0  0
    3.8000    0.0930    0.4700 C   0  0  0  0  0  0  0  0  0  0  0  0
    4.8600    1.1410    0.6470 C   0  0  0  0  0  0  0  0  0  0  0  0
    6.1280    0.8510    0.6350 C   0  0  0  0  0  0  0  0  0  0  0  0
    6.6580   -0.4840    0.4550 C   0  0  0  0  0  0  0  0  0  0  0  0
    5.6300   -1.4920    0.2850 C   0  0  0  0  0  0  0  0  0  0  0  0
    4.3080   -1.2320    0.2910 C   0  0  0  0  0  0  0  0  0  0  0  0
    3.3990   -2.3890    0.1030 C   0  0  0  0  0  0  0  0  0  0  0  0
    4.4550   -3.8710   -0.0850 Cl  0  0  0  0  0  0  0  0  0  0  0  0
    0.9850   -1.3420    0.1920 O   0  0  0  0  0  0  0  0  0  0  0  0
   -0.1600   -2.0480    0.3770 C   0  0  2  0  0  0  0  0  0  0  0  0
   -0.6800   -2.8600   -0.8010 C   0  0  0  0  0  0  0  0  0  0  0  0
   -2.1000   -3.0820   -0.3160 C   0  0  0  0  0  0  0  0  0  0  0  0
   -3.0340   -4.0770   -0.4750 C   0  0  0  0  0  0  0  0  0  0  0  0
   -4.2750   -4.0110    0.1450 C   0  0  0  0  0  0  0  0  0  0  0  0
   -4.6020   -2.9160    0.9540 C   0  0  0  0  0  0  0  0  0  0  0  0
   -6.1810   -2.9080    1.6990 Cl  0  0  0  0  0  0  0  0  0  0  0  0
   -3.6810   -1.9000    1.1320 C   0  0  0  0  0  0  0  0  0  0  0  0
   -2.4740   -2.0060    0.5000 C   0  0  0  0  0  0  0  0  0  0  0  0
   -1.3490   -1.0930    0.4860 C   0  0  0  0  0  0  0  0  0  0  0  0
   -1.1660    0.1990    0.5200 C   0  0  0  0  0  0  0  0  0  0  0  0
   -2.3400    1.0730    0.4690 C   0  0  0  0  0  0  0  0  0  0  0  0
   -2.4840    1.7990   -0.8510 C   0  0  0  0  0  0  0  0  0  0  0  0
   -3.6330    2.6730   -0.7630 N   0  0  0  0  0  0  0  0  0  0  0  0
   -4.0410    3.5000   -1.8460 C   0  0  0  0  0  0  0  0  0  0  0  0
   -3.3290    3.4220   -2.9030 O   0  0  0  0  0  0  0  0  0  0  0  0
   -5.1410    4.3430   -1.7750 O   0  0  0  0  0  0  0  0  0  0  0  0
  1  2  1  0
  2  3  1  0
  3  4  2  0
  3  5  1  0
  5  6  2  0
  5 27  1  0
  6  7  1  0
  6 16  1  0
  7  8  2  3
  8  9  1  0
  8 13  1  0
  9 10  2  0
 10 11  1  0
 11 12  1  0
 12 13  2  0
 13 14  1  0
 14 15  1  0
 16 17  1  0
 17 18  1  6
 17 26  1  0
 18 19  1  0
 19 20  2  0
 19 25  1  0
 20 21  1  0
 21 22  2  0
 22 23  1  0
 22 24  1  0
 24 25  2  0
 25 26  1  0
 26 27  2  0
 27 28  1  0
 28 29  1  0
 29 30  1  0
 30 31  1  0
 31 32  2  0
 31 33  1  0
M  END
