
     RDKit          3D

 33 36  0  0  0  0  0  0  0  0999 V2000
   -6.2910   -2.5730    1.8510 C   0  0  0  0  0  0  0  0  0  0  0  0
   -5.1900   -1.8080    1.2210 C   0  0  0  0  0  0  0  0  0  0  0  0
   -3.9000   -2.0500    1.5600 C   0  0  0  0  0  0  0  0  0  0  0  0
   -3.5440   -3.2670    2.7420 Cl  0  0  0  0  0  0  0  0  0  0  0  0
   -2.8770   -1.3590    0.9940 C   0  0  0  0  0  0  0  0  0  0  0  0
   -3.0850   -0.3590    0.0300 C   0  0  0  0  0  0  0  0  0  0  0  0
   -1.9000    0.3230   -0.5170 C   0  0  0  0  0  0  0  0  0  0  0  0
   -0.7260   -0.2530    0.1310 O   0  0  0  0  0  0  0  0  0  0  0  0
    0.4860    0.3090   -0.2990 C   0  0  0  0  0  0  0  0  0  0  0  0
    0.5290    1.2090   -1.1520 O   0  0  0  0  0  0  0  0  0  0  0  0
    1.7190   -0.2090    0.2990 C   0  0  0  0  0  0  0  0  0  0  0  0
    2.8410    0.4620   -0.2430 O   0  0  0  0  0  0  0  0  0  0  0  0
    4.1460    0.1530    0.1630 C   0  0  0  0  0  0  0  0  0  0  0  0
    4.2460   -0.7440    1.0250 O   0  0  0  0  0  0  0  0  0  0  0  0
    5.2720    0.7990   -0.3550 N   0  0  0  0  0  0  0  0  0  0  0  0
    6.6070    0.5410    0.0090 C   0  0  0  0  0  0  0  0  0  0  0  0
    7.6600    1.1370   -0.7030 C   0  0  0  0  0  0  0  0  0  0  0  0
    8.9760    0.9610   -0.4260 C   0  0  0  0  0  0  0  0  0  0  0  0
   10.2590    1.7180   -1.3340 Cl  0  0  0  0  0  0  0  0  0  0  0  0
    9.3200    0.1420    0.6230 C   0  0  0  0  0  0  0  0  0  0  0  0
    8.3460   -0.4830    1.3760 C   0  0  0  0  0  0  0  0  0  0  0  0
    8.6890   -1.3490    2.4850 C   0  0  0  0  0  0  0  0  0  0  0  0
    7.7720   -1.8960    3.1420 O   0  0  0  0  0  0  0  0  0  0  0  0
    7.0040   -0.2630    1.0440 C   0  0  0  0  0  0  0  0  0  0  0  0
   -4.3860   -0.1130   -0.3140 C   0  0  0  0  0  0  0  0  0  0  0  0
   -4.6640    0.8680   -1.2650 C   0  0  0  0  0  0  0  0  0  0  0  0
   -5.9930    1.0680   -1.5680 C   0  0  0  0  0  0  0  0  0  0  0  0
   -7.0360    0.3600   -0.9870 C   0  0  0  0  0  0  0  0  0  0  0  0
   -6.7470   -0.5890   -0.0650 C   0  0  0  0  0  0  0  0  0  0  0  0
   -5.4390   -0.8290    0.2730 C   0  0  0  0  0  0  0  0  0  0  0  0
   -6.1150    2.0230   -2.4810 C   0  0  0  0  0  0  0  0  0  0  0  0
   -4.7910    2.5080   -2.8260 C   0  0  0  0  0  0  0  0  0  0  0  0
   -3.8910    1.6710   -1.9540 C   0  0  0  0  0  0  0  0  0  0  0  0
  1  2  1  0
  2  3  2  0
  2 30  1  0
  3  4  1  0
  3  5  1  0
  5  6  2  0
  6  7  1  0
  6 25  1  0
  7  8  1  0
  8  9  1  0
  9 10  2  0
  9 11  1  0
 11 12  1  0
 12 13  1  0
 13 14  2  0
 13 15  1  0
 15 16  1  0
 16 17  2  0
 16 24  1  0
 17 18  1  0
 18 19  1  0
 18 20  2  0
 20 21  1  0
 21 22  1  0
 21 24  2  0
 22 23  2  0
 25 26  1  0
 25 30  2  0
 26 27  1  0
 26 33  2  0
 27 28  1  0
 27 31  2  0
 28 29  2  0
 29 30  1  0
 31 32  1  0
 32 33  1  0
M  END
