
     RDKit          3D

 33 34  0  0  0  0  0  0  0  0999 V2000
    9.8490    1.8470   -0.5940 C   0  0  0  0  0  0  0  0  0  0  0  0
    8.5460    1.4520   -0.9230 O   0  0  0  0  0  0  0  0  0  0  0  0
    7.4920    1.4310   -0.0300 C   0  0  0  0  0  0  0  0  0  0  0  0
    7.6760    1.7810    1.1560 O   0  0  0  0  0  0  0  0  0  0  0  0
    6.2340    1.0290   -0.4250 O   0  0  0  0  0  0  0  0  0  0  0  0
    5.1880    1.0210    0.5110 C   0  0  1  0  0  0  0  0  0  0  0  0
    4.0950    1.9980    0.1220 C   0  0  0  0  0  0  0  0  0  0  0  0
    2.8140    1.2000    0.1170 C   0  0  0  0  0  0  0  0  0  0  0  0
    3.1010   -0.0230    0.9430 C   0  0  1  0  0  0  0  0  0  0  0  0
    2.8620    0.1900    2.4160 C   0  0  0  0  0  0  0  0  0  0  0  0
    2.3280   -1.0800    0.4340 O   0  0  0  0  0  0  0  0  0  0  0  0
    0.9180   -0.9810    0.4070 C   0  0  0  0  0  0  0  0  0  0  0  0
    0.3480    0.0510    0.8380 O   0  0  0  0  0  0  0  0  0  0  0  0
    0.1520   -2.0410   -0.1030 N   0  0  0  0  0  0  0  0  0  0  0  0
   -1.3370   -2.0120   -0.1740 C   0  0  1  0  0  0  0  0  0  0  0  0
   -1.7590   -1.7550    1.2550 C   0  0  0  0  0  0  0  0  0  0  0  0
   -1.7140   -0.9250   -1.1180 C   0  0  0  0  0  0  0  0  0  0  0  0
   -3.0610   -0.6630   -1.4030 N   0  0  0  0  0  0  0  0  0  0  0  0
   -3.8340    0.0700   -0.4330 C   0  0  1  0  0  0  0  0  0  0  0  0
   -3.2530    1.3780   -0.0540 C   0  0  0  0  0  0  0  0  0  0  0  0
   -4.1980    2.5500   -0.1840 C   0  0  1  0  0  0  0  0  0  0  0  0
   -4.4390    2.8880   -1.4910 O   0  0  0  0  0  0  0  0  0  0  0  0
   -5.4670    2.1290    0.5520 C   0  0  0  0  0  0  0  0  0  0  0  0
   -6.1380    1.1230   -0.3360 C   0  0  0  0  0  0  0  0  0  0  0  0
   -5.2340    0.1650   -1.0110 C   0  0  1  0  0  0  0  0  0  0  0  0
   -5.1320    0.5090   -2.3620 O   0  0  0  0  0  0  0  0  0  0  0  0
   -1.7370   -3.3700   -0.6140 C   0  0  0  0  0  0  0  0  0  0  0  0
   -0.8720   -4.1580   -1.0570 O   0  0  0  0  0  0  0  0  0  0  0  0
   -3.0750   -3.8150   -0.5450 N   0  0  0  0  0  0  0  0  0  0  0  0
   -3.4000   -5.1390   -1.0160 C   0  0  0  0  0  0  0  0  0  0  0  0
   -2.4820   -5.8540   -1.4770 O   0  0  0  0  0  0  0  0  0  0  0  0
   -4.6830   -5.6580   -0.9830 O   0  0  0  0  0  0  0  0  0  0  0  0
    4.5380   -0.3240    0.6070 C   0  0  0  0  0  0  0  0  0  0  0  0
  1  2  1  0
  2  3  1  0
  3  4  2  0
  3  5  1  0
  6  5  1  6
  6  7  1  0
  6 33  1  0
  7  8  1  0
  8  9  1  0
  9 10  1  1
  9 11  1  0
  9 33  1  0
 11 12  1  0
 12 13  2  0
 12 14  1  0
 14 15  1  0
 15 16  1  1
 15 17  1  0
 15 27  1  0
 17 18  1  0
 19 18  1  6
 19 20  1  0
 19 25  1  0
 20 21  1  0
 21 22  1  6
 21 23  1  0
 23 24  1  0
 24 25  1  0
 25 26  1  6
 27 28  2  0
 27 29  1  0
 29 30  1  0
 30 31  2  0
 30 32  1  0
M  CHG  2  18   1  32  -1
M  END
