
     RDKit          3D

 30 34  0  0  0  0  0  0  0  0999 V2000
   -0.1110    2.9960    0.6300 C   0  0  0  0  0  0  0  0  0  0  0  0
   -1.4990    3.1220    0.4970 N   0  0  0  0  0  0  0  0  0  0  0  0
   -2.4570    2.3450    0.1700 C   0  0  0  0  0  0  0  0  0  0  0  0
   -3.8540    2.7880    0.1220 N   0  0  0  0  0  0  0  0  0  0  0  0
   -4.6720    1.7150   -0.2650 C   0  0  0  0  0  0  0  0  0  0  0  0
   -3.7580    0.5560   -0.4810 C   0  0  0  0  0  0  0  0  0  0  0  0
   -2.5200    0.9400   -0.2250 C   0  0  0  0  0  0  0  0  0  0  0  0
   -1.4640   -0.0860   -0.3290 C   0  0  0  0  0  0  0  0  0  0  0  0
   -0.1630    0.2650   -0.1740 N   0  0  0  0  0  0  0  0  0  0  0  0
    0.8010   -0.6350   -0.3540 C   0  0  0  0  0  0  0  0  0  0  0  0
    2.2380   -0.4390   -0.2140 C   0  0  0  0  0  0  0  0  0  0  0  0
    2.8420    0.7300    0.1900 C   0  0  0  0  0  0  0  0  0  0  0  0
    4.2180    0.8930    0.3050 C   0  0  0  0  0  0  0  0  0  0  0  0
    5.0330   -0.1690   -0.0000 C   0  0  0  0  0  0  0  0  0  0  0  0
    6.4550   -0.0580    0.1000 N   0  0  0  0  0  0  0  0  0  0  0  0
    7.2690   -1.0780    0.4240 C   0  0  0  0  0  0  0  0  0  0  0  0
    8.5150   -0.5740    0.4110 N   0  0  0  0  0  0  0  0  0  0  0  0
    8.4530    0.7310    0.0840 C   0  0  0  0  0  0  0  0  0  0  0  0
    7.1600    1.0440   -0.1090 N   0  0  0  0  0  0  0  0  0  0  0  0
    4.4980   -1.3500   -0.4050 C   0  0  0  0  0  0  0  0  0  0  0  0
    3.1360   -1.4760   -0.5070 C   0  0  0  0  0  0  0  0  0  0  0  0
    0.4470   -1.9140   -0.6980 N   0  0  0  0  0  0  0  0  0  0  0  0
   -0.8110   -2.3090   -0.8610 C   0  0  0  0  0  0  0  0  0  0  0  0
   -1.8160   -1.3630   -0.6690 C   0  0  0  0  0  0  0  0  0  0  0  0
   -3.1970   -1.8490   -0.7820 C   0  0  1  0  0  0  0  0  0  0  0  0
   -3.4740   -2.7000    0.4510 C   0  0  2  0  0  0  0  0  0  0  0  0
   -3.3190   -1.9420    1.5940 F   0  0  0  0  0  0  0  0  0  0  0  0
   -2.5540   -3.7190    0.4950 F   0  0  0  0  0  0  0  0  0  0  0  0
   -4.1990   -0.7800   -0.9630 C   0  0  1  0  0  0  0  0  0  0  0  0
   -5.4910   -1.1070   -0.1920 C   0  0  0  0  0  0  0  0  0  0  0  0
  1  2  1  0
  2  3  2  3
  3  4  1  0
  3  7  1  0
  4  5  1  0
  5  6  1  0
  6  7  2  0
  6 29  1  0
  7  8  1  0
  8  9  2  0
  8 24  1  0
  9 10  1  0
 10 11  1  0
 10 22  2  0
 11 12  2  0
 11 21  1  0
 12 13  1  0
 13 14  2  0
 14 15  1  0
 14 20  1  0
 15 16  1  0
 15 19  1  0
 16 17  2  0
 17 18  1  0
 18 19  2  0
 20 21  2  0
 22 23  1  0
 23 24  2  0
 25 24  1  1
 25 26  1  0
 25 29  1  0
 26 27  1  1
 26 28  1  0
 29 30  1  1
M  CHG  1   2   1
M  END
