
     RDKit          3D

 31 34  0  0  0  0  0  0  0  0999 V2000
   -7.1200   -0.9400   -2.0940 C   0  0  0  0  0  0  0  0  0  0  0  0
   -5.6450   -0.7260   -1.9010 C   0  0  0  0  0  0  0  0  0  0  0  0
   -4.7290   -1.6570   -2.3400 C   0  0  0  0  0  0  0  0  0  0  0  0
   -3.3520   -1.4890   -2.1780 C   0  0  0  0  0  0  0  0  0  0  0  0
   -2.9060   -0.3550   -1.5590 C   0  0  0  0  0  0  0  0  0  0  0  0
   -1.4610   -0.1420   -1.3680 C   0  0  0  0  0  0  0  0  0  0  0  0
   -1.1140   -0.7560   -0.0150 C   0  0  0  0  0  0  0  0  0  0  0  0
    0.2910   -0.6260    0.3090 N   0  0  2  0  0  0  0  0  0  0  0  0
    0.6230   -1.7310    1.2040 C   0  0  0  0  0  0  0  0  0  0  0  0
    0.8330   -2.9550    0.4350 C   0  0  0  0  0  0  0  0  0  0  0  0
    1.8110   -3.7370    0.2360 C   0  0  0  0  0  0  0  0  0  0  0  0
    3.1800   -3.7610    0.6770 C   0  0  0  0  0  0  0  0  0  0  0  0
    3.7920   -5.0400    0.7890 C   0  0  0  0  0  0  0  0  0  0  0  0
    5.0990   -5.1840    1.1130 C   0  0  0  0  0  0  0  0  0  0  0  0
    5.8360   -4.0730    1.3340 N   0  0  0  0  0  0  0  0  0  0  0  0
    5.3130   -2.8640    1.2410 C   0  0  0  0  0  0  0  0  0  0  0  0
    3.9510   -2.6650    0.9030 C   0  0  0  0  0  0  0  0  0  0  0  0
    3.5590   -1.4080    0.8280 O   0  0  0  0  0  0  0  0  0  0  0  0
    0.4940    0.6430    0.9420 C   0  0  0  0  0  0  0  0  0  0  0  0
    1.0990    1.6700    0.0680 C   0  0  0  0  0  0  0  0  0  0  0  0
    1.4810    1.5860   -1.1360 N   0  0  0  0  0  0  0  0  0  0  0  0
    2.0080    2.7800   -1.6320 N   0  0  0  0  0  0  0  0  0  0  0  0
    1.9240    3.7150   -0.5570 C   0  0  0  0  0  0  0  0  0  0  0  0
    2.3150    4.9530   -0.6130 N   0  0  0  0  0  0  0  0  0  0  0  0
    2.2310    5.9040    0.4740 C   0  0  0  0  0  0  0  0  0  0  0  0
    1.3720    5.8530    1.4820 C   0  0  0  0  0  0  0  0  0  0  0  0
    0.3250    4.8100    1.6950 C   0  0  0  0  0  0  0  0  0  0  0  0
    1.0510    3.5050    1.8490 C   0  0  0  0  0  0  0  0  0  0  0  0
    1.3470    3.0020    0.5140 N   0  0  0  0  0  0  0  0  0  0  0  0
   -3.7980    0.5780   -1.1180 C   0  0  0  0  0  0  0  0  0  0  0  0
   -5.1660    0.4030   -1.2830 C   0  0  0  0  0  0  0  0  0  0  0  0
  1  2  1  0
  2  3  2  0
  2 31  1  0
  3  4  1  0
  4  5  2  0
  5  6  1  0
  5 30  1  0
  6  7  1  0
  8  7  1  1
  8  9  1  0
  8 19  1  0
  9 10  1  0
 10 11  2  3
 11 12  1  0
 12 13  2  0
 12 17  1  0
 13 14  1  0
 14 15  2  0
 15 16  1  0
 16 17  2  0
 17 18  1  0
 19 20  1  0
 20 21  2  0
 20 29  1  0
 21 22  1  0
 22 23  1  0
 23 24  2  0
 23 29  1  0
 24 25  1  0
 25 26  2  0
 26 27  1  0
 27 28  1  0
 28 29  1  0
 30 31  2  0
M  CHG  1   8   1
M  END
