
     RDKit          3D

 30 33  0  0  0  0  0  0  0  0999 V2000
   -6.2400    1.0280    0.4490 C   0  0  0  0  0  0  0  0  0  0  0  0
   -4.7850    0.7670    0.3100 C   0  0  0  0  0  0  0  0  0  0  0  0
   -4.3340   -0.3090    0.9480 C   0  0  0  0  0  0  0  0  0  0  0  0
   -2.9220   -0.7320    0.9280 C   0  0  0  0  0  0  0  0  0  0  0  0
   -2.4810   -1.3380    1.9960 C   0  0  0  0  0  0  0  0  0  0  0  0
   -3.4170   -1.5660    3.1560 C   0  0  1  0  0  0  0  0  0  0  0  0
   -4.2310   -2.6300    2.8150 F   0  0  0  0  0  0  0  0  0  0  0  0
   -2.7080   -1.8640    4.3090 F   0  0  0  0  0  0  0  0  0  0  0  0
   -1.9610   -0.5550   -0.1900 C   0  0  0  0  0  0  0  0  0  0  0  0
   -1.0840   -1.5210   -0.3420 C   0  0  0  0  0  0  0  0  0  0  0  0
   -0.0690   -1.5160   -1.3800 C   0  0  0  0  0  0  0  0  0  0  0  0
    1.2790   -1.5440   -0.9010 N   0  0  0  0  0  0  0  0  0  0  0  0
    1.7110   -2.7280   -0.2610 C   0  0  0  0  0  0  0  0  0  0  0  0
    3.2450   -2.7410   -0.3480 C   0  0  0  0  0  0  0  0  0  0  0  0
    3.7220   -1.6440    0.5600 C   0  0  0  0  0  0  0  0  0  0  0  0
    2.9540   -0.3760    0.4770 C   0  0  1  0  0  0  0  0  0  0  0  0
    3.9400    0.7120    0.1610 C   0  0  0  0  0  0  0  0  0  0  0  0
    4.2610    1.7670    0.9250 N   0  0  0  0  0  0  0  0  0  0  0  0
    5.1840    2.5310    0.3160 C   0  0  0  0  0  0  0  0  0  0  0  0
    5.7970    3.6740    0.6960 N   0  0  0  0  0  0  0  0  0  0  0  0
    6.6950    4.2360   -0.1200 C   0  0  0  0  0  0  0  0  0  0  0  0
    6.9730    3.6570   -1.3020 N   0  0  0  0  0  0  0  0  0  0  0  0
    6.3720    2.5240   -1.6900 N   0  0  0  0  0  0  0  0  0  0  0  0
    5.4550    1.9290   -0.8840 C   0  0  0  0  0  0  0  0  0  0  0  0
    4.6910    0.8350   -0.9480 N   0  0  0  0  0  0  0  0  0  0  0  0
    1.8670   -0.3220   -0.5290 C   0  0  0  0  0  0  0  0  0  0  0  0
   -1.9830    0.5560   -1.0730 N   0  0  1  0  0  0  0  0  0  0  0  0
   -2.6550    0.0980   -2.2770 C   0  0  0  0  0  0  0  0  0  0  0  0
   -2.6100    1.6750   -0.4680 C   0  0  0  0  0  0  0  0  0  0  0  0
   -4.0860    1.7790   -0.5270 C   0  0  0  0  0  0  0  0  0  0  0  0
  1  2  1  0
  2  3  2  0
  2 30  1  0
  3  4  1  0
  4  5  2  3
  4  9  1  0
  5  6  1  0
  6  7  1  6
  6  8  1  0
  9 10  2  3
  9 27  1  0
 10 11  1  0
 11 12  1  0
 12 13  1  0
 12 26  1  0
 13 14  1  0
 14 15  1  0
 15 16  1  0
 16 17  1  6
 16 26  1  0
 17 18  2  0
 17 25  1  0
 18 19  1  0
 19 20  2  0
 19 24  1  0
 20 21  1  0
 21 22  2  0
 22 23  1  0
 23 24  2  0
 24 25  1  0
 27 28  1  6
 27 29  1  0
 29 30  1  0
M  CHG  1  27   1
M  END
