
     RDKit          3D

 18 21  0  0  0  0  0  0  0  0999 V2000
   -3.9710   -2.3220    0.6330 C   0  0  0  0  0  0  0  0  0  0  0  0
   -3.3590   -0.9680    0.3850 C   0  0  0  0  0  0  0  0  0  0  0  0
   -3.9880   -0.1690   -0.4420 C   0  0  0  0  0  0  0  0  0  0  0  0
   -3.4590    1.1700   -0.7400 C   0  0  0  0  0  0  0  0  0  0  0  0
   -2.2030    1.5580   -0.0690 C   0  0  0  0  0  0  0  0  0  0  0  0
   -1.5970    0.5790    0.8300 C   0  0  0  0  0  0  0  0  0  0  0  0
   -0.3300    0.9630    1.5110 C   0  0  0  0  0  0  0  0  0  0  0  0
    0.7220    1.2610    0.5370 N   0  0  0  0  0  0  0  0  0  0  0  0
    0.9960    2.4460   -0.0110 C   0  0  0  0  0  0  0  0  0  0  0  0
    2.0320    2.2770   -0.8460 N   0  0  0  0  0  0  0  0  0  0  0  0
    2.4210    0.9940   -0.8350 C   0  0  0  0  0  0  0  0  0  0  0  0
    1.5780    0.3620    0.0480 C   0  0  0  0  0  0  0  0  0  0  0  0
    2.0010   -1.0580    0.0700 C   0  0  2  0  0  0  0  0  0  0  0  0
    3.3660   -1.0960    0.7160 C   0  0  0  0  0  0  0  0  0  0  0  0
    4.3140   -0.4670   -0.3130 C   0  0  0  0  0  0  0  0  0  0  0  0
    3.3800   -0.0330   -1.3800 C   0  0  1  0  0  0  0  0  0  0  0  0
    2.4160   -1.2360   -1.4020 C   0  0  0  0  0  0  0  0  0  0  0  0
   -2.1640   -0.5610    1.0050 N   0  0  0  0  0  0  0  0  0  0  0  0
  1  2  1  0
  2  3  2  0
  2 18  1  0
  3  4  1  0
  4  5  1  0
  5  6  1  0
  6  7  1  0
  6 18  2  0
  7  8  1  0
  8  9  1  0
  8 12  1  0
  9 10  2  0
 10 11  1  0
 11 12  2  0
 11 16  1  0
 12 13  1  0
 13 14  1  1
 13 17  1  0
 14 15  1  0
 16 15  1  1
 16 17  1  0
M  END
