
     RDKit          3D

 18 20  0  0  0  0  0  0  0  0999 V2000
   -3.1230    2.9770    1.3770 C   0  0  0  0  0  0  0  0  0  0  0  0
   -2.2900    1.8390    1.0360 N   0  0  0  0  0  0  0  0  0  0  0  0
   -1.4150    1.8820    0.1170 N   0  0  0  0  0  0  0  0  0  0  0  0
   -0.6660    0.6880   -0.1120 C   0  0  0  0  0  0  0  0  0  0  0  0
    0.6710    0.8120   -0.1070 C   0  0  0  0  0  0  0  0  0  0  0  0
    1.6680   -0.2290   -0.3120 C   0  0  0  0  0  0  0  0  0  0  0  0
    3.0680    0.0770    0.0570 C   0  0  0  0  0  0  0  0  0  0  0  0
    3.4920    1.2140    0.5570 C   0  0  0  0  0  0  0  0  0  0  0  0
    4.9490    1.1350    0.7930 C   0  0  0  0  0  0  0  0  0  0  0  0
    5.3110   -0.2310    0.3500 C   0  0  0  0  0  0  0  0  0  0  0  0
    4.2000   -0.8380   -0.0780 C   0  0  0  0  0  0  0  0  0  0  0  0
    1.4090   -1.4300   -0.8050 C   0  0  0  0  0  0  0  0  0  0  0  0
    0.1240   -2.0370   -1.2640 C   0  0  0  0  0  0  0  0  0  0  0  0
   -0.9730   -1.8290   -0.2400 C   0  0  0  0  0  0  0  0  0  0  0  0
   -1.4640   -0.4820   -0.3190 N   0  0  0  0  0  0  0  0  0  0  0  0
   -2.8580   -0.2450   -0.6280 C   0  0  2  0  0  0  0  0  0  0  0  0
   -3.9150   -0.7940    0.2750 C   0  0  0  0  0  0  0  0  0  0  0  0
   -3.7410   -1.2760   -1.1680 C   0  0  0  0  0  0  0  0  0  0  0  0
  1  2  1  0
  2  3  2  3
  3  4  1  0
  4  5  2  0
  4 15  1  0
  5  6  1  0
  6  7  1  0
  6 12  2  0
  7  8  2  0
  7 11  1  0
  8  9  1  0
  9 10  1  0
 10 11  2  0
 12 13  1  0
 13 14  1  0
 14 15  1  0
 16 15  1  1
 16 17  1  0
 16 18  1  0
 17 18  1  0
M  END
