
     RDKit          3D

 18 20  0  0  0  0  0  0  0  0999 V2000
   -1.0220    2.7260    1.6290 C   0  0  0  0  0  0  0  0  0  0  0  0
   -1.3910    2.4400    0.1220 C   0  0  0  0  0  0  0  0  0  0  0  0
   -0.5280    1.3580   -0.1320 N   0  0  0  0  0  0  0  0  0  0  0  0
    0.8970    1.5450   -0.0980 C   0  0  0  0  0  0  0  0  0  0  0  0
    1.8350    0.6410    0.1090 C   0  0  0  0  0  0  0  0  0  0  0  0
    3.1590    1.2670    0.0590 C   0  0  0  0  0  0  0  0  0  0  0  0
    4.2920    0.3400   -0.1950 C   0  0  0  0  0  0  0  0  0  0  0  0
    3.9430   -1.1100   -0.2850 C   0  0  0  0  0  0  0  0  0  0  0  0
    2.9160   -1.5210    0.7790 C   0  0  0  0  0  0  0  0  0  0  0  0
    1.6650   -0.8080    0.3660 C   0  0  0  0  0  0  0  0  0  0  0  0
    0.6420   -1.5780    0.2970 N   0  0  0  0  0  0  0  0  0  0  0  0
   -0.6530   -1.2050   -0.0650 N   0  0  0  0  0  0  0  0  0  0  0  0
   -1.4630   -2.4000   -0.0390 C   0  0  0  0  0  0  0  0  0  0  0  0
   -2.8560   -2.0400    0.3040 C   0  0  0  0  0  0  0  0  0  0  0  0
   -3.7350   -1.4620   -0.7060 C   0  0  0  0  0  0  0  0  0  0  0  0
   -3.2400   -0.4330   -1.6380 C   0  0  0  0  0  0  0  0  0  0  0  0
   -2.2210    0.4700   -1.0900 C   0  0  0  0  0  0  0  0  0  0  0  0
   -1.1440    0.1090   -0.4180 C   0  0  0  0  0  0  0  0  0  0  0  0
  1  2  1  0
  2  3  1  0
  3  4  1  0
  3 18  1  0
  4  5  2  0
  5  6  1  0
  5 10  1  0
  6  7  1  0
  7  8  1  0
  8  9  1  0
  9 10  1  0
 10 11  2  0
 11 12  1  0
 12 13  1  0
 12 18  1  0
 13 14  1  0
 14 15  1  0
 15 16  1  0
 16 17  1  0
 17 18  2  0
M  END
