
     RDKit          3D

 18 21  0  0  0  0  0  0  0  0999 V2000
    1.3570    0.3210   -0.9300 C   0  0  0  0  0  0  0  0  0  0  0  0
    2.6590    0.2920   -0.8040 C   0  0  0  0  0  0  0  0  0  0  0  0
    3.9980    0.3650   -1.4000 C   0  0  0  0  0  0  0  0  0  0  0  0
    4.6530   -0.8700   -0.7710 C   0  0  0  0  0  0  0  0  0  0  0  0
    4.1320   -0.8020    0.6540 C   0  0  0  0  0  0  0  0  0  0  0  0
    2.9570    0.1170    0.6690 C   0  0  2  0  0  0  0  0  0  0  0  0
    1.6920   -0.4360    1.2350 C   0  0  0  0  0  0  0  0  0  0  0  0
    0.6950    0.1490    0.3020 N   0  0  0  0  0  0  0  0  0  0  0  0
   -0.6380    0.5050    0.6800 C   0  0  0  0  0  0  0  0  0  0  0  0
   -1.5220    0.7880   -0.4610 C   0  0  1  0  0  0  0  0  0  0  0  0
   -1.8010   -0.3390   -1.4090 C   0  0  0  0  0  0  0  0  0  0  0  0
   -2.4650   -1.5100   -0.7110 C   0  0  0  0  0  0  0  0  0  0  0  0
   -3.5170   -1.1300    0.2450 C   0  0  0  0  0  0  0  0  0  0  0  0
   -3.7460    0.3170    0.3550 C   0  0  0  0  0  0  0  0  0  0  0  0
   -4.9050    0.9980    0.8000 C   0  0  0  0  0  0  0  0  0  0  0  0
   -4.5930    2.2970    0.7200 N   0  0  0  0  0  0  0  0  0  0  0  0
   -3.3500    2.4440    0.2660 C   0  0  0  0  0  0  0  0  0  0  0  0
   -2.8210    1.2190    0.0400 N   0  0  0  0  0  0  0  0  0  0  0  0
  1  2  2  0
  1  8  1  0
  2  3  1  0
  2  6  1  0
  3  4  1  0
  4  5  1  0
  6  5  1  6
  6  7  1  0
  7  8  1  0
  8  9  1  0
 10  9  1  1
 10 11  1  0
 10 18  1  0
 11 12  1  0
 12 13  1  0
 13 14  1  0
 14 15  2  0
 14 18  1  0
 15 16  1  0
 16 17  2  0
 17 18  1  0
M  END
