
     RDKit          3D

 18 20  0  0  0  0  0  0  0  0999 V2000
   -5.2720    0.4110    0.1010 C   0  0  0  0  0  0  0  0  0  0  0  0
   -4.2320   -0.4790   -0.5490 C   0  0  2  0  0  0  0  0  0  0  0  0
   -3.3660   -1.1690    0.4710 C   0  0  0  0  0  0  0  0  0  0  0  0
   -2.3580   -0.2320    1.1050 C   0  0  0  0  0  0  0  0  0  0  0  0
   -1.5990    0.4920    0.1290 N   0  0  0  0  0  0  0  0  0  0  0  0
   -0.1950    0.5670    0.4380 C   0  0  1  0  0  0  0  0  0  0  0  0
    0.4680   -0.7860    0.4690 C   0  0  0  0  0  0  0  0  0  0  0  0
    1.6690   -0.7630   -0.4860 C   0  0  0  0  0  0  0  0  0  0  0  0
    2.5190    0.3060   -0.0250 N   0  0  0  0  0  0  0  0  0  0  0  0
    3.8870    0.0360    0.3040 C   0  0  0  0  0  0  0  0  0  0  0  0
    4.6970    0.7810    0.9610 N   0  0  0  0  0  0  0  0  0  0  0  0
    5.9960    0.1610    1.0870 C   0  0  0  0  0  0  0  0  0  0  0  0
    5.8730   -1.1380    0.3840 C   0  0  0  0  0  0  0  0  0  0  0  0
    4.6340   -1.1720   -0.0570 C   0  0  0  0  0  0  0  0  0  0  0  0
    1.9730    1.6340    0.0980 C   0  0  0  0  0  0  0  0  0  0  0  0
    0.5410    1.5530   -0.4000 C   0  0  0  0  0  0  0  0  0  0  0  0
   -1.8980    0.1270   -1.2200 C   0  0  0  0  0  0  0  0  0  0  0  0
   -3.3760    0.3720   -1.4550 C   0  0  0  0  0  0  0  0  0  0  0  0
  2  1  1  1
  2  3  1  0
  2 18  1  0
  3  4  1  0
  4  5  1  0
  6  5  1  6
  5 17  1  0
  6  7  1  0
  6 16  1  0
  7  8  1  0
  8  9  1  0
  9 10  1  0
  9 15  1  0
 10 11  2  0
 10 14  1  0
 11 12  1  0
 12 13  1  0
 13 14  2  0
 15 16  1  0
 17 18  1  0
M  END
