
     RDKit          3D

 13 14  0  0  0  0  0  0  0  0999 V2000
    2.7200    2.3330   -1.5640 O   0  0  0  0  0  0  0  0  0  0  0  0
    2.2320    1.3830   -0.8790 C   0  0  0  0  0  0  0  0  0  0  0  0
    0.8700    1.1570   -0.8120 C   0  0  0  0  0  0  0  0  0  0  0  0
    0.3820    0.1140   -0.0570 C   0  0  0  0  0  0  0  0  0  0  0  0
   -1.0520   -0.1720    0.0490 C   0  0  0  0  0  0  0  0  0  0  0  0
   -1.6360   -1.1880    0.7770 C   0  0  0  0  0  0  0  0  0  0  0  0
   -3.0040   -1.1500    0.6430 C   0  0  0  0  0  0  0  0  0  0  0  0
   -3.2520   -0.0690   -0.1980 C   0  0  0  0  0  0  0  0  0  0  0  0
   -2.0710    0.4850   -0.5280 N   0  0  0  0  0  0  0  0  0  0  0  0
    1.2770   -0.6480    0.5910 N   0  0  0  0  0  0  0  0  0  0  0  0
    2.6030   -0.4390    0.5340 C   0  0  0  0  0  0  0  0  0  0  0  0
    3.6620   -1.3860    1.3350 S   0  0  0  0  0  0  0  0  0  0  0  0
    3.0690    0.5810   -0.2050 N   0  0  0  0  0  0  0  0  0  0  0  0
  1  2  2  0
  2  3  1  0
  2 13  1  0
  3  4  2  0
  4  5  1  0
  4 10  1  0
  5  6  2  0
  5  9  1  0
  6  7  1  0
  7  8  2  0
  8  9  1  0
 10 11  1  0
 11 12  2  0
 11 13  1  0
M  END
