
     RDKit          3D

 18 20  0  0  0  0  0  0  0  0999 V2000
   -3.3470   -1.5530    1.8240 C   0  0  0  0  0  0  0  0  0  0  0  0
   -2.1850   -2.4690    1.4670 C   0  0  0  0  0  0  0  0  0  0  0  0
   -1.7090   -2.3310    0.1730 N   0  0  0  0  0  0  0  0  0  0  0  0
   -2.5670   -2.7800   -0.8670 C   0  0  0  0  0  0  0  0  0  0  0  0
   -0.8350   -1.2380   -0.1650 C   0  0  2  0  0  0  0  0  0  0  0  0
    0.2950   -1.7990   -1.0320 C   0  0  0  0  0  0  0  0  0  0  0  0
    1.3360   -0.8050   -1.4010 C   0  0  0  0  0  0  0  0  0  0  0  0
    1.3650    0.3450   -0.4310 C   0  0  0  0  0  0  0  0  0  0  0  0
    1.7820    1.4800   -0.9040 C   0  0  0  0  0  0  0  0  0  0  0  0
    1.8480    2.6810   -0.0630 C   0  0  0  0  0  0  0  0  0  0  0  0
    2.2260    3.9370   -0.2220 C   0  0  0  0  0  0  0  0  0  0  0  0
    2.7590    4.5120   -1.4980 C   0  0  0  0  0  0  0  0  0  0  0  0
    2.0480    4.5920    1.0260 N   0  0  0  0  0  0  0  0  0  0  0  0
    1.5910    3.7990    1.9110 N   0  0  0  0  0  0  0  0  0  0  0  0
    1.4170    2.4970    1.3070 C   0  0  0  0  0  0  0  0  0  0  0  0
    1.0100    1.3340    1.7780 C   0  0  0  0  0  0  0  0  0  0  0  0
    0.9730    0.1260    0.9560 C   0  0  1  0  0  0  0  0  0  0  0  0
   -0.1910   -0.7790    1.1400 C   0  0  0  0  0  0  0  0  0  0  0  0
  1  2  1  0
  2  3  1  0
  3  4  1  0
  5  3  1  1
  5  6  1  0
  5 18  1  0
  6  7  1  0
  7  8  1  0
  8  9  2  0
  8 17  1  0
  9 10  1  0
 10 11  2  0
 10 15  1  0
 11 12  1  0
 11 13  1  0
 13 14  2  0
 14 15  1  0
 15 16  2  0
 16 17  1  0
 17 18  1  6
M  END
