
     RDKit          3D

 12 12  0  0  0  0  0  0  0  0999 V2000
    3.1390    0.7210   -0.0290 O   0  0  0  0  0  0  0  0  0  0  0  0
    2.0940    0.0190   -0.0450 C   0  0  0  0  0  0  0  0  0  0  0  0
    2.2500   -1.3470   -0.0140 O   0  0  0  0  0  0  0  0  0  0  0  0
    0.8240    0.7290   -0.0940 C   0  0  0  0  0  0  0  0  0  0  0  0
    0.6900    2.5320   -0.1160 S   0  0  0  0  0  0  0  0  0  0  0  0
   -1.0990    2.5180   -0.1630 C   0  0  0  0  0  0  0  0  0  0  0  0
   -2.0370    3.8760   -0.2010 S   0  0  0  0  0  0  0  0  0  0  0  0
   -1.4020    1.2690   -0.1590 N   0  0  0  0  0  0  0  0  0  0  0  0
   -0.4770    0.3320   -0.1260 C   0  0  0  0  0  0  0  0  0  0  0  0
   -0.8050   -1.1640   -0.1400 C   0  0  1  0  0  0  0  0  0  0  0  0
   -0.0360   -1.8270   -1.0450 O   0  0  0  0  0  0  0  0  0  0  0  0
   -0.5770   -1.6180    1.1780 O   0  0  0  0  0  0  0  0  0  0  0  0
  1  2  2  0
  2  3  1  0
  2  4  1  0
  4  5  1  0
  4  9  2  0
  5  6  1  0
  6  7  2  0
  6  8  1  0
  8  9  1  0
  9 10  1  0
 10 11  1  6
 10 12  1  0
M  END
