
     RDKit          3D

 23 25  0  0  0  0  0  0  0  0999 V2000
    7.9510    0.1410   -0.3200 C   0  0  0  0  0  0  0  0  0  0  0  0
    7.2270    1.2310    0.4640 C   0  0  0  0  0  0  0  0  0  0  0  0
    6.1160    0.4330    1.6370 S   0  0  0  0  0  0  0  0  0  0  0  0
    4.7990   -0.4460    0.7180 C   0  0  0  0  0  0  0  0  0  0  0  0
    3.9700    0.6220    0.0240 C   0  0  0  0  0  0  0  0  0  0  0  0
    2.8920    0.0610   -0.7410 N   0  0  0  0  0  0  0  0  0  0  0  0
    2.9150   -0.3170   -2.0230 C   0  0  0  0  0  0  0  0  0  0  0  0
    1.7160   -0.7830   -2.3430 N   0  0  0  0  0  0  0  0  0  0  0  0
    0.8890   -0.7110   -1.2550 C   0  0  0  0  0  0  0  0  0  0  0  0
   -0.4290   -1.1350   -1.3150 N   0  0  0  0  0  0  0  0  0  0  0  0
   -1.4120   -1.1600   -0.3400 N   0  0  0  0  0  0  0  0  0  0  0  0
   -2.4950   -0.2380   -0.2950 C   0  0  0  0  0  0  0  0  0  0  0  0
   -2.4170    1.0550   -0.0480 C   0  0  0  0  0  0  0  0  0  0  0  0
   -3.7640    1.6830   -0.0880 C   0  0  0  0  0  0  0  0  0  0  0  0
   -4.6280    0.6720   -0.7960 C   0  0  2  0  0  0  0  0  0  0  0  0
   -5.9870    0.4950   -0.2080 C   0  0  0  0  0  0  0  0  0  0  0  0
   -6.0750   -0.9780    0.2110 C   0  0  0  0  0  0  0  0  0  0  0  0
   -4.6140   -1.2100    0.6240 C   0  0  2  0  0  0  0  0  0  0  0  0
   -4.4270   -0.5380    1.8720 N   0  0  0  0  0  0  0  0  0  0  0  0
   -3.8880   -0.6200   -0.5330 C   0  0  2  0  0  0  0  0  0  0  0  0
    1.6370   -0.1790   -0.2540 C   0  0  0  0  0  0  0  0  0  0  0  0
    1.2440    0.1120    1.1080 C   0  0  0  0  0  0  0  0  0  0  0  0
    0.1160   -0.0970    1.5540 O   0  0  0  0  0  0  0  0  0  0  0  0
  1  2  1  0
  2  3  1  0
  3  4  1  0
  4  5  1  0
  5  6  1  0
  6  7  1  0
  6 21  1  0
  7  8  2  0
  8  9  1  0
  9 10  1  0
  9 21  2  0
 10 11  1  0
 11 12  1  0
 12 13  2  0
 20 12  1  1
 13 14  1  0
 15 14  1  1
 15 16  1  0
 15 20  1  0
 16 17  1  0
 17 18  1  0
 18 19  1  1
 18 20  1  0
 21 22  1  0
 22 23  2  0
M  CHG  1  19   1
M  END
