
     RDKit          3D

 16 16  0  0  0  0  0  0  0  0999 V2000
   -3.7260    2.1410   -0.8540 C   0  0  0  0  0  0  0  0  0  0  0  0
   -2.3880    1.5200   -0.5630 C   0  0  0  0  0  0  0  0  0  0  0  0
   -1.2480    2.2320   -0.5630 N   0  0  0  0  0  0  0  0  0  0  0  0
   -0.0570    1.6560   -0.3000 C   0  0  0  0  0  0  0  0  0  0  0  0
    0.0710    0.3260   -0.0190 C   0  0  0  0  0  0  0  0  0  0  0  0
    1.3830   -0.2810    0.2650 C   0  0  0  0  0  0  0  0  0  0  0  0
    2.3290    0.7260    0.1810 O   0  0  0  0  0  0  0  0  0  0  0  0
    3.8150    0.3870    0.4270 P   0  0  0  0  0  0  0  0  0  0  0  0
    3.6710   -0.5930   -0.9310 O   0  0  0  0  0  0  0  0  0  0  0  0
    4.1950    1.9790    0.2260 O   0  0  0  0  0  0  0  0  0  0  0  0
    5.2730    0.0180    0.5150 O   0  0  0  0  0  0  0  0  0  0  0  0
   -1.0980   -0.4390   -0.0130 C   0  0  0  0  0  0  0  0  0  0  0  0
   -0.9530   -1.8570    0.2880 C   0  0  0  0  0  0  0  0  0  0  0  0
   -2.1810   -2.6210    0.2870 N   0  0  0  0  0  0  0  0  0  0  0  0
   -2.2910    0.1720   -0.2830 C   0  0  0  0  0  0  0  0  0  0  0  0
   -3.4880   -0.5470   -0.2890 O   0  0  0  0  0  0  0  0  0  0  0  0
  1  2  1  0
  2  3  2  0
  2 15  1  0
  3  4  1  0
  4  5  2  0
  5  6  1  0
  5 12  1  0
  6  7  1  0
  7  8  1  0
  8  9  1  0
  8 10  1  0
  8 11  1  0
 12 13  1  0
 12 15  2  0
 13 14  1  0
 15 16  1  0
M  CHG  1  14   1
M  END
