
     RDKit          3D

 22 23  0  0  0  0  0  0  0  0999 V2000
   -1.7660    4.3040    0.4050 C   0  0  0  0  0  0  0  0  0  0  0  0
   -2.2030    3.1510    1.0740 O   0  0  0  0  0  0  0  0  0  0  0  0
   -2.0540    2.1110    0.2480 O   0  0  0  0  0  0  0  0  0  0  0  0
   -0.7960    1.6210   -0.0760 C   0  0  0  0  0  0  0  0  0  0  0  0
   -0.5710    0.3250    0.2640 C   0  0  0  0  0  0  0  0  0  0  0  0
   -1.7180   -0.3280    0.9260 C   0  0  0  0  0  0  0  0  0  0  0  0
   -2.2290   -1.4780    0.2690 N   0  0  0  0  0  0  0  0  0  0  0  0
   -3.2310   -1.3350   -0.7950 C   0  0  0  0  0  0  0  0  0  0  0  0
   -2.6350   -1.2020   -2.0400 O   0  0  0  0  0  0  0  0  0  0  0  0
   -1.8020   -2.7810    0.6050 C   0  0  0  0  0  0  0  0  0  0  0  0
   -0.9750   -2.9350    1.5320 O   0  0  0  0  0  0  0  0  0  0  0  0
   -2.2790   -3.9070   -0.0720 O   0  0  0  0  0  0  0  0  0  0  0  0
    0.6870   -0.3600   -0.0180 C   0  0  0  0  0  0  0  0  0  0  0  0
    1.8030    0.0020    0.8180 N   0  0  0  0  0  0  0  0  0  0  0  0
    2.3340   -1.0670    1.3410 O   0  0  0  0  0  0  0  0  0  0  0  0
    3.9660   -1.3850    1.0190 P   0  0  0  0  0  0  0  0  0  0  0  0
    4.2000   -2.8910    0.1460 O   0  0  0  0  0  0  0  0  0  0  0  0
    4.7440   -0.1580    0.0680 O   0  0  0  0  0  0  0  0  0  0  0  0
    3.7030    0.3970   -0.7120 C   0  0  0  0  0  0  0  0  0  0  0  0
    2.7010    0.9470    0.2310 C   0  0  1  0  0  0  0  0  0  0  0  0
    1.8010    2.2920   -0.6810 P   0  0  0  0  0  0  0  0  0  0  0  0
    0.1560    2.4610   -0.7200 N   0  0  0  0  0  0  0  0  0  0  0  0
  1  2  1  0
  2  3  1  0
  3  4  1  0
  4  5  2  0
  4 22  1  0
  5  6  1  0
  5 13  1  0
  6  7  1  0
  7  8  1  0
  7 10  1  0
  8  9  1  0
 10 11  2  0
 10 12  1  0
 13 14  1  0
 14 15  1  0
 14 20  1  0
 15 16  1  0
 16 17  1  0
 16 18  1  0
 18 19  1  0
 20 19  1  6
 20 21  1  0
 21 22  2  0
M  END
