
     RDKit          3D

 21 22  0  0  0  0  0  0  0  0999 V2000
    1.7270    2.4970    1.8120 C   0  0  0  0  0  0  0  0  0  0  0  0
    1.7580    1.6180    0.6420 C   0  0  0  0  0  0  0  0  0  0  0  0
    2.9170    1.5000   -0.0220 C   0  0  0  0  0  0  0  0  0  0  0  0
    4.3540    2.3810    0.5080 Cl  0  0  0  0  0  0  0  0  0  0  0  0
    0.6060    0.8790    0.2030 C   0  0  0  0  0  0  0  0  0  0  0  0
   -0.5610    0.9700    0.7970 C   0  0  0  0  0  0  0  0  0  0  0  0
   -0.7850    1.7920    1.9030 N   0  0  0  0  0  0  0  0  0  0  0  0
   -1.6410    0.1800    0.2660 N   0  0  0  0  0  0  0  0  0  0  0  0
   -2.8960    0.6040   -0.2300 C   0  0  0  0  0  0  0  0  0  0  0  0
   -3.2780    1.6470   -0.8480 N   0  0  0  0  0  0  0  0  0  0  0  0
   -3.4530   -0.6720    0.2980 C   0  0  0  0  0  0  0  0  0  0  0  0
   -2.0320   -1.1600   -0.0190 C   0  0  2  0  0  0  0  0  0  0  0  0
   -1.5690   -2.2210    0.9450 C   0  0  0  0  0  0  0  0  0  0  0  0
    0.7500    0.0130   -0.9830 C   0  0  0  0  0  0  0  0  0  0  0  0
    0.1130    0.1510   -2.1410 N   0  0  0  0  0  0  0  0  0  0  0  0
    0.4660   -0.8410   -2.9670 N   0  0  0  0  0  0  0  0  0  0  0  0
    1.3210   -1.5890   -2.3120 N   0  0  0  0  0  0  0  0  0  0  0  0
    1.5400   -1.1030   -1.0520 C   0  0  0  0  0  0  0  0  0  0  0  0
    2.3890   -1.7580   -0.0990 C   0  0  0  0  0  0  0  0  0  0  0  0
    3.2030   -2.8510   -0.4820 N   0  0  0  0  0  0  0  0  0  0  0  0
    2.4410   -1.3930    1.0940 O   0  0  0  0  0  0  0  0  0  0  0  0
  1  2  1  0
  2  3  2  3
  2  5  1  0
  3  4  1  0
  5  6  2  3
  5 14  1  0
  6  7  1  0
  6  8  1  0
  8  9  1  0
  8 12  1  0
  9 10  2  0
  9 11  1  0
 11 12  1  0
 12 13  1  1
 14 15  2  0
 14 18  1  0
 15 16  1  0
 16 17  1  0
 17 18  2  0
 18 19  1  0
 19 20  1  0
 19 21  2  0
M  CHG  1  10   1
M  END
