
     RDKit          3D

 25 26  0  0  0  0  0  0  0  0999 V2000
    7.8290    1.1080    0.1220 N   0  0  0  0  0  0  0  0  0  0  0  0
    6.4600    0.7110   -0.0650 C   0  0  0  0  0  0  0  0  0  0  0  0
    5.9460    0.8490   -1.1960 O   0  0  0  0  0  0  0  0  0  0  0  0
    5.7220    0.1600    1.0860 C   0  0  0  0  0  0  0  0  0  0  0  0
    4.3830   -0.1140    0.7070 O   0  0  0  0  0  0  0  0  0  0  0  0
    3.5450    0.8760    0.2540 C   0  0  0  0  0  0  0  0  0  0  0  0
    4.0850    2.0460    0.2050 O   0  0  0  0  0  0  0  0  0  0  0  0
    2.1710    0.7420   -0.1570 C   0  0  0  0  0  0  0  0  0  0  0  0
    1.5230   -0.3920   -0.1390 C   0  0  0  0  0  0  0  0  0  0  0  0
    2.0380   -1.7130    0.2840 C   0  0  0  0  0  0  0  0  0  0  0  0
    1.9430   -2.6780   -0.7230 O   0  0  0  0  0  0  0  0  0  0  0  0
    0.9070   -2.4230   -1.5850 C   0  0  0  0  0  0  0  0  0  0  0  0
   -0.2920   -1.8310   -0.8040 C   0  0  0  0  0  0  0  0  0  0  0  0
    0.1230   -0.4680   -0.5610 N   0  0  0  0  0  0  0  0  0  0  0  0
   -0.6750    0.6900   -0.6720 C   0  0  0  0  0  0  0  0  0  0  0  0
   -1.7200    0.9060    0.3640 C   0  0  1  0  0  0  0  0  0  0  0  0
   -2.3670    2.1450    0.1530 O   0  0  0  0  0  0  0  0  0  0  0  0
   -2.7740   -0.1800    0.3580 C   0  0  2  0  0  0  0  0  0  0  0  0
   -3.5990   -0.0640   -0.9120 C   0  0  0  0  0  0  0  0  0  0  0  0
   -5.0190   -0.5060   -0.7540 C   0  0  0  0  0  0  0  0  0  0  0  0
   -5.9350    0.7270   -0.6720 C   0  0  0  0  0  0  0  0  0  0  0  0
   -5.5120    1.4830    0.4720 O   0  0  0  0  0  0  0  0  0  0  0  0
   -4.7200    1.0380    1.5300 C   0  0  0  0  0  0  0  0  0  0  0  0
   -5.0280    1.5480    2.6550 O   0  0  0  0  0  0  0  0  0  0  0  0
   -3.6620    0.1230    1.4860 N   0  0  0  0  0  0  0  0  0  0  0  0
  1  2  1  0
  2  3  2  0
  2  4  1  0
  4  5  1  0
  5  6  1  0
  6  7  2  0
  6  8  1  0
  8  9  2  3
  9 10  1  0
  9 14  1  0
 10 11  1  0
 11 12  1  0
 12 13  1  0
 13 14  1  0
 14 15  1  0
 15 16  1  0
 16 17  1  6
 16 18  1  0
 18 19  1  6
 18 25  1  0
 19 20  1  0
 20 21  1  0
 21 22  1  0
 22 23  1  0
 23 24  2  0
 23 25  1  0
M  END
