
     RDKit          3D

 12 11  0  0  0  0  0  0  0  0999 V2000
    3.7300    0.9580   -0.0840 C   0  0  0  0  0  0  0  0  0  0  0  0
    3.4440   -0.2570    0.4970 O   0  0  0  0  0  0  0  0  0  0  0  0
    2.1860   -0.3790    1.0200 C   0  0  0  0  0  0  0  0  0  0  0  0
    1.1430   -0.2020   -0.0510 C   0  0  0  0  0  0  0  0  0  0  0  0
   -0.1550   -0.3410    0.4930 O   0  0  0  0  0  0  0  0  0  0  0  0
   -1.0870   -0.1760   -0.5170 C   0  0  1  0  0  0  0  0  0  0  0  0
   -1.8320   -1.4720   -0.7110 C   0  0  0  0  0  0  0  0  0  0  0  0
   -2.5310   -1.9170    0.4490 N   0  0  0  0  0  0  0  0  0  0  0  0
   -2.0150    0.9850   -0.2640 C   0  0  0  0  0  0  0  0  0  0  0  0
   -1.3130    2.2420   -0.1580 N   0  0  0  0  0  0  0  0  0  0  0  0
   -1.3970    2.8780    0.9110 O   0  0  0  0  0  0  0  0  0  0  0  0
   -0.5600    2.7620   -1.1860 O   0  0  0  0  0  0  0  0  0  0  0  0
  1  2  1  0
  2  3  1  0
  3  4  1  0
  4  5  1  0
  5  6  1  0
  6  7  1  1
  6  9  1  0
  7  8  1  0
  9 10  1  0
 10 11  2  0
 10 12  1  0
M  CHG  3   8   1  10   1  12  -1
M  END
