
     RDKit          3D

 12 11  0  0  0  0  0  0  0  0999 V2000
   -0.8270    1.0780   -1.0210 C   0  0  0  0  0  0  0  0  0  0  0  0
   -1.1490   -0.3250   -0.5910 C   0  0  2  0  0  0  0  0  0  0  0  0
   -2.2810   -0.7330   -1.3830 O   0  0  0  0  0  0  0  0  0  0  0  0
   -1.6340   -0.3110    0.8270 C   0  0  0  0  0  0  0  0  0  0  0  0
   -2.7280    0.6390    0.8980 N   0  0  0  0  0  0  0  0  0  0  0  0
   -0.1110   -1.3530   -0.8980 C   0  0  0  0  0  0  0  0  0  0  0  0
    1.0360   -1.4320   -0.3600 O   0  0  0  0  0  0  0  0  0  0  0  0
    2.1610   -0.8860   -0.1340 C   0  0  0  0  0  0  0  0  0  0  0  0
    2.1390    0.3930    0.6790 C   0  0  0  0  0  0  0  0  0  0  0  0
    3.5090    0.8850    0.8690 N   0  0  0  0  0  0  0  0  0  0  0  0
    3.9250    0.9960    2.0230 O   0  0  0  0  0  0  0  0  0  0  0  0
    4.3030    1.2100   -0.1800 O   0  0  0  0  0  0  0  0  0  0  0  0
  2  1  1  6
  2  3  1  0
  2  4  1  0
  2  6  1  0
  4  5  1  0
  6  7  1  0
  7  8  1  0
  8  9  1  0
  9 10  1  0
 10 11  2  0
 10 12  1  0
M  CHG  3   5   1  10   1  12  -1
M  END
