
     RDKit          3D

 25 26  0  0  0  0  0  0  0  0999 V2000
   -1.7810    4.4940    2.0820 C   0  0  0  0  0  0  0  0  0  0  0  0
   -1.6760    3.1100    1.8070 O   0  0  0  0  0  0  0  0  0  0  0  0
   -0.8900    2.6730    0.7540 C   0  0  0  0  0  0  0  0  0  0  0  0
   -0.2650    3.4720    0.0350 O   0  0  0  0  0  0  0  0  0  0  0  0
   -0.8300    1.1900    0.5250 C   0  0  1  0  0  0  0  0  0  0  0  0
   -2.2390    0.7300    0.3060 C   0  0  0  0  0  0  0  0  0  0  0  0
   -2.3280   -0.7310    0.0650 C   0  0  0  0  0  0  0  0  0  0  0  0
   -1.3060   -1.4730    0.0540 O   0  0  0  0  0  0  0  0  0  0  0  0
   -3.6390   -1.3240   -0.1650 C   0  0  0  0  0  0  0  0  0  0  0  0
   -4.7260   -0.5710   -0.1590 C   0  0  0  0  0  0  0  0  0  0  0  0
   -5.9770   -1.1890   -0.3870 N   0  0  0  0  0  0  0  0  0  0  0  0
   -6.0270   -2.3300   -1.2800 C   0  0  0  0  0  0  0  0  0  0  0  0
   -4.9050   -3.2880   -0.9880 C   0  0  0  0  0  0  0  0  0  0  0  0
   -3.7900   -2.6870   -0.3960 O   0  0  0  0  0  0  0  0  0  0  0  0
    0.0260    0.9560   -0.5950 N   0  0  0  0  0  0  0  0  0  0  0  0
    1.2310    0.1790   -0.4020 C   0  0  0  0  0  0  0  0  0  0  0  0
    1.4540   -0.2450    0.7410 O   0  0  0  0  0  0  0  0  0  0  0  0
    2.1130   -0.0870   -1.4610 N   0  0  0  0  0  0  0  0  0  0  0  0
    3.3240   -0.8180   -1.3880 C   0  0  0  0  0  0  0  0  0  0  0  0
    4.4190   -0.3040   -0.5370 C   0  0  2  0  0  0  0  0  0  0  0  0
    4.8220    0.9940   -0.8910 O   0  0  0  0  0  0  0  0  0  0  0  0
    5.7110   -1.1550   -0.7980 C   0  0  0  0  0  0  0  0  0  0  0  0
    6.5150   -0.6300    0.3730 C   0  0  0  0  0  0  0  0  0  0  0  0
    5.6330   -0.6670    1.4140 O   0  0  0  0  0  0  0  0  0  0  0  0
    4.3310   -0.4740    0.9260 C   0  0  0  0  0  0  0  0  0  0  0  0
  1  2  1  0
  2  3  1  0
  3  4  2  0
  3  5  1  0
  5  6  1  6
  5 15  1  0
  6  7  1  0
  7  8  2  0
  7  9  1  0
  9 10  2  0
  9 14  1  0
 10 11  1  0
 11 12  1  0
 12 13  1  0
 13 14  1  0
 15 16  1  0
 16 17  2  0
 16 18  1  0
 18 19  1  0
 19 20  1  0
 20 21  1  1
 20 22  1  0
 20 25  1  0
 22 23  1  0
 23 24  1  0
 24 25  1  0
M  END
