
     RDKit          3D

 14 15  0  0  0  0  0  0  0  0999 V2000
   -4.2750    0.8970   -0.4200 N   0  0  0  0  0  0  0  0  0  0  0  0
   -3.5100   -0.3580    0.4530 S   0  0  1  0  0  0  0  0  0  0  0  0
   -3.8850   -0.2930    1.9080 O   0  0  0  0  0  0  0  0  0  0  0  0
   -4.0060   -1.6800   -0.0560 O   0  0  0  0  0  0  0  0  0  0  0  0
   -1.7470   -0.2740    0.2800 C   0  0  0  0  0  0  0  0  0  0  0  0
   -0.8640   -0.6510   -0.4000 N   0  0  0  0  0  0  0  0  0  0  0  0
    0.4210   -0.4260   -0.2880 C   0  0  0  0  0  0  0  0  0  0  0  0
    1.4600   -0.8880   -1.1130 C   0  0  0  0  0  0  0  0  0  0  0  0
    2.7470   -0.5270   -0.8070 C   0  0  0  0  0  0  0  0  0  0  0  0
    3.1350    0.2600    0.2490 C   0  0  0  0  0  0  0  0  0  0  0  0
    4.4390    0.6090    0.5350 O   0  0  0  0  0  0  0  0  0  0  0  0
    2.1050    0.7260    1.0800 C   0  0  0  0  0  0  0  0  0  0  0  0
    0.7830    0.3610    0.7730 C   0  0  0  0  0  0  0  0  0  0  0  0
   -0.7680    0.7270    1.5450 S   0  0  0  0  0  0  0  0  0  0  0  0
  2  1  1  6
  2  3  2  0
  2  4  2  0
  2  5  1  0
  5  6  2  0
  5 14  1  0
  6  7  1  0
  7  8  2  0
  7 13  1  0
  8  9  1  0
  9 10  2  0
 10 11  1  0
 10 12  1  0
 12 13  2  0
 13 14  1  0
M  END
