
     RDKit          3D

 23 24  0  0  0  0  0  0  0  0999 V2000
    0.6020   -2.2770   -2.3930 C   0  0  0  0  0  0  0  0  0  0  0  0
    0.3050   -1.2650   -1.5960 O   0  0  0  0  0  0  0  0  0  0  0  0
    0.5110   -0.4050   -0.6360 C   0  0  0  0  0  0  0  0  0  0  0  0
   -0.4370    0.2940   -0.0580 C   0  0  0  0  0  0  0  0  0  0  0  0
   -1.8640    0.4180   -0.1890 C   0  0  0  0  0  0  0  0  0  0  0  0
   -2.5800    1.2720    0.6040 C   0  0  0  0  0  0  0  0  0  0  0  0
   -1.9650    2.1410    1.6620 C   0  0  0  0  0  0  0  0  0  0  0  0
   -3.9810    1.1810    0.2390 C   0  0  2  0  0  0  0  0  0  0  0  0
   -4.8810    0.8510    1.4190 C   0  0  0  0  0  0  0  0  0  0  0  0
   -4.0600    0.2140   -0.8320 C   0  0  0  0  0  0  0  0  0  0  0  0
   -5.3030   -0.1840   -1.5060 C   0  0  0  0  0  0  0  0  0  0  0  0
   -6.3980    0.3350   -1.1480 O   0  0  0  0  0  0  0  0  0  0  0  0
   -2.8190   -0.2240   -1.0720 C   0  0  0  0  0  0  0  0  0  0  0  0
   -2.5660   -1.2380   -2.1380 C   0  0  0  0  0  0  0  0  0  0  0  0
    1.8810   -0.0880   -0.0850 C   0  0  0  0  0  0  0  0  0  0  0  0
    2.1000    1.2010    0.3400 C   0  0  0  0  0  0  0  0  0  0  0  0
    3.2840    1.6310    0.9440 C   0  0  0  0  0  0  0  0  0  0  0  0
    3.4790    3.0430    1.3930 C   0  0  0  0  0  0  0  0  0  0  0  0
    4.2440    0.6690    1.0910 C   0  0  0  0  0  0  0  0  0  0  0  0
    4.0600   -0.6250    0.6790 C   0  0  0  0  0  0  0  0  0  0  0  0
    5.1460   -1.6540    0.8550 C   0  0  0  0  0  0  0  0  0  0  0  0
    2.8450   -1.0110    0.0770 C   0  0  0  0  0  0  0  0  0  0  0  0
    2.7390   -2.4410   -0.2350 C   0  0  0  0  0  0  0  0  0  0  0  0
  1  2  1  0
  2  3  1  0
  3  4  2  3
  3 15  1  0
  4  5  1  0
  5  6  2  0
  5 13  1  0
  6  7  1  0
  6  8  1  0
  8  9  1  1
  8 10  1  0
 10 11  1  0
 10 13  2  0
 11 12  2  0
 13 14  1  0
 15 16  2  0
 15 22  1  0
 16 17  1  0
 17 18  1  0
 17 19  2  0
 19 20  1  0
 20 21  1  0
 20 22  2  0
 22 23  1  0
M  END
