
     RDKit          3D

 23 24  0  0  0  0  0  0  0  0999 V2000
   -5.8690    1.7860   -0.5520 C   0  0  0  0  0  0  0  0  0  0  0  0
   -4.4760    1.2750   -0.4670 C   0  0  0  0  0  0  0  0  0  0  0  0
   -3.8010    1.1370    0.6730 C   0  0  0  0  0  0  0  0  0  0  0  0
   -2.4760    0.6140    0.3700 C   0  0  0  0  0  0  0  0  0  0  0  0
   -1.5000    0.3380    1.2500 C   0  0  0  0  0  0  0  0  0  0  0  0
   -1.8100    0.6220    2.9520 Cl  0  0  0  0  0  0  0  0  0  0  0  0
   -0.2470   -0.1710    0.8300 N   0  0  0  0  0  0  0  0  0  0  0  0
   -0.0130   -1.4430    0.8880 C   0  0  0  0  0  0  0  0  0  0  0  0
   -1.0840   -2.3270    1.4020 C   0  0  0  0  0  0  0  0  0  0  0  0
    1.2490   -2.0180    0.4720 C   0  0  0  0  0  0  0  0  0  0  0  0
    1.4640   -3.4340    0.5550 C   0  0  0  0  0  0  0  0  0  0  0  0
    0.6310   -4.2380    0.9680 O   0  0  0  0  0  0  0  0  0  0  0  0
    2.2380   -1.2520    0.0030 C   0  0  0  0  0  0  0  0  0  0  0  0
    3.4830   -1.7950   -0.4100 N   0  0  0  0  0  0  0  0  0  0  0  0
    1.9960    0.4970   -0.1080 S   0  0  0  0  0  0  0  0  0  0  0  0
    3.4400    1.3220   -0.7580 C   0  0  0  0  0  0  0  0  0  0  0  0
    3.7500    1.5980   -2.0390 N   0  0  0  0  0  0  0  0  0  0  0  0
    4.9100    2.2220   -2.1220 N   0  0  0  0  0  0  0  0  0  0  0  0
    5.3820    2.3640   -0.8640 C   0  0  0  0  0  0  0  0  0  0  0  0
    6.4580    2.9030   -0.4970 O   0  0  0  0  0  0  0  0  0  0  0  0
    4.4640    1.8030   -0.0360 N   0  0  0  0  0  0  0  0  0  0  0  0
   -2.4290    0.4520   -1.0780 C   0  0  0  0  0  0  0  0  0  0  0  0
   -3.6010    0.8410   -1.5590 C   0  0  0  0  0  0  0  0  0  0  0  0
  1  2  1  0
  2  3  2  0
  2 23  1  0
  3  4  1  0
  4  5  2  3
  4 22  1  0
  5  6  1  0
  5  7  1  0
  7  8  2  3
  8  9  1  0
  8 10  1  0
 10 11  1  0
 10 13  2  3
 11 12  2  0
 13 14  1  0
 13 15  1  0
 15 16  1  0
 16 17  2  0
 16 21  1  0
 17 18  1  0
 18 19  1  0
 19 20  2  0
 19 21  1  0
 22 23  2  0
M  END
