
     RDKit          3D

 13 12  0  0  0  0  0  0  0  0999 V2000
   -4.5760   -0.0280    0.5270 C   0  0  0  0  0  0  0  0  0  0  0  0
   -4.5950    0.6930   -0.6760 N   0  0  0  0  0  0  0  0  0  0  0  0
   -3.7810    0.9330   -1.5870 C   0  0  0  0  0  0  0  0  0  0  0  0
   -2.4070    0.5160   -1.7340 C   0  0  0  0  0  0  0  0  0  0  0  0
   -1.7240   -0.2280   -0.9000 C   0  0  0  0  0  0  0  0  0  0  0  0
   -0.2990   -0.5990   -1.1570 C   0  0  0  0  0  0  0  0  0  0  0  0
    0.5510   -0.1080   -0.0890 N   0  0  2  0  0  0  0  0  0  0  0  0
    1.0350    1.2030   -0.4920 C   0  0  0  0  0  0  0  0  0  0  0  0
    1.6700   -1.0170    0.1260 C   0  0  0  0  0  0  0  0  0  0  0  0
    2.6960   -0.3850    1.0070 C   0  0  0  0  0  0  0  0  0  0  0  0
    2.5630    0.7740    1.4720 O   0  0  0  0  0  0  0  0  0  0  0  0
    3.8500   -1.0680    1.3460 O   0  0  0  0  0  0  0  0  0  0  0  0
    4.8550   -0.5170    2.1770 C   0  0  0  0  0  0  0  0  0  0  0  0
  1  2  1  0
  2  3  2  3
  3  4  1  0
  4  5  2  3
  5  6  1  0
  6  7  1  0
  7  8  1  6
  7  9  1  0
  9 10  1  0
 10 11  2  0
 10 12  1  0
 12 13  1  0
M  CHG  1   7   1
M  END
