
     RDKit          3D

 13 13  0  0  0  0  0  0  0  0999 V2000
    3.3370    0.4390    0.5020 N   0  0  0  0  0  0  0  0  0  0  0  0
    1.9610    0.2630    0.1960 C   0  0  0  0  0  0  0  0  0  0  0  0
    1.4050   -1.0070    0.2880 C   0  0  0  0  0  0  0  0  0  0  0  0
    2.4010   -2.3680    0.7790 Cl  0  0  0  0  0  0  0  0  0  0  0  0
    0.0770   -1.1790   -0.0070 C   0  0  0  0  0  0  0  0  0  0  0  0
   -0.7320   -0.1350   -0.3940 C   0  0  0  0  0  0  0  0  0  0  0  0
   -2.4100   -0.4550   -0.7490 S   0  0  2  0  0  0  0  0  0  0  0  0
   -3.4040   -0.2940    0.6650 N   0  0  0  0  0  0  0  0  0  0  0  0
   -2.5550   -1.8880   -1.2080 O   0  0  0  0  0  0  0  0  0  0  0  0
   -2.9410    0.4540   -1.8290 O   0  0  0  0  0  0  0  0  0  0  0  0
   -0.1800    1.1170   -0.4850 C   0  0  0  0  0  0  0  0  0  0  0  0
    1.1490    1.3070   -0.1920 C   0  0  0  0  0  0  0  0  0  0  0  0
    1.8950    2.8900   -0.2940 Cl  0  0  0  0  0  0  0  0  0  0  0  0
  1  2  1  0
  2  3  2  0
  2 12  1  0
  3  4  1  0
  3  5  1  0
  5  6  2  0
  6  7  1  0
  6 11  1  0
  7  8  1  1
  7  9  2  0
  7 10  2  0
 11 12  2  0
 12 13  1  0
M  END
