
     RDKit          3D

 13 12  0  0  0  0  0  0  0  0999 V2000
   -4.6750    0.8480   -1.1560 C   0  0  0  0  0  0  0  0  0  0  0  0
   -4.4230   -0.3960   -0.3170 C   0  0  0  0  0  0  0  0  0  0  0  0
   -3.1420   -0.4030    0.2550 O   0  0  0  0  0  0  0  0  0  0  0  0
   -1.9640   -0.3750   -0.4830 C   0  0  0  0  0  0  0  0  0  0  0  0
   -2.0500   -0.3430   -1.7170 O   0  0  0  0  0  0  0  0  0  0  0  0
   -0.6650   -0.3850    0.2630 C   0  0  1  0  0  0  0  0  0  0  0  0
   -0.6230   -1.6170    1.1160 C   0  0  0  0  0  0  0  0  0  0  0  0
    0.4830   -0.2610   -0.7040 C   0  0  0  0  0  0  0  0  0  0  0  0
    1.7660   -0.2560   -0.0730 N   0  0  0  0  0  0  0  0  0  0  0  0
    2.3730   -1.3760    0.5980 C   0  0  0  0  0  0  0  0  0  0  0  0
    2.5240    0.9650   -0.1070 C   0  0  0  0  0  0  0  0  0  0  0  0
    3.6940    0.9960   -0.6370 N   0  0  0  0  0  0  0  0  0  0  0  0
    4.4820    2.2000   -0.6900 C   0  0  0  0  0  0  0  0  0  0  0  0
  1  2  1  0
  2  3  1  0
  3  4  1  0
  4  5  2  0
  4  6  1  0
  6  7  1  6
  6  8  1  0
  8  9  1  0
  9 10  1  0
  9 11  1  0
 11 12  2  3
 12 13  1  0
M  CHG  1  12   1
M  END
