
     RDKit          3D

 32 35  0  0  0  0  0  0  0  0999 V2000
    6.9420   -0.0970   -1.9180 C   0  0  0  0  0  0  0  0  0  0  0  0
    5.6400   -0.1120   -1.3700 O   0  0  0  0  0  0  0  0  0  0  0  0
    5.3820   -1.0180   -0.3420 C   0  0  0  0  0  0  0  0  0  0  0  0
    6.3570   -1.8720    0.1300 C   0  0  0  0  0  0  0  0  0  0  0  0
    6.1080   -2.7660    1.1430 C   0  0  0  0  0  0  0  0  0  0  0  0
    7.1490   -3.6920    1.6600 C   0  0  0  0  0  0  0  0  0  0  0  0
    4.8390   -2.7710    1.6660 C   0  0  0  0  0  0  0  0  0  0  0  0
    3.8390   -1.8980    1.1860 C   0  0  0  0  0  0  0  0  0  0  0  0
    4.0820   -1.0060    0.1780 C   0  0  0  0  0  0  0  0  0  0  0  0
    3.1310   -0.1130   -0.3430 N   0  0  0  0  0  0  0  0  0  0  0  0
    1.7940    0.0610    0.0260 C   0  0  0  0  0  0  0  0  0  0  0  0
    1.3110   -0.6380    0.9350 O   0  0  0  0  0  0  0  0  0  0  0  0
    0.8820    1.0500   -0.6090 C   0  0  0  0  0  0  0  0  0  0  0  0
   -0.5010    1.0050    0.0020 C   0  0  2  0  0  0  0  0  0  0  0  0
   -1.1250   -0.2690   -0.1340 N   0  0  0  0  0  0  0  0  0  0  0  0
   -2.3930   -0.5580    0.4210 C   0  0  0  0  0  0  0  0  0  0  0  0
   -3.0980    0.3110    1.2140 C   0  0  0  0  0  0  0  0  0  0  0  0
   -4.3480    0.0140    1.7480 C   0  0  0  0  0  0  0  0  0  0  0  0
   -5.0920    0.9600    2.5980 C   0  0  0  0  0  0  0  0  0  0  0  0
   -4.9310   -1.2080    1.4840 C   0  0  0  0  0  0  0  0  0  0  0  0
   -4.2550   -2.1100    0.6920 C   0  0  0  0  0  0  0  0  0  0  0  0
   -3.0160   -1.7890    0.1740 C   0  0  0  0  0  0  0  0  0  0  0  0
   -4.9680   -3.2350    0.5430 C   0  0  0  0  0  0  0  0  0  0  0  0
   -6.2130   -3.0270    1.3140 C   0  0  0  0  0  0  0  0  0  0  0  0
   -6.0690   -1.7160    1.8570 N   0  0  0  0  0  0  0  0  0  0  0  0
   -1.2910    2.0490   -0.7100 C   0  0  0  0  0  0  0  0  0  0  0  0
   -1.5380    3.2990   -0.1920 C   0  0  0  0  0  0  0  0  0  0  0  0
   -2.2820    4.2480   -0.8890 C   0  0  0  0  0  0  0  0  0  0  0  0
   -2.7940    3.9600   -2.1250 C   0  0  0  0  0  0  0  0  0  0  0  0
   -3.6010    4.9560   -2.9090 C   0  0  0  0  0  0  0  0  0  0  0  0
   -2.5570    2.7120   -2.6600 C   0  0  0  0  0  0  0  0  0  0  0  0
   -1.8100    1.7680   -1.9540 C   0  0  0  0  0  0  0  0  0  0  0  0
  1  2  1  0
  2  3  1  0
  3  4  2  0
  3  9  1  0
  4  5  1  0
  5  6  1  0
  5  7  2  0
  7  8  1  0
  8  9  2  0
  9 10  1  0
 10 11  1  0
 11 12  2  0
 11 13  1  0
 14 13  1  6
 14 15  1  0
 14 26  1  0
 15 16  1  0
 16 17  1  0
 16 22  2  0
 17 18  2  0
 18 19  1  0
 18 20  1  0
 20 21  1  0
 20 25  2  0
 21 22  1  0
 21 23  2  0
 23 24  1  0
 24 25  1  0
 26 27  2  0
 26 32  1  0
 27 28  1  0
 28 29  2  0
 29 30  1  0
 29 31  1  0
 31 32  2  0
M  END
