
     RDKit          3D

 32 35  0  0  0  0  0  0  0  0999 V2000
    9.7600    1.3030    0.8340 C   0  0  0  0  0  0  0  0  0  0  0  0
    9.2480    0.5770   -0.3890 C   0  0  0  0  0  0  0  0  0  0  0  0
    7.8520    0.2050   -0.2530 N   0  0  0  0  0  0  0  0  0  0  0  0
    6.8690    1.0180   -0.6470 C   0  0  0  0  0  0  0  0  0  0  0  0
    5.5280    0.6770   -0.5230 C   0  0  0  0  0  0  0  0  0  0  0  0
    5.1550   -0.5150    0.0110 C   0  0  0  0  0  0  0  0  0  0  0  0
    3.7340   -0.9360    0.1710 C   0  0  0  0  0  0  0  0  0  0  0  0
    3.6200   -2.0680    0.6790 O   0  0  0  0  0  0  0  0  0  0  0  0
    2.6520   -0.1090   -0.2260 C   0  0  0  0  0  0  0  0  0  0  0  0
    1.3820   -0.2600   -0.2140 C   0  0  0  0  0  0  0  0  0  0  0  0
    0.4040   -1.2260    0.1490 C   0  0  0  0  0  0  0  0  0  0  0  0
    0.6490   -2.5370    0.3770 C   0  0  0  0  0  0  0  0  0  0  0  0
   -0.3950   -3.3740    0.8110 C   0  0  0  0  0  0  0  0  0  0  0  0
   -1.6570   -2.9050    1.0110 C   0  0  0  0  0  0  0  0  0  0  0  0
   -1.9470   -1.5560    0.7830 C   0  0  0  0  0  0  0  0  0  0  0  0
   -3.2750   -1.1010    1.0160 N   0  0  0  0  0  0  0  0  0  0  0  0
   -3.6870    0.2210    0.5670 C   0  0  1  0  0  0  0  0  0  0  0  0
   -3.6580    0.1890   -0.8660 N   0  0  0  0  0  0  0  0  0  0  0  0
   -4.7440    0.6530   -1.6470 C   0  0  0  0  0  0  0  0  0  0  0  0
   -4.5290    0.7030   -3.1440 C   0  0  0  0  0  0  0  0  0  0  0  0
   -5.8970    1.0310   -1.1530 C   0  0  0  0  0  0  0  0  0  0  0  0
   -6.9850    1.5000   -2.0350 C   0  0  0  0  0  0  0  0  0  0  0  0
   -6.0280    0.9890    0.3030 C   0  0  0  0  0  0  0  0  0  0  0  0
   -7.2600    1.3580    0.8150 C   0  0  0  0  0  0  0  0  0  0  0  0
   -7.4280    1.3020    2.1670 C   0  0  0  0  0  0  0  0  0  0  0  0
   -6.4000    0.8920    2.9790 C   0  0  0  0  0  0  0  0  0  0  0  0
   -5.1790    0.5270    2.4650 C   0  0  0  0  0  0  0  0  0  0  0  0
   -5.0030    0.5830    1.0870 C   0  0  0  0  0  0  0  0  0  0  0  0
   -0.9210   -0.7720    0.3660 C   0  0  0  0  0  0  0  0  0  0  0  0
    6.1800   -1.3550    0.4190 C   0  0  0  0  0  0  0  0  0  0  0  0
    7.5040   -0.9750    0.2760 C   0  0  0  0  0  0  0  0  0  0  0  0
    8.4400   -1.7380    0.6460 O   0  0  0  0  0  0  0  0  0  0  0  0
  1  2  1  0
  2  3  1  0
  3  4  1  0
  3 31  1  0
  4  5  2  0
  5  6  1  0
  6  7  1  0
  6 30  2  0
  7  8  2  0
  7  9  1  0
  9 10  2  3
 10 11  1  0
 11 12  2  0
 11 29  1  0
 12 13  1  0
 13 14  2  0
 14 15  1  0
 15 16  1  0
 15 29  2  0
 17 16  1  1
 17 18  1  0
 17 28  1  0
 18 19  1  0
 19 20  1  0
 19 21  2  0
 21 22  1  0
 21 23  1  0
 23 24  2  0
 23 28  1  0
 24 25  1  0
 25 26  2  0
 26 27  1  0
 27 28  2  0
 30 31  1  0
 31 32  2  0
M  END
