
     RDKit          3D

 32 36  0  0  0  0  0  0  0  0999 V2000
    4.4010    1.6730   -1.5280 F   0  0  0  0  0  0  0  0  0  0  0  0
    3.3780    0.7760   -1.2480 C   0  0  2  0  0  0  0  0  0  0  0  0
    3.3940   -0.1370   -2.2960 F   0  0  0  0  0  0  0  0  0  0  0  0
    2.1040    1.5460   -1.2090 C   0  0  0  0  0  0  0  0  0  0  0  0
    0.9200    0.7930   -0.9250 N   0  0  0  0  0  0  0  0  0  0  0  0
    0.3570   -0.2100   -1.7310 C   0  0  0  0  0  0  0  0  0  0  0  0
    0.9300   -0.5210   -2.9010 N   0  0  0  0  0  0  0  0  0  0  0  0
    0.3760   -1.4720   -3.6610 C   0  0  0  0  0  0  0  0  0  0  0  0
   -0.7570   -2.1560   -3.3080 C   0  0  0  0  0  0  0  0  0  0  0  0
   -1.3750   -1.8530   -2.0970 C   0  0  0  0  0  0  0  0  0  0  0  0
   -2.4320   -2.2950   -1.4740 O   0  0  0  0  0  0  0  0  0  0  0  0
   -2.6030   -1.6690   -0.3190 C   0  0  0  0  0  0  0  0  0  0  0  0
   -3.6930   -1.8940    0.6740 C   0  0  0  0  0  0  0  0  0  0  0  0
   -4.8730   -1.0760    0.3900 C   0  0  0  0  0  0  0  0  0  0  0  0
   -5.9690   -1.7020   -0.1910 C   0  0  0  0  0  0  0  0  0  0  0  0
   -7.1190   -1.0010   -0.4900 C   0  0  0  0  0  0  0  0  0  0  0  0
   -7.1340    0.3450   -0.1900 C   0  0  0  0  0  0  0  0  0  0  0  0
   -6.0430    0.9660    0.3870 C   0  0  0  0  0  0  0  0  0  0  0  0
   -4.8900    0.2700    0.6890 C   0  0  0  0  0  0  0  0  0  0  0  0
   -3.7750    0.9370    1.2890 N   0  0  0  0  0  0  0  0  0  0  0  0
   -3.0800    1.9680    0.7850 C   0  0  0  0  0  0  0  0  0  0  0  0
   -2.1280    2.2780    1.6700 N   0  0  0  0  0  0  0  0  0  0  0  0
   -2.2150    1.4530    2.7260 C   0  0  0  0  0  0  0  0  0  0  0  0
   -3.2370    0.6360    2.4680 N   0  0  0  0  0  0  0  0  0  0  0  0
   -1.5970   -0.7960   -0.2290 N   0  0  0  0  0  0  0  0  0  0  0  0
   -0.8000   -0.8760   -1.3240 C   0  0  0  0  0  0  0  0  0  0  0  0
    3.6510   -0.0030    0.0060 C   0  0  1  0  0  0  0  0  0  0  0  0
    4.9290   -0.7920   -0.1340 C   0  0  0  0  0  0  0  0  0  0  0  0
    6.1690    0.0150    0.1030 C   0  0  0  0  0  0  0  0  0  0  0  0
    6.0160    0.6670    1.4740 C   0  0  0  0  0  0  0  0  0  0  0  0
    4.7640    1.5030    1.5410 C   0  0  0  0  0  0  0  0  0  0  0  0
    3.5870    0.7470    1.2170 N   0  0  0  0  0  0  0  0  0  0  0  0
  2  1  1  6
  2  3  1  0
  2  4  1  0
  2 27  1  0
  4  5  1  0
  5  6  1  0
  6  7  2  0
  6 26  1  0
  7  8  1  0
  8  9  2  0
  9 10  1  0
 10 11  1  0
 10 26  2  0
 11 12  1  0
 12 13  1  0
 12 25  2  0
 13 14  1  0
 14 15  2  0
 14 19  1  0
 15 16  1  0
 16 17  2  0
 17 18  1  0
 18 19  2  0
 19 20  1  0
 20 21  1  0
 20 24  1  0
 21 22  2  0
 22 23  1  0
 23 24  2  0
 25 26  1  0
 27 28  1  6
 27 32  1  0
 28 29  1  0
 29 30  1  0
 30 31  1  0
 31 32  1  0
M  CHG  1  32   1
M  END
