
     RDKit          3D

 32 35  0  0  0  0  0  0  0  0999 V2000
    5.2080   -1.6190   -1.4930 C   0  0  0  0  0  0  0  0  0  0  0  0
    5.1590   -0.9520   -0.3620 C   0  0  0  0  0  0  0  0  0  0  0  0
    3.9380   -0.7020    0.2030 N   0  0  0  0  0  0  0  0  0  0  0  0
    3.7650   -0.0290    1.3340 C   0  0  0  0  0  0  0  0  0  0  0  0
    2.3660    0.2810    1.8240 C   0  0  0  0  0  0  0  0  0  0  0  0
    1.4720   -0.1730    0.7820 N   0  0  0  0  0  0  0  0  0  0  0  0
    0.1630    0.4150    1.0170 C   0  0  0  0  0  0  0  0  0  0  0  0
   -0.6840    0.1500   -0.2640 C   0  0  2  0  0  0  0  0  0  0  0  0
   -1.8920    0.9610    0.1070 N   0  0  0  0  0  0  0  0  0  0  0  0
   -2.8390    1.4780   -0.7570 C   0  0  0  0  0  0  0  0  0  0  0  0
   -3.0410    1.1530   -2.0790 C   0  0  0  0  0  0  0  0  0  0  0  0
   -4.0260    1.7630   -2.8350 C   0  0  0  0  0  0  0  0  0  0  0  0
   -4.8480    2.7240   -2.3050 C   0  0  0  0  0  0  0  0  0  0  0  0
   -4.6780    3.0750   -0.9840 C   0  0  0  0  0  0  0  0  0  0  0  0
   -5.5560    4.1390   -0.4300 C   0  0  0  0  0  0  0  0  0  0  0  0
   -3.7160    2.4750   -0.2480 C   0  0  0  0  0  0  0  0  0  0  0  0
   -3.5350    2.8630    1.1860 C   0  0  0  0  0  0  0  0  0  0  0  0
   -1.2290   -1.2280   -0.2290 C   0  0  0  0  0  0  0  0  0  0  0  0
   -1.9500   -1.6980    0.8790 C   0  0  0  0  0  0  0  0  0  0  0  0
   -2.6470   -2.8860    0.8460 C   0  0  0  0  0  0  0  0  0  0  0  0
   -2.6460   -3.6440   -0.2920 C   0  0  0  0  0  0  0  0  0  0  0  0
   -1.9570   -3.2350   -1.4050 C   0  0  0  0  0  0  0  0  0  0  0  0
   -1.2560   -2.0240   -1.3410 C   0  0  0  0  0  0  0  0  0  0  0  0
   -0.4120   -1.6790   -2.5190 C   0  0  0  0  0  0  0  0  0  0  0  0
   -3.4330   -4.7780   -0.0070 O   0  0  0  0  0  0  0  0  0  0  0  0
   -4.2760   -4.3920    1.0850 C   0  0  0  0  0  0  0  0  0  0  0  0
   -3.4160   -3.5090    1.8260 O   0  0  0  0  0  0  0  0  0  0  0  0
    4.8630    0.4430    1.9720 C   0  0  0  0  0  0  0  0  0  0  0  0
    6.1430    0.2180    1.4400 C   0  0  0  0  0  0  0  0  0  0  0  0
    7.3020    0.7820    2.1920 C   0  0  0  0  0  0  0  0  0  0  0  0
    6.2990   -0.4820    0.2660 C   0  0  0  0  0  0  0  0  0  0  0  0
    7.5040   -0.6910   -0.2630 C   0  0  0  0  0  0  0  0  0  0  0  0
  1  2  2  0
  2  3  1  0
  2 31  1  0
  3  4  2  0
  4  5  1  0
  4 28  1  0
  5  6  1  0
  6  7  1  0
  8  7  1  1
  8  9  1  0
  8 18  1  0
  9 10  1  0
 10 11  2  0
 10 16  1  0
 11 12  1  0
 12 13  2  0
 13 14  1  0
 14 15  1  0
 14 16  2  0
 16 17  1  0
 18 19  2  0
 18 23  1  0
 19 20  1  0
 20 21  2  0
 20 27  1  0
 21 22  1  0
 21 25  1  0
 22 23  2  0
 23 24  1  0
 25 26  1  0
 26 27  1  0
 28 29  2  0
 29 30  1  0
 29 31  1  0
 31 32  2  0
M  END
