
     RDKit          3D

 24 26  0  0  0  0  0  0  0  0999 V2000
    1.7220   -0.5100    0.6570 C   0  0  0  0  0  0  0  0  0  0  0  0
    1.7880   -0.1900   -0.7870 C   0  0  0  0  0  0  0  0  0  0  0  0
    2.9890   -0.0190   -1.3170 C   0  0  0  0  0  0  0  0  0  0  0  0
    4.2130   -0.1290   -0.5450 C   0  0  0  0  0  0  0  0  0  0  0  0
    5.3620   -0.8160   -0.9750 C   0  0  0  0  0  0  0  0  0  0  0  0
    6.3230   -0.7060    0.0050 C   0  0  0  0  0  0  0  0  0  0  0  0
    5.7150    0.0570    1.0080 C   0  0  0  0  0  0  0  0  0  0  0  0
    4.4890    0.3580    0.6230 O   0  0  0  0  0  0  0  0  0  0  0  0
    0.5550   -0.0600   -1.5490 C   0  0  0  0  0  0  0  0  0  0  0  0
    0.6870    0.2490   -2.7640 O   0  0  0  0  0  0  0  0  0  0  0  0
   -0.6910   -0.2600   -1.0040 N   0  0  0  0  0  0  0  0  0  0  0  0
   -1.5060    0.4220   -0.3540 C   0  0  0  0  0  0  0  0  0  0  0  0
   -2.7390   -0.2690    0.0050 N   0  0  0  0  0  0  0  0  0  0  0  0
   -2.7740   -1.7120    0.0220 C   0  0  0  0  0  0  0  0  0  0  0  0
   -3.3630   -2.4040   -1.0010 C   0  0  0  0  0  0  0  0  0  0  0  0
   -3.4040   -3.7750   -0.9840 C   0  0  0  0  0  0  0  0  0  0  0  0
   -2.8330   -4.4140    0.0960 C   0  0  0  0  0  0  0  0  0  0  0  0
   -2.2570   -3.7170    1.0930 N   0  0  0  0  0  0  0  0  0  0  0  0
   -2.2040   -2.3600    1.0990 C   0  0  0  0  0  0  0  0  0  0  0  0
   -1.4360    1.7580    0.0860 N   0  0  0  0  0  0  0  0  0  0  0  0
   -1.7440    2.3010    1.4240 C   0  0  0  0  0  0  0  0  0  0  0  0
   -2.4410    3.5960    1.0210 C   0  0  0  0  0  0  0  0  0  0  0  0
   -1.4790    4.1350   -0.0140 C   0  0  0  0  0  0  0  0  0  0  0  0
   -1.0470    2.8810   -0.7420 C   0  0  0  0  0  0  0  0  0  0  0  0
  1  2  1  0
  2  3  2  3
  2  9  1  0
  3  4  1  0
  4  5  2  0
  4  8  1  0
  5  6  1  0
  6  7  2  0
  7  8  1  0
  9 10  2  0
  9 11  1  0
 11 12  2  3
 12 13  1  0
 12 20  1  0
 13 14  1  0
 14 15  2  0
 14 19  1  0
 15 16  1  0
 16 17  2  0
 17 18  1  0
 18 19  2  0
 20 21  1  0
 20 24  1  0
 21 22  1  0
 22 23  1  0
 23 24  1  0
M  CHG  1  18   1
M  END
