
     RDKit          3D

 25 26  0  0  0  0  0  0  0  0999 V2000
   -3.6710    4.1170    3.3240 C   0  0  0  0  0  0  0  0  0  0  0  0
   -2.9570    3.6800    2.2730 C   0  0  0  0  0  0  0  0  0  0  0  0
   -2.9130    2.2750    1.9410 C   0  0  0  0  0  0  0  0  0  0  0  0
   -2.2440    1.7760    0.9360 C   0  0  0  0  0  0  0  0  0  0  0  0
   -1.4660    2.6580    0.0510 C   0  0  0  0  0  0  0  0  0  0  0  0
   -1.4630    2.0400   -1.3370 C   0  0  0  0  0  0  0  0  0  0  0  0
   -0.6980    0.7000   -1.1790 C   0  0  1  0  0  0  0  0  0  0  0  0
    0.5880    1.0450   -0.7360 N   0  0  0  0  0  0  0  0  0  0  0  0
    1.5770    0.0510   -0.5660 C   0  0  2  0  0  0  0  0  0  0  0  0
    1.2280   -0.8810    0.5380 C   0  0  0  0  0  0  0  0  0  0  0  0
    2.9750    0.6630   -0.4290 C   0  0  2  0  0  0  0  0  0  0  0  0
    3.0350    1.5710    0.7790 C   0  0  0  0  0  0  0  0  0  0  0  0
    3.1670    1.5860   -1.6400 C   0  0  0  0  0  0  0  0  0  0  0  0
    4.0440   -0.3520   -0.4030 C   0  0  0  0  0  0  0  0  0  0  0  0
    4.9070   -0.3700   -1.3420 O   0  0  0  0  0  0  0  0  0  0  0  0
    4.1730   -1.2980    0.5850 O   0  0  0  0  0  0  0  0  0  0  0  0
    5.1620   -2.2800    0.6580 C   0  0  0  0  0  0  0  0  0  0  0  0
   -1.5330   -0.1500   -0.3040 C   0  0  0  0  0  0  0  0  0  0  0  0
   -1.6430   -1.5570   -0.4670 N   0  0  0  0  0  0  0  0  0  0  0  0
   -1.8840   -2.3630    0.7110 C   0  0  0  0  0  0  0  0  0  0  0  0
   -3.0730   -3.2600    0.3740 C   0  0  0  0  0  0  0  0  0  0  0  0
   -2.6460   -4.1030   -0.7140 N   0  0  0  0  0  0  0  0  0  0  0  0
   -2.4060   -3.3780   -1.9300 C   0  0  0  0  0  0  0  0  0  0  0  0
   -1.5210   -2.1750   -1.7430 C   0  0  0  0  0  0  0  0  0  0  0  0
   -2.2390    0.3750    0.6690 N   0  0  0  0  0  0  0  0  0  0  0  0
  1  2  2  0
  2  3  1  0
  3  4  2  3
  4  5  1  0
  4 25  1  0
  5  6  1  0
  6  7  1  0
  7  8  1  1
  7 18  1  0
  8  9  1  0
  9 10  1  1
  9 11  1  0
 11 12  1  1
 11 13  1  0
 11 14  1  0
 14 15  2  0
 14 16  1  0
 16 17  1  0
 18 19  1  0
 18 25  2  0
 19 20  1  0
 19 24  1  0
 20 21  1  0
 21 22  1  0
 22 23  1  0
 23 24  1  0
M  END
