
     RDKit          3D

 22 22  0  0  0  0  0  0  0  0999 V2000
    3.8310    1.0430   -0.3580 C   0  0  0  0  0  0  0  0  0  0  0  0
    2.5560    0.4870   -0.1450 O   0  0  0  0  0  0  0  0  0  0  0  0
    1.8740    0.5330    1.0560 C   0  0  0  0  0  0  0  0  0  0  0  0
    2.4140    1.1100    2.0390 O   0  0  0  0  0  0  0  0  0  0  0  0
    0.5350   -0.1060    1.1130 C   0  0  2  0  0  0  0  0  0  0  0  0
    0.8110   -1.5960    0.9730 C   0  0  0  0  0  0  0  0  0  0  0  0
   -0.4390   -2.3340    0.6350 C   0  0  2  0  0  0  0  0  0  0  0  0
   -1.3610   -2.2220    1.6760 O   0  0  0  0  0  0  0  0  0  0  0  0
   -0.1040   -3.7070    0.6000 O   0  0  0  0  0  0  0  0  0  0  0  0
   -1.0100   -1.9110   -0.6940 C   0  0  1  0  0  0  0  0  0  0  0  0
   -0.3830   -2.7770   -1.7660 C   0  0  0  0  0  0  0  0  0  0  0  0
   -2.4970   -2.1900   -0.6930 C   0  0  0  0  0  0  0  0  0  0  0  0
   -3.0850   -1.8150   -1.9070 O   0  0  0  0  0  0  0  0  0  0  0  0
   -0.7220   -0.4840   -1.0360 C   0  0  2  0  0  0  0  0  0  0  0  0
    0.3140   -0.3840   -1.9600 O   0  0  0  0  0  0  0  0  0  0  0  0
   -0.4660    0.3990    0.1600 C   0  0  1  0  0  0  0  0  0  0  0  0
   -1.7120    0.5360    0.8350 O   0  0  0  0  0  0  0  0  0  0  0  0
   -0.0980    1.6240   -0.3420 O   0  0  0  0  0  0  0  0  0  0  0  0
    0.0750    2.6590    0.5010 C   0  0  1  0  0  0  0  0  0  0  0  0
    1.2930    3.2820    0.2650 O   0  0  0  0  0  0  0  0  0  0  0  0
   -0.9740    3.7210    0.0580 C   0  0  0  0  0  0  0  0  0  0  0  0
   -0.9000    4.8400    0.8490 O   0  0  0  0  0  0  0  0  0  0  0  0
  1  2  1  0
  2  3  1  0
  3  4  2  0
  5  3  1  6
  5  6  1  0
  5 16  1  0
  6  7  1  0
  7  8  1  1
  7  9  1  0
  7 10  1  0
 10 11  1  6
 10 12  1  0
 10 14  1  0
 12 13  1  0
 14 15  1  6
 14 16  1  0
 16 17  1  1
 16 18  1  0
 18 19  1  0
 19 20  1  6
 19 21  1  0
 21 22  1  0
M  END
