
     RDKit          3D

 25 28  0  0  0  0  0  0  0  0999 V2000
   -4.2860   -3.3240   -0.0720 C   0  0  0  0  0  0  0  0  0  0  0  0
   -5.0030   -2.2400    0.1380 C   0  0  0  0  0  0  0  0  0  0  0  0
   -4.5080   -0.9050   -0.1720 C   0  0  0  0  0  0  0  0  0  0  0  0
   -3.2440   -0.7570   -0.7040 O   0  0  0  0  0  0  0  0  0  0  0  0
   -2.1030   -0.5880    0.0520 C   0  0  0  0  0  0  0  0  0  0  0  0
   -2.2370   -0.5690    1.3010 O   0  0  0  0  0  0  0  0  0  0  0  0
   -0.8090   -0.4390   -0.5400 N   0  0  0  0  0  0  0  0  0  0  0  0
   -0.7020   -0.4700   -1.9880 C   0  0  0  0  0  0  0  0  0  0  0  0
    0.7480   -0.8850   -2.2710 C   0  0  0  0  0  0  0  0  0  0  0  0
    1.5910    0.3220   -1.9110 C   0  0  0  0  0  0  0  0  0  0  0  0
    1.3160    0.7080   -0.5000 C   0  0  2  0  0  0  0  0  0  0  0  0
    2.4750    1.1020    0.3070 C   0  0  0  0  0  0  0  0  0  0  0  0
    2.6170    2.3190    0.8960 N   0  0  0  0  0  0  0  0  0  0  0  0
    3.7500    2.3870    1.5480 N   0  0  0  0  0  0  0  0  0  0  0  0
    4.3740    1.1650    1.3790 C   0  0  0  0  0  0  0  0  0  0  0  0
    5.6860    0.8570    1.9830 C   0  0  2  0  0  0  0  0  0  0  0  0
    6.8000    0.6760    0.8990 C   0  0  0  0  0  0  0  0  0  0  0  0
    6.4200   -0.3900    1.8910 C   0  0  0  0  0  0  0  0  0  0  0  0
    3.5860    0.4150    0.6310 N   0  0  0  0  0  0  0  0  0  0  0  0
    3.8090   -0.9470    0.1880 C   0  0  0  0  0  0  0  0  0  0  0  0
    0.3820   -0.2590    0.2340 C   0  0  0  0  0  0  0  0  0  0  0  0
   -5.2780    0.1310    0.0620 C   0  0  0  0  0  0  0  0  0  0  0  0
   -6.6370    0.3840    0.6010 C   0  0  0  0  0  0  0  0  0  0  0  0
   -6.5900    1.8000    0.0830 C   0  0  0  0  0  0  0  0  0  0  0  0
   -5.1110    1.5930   -0.1220 C   0  0  0  0  0  0  0  0  0  0  0  0
  1  2  2  0
  2  3  1  0
  3  4  1  0
  3 22  2  3
  4  5  1  0
  5  6  2  0
  5  7  1  0
  7  8  1  0
  7 21  1  0
  8  9  1  0
  9 10  1  0
 10 11  1  0
 11 12  1  1
 11 21  1  0
 12 13  2  0
 12 19  1  0
 13 14  1  0
 14 15  2  0
 16 15  1  6
 15 19  1  0
 16 17  1  0
 16 18  1  0
 17 18  1  0
 19 20  1  0
 22 23  1  0
 22 25  1  0
 23 24  1  0
 24 25  1  0
M  CHG  1  14   1
M  END
