
     RDKit          3D

 16 17  0  0  0  0  0  0  0  0999 V2000
   -5.4830    1.0370   -1.7540 Br  0  0  0  0  0  0  0  0  0  0  0  0
   -3.9110    0.3480   -0.9340 C   0  0  0  0  0  0  0  0  0  0  0  0
   -3.8590   -0.6580   -0.0700 C   0  0  0  0  0  0  0  0  0  0  0  0
   -2.4820   -0.9110    0.3510 C   0  0  0  0  0  0  0  0  0  0  0  0
   -1.6590   -0.0690   -0.2430 C   0  0  0  0  0  0  0  0  0  0  0  0
   -0.3010    0.4070   -0.4420 C   0  0  0  0  0  0  0  0  0  0  0  0
    0.8810   -0.1550    0.1600 N   0  0  0  0  0  0  0  0  0  0  0  0
    2.1310    0.2660   -0.4150 C   0  0  0  0  0  0  0  0  0  0  0  0
    3.3070   -0.4870    0.0520 C   0  0  0  0  0  0  0  0  0  0  0  0
    3.2770   -2.3860   -0.2750 Br  0  0  0  0  0  0  0  0  0  0  0  0
    4.3250    0.0700    0.6580 C   0  0  0  0  0  0  0  0  0  0  0  0
    5.7840   -1.0410    1.2030 Br  0  0  0  0  0  0  0  0  0  0  0  0
    4.3880    1.9220    0.9990 Br  0  0  0  0  0  0  0  0  0  0  0  0
   -0.4000    1.3790   -1.2750 N   0  0  0  0  0  0  0  0  0  0  0  0
   -1.7350    1.5960   -1.6560 N   0  0  0  0  0  0  0  0  0  0  0  0
   -2.5240    0.7710   -1.0830 C   0  0  0  0  0  0  0  0  0  0  0  0
  1  2  1  0
  2  3  2  0
  2 16  1  0
  3  4  1  0
  4  5  2  0
  5  6  1  0
  5 16  1  0
  6  7  1  0
  6 14  2  0
  7  8  1  0
  8  9  1  0
  9 10  1  0
  9 11  2  3
 11 12  1  0
 11 13  1  0
 14 15  1  0
 15 16  2  0
M  END
