
     RDKit          3D

 16 17  0  0  0  0  0  0  0  0999 V2000
    4.0810    1.6060   -1.5800 Br  0  0  0  0  0  0  0  0  0  0  0  0
    2.7200    0.7120   -0.5520 C   0  0  0  0  0  0  0  0  0  0  0  0
    1.6010    0.3780   -1.1530 C   0  0  0  0  0  0  0  0  0  0  0  0
    0.5460   -0.2870   -0.4560 N   0  0  0  0  0  0  0  0  0  0  0  0
   -0.6680   -0.6670   -1.1170 C   0  0  0  0  0  0  0  0  0  0  0  0
   -1.8380   -0.1340   -0.3850 C   0  0  0  0  0  0  0  0  0  0  0  0
   -1.8900    0.6280    0.7100 N   0  0  0  0  0  0  0  0  0  0  0  0
   -3.1730    0.8710    0.9950 N   0  0  0  0  0  0  0  0  0  0  0  0
   -3.9780    0.2940    0.1220 C   0  0  0  0  0  0  0  0  0  0  0  0
   -3.1670   -0.3590   -0.7770 C   0  0  0  0  0  0  0  0  0  0  0  0
   -3.7090   -1.3820   -2.2810 Br  0  0  0  0  0  0  0  0  0  0  0  0
    0.7740   -0.5660    0.9120 C   0  0  0  0  0  0  0  0  0  0  0  0
    1.8780   -0.2470    1.5440 C   0  0  0  0  0  0  0  0  0  0  0  0
    2.0570   -0.6940    3.4340 Br  0  0  0  0  0  0  0  0  0  0  0  0
    2.9870    0.4390    0.8650 C   0  0  1  0  0  0  0  0  0  0  0  0
    4.5900   -0.6810    0.9390 Br  0  0  0  0  0  0  0  0  0  0  0  0
  1  2  1  0
  2  3  2  0
  2 15  1  0
  3  4  1  0
  4  5  1  0
  4 12  1  0
  5  6  1  0
  6  7  1  0
  6 10  2  0
  7  8  1  0
  8  9  2  0
  9 10  1  0
 10 11  1  0
 12 13  2  0
 13 14  1  0
 13 15  1  0
 15 16  1  6
M  END
