
     RDKit          3D

 16 17  0  0  0  0  0  0  0  0999 V2000
    2.6110    4.6260   -0.6620 Br  0  0  0  0  0  0  0  0  0  0  0  0
    2.6330    2.7670   -0.2670 N   0  0  0  0  0  0  0  0  0  0  0  0
    1.5260    2.1040   -0.2780 C   0  0  0  0  0  0  0  0  0  0  0  0
    0.2400    2.6090   -0.5590 N   0  0  0  0  0  0  0  0  0  0  0  0
   -0.6770    1.5650   -0.4440 C   0  0  0  0  0  0  0  0  0  0  0  0
   -0.0340    0.4250   -0.1010 C   0  0  0  0  0  0  0  0  0  0  0  0
   -0.7410   -0.8740    0.0970 C   0  0  0  0  0  0  0  0  0  0  0  0
   -2.1420   -0.7490   -0.2490 N   0  0  0  0  0  0  0  0  0  0  0  0
   -2.9500   -1.9420    0.2260 C   0  0  0  0  0  0  0  0  0  0  0  0
   -3.1960   -0.5580    0.6640 C   0  0  0  0  0  0  0  0  0  0  0  0
    1.3740    0.6450    0.0290 C   0  0  0  0  0  0  0  0  0  0  0  0
    2.4240   -0.1170    0.3010 C   0  0  0  0  0  0  0  0  0  0  0  0
    2.6180   -1.5070    0.6170 C   0  0  2  0  0  0  0  0  0  0  0  0
    2.4960   -2.6480   -0.9630 Br  0  0  0  0  0  0  0  0  0  0  0  0
    1.6480   -2.2630    2.0530 Br  0  0  0  0  0  0  0  0  0  0  0  0
    4.5530   -1.7060    1.1260 Br  0  0  0  0  0  0  0  0  0  0  0  0
  1  2  1  0
  2  3  2  3
  3  4  1  0
  3 11  1  0
  4  5  1  0
  5  6  2  0
  6  7  1  0
  6 11  1  0
  7  8  1  0
  8  9  1  0
  8 10  1  0
  9 10  1  0
 11 12  2  3
 12 13  1  0
 13 14  1  6
 13 15  1  0
 13 16  1  0
M  END
