
     RDKit          3D

 16 17  0  0  0  0  0  0  0  0999 V2000
    1.1080   -0.4760    2.1090 C   0  0  0  0  0  0  0  0  0  0  0  0
    1.4230    0.0490    0.9360 C   0  0  0  0  0  0  0  0  0  0  0  0
    2.6170    0.8750    0.6780 C   0  0  0  0  0  0  0  0  0  0  0  0
    2.5280    1.2000   -0.7620 C   0  0  0  0  0  0  0  0  0  0  0  0
    3.8140    2.2690   -1.7310 Br  0  0  0  0  0  0  0  0  0  0  0  0
    1.4390    0.6440   -1.2570 C   0  0  0  0  0  0  0  0  0  0  0  0
    0.7030   -0.0780   -0.2900 N   0  0  0  0  0  0  0  0  0  0  0  0
   -0.5150   -0.7980   -0.4310 C   0  0  0  0  0  0  0  0  0  0  0  0
   -0.5930   -2.1410   -0.6720 N   0  0  0  0  0  0  0  0  0  0  0  0
   -1.8780   -2.5110   -0.7650 C   0  0  0  0  0  0  0  0  0  0  0  0
   -2.6000   -1.3920   -0.5810 N   0  0  0  0  0  0  0  0  0  0  0  0
   -1.8020   -0.3350   -0.3760 C   0  0  0  0  0  0  0  0  0  0  0  0
   -2.2380    1.0540   -0.1470 C   0  0  2  0  0  0  0  0  0  0  0  0
   -1.6430    1.7170    1.5480 Br  0  0  0  0  0  0  0  0  0  0  0  0
   -4.1690    1.1890   -0.2470 Br  0  0  0  0  0  0  0  0  0  0  0  0
   -1.5280    2.2170   -1.5320 Br  0  0  0  0  0  0  0  0  0  0  0  0
  1  2  2  0
  2  3  1  0
  2  7  1  0
  3  4  1  0
  4  5  1  0
  4  6  2  0
  6  7  1  0
  7  8  1  0
  8  9  1  0
  8 12  2  0
  9 10  2  0
 10 11  1  0
 11 12  1  0
 12 13  1  0
 13 14  1  1
 13 15  1  0
 13 16  1  0
M  END
