
     RDKit          3D

 15 16  0  0  0  0  0  0  0  0999 V2000
   -1.3320    2.6220   -0.1760 Br  0  0  0  0  0  0  0  0  0  0  0  0
   -2.3290    0.9330   -0.1960 C   0  0  0  0  0  0  0  0  0  0  0  0
   -3.6600    1.0060   -0.2950 C   0  0  0  0  0  0  0  0  0  0  0  0
   -4.2570   -0.7040   -0.1870 S   0  0  0  0  0  0  0  0  0  0  0  0
   -2.5590   -1.3890   -0.0150 C   0  0  0  0  0  0  0  0  0  0  0  0
   -1.7180   -0.2640   -0.0540 C   0  0  0  0  0  0  0  0  0  0  0  0
   -0.2440   -0.4630    0.0210 C   0  0  0  0  0  0  0  0  0  0  0  0
    0.3300   -1.5940    0.4470 N   0  0  0  0  0  0  0  0  0  0  0  0
    1.6780   -1.4790    0.5380 C   0  0  0  0  0  0  0  0  0  0  0  0
    1.9450   -0.1810    0.1380 C   0  0  0  0  0  0  0  0  0  0  0  0
    3.2980    0.4410    0.0690 C   0  0  1  0  0  0  0  0  0  0  0  0
    4.6070   -0.7120    0.8500 Br  0  0  0  0  0  0  0  0  0  0  0  0
    3.7030    0.6060   -1.8430 Br  0  0  0  0  0  0  0  0  0  0  0  0
    3.3360    2.1990    0.8460 Br  0  0  0  0  0  0  0  0  0  0  0  0
    0.7600    0.4070   -0.1720 N   0  0  0  0  0  0  0  0  0  0  0  0
  1  2  1  0
  2  3  2  0
  2  6  1  0
  3  4  1  0
  4  5  1  0
  5  6  2  0
  6  7  1  0
  7  8  2  0
  7 15  1  0
  8  9  1  0
  9 10  2  0
 10 11  1  0
 10 15  1  0
 11 12  1  1
 11 13  1  0
 11 14  1  0
M  END
