
     RDKit          3D

 15 16  0  0  0  0  0  0  0  0999 V2000
   -2.6620    3.2870   -1.7590 Br  0  0  0  0  0  0  0  0  0  0  0  0
   -2.3110    1.6160   -0.8280 C   0  0  0  0  0  0  0  0  0  0  0  0
   -3.8320    0.6510   -0.3020 Br  0  0  0  0  0  0  0  0  0  0  0  0
   -1.0900    1.2320   -0.6060 C   0  0  0  0  0  0  0  0  0  0  0  0
    0.2980    2.3010   -1.1900 S   0  0  0  0  0  0  0  0  0  0  0  0
    1.5500    1.2840   -0.6160 C   0  0  0  0  0  0  0  0  0  0  0  0
    2.9690    1.1110   -0.5100 C   0  0  0  0  0  0  0  0  0  0  0  0
    3.1550   -0.0280    0.1230 N   0  0  0  0  0  0  0  0  0  0  0  0
    1.9730   -0.5960    0.4300 N   0  0  0  0  0  0  0  0  0  0  0  0
    0.9330    0.1960   -0.0160 C   0  0  0  0  0  0  0  0  0  0  0  0
   -0.4330    0.1890   -0.0220 C   0  0  0  0  0  0  0  0  0  0  0  0
   -1.1720   -0.8120    0.5250 C   0  0  0  0  0  0  0  0  0  0  0  0
   -0.6390   -2.0120    1.1960 C   0  0  2  0  0  0  0  0  0  0  0  0
   -0.1250   -3.2620   -0.2000 Br  0  0  0  0  0  0  0  0  0  0  0  0
   -2.0890   -2.9210    2.1500 Br  0  0  0  0  0  0  0  0  0  0  0  0
  1  2  1  0
  2  3  1  0
  2  4  2  3
  4  5  1  0
  4 11  1  0
  5  6  1  0
  6  7  1  0
  6 10  2  0
  7  8  2  0
  8  9  1  0
  9 10  1  0
 10 11  1  0
 11 12  2  3
 12 13  1  0
 13 14  1  6
 13 15  1  0
M  END
