
     RDKit          3D

 15 16  0  0  0  0  0  0  0  0999 V2000
   -1.7350   -3.1300    1.0240 Br  0  0  0  0  0  0  0  0  0  0  0  0
   -2.0490   -1.2980    0.6180 C   0  0  0  0  0  0  0  0  0  0  0  0
   -1.0010   -0.5640    0.2820 C   0  0  0  0  0  0  0  0  0  0  0  0
    0.2860   -1.1300    0.2330 N   0  0  0  0  0  0  0  0  0  0  0  0
    1.4250   -0.2800   -0.1440 C   0  0  0  0  0  0  0  0  0  0  0  0
    1.0620    1.0030   -0.4080 C   0  0  0  0  0  0  0  0  0  0  0  0
    2.5790    1.8030   -0.8290 S   0  0  0  0  0  0  0  0  0  0  0  0
    3.6110    0.3990   -0.6330 C   0  0  0  0  0  0  0  0  0  0  0  0
    5.5380    0.2620   -0.8820 Br  0  0  0  0  0  0  0  0  0  0  0  0
    2.7130   -0.6500   -0.2420 C   0  0  0  0  0  0  0  0  0  0  0  0
    3.4340   -2.4140    0.0880 Br  0  0  0  0  0  0  0  0  0  0  0  0
   -0.2670    1.5420   -0.3460 N   0  0  0  0  0  0  0  0  0  0  0  0
   -1.2750    0.8470   -0.0260 C   0  0  0  0  0  0  0  0  0  0  0  0
   -2.6520    1.3720    0.0460 C   0  0  0  0  0  0  0  0  0  0  0  0
   -2.7130    3.2490   -0.4090 Br  0  0  0  0  0  0  0  0  0  0  0  0
  1  2  1  0
  2  3  2  3
  3  4  1  0
  3 13  1  0
  4  5  1  0
  5  6  2  0
  5 10  1  0
  6  7  1  0
  6 12  1  0
  7  8  1  0
  8  9  1  0
  8 10  2  0
 10 11  1  0
 12 13  2  0
 13 14  1  0
 14 15  1  0
M  END
