
     RDKit          3D

 15 16  0  0  0  0  0  0  0  0999 V2000
   -3.7730    0.7100    0.2750 C   0  0  0  0  0  0  0  0  0  0  0  0
   -2.4730   -0.0100    0.2950 C   0  0  0  0  0  0  0  0  0  0  0  0
   -2.2100   -1.3020    0.4150 N   0  0  0  0  0  0  0  0  0  0  0  0
   -0.8990   -1.5080    0.3820 N   0  0  0  0  0  0  0  0  0  0  0  0
   -0.2750   -0.3410    0.2390 C   0  0  0  0  0  0  0  0  0  0  0  0
    1.1790   -0.0540    0.1510 C   0  0  0  0  0  0  0  0  0  0  0  0
    1.8550    1.4870   -0.0310 S   0  0  0  0  0  0  0  0  0  0  0  0
    3.6340    0.9720   -0.0520 C   0  0  0  0  0  0  0  0  0  0  0  0
    5.0780    2.1160   -0.2260 Br  0  0  0  0  0  0  0  0  0  0  0  0
    3.4800   -0.3640    0.0890 C   0  0  0  0  0  0  0  0  0  0  0  0
    5.1340   -1.4310    0.1290 Br  0  0  0  0  0  0  0  0  0  0  0  0
    2.2680   -0.9220    0.1940 C   0  0  0  0  0  0  0  0  0  0  0  0
    1.9790   -2.8330    0.3990 Br  0  0  0  0  0  0  0  0  0  0  0  0
   -1.2740    0.6290    0.1820 C   0  0  0  0  0  0  0  0  0  0  0  0
   -0.9440    2.4860   -0.0180 Br  0  0  0  0  0  0  0  0  0  0  0  0
  1  2  1  0
  2  3  2  0
  2 14  1  0
  3  4  1  0
  4  5  1  0
  5  6  1  0
  5 14  2  0
  6  7  1  0
  6 12  2  0
  7  8  1  0
  8  9  1  0
  8 10  2  0
 10 11  1  0
 10 12  1  0
 12 13  1  0
 14 15  1  0
M  END
