
     RDKit          3D

 15 16  0  0  0  0  0  0  0  0999 V2000
    0.4880   -1.1730   -3.3280 Br  0  0  0  0  0  0  0  0  0  0  0  0
    0.2680   -1.4970   -1.4220 C   0  0  0  0  0  0  0  0  0  0  0  0
   -0.0180   -0.2750   -0.6760 C   0  0  0  0  0  0  0  0  0  0  0  0
    0.8390    0.7240   -0.3110 C   0  0  0  0  0  0  0  0  0  0  0  0
    2.5750    0.7540   -0.6790 S   0  0  0  0  0  0  0  0  0  0  0  0
    3.5950   -0.0340    0.5610 C   0  0  1  0  0  0  0  0  0  0  0  0
    2.6090   -0.5910    2.1220 Br  0  0  0  0  0  0  0  0  0  0  0  0
    4.4930   -1.5740   -0.2150 Br  0  0  0  0  0  0  0  0  0  0  0  0
    4.9950    1.2350    1.0470 Br  0  0  0  0  0  0  0  0  0  0  0  0
    0.1540    1.6570    0.3620 N   0  0  0  0  0  0  0  0  0  0  0  0
   -1.1550    1.2890    0.4500 C   0  0  0  0  0  0  0  0  0  0  0  0
   -1.2830    0.0820   -0.1930 C   0  0  0  0  0  0  0  0  0  0  0  0
   -2.6960   -0.3310   -0.1060 C   0  0  0  0  0  0  0  0  0  0  0  0
   -3.3190    0.7620    0.6430 C   0  0  0  0  0  0  0  0  0  0  0  0
   -2.4430    1.6380    0.9340 N   0  0  0  0  0  0  0  0  0  0  0  0
  1  2  1  0
  2  3  1  0
  3  4  2  0
  3 12  1  0
  4  5  1  0
  4 10  1  0
  5  6  1  0
  6  7  1  1
  6  8  1  0
  6  9  1  0
 10 11  1  0
 11 12  2  0
 11 15  1  0
 12 13  1  0
 13 14  1  0
 14 15  2  0
M  END
