
     RDKit          3D

 22 22  0  0  0  0  0  0  0  0999 V2000
   -0.2220   -2.6530   -2.2160 C   0  0  0  0  0  0  0  0  0  0  0  0
    0.7550   -1.7430   -1.5140 C   0  0  2  0  0  0  0  0  0  0  0  0
    1.5800   -2.4560   -0.4970 C   0  0  0  0  0  0  0  0  0  0  0  0
    0.0370   -0.5180   -0.9240 C   0  0  1  0  0  0  0  0  0  0  0  0
   -0.9500   -0.8860    0.0180 N   0  0  0  0  0  0  0  0  0  0  0  0
   -2.1810   -0.1240   -0.0120 C   0  0  1  0  0  0  0  0  0  0  0  0
   -2.2910    0.7540   -1.2260 C   0  0  0  0  0  0  0  0  0  0  0  0
   -3.5060    1.4390   -1.1550 O   0  0  0  0  0  0  0  0  0  0  0  0
   -3.3040   -1.1010    0.1210 C   0  0  0  0  0  0  0  0  0  0  0  0
   -4.6420   -0.5290    0.3850 C   0  0  0  0  0  0  0  0  0  0  0  0
   -4.6170    0.3760    1.5710 C   0  0  0  0  0  0  0  0  0  0  0  0
   -3.4750    1.3300    1.5920 C   0  0  1  0  0  0  0  0  0  0  0  0
   -3.3540    1.7920    2.9250 O   0  0  0  0  0  0  0  0  0  0  0  0
   -2.1640    0.7830    1.1920 C   0  0  0  0  0  0  0  0  0  0  0  0
    1.1620    0.2770   -0.2890 C   0  0  0  0  0  0  0  0  0  0  0  0
    1.0460    0.4720    0.9280 O   0  0  0  0  0  0  0  0  0  0  0  0
    2.2380    0.7480   -1.0160 N   0  0  0  0  0  0  0  0  0  0  0  0
    3.3590    1.4780   -0.5660 C   0  0  0  0  0  0  0  0  0  0  0  0
    4.3010    0.8120    0.3500 C   0  0  2  0  0  0  0  0  0  0  0  0
    3.8030    0.3460    1.6640 C   0  0  0  0  0  0  0  0  0  0  0  0
    5.5150    1.7430    0.6180 C   0  0  0  0  0  0  0  0  0  0  0  0
    6.1550    2.0180   -0.5970 O   0  0  0  0  0  0  0  0  0  0  0  0
  2  1  1  1
  2  3  1  0
  2  4  1  0
  4  5  1  1
  4 15  1  0
  5  6  1  0
  6  7  1  6
  6  9  1  0
  6 14  1  0
  7  8  1  0
  9 10  1  0
 10 11  1  0
 11 12  1  0
 12 13  1  1
 12 14  1  0
 15 16  2  0
 15 17  1  0
 17 18  1  0
 18 19  1  0
 19 20  1  1
 19 21  1  0
 21 22  1  0
M  CHG  1   5   1
M  END
