
     RDKit          3D

 22 22  0  0  0  0  0  0  0  0999 V2000
   -1.3610    3.6460    0.6310 C   0  0  0  0  0  0  0  0  0  0  0  0
   -1.2780    2.1590    0.6020 C   0  0  0  0  0  0  0  0  0  0  0  0
   -2.1520    1.4360   -0.0590 C   0  0  0  0  0  0  0  0  0  0  0  0
   -3.2210    2.1690   -0.7700 C   0  0  0  0  0  0  0  0  0  0  0  0
   -4.4480    1.7670   -0.2540 O   0  0  0  0  0  0  0  0  0  0  0  0
   -2.1010    0.0000   -0.1490 C   0  0  0  0  0  0  0  0  0  0  0  0
   -3.0120   -0.6510   -0.8190 C   0  0  0  0  0  0  0  0  0  0  0  0
   -3.1150   -2.0930   -1.0030 C   0  0  0  0  0  0  0  0  0  0  0  0
   -3.0830   -3.0840   -0.0800 C   0  0  0  0  0  0  0  0  0  0  0  0
   -3.2190   -4.2940   -0.7720 C   0  0  0  0  0  0  0  0  0  0  0  0
   -3.3280   -3.9590   -2.1000 C   0  0  0  0  0  0  0  0  0  0  0  0
   -3.2610   -2.6550   -2.1760 O   0  0  0  0  0  0  0  0  0  0  0  0
   -0.9860   -0.7470    0.4810 C   0  0  0  0  0  0  0  0  0  0  0  0
    0.3200   -0.3780   -0.0740 N   0  0  0  0  0  0  0  0  0  0  0  0
    1.3590   -0.4310    0.8940 C   0  0  1  0  0  0  0  0  0  0  0  0
    1.5320   -1.8410    1.2710 N   0  0  0  0  0  0  0  0  0  0  0  0
    2.7080   -0.0310    0.2300 C   0  0  2  0  0  0  0  0  0  0  0  0
    2.6400    1.3950   -0.1860 C   0  0  0  0  0  0  0  0  0  0  0  0
    2.9120   -0.9420   -0.8170 O   0  0  0  0  0  0  0  0  0  0  0  0
    3.8050   -0.2790    1.2280 C   0  0  0  0  0  0  0  0  0  0  0  0
    5.0690   -0.2090    0.7810 O   0  0  0  0  0  0  0  0  0  0  0  0
    5.5380    0.9520    0.2710 C   0  0  0  0  0  0  0  0  0  0  0  0
  1  2  1  0
  2  3  2  3
  3  4  1  0
  3  6  1  0
  4  5  1  0
  6  7  2  3
  6 13  1  0
  7  8  1  0
  8  9  2  0
  8 12  1  0
  9 10  1  0
 10 11  2  0
 11 12  1  0
 13 14  1  0
 14 15  1  0
 15 16  1  6
 15 17  1  0
 17 18  1  6
 17 19  1  0
 17 20  1  0
 20 21  1  0
 21 22  1  0
M  CHG  1  14   1
M  END
