
     RDKit          3D

 17 19  0  0  0  0  0  0  0  0999 V2000
   -3.3950   -1.2170   -0.5570 C   0  0  0  0  0  0  0  0  0  0  0  0
   -2.3020   -0.3790   -0.1250 N   0  0  0  0  0  0  0  0  0  0  0  0
   -2.4730    0.9330    0.4570 C   0  0  0  0  0  0  0  0  0  0  0  0
   -1.1500    1.6050    0.3210 C   0  0  0  0  0  0  0  0  0  0  0  0
   -0.2300    0.5220    0.1020 N   0  0  0  0  0  0  0  0  0  0  0  0
   -0.8990   -0.5980   -0.1520 C   0  0  0  0  0  0  0  0  0  0  0  0
    0.0350   -1.5640   -0.3460 N   0  0  0  0  0  0  0  0  0  0  0  0
    1.2650   -1.0400   -0.2130 C   0  0  0  0  0  0  0  0  0  0  0  0
    2.5390   -1.5630   -0.3060 C   0  0  0  0  0  0  0  0  0  0  0  0
    2.7200   -3.4080   -0.7040 Br  0  0  0  0  0  0  0  0  0  0  0  0
    3.6700   -0.7810   -0.1180 C   0  0  0  0  0  0  0  0  0  0  0  0
    5.4300   -1.5350   -0.2540 Br  0  0  0  0  0  0  0  0  0  0  0  0
    3.5070    0.5600    0.1700 C   0  0  0  0  0  0  0  0  0  0  0  0
    5.0570    1.6370    0.4290 Br  0  0  0  0  0  0  0  0  0  0  0  0
    2.2270    1.0950    0.2660 C   0  0  0  0  0  0  0  0  0  0  0  0
    2.0110    2.9260    0.6600 Br  0  0  0  0  0  0  0  0  0  0  0  0
    1.1160    0.2990    0.0750 C   0  0  0  0  0  0  0  0  0  0  0  0
  1  2  1  0
  2  3  1  0
  2  6  1  0
  3  4  1  0
  4  5  1  0
  5  6  1  0
  5 17  1  0
  6  7  2  0
  7  8  1  0
  8  9  2  0
  8 17  1  0
  9 10  1  0
  9 11  1  0
 11 12  1  0
 11 13  2  0
 13 14  1  0
 13 15  1  0
 15 16  1  0
 15 17  2  0
M  END
