
     RDKit          3D

 22 22  0  0  0  0  0  0  0  0999 V2000
   -2.7260    2.2790   -1.3230 C   0  0  0  0  0  0  0  0  0  0  0  0
   -2.1360    0.9150   -1.1170 C   0  0  1  0  0  0  0  0  0  0  0  0
   -0.8910    0.9150   -0.5070 O   0  0  0  0  0  0  0  0  0  0  0  0
    0.2610    0.4280   -1.0780 C   0  0  0  0  0  0  0  0  0  0  0  0
    0.2100   -0.0520   -2.2230 O   0  0  0  0  0  0  0  0  0  0  0  0
    1.5210    0.4870   -0.3230 C   0  0  0  0  0  0  0  0  0  0  0  0
    2.6150   -0.1130   -1.1870 C   0  0  0  0  0  0  0  0  0  0  0  0
    3.9060   -0.0450   -0.3940 C   0  0  0  0  0  0  0  0  0  0  0  0
    5.0350   -0.6190   -1.1810 C   0  0  0  0  0  0  0  0  0  0  0  0
    6.3480   -0.5930   -0.4830 C   0  0  0  0  0  0  0  0  0  0  0  0
    6.4100   -1.3470    0.7760 C   0  0  0  0  0  0  0  0  0  0  0  0
    7.5530   -1.3710    1.6190 N   0  0  0  0  0  0  0  0  0  0  0  0
    5.4100   -2.0110    1.1410 O   0  0  0  0  0  0  0  0  0  0  0  0
   -3.0730    0.0800   -0.3070 C   0  0  0  0  0  0  0  0  0  0  0  0
   -4.2360    0.5250    0.1350 C   0  0  0  0  0  0  0  0  0  0  0  0
   -5.1620   -0.2920    0.9320 C   0  0  0  0  0  0  0  0  0  0  0  0
   -6.3100    0.1860    1.3520 C   0  0  0  0  0  0  0  0  0  0  0  0
   -6.6720    1.5140    1.0380 N   0  0  0  0  0  0  0  0  0  0  0  0
   -4.7630   -1.6590    1.2420 C   0  0  0  0  0  0  0  0  0  0  0  0
   -5.4960   -2.4310    1.9210 O   0  0  0  0  0  0  0  0  0  0  0  0
   -3.4760   -2.0970    0.7330 C   0  0  0  0  0  0  0  0  0  0  0  0
   -2.6910   -1.3090    0.0210 C   0  0  0  0  0  0  0  0  0  0  0  0
  2  1  1  1
  2  3  1  0
  2 14  1  0
  3  4  1  0
  4  5  2  0
  4  6  1  0
  6  7  1  0
  7  8  1  0
  8  9  1  0
  9 10  1  0
 10 11  1  0
 11 12  1  0
 11 13  2  0
 14 15  2  0
 14 22  1  0
 15 16  1  0
 16 17  2  3
 16 19  1  0
 17 18  1  0
 19 20  2  0
 19 21  1  0
 21 22  2  0
M  CHG  1  18   1
M  END
