
     RDKit          3D

 22 22  0  0  0  0  0  0  0  0999 V2000
   -6.1170   -0.6000    0.0140 C   0  0  0  0  0  0  0  0  0  0  0  0
   -4.8960   -1.1460   -0.6620 C   0  0  1  0  0  0  0  0  0  0  0  0
   -4.2180   -2.0300    0.2060 O   0  0  0  0  0  0  0  0  0  0  0  0
   -5.2210   -1.8250   -1.9380 C   0  0  0  0  0  0  0  0  0  0  0  0
   -5.4600   -2.2900   -2.8080 N   0  0  0  0  0  0  0  0  0  0  0  0
   -3.9650    0.0460   -0.9490 C   0  0  0  0  0  0  0  0  0  0  0  0
   -2.6890   -0.3640   -1.6830 C   0  0  1  0  0  0  0  0  0  0  0  0
   -1.9620    0.8520   -2.1020 C   0  0  0  0  0  0  0  0  0  0  0  0
   -0.5950    0.9950   -1.4830 C   0  0  0  0  0  0  0  0  0  0  0  0
   -0.8590    0.8940    0.0400 C   0  0  2  0  0  0  0  0  0  0  0  0
    0.2990    1.5560    0.7540 C   0  0  1  0  0  0  0  0  0  0  0  0
    0.1470    1.6050    2.1570 N   0  0  0  0  0  0  0  0  0  0  0  0
    1.6090    0.9250    0.3680 C   0  0  0  0  0  0  0  0  0  0  0  0
    2.7630    1.6280    0.9560 C   0  0  0  0  0  0  0  0  0  0  0  0
    4.0070    1.0770    0.5480 O   0  0  0  0  0  0  0  0  0  0  0  0
    4.0980   -0.1800    1.1420 C   0  0  0  0  0  0  0  0  0  0  0  0
    5.3640   -0.9290    0.8600 C   0  0  1  0  0  0  0  0  0  0  0  0
    5.5550   -1.2190   -0.4680 O   0  0  0  0  0  0  0  0  0  0  0  0
    6.5570   -0.2600    1.5090 C   0  0  0  0  0  0  0  0  0  0  0  0
    7.6920   -1.0410    1.5260 O   0  0  0  0  0  0  0  0  0  0  0  0
   -1.1780   -0.4930    0.3590 C   0  0  0  0  0  0  0  0  0  0  0  0
   -1.8510   -1.2220   -0.7690 C   0  0  0  0  0  0  0  0  0  0  0  0
  2  1  1  1
  2  3  1  0
  2  4  1  0
  2  6  1  0
  4  5  3  0
  7  6  1  1
  7  8  1  0
  7 22  1  0
  8  9  1  0
 10  9  1  6
 10 11  1  0
 10 21  1  0
 11 12  1  1
 11 13  1  0
 13 14  1  0
 14 15  1  0
 15 16  1  0
 16 17  1  0
 17 18  1  6
 17 19  1  0
 19 20  1  0
 21 22  1  0
M  CHG  1  12   1
M  END
