
     RDKit          3D

 20 22  0  0  0  0  0  0  0  0999 V2000
   -5.4510    0.5780   -0.2880 C   0  0  0  0  0  0  0  0  0  0  0  0
   -5.2550   -0.8910    0.6900 S   0  0  0  0  0  0  0  0  0  0  0  0
   -3.5820   -1.3590    1.0960 C   0  0  0  0  0  0  0  0  0  0  0  0
   -2.5940   -0.2010    0.9980 C   0  0  1  0  0  0  0  0  0  0  0  0
   -1.2630   -0.6570    1.3880 N   0  0  0  0  0  0  0  0  0  0  0  0
   -0.3820    0.0680    0.4270 C   0  0  1  0  0  0  0  0  0  0  0  0
    0.9730   -0.4240    0.3820 C   0  0  0  0  0  0  0  0  0  0  0  0
    1.4700   -1.7000    0.4640 C   0  0  0  0  0  0  0  0  0  0  0  0
    2.8240   -1.6630    0.4310 N   0  0  0  0  0  0  0  0  0  0  0  0
    3.1990   -0.3850    0.3270 C   0  0  0  0  0  0  0  0  0  0  0  0
    2.0760    0.3920    0.3030 C   0  0  0  0  0  0  0  0  0  0  0  0
    2.1990    1.7990    0.1060 N   0  0  0  0  0  0  0  0  0  0  0  0
    3.3560    2.4020   -0.0710 C   0  0  0  0  0  0  0  0  0  0  0  0
    4.5240    1.6120   -0.0700 N   0  0  0  0  0  0  0  0  0  0  0  0
    4.5910    0.1860    0.1770 C   0  0  2  0  0  0  0  0  0  0  0  0
    5.1420   -0.4440   -1.0390 N   0  0  0  0  0  0  0  0  0  0  0  0
   -1.1380   -0.5010   -0.8310 C   0  0  2  0  0  0  0  0  0  0  0  0
   -0.5380    0.1800   -1.9020 O   0  0  0  0  0  0  0  0  0  0  0  0
   -2.5070    0.0880   -0.5140 C   0  0  2  0  0  0  0  0  0  0  0  0
   -2.5110    1.4340   -0.8230 O   0  0  0  0  0  0  0  0  0  0  0  0
  1  2  1  0
  2  3  1  0
  4  3  1  6
  4  5  1  0
  4 19  1  0
  5  6  1  0
  6  7  1  6
  6 17  1  0
  7  8  2  0
  7 11  1  0
  8  9  1  0
  9 10  1  0
 10 11  2  0
 10 15  1  0
 11 12  1  0
 12 13  2  0
 13 14  1  0
 14 15  1  0
 15 16  1  6
 17 18  1  6
 17 19  1  0
 19 20  1  1
M  END
