
     RDKit          3D

 20 22  0  0  0  0  0  0  0  0999 V2000
   -1.1730   -1.7230   -0.7660 C   0  0  0  0  0  0  0  0  0  0  0  0
   -0.2160   -0.5530   -1.1170 C   0  0  1  0  0  0  0  0  0  0  0  0
    0.3950   -0.9520   -2.3950 C   0  0  0  0  0  0  0  0  0  0  0  0
   -1.1770    0.6110   -1.1510 C   0  0  0  0  0  0  0  0  0  0  0  0
   -1.5680    0.6110    0.2730 N   0  0  0  0  0  0  0  0  0  0  0  0
   -2.8440    0.9570    0.7550 C   0  0  0  0  0  0  0  0  0  0  0  0
   -3.9790    0.8660   -0.0930 N   0  0  0  0  0  0  0  0  0  0  0  0
   -3.0260    1.3620    1.9600 N   0  0  0  0  0  0  0  0  0  0  0  0
   -0.4350    0.2000    1.0720 C   0  0  0  0  0  0  0  0  0  0  0  0
    0.6030   -0.3190    0.0590 C   0  0  1  0  0  0  0  0  0  0  0  0
    1.0810   -1.6780    0.5890 C   0  0  0  0  0  0  0  0  0  0  0  0
    1.6170   -1.5520    1.9960 C   0  0  0  0  0  0  0  0  0  0  0  0
    2.0770   -0.2080    2.1640 N   0  0  0  0  0  0  0  0  0  0  0  0
    2.4840    0.6490    1.0660 C   0  0  0  0  0  0  0  0  0  0  0  0
    1.7380    0.6030   -0.0170 C   0  0  0  0  0  0  0  0  0  0  0  0
    2.1830    1.4830   -1.0750 C   0  0  0  0  0  0  0  0  0  0  0  0
    1.8380    1.6330   -2.2740 N   0  0  0  0  0  0  0  0  0  0  0  0
    3.4690    2.4630   -0.3380 S   0  0  0  0  0  0  0  0  0  0  0  0
    4.7890    2.3110   -1.0690 O   0  0  0  0  0  0  0  0  0  0  0  0
    3.5500    1.4790    1.0660 O   0  0  0  0  0  0  0  0  0  0  0  0
  2  1  1  1
  2  3  1  0
  2  4  1  0
  2 10  1  0
  4  5  1  0
  5  6  1  0
  5  9  1  0
  6  7  1  0
  6  8  2  0
 10  9  1  1
 10 11  1  0
 10 15  1  0
 11 12  1  0
 12 13  1  0
 13 14  1  0
 14 15  2  0
 14 20  1  0
 15 16  1  0
 16 17  2  0
 16 18  1  0
 18 19  2  0
 18 20  1  1
M  CHG  1   8   1
M  END
