
     RDKit          3D

 20 21  0  0  0  0  0  0  0  0999 V2000
   -4.0230   -1.7590    0.5620 C   0  0  0  0  0  0  0  0  0  0  0  0
   -3.2370   -0.5080    0.1550 C   0  0  2  0  0  0  0  0  0  0  0  0
   -3.9670    0.6830    0.6920 C   0  0  0  0  0  0  0  0  0  0  0  0
   -5.3130    0.8050    0.1880 N   0  0  0  0  0  0  0  0  0  0  0  0
   -3.1160   -0.5400   -1.3320 C   0  0  0  0  0  0  0  0  0  0  0  0
   -2.1180   -1.5780   -1.7550 C   0  0  0  0  0  0  0  0  0  0  0  0
   -0.9000   -1.5180   -1.1320 O   0  0  0  0  0  0  0  0  0  0  0  0
   -0.8180   -0.4240   -0.3150 C   0  0  2  0  0  0  0  0  0  0  0  0
    0.4920   -0.2110    0.3640 C   0  0  0  0  0  0  0  0  0  0  0  0
    1.5250   -0.0280   -0.6070 N   0  0  0  0  0  0  0  0  0  0  0  0
    2.7970    0.2150   -0.0770 C   0  0  0  0  0  0  0  0  0  0  0  0
    3.1140    0.2640    1.1510 O   0  0  0  0  0  0  0  0  0  0  0  0
    3.8880    0.4490   -0.8800 N   0  0  0  0  0  0  0  0  0  0  0  0
    5.1600    0.5730   -0.3140 C   0  0  0  0  0  0  0  0  0  0  0  0
    6.0020    1.1370   -0.9110 N   0  0  0  0  0  0  0  0  0  0  0  0
    7.2840    1.3170   -0.4160 C   0  0  0  0  0  0  0  0  0  0  0  0
    7.3560    1.0190    1.0700 C   0  0  0  0  0  0  0  0  0  0  0  0
    6.0730   -0.2970    1.0120 S   0  0  0  0  0  0  0  0  0  0  0  0
   -1.8580   -0.5390    0.7750 C   0  0  1  0  0  0  0  0  0  0  0  0
   -1.6600    0.5640    1.6940 N   0  0  0  0  0  0  0  0  0  0  0  0
  2  1  1  1
  2  3  1  0
  2  5  1  0
  2 19  1  0
  3  4  1  0
  5  6  1  0
  6  7  1  0
  7  8  1  0
  8  9  1  1
  8 19  1  0
  9 10  1  0
 10 11  1  0
 11 12  2  0
 11 13  1  0
 13 14  1  0
 14 15  2  0
 14 18  1  0
 15 16  1  0
 16 17  1  0
 17 18  1  0
 19 20  1  1
M  CHG  1   4   1
M  END
