
     RDKit          3D

 20 21  0  0  0  0  0  0  0  0999 V2000
   -3.9220    1.4100   -0.4280 C   0  0  0  0  0  0  0  0  0  0  0  0
   -2.9080    0.3020   -0.6810 C   0  0  2  0  0  0  0  0  0  0  0  0
   -2.9260    0.0210   -2.1600 C   0  0  0  0  0  0  0  0  0  0  0  0
   -3.3710   -0.8990    0.1340 C   0  0  0  0  0  0  0  0  0  0  0  0
   -2.5170   -2.0680   -0.2340 C   0  0  0  0  0  0  0  0  0  0  0  0
   -1.0670   -1.7480   -0.3610 C   0  0  0  0  0  0  0  0  0  0  0  0
   -0.6680   -0.4230    0.1980 C   0  0  1  0  0  0  0  0  0  0  0  0
    0.6760   -0.1740   -0.2460 O   0  0  0  0  0  0  0  0  0  0  0  0
    1.7370   -0.0980    0.6190 C   0  0  0  0  0  0  0  0  0  0  0  0
    1.4750   -0.2600    1.8530 O   0  0  0  0  0  0  0  0  0  0  0  0
    3.1070    0.1500    0.2150 C   0  0  0  0  0  0  0  0  0  0  0  0
    4.0910    0.2140    1.0920 C   0  0  0  0  0  0  0  0  0  0  0  0
    3.7010    0.0180    2.4690 N   0  0  0  0  0  0  0  0  0  0  0  0
    5.4380    0.4540    0.7350 N   0  0  0  0  0  0  0  0  0  0  0  0
    5.8050    0.6400   -0.5890 N   0  0  0  0  0  0  0  0  0  0  0  0
    4.7810    0.5820   -1.5810 C   0  0  0  0  0  0  0  0  0  0  0  0
    5.1660    0.7960   -3.1480 S   0  0  0  0  0  0  0  0  0  0  0  0
    3.4430    0.3360   -1.1500 N   0  0  0  0  0  0  0  0  0  0  0  0
   -1.5680    0.7060   -0.1590 C   0  0  2  0  0  0  0  0  0  0  0  0
   -1.8080    1.5390    1.0310 N   0  0  0  0  0  0  0  0  0  0  0  0
  2  1  1  6
  2  3  1  0
  2  4  1  0
  2 19  1  0
  4  5  1  0
  5  6  1  0
  6  7  1  0
  7  8  1  6
  7 19  1  0
  8  9  1  0
  9 10  2  0
  9 11  1  0
 11 12  2  0
 11 18  1  0
 12 13  1  0
 12 14  1  0
 14 15  1  0
 15 16  1  0
 16 17  2  0
 16 18  1  0
 19 20  1  1
M  END
