
     RDKit          3D

 20 21  0  0  0  0  0  0  0  0999 V2000
    3.3350    0.5580   -2.1800 N   0  0  0  0  0  0  0  0  0  0  0  0
    3.8200   -0.0660   -0.9700 C   0  0  0  0  0  0  0  0  0  0  0  0
    2.7800   -0.1680    0.0800 C   0  0  0  0  0  0  0  0  0  0  0  0
    1.5390   -0.9310   -0.1870 C   0  0  0  0  0  0  0  0  0  0  0  0
    0.6590   -0.9990    0.7170 N   0  0  0  0  0  0  0  0  0  0  0  0
   -0.6040   -1.6380    0.7660 C   0  0  1  0  0  0  0  0  0  0  0  0
   -1.7810   -0.7570    0.5570 C   0  0  0  0  0  0  0  0  0  0  0  0
   -1.6350    0.5350    0.3700 C   0  0  0  0  0  0  0  0  0  0  0  0
   -0.3210    0.9660    0.3880 O   0  0  0  0  0  0  0  0  0  0  0  0
   -2.6820    1.5870    0.1420 C   0  0  0  0  0  0  0  0  0  0  0  0
   -3.7990    1.0300   -0.7220 C   0  0  0  0  0  0  0  0  0  0  0  0
   -4.7530    0.2750    0.1610 C   0  0  0  0  0  0  0  0  0  0  0  0
   -4.2680   -1.0370    0.4250 N   0  0  0  0  0  0  0  0  0  0  0  0
   -3.0790   -1.4620    0.5850 C   0  0  0  0  0  0  0  0  0  0  0  0
   -0.6790   -2.8670   -0.5980 S   0  0  0  0  0  0  0  0  0  0  0  0
    0.2330   -2.0670   -1.9740 C   0  0  0  0  0  0  0  0  0  0  0  0
    1.3960   -1.5320   -1.4030 O   0  0  0  0  0  0  0  0  0  0  0  0
    2.9890    0.4310    1.2320 C   0  0  0  0  0  0  0  0  0  0  0  0
    4.1990    1.1480    1.4150 N   0  0  0  0  0  0  0  0  0  0  0  0
    2.0780    0.4070    2.3190 N   0  0  0  0  0  0  0  0  0  0  0  0
  1  2  1  0
  2  3  1  0
  3  4  1  0
  3 18  2  3
  4  5  2  0
  4 17  1  0
  5  6  1  0
  6  7  1  6
  6 15  1  0
  7  8  2  0
  7 14  1  0
  8  9  1  0
  8 10  1  0
 10 11  1  0
 11 12  1  0
 12 13  1  0
 13 14  2  0
 15 16  1  0
 16 17  1  0
 18 19  1  0
 18 20  1  0
M  END
