
     RDKit          3D

 20 21  0  0  0  0  0  0  0  0999 V2000
    5.2610   -1.3430   -0.0260 C   0  0  0  0  0  0  0  0  0  0  0  0
    5.0840    0.1360    0.1910 C   0  0  2  0  0  0  0  0  0  0  0  0
    6.2650    0.8250    0.7810 C   0  0  0  0  0  0  0  0  0  0  0  0
    3.8250    0.4480    0.8370 N   0  0  0  0  0  0  0  0  0  0  0  0
    2.7060    0.4010    0.0180 C   0  0  0  0  0  0  0  0  0  0  0  0
    1.3470    0.1430    0.5550 C   0  0  0  0  0  0  0  0  0  0  0  0
    1.1390   -0.0490    1.7920 O   0  0  0  0  0  0  0  0  0  0  0  0
    0.1980    0.0950   -0.2890 N   0  0  0  0  0  0  0  0  0  0  0  0
   -1.0620   -0.1530    0.2640 N   0  0  0  0  0  0  0  0  0  0  0  0
   -2.1290    0.7660    0.0810 C   0  0  0  0  0  0  0  0  0  0  0  0
   -1.8930    1.8010   -0.5940 O   0  0  0  0  0  0  0  0  0  0  0  0
   -3.4910    0.4940    0.6840 C   0  0  2  0  0  0  0  0  0  0  0  0
   -3.9660   -0.8020    0.2030 C   0  0  0  0  0  0  0  0  0  0  0  0
   -5.0880   -0.9350   -0.4690 C   0  0  0  0  0  0  0  0  0  0  0  0
   -5.4760   -2.2480   -0.9010 N   0  0  0  0  0  0  0  0  0  0  0  0
   -5.9580    0.1860   -0.8010 C   0  0  0  0  0  0  0  0  0  0  0  0
   -5.5600    1.3720   -0.3880 C   0  0  0  0  0  0  0  0  0  0  0  0
   -4.3620    1.5600    0.3350 N   0  0  0  0  0  0  0  0  0  0  0  0
    2.8930    0.5890   -1.2660 C   0  0  0  0  0  0  0  0  0  0  0  0
    4.6520    0.8480   -1.4620 S   0  0  0  0  0  0  0  0  0  0  0  0
  2  1  1  6
  2  3  1  0
  2  4  1  0
  2 20  1  0
  4  5  1  0
  5  6  1  0
  5 19  2  0
  6  7  2  0
  6  8  1  0
  8  9  1  0
  9 10  1  0
 10 11  2  0
 12 10  1  6
 12 13  1  0
 12 18  1  0
 13 14  2  0
 14 15  1  0
 14 16  1  0
 16 17  2  0
 17 18  1  0
 19 20  1  0
M  END
