
     RDKit          3D

 47 51  0  0  0  0  0  0  0  0999 V2000
    3.6520    1.2700    1.9170 C   0  0  0  0  0  0  0  0  0  0  0  0
    5.1400    1.4190    1.8250 C   0  0  0  0  0  0  0  0  0  0  0  0
    5.9420    1.8470    2.8450 N   0  0  0  0  0  0  0  0  0  0  0  0
    7.2260    1.8770    2.4460 C   0  0  0  0  0  0  0  0  0  0  0  0
    8.4180    2.2750    3.2380 C   0  0  0  0  0  0  0  0  0  0  0  0
    7.2480    1.4580    1.1350 C   0  0  0  0  0  0  0  0  0  0  0  0
    8.4030    1.3190    0.2760 C   0  0  0  0  0  0  0  0  0  0  0  0
    9.2360    0.1980    0.3600 C   0  0  0  0  0  0  0  0  0  0  0  0
   10.3180    0.0770   -0.4550 C   0  0  0  0  0  0  0  0  0  0  0  0
   10.6320    1.0450   -1.3850 C   0  0  0  0  0  0  0  0  0  0  0  0
    9.8270    2.1520   -1.4830 C   0  0  0  0  0  0  0  0  0  0  0  0
    8.7260    2.2950   -0.6670 C   0  0  0  0  0  0  0  0  0  0  0  0
    5.9380    1.1700    0.7450 C   0  0  0  0  0  0  0  0  0  0  0  0
    5.6090    0.6900   -0.5800 C   0  0  0  0  0  0  0  0  0  0  0  0
    5.6390   -0.5720   -0.7640 O   0  0  0  0  0  0  0  0  0  0  0  0
    5.2740    1.4410   -1.6660 O   0  0  0  0  0  0  0  0  0  0  0  0
    4.9690    1.1030   -2.9530 C   0  0  0  0  0  0  0  0  0  0  0  0
    3.8320    0.3100   -3.3200 C   0  0  0  0  0  0  0  0  0  0  0  0
    3.7970   -0.0530   -4.5700 O   0  0  0  0  0  0  0  0  0  0  0  0
    2.7810   -0.1110   -2.5300 N   0  0  0  0  0  0  0  0  0  0  0  0
    1.6590   -0.9620   -3.0130 C   0  0  0  0  0  0  0  0  0  0  0  0
    0.5050   -0.1880   -2.4160 C   0  0  0  0  0  0  0  0  0  0  0  0
    0.9670    0.0530   -1.0090 C   0  0  1  0  0  0  0  0  0  0  0  0
    0.7070   -1.1230   -0.1260 C   0  0  0  0  0  0  0  0  0  0  0  0
    1.6890   -1.5690    0.4880 O   0  0  0  0  0  0  0  0  0  0  0  0
   -0.5690   -1.6980    0.0100 N   0  0  0  0  0  0  0  0  0  0  0  0
   -0.8650   -2.7940    0.8230 C   0  0  0  0  0  0  0  0  0  0  0  0
    0.0540   -3.4680    1.6040 C   0  0  0  0  0  0  0  0  0  0  0  0
   -0.2440   -4.5630    2.3890 C   0  0  0  0  0  0  0  0  0  0  0  0
   -1.5190   -5.0070    2.3980 C   0  0  0  0  0  0  0  0  0  0  0  0
   -2.4750   -4.3760    1.6410 C   0  0  0  0  0  0  0  0  0  0  0  0
   -2.1850   -3.2900    0.8600 C   0  0  0  0  0  0  0  0  0  0  0  0
   -3.2190   -2.6500    0.1330 N   0  0  0  0  0  0  0  0  0  0  0  0
   -4.5180   -3.1330   -0.1180 C   0  0  0  0  0  0  0  0  0  0  0  0
   -4.8580   -4.2450    0.3120 O   0  0  0  0  0  0  0  0  0  0  0  0
   -5.5320   -2.3570   -0.8960 C   0  0  2  0  0  0  0  0  0  0  0  0
   -5.7260   -0.9860   -0.3440 C   0  0  0  0  0  0  0  0  0  0  0  0
   -6.8470   -0.3010   -0.9220 N   0  0  0  0  0  0  0  0  0  0  0  0
   -7.2640    0.7260   -0.0280 C   0  0  0  0  0  0  0  0  0  0  0  0
   -8.4230    1.5550   -0.4670 C   0  0  0  0  0  0  0  0  0  0  0  0
   -8.7760    2.6220    0.5750 C   0  0  1  0  0  0  0  0  0  0  0  0
   -7.6420    3.5730    0.8330 C   0  0  0  0  0  0  0  0  0  0  0  0
   -9.9890    3.4010    0.1600 C   0  0  0  0  0  0  0  0  0  0  0  0
   -7.8580   -1.1640   -1.4280 C   0  0  0  0  0  0  0  0  0  0  0  0
   -7.8030   -2.4400   -0.5730 C   0  0  0  0  0  0  0  0  0  0  0  0
   -6.6870   -3.1180   -0.9910 O   0  0  0  0  0  0  0  0  0  0  0  0
    2.4990    0.1650   -1.1500 C   0  0  0  0  0  0  0  0  0  0  0  0
  1  2  1  0
  2  3  1  0
  2 13  2  0
  3  4  1  0
  4  5  1  0
  4  6  2  0
  6  7  1  0
  6 13  1  0
  7  8  2  0
  7 12  1  0
  8  9  1  0
  9 10  2  0
 10 11  1  0
 11 12  2  0
 13 14  1  0
 14 15  2  0
 14 16  1  0
 16 17  1  0
 17 18  1  0
 18 19  2  0
 18 20  1  0
 20 21  1  0
 20 47  1  0
 21 22  1  0
 22 23  1  0
 23 24  1  1
 23 47  1  0
 24 25  2  0
 24 26  1  0
 26 27  1  0
 27 28  2  0
 27 32  1  0
 28 29  1  0
 29 30  2  0
 30 31  1  0
 31 32  2  0
 32 33  1  0
 33 34  1  0
 34 35  2  0
 36 34  1  1
 36 37  1  0
 36 46  1  0
 37 38  1  0
 38 39  1  0
 38 44  1  0
 39 40  1  0
 40 41  1  0
 41 42  1  6
 41 43  1  0
 44 45  1  0
 45 46  1  0
M  END
