
     RDKit          3D

 48 52  0  0  0  0  0  0  0  0999 V2000
   -9.3770   -0.8060    1.4330 C   0  0  0  0  0  0  0  0  0  0  0  0
   -9.2120   -2.2020    1.0410 O   0  0  0  0  0  0  0  0  0  0  0  0
   -8.0050   -2.3750    0.2990 C   0  0  0  0  0  0  0  0  0  0  0  0
   -7.0970   -1.3760    0.1750 C   0  0  0  0  0  0  0  0  0  0  0  0
   -5.8910   -1.4320   -0.5380 C   0  0  0  0  0  0  0  0  0  0  0  0
   -5.1920   -0.1440   -0.4870 C   0  0  0  0  0  0  0  0  0  0  0  0
   -5.4940    0.8440   -1.3940 C   0  0  0  0  0  0  0  0  0  0  0  0
   -6.4850    0.6800   -2.4480 C   0  0  0  0  0  0  0  0  0  0  0  0
   -7.2140   -0.3400   -2.5530 O   0  0  0  0  0  0  0  0  0  0  0  0
   -4.7340    2.0510   -1.1290 C   0  0  1  0  0  0  0  0  0  0  0  0
   -5.5900    3.3030   -0.9080 C   0  0  0  0  0  0  0  0  0  0  0  0
   -6.3770    3.1650    0.3370 C   0  0  0  0  0  0  0  0  0  0  0  0
   -7.5910    3.2670    0.3560 O   0  0  0  0  0  0  0  0  0  0  0  0
   -5.5920    2.8910    1.5470 N   0  0  0  0  0  0  0  0  0  0  0  0
   -4.2630    2.5710    1.2520 C   0  0  0  0  0  0  0  0  0  0  0  0
   -3.3670    2.9890    2.0400 O   0  0  0  0  0  0  0  0  0  0  0  0
   -3.8900    1.7380    0.0390 C   0  0  1  0  0  0  0  0  0  0  0  0
   -4.2130    0.3610    0.4210 C   0  0  2  0  0  0  0  0  0  0  0  0
   -3.0940   -0.5530    0.5920 N   0  0  0  0  0  0  0  0  0  0  0  0
   -2.1120   -0.7140   -0.4460 C   0  0  0  0  0  0  0  0  0  0  0  0
   -2.4400    0.0280   -1.4660 O   0  0  0  0  0  0  0  0  0  0  0  0
   -0.9900   -1.5220   -0.3380 C   0  0  0  0  0  0  0  0  0  0  0  0
    0.2910   -0.7980    0.0010 C   0  0  0  0  0  0  0  0  0  0  0  0
    0.1890    0.4740    0.6100 C   0  0  0  0  0  0  0  0  0  0  0  0
    1.3500    0.9750    1.1090 C   0  0  0  0  0  0  0  0  0  0  0  0
    2.5450    0.3840    1.0650 C   0  0  0  0  0  0  0  0  0  0  0  0
    3.7010    0.9370    1.6920 N   0  0  0  0  0  0  0  0  0  0  0  0
    4.2080    2.1150    1.0800 C   0  0  0  0  0  0  0  0  0  0  0  0
    3.6330    2.5680    0.0050 O   0  0  0  0  0  0  0  0  0  0  0  0
    5.3720    2.8650    1.6040 C   0  0  0  0  0  0  0  0  0  0  0  0
    6.5880    2.2200    1.0050 C   0  0  0  0  0  0  0  0  0  0  0  0
    7.5450    2.6480    0.2620 C   0  0  0  0  0  0  0  0  0  0  0  0
    8.6290    1.9170   -0.2890 C   0  0  0  0  0  0  0  0  0  0  0  0
    8.5490    0.5380    0.1100 C   0  0  0  0  0  0  0  0  0  0  0  0
    9.6310   -0.3200   -0.4250 C   0  0  2  0  0  0  0  0  0  0  0  0
    9.2470   -1.6940   -0.8570 C   0  0  0  0  0  0  0  0  0  0  0  0
   10.4180   -0.6380    0.9730 C   0  0  0  0  0  0  0  0  0  0  0  0
   10.6490    0.3210   -1.2670 C   0  0  0  0  0  0  0  0  0  0  0  0
   11.2970   -1.0280   -1.8520 C   0  0  0  0  0  0  0  0  0  0  0  0
   11.8260   -2.1730   -2.3290 N   0  0  0  0  0  0  0  0  0  0  0  0
    7.5860    0.0910    0.8670 C   0  0  0  0  0  0  0  0  0  0  0  0
    6.5310    0.8220    1.3830 N   0  0  0  0  0  0  0  0  0  0  0  0
    2.6770   -0.9100    0.4380 C   0  0  0  0  0  0  0  0  0  0  0  0
    1.4810   -1.4170   -0.0640 C   0  0  0  0  0  0  0  0  0  0  0  0
   -5.6110   -2.5970   -1.1570 C   0  0  0  0  0  0  0  0  0  0  0  0
   -6.4830   -3.6900   -1.0690 C   0  0  0  0  0  0  0  0  0  0  0  0
   -7.6950   -3.5860   -0.3400 C   0  0  0  0  0  0  0  0  0  0  0  0
   -8.6080   -4.7270   -0.2000 C   0  0  0  0  0  0  0  0  0  0  0  0
  1  2  1  0
  2  3  1  0
  3  4  2  0
  3 47  1  0
  4  5  1  0
  5  6  1  0
  5 45  2  0
  6  7  2  0
  6 18  1  0
  7  8  1  0
  7 10  1  0
  8  9  2  0
 10 11  1  1
 10 17  1  0
 11 12  1  0
 12 13  2  0
 12 14  1  0
 14 15  1  0
 15 16  2  0
 17 15  1  1
 17 18  1  0
 18 19  1  6
 19 20  1  0
 20 21  2  0
 20 22  1  0
 22 23  1  0
 23 24  2  0
 23 44  1  0
 24 25  1  0
 25 26  2  0
 26 27  1  0
 26 43  1  0
 27 28  1  0
 28 29  2  0
 28 30  1  0
 30 31  1  0
 31 32  2  0
 31 42  1  0
 32 33  1  0
 33 34  2  0
 34 35  1  0
 34 41  1  0
 35 36  1  6
 35 37  1  0
 35 38  1  0
 38 39  1  0
 39 40  3  0
 41 42  2  0
 43 44  2  0
 45 46  1  0
 46 47  2  0
 47 48  1  0
M  END
