
     RDKit          3D

 47 51  0  0  0  0  0  0  0  0999 V2000
    8.0860    4.0450   -4.2710 C   0  0  0  0  0  0  0  0  0  0  0  0
    7.2770    3.0010   -3.5980 C   0  0  0  0  0  0  0  0  0  0  0  0
    6.0260    3.1280   -3.1540 N   0  0  0  0  0  0  0  0  0  0  0  0
    5.6110    1.9620   -2.5830 C   0  0  0  0  0  0  0  0  0  0  0  0
    4.2530    1.7860   -2.0070 C   0  0  0  0  0  0  0  0  0  0  0  0
    6.6020    1.0370   -2.6440 C   0  0  0  0  0  0  0  0  0  0  0  0
    6.7060   -0.3780   -2.1660 C   0  0  0  0  0  0  0  0  0  0  0  0
    6.8770   -0.4760   -0.7120 C   0  0  0  0  0  0  0  0  0  0  0  0
    8.1720   -0.3170   -0.2230 C   0  0  0  0  0  0  0  0  0  0  0  0
    8.4180   -0.2720    1.1210 C   0  0  0  0  0  0  0  0  0  0  0  0
    7.3690   -0.3860    1.9950 C   0  0  0  0  0  0  0  0  0  0  0  0
    6.0520   -0.5500    1.5380 C   0  0  0  0  0  0  0  0  0  0  0  0
    5.8010   -0.5980    0.1720 C   0  0  0  0  0  0  0  0  0  0  0  0
    4.5590   -0.8970   -0.3790 N   0  0  0  0  0  0  0  0  0  0  0  0
    3.3180   -0.8300    0.3580 C   0  0  0  0  0  0  0  0  0  0  0  0
    3.2600   -0.4750    1.5350 O   0  0  0  0  0  0  0  0  0  0  0  0
    2.0870   -1.2210   -0.3790 C   0  0  0  0  0  0  0  0  0  0  0  0
    0.8500   -1.2610    0.1580 N   0  0  0  0  0  0  0  0  0  0  0  0
    0.3380   -2.1720    1.0690 C   0  0  1  0  0  0  0  0  0  0  0  0
    0.8240   -2.2420    2.4660 C   0  0  0  0  0  0  0  0  0  0  0  0
    0.2210   -3.4910    3.1370 C   0  0  0  0  0  0  0  0  0  0  0  0
   -1.2660   -3.4610    3.0540 C   0  0  0  0  0  0  0  0  0  0  0  0
   -1.6650   -3.5050    1.5950 C   0  0  0  0  0  0  0  0  0  0  0  0
   -1.1930   -2.1410    1.0250 C   0  0  2  0  0  0  0  0  0  0  0  0
   -1.6640   -1.9350   -0.2210 O   0  0  0  0  0  0  0  0  0  0  0  0
   -2.7930   -1.4160   -0.7300 C   0  0  0  0  0  0  0  0  0  0  0  0
   -2.9120   -1.2980   -2.1320 C   0  0  0  0  0  0  0  0  0  0  0  0
   -4.0240   -0.7890   -2.7490 C   0  0  0  0  0  0  0  0  0  0  0  0
   -5.0970   -0.3670   -1.9850 C   0  0  0  0  0  0  0  0  0  0  0  0
   -6.1770    0.1330   -2.7040 O   0  0  0  0  0  0  0  0  0  0  0  0
   -7.3940    0.5720   -2.2310 C   0  0  1  0  0  0  0  0  0  0  0  0
   -7.4460    2.0750   -1.9710 C   0  0  0  0  0  0  0  0  0  0  0  0
   -8.5850    0.1880   -3.0480 C   0  0  0  0  0  0  0  0  0  0  0  0
   -5.0340   -0.4580   -0.6450 C   0  0  0  0  0  0  0  0  0  0  0  0
   -3.9110   -0.9670    0.0010 C   0  0  0  0  0  0  0  0  0  0  0  0
   -3.7870   -1.0720    1.3650 O   0  0  0  0  0  0  0  0  0  0  0  0
   -4.7230   -0.6670    2.2860 C   0  0  0  0  0  0  0  0  0  0  0  0
   -4.9480    0.8200    2.3070 C   0  0  0  0  0  0  0  0  0  0  0  0
   -5.9700    1.1820    3.2720 N   0  0  0  0  0  0  0  0  0  0  0  0
   -7.3880    1.2930    3.0580 C   0  0  0  0  0  0  0  0  0  0  0  0
   -7.9460    0.8280    2.0090 O   0  0  0  0  0  0  0  0  0  0  0  0
   -8.0290    1.9910    4.1880 C   0  0  0  0  0  0  0  0  0  0  0  0
   -6.8840    2.4010    5.0790 C   0  0  0  0  0  0  0  0  0  0  0  0
   -5.7610    1.4930    4.6450 C   0  0  0  0  0  0  0  0  0  0  0  0
   -4.8400    1.1060    5.3760 O   0  0  0  0  0  0  0  0  0  0  0  0
    7.6550    1.7230   -3.2990 C   0  0  0  0  0  0  0  0  0  0  0  0
    8.9490    1.1210   -3.6480 C   0  0  0  0  0  0  0  0  0  0  0  0
  1  2  1  0
  2  3  1  0
  2 46  2  0
  3  4  1  0
  4  5  1  0
  4  6  2  0
  6  7  1  0
  6 46  1  0
  7  8  1  0
  8  9  2  0
  8 13  1  0
  9 10  1  0
 10 11  2  0
 11 12  1  0
 12 13  2  0
 13 14  1  0
 14 15  1  0
 15 16  2  0
 15 17  1  0
 17 18  1  0
 19 18  1  1
 19 20  1  0
 19 24  1  0
 20 21  1  0
 21 22  1  0
 22 23  1  0
 23 24  1  0
 24 25  1  6
 25 26  1  0
 26 27  2  0
 26 35  1  0
 27 28  1  0
 28 29  2  0
 29 30  1  0
 29 34  1  0
 30 31  1  0
 31 32  1  6
 31 33  1  0
 34 35  2  0
 35 36  1  0
 36 37  1  0
 37 38  1  0
 38 39  1  0
 39 40  1  0
 39 44  1  0
 40 41  2  0
 40 42  1  0
 42 43  1  0
 43 44  1  0
 44 45  2  0
 46 47  1  0
M  END
