
     RDKit          3D

 47 51  0  0  0  0  0  0  0  0999 V2000
   -8.6600    2.9420    2.4640 C   0  0  0  0  0  0  0  0  0  0  0  0
   -7.8090    2.1720    1.8990 O   0  0  0  0  0  0  0  0  0  0  0  0
   -6.7690    1.5530    1.3760 C   0  0  0  0  0  0  0  0  0  0  0  0
   -5.4730    2.1550    1.4540 C   0  0  0  0  0  0  0  0  0  0  0  0
   -4.3590    1.5510    0.9210 C   0  0  0  0  0  0  0  0  0  0  0  0
   -4.3970    0.3520    0.2830 C   0  0  0  0  0  0  0  0  0  0  0  0
   -3.2940   -0.3440   -0.4130 C   0  0  2  0  0  0  0  0  0  0  0  0
   -3.4020   -1.8150   -0.1780 C   0  0  0  0  0  0  0  0  0  0  0  0
   -3.9230   -2.2200    0.8940 O   0  0  0  0  0  0  0  0  0  0  0  0
   -2.9580   -2.8400   -1.1000 C   0  0  0  0  0  0  0  0  0  0  0  0
   -2.3300   -2.3160   -2.3460 C   0  0  0  0  0  0  0  0  0  0  0  0
   -3.0480   -1.7600   -3.3750 C   0  0  0  0  0  0  0  0  0  0  0  0
   -2.4350   -1.3060   -4.5150 C   0  0  0  0  0  0  0  0  0  0  0  0
   -1.0880   -1.4010   -4.6490 N   0  0  0  0  0  0  0  0  0  0  0  0
   -0.3730   -1.9450   -3.6450 C   0  0  0  0  0  0  0  0  0  0  0  0
    1.0330   -2.0340   -3.8120 O   0  0  0  0  0  0  0  0  0  0  0  0
   -0.9490   -2.4080   -2.4940 C   0  0  0  0  0  0  0  0  0  0  0  0
   -1.9330    0.1530   -0.1580 C   0  0  0  0  0  0  0  0  0  0  0  0
   -0.9630   -0.6950    0.3860 C   0  0  0  0  0  0  0  0  0  0  0  0
    0.3260   -0.2350    0.5580 C   0  0  0  0  0  0  0  0  0  0  0  0
    0.7080    1.0200    0.2220 C   0  0  0  0  0  0  0  0  0  0  0  0
   -0.2450    1.9240   -0.3250 C   0  0  0  0  0  0  0  0  0  0  0  0
   -1.5180    1.4230   -0.4840 C   0  0  0  0  0  0  0  0  0  0  0  0
    0.4300    3.2160   -0.5270 C   0  0  0  0  0  0  0  0  0  0  0  0
    1.9130    2.8880   -0.6120 C   0  0  0  0  0  0  0  0  0  0  0  0
    1.9750    1.6840    0.2220 N   0  0  0  0  0  0  0  0  0  0  0  0
    3.1450    1.2180    0.8770 C   0  0  0  0  0  0  0  0  0  0  0  0
    3.0970    0.0980    1.4360 O   0  0  0  0  0  0  0  0  0  0  0  0
    4.3760    2.0760    0.8750 C   0  0  0  0  0  0  0  0  0  0  0  0
    5.6350    1.2910    1.0930 C   0  0  0  0  0  0  0  0  0  0  0  0
    5.7110    0.5470    2.3530 C   0  0  0  0  0  0  0  0  0  0  0  0
    4.8550    0.5550    3.2680 O   0  0  0  0  0  0  0  0  0  0  0  0
    6.8940   -0.2630    2.5290 N   0  0  0  0  0  0  0  0  0  0  0  0
    6.9780   -1.0700    3.7270 C   0  0  0  0  0  0  0  0  0  0  0  0
    7.9250   -0.2610    1.5480 C   0  0  0  0  0  0  0  0  0  0  0  0
    7.9780   -1.2960    0.6120 C   0  0  0  0  0  0  0  0  0  0  0  0
    8.9830   -1.3440   -0.3510 C   0  0  0  0  0  0  0  0  0  0  0  0
    9.9450   -0.3410   -0.3750 C   0  0  0  0  0  0  0  0  0  0  0  0
   11.0400   -0.3430   -1.3880 C   0  0  0  0  0  0  0  0  0  0  0  0
    9.8960    0.6710    0.5360 C   0  0  0  0  0  0  0  0  0  0  0  0
    8.8920    0.7080    1.4900 C   0  0  0  0  0  0  0  0  0  0  0  0
   -5.6720   -0.2340    0.2140 C   0  0  0  0  0  0  0  0  0  0  0  0
   -6.7870    0.3510    0.7360 C   0  0  0  0  0  0  0  0  0  0  0  0
   -8.0320   -0.3550    0.5920 O   0  0  0  0  0  0  0  0  0  0  0  0
   -8.0270   -1.5870   -0.0470 C   0  0  0  0  0  0  0  0  0  0  0  0
   -9.4070   -2.2170   -0.1100 C   0  0  0  0  0  0  0  0  0  0  0  0
  -10.3220   -1.3240   -0.8380 N   0  0  0  0  0  0  0  0  0  0  0  0
  1  2  1  0
  2  3  1  0
  3  4  2  0
  3 43  1  0
  4  5  1  0
  5  6  2  0
  6  7  1  0
  6 42  1  0
  7  8  1  1
  7 18  1  0
  8  9  2  0
  8 10  1  0
 10 11  1  0
 11 12  2  0
 11 17  1  0
 12 13  1  0
 13 14  2  0
 14 15  1  0
 15 16  1  0
 15 17  2  0
 18 19  2  0
 18 23  1  0
 19 20  1  0
 20 21  2  0
 21 22  1  0
 21 26  1  0
 22 23  2  0
 22 24  1  0
 24 25  1  0
 25 26  1  0
 26 27  1  0
 27 28  2  0
 27 29  1  0
 29 30  1  0
 30 31  1  0
 31 32  2  0
 31 33  1  0
 33 34  1  0
 33 35  1  0
 35 36  2  0
 35 41  1  0
 36 37  1  0
 37 38  2  0
 38 39  1  0
 38 40  1  0
 40 41  2  0
 42 43  2  0
 43 44  1  0
 44 45  1  0
 45 46  1  0
 46 47  1  0
M  END
