
     RDKit          3D

 22 23  0  0  0  0  0  0  0  0999 V2000
   -2.0300    3.1090   -1.7300 O   0  0  0  0  0  0  0  0  0  0  0  0
   -1.3960    2.9080   -0.6790 C   0  0  0  0  0  0  0  0  0  0  0  0
   -1.9160    3.2670    0.5760 O   0  0  0  0  0  0  0  0  0  0  0  0
   -0.0500    2.2710   -0.7290 C   0  0  0  0  0  0  0  0  0  0  0  0
   -0.2190    0.7750   -0.9210 C   0  0  2  0  0  0  0  0  0  0  0  0
   -0.9740    0.2460    0.1900 N   0  0  0  0  0  0  0  0  0  0  0  0
   -2.2330   -0.3440   -0.0380 C   0  0  0  0  0  0  0  0  0  0  0  0
   -2.6440   -0.3800   -1.2300 O   0  0  0  0  0  0  0  0  0  0  0  0
   -3.0670   -0.9120    1.0810 C   0  0  0  0  0  0  0  0  0  0  0  0
   -4.3570   -1.4540    0.5310 C   0  0  0  0  0  0  0  0  0  0  0  0
   -5.0540   -0.4140   -0.0930 O   0  0  0  0  0  0  0  0  0  0  0  0
    1.1160    0.1310   -0.9700 C   0  0  0  0  0  0  0  0  0  0  0  0
    1.7010   -0.3290   -2.0820 N   0  0  0  0  0  0  0  0  0  0  0  0
    2.8840   -0.8490   -1.8140 N   0  0  0  0  0  0  0  0  0  0  0  0
    3.0250   -0.6960   -0.4690 C   0  0  0  0  0  0  0  0  0  0  0  0
    4.1880   -1.1240    0.3000 C   0  0  0  0  0  0  0  0  0  0  0  0
    5.2790   -1.7360   -0.2800 C   0  0  0  0  0  0  0  0  0  0  0  0
    6.2920   -2.0940    0.4770 O   0  0  0  0  0  0  0  0  0  0  0  0
    6.2960   -1.8900    1.7450 O   0  0  0  0  0  0  0  0  0  0  0  0
    5.2840   -1.3200    2.2940 O   0  0  0  0  0  0  0  0  0  0  0  0
    4.2530   -0.9440    1.5990 O   0  0  0  0  0  0  0  0  0  0  0  0
    1.9620   -0.1130    0.0030 O   0  0  0  0  0  0  0  0  0  0  0  0
  1  2  2  0
  2  3  1  0
  2  4  1  0
  5  4  1  1
  5  6  1  0
  5 12  1  0
  6  7  1  0
  7  8  2  0
  7  9  1  0
  9 10  1  0
 10 11  1  0
 12 13  2  0
 12 22  1  0
 13 14  1  0
 14 15  2  0
 15 16  1  0
 15 22  1  0
 16 17  2  0
 16 21  1  0
 17 18  1  0
 18 19  1  0
 19 20  1  0
 20 21  1  0
M  END
