
     RDKit          3D

 10 10  0  0  0  0  0  0  0  0999 V2000
    2.8440    0.9540   -0.4880 O   0  0  0  0  0  0  0  0  0  0  0  0
    2.7470   -0.3450   -0.7580 O   0  0  0  0  0  0  0  0  0  0  0  0
    2.4120   -1.0020    0.4460 C   0  0  0  0  0  0  0  0  0  0  0  0
    1.1770   -0.4350    0.8380 O   0  0  0  0  0  0  0  0  0  0  0  0
    0.2130   -0.6480   -0.1370 C   0  0  0  0  0  0  0  0  0  0  0  0
   -1.0690   -0.0150    0.3550 C   0  0  2  0  0  0  0  0  0  0  0  0
   -2.1100   -0.1860   -0.5810 O   0  0  0  0  0  0  0  0  0  0  0  0
   -3.0230    0.7790   -0.0960 C   0  0  0  0  0  0  0  0  0  0  0  0
   -2.2530    1.7090    0.5990 O   0  0  0  0  0  0  0  0  0  0  0  0
   -0.9950    1.3680    0.4180 O   0  0  0  0  0  0  0  0  0  0  0  0
  1  2  1  0
  2  3  1  0
  3  4  1  0
  4  5  1  0
  6  5  1  6
  6  7  1  0
  6 10  1  0
  7  8  1  0
  8  9  1  0
  9 10  1  0
M  END
