
     RDKit          3D

 10 10  0  0  0  0  0  0  0  0999 V2000
    2.3480   -1.3440    1.0790 O   0  0  0  0  0  0  0  0  0  0  0  0
    2.3830   -0.4070    0.2150 C   0  0  0  0  0  0  0  0  0  0  0  0
    3.5640   -0.0190   -0.3830 O   0  0  0  0  0  0  0  0  0  0  0  0
    1.1930    0.2040   -0.0970 O   0  0  0  0  0  0  0  0  0  0  0  0
   -0.0340   -0.1510    0.4810 C   0  0  2  0  0  0  0  0  0  0  0  0
   -1.0430   -0.5280   -0.6070 C   0  0  0  0  0  0  0  0  0  0  0  0
   -1.8670    0.7400   -0.8490 C   0  0  0  0  0  0  0  0  0  0  0  0
   -2.6370    0.9120    0.3110 O   0  0  0  0  0  0  0  0  0  0  0  0
   -1.8860    0.6550    1.3390 O   0  0  0  0  0  0  0  0  0  0  0  0
   -0.6160    0.9500    1.1510 O   0  0  0  0  0  0  0  0  0  0  0  0
  1  2  2  0
  2  3  1  0
  2  4  1  0
  5  4  1  6
  5  6  1  0
  5 10  1  0
  6  7  1  0
  7  8  1  0
  8  9  1  0
  9 10  1  0
M  END
