
     RDKit          3D

 11 11  0  0  0  0  0  0  0  0999 V2000
   -4.2660   -0.1660   -0.2710 O   0  0  0  0  0  0  0  0  0  0  0  0
   -3.4560    0.5610    0.4860 O   0  0  0  0  0  0  0  0  0  0  0  0
   -2.5550   -0.2480    0.9800 O   0  0  0  0  0  0  0  0  0  0  0  0
   -1.3300    0.1240    0.7750 O   0  0  0  0  0  0  0  0  0  0  0  0
   -1.0930    0.6910   -0.4550 C   0  0  0  0  0  0  0  0  0  0  0  0
    0.3780    1.0570   -0.5060 C   0  0  0  0  0  0  0  0  0  0  0  0
    1.1890   -0.2110   -0.3220 C   0  0  1  0  0  0  0  0  0  0  0  0
    2.5540    0.0780   -0.3610 O   0  0  0  0  0  0  0  0  0  0  0  0
    3.1220   -0.7790    0.5770 C   0  0  0  0  0  0  0  0  0  0  0  0
    2.0960   -1.3880    1.2650 O   0  0  0  0  0  0  0  0  0  0  0  0
    0.9900   -0.7430    0.9470 O   0  0  0  0  0  0  0  0  0  0  0  0
  1  2  1  0
  2  3  1  0
  3  4  1  0
  4  5  1  0
  5  6  1  0
  7  6  1  1
  7  8  1  0
  7 11  1  0
  8  9  1  0
  9 10  1  0
 10 11  1  0
M  END
