
     RDKit          3D

 10 10  0  0  0  0  0  0  0  0999 V2000
   -0.7410   -1.8650    0.1880 C   0  0  0  0  0  0  0  0  0  0  0  0
   -0.1030   -0.5960   -0.2950 C   0  0  1  0  0  0  0  0  0  0  0  0
   -1.0290    0.3670   -0.6710 O   0  0  0  0  0  0  0  0  0  0  0  0
   -1.7730    0.6460    0.3800 O   0  0  0  0  0  0  0  0  0  0  0  0
   -2.6880    1.5110   -0.0290 O   0  0  0  0  0  0  0  0  0  0  0  0
    0.7990    0.0410    0.7450 C   0  0  0  0  0  0  0  0  0  0  0  0
    1.4070    1.2440    0.0290 C   0  0  0  0  0  0  0  0  0  0  0  0
    2.1330    0.7290   -1.0420 O   0  0  0  0  0  0  0  0  0  0  0  0
    1.9390   -0.5400   -1.2220 O   0  0  0  0  0  0  0  0  0  0  0  0
    0.6830   -0.8660   -1.4120 O   0  0  0  0  0  0  0  0  0  0  0  0
  2  1  1  1
  2  3  1  0
  2  6  1  0
  2 10  1  0
  3  4  1  0
  4  5  1  0
  6  7  1  0
  7  8  1  0
  8  9  1  0
  9 10  1  0
M  END
