
     RDKit          3D

 10 10  0  0  0  0  0  0  0  0999 V2000
    3.8800    0.5690   -0.7430 O   0  0  0  0  0  0  0  0  0  0  0  0
    2.6970    0.0300   -0.6940 O   0  0  0  0  0  0  0  0  0  0  0  0
    2.4870   -0.3970    0.6330 C   0  0  0  0  0  0  0  0  0  0  0  0
    1.1950   -0.9730    0.6340 O   0  0  0  0  0  0  0  0  0  0  0  0
    0.3680   -0.0250    0.2640 O   0  0  0  0  0  0  0  0  0  0  0  0
   -0.9320   -0.4330    0.4920 C   0  0  2  0  0  0  0  0  0  0  0  0
   -1.6750   -0.4410   -0.8420 C   0  0  0  0  0  0  0  0  0  0  0  0
   -2.9780   -0.1690   -0.4110 O   0  0  0  0  0  0  0  0  0  0  0  0
   -2.8200    0.7600    0.6140 C   0  0  0  0  0  0  0  0  0  0  0  0
   -1.6110    0.5050    1.2260 O   0  0  0  0  0  0  0  0  0  0  0  0
  1  2  1  0
  2  3  1  0
  3  4  1  0
  4  5  1  0
  6  5  1  6
  6  7  1  0
  6 10  1  0
  7  8  1  0
  8  9  1  0
  9 10  1  0
M  END
