
     RDKit          3D

 10 10  0  0  0  0  0  0  0  0999 V2000
    3.4850   -0.3620    0.0220 O   0  0  0  0  0  0  0  0  0  0  0  0
    2.3690   -0.4690    0.7100 O   0  0  0  0  0  0  0  0  0  0  0  0
    1.3250   -0.8280   -0.1250 C   0  0  0  0  0  0  0  0  0  0  0  0
    0.1120    0.0270    0.0420 C   0  0  1  0  0  0  0  0  0  0  0  0
   -0.3810    0.4800   -1.1930 O   0  0  0  0  0  0  0  0  0  0  0  0
   -1.0520   -0.7160    0.6900 C   0  0  0  0  0  0  0  0  0  0  0  0
   -2.2210    0.2550    0.5580 C   0  0  0  0  0  0  0  0  0  0  0  0
   -1.8210    1.4150    1.2300 O   0  0  0  0  0  0  0  0  0  0  0  0
   -0.7510    1.9070    0.6790 O   0  0  0  0  0  0  0  0  0  0  0  0
    0.3210    1.1450    0.8530 O   0  0  0  0  0  0  0  0  0  0  0  0
  1  2  1  0
  2  3  1  0
  3  4  1  0
  4  5  1  6
  4  6  1  0
  4 10  1  0
  6  7  1  0
  7  8  1  0
  8  9  1  0
  9 10  1  0
M  END
