
     RDKit          3D

 37 41  0  0  0  0  0  0  0  0999 V2000
    6.6800    2.7810   -0.8690 C   0  0  0  0  0  0  0  0  0  0  0  0
    7.5270    2.1040   -1.6110 C   0  0  0  0  0  0  0  0  0  0  0  0
    8.3850    1.0560   -1.0880 C   0  0  0  0  0  0  0  0  0  0  0  0
    8.0620    0.4370    0.2180 C   0  0  0  0  0  0  0  0  0  0  0  0
    6.8360   -0.3100    0.2670 N   0  0  0  0  0  0  0  0  0  0  0  0
    6.7710   -1.7170   -0.1310 C   0  0  0  0  0  0  0  0  0  0  0  0
    7.6630   -2.4620   -0.5710 O   0  0  0  0  0  0  0  0  0  0  0  0
    5.3730   -2.1260    0.0970 C   0  0  0  0  0  0  0  0  0  0  0  0
    4.7770   -3.2450    0.3920 C   0  0  0  0  0  0  0  0  0  0  0  0
    5.5120   -4.4590    0.5640 N   0  0  0  0  0  0  0  0  0  0  0  0
    3.3500   -3.1690    0.5900 N   0  0  0  0  0  0  0  0  0  0  0  0
    2.6270   -1.9640    0.4660 C   0  0  0  0  0  0  0  0  0  0  0  0
    1.1870   -1.8940    0.6850 C   0  0  0  0  0  0  0  0  0  0  0  0
    0.6190   -2.9620    0.9900 O   0  0  0  0  0  0  0  0  0  0  0  0
    0.4410   -0.7200    0.5710 N   0  0  0  0  0  0  0  0  0  0  0  0
   -0.9440   -0.5180    0.7580 C   0  0  0  0  0  0  0  0  0  0  0  0
   -1.7940   -1.4930    1.2100 C   0  0  0  0  0  0  0  0  0  0  0  0
   -3.1730   -1.2600    1.3770 C   0  0  0  0  0  0  0  0  0  0  0  0
   -3.7270   -0.0450    1.0940 C   0  0  0  0  0  0  0  0  0  0  0  0
   -5.1610    0.1540    1.2930 C   0  0  0  0  0  0  0  0  0  0  0  0
   -5.7650   -0.2450    2.4450 N   0  0  0  0  0  0  0  0  0  0  0  0
   -7.0770   -0.0880    2.6720 C   0  0  0  0  0  0  0  0  0  0  0  0
   -7.6470   -0.5000    3.8360 F   0  0  0  0  0  0  0  0  0  0  0  0
   -7.8710    0.4990    1.7140 C   0  0  0  0  0  0  0  0  0  0  0  0
   -7.3270    0.9260    0.5270 C   0  0  0  0  0  0  0  0  0  0  0  0
   -7.8410    1.5350   -0.6120 C   0  0  0  0  0  0  0  0  0  0  0  0
   -9.2610    1.9080   -0.8210 C   0  0  0  0  0  0  0  0  0  0  0  0
   -6.7660    1.6980   -1.4540 C   0  0  0  0  0  0  0  0  0  0  0  0
   -6.8400    2.3200   -2.8180 C   0  0  0  0  0  0  0  0  0  0  0  0
   -5.6480    1.2200   -0.8760 N   0  0  0  0  0  0  0  0  0  0  0  0
   -5.9620    0.7400    0.3410 C   0  0  0  0  0  0  0  0  0  0  0  0
   -2.8690    0.9340    0.6400 C   0  0  0  0  0  0  0  0  0  0  0  0
   -1.5260    0.7100    0.4770 C   0  0  0  0  0  0  0  0  0  0  0  0
    3.2530   -0.8920    0.1500 N   0  0  0  0  0  0  0  0  0  0  0  0
    4.6210   -0.8260   -0.0970 C   0  0  1  0  0  0  0  0  0  0  0  0
    5.5010    0.0350    0.7060 C   0  0  0  0  0  0  0  0  0  0  0  0
    5.2390    0.8850    1.5810 O   0  0  0  0  0  0  0  0  0  0  0  0
  1  2  2  0
  2  3  1  0
  3  4  1  0
  4  5  1  0
  5  6  1  0
  5 36  1  0
  6  7  2  0
  6  8  1  0
  8  9  2  0
  8 35  1  0
  9 10  1  0
  9 11  1  0
 11 12  1  0
 12 13  1  0
 12 34  2  0
 13 14  2  0
 13 15  1  0
 15 16  1  0
 16 17  2  0
 16 33  1  0
 17 18  1  0
 18 19  2  0
 19 20  1  0
 19 32  1  0
 20 21  2  0
 20 31  1  0
 21 22  1  0
 22 23  1  0
 22 24  2  0
 24 25  1  0
 25 26  1  0
 25 31  2  0
 26 27  1  0
 26 28  2  0
 28 29  1  0
 28 30  1  0
 30 31  1  0
 32 33  2  0
 35 34  1  1
 35 36  1  0
 36 37  2  0
M  END
