
     RDKit          3D

 37 41  0  0  0  0  0  0  0  0999 V2000
   -5.7220    3.6490   -0.7070 C   0  0  0  0  0  0  0  0  0  0  0  0
   -6.3080    2.2980   -0.7640 C   0  0  0  0  0  0  0  0  0  0  0  0
   -7.6730    2.1280   -0.8780 C   0  0  0  0  0  0  0  0  0  0  0  0
   -8.2890    0.9040   -0.9370 C   0  0  0  0  0  0  0  0  0  0  0  0
   -7.5160   -0.2350   -0.8800 C   0  0  0  0  0  0  0  0  0  0  0  0
   -6.1310   -0.1000   -0.7660 C   0  0  0  0  0  0  0  0  0  0  0  0
   -5.3340   -1.3440   -0.7070 C   0  0  1  0  0  0  0  0  0  0  0  0
   -4.2000   -1.1900   -1.5950 N   0  0  0  0  0  0  0  0  0  0  0  0
   -3.0900   -1.2700   -0.9520 C   0  0  0  0  0  0  0  0  0  0  0  0
   -1.7920   -1.1610   -1.5290 N   0  0  0  0  0  0  0  0  0  0  0  0
   -3.3190   -1.4870    0.4630 C   0  0  0  0  0  0  0  0  0  0  0  0
   -4.6980   -1.5330    0.6260 C   0  0  0  0  0  0  0  0  0  0  0  0
   -5.2110   -1.7310    1.8900 C   0  0  0  0  0  0  0  0  0  0  0  0
   -4.3720   -1.8810    2.9740 C   0  0  0  0  0  0  0  0  0  0  0  0
   -2.9990   -1.8290    2.7730 C   0  0  0  0  0  0  0  0  0  0  0  0
   -2.2180   -1.9820    3.8670 F   0  0  0  0  0  0  0  0  0  0  0  0
   -2.4510   -1.6330    1.5220 C   0  0  0  0  0  0  0  0  0  0  0  0
   -1.0340   -1.5880    1.3440 N   0  0  0  0  0  0  0  0  0  0  0  0
   -0.2690   -0.4090    1.4180 C   0  0  0  0  0  0  0  0  0  0  0  0
   -0.8190    0.6810    1.6500 O   0  0  0  0  0  0  0  0  0  0  0  0
    1.1640   -0.4630    1.2240 C   0  0  0  0  0  0  0  0  0  0  0  0
    1.9080   -1.6070    0.9550 C   0  0  0  0  0  0  0  0  0  0  0  0
    3.2340   -1.2470    0.8370 C   0  0  0  0  0  0  0  0  0  0  0  0
    4.3900   -2.1630    0.5500 C   0  0  0  0  0  0  0  0  0  0  0  0
    5.2670   -1.6650   -0.4610 N   0  0  0  0  0  0  0  0  0  0  0  0
    6.2030   -0.6270   -0.1940 C   0  0  0  0  0  0  0  0  0  0  0  0
    6.2990   -0.0970    0.9500 O   0  0  0  0  0  0  0  0  0  0  0  0
    7.0630   -0.1540   -1.2240 N   0  0  0  0  0  0  0  0  0  0  0  0
    8.0100    0.8910   -0.9600 C   0  0  0  0  0  0  0  0  0  0  0  0
    8.8280    1.3280   -1.9760 C   0  0  0  0  0  0  0  0  0  0  0  0
    9.7530    2.3340   -1.7490 C   0  0  0  0  0  0  0  0  0  0  0  0
    9.8670    2.9110   -0.5040 C   0  0  0  0  0  0  0  0  0  0  0  0
    9.0250    2.4420    0.4910 C   0  0  0  0  0  0  0  0  0  0  0  0
    8.1300    1.4580    0.2420 N   0  0  0  0  0  0  0  0  0  0  0  0
    3.2450    0.0860    1.0360 N   0  0  0  0  0  0  0  0  0  0  0  0
    2.0410    0.5230    1.2570 O   0  0  0  0  0  0  0  0  0  0  0  0
   -5.5280    1.1370   -0.7080 C   0  0  0  0  0  0  0  0  0  0  0  0
  1  2  1  0
  2  3  2  0
  2 37  1  0
  3  4  1  0
  4  5  2  0
  5  6  1  0
  7  6  1  1
  6 37  2  0
  7  8  1  0
  7 12  1  0
  8  9  2  0
  9 10  1  0
  9 11  1  0
 11 12  2  0
 11 17  1  0
 12 13  1  0
 13 14  2  0
 14 15  1  0
 15 16  1  0
 15 17  2  0
 17 18  1  0
 18 19  1  0
 19 20  2  0
 19 21  1  0
 21 22  2  0
 21 36  1  0
 22 23  1  0
 23 24  1  0
 23 35  2  0
 24 25  1  0
 25 26  1  0
 26 27  2  0
 26 28  1  0
 28 29  1  0
 29 30  2  0
 29 34  1  0
 30 31  1  0
 31 32  2  0
 32 33  1  0
 33 34  2  0
 35 36  1  0
M  END
