
     RDKit          3D

 37 41  0  0  0  0  0  0  0  0999 V2000
   -1.7570   -1.6500    2.0640 C   0  0  0  0  0  0  0  0  0  0  0  0
   -0.9910   -1.8230    0.7510 C   0  0  0  0  0  0  0  0  0  0  0  0
   -1.8380   -2.3100   -0.3260 C   0  0  0  0  0  0  0  0  0  0  0  0
   -2.1050   -1.5730   -1.3890 C   0  0  0  0  0  0  0  0  0  0  0  0
   -1.3930   -0.2710   -1.2280 C   0  0  0  0  0  0  0  0  0  0  0  0
   -1.9540    0.8450   -1.6630 C   0  0  0  0  0  0  0  0  0  0  0  0
   -1.3520    2.1610   -1.5540 C   0  0  0  0  0  0  0  0  0  0  0  0
   -2.0000    3.1600   -1.9700 O   0  0  0  0  0  0  0  0  0  0  0  0
   -0.0510    2.4190   -1.0040 N   0  0  0  0  0  0  0  0  0  0  0  0
    0.3930    3.7640   -0.9560 C   0  0  0  0  0  0  0  0  0  0  0  0
   -0.4120    4.7650   -1.3720 N   0  0  0  0  0  0  0  0  0  0  0  0
   -0.0020    6.0630   -1.3490 C   0  0  0  0  0  0  0  0  0  0  0  0
    1.2540    6.3680   -0.8940 C   0  0  0  0  0  0  0  0  0  0  0  0
    2.1130    5.3740   -0.4570 C   0  0  0  0  0  0  0  0  0  0  0  0
    3.3630    5.3690   -0.0010 N   0  0  0  0  0  0  0  0  0  0  0  0
    3.7350    4.1190    0.2570 C   0  0  0  0  0  0  0  0  0  0  0  0
    2.6630    3.2680   -0.0480 C   0  0  0  0  0  0  0  0  0  0  0  0
    2.7910    1.8430    0.2320 C   0  0  0  0  0  0  0  0  0  0  0  0
    3.5440    1.2180   -0.5800 O   0  0  0  0  0  0  0  0  0  0  0  0
    2.2010    1.1320    1.2690 N   0  0  0  0  0  0  0  0  0  0  0  0
    2.3080   -0.2420    1.5810 C   0  0  0  0  0  0  0  0  0  0  0  0
    2.8880   -1.1750    0.7670 C   0  0  0  0  0  0  0  0  0  0  0  0
    2.9360   -2.5440    1.1240 C   0  0  0  0  0  0  0  0  0  0  0  0
    2.3970   -2.9820    2.3080 C   0  0  0  0  0  0  0  0  0  0  0  0
    2.4510   -4.4360    2.6740 C   0  0  0  0  0  0  0  0  0  0  0  0
    1.8130   -2.0580    3.1330 C   0  0  0  0  0  0  0  0  0  0  0  0
    1.7690   -0.7220    2.7790 C   0  0  0  0  0  0  0  0  0  0  0  0
    1.1950    0.2070    3.5920 F   0  0  0  0  0  0  0  0  0  0  0  0
    1.6540    4.0570   -0.4960 C   0  0  0  0  0  0  0  0  0  0  0  0
   -3.2340    0.6980   -2.3590 C   0  0  0  0  0  0  0  0  0  0  0  0
   -3.8040    1.7470   -2.7890 O   0  0  0  0  0  0  0  0  0  0  0  0
   -3.8540   -0.5470   -2.5710 N   0  0  0  0  0  0  0  0  0  0  0  0
   -2.9390   -1.7320   -2.6090 C   0  0  2  0  0  0  0  0  0  0  0  0
   -3.8330   -2.9000   -2.7020 C   0  0  0  0  0  0  0  0  0  0  0  0
   -3.2690   -4.2010   -2.3240 C   0  0  0  0  0  0  0  0  0  0  0  0
   -2.6270   -4.5630   -1.2500 N   0  0  0  0  0  0  0  0  0  0  0  0
   -2.3470   -3.6720   -0.1800 N   0  0  0  0  0  0  0  0  0  0  0  0
  1  2  1  0
  2  3  1  0
  3  4  2  0
  3 37  1  0
  4  5  1  0
  4 33  1  0
  5  6  2  0
  6  7  1  0
  6 30  1  0
  7  8  2  0
  7  9  1  0
  9 10  1  0
 10 11  2  0
 10 29  1  0
 11 12  1  0
 12 13  2  0
 13 14  1  0
 14 15  1  0
 14 29  2  0
 15 16  1  0
 16 17  2  0
 17 18  1  0
 17 29  1  0
 18 19  2  0
 18 20  1  0
 20 21  1  0
 21 22  2  0
 21 27  1  0
 22 23  1  0
 23 24  2  0
 24 25  1  0
 24 26  1  0
 26 27  2  0
 27 28  1  0
 30 31  2  0
 30 32  1  0
 32 33  1  0
 33 34  1  1
 34 35  1  0
 35 36  2  0
 36 37  1  0
M  END
