
     RDKit          3D

 37 41  0  0  0  0  0  0  0  0999 V2000
   -6.3000   -2.4010    2.2460 N   0  0  0  0  0  0  0  0  0  0  0  0
   -5.0260   -3.0700    2.2140 C   0  0  0  0  0  0  0  0  0  0  0  0
   -3.9970   -2.0770    1.7200 C   0  0  0  0  0  0  0  0  0  0  0  0
   -2.8730   -2.5090    1.6400 O   0  0  0  0  0  0  0  0  0  0  0  0
   -4.2760   -0.7670    1.3720 N   0  0  0  0  0  0  0  0  0  0  0  0
   -3.6770    0.3670    0.9010 C   0  0  0  0  0  0  0  0  0  0  0  0
   -2.4240    0.6090    0.5700 C   0  0  0  0  0  0  0  0  0  0  0  0
   -1.4570   -0.3970    0.6550 N   0  0  0  0  0  0  0  0  0  0  0  0
   -0.0670   -0.2910    0.3350 C   0  0  0  0  0  0  0  0  0  0  0  0
    0.4020    0.7600   -0.0620 O   0  0  0  0  0  0  0  0  0  0  0  0
    0.8070   -1.4140    0.4740 N   0  0  0  0  0  0  0  0  0  0  0  0
    2.1810   -1.4050    0.2000 C   0  0  0  0  0  0  0  0  0  0  0  0
    2.7980   -2.6580    0.1520 C   0  0  0  0  0  0  0  0  0  0  0  0
    4.1240   -2.8370   -0.0840 C   0  0  0  0  0  0  0  0  0  0  0  0
    4.9630   -1.7270   -0.2990 C   0  0  0  0  0  0  0  0  0  0  0  0
    6.3400   -1.9410   -0.5410 N   0  0  0  0  0  0  0  0  0  0  0  0
    6.9800   -3.0220   -0.1170 N   0  0  0  0  0  0  0  0  0  0  0  0
    8.2570   -2.9900   -0.4780 C   0  0  0  0  0  0  0  0  0  0  0  0
    8.4580   -1.8280   -1.1750 C   0  0  0  0  0  0  0  0  0  0  0  0
    7.2010   -1.1930   -1.1870 C   0  0  0  0  0  0  0  0  0  0  0  0
    7.0010    0.1150   -1.8490 C   0  0  1  0  0  0  0  0  0  0  0  0
    7.5720    0.3350   -3.2060 C   0  0  0  0  0  0  0  0  0  0  0  0
    6.1030    0.2730   -3.0150 C   0  0  0  0  0  0  0  0  0  0  0  0
    4.3700   -0.5010   -0.2540 C   0  0  0  0  0  0  0  0  0  0  0  0
    2.9990   -0.3380   -0.0080 C   0  0  0  0  0  0  0  0  0  0  0  0
   -1.9890    2.0050    0.2940 C   0  0  0  0  0  0  0  0  0  0  0  0
   -2.8150    3.0640    0.3930 C   0  0  0  0  0  0  0  0  0  0  0  0
   -2.4200    4.4220    0.1000 C   0  0  0  0  0  0  0  0  0  0  0  0
   -1.2130    4.6630   -0.1620 O   0  0  0  0  0  0  0  0  0  0  0  0
   -3.4260    5.4270    0.1230 N   0  0  0  0  0  0  0  0  0  0  0  0
   -4.7600    5.1210    0.4620 C   0  0  0  0  0  0  0  0  0  0  0  0
   -5.1200    3.8900    0.8280 C   0  0  0  0  0  0  0  0  0  0  0  0
   -4.1690    2.8350    0.9320 C   0  0  1  0  0  0  0  0  0  0  0  0
   -4.6440    1.5050    0.5510 C   0  0  0  0  0  0  0  0  0  0  0  0
   -5.7270    1.2740   -0.1100 C   0  0  0  0  0  0  0  0  0  0  0  0
   -6.1860   -0.0150   -0.6190 C   0  0  0  0  0  0  0  0  0  0  0  0
   -6.4050    0.0780   -2.0310 F   0  0  0  0  0  0  0  0  0  0  0  0
  1  2  1  0
  2  3  1  0
  3  4  2  0
  3  5  1  0
  5  6  1  0
  6  7  2  0
  6 34  1  0
  7  8  1  0
  7 26  1  0
  8  9  1  0
  9 10  2  0
  9 11  1  0
 11 12  1  0
 12 13  2  0
 12 25  1  0
 13 14  1  0
 14 15  2  0
 15 16  1  0
 15 24  1  0
 16 17  1  0
 16 20  1  0
 17 18  2  0
 18 19  1  0
 19 20  2  0
 21 20  1  6
 21 22  1  0
 21 23  1  0
 22 23  1  0
 24 25  2  0
 26 27  2  0
 27 28  1  0
 27 33  1  0
 28 29  2  0
 28 30  1  0
 30 31  1  0
 31 32  2  0
 33 32  1  6
 33 34  1  0
 34 35  2  3
 35 36  1  0
 36 37  1  0
M  END
