
     RDKit          3D

 19 21  0  0  0  0  0  0  0  0999 V2000
    6.7360   -0.5440    0.5960 O   0  0  0  0  0  0  0  0  0  0  0  0
    5.4810   -0.4550    0.3960 C   0  0  0  0  0  0  0  0  0  0  0  0
    4.7990    0.6030    0.8670 N   0  0  0  0  0  0  0  0  0  0  0  0
    3.4740    0.6760    0.6440 C   0  0  0  0  0  0  0  0  0  0  0  0
    2.5600    1.6490    1.0190 C   0  0  0  0  0  0  0  0  0  0  0  0
    1.3380    1.2430    0.5420 C   0  0  0  0  0  0  0  0  0  0  0  0
    1.4980    0.0430   -0.1160 C   0  0  0  0  0  0  0  0  0  0  0  0
    0.4790   -0.7780   -0.7910 C   0  0  0  0  0  0  0  0  0  0  0  0
   -0.8220   -0.1210   -0.6740 N   0  0  0  0  0  0  0  0  0  0  0  0
   -1.4010   -0.4850    0.5870 C   0  0  0  0  0  0  0  0  0  0  0  0
   -2.6610    0.2990    0.8570 C   0  0  1  0  0  0  0  0  0  0  0  0
   -2.3090    1.6650    0.8700 O   0  0  0  0  0  0  0  0  0  0  0  0
   -3.7170   -0.0090   -0.1550 C   0  0  2  0  0  0  0  0  0  0  0  0
   -5.0170    0.7530    0.0640 C   0  0  0  0  0  0  0  0  0  0  0  0
   -4.9630   -0.7220    0.2100 C   0  0  0  0  0  0  0  0  0  0  0  0
    2.8150   -0.2800   -0.0370 N   0  0  0  0  0  0  0  0  0  0  0  0
    3.4960   -1.3010   -0.4880 N   0  0  0  0  0  0  0  0  0  0  0  0
    4.8120   -1.4290   -0.2980 C   0  0  0  0  0  0  0  0  0  0  0  0
    5.4390   -2.4380   -0.7520 O   0  0  0  0  0  0  0  0  0  0  0  0
  1  2  2  0
  2  3  1  0
  2 18  1  0
  3  4  1  0
  4  5  2  0
  4 16  1  0
  5  6  1  0
  6  7  2  0
  7  8  1  0
  7 16  1  0
  8  9  1  0
  9 10  1  0
 10 11  1  0
 11 12  1  6
 11 13  1  0
 13 14  1  1
 13 15  1  0
 14 15  1  0
 16 17  1  0
 17 18  1  0
 18 19  2  0
M  CHG  1   9   1
M  END
