
     RDKit          3D

 19 20  0  0  0  0  0  0  0  0999 V2000
    3.2920   -2.7900    1.1210 C   0  0  0  0  0  0  0  0  0  0  0  0
    3.8300   -1.3900    0.8970 C   0  0  0  0  0  0  0  0  0  0  0  0
    3.3010   -0.7850   -0.3010 N   0  0  0  0  0  0  0  0  0  0  0  0
    1.9350   -0.4150   -0.4240 C   0  0  0  0  0  0  0  0  0  0  0  0
    1.4720    0.8400   -0.4200 C   0  0  0  0  0  0  0  0  0  0  0  0
    2.2560    2.0620   -0.2930 C   0  0  0  0  0  0  0  0  0  0  0  0
    3.5010    1.9500   -0.1720 O   0  0  0  0  0  0  0  0  0  0  0  0
    1.7130    3.3180   -0.2970 O   0  0  0  0  0  0  0  0  0  0  0  0
    2.4360    4.5170   -0.1760 C   0  0  0  0  0  0  0  0  0  0  0  0
    0.0260    0.8190   -0.5660 C   0  0  0  0  0  0  0  0  0  0  0  0
   -0.7390    1.8080   -0.6030 O   0  0  0  0  0  0  0  0  0  0  0  0
   -0.3580   -0.5800   -0.6610 C   0  0  0  0  0  0  0  0  0  0  0  0
   -1.5540   -1.0170   -0.7980 N   0  0  0  0  0  0  0  0  0  0  0  0
   -2.7070   -0.1430   -0.8780 C   0  0  1  0  0  0  0  0  0  0  0  0
   -3.8860   -1.0660   -1.2220 C   0  0  0  0  0  0  0  0  0  0  0  0
   -4.2160   -1.5760    0.1880 C   0  0  0  0  0  0  0  0  0  0  0  0
   -4.3070   -0.2810    0.8810 N   0  0  0  0  0  0  0  0  0  0  0  0
   -3.1200    0.4190    0.4480 C   0  0  0  0  0  0  0  0  0  0  0  0
    0.8570   -1.3370   -0.5690 N   0  0  0  0  0  0  0  0  0  0  0  0
  1  2  1  0
  2  3  1  0
  3  4  1  0
  4  5  2  0
  4 19  1  0
  5  6  1  0
  5 10  1  0
  6  7  2  0
  6  8  1  0
  8  9  1  0
 10 11  2  0
 10 12  1  0
 12 13  2  3
 12 19  1  0
 14 13  1  1
 14 15  1  0
 14 18  1  0
 15 16  1  0
 16 17  1  0
 17 18  1  0
M  CHG  1  17   1
M  END
