
     RDKit          3D

 18 19  0  0  0  0  0  0  0  0999 V2000
    2.6580   -0.3190   -2.3070 C   0  0  0  0  0  0  0  0  0  0  0  0
    2.8040   -0.1980   -0.9980 C   0  0  0  0  0  0  0  0  0  0  0  0
    3.6620   -1.0820   -0.2930 N   0  0  0  0  0  0  0  0  0  0  0  0
    4.1630   -0.7610    0.9920 C   0  0  0  0  0  0  0  0  0  0  0  0
    4.9220   -1.5780    1.5800 O   0  0  0  0  0  0  0  0  0  0  0  0
    3.8030    0.4700    1.5930 N   0  0  0  0  0  0  0  0  0  0  0  0
    2.9510    1.3330    0.8800 C   0  0  0  0  0  0  0  0  0  0  0  0
    2.9000    2.5460    1.1760 O   0  0  0  0  0  0  0  0  0  0  0  0
    2.0840    0.8520   -0.2450 C   0  0  2  0  0  0  0  0  0  0  0  0
    0.8420    0.3570    0.3390 N   0  0  0  0  0  0  0  0  0  0  0  0
   -0.4210    0.9250    0.0350 C   0  0  0  0  0  0  0  0  0  0  0  0
   -0.4320    1.8910   -0.7750 O   0  0  0  0  0  0  0  0  0  0  0  0
   -1.6890    0.3970    0.6510 C   0  0  2  0  0  0  0  0  0  0  0  0
   -1.7830   -1.0900    0.4230 C   0  0  0  0  0  0  0  0  0  0  0  0
   -2.2600   -1.4520   -0.9460 C   0  0  0  0  0  0  0  0  0  0  0  0
   -3.6160   -0.7620   -1.1420 C   0  0  0  0  0  0  0  0  0  0  0  0
   -3.3320    0.7210   -1.0790 C   0  0  0  0  0  0  0  0  0  0  0  0
   -2.8340    1.1240    0.2070 N   0  0  0  0  0  0  0  0  0  0  0  0
  1  2  2  0
  2  3  1  0
  2  9  1  0
  3  4  1  0
  4  5  2  0
  4  6  1  0
  6  7  1  0
  7  8  2  0
  7  9  1  0
  9 10  1  1
 10 11  1  0
 11 12  2  0
 13 11  1  6
 13 14  1  0
 13 18  1  0
 14 15  1  0
 15 16  1  0
 16 17  1  0
 17 18  1  0
M  CHG  1  18   1
M  END
