
     RDKit          3D

 22 24  0  0  0  0  0  0  0  0999 V2000
    7.3210    1.2670    0.2180 O   0  0  0  0  0  0  0  0  0  0  0  0
    6.3260    1.1580    1.3530 S   0  0  1  0  0  0  0  0  0  0  0  0
    6.1690    2.5220    1.9510 O   0  0  0  0  0  0  0  0  0  0  0  0
    4.7870    0.5820    0.7560 C   0  0  0  0  0  0  0  0  0  0  0  0
    4.7120   -0.4580   -0.1250 C   0  0  0  0  0  0  0  0  0  0  0  0
    3.4880   -0.9100   -0.5940 C   0  0  0  0  0  0  0  0  0  0  0  0
    2.2950   -0.3500   -0.2080 C   0  0  0  0  0  0  0  0  0  0  0  0
    1.0270   -0.8480   -0.7190 C   0  0  0  0  0  0  0  0  0  0  0  0
   -0.1860   -0.2960   -0.3410 C   0  0  0  0  0  0  0  0  0  0  0  0
   -1.4060   -0.7740   -0.8310 C   0  0  0  0  0  0  0  0  0  0  0  0
   -2.6890   -0.1450   -0.3930 C   0  0  2  0  0  0  0  0  0  0  0  0
   -2.4900    0.8030    0.7460 C   0  0  0  0  0  0  0  0  0  0  0  0
   -3.8330    1.3430    1.1560 C   0  0  0  0  0  0  0  0  0  0  0  0
   -4.9350    0.8760    0.2100 C   0  0  0  0  0  0  0  0  0  0  0  0
   -4.9740   -0.6160    0.0770 C   0  0  0  0  0  0  0  0  0  0  0  0
   -3.6650   -1.1880   -0.0660 N   0  0  0  0  0  0  0  0  0  0  0  0
   -1.4230   -1.8260   -1.7190 C   0  0  0  0  0  0  0  0  0  0  0  0
   -0.2240   -2.3590   -2.0820 C   0  0  0  0  0  0  0  0  0  0  0  0
    0.9520   -1.8690   -1.5840 N   0  0  0  0  0  0  0  0  0  0  0  0
    2.3840    0.6980    0.6810 C   0  0  0  0  0  0  0  0  0  0  0  0
    3.6140    1.1650    1.1620 C   0  0  0  0  0  0  0  0  0  0  0  0
    3.6780    2.2220    2.0580 O   0  0  0  0  0  0  0  0  0  0  0  0
  1  2  2  0
  2  3  2  0
  2  4  1  6
  4  5  2  0
  4 21  1  0
  5  6  1  0
  6  7  2  0
  7  8  1  0
  7 20  1  0
  8  9  2  0
  8 19  1  0
  9 10  1  0
 11 10  1  1
 10 17  2  0
 11 12  1  0
 11 16  1  0
 12 13  1  0
 13 14  1  0
 14 15  1  0
 15 16  1  0
 17 18  1  0
 18 19  2  0
 20 21  2  0
 21 22  1  0
M  CHG  1  19   1
M  END
