
     RDKit          3D

 19 20  0  0  0  0  0  0  0  0999 V2000
   -1.3250   -2.9740   -0.4030 C   0  0  0  0  0  0  0  0  0  0  0  0
   -1.1070   -1.6910   -1.1590 C   0  0  0  0  0  0  0  0  0  0  0  0
   -0.4930   -0.6640   -0.3030 N   0  0  1  0  0  0  0  0  0  0  0  0
   -1.2450   -0.4540    0.8920 C   0  0  0  0  0  0  0  0  0  0  0  0
   -2.3810    0.4800    0.7280 C   0  0  0  0  0  0  0  0  0  0  0  0
   -2.7030    1.0830   -0.3990 C   0  0  0  0  0  0  0  0  0  0  0  0
   -3.8940    1.9300   -0.1480 C   0  0  0  0  0  0  0  0  0  0  0  0
   -4.1720    1.7110    1.2440 N   0  0  0  0  0  0  0  0  0  0  0  0
   -3.3170    0.8970    1.7210 C   0  0  0  0  0  0  0  0  0  0  0  0
    0.8650   -1.0870   -0.0630 C   0  0  0  0  0  0  0  0  0  0  0  0
    1.8170    0.0520    0.1620 C   0  0  2  0  0  0  0  0  0  0  0  0
    1.4550    0.8290    1.2680 O   0  0  0  0  0  0  0  0  0  0  0  0
    2.0130    0.9170   -1.0470 C   0  0  0  0  0  0  0  0  0  0  0  0
    2.9460    1.9780   -0.6630 N   0  0  0  0  0  0  0  0  0  0  0  0
    4.0900    1.6660    0.1140 C   0  0  0  0  0  0  0  0  0  0  0  0
    5.0100    2.5080    0.2860 O   0  0  0  0  0  0  0  0  0  0  0  0
    4.2130    0.3770    0.7180 N   0  0  0  0  0  0  0  0  0  0  0  0
    3.1460   -0.5440    0.4950 C   0  0  0  0  0  0  0  0  0  0  0  0
    3.3300   -1.7850    0.5790 O   0  0  0  0  0  0  0  0  0  0  0  0
  1  2  1  0
  3  2  1  6
  3  4  1  0
  3 10  1  0
  4  5  1  0
  5  6  2  0
  5  9  1  0
  6  7  1  0
  7  8  1  0
  8  9  2  0
 10 11  1  0
 11 12  1  1
 11 13  1  0
 11 18  1  0
 13 14  1  0
 14 15  1  0
 15 16  2  0
 15 17  1  0
 17 18  1  0
 18 19  2  0
M  CHG  1   3   1
M  END
