
     RDKit          3D

 21 24  0  0  0  0  0  0  0  0999 V2000
    3.8920   -0.4560    1.5220 C   0  0  0  0  0  0  0  0  0  0  0  0
    2.6800   -0.8560    0.7270 C   0  0  2  0  0  0  0  0  0  0  0  0
    2.9820   -1.1510   -0.5970 O   0  0  0  0  0  0  0  0  0  0  0  0
    1.9030   -1.7640   -1.1670 C   0  0  0  0  0  0  0  0  0  0  0  0
    0.5480   -1.2420   -0.7650 C   0  0  1  0  0  0  0  0  0  0  0  0
   -0.1060   -2.2620    0.0900 C   0  0  0  0  0  0  0  0  0  0  0  0
   -1.5790   -2.1750   -0.2100 C   0  0  0  0  0  0  0  0  0  0  0  0
   -2.3470   -3.1030   -0.6990 C   0  0  0  0  0  0  0  0  0  0  0  0
   -3.7060   -2.5560   -0.8170 C   0  0  0  0  0  0  0  0  0  0  0  0
   -3.6120   -1.1670   -0.3220 C   0  0  0  0  0  0  0  0  0  0  0  0
   -2.3320   -0.9560    0.0370 C   0  0  0  0  0  0  0  0  0  0  0  0
   -1.8080    0.2870    0.5850 C   0  0  0  0  0  0  0  0  0  0  0  0
   -0.6050    0.8900    0.0100 C   0  0  1  0  0  0  0  0  0  0  0  0
   -1.1210    1.7860   -1.1410 C   0  0  0  0  0  0  0  0  0  0  0  0
   -1.8320    2.9260   -0.4680 C   0  0  0  0  0  0  0  0  0  0  0  0
   -1.4580    2.9560    0.9700 C   0  0  0  0  0  0  0  0  0  0  0  0
   -0.2590    2.0210    1.0060 C   0  0  0  0  0  0  0  0  0  0  0  0
    0.6120    0.1700   -0.3130 C   0  0  2  0  0  0  0  0  0  0  0  0
    1.0980    0.8130   -1.5090 O   0  0  0  0  0  0  0  0  0  0  0  0
    1.7870    0.3770    0.6470 C   0  0  2  0  0  0  0  0  0  0  0  0
    2.7190    1.4890    0.2020 C   0  0  0  0  0  0  0  0  0  0  0  0
  2  1  1  1
  2  3  1  0
  2 20  1  0
  3  4  1  0
  5  4  1  1
  5  6  1  0
  5 18  1  0
  6  7  1  0
  7  8  2  0
  7 11  1  0
  8  9  1  0
  9 10  1  0
 10 11  2  0
 11 12  1  0
 13 12  1  1
 13 14  1  0
 13 17  1  0
 13 18  1  0
 14 15  1  0
 15 16  1  0
 16 17  1  0
 18 19  1  6
 18 20  1  0
 20 21  1  6
M  END
