
     RDKit          3D

 26 27  0  0  0  0  0  0  0  0999 V2000
    3.8570    1.7460   -6.5940 N   0  0  0  0  0  0  0  0  0  0  0  0
    2.9460    1.4870   -5.5370 C   0  0  0  0  0  0  0  0  0  0  0  0
    1.7490    1.1240   -5.7800 O   0  0  0  0  0  0  0  0  0  0  0  0
    3.4400    1.6550   -4.1770 C   0  0  0  0  0  0  0  0  0  0  0  0
    2.3450    1.3380   -3.3090 N   0  0  0  0  0  0  0  0  0  0  0  0
    2.5410    1.4170   -1.9800 C   0  0  0  0  0  0  0  0  0  0  0  0
    3.6990    1.7740   -1.4840 O   0  0  0  0  0  0  0  0  0  0  0  0
    1.6800    1.1740   -0.9730 N   0  0  0  0  0  0  0  0  0  0  0  0
    0.7820    0.9170   -0.0190 C   0  0  0  0  0  0  0  0  0  0  0  0
    1.3680    1.1190    1.1340 O   0  0  0  0  0  0  0  0  0  0  0  0
   -0.5330    0.5120   -0.0580 N   0  0  0  0  0  0  0  0  0  0  0  0
   -1.1880    0.3210    1.1860 C   0  0  0  0  0  0  0  0  0  0  0  0
   -1.5720   -0.8610    1.5430 C   0  0  0  0  0  0  0  0  0  0  0  0
   -1.4040   -2.0560    0.7930 C   0  0  0  0  0  0  0  0  0  0  0  0
   -1.8350   -3.2530    1.2590 C   0  0  0  0  0  0  0  0  0  0  0  0
   -1.5920   -4.4520    0.3670 C   0  0  0  0  0  0  0  0  0  0  0  0
   -0.0760   -4.4410    0.1280 C   0  0  0  0  0  0  0  0  0  0  0  0
    0.1950   -3.5850   -0.9890 N   0  0  0  0  0  0  0  0  0  0  0  0
   -0.6610   -2.0780   -0.8070 S   0  0  0  0  0  0  0  0  0  0  0  0
   -1.7890   -1.9750   -1.8470 O   0  0  0  0  0  0  0  0  0  0  0  0
   -1.3790    1.5220    1.9840 C   0  0  0  0  0  0  0  0  0  0  0  0
   -0.9660    2.6100    1.5360 O   0  0  0  0  0  0  0  0  0  0  0  0
   -2.0070    1.5130    3.2330 N   0  0  0  0  0  0  0  0  0  0  0  0
   -2.1930    2.7090    4.0180 C   0  0  1  0  0  0  0  0  0  0  0  0
   -3.2900    2.8830    4.9710 C   0  0  0  0  0  0  0  0  0  0  0  0
   -1.9540    2.4810    5.5120 C   0  0  0  0  0  0  0  0  0  0  0  0
  1  2  1  0
  2  3  2  0
  2  4  1  0
  4  5  1  0
  5  6  1  0
  6  7  2  0
  6  8  1  0
  8  9  1  0
  9 10  2  0
  9 11  1  0
 11 12  1  0
 12 13  2  3
 12 21  1  0
 13 14  1  0
 14 15  2  0
 14 19  1  0
 15 16  1  0
 16 17  1  0
 17 18  1  0
 19 18  1  6
 19 20  2  0
 21 22  2  0
 21 23  1  0
 24 23  1  6
 24 25  1  0
 24 26  1  0
 25 26  1  0
M  CHG  1  18   1
M  END
