
     RDKit          3D

 26 28  0  0  0  0  0  0  0  0999 V2000
   -3.2030   -0.9110    1.4880 C   0  0  0  0  0  0  0  0  0  0  0  0
   -4.0340   -0.2070    0.4350 C   0  0  1  0  0  0  0  0  0  0  0  0
   -5.1720   -1.1260    0.1380 C   0  0  0  0  0  0  0  0  0  0  0  0
   -4.9950   -2.4350   -0.3850 N   0  0  0  0  0  0  0  0  0  0  0  0
   -6.3460   -0.7410    0.3530 O   0  0  0  0  0  0  0  0  0  0  0  0
   -4.5560    1.0310    0.9490 N   0  0  0  0  0  0  0  0  0  0  0  0
   -5.0700    1.9410   -0.0120 C   0  0  0  0  0  0  0  0  0  0  0  0
   -5.8100    2.8910    0.3390 O   0  0  0  0  0  0  0  0  0  0  0  0
   -4.7320    1.7750   -1.4490 C   0  0  0  0  0  0  0  0  0  0  0  0
   -3.9530    0.7210   -1.7610 O   0  0  0  0  0  0  0  0  0  0  0  0
   -3.2830    0.0270   -0.8270 C   0  0  1  0  0  0  0  0  0  0  0  0
   -1.9580    0.6750   -0.6090 C   0  0  0  0  0  0  0  0  0  0  0  0
   -1.6250    1.9980   -0.4690 C   0  0  0  0  0  0  0  0  0  0  0  0
   -0.3250    2.2960   -0.2790 C   0  0  0  0  0  0  0  0  0  0  0  0
    0.5680    1.3020   -0.2350 C   0  0  0  0  0  0  0  0  0  0  0  0
    2.0010    1.3510   -0.0460 N   0  0  0  0  0  0  0  0  0  0  0  0
    2.7720    0.1660   -0.0320 C   0  0  0  0  0  0  0  0  0  0  0  0
    2.1650   -0.9320   -0.1920 O   0  0  0  0  0  0  0  0  0  0  0  0
    4.1960    0.2200    0.1560 N   0  0  0  0  0  0  0  0  0  0  0  0
    4.9270   -1.0190    0.1600 C   0  0  1  0  0  0  0  0  0  0  0  0
    6.0260   -0.9570   -0.8650 C   0  0  0  0  0  0  0  0  0  0  0  0
    7.2650   -0.7460   -0.1630 N   0  0  0  0  0  0  0  0  0  0  0  0
    6.9920   -1.0030    1.1990 C   0  0  0  0  0  0  0  0  0  0  0  0
    7.9290   -1.1170    2.0600 O   0  0  0  0  0  0  0  0  0  0  0  0
    5.6140   -1.1070    1.4410 N   0  0  0  0  0  0  0  0  0  0  0  0
   -0.4040   -0.1290   -0.4660 S   0  0  0  0  0  0  0  0  0  0  0  0
  2  1  1  1
  2  3  1  0
  2  6  1  0
  2 11  1  0
  3  4  1  0
  3  5  2  0
  6  7  1  0
  7  8  2  0
  7  9  1  0
  9 10  1  0
 10 11  1  0
 11 12  1  1
 12 13  2  0
 12 26  1  0
 13 14  1  0
 14 15  2  0
 15 16  1  0
 15 26  1  0
 16 17  1  0
 17 18  2  0
 17 19  1  0
 20 19  1  1
 20 21  1  0
 20 25  1  0
 21 22  1  0
 22 23  1  0
 23 24  2  0
 23 25  1  0
M  CHG  1  22   1
M  END
