
     RDKit          3D

 26 27  0  0  0  0  0  0  0  0999 V2000
    3.9470    1.8010   -2.7950 C   0  0  0  0  0  0  0  0  0  0  0  0
    2.8220    2.1370   -1.7990 C   0  0  1  0  0  0  0  0  0  0  0  0
    1.3510    1.2240   -2.1500 S   0  0  0  0  0  0  0  0  0  0  0  0
    1.3340   -0.5200   -1.9780 C   0  0  0  0  0  0  0  0  0  0  0  0
    1.2250   -1.0030   -0.4710 C   0  0  0  0  0  0  0  0  0  0  0  0
   -0.0040   -0.5180    0.0480 N   0  0  0  0  0  0  0  0  0  0  0  0
   -0.1840    0.7890    0.5740 C   0  0  0  0  0  0  0  0  0  0  0  0
    0.7300    1.2740    1.2560 O   0  0  0  0  0  0  0  0  0  0  0  0
   -1.4700    1.5260    0.2800 C   0  0  2  0  0  0  0  0  0  0  0  0
   -2.1620    1.9210    1.4520 N   0  0  0  0  0  0  0  0  0  0  0  0
   -2.4490    3.2950    1.6980 C   0  0  0  0  0  0  0  0  0  0  0  0
   -3.1340    3.7530    2.8440 N   0  0  0  0  0  0  0  0  0  0  0  0
   -2.0700    4.1440    0.8460 O   0  0  0  0  0  0  0  0  0  0  0  0
   -2.2920    0.6980   -0.6830 C   0  0  0  0  0  0  0  0  0  0  0  0
   -2.5130   -0.6330   -0.1020 C   0  0  1  0  0  0  0  0  0  0  0  0
   -3.4770   -1.4740   -0.5100 O   0  0  0  0  0  0  0  0  0  0  0  0
   -3.4380   -2.8230   -0.1660 C   0  0  0  0  0  0  0  0  0  0  0  0
   -4.5040   -3.5120   -0.2330 O   0  0  0  0  0  0  0  0  0  0  0  0
   -2.2440   -3.4580    0.2600 N   0  0  0  0  0  0  0  0  0  0  0  0
   -1.0860   -2.6250    0.3260 C   0  0  0  0  0  0  0  0  0  0  0  0
    0.2090   -3.0950    0.8540 C   0  0  0  0  0  0  0  0  0  0  0  0
   -0.2720   -3.6490    2.1780 N   0  0  0  0  0  0  0  0  0  0  0  0
   -1.1810   -1.3590    0.0240 C   0  0  0  0  0  0  0  0  0  0  0  0
    3.3520    2.0420   -0.4520 C   0  0  0  0  0  0  0  0  0  0  0  0
    4.1510    1.0040    0.0680 N   0  0  0  0  0  0  0  0  0  0  0  0
    3.0910    2.9820    0.3850 O   0  0  0  0  0  0  0  0  0  0  0  0
  2  1  1  6
  2  3  1  0
  2 24  1  0
  3  4  1  0
  4  5  1  0
  5  6  1  0
  6  7  1  0
  6 23  1  0
  7  8  2  0
  7  9  1  0
  9 10  1  1
  9 14  1  0
 10 11  1  0
 11 12  1  0
 11 13  2  0
 15 14  1  6
 15 16  1  0
 15 23  1  0
 16 17  1  0
 17 18  2  0
 17 19  1  0
 19 20  1  0
 20 21  1  0
 20 23  2  0
 21 22  1  0
 24 25  1  0
 24 26  2  0
M  CHG  1  22   1
M  END
