
     RDKit          3D

 25 27  0  0  0  0  0  0  0  0999 V2000
   -1.9460   -1.6780    3.6120 C   0  0  0  0  0  0  0  0  0  0  0  0
   -1.7840   -0.8580    2.3600 C   0  0  0  0  0  0  0  0  0  0  0  0
   -2.7170    0.0250    2.0170 C   0  0  0  0  0  0  0  0  0  0  0  0
   -3.8030    0.1850    2.7900 F   0  0  0  0  0  0  0  0  0  0  0  0
   -2.5760    0.8260    0.8090 C   0  0  0  0  0  0  0  0  0  0  0  0
   -3.4420    1.6940    0.4280 N   0  0  0  0  0  0  0  0  0  0  0  0
   -4.5940    1.8730    1.2350 C   0  0  0  0  0  0  0  0  0  0  0  0
   -4.6260    2.6430    2.2620 N   0  0  0  0  0  0  0  0  0  0  0  0
   -6.0750    0.9780    0.7960 S   0  0  0  0  0  0  0  0  0  0  0  0
   -1.3880    0.6210    0.0060 C   0  0  0  0  0  0  0  0  0  0  0  0
   -1.2050    1.3120   -1.0920 C   0  0  0  0  0  0  0  0  0  0  0  0
   -0.0910    1.1880   -1.9380 N   0  0  0  0  0  0  0  0  0  0  0  0
   -2.2120    2.2730   -1.4720 N   0  0  0  0  0  0  0  0  0  0  0  0
   -0.3940   -0.3540    0.4150 C   0  0  0  0  0  0  0  0  0  0  0  0
    0.7690   -0.5560   -0.3710 N   0  0  0  0  0  0  0  0  0  0  0  0
    2.0320   -0.1870    0.2340 C   0  0  0  0  0  0  0  0  0  0  0  0
    3.1290   -0.4440   -0.6750 C   0  0  0  0  0  0  0  0  0  0  0  0
    3.9180   -1.5230   -0.9120 C   0  0  0  0  0  0  0  0  0  0  0  0
    4.8640   -1.4850   -1.8150 N   0  0  0  0  0  0  0  0  0  0  0  0
    5.8240   -2.3810   -2.2970 C   0  0  0  0  0  0  0  0  0  0  0  0
    6.5710   -1.7780   -3.2780 C   0  0  0  0  0  0  0  0  0  0  0  0
    6.0780   -0.5130   -3.4060 N   0  0  0  0  0  0  0  0  0  0  0  0
    5.0850   -0.3970   -2.5300 C   0  0  0  0  0  0  0  0  0  0  0  0
    3.8140    0.7440   -1.8710 S   0  0  0  0  0  0  0  0  0  0  0  0
   -0.5940   -1.0560    1.5440 C   0  0  0  0  0  0  0  0  0  0  0  0
  1  2  1  0
  2  3  2  0
  2 25  1  0
  3  4  1  0
  3  5  1  0
  5  6  2  3
  5 10  1  0
  6  7  1  0
  7  8  2  0
  7  9  1  0
 10 11  2  3
 10 14  1  0
 11 12  1  0
 11 13  1  0
 14 15  1  0
 14 25  2  0
 15 16  1  0
 16 17  1  0
 17 18  2  0
 17 24  1  0
 18 19  1  0
 19 20  1  0
 19 23  1  0
 20 21  2  0
 21 22  1  0
 22 23  2  0
 23 24  1  0
M  CHG  1   8   1
M  END
