
     RDKit          3D

 18 19  0  0  0  0  0  0  0  0999 V2000
    3.5370   -1.8060   -0.8020 C   0  0  0  0  0  0  0  0  0  0  0  0
    3.2580   -1.2880    0.6150 C   0  0  2  0  0  0  0  0  0  0  0  0
    2.9180   -2.4910    1.4560 C   0  0  0  0  0  0  0  0  0  0  0  0
    2.1260   -0.3420    0.4920 C   0  0  0  0  0  0  0  0  0  0  0  0
    2.3540    0.9760    0.8140 C   0  0  0  0  0  0  0  0  0  0  0  0
    1.3770    1.9250    0.7350 C   0  0  0  0  0  0  0  0  0  0  0  0
    1.6060    3.3580    1.0800 C   0  0  0  0  0  0  0  0  0  0  0  0
    2.9100    3.5480    1.4730 O   0  0  0  0  0  0  0  0  0  0  0  0
    0.1070    1.5260    0.3100 C   0  0  0  0  0  0  0  0  0  0  0  0
   -0.9030    2.4910    0.2250 O   0  0  0  0  0  0  0  0  0  0  0  0
   -0.1990    0.2310   -0.0290 C   0  0  0  0  0  0  0  0  0  0  0  0
   -1.4050   -0.2260   -0.4480 O   0  0  0  0  0  0  0  0  0  0  0  0
   -2.5930    0.4060   -0.6470 C   0  0  2  0  0  0  0  0  0  0  0  0
   -3.7340   -0.2250    0.1830 C   0  0  0  0  0  0  0  0  0  0  0  0
   -4.5720   -1.0030   -0.7990 C   0  0  0  0  0  0  0  0  0  0  0  0
   -3.5590   -1.3230   -1.8770 C   0  0  0  0  0  0  0  0  0  0  0  0
   -3.0080    0.0910   -2.1100 C   0  0  0  0  0  0  0  0  0  0  0  0
    0.8770   -0.6860    0.0840 C   0  0  0  0  0  0  0  0  0  0  0  0
  2  1  1  6
  2  3  1  0
  2  4  1  0
  4  5  2  0
  4 18  1  0
  5  6  1  0
  6  7  1  0
  6  9  2  0
  7  8  1  0
  9 10  1  0
  9 11  1  0
 11 12  1  0
 11 18  2  0
 13 12  1  1
 13 14  1  0
 13 17  1  0
 14 15  1  0
 15 16  1  0
 16 17  1  0
M  END
