
     RDKit          3D

 24 27  0  0  0  0  0  0  0  0999 V2000
    5.9600    0.4700    0.1130 C   0  0  0  0  0  0  0  0  0  0  0  0
    4.6830    1.1900    0.5150 C   0  0  1  0  0  0  0  0  0  0  0  0
    4.8420    2.5750    0.1170 N   0  0  0  0  0  0  0  0  0  0  0  0
    3.5710    0.5310   -0.2160 C   0  0  0  0  0  0  0  0  0  0  0  0
    2.5930   -0.2840    0.3160 C   0  0  0  0  0  0  0  0  0  0  0  0
    1.7480   -0.6880   -0.7190 C   0  0  0  0  0  0  0  0  0  0  0  0
    0.5600   -1.5720   -0.6020 C   0  0  0  0  0  0  0  0  0  0  0  0
   -0.6440   -0.7790   -0.3400 N   0  0  0  0  0  0  0  0  0  0  0  0
   -1.8780   -1.4680   -0.1990 C   0  0  0  0  0  0  0  0  0  0  0  0
   -1.8490   -2.7930   -0.3160 N   0  0  0  0  0  0  0  0  0  0  0  0
   -2.8070   -3.6860   -0.2360 C   0  0  0  0  0  0  0  0  0  0  0  0
   -2.6460   -4.9630   -0.3700 N   0  0  0  0  0  0  0  0  0  0  0  0
   -4.3430   -2.9970    0.0700 S   0  0  0  0  0  0  0  0  0  0  0  0
   -4.2780   -1.2910    0.2040 C   0  0  0  0  0  0  0  0  0  0  0  0
   -5.3780   -0.5750    0.4420 N   0  0  0  0  0  0  0  0  0  0  0  0
   -5.3580    0.8090    0.5550 C   0  0  0  0  0  0  0  0  0  0  0  0
   -6.5060    1.5800    0.8060 C   0  0  0  0  0  0  0  0  0  0  0  0
   -5.8470    3.2090    0.8370 S   0  0  0  0  0  0  0  0  0  0  0  0
   -4.1670    2.8200    0.5330 C   0  0  0  0  0  0  0  0  0  0  0  0
   -4.1910    1.4100    0.4180 C   0  0  0  0  0  0  0  0  0  0  0  0
   -3.0050    0.6520    0.1620 C   0  0  0  0  0  0  0  0  0  0  0  0
   -3.0310   -0.7180    0.0510 C   0  0  0  0  0  0  0  0  0  0  0  0
    2.2380   -0.1100   -1.8270 N   0  0  0  0  0  0  0  0  0  0  0  0
    3.3020    0.6000   -1.5310 N   0  0  0  0  0  0  0  0  0  0  0  0
  2  1  1  6
  2  3  1  0
  2  4  1  0
  4  5  1  0
  4 24  2  0
  5  6  2  0
  6  7  1  0
  6 23  1  0
  7  8  1  0
  8  9  1  0
  9 10  2  0
  9 22  1  0
 10 11  1  0
 11 12  2  0
 11 13  1  0
 13 14  1  0
 14 15  2  0
 14 22  1  0
 15 16  1  0
 16 17  2  0
 16 20  1  0
 17 18  1  0
 18 19  1  0
 19 20  2  0
 20 21  1  0
 21 22  2  0
 23 24  1  0
M  CHG  1   3   1
M  END
