
     RDKit          3D

 18 19  0  0  0  0  0  0  0  0999 V2000
   -2.4010    1.6960    2.0940 C   0  0  0  0  0  0  0  0  0  0  0  0
   -2.2440    0.5890    1.0850 C   0  0  0  0  0  0  0  0  0  0  0  0
   -3.3000   -0.2620    0.8470 C   0  0  0  0  0  0  0  0  0  0  0  0
   -3.2140   -1.2960   -0.0680 C   0  0  0  0  0  0  0  0  0  0  0  0
   -4.3640   -2.1920   -0.3020 C   0  0  0  0  0  0  0  0  0  0  0  0
   -2.0140   -1.4520   -0.7500 C   0  0  0  0  0  0  0  0  0  0  0  0
   -1.9540   -2.4940   -1.6600 O   0  0  0  0  0  0  0  0  0  0  0  0
   -0.9420   -0.6130   -0.5300 C   0  0  0  0  0  0  0  0  0  0  0  0
    0.2290   -0.8230   -1.2430 O   0  0  0  0  0  0  0  0  0  0  0  0
    1.3550   -0.0300   -1.0860 C   0  0  0  0  0  0  0  0  0  0  0  0
    1.5930    1.1060   -1.8300 C   0  0  0  0  0  0  0  0  0  0  0  0
    2.7470    1.8260   -1.5960 C   0  0  0  0  0  0  0  0  0  0  0  0
    3.6590    1.4260   -0.6350 C   0  0  0  0  0  0  0  0  0  0  0  0
    3.4330    0.2820    0.1230 C   0  0  0  0  0  0  0  0  0  0  0  0
    4.4250   -0.1340    1.1540 C   0  0  0  0  0  0  0  0  0  0  0  0
    4.1370    0.4360    2.3880 O   0  0  0  0  0  0  0  0  0  0  0  0
    2.2760   -0.4090   -0.1360 C   0  0  0  0  0  0  0  0  0  0  0  0
   -1.0680    0.4060    0.3910 C   0  0  0  0  0  0  0  0  0  0  0  0
  1  2  1  0
  2  3  2  0
  2 18  1  0
  3  4  1  0
  4  5  1  0
  4  6  2  0
  6  7  1  0
  6  8  1  0
  8  9  1  0
  8 18  2  0
  9 10  1  0
 10 11  2  0
 10 17  1  0
 11 12  1  0
 12 13  2  0
 13 14  1  0
 14 15  1  0
 14 17  2  0
 15 16  1  0
M  END
