
     RDKit          3D

 11 12  0  0  0  0  0  0  0  0999 V2000
   -2.8700   -1.3190   -0.2650 N   0  0  0  0  0  0  0  0  0  0  0  0
   -1.9340   -0.1970   -0.1250 C   0  0  0  0  0  0  0  0  0  0  0  0
   -0.7160   -0.4330   -0.0690 N   0  0  0  0  0  0  0  0  0  0  0  0
    0.3960    0.3810    0.0580 C   0  0  0  0  0  0  0  0  0  0  0  0
    1.7460   -0.2340    0.0930 C   0  0  0  0  0  0  0  0  0  0  0  0
    2.2190   -1.4660    0.0290 C   0  0  0  0  0  0  0  0  0  0  0  0
    3.5840   -0.9610    0.1490 C   0  0  0  0  0  0  0  0  0  0  0  0
    3.0960    0.2660    0.2110 C   0  0  0  0  0  0  0  0  0  0  0  0
    0.2340    1.6770    0.1450 C   0  0  0  0  0  0  0  0  0  0  0  0
   -1.3670    2.4000    0.1030 S   0  0  0  0  0  0  0  0  0  0  0  0
   -2.5910    1.1150   -0.0660 C   0  0  0  0  0  0  0  0  0  0  0  0
  1  2  1  0
  2  3  2  0
  2 11  1  0
  3  4  1  0
  4  5  1  0
  4  9  2  0
  5  6  2  0
  5  8  1  0
  6  7  1  0
  7  8  2  0
  9 10  1  0
 10 11  1  0
M  END
