
     RDKit          3D

 26 26  0  0  0  0  0  0  0  0999 V2000
    0.8740   -1.9670   -0.1300 C   0  0  0  0  0  0  0  0  0  0  0  0
   -0.1220   -0.9350    0.4590 C   0  0  1  0  0  0  0  0  0  0  0  0
   -0.8340   -1.7140    1.5650 C   0  0  0  0  0  0  0  0  0  0  0  0
    0.6190    0.0380    1.0630 O   0  0  0  0  0  0  0  0  0  0  0  0
    1.5410    0.7020    0.3060 C   0  0  0  0  0  0  0  0  0  0  0  0
    2.5370   -0.1460   -0.2380 O   0  0  0  0  0  0  0  0  0  0  0  0
    3.4100    0.6410   -0.9820 C   0  0  2  0  0  0  0  0  0  0  0  0
    3.2980    0.2270   -2.3240 O   0  0  0  0  0  0  0  0  0  0  0  0
    4.8600    0.4040   -0.5970 C   0  0  2  0  0  0  0  0  0  0  0  0
    5.1900   -0.9550   -0.8110 O   0  0  0  0  0  0  0  0  0  0  0  0
    5.0750    0.6750    0.8710 C   0  0  0  0  0  0  0  0  0  0  0  0
    4.7930    1.9900    1.1950 O   0  0  0  0  0  0  0  0  0  0  0  0
   -1.0530   -0.4720   -0.6240 C   0  0  1  0  0  0  0  0  0  0  0  0
   -1.7700   -1.5240   -1.1860 O   0  0  0  0  0  0  0  0  0  0  0  0
   -1.8340    0.7150   -0.3040 C   0  0  1  0  0  0  0  0  0  0  0  0
   -2.7570    1.1550   -1.4360 C   0  0  0  0  0  0  0  0  0  0  0  0
   -3.5490    2.1760   -0.7860 N   0  0  0  0  0  0  0  0  0  0  0  0
   -3.3910    2.1080    0.6210 C   0  0  0  0  0  0  0  0  0  0  0  0
   -3.6860    2.9140    1.5220 O   0  0  0  0  0  0  0  0  0  0  0  0
   -2.7380    0.7580    0.8590 C   0  0  1  0  0  0  0  0  0  0  0  0
   -3.8600   -0.1810    0.8840 C   0  0  0  0  0  0  0  0  0  0  0  0
   -3.9680   -0.9750    1.8490 O   0  0  0  0  0  0  0  0  0  0  0  0
   -4.8160   -0.2390   -0.1100 O   0  0  0  0  0  0  0  0  0  0  0  0
   -5.8840   -1.1350   -0.0820 C   0  0  0  0  0  0  0  0  0  0  0  0
   -6.0070   -1.9370    0.8790 O   0  0  0  0  0  0  0  0  0  0  0  0
   -6.8430   -1.1860   -1.0880 O   0  0  0  0  0  0  0  0  0  0  0  0
  2  1  1  6
  2  3  1  0
  2  4  1  0
  2 13  1  0
  4  5  1  0
  5  6  1  0
  6  7  1  0
  7  8  1  6
  7  9  1  0
  9 10  1  1
  9 11  1  0
 11 12  1  0
 13 14  1  1
 13 15  1  0
 15 16  1  6
 15 20  1  0
 16 17  1  0
 17 18  1  0
 18 19  2  0
 18 20  1  0
 20 21  1  6
 21 22  2  0
 21 23  1  0
 23 24  1  0
 24 25  2  0
 24 26  1  0
M  CHG  1  26  -1
M  END
