
     RDKit          3D

 25 26  0  0  0  0  0  0  0  0999 V2000
   -6.6600   -1.0340   -1.9100 O   0  0  0  0  0  0  0  0  0  0  0  0
   -5.6330   -0.9780   -1.1960 C   0  0  0  0  0  0  0  0  0  0  0  0
   -5.1920   -2.1290   -0.5710 O   0  0  0  0  0  0  0  0  0  0  0  0
   -4.9550    0.3390   -1.0690 C   0  0  0  0  0  0  0  0  0  0  0  0
   -3.7220    0.1730   -0.1480 C   0  0  2  0  0  0  0  0  0  0  0  0
   -4.1720   -0.2700    1.0960 O   0  0  0  0  0  0  0  0  0  0  0  0
   -2.9860    1.4710   -0.0600 C   0  0  2  0  0  0  0  0  0  0  0  0
   -2.4970    1.8970   -1.2990 O   0  0  0  0  0  0  0  0  0  0  0  0
   -1.9890    1.6160    1.0430 C   0  0  0  0  0  0  0  0  0  0  0  0
   -0.7710    1.0010    0.9440 O   0  0  0  0  0  0  0  0  0  0  0  0
   -0.3870   -0.2880    0.9400 C   0  0  0  0  0  0  0  0  0  0  0  0
   -1.2670   -1.1710    1.0590 O   0  0  0  0  0  0  0  0  0  0  0  0
    1.0300   -0.7450    0.8000 C   0  0  2  0  0  0  0  0  0  0  0  0
    1.9040   -0.2270    1.8940 C   0  0  0  0  0  0  0  0  0  0  0  0
    2.7530    0.9420    1.5050 C   0  0  0  0  0  0  0  0  0  0  0  0
    3.5700    0.7210    0.2720 C   0  0  0  0  0  0  0  0  0  0  0  0
    3.0750   -0.4970   -0.4670 C   0  0  2  0  0  0  0  0  0  0  0  0
    3.4580   -1.6340    0.2740 O   0  0  0  0  0  0  0  0  0  0  0  0
    4.7180   -2.0110   -0.1480 C   0  0  0  0  0  0  0  0  0  0  0  0
    5.5440   -2.7390    0.5030 O   0  0  0  0  0  0  0  0  0  0  0  0
    4.9240   -1.4390   -1.4360 N   0  0  0  0  0  0  0  0  0  0  0  0
    3.7350   -0.7140   -1.7470 C   0  0  0  0  0  0  0  0  0  0  0  0
    3.3490   -0.3470   -2.8780 O   0  0  0  0  0  0  0  0  0  0  0  0
    1.5700   -0.3670   -0.5830 C   0  0  1  0  0  0  0  0  0  0  0  0
    1.0410   -1.1900   -1.5560 O   0  0  0  0  0  0  0  0  0  0  0  0
  1  2  2  0
  2  3  1  0
  2  4  1  0
  4  5  1  0
  5  6  1  1
  5  7  1  0
  7  8  1  6
  7  9  1  0
  9 10  1  0
 10 11  1  0
 11 12  2  0
 13 11  1  1
 13 14  1  0
 13 24  1  0
 14 15  1  0
 15 16  1  0
 17 16  1  1
 17 18  1  0
 17 22  1  0
 17 24  1  0
 18 19  1  0
 19 20  2  0
 19 21  1  0
 21 22  1  0
 22 23  2  0
 24 25  1  6
M  CHG  1   3  -1
M  END
