
     RDKit          3D

 20 21  0  0  0  0  0  0  0  0999 V2000
   -5.5100    0.3720   -0.3890 C   0  0  0  0  0  0  0  0  0  0  0  0
   -4.2380   -0.4010   -0.4430 C   0  0  0  0  0  0  0  0  0  0  0  0
   -4.3380   -1.6020   -0.6590 O   0  0  0  0  0  0  0  0  0  0  0  0
   -2.9330    0.2850   -0.2400 C   0  0  1  0  0  0  0  0  0  0  0  0
   -2.8350    1.3840   -1.2740 C   0  0  0  0  0  0  0  0  0  0  0  0
   -2.9490    0.9520    1.1180 C   0  0  0  0  0  0  0  0  0  0  0  0
   -1.8550   -0.6590   -0.3360 N   0  0  0  0  0  0  0  0  0  0  0  0
   -0.4850   -0.2770   -0.1830 C   0  0  0  0  0  0  0  0  0  0  0  0
   -0.2750    0.9220    0.0400 O   0  0  0  0  0  0  0  0  0  0  0  0
    0.5760   -1.1900   -0.2740 N   0  0  0  0  0  0  0  0  0  0  0  0
    1.9470   -0.9280   -0.1410 C   0  0  0  0  0  0  0  0  0  0  0  0
    2.8470   -1.9760   -0.2670 C   0  0  0  0  0  0  0  0  0  0  0  0
    4.1840   -1.8150   -0.1540 C   0  0  0  0  0  0  0  0  0  0  0  0
    4.7770   -0.5570    0.1030 C   0  0  0  0  0  0  0  0  0  0  0  0
    6.0390   -0.3080    0.2270 N   0  0  0  0  0  0  0  0  0  0  0  0
    6.5120    0.9150    0.4700 C   0  0  0  0  0  0  0  0  0  0  0  0
    7.9390    1.5420    0.6700 S   0  0  0  0  0  0  0  0  0  0  0  0
    4.9070    1.8650    0.5340 S   0  0  0  0  0  0  0  0  0  0  0  0
    3.8480    0.4560    0.2210 C   0  0  0  0  0  0  0  0  0  0  0  0
    2.5030    0.3080    0.1100 C   0  0  0  0  0  0  0  0  0  0  0  0
  1  2  1  0
  2  3  2  0
  2  4  1  0
  4  5  1  6
  4  6  1  0
  4  7  1  0
  7  8  1  0
  8  9  2  0
  8 10  1  0
 10 11  1  0
 11 12  2  0
 11 20  1  0
 12 13  1  0
 13 14  2  0
 14 15  1  0
 14 19  1  0
 15 16  1  0
 16 17  2  0
 16 18  1  0
 18 19  1  0
 19 20  2  0
M  END
