
     RDKit          3D

 21 22  0  0  0  0  0  0  0  0999 V2000
    5.6360    2.6710   -0.1920 O   0  0  0  0  0  0  0  0  0  0  0  0
    5.9150    1.1690   -0.2540 S   0  0  0  0  0  0  0  0  0  0  0  0
    4.4610    0.2310    0.0760 C   0  0  0  0  0  0  0  0  0  0  0  0
    3.4850    0.6720    0.9340 C   0  0  0  0  0  0  0  0  0  0  0  0
    2.3550   -0.0900    1.1720 C   0  0  0  0  0  0  0  0  0  0  0  0
    2.1870   -1.3090    0.5490 C   0  0  0  0  0  0  0  0  0  0  0  0
    1.0840   -2.1610    0.6860 N   0  0  0  0  0  0  0  0  0  0  0  0
   -0.2590   -1.7030    0.4710 C   0  0  0  0  0  0  0  0  0  0  0  0
   -1.4700   -2.8240    0.7130 S   0  0  0  0  0  0  0  0  0  0  0  0
   -0.5040   -0.3930    0.0810 N   0  0  0  0  0  0  0  0  0  0  0  0
   -1.7210    0.2490   -0.1600 C   0  0  0  0  0  0  0  0  0  0  0  0
   -2.9870   -0.2840   -0.0610 C   0  0  0  0  0  0  0  0  0  0  0  0
   -4.1580    0.4210   -0.3180 C   0  0  0  0  0  0  0  0  0  0  0  0
   -5.4780   -0.2430   -0.1820 C   0  0  0  0  0  0  0  0  0  0  0  0
   -5.7820   -0.7970   -1.4230 F   0  0  0  0  0  0  0  0  0  0  0  0
   -4.0400    1.7340   -0.6950 C   0  0  0  0  0  0  0  0  0  0  0  0
   -2.8300    2.2990   -0.8070 N   0  0  0  0  0  0  0  0  0  0  0  0
   -1.7150    1.6070   -0.5560 C   0  0  0  0  0  0  0  0  0  0  0  0
   -0.5760    2.1610   -0.6670 O   0  0  0  0  0  0  0  0  0  0  0  0
    3.1870   -1.7650   -0.3310 C   0  0  0  0  0  0  0  0  0  0  0  0
    4.3020   -0.9860   -0.5490 C   0  0  0  0  0  0  0  0  0  0  0  0
  1  2  2  0
  2  3  1  0
  3  4  2  0
  3 21  1  0
  4  5  1  0
  5  6  2  0
  6  7  1  0
  6 20  1  0
  7  8  1  0
  8  9  2  0
  8 10  1  0
 10 11  1  0
 11 12  2  0
 11 18  1  0
 12 13  1  0
 13 14  1  0
 13 16  2  0
 14 15  1  0
 16 17  1  0
 17 18  1  0
 18 19  2  0
 20 21  2  0
M  END
