
     RDKit          3D

 21 22  0  0  0  0  0  0  0  0999 V2000
    4.9360    0.7150    2.3710 N   0  0  0  0  0  0  0  0  0  0  0  0
    4.5810    0.0530    1.1730 C   0  0  0  0  0  0  0  0  0  0  0  0
    5.5640   -0.5150    0.4190 C   0  0  0  0  0  0  0  0  0  0  0  0
    5.2140   -1.1550   -0.7420 C   0  0  0  0  0  0  0  0  0  0  0  0
    3.9030   -1.2110   -1.1180 C   0  0  0  0  0  0  0  0  0  0  0  0
    3.5770   -1.8460   -2.2650 F   0  0  0  0  0  0  0  0  0  0  0  0
    2.8610   -0.6380   -0.3690 C   0  0  0  0  0  0  0  0  0  0  0  0
    1.5590   -0.7630   -0.8600 N   0  0  0  0  0  0  0  0  0  0  0  0
    0.3820   -0.2610   -0.2600 C   0  0  0  0  0  0  0  0  0  0  0  0
    0.4650    0.3530    0.8000 O   0  0  0  0  0  0  0  0  0  0  0  0
   -0.9030   -0.4310   -0.8250 N   0  0  0  0  0  0  0  0  0  0  0  0
   -2.1340    0.0210   -0.3150 C   0  0  0  0  0  0  0  0  0  0  0  0
   -2.2970    0.5890    0.9170 C   0  0  0  0  0  0  0  0  0  0  0  0
   -3.5550    1.0200    1.3360 C   0  0  0  0  0  0  0  0  0  0  0  0
   -4.6470    0.8780    0.5150 C   0  0  0  0  0  0  0  0  0  0  0  0
   -6.2740    1.4240    1.0300 S   0  0  0  0  0  0  0  0  0  0  0  0
   -4.5240    0.3150   -0.7260 C   0  0  0  0  0  0  0  0  0  0  0  0
   -5.9390    0.1330   -1.7870 S   0  0  0  0  0  0  0  0  0  0  0  0
   -7.2010    0.3860   -1.0070 O   0  0  0  0  0  0  0  0  0  0  0  0
   -3.2790   -0.0990   -1.1120 C   0  0  0  0  0  0  0  0  0  0  0  0
    3.2290   -0.0110    0.7740 C   0  0  0  0  0  0  0  0  0  0  0  0
  1  2  1  0
  2  3  2  0
  2 21  1  0
  3  4  1  0
  4  5  2  0
  5  6  1  0
  5  7  1  0
  7  8  1  0
  7 21  2  0
  8  9  1  0
  9 10  2  0
  9 11  1  0
 11 12  1  0
 12 13  2  0
 12 20  1  0
 13 14  1  0
 14 15  2  0
 15 16  1  0
 15 17  1  0
 17 18  1  0
 17 20  2  0
 18 19  2  0
M  END
