
     RDKit          3D

 21 22  0  0  0  0  0  0  0  0999 V2000
   -4.9040   -2.0780   -1.3720 N   0  0  0  0  0  0  0  0  0  0  0  0
   -4.5880   -0.9300   -0.5960 C   0  0  0  0  0  0  0  0  0  0  0  0
   -3.2930   -0.3960   -0.5920 C   0  0  0  0  0  0  0  0  0  0  0  0
   -2.9340    0.7090    0.1390 C   0  0  0  0  0  0  0  0  0  0  0  0
   -1.6380    1.2630    0.2010 N   0  0  0  0  0  0  0  0  0  0  0  0
   -0.4440    0.4980    0.1220 C   0  0  0  0  0  0  0  0  0  0  0  0
   -0.6120   -1.1230    0.0430 S   0  0  0  0  0  0  0  0  0  0  0  0
    0.8170    1.1440    0.1700 N   0  0  0  0  0  0  0  0  0  0  0  0
    2.1000    0.5970    0.1000 C   0  0  0  0  0  0  0  0  0  0  0  0
    3.2030    1.3860    0.5020 C   0  0  0  0  0  0  0  0  0  0  0  0
    4.4850    0.9510    0.4560 C   0  0  0  0  0  0  0  0  0  0  0  0
    4.7930   -0.3100    0.0060 C   0  0  0  0  0  0  0  0  0  0  0  0
    6.4560   -0.8490   -0.0430 S   0  0  1  0  0  0  0  0  0  0  0  0
    6.9430   -0.9990   -1.4550 O   0  0  0  0  0  0  0  0  0  0  0  0
    7.3200    0.1700    0.6290 O   0  0  0  0  0  0  0  0  0  0  0  0
    3.7470   -1.1050   -0.3940 C   0  0  0  0  0  0  0  0  0  0  0  0
    2.4220   -0.6560   -0.3470 C   0  0  0  0  0  0  0  0  0  0  0  0
   -3.9040    1.3540    0.9310 C   0  0  0  0  0  0  0  0  0  0  0  0
   -5.1700    0.8390    0.9320 C   0  0  0  0  0  0  0  0  0  0  0  0
   -5.5110   -0.2730    0.1910 C   0  0  0  0  0  0  0  0  0  0  0  0
   -6.7760   -0.7830    0.1960 F   0  0  0  0  0  0  0  0  0  0  0  0
  1  2  1  0
  2  3  2  0
  2 20  1  0
  3  4  1  0
  4  5  1  0
  4 18  2  0
  5  6  1  0
  6  7  2  0
  6  8  1  0
  8  9  1  0
  9 10  2  0
  9 17  1  0
 10 11  1  0
 11 12  2  0
 13 12  1  6
 12 16  1  0
 13 14  2  0
 13 15  2  0
 16 17  2  0
 18 19  1  0
 19 20  2  0
 20 21  1  0
M  END
