
     RDKit          3D

 20 21  0  0  0  0  0  0  0  0999 V2000
    5.8610   -0.6580   -0.5940 C   0  0  0  0  0  0  0  0  0  0  0  0
    5.9610    0.0840    0.7260 C   0  0  0  0  0  0  0  0  0  0  0  0
    5.3800    1.4000    0.6600 N   0  0  0  0  0  0  0  0  0  0  0  0
    3.9920    1.6470    0.5120 C   0  0  0  0  0  0  0  0  0  0  0  0
    3.3730    3.1360    0.4340 S   0  0  0  0  0  0  0  0  0  0  0  0
    3.1030    0.5210    0.4250 N   0  0  0  0  0  0  0  0  0  0  0  0
    1.7030    0.7070    0.2710 C   0  0  0  0  0  0  0  0  0  0  0  0
    1.2530    1.8880    0.2130 O   0  0  0  0  0  0  0  0  0  0  0  0
    0.8230   -0.4010    0.1830 N   0  0  0  0  0  0  0  0  0  0  0  0
   -0.5810   -0.1680    0.0270 C   0  0  0  0  0  0  0  0  0  0  0  0
   -1.3280    1.4190   -0.0640 S   0  0  0  0  0  0  0  0  0  0  0  0
   -2.9860    0.8740   -0.2490 C   0  0  0  0  0  0  0  0  0  0  0  0
   -2.8670   -0.5050   -0.2290 C   0  0  0  0  0  0  0  0  0  0  0  0
   -1.6400   -1.0260   -0.0890 C   0  0  0  0  0  0  0  0  0  0  0  0
   -1.4460   -2.5030   -0.0630 C   0  0  0  0  0  0  0  0  0  0  0  0
   -0.3100   -2.9570    0.0650 O   0  0  0  0  0  0  0  0  0  0  0  0
   -4.2520   -1.1560   -0.3830 C   0  0  0  0  0  0  0  0  0  0  0  0
   -5.0430   -0.5870    0.7800 C   0  0  0  0  0  0  0  0  0  0  0  0
   -5.3600    0.8570    0.4810 C   0  0  0  0  0  0  0  0  0  0  0  0
   -4.3220    1.5030   -0.4020 C   0  0  0  0  0  0  0  0  0  0  0  0
  1  2  1  0
  2  3  1  0
  3  4  1  0
  4  5  2  0
  4  6  1  0
  6  7  1  0
  7  8  2  0
  7  9  1  0
  9 10  1  0
 10 11  1  0
 10 14  2  0
 11 12  1  0
 12 13  2  0
 12 20  1  0
 13 14  1  0
 13 17  1  0
 14 15  1  0
 15 16  2  0
 17 18  1  0
 18 19  1  0
 19 20  1  0
M  END
