
     RDKit          3D

 11 11  0  0  0  0  0  0  0  0999 V2000
   -3.5470    0.9440   -0.3100 O   0  0  0  0  0  0  0  0  0  0  0  0
   -2.3110    0.8680    0.2890 C   0  0  0  0  0  0  0  0  0  0  0  0
   -1.6160   -0.4200   -0.1320 C   0  0  2  0  0  0  0  0  0  0  0  0
   -2.3590   -1.5290    0.2430 O   0  0  0  0  0  0  0  0  0  0  0  0
   -0.3600   -0.4270    0.4980 O   0  0  0  0  0  0  0  0  0  0  0  0
    0.6290   -0.4670   -0.4680 C   0  0  2  0  0  0  0  0  0  0  0  0
    1.5170   -1.6560   -0.1500 C   0  0  0  0  0  0  0  0  0  0  0  0
    2.6680   -1.1800    0.4120 O   0  0  0  0  0  0  0  0  0  0  0  0
    2.4610    0.1240    0.8220 C   0  0  0  0  0  0  0  0  0  0  0  0
    1.6250    0.6690   -0.3330 C   0  0  2  0  0  0  0  0  0  0  0  0
    1.0580    1.8770   -0.0700 O   0  0  0  0  0  0  0  0  0  0  0  0
  1  2  1  0
  2  3  1  0
  3  4  1  1
  3  5  1  0
  6  5  1  1
  6  7  1  0
  6 10  1  0
  7  8  1  0
  8  9  1  0
  9 10  1  0
 10 11  1  1
M  END
