
     RDKit          3D

 11 11  0  0  0  0  0  0  0  0999 V2000
    2.3870    0.6290    1.4030 O   0  0  0  0  0  0  0  0  0  0  0  0
    2.6170    0.5660    0.0280 C   0  0  0  0  0  0  0  0  0  0  0  0
    2.0440   -0.7290   -0.4910 C   0  0  0  0  0  0  0  0  0  0  0  0
    0.6910   -0.7660   -0.2360 O   0  0  0  0  0  0  0  0  0  0  0  0
   -0.0650    0.2090   -0.8210 C   0  0  1  0  0  0  0  0  0  0  0  0
   -1.1100   -0.4610   -1.5050 O   0  0  0  0  0  0  0  0  0  0  0  0
   -1.9260   -1.0030   -0.5460 C   0  0  0  0  0  0  0  0  0  0  0  0
   -1.5860   -0.3560    0.7790 C   0  0  2  0  0  0  0  0  0  0  0  0
   -2.6950   -0.0970    1.5530 O   0  0  0  0  0  0  0  0  0  0  0  0
   -0.9110    0.9000    0.2650 C   0  0  2  0  0  0  0  0  0  0  0  0
   -1.8170    1.6950   -0.4030 O   0  0  0  0  0  0  0  0  0  0  0  0
  1  2  1  0
  2  3  1  0
  3  4  1  0
  5  4  1  1
  5  6  1  0
  5 10  1  0
  6  7  1  0
  7  8  1  0
  8  9  1  6
  8 10  1  0
 10 11  1  6
M  END
