
     RDKit          3D

 11 11  0  0  0  0  0  0  0  0999 V2000
   -2.7590   -0.5320   -0.9710 O   0  0  0  0  0  0  0  0  0  0  0  0
   -1.9130    0.1420   -0.0940 C   0  0  0  0  0  0  0  0  0  0  0  0
   -0.6360   -0.6530    0.1380 C   0  0  1  0  0  0  0  0  0  0  0  0
   -1.0710   -1.8840    0.6880 O   0  0  0  0  0  0  0  0  0  0  0  0
    0.0210   -0.9650   -1.1570 C   0  0  0  0  0  0  0  0  0  0  0  0
    1.0440   -0.1480   -1.5310 O   0  0  0  0  0  0  0  0  0  0  0  0
    1.9510    0.1280   -0.5130 C   0  0  0  0  0  0  0  0  0  0  0  0
    1.1610    0.9500    0.5160 C   0  0  1  0  0  0  0  0  0  0  0  0
    2.0260    1.5750    1.4080 O   0  0  0  0  0  0  0  0  0  0  0  0
    0.4830    1.9210   -0.2060 O   0  0  0  0  0  0  0  0  0  0  0  0
    0.2390   -0.0220    1.1710 C   0  0  0  0  0  0  0  0  0  0  0  0
  1  2  1  0
  2  3  1  0
  3  4  1  1
  3  5  1  0
  3 11  1  0
  5  6  1  0
  6  7  1  0
  7  8  1  0
  8  9  1  1
  8 10  1  0
  8 11  1  0
M  END
