
     RDKit          3D

 10 10  0  0  0  0  0  0  0  0999 V2000
    2.8910    0.2750    0.8070 O   0  0  0  0  0  0  0  0  0  0  0  0
    2.4070   -0.0170   -0.4620 C   0  0  0  0  0  0  0  0  0  0  0  0
    0.9220   -0.2510   -0.4080 C   0  0  2  0  0  0  0  0  0  0  0  0
    0.1700    0.9640    0.0920 C   0  0  0  0  0  0  0  0  0  0  0  0
   -1.2920    0.7120   -0.3000 C   0  0  2  0  0  0  0  0  0  0  0  0
   -2.1120    1.7440    0.0810 O   0  0  0  0  0  0  0  0  0  0  0  0
   -1.7250   -0.5770    0.3190 C   0  0  2  0  0  0  0  0  0  0  0  0
   -2.0350   -0.3640    1.6560 O   0  0  0  0  0  0  0  0  0  0  0  0
   -0.7200   -1.6770    0.1120 C   0  0  0  0  0  0  0  0  0  0  0  0
    0.5750   -1.3070    0.4220 O   0  0  0  0  0  0  0  0  0  0  0  0
  1  2  1  0
  3  2  1  1
  3  4  1  0
  3 10  1  0
  4  5  1  0
  5  6  1  1
  5  7  1  0
  7  8  1  1
  7  9  1  0
  9 10  1  0
M  END
