
     RDKit          3D

 10 11  0  0  0  0  0  0  0  0999 V2000
    1.0750   -0.6760   -1.5230 O   0  0  0  0  0  0  0  0  0  0  0  0
    0.2840   -0.6120   -0.3910 C   0  0  1  0  0  0  0  0  0  0  0  0
    1.0380   -0.8460    0.8850 C   0  0  0  0  0  0  0  0  0  0  0  0
    0.9700    0.5380    1.5360 C   0  0  0  0  0  0  0  0  0  0  0  0
   -0.3570    0.8940    1.2080 O   0  0  0  0  0  0  0  0  0  0  0  0
   -0.3110    0.7690   -0.1840 C   0  0  1  0  0  0  0  0  0  0  0  0
    0.4540    1.7680   -0.7710 O   0  0  0  0  0  0  0  0  0  0  0  0
   -1.6630    0.6310   -0.8060 C   0  0  0  0  0  0  0  0  0  0  0  0
   -1.7680   -0.6480   -1.3240 O   0  0  0  0  0  0  0  0  0  0  0  0
   -0.9470   -1.4630   -0.5230 C   0  0  0  0  0  0  0  0  0  0  0  0
  2  1  1  6
  2  3  1  0
  2  6  1  0
  2 10  1  0
  3  4  1  0
  4  5  1  0
  5  6  1  0
  6  7  1  6
  6  8  1  0
  8  9  1  0
  9 10  1  0
M  END
