
     RDKit          3D

 11 11  0  0  0  0  0  0  0  0999 V2000
    3.4660    0.7410   -0.6430 O   0  0  0  0  0  0  0  0  0  0  0  0
    3.0080   -0.5560   -0.3600 C   0  0  0  0  0  0  0  0  0  0  0  0
    1.6580   -0.5220    0.2880 C   0  0  0  0  0  0  0  0  0  0  0  0
    0.7000    0.0880   -0.5300 O   0  0  0  0  0  0  0  0  0  0  0  0
   -0.4930    0.0730    0.1430 C   0  0  2  0  0  0  0  0  0  0  0  0
   -1.5700   -0.7380   -0.5920 C   0  0  1  0  0  0  0  0  0  0  0  0
   -1.4410   -2.0580   -0.2480 O   0  0  0  0  0  0  0  0  0  0  0  0
   -2.8080   -0.0920    0.0430 C   0  0  0  0  0  0  0  0  0  0  0  0
   -2.4960    1.2470   -0.0540 O   0  0  0  0  0  0  0  0  0  0  0  0
   -1.1640    1.4080    0.2590 C   0  0  2  0  0  0  0  0  0  0  0  0
   -0.5440    2.3760   -0.5370 O   0  0  0  0  0  0  0  0  0  0  0  0
  1  2  1  0
  2  3  1  0
  3  4  1  0
  5  4  1  6
  5  6  1  0
  5 10  1  0
  6  7  1  1
  6  8  1  0
  8  9  1  0
  9 10  1  0
 10 11  1  6
M  END
