
     RDKit          3D

 10 10  0  0  0  0  0  0  0  0999 V2000
   -2.3620   -1.7010   -0.0440 O   0  0  0  0  0  0  0  0  0  0  0  0
   -2.0490   -0.3430    0.0590 C   0  0  0  0  0  0  0  0  0  0  0  0
   -0.5930   -0.1880   -0.2540 C   0  0  2  0  0  0  0  0  0  0  0  0
    0.2990   -0.9560    0.6790 C   0  0  0  0  0  0  0  0  0  0  0  0
    1.7170   -0.7480    0.1300 C   0  0  2  0  0  0  0  0  0  0  0  0
    2.5990   -1.6880    0.5870 O   0  0  0  0  0  0  0  0  0  0  0  0
    2.0530    0.5580    0.4400 O   0  0  0  0  0  0  0  0  0  0  0  0
    1.3150    1.4020   -0.3450 C   0  0  0  0  0  0  0  0  0  0  0  0
   -0.1590    1.2550   -0.2380 C   0  0  2  0  0  0  0  0  0  0  0  0
   -0.6210    1.9520    0.8670 O   0  0  0  0  0  0  0  0  0  0  0  0
  1  2  1  0
  3  2  1  1
  3  4  1  0
  3  9  1  0
  4  5  1  0
  5  6  1  1
  5  7  1  0
  7  8  1  0
  8  9  1  0
  9 10  1  1
M  END
