
     RDKit          3D

 25 24  0  0  0  0  0  0  0  0999 V2000
   -1.4870   -0.2110    2.0620 C   0  0  0  0  0  0  0  0  0  0  0  0
   -1.2850   -0.3100    0.6290 N   0  0  2  0  0  0  0  0  0  0  0  0
   -0.7260    0.8980    0.0750 C   0  0  0  0  0  0  0  0  0  0  0  0
    0.7860    0.8670   -0.0430 C   0  0  0  0  0  0  0  0  0  0  0  0
    1.4640    0.6830    1.2860 C   0  0  0  0  0  0  0  0  0  0  0  0
    3.2550    0.6640    0.9990 S   0  0  0  0  0  0  0  0  0  0  0  0
    3.7800   -0.7620    0.0600 C   0  0  0  0  0  0  0  0  0  0  0  0
    5.2880   -0.6980   -0.1360 C   0  0  2  0  0  0  0  0  0  0  0  0
    5.6010   -1.8650   -0.8770 O   0  0  0  0  0  0  0  0  0  0  0  0
    5.9650   -0.8020    1.2080 C   0  0  0  0  0  0  0  0  0  0  0  0
    7.3560   -0.9040    1.0300 O   0  0  0  0  0  0  0  0  0  0  0  0
    5.7220    0.4470   -0.9410 C   0  0  0  0  0  0  0  0  0  0  0  0
    6.2120    0.2750   -2.1140 O   0  0  0  0  0  0  0  0  0  0  0  0
    5.6540    1.8090   -0.5370 N   0  0  0  0  0  0  0  0  0  0  0  0
    6.0920    2.8620   -1.3730 N   0  0  0  0  0  0  0  0  0  0  0  0
   -2.3390   -0.8880   -0.1070 C   0  0  1  0  0  0  0  0  0  0  0  0
   -1.6370   -1.5340   -1.3430 C   0  0  0  0  0  0  0  0  0  0  0  0
   -2.6540   -2.1220   -2.1040 O   0  0  0  0  0  0  0  0  0  0  0  0
   -2.8070   -2.1340    0.6420 C   0  0  0  0  0  0  0  0  0  0  0  0
   -3.8410   -2.7660   -0.0220 O   0  0  0  0  0  0  0  0  0  0  0  0
   -3.4060   -0.1130   -0.7160 C   0  0  0  0  0  0  0  0  0  0  0  0
   -4.3450    0.7570   -0.0350 C   0  0  2  0  0  0  0  0  0  0  0  0
   -5.2600    1.3060   -1.1740 C   0  0  0  0  0  0  0  0  0  0  0  0
   -3.8040    2.0510    0.5380 C   0  0  0  0  0  0  0  0  0  0  0  0
   -5.3160    0.1530    0.9130 C   0  0  0  0  0  0  0  0  0  0  0  0
  2  1  1  1
  2  3  1  0
  2 16  1  0
  3  4  1  0
  4  5  1  0
  5  6  1  0
  6  7  1  0
  7  8  1  0
  8  9  1  6
  8 10  1  0
  8 12  1  0
 10 11  1  0
 12 13  2  0
 12 14  1  0
 14 15  1  0
 16 17  1  6
 16 19  1  0
 16 21  1  0
 17 18  1  0
 19 20  1  0
 21 22  1  0
 22 23  1  6
 22 24  1  0
 22 25  1  0
M  CHG  1   2   1
M  END
