
     RDKit          3D

 25 24  0  0  0  0  0  0  0  0999 V2000
    5.0850   -1.8050    3.4690 C   0  0  0  0  0  0  0  0  0  0  0  0
    5.7890   -1.2840    2.4000 O   0  0  0  0  0  0  0  0  0  0  0  0
    5.0580   -1.1970    1.2330 C   0  0  0  0  0  0  0  0  0  0  0  0
    3.8310   -0.3090    1.3750 C   0  0  0  0  0  0  0  0  0  0  0  0
    3.1730   -0.2910    0.1540 O   0  0  0  0  0  0  0  0  0  0  0  0
    2.0130    0.5260    0.2220 C   0  0  1  0  0  0  0  0  0  0  0  0
    2.2420    1.6940   -0.7520 C   0  0  0  0  0  0  0  0  0  0  0  0
    0.8410   -0.2110   -0.3000 C   0  0  0  0  0  0  0  0  0  0  0  0
    1.1570   -1.1980   -1.0420 O   0  0  0  0  0  0  0  0  0  0  0  0
   -0.5180    0.0510   -0.0660 N   0  0  0  0  0  0  0  0  0  0  0  0
   -1.1130    1.0140    0.7620 C   0  0  0  0  0  0  0  0  0  0  0  0
   -1.6010    2.3330    0.4680 C   0  0  1  0  0  0  0  0  0  0  0  0
   -2.1200    2.8140    1.9070 C   0  0  0  0  0  0  0  0  0  0  0  0
   -2.6010    4.0930    1.6580 O   0  0  0  0  0  0  0  0  0  0  0  0
   -0.6200    3.4420    0.1540 C   0  0  0  0  0  0  0  0  0  0  0  0
    0.2590    3.6710    1.2080 O   0  0  0  0  0  0  0  0  0  0  0  0
   -2.8760    2.4940   -0.3220 C   0  0  0  0  0  0  0  0  0  0  0  0
   -2.9360    2.0020   -1.5670 O   0  0  0  0  0  0  0  0  0  0  0  0
   -1.4730   -0.8690   -0.7760 C   0  0  1  0  0  0  0  0  0  0  0  0
   -1.2860   -0.8050   -2.2260 C   0  0  0  0  0  0  0  0  0  0  0  0
   -2.2330   -1.6770   -2.9920 C   0  0  0  0  0  0  0  0  0  0  0  0
   -1.9750   -1.4300   -4.4480 N   0  0  0  0  0  0  0  0  0  0  0  0
   -1.3960   -2.2040   -0.1020 C   0  0  0  0  0  0  0  0  0  0  0  0
   -2.5070   -3.4680   -0.7280 S   0  0  0  0  0  0  0  0  0  0  0  0
   -2.2630   -4.9880    0.2100 C   0  0  0  0  0  0  0  0  0  0  0  0
  1  2  1  0
  2  3  1  0
  3  4  1  0
  4  5  1  0
  5  6  1  0
  6  7  1  6
  6  8  1  0
  8  9  2  0
  8 10  1  0
 10 11  1  0
 10 19  1  0
 12 11  1  1
 12 13  1  0
 12 15  1  0
 12 17  1  0
 13 14  1  0
 15 16  1  0
 17 18  1  0
 19 20  1  6
 19 23  1  0
 20 21  1  0
 21 22  1  0
 23 24  1  0
 24 25  1  0
M  CHG  1  22   1
M  END
