
     RDKit          3D

 26 26  0  0  0  0  0  0  0  0999 V2000
   -5.2930    3.6760    0.7930 C   0  0  0  0  0  0  0  0  0  0  0  0
   -4.8790    2.4350    1.2880 O   0  0  0  0  0  0  0  0  0  0  0  0
   -4.4260    1.7050    0.1840 C   0  0  0  0  0  0  0  0  0  0  0  0
   -3.9540    0.3480    0.6030 C   0  0  0  0  0  0  0  0  0  0  0  0
   -3.4760   -0.4520   -0.5960 C   0  0  1  0  0  0  0  0  0  0  0  0
   -4.6620   -0.5260   -1.4530 O   0  0  0  0  0  0  0  0  0  0  0  0
   -2.5030    0.2810   -1.4200 C   0  0  0  0  0  0  0  0  0  0  0  0
   -1.2260    0.5390   -0.8560 N   0  0  0  0  0  0  0  0  0  0  0  0
   -0.1870   -0.3420   -0.5480 C   0  0  0  0  0  0  0  0  0  0  0  0
   -0.2630   -1.5580   -0.7760 O   0  0  0  0  0  0  0  0  0  0  0  0
    1.0790    0.1900    0.0840 C   0  0  0  0  0  0  0  0  0  0  0  0
    2.0420   -0.9170    0.3470 C   0  0  0  0  0  0  0  0  0  0  0  0
    3.5890   -0.4210    1.1050 S   0  0  0  0  0  0  0  0  0  0  0  0
    4.5920    0.5390   -0.0100 C   0  0  1  0  0  0  0  0  0  0  0  0
    4.0460    1.8860   -0.3840 C   0  0  0  0  0  0  0  0  0  0  0  0
    5.3150    2.7000   -0.5390 C   0  0  0  0  0  0  0  0  0  0  0  0
    6.2200    2.1950    0.3490 O   0  0  0  0  0  0  0  0  0  0  0  0
    5.9460    0.8770    0.5660 C   0  0  2  0  0  0  0  0  0  0  0  0
    7.0120   -0.0610    0.0810 C   0  0  0  0  0  0  0  0  0  0  0  0
    6.6160   -1.4330    0.3640 N   0  0  0  0  0  0  0  0  0  0  0  0
   -3.1240   -1.8430   -0.2580 C   0  0  0  0  0  0  0  0  0  0  0  0
   -4.3180   -2.6110    0.2640 C   0  0  0  0  0  0  0  0  0  0  0  0
   -5.4570   -2.1470    0.3600 O   0  0  0  0  0  0  0  0  0  0  0  0
   -4.0660   -3.9540    0.6590 N   0  0  0  0  0  0  0  0  0  0  0  0
   -5.0930   -4.8050    1.1720 C   0  0  0  0  0  0  0  0  0  0  0  0
   -6.2350   -4.3120    1.2600 O   0  0  0  0  0  0  0  0  0  0  0  0
  1  2  1  0
  2  3  1  0
  3  4  1  0
  4  5  1  0
  5  6  1  6
  5  7  1  0
  5 21  1  0
  7  8  1  0
  8  9  1  0
  9 10  2  0
  9 11  1  0
 11 12  1  0
 12 13  1  0
 14 13  1  1
 14 15  1  0
 14 18  1  0
 15 16  1  0
 16 17  1  0
 17 18  1  0
 18 19  1  6
 19 20  1  0
 21 22  1  0
 22 23  2  0
 22 24  1  0
 24 25  1  0
 25 26  2  0
M  CHG  1  20   1
M  END
