
     RDKit          3D

 27 29  0  0  0  0  0  0  0  0999 V2000
    0.9250    2.2260   -2.6960 C   0  0  0  0  0  0  0  0  0  0  0  0
    1.8670    1.3410   -2.5970 C   0  0  0  0  0  0  0  0  0  0  0  0
    2.0660    0.2650   -1.7150 C   0  0  0  0  0  0  0  0  0  0  0  0
    1.3440   -0.2750   -0.6540 N   0  0  0  0  0  0  0  0  0  0  0  0
    0.1530    0.0530   -0.0300 C   0  0  0  0  0  0  0  0  0  0  0  0
   -0.4570    1.0400   -0.4710 O   0  0  0  0  0  0  0  0  0  0  0  0
   -0.4410   -0.7130    1.1350 C   0  0  0  0  0  0  0  0  0  0  0  0
   -1.7330   -0.3450    1.4840 C   0  0  0  0  0  0  0  0  0  0  0  0
   -2.6210    0.6190    0.9700 N   0  0  0  0  0  0  0  0  0  0  0  0
   -3.1310    1.7570    1.6570 C   0  0  0  0  0  0  0  0  0  0  0  0
   -2.8250    2.0600    2.8410 O   0  0  0  0  0  0  0  0  0  0  0  0
   -4.0570    2.5020    0.7670 C   0  0  0  0  0  0  0  0  0  0  0  0
   -3.5840    2.0280   -0.6160 C   0  0  0  0  0  0  0  0  0  0  0  0
   -3.1690    0.6330   -0.3200 C   0  0  0  0  0  0  0  0  0  0  0  0
   -3.3160   -0.3160   -1.1350 O   0  0  0  0  0  0  0  0  0  0  0  0
   -2.0930   -1.4330    2.8640 S   0  0  0  0  0  0  0  0  0  0  0  0
   -0.5530   -2.2790    2.8880 C   0  0  0  0  0  0  0  0  0  0  0  0
    0.1400   -1.6840    1.8480 C   0  0  0  0  0  0  0  0  0  0  0  0
    1.4820   -2.3970    1.8860 C   0  0  0  0  0  0  0  0  0  0  0  0
    1.5190   -3.1570    3.0330 O   0  0  0  0  0  0  0  0  0  0  0  0
    0.2680   -3.3320    3.5420 C   0  0  0  0  0  0  0  0  0  0  0  0
    3.2280   -0.4500   -1.9490 C   0  0  0  0  0  0  0  0  0  0  0  0
    3.4370   -1.5050   -1.0950 F   0  0  0  0  0  0  0  0  0  0  0  0
    4.1830   -0.1580   -2.9880 C   0  0  2  0  0  0  0  0  0  0  0  0
    4.7480    1.1070   -2.8220 F   0  0  0  0  0  0  0  0  0  0  0  0
    3.7000   -0.2490   -4.2840 F   0  0  0  0  0  0  0  0  0  0  0  0
    5.5350   -1.3470   -2.7920 Cl  0  0  0  0  0  0  0  0  0  0  0  0
  1  2  2  0
  2  3  1  0
  3  4  1  0
  3 22  2  3
  4  5  1  0
  5  6  2  0
  5  7  1  0
  7  8  2  0
  7 18  1  0
  8  9  1  0
  8 16  1  0
  9 10  1  0
  9 14  1  0
 10 11  2  0
 10 12  1  0
 12 13  1  0
 13 14  1  0
 14 15  2  0
 16 17  1  0
 17 18  2  0
 17 21  1  0
 18 19  1  0
 19 20  1  0
 20 21  1  0
 22 23  1  0
 22 24  1  0
 24 25  1  1
 24 26  1  0
 24 27  1  0
M  END
