
     RDKit          3D

 27 29  0  0  0  0  0  0  0  0999 V2000
    2.9470    1.2340   -1.7520 O   0  0  0  0  0  0  0  0  0  0  0  0
    3.0420    0.1980   -1.0870 C   0  0  0  0  0  0  0  0  0  0  0  0
    1.9390   -0.3210   -0.3690 N   0  0  0  0  0  0  0  0  0  0  0  0
    0.6420    0.2470   -0.3190 C   0  0  0  0  0  0  0  0  0  0  0  0
    0.2310    1.3360   -1.0440 C   0  0  0  0  0  0  0  0  0  0  0  0
   -1.0600    1.8530   -0.9960 C   0  0  0  0  0  0  0  0  0  0  0  0
   -1.9880    1.2600   -0.1920 C   0  0  0  0  0  0  0  0  0  0  0  0
   -1.6080    0.1360    0.5700 C   0  0  0  0  0  0  0  0  0  0  0  0
   -2.6960   -0.4100    1.3580 C   0  0  0  0  0  0  0  0  0  0  0  0
   -3.3570    0.3880    2.0880 O   0  0  0  0  0  0  0  0  0  0  0  0
   -3.0740   -1.7630    1.3590 N   0  0  0  0  0  0  0  0  0  0  0  0
   -4.1630   -2.2010    2.1800 C   0  0  0  0  0  0  0  0  0  0  0  0
   -4.4720   -3.9400    2.0300 Cl  0  0  0  0  0  0  0  0  0  0  0  0
   -0.3290   -0.3440    0.5040 C   0  0  0  0  0  0  0  0  0  0  0  0
    0.1160   -1.4530    1.3550 C   0  0  2  0  0  0  0  0  0  0  0  0
    1.2250   -0.9480    2.1070 F   0  0  0  0  0  0  0  0  0  0  0  0
    0.4870   -2.5840    0.6970 F   0  0  0  0  0  0  0  0  0  0  0  0
   -0.7970   -1.7870    2.3660 F   0  0  0  0  0  0  0  0  0  0  0  0
   -3.2600    1.7890   -0.1600 O   0  0  0  0  0  0  0  0  0  0  0  0
   -3.6500    3.0010   -0.7490 C   0  0  0  0  0  0  0  0  0  0  0  0
   -2.5570    3.7560   -1.4290 C   0  0  0  0  0  0  0  0  0  0  0  0
   -1.4370    2.9560   -1.7410 O   0  0  0  0  0  0  0  0  0  0  0  0
    4.3430   -0.5450   -1.0230 C   0  0  0  0  0  0  0  0  0  0  0  0
    4.7310   -1.6400   -0.4170 C   0  0  0  0  0  0  0  0  0  0  0  0
    6.0080   -2.0610   -0.5610 C   0  0  0  0  0  0  0  0  0  0  0  0
    6.8480   -1.3310   -1.3340 C   0  0  0  0  0  0  0  0  0  0  0  0
    5.7960    0.0670   -1.9220 S   0  0  0  0  0  0  0  0  0  0  0  0
  1  2  2  0
  2  3  1  0
  2 23  1  0
  3  4  1  0
  4  5  2  0
  4 14  1  0
  5  6  1  0
  6  7  2  0
  6 22  1  0
  7  8  1  0
  7 19  1  0
  8  9  1  0
  8 14  2  0
  9 10  2  0
  9 11  1  0
 11 12  1  0
 12 13  1  0
 14 15  1  0
 15 16  1  1
 15 17  1  0
 15 18  1  0
 19 20  1  0
 20 21  1  0
 21 22  1  0
 23 24  2  0
 23 27  1  0
 24 25  1  0
 25 26  2  0
 26 27  1  0
M  END
