
     RDKit          3D

 27 29  0  0  0  0  0  0  0  0999 V2000
    0.1450   -2.3900    1.3060 O   0  0  0  0  0  0  0  0  0  0  0  0
   -0.5690   -1.4090    1.1040 C   0  0  0  0  0  0  0  0  0  0  0  0
   -0.0610   -0.2650    0.4640 N   0  0  0  0  0  0  0  0  0  0  0  0
    1.2540   -0.0960   -0.0350 C   0  0  0  0  0  0  0  0  0  0  0  0
    1.5940    1.1490   -0.5750 C   0  0  0  0  0  0  0  0  0  0  0  0
    2.8400    1.4200   -1.0880 C   0  0  0  0  0  0  0  0  0  0  0  0
    3.8150    0.4660   -1.0910 C   0  0  0  0  0  0  0  0  0  0  0  0
    5.1900    0.6890   -1.6300 C   0  0  0  0  0  0  0  0  0  0  0  0
    6.1800    0.8690   -0.4850 C   0  0  2  0  0  0  0  0  0  0  0  0
    5.8450    1.9580    0.3070 F   0  0  0  0  0  0  0  0  0  0  0  0
    7.4260    1.0890   -0.9980 F   0  0  0  0  0  0  0  0  0  0  0  0
    3.5090   -0.7740   -0.5640 C   0  0  0  0  0  0  0  0  0  0  0  0
    4.4480   -1.7240   -0.5560 F   0  0  0  0  0  0  0  0  0  0  0  0
    2.2480   -1.0280   -0.0520 C   0  0  0  0  0  0  0  0  0  0  0  0
   -2.0150   -1.4170    1.5550 C   0  0  0  0  0  0  0  0  0  0  0  0
   -2.2910   -2.0120    2.8030 C   0  0  0  0  0  0  0  0  0  0  0  0
   -1.2830   -2.7530    3.9680 Cl  0  0  0  0  0  0  0  0  0  0  0  0
   -4.1190   -1.7900    2.8950 S   0  0  0  0  0  0  0  0  0  0  0  0
   -4.3070   -1.0080    1.4110 C   0  0  0  0  0  0  0  0  0  0  0  0
   -3.0560   -0.9230    0.8760 C   0  0  0  0  0  0  0  0  0  0  0  0
   -2.8800   -0.3600   -0.5050 C   0  0  0  0  0  0  0  0  0  0  0  0
   -2.0100   -0.8780   -1.2440 O   0  0  0  0  0  0  0  0  0  0  0  0
   -3.5840    0.6880   -1.0790 O   0  0  0  0  0  0  0  0  0  0  0  0
   -4.7330    1.3320   -0.5720 C   0  0  0  0  0  0  0  0  0  0  0  0
   -5.7480    0.4590    0.0180 C   0  0  0  0  0  0  0  0  0  0  0  0
   -7.0920    0.6850   -0.3400 O   0  0  0  0  0  0  0  0  0  0  0  0
   -5.5820   -0.5200    0.8470 N   0  0  0  0  0  0  0  0  0  0  0  0
  1  2  2  0
  2  3  1  0
  2 15  1  0
  3  4  1  0
  4  5  2  0
  4 14  1  0
  5  6  1  0
  6  7  2  0
  7  8  1  0
  7 12  1  0
  8  9  1  0
  9 10  1  6
  9 11  1  0
 12 13  1  0
 12 14  2  0
 15 16  2  0
 15 20  1  0
 16 17  1  0
 16 18  1  0
 18 19  1  0
 19 20  2  0
 19 27  1  0
 20 21  1  0
 21 22  2  0
 21 23  1  0
 23 24  1  0
 24 25  1  0
 25 26  1  0
 25 27  2  0
M  END
