
     RDKit          3D

 27 29  0  0  0  0  0  0  0  0999 V2000
    0.0370   -0.8810   -0.4340 O   0  0  0  0  0  0  0  0  0  0  0  0
    0.6960    0.0740   -0.8590 C   0  0  0  0  0  0  0  0  0  0  0  0
    0.0340    1.0440   -1.6440 N   0  0  0  0  0  0  0  0  0  0  0  0
   -1.2620    1.1030   -2.0300 N   0  0  0  0  0  0  0  0  0  0  0  0
   -2.4460    1.3200   -0.8190 S   0  0  2  0  0  0  0  0  0  0  0  0
   -3.3930    2.3730   -1.3970 O   0  0  0  0  0  0  0  0  0  0  0  0
   -1.7110    1.8990    0.3820 O   0  0  0  0  0  0  0  0  0  0  0  0
   -3.2970   -0.1470   -0.4140 C   0  0  0  0  0  0  0  0  0  0  0  0
   -3.0530   -1.3370   -1.1180 C   0  0  0  0  0  0  0  0  0  0  0  0
   -3.7490   -2.4780   -0.7890 C   0  0  0  0  0  0  0  0  0  0  0  0
   -4.6870   -2.4670    0.2280 C   0  0  0  0  0  0  0  0  0  0  0  0
   -4.8850   -1.2870    0.8790 C   0  0  0  0  0  0  0  0  0  0  0  0
   -4.2150   -0.1090    0.5920 C   0  0  0  0  0  0  0  0  0  0  0  0
   -4.5080    1.0810    1.3500 C   0  0  1  0  0  0  0  0  0  0  0  0
   -4.9850    2.0710    0.5260 F   0  0  0  0  0  0  0  0  0  0  0  0
   -5.5830    0.8060    2.2210 F   0  0  0  0  0  0  0  0  0  0  0  0
   -3.5070    1.5200    2.1810 F   0  0  0  0  0  0  0  0  0  0  0  0
    2.1210    0.1580   -0.5340 C   0  0  0  0  0  0  0  0  0  0  0  0
    2.8160   -0.7760    0.2340 C   0  0  0  0  0  0  0  0  0  0  0  0
    4.1290   -0.3690    0.3260 C   0  0  0  0  0  0  0  0  0  0  0  0
    5.2740   -0.8330    0.9180 C   0  0  0  0  0  0  0  0  0  0  0  0
    6.4410   -0.1330    0.7880 C   0  0  0  0  0  0  0  0  0  0  0  0
    7.9100   -0.7370    1.5510 Cl  0  0  0  0  0  0  0  0  0  0  0  0
    6.4930    1.0400    0.0690 C   0  0  0  0  0  0  0  0  0  0  0  0
    5.3630    1.5270   -0.5340 C   0  0  0  0  0  0  0  0  0  0  0  0
    4.1880    0.8080   -0.3950 C   0  0  0  0  0  0  0  0  0  0  0  0
    2.9990    1.0490   -0.8600 O   0  0  0  0  0  0  0  0  0  0  0  0
  1  2  2  0
  2  3  1  0
  2 18  1  0
  3  4  1  0
  5  4  1  6
  5  6  2  0
  5  7  2  0
  5  8  1  0
  8  9  2  0
  8 13  1  0
  9 10  1  0
 10 11  2  0
 11 12  1  0
 12 13  2  0
 13 14  1  0
 14 15  1  6
 14 16  1  0
 14 17  1  0
 18 19  2  0
 18 27  1  0
 19 20  1  0
 20 21  2  0
 20 26  1  0
 21 22  1  0
 22 23  1  0
 22 24  2  0
 24 25  1  0
 25 26  2  0
 26 27  1  0
M  END
