
     RDKit          3D

 27 29  0  0  0  0  0  0  0  0999 V2000
    0.5590    3.9690    0.0030 O   0  0  0  0  0  0  0  0  0  0  0  0
   -0.0370    2.8370    0.0100 C   0  0  0  0  0  0  0  0  0  0  0  0
    0.6510    1.6510   -0.4030 C   0  0  0  0  0  0  0  0  0  0  0  0
    2.0410    1.6700   -0.6820 C   0  0  0  0  0  0  0  0  0  0  0  0
    2.3770    0.3780   -0.9580 C   0  0  0  0  0  0  0  0  0  0  0  0
    3.7070   -0.1910   -1.3180 C   0  0  0  0  0  0  0  0  0  0  0  0
    4.4580   -0.5850   -0.0960 N   0  0  0  0  0  0  0  0  0  0  0  0
    4.3670   -1.7690    0.4030 C   0  0  0  0  0  0  0  0  0  0  0  0
    3.6220   -2.7390   -0.0990 O   0  0  0  0  0  0  0  0  0  0  0  0
    5.0570   -2.0910    1.5060 N   0  0  0  0  0  0  0  0  0  0  0  0
    5.9230   -0.5730    1.8830 S   0  0  0  0  0  0  0  0  0  0  0  0
    5.2430    0.3660    0.4680 C   0  0  0  0  0  0  0  0  0  0  0  0
    5.4830    1.5290    0.1840 O   0  0  0  0  0  0  0  0  0  0  0  0
    1.3160   -0.3550   -0.8620 O   0  0  0  0  0  0  0  0  0  0  0  0
    0.2370    0.3570   -0.5310 C   0  0  0  0  0  0  0  0  0  0  0  0
   -1.0820   -0.1980   -0.3520 C   0  0  0  0  0  0  0  0  0  0  0  0
   -1.1350   -1.5930   -0.1770 C   0  0  0  0  0  0  0  0  0  0  0  0
   -2.3250   -2.2710   -0.0420 C   0  0  0  0  0  0  0  0  0  0  0  0
   -3.5140   -1.5520   -0.0800 C   0  0  0  0  0  0  0  0  0  0  0  0
   -5.0060   -2.4660    0.0800 Cl  0  0  0  0  0  0  0  0  0  0  0  0
   -3.4730   -0.1900   -0.2520 C   0  0  0  0  0  0  0  0  0  0  0  0
   -4.7500    0.5720   -0.2730 C   0  0  0  0  0  0  0  0  0  0  0  0
   -5.2090    0.7470    1.1500 C   0  0  1  0  0  0  0  0  0  0  0  0
   -6.3990    1.4480    1.2170 F   0  0  0  0  0  0  0  0  0  0  0  0
   -5.3100   -0.3930    1.8720 F   0  0  0  0  0  0  0  0  0  0  0  0
   -4.2430    1.5430    1.7820 F   0  0  0  0  0  0  0  0  0  0  0  0
   -2.2520    0.4610   -0.3860 C   0  0  0  0  0  0  0  0  0  0  0  0
  1  2  2  0
  2  3  1  0
  3  4  1  0
  3 15  2  0
  4  5  2  0
  5  6  1  0
  5 14  1  0
  6  7  1  0
  7  8  1  0
  7 12  1  0
  8  9  2  0
  8 10  1  0
 10 11  1  0
 11 12  1  0
 12 13  2  0
 14 15  1  0
 15 16  1  0
 16 17  2  0
 16 27  1  0
 17 18  1  0
 18 19  2  0
 19 20  1  0
 19 21  1  0
 21 22  1  0
 21 27  2  0
 22 23  1  0
 23 24  1  6
 23 25  1  0
 23 26  1  0
M  END
