
     RDKit          3D

 27 29  0  0  0  0  0  0  0  0999 V2000
   -7.8340    1.2650    0.0340 C   0  0  0  0  0  0  0  0  0  0  0  0
   -6.6870    0.4560   -0.1020 O   0  0  0  0  0  0  0  0  0  0  0  0
   -5.4050    0.8970   -0.0050 C   0  0  0  0  0  0  0  0  0  0  0  0
   -5.2010    2.1160    0.2230 O   0  0  0  0  0  0  0  0  0  0  0  0
   -4.2310    0.0380   -0.1500 C   0  0  0  0  0  0  0  0  0  0  0  0
   -2.5220    0.5950   -0.0270 S   0  0  0  0  0  0  0  0  0  0  0  0
   -1.8670   -1.1520   -0.3430 C   0  0  0  0  0  0  0  0  0  0  0  0
   -0.4530   -1.3210   -0.3570 N   0  0  0  0  0  0  0  0  0  0  0  0
    0.4770   -0.2830   -0.1540 C   0  0  0  0  0  0  0  0  0  0  0  0
    0.0600    0.8790    0.0560 O   0  0  0  0  0  0  0  0  0  0  0  0
    1.9030   -0.5200   -0.1820 C   0  0  0  0  0  0  0  0  0  0  0  0
    2.5990   -1.6950   -0.3910 C   0  0  0  0  0  0  0  0  0  0  0  0
    3.8860   -1.4300   -0.3260 O   0  0  0  0  0  0  0  0  0  0  0  0
    4.1000   -0.1650   -0.0900 C   0  0  0  0  0  0  0  0  0  0  0  0
    5.3740    0.5220    0.0530 C   0  0  0  0  0  0  0  0  0  0  0  0
    5.5580    1.8030    0.2920 C   0  0  0  0  0  0  0  0  0  0  0  0
    6.9950    2.0570    0.3560 C   0  0  0  0  0  0  0  0  0  0  0  0
    7.6490    0.7640    0.1240 C   0  0  0  0  0  0  0  0  0  0  0  0
    6.6910   -0.1270   -0.0520 C   0  0  0  0  0  0  0  0  0  0  0  0
    7.0200   -1.8240   -0.3620 Cl  0  0  0  0  0  0  0  0  0  0  0  0
    2.8690    0.4410    0.0080 C   0  0  0  0  0  0  0  0  0  0  0  0
   -2.8570   -1.7360   -0.4630 N   0  0  0  0  0  0  0  0  0  0  0  0
   -4.1070   -1.3130   -0.3990 C   0  0  0  0  0  0  0  0  0  0  0  0
   -5.2900   -2.1910   -0.5750 C   0  0  1  0  0  0  0  0  0  0  0  0
   -6.0250   -2.1150    0.6030 F   0  0  0  0  0  0  0  0  0  0  0  0
   -6.0740   -1.7390   -1.6160 F   0  0  0  0  0  0  0  0  0  0  0  0
   -5.0120   -3.4990   -0.7960 F   0  0  0  0  0  0  0  0  0  0  0  0
  1  2  1  0
  2  3  1  0
  3  4  2  0
  3  5  1  0
  5  6  1  0
  5 23  2  0
  6  7  1  0
  7  8  1  0
  7 22  2  0
  8  9  1  0
  9 10  2  0
  9 11  1  0
 11 12  2  0
 11 21  1  0
 12 13  1  0
 13 14  1  0
 14 15  1  0
 14 21  2  0
 15 16  2  0
 15 19  1  0
 16 17  1  0
 17 18  1  0
 18 19  2  0
 19 20  1  0
 22 23  1  0
 23 24  1  0
 24 25  1  1
 24 26  1  0
 24 27  1  0
M  END
