
     RDKit          3D

 19 19  0  0  0  0  0  0  0  0999 V2000
   -5.0190    1.8720   -0.8030 C   0  0  0  0  0  0  0  0  0  0  0  0
   -4.6890    0.5200   -1.3130 C   0  0  0  0  0  0  0  0  0  0  0  0
   -3.4190   -0.1020   -0.9280 C   0  0  0  0  0  0  0  0  0  0  0  0
   -3.0840   -0.3970    0.4600 C   0  0  1  0  0  0  0  0  0  0  0  0
   -1.8140   -1.0060    0.5070 O   0  0  0  0  0  0  0  0  0  0  0  0
   -0.7750   -0.2910    0.0260 C   0  0  0  0  0  0  0  0  0  0  0  0
    0.4660   -1.1820    0.2300 C   0  0  0  0  0  0  0  0  0  0  0  0
    1.7020   -0.4470   -0.2900 C   0  0  0  0  0  0  0  0  0  0  0  0
    2.9330   -1.2630   -0.1170 C   0  0  1  0  0  0  0  0  0  0  0  0
    2.7940   -2.6100   -0.8710 C   0  0  0  0  0  0  0  0  0  0  0  0
    4.1340   -0.6190   -0.6860 C   0  0  0  0  0  0  0  0  0  0  0  0
    4.5790    0.6940   -0.1790 C   0  0  1  0  0  0  0  0  0  0  0  0
    3.6540    1.8490   -0.3300 C   0  0  0  0  0  0  0  0  0  0  0  0
    4.9670    0.6090    1.3000 C   0  0  0  0  0  0  0  0  0  0  0  0
    5.9070    1.0080   -0.9030 C   0  0  0  0  0  0  0  0  0  0  0  0
   -3.0330    0.7290    1.4330 C   0  0  0  0  0  0  0  0  0  0  0  0
   -3.9720    0.4500    2.5770 C   0  0  0  0  0  0  0  0  0  0  0  0
   -4.9020   -0.5810    2.0320 C   0  0  0  0  0  0  0  0  0  0  0  0
   -3.9920   -1.4030    1.1410 C   0  0  0  0  0  0  0  0  0  0  0  0
  1  2  1  0
  2  3  1  0
  4  3  1  6
  4  5  1  0
  4 16  1  0
  4 19  1  0
  5  6  1  0
  6  7  1  0
  7  8  1  0
  8  9  1  0
  9 10  1  6
  9 11  1  0
 11 12  1  0
 12 13  1  1
 12 14  1  0
 12 15  1  0
 16 17  1  0
 17 18  1  0
 18 19  1  0
M  END
