
     RDKit          3D

 20 19  0  0  0  0  0  0  0  0999 V2000
   -7.2590   -1.3290    1.9420 C   0  0  0  0  0  0  0  0  0  0  0  0
   -7.0970    0.1620    1.7740 C   0  0  0  0  0  0  0  0  0  0  0  0
   -6.2270    0.4410    0.5610 C   0  0  0  0  0  0  0  0  0  0  0  0
   -4.8920   -0.2120    0.8100 C   0  0  0  0  0  0  0  0  0  0  0  0
   -3.9440    0.0160   -0.3630 C   0  0  0  0  0  0  0  0  0  0  0  0
   -2.6400   -0.6660   -0.0320 C   0  0  0  0  0  0  0  0  0  0  0  0
   -1.6320   -0.4860   -1.1340 C   0  0  0  0  0  0  0  0  0  0  0  0
   -1.9580    0.2010   -2.1940 C   0  0  0  0  0  0  0  0  0  0  0  0
   -1.0390    0.4320   -3.3130 C   0  0  0  0  0  0  0  0  0  0  0  0
    0.3280   -0.0820   -3.0550 C   0  0  0  0  0  0  0  0  0  0  0  0
    1.0980    0.6350   -1.9810 C   0  0  0  0  0  0  0  0  0  0  0  0
    2.4400   -0.0560   -1.8260 C   0  0  0  0  0  0  0  0  0  0  0  0
    3.2820    0.6090   -0.7560 C   0  0  0  0  0  0  0  0  0  0  0  0
    4.5930   -0.1330   -0.6630 C   0  0  0  0  0  0  0  0  0  0  0  0
    5.4900    0.4800    0.3920 C   0  0  0  0  0  0  0  0  0  0  0  0
    4.8730    0.4530    1.7500 C   0  0  0  0  0  0  0  0  0  0  0  0
    5.7610    1.0580    2.7790 C   0  0  0  0  0  0  0  0  0  0  0  0
    7.0600    0.4150    2.9620 C   0  0  0  0  0  0  0  0  0  0  0  0
    7.8380    0.9530    3.8160 O   0  0  0  0  0  0  0  0  0  0  0  0
    7.5390   -0.7010    2.3220 O   0  0  0  0  0  0  0  0  0  0  0  0
  1  2  1  0
  2  3  1  0
  3  4  1  0
  4  5  1  0
  5  6  1  0
  6  7  1  0
  7  8  2  3
  8  9  1  0
  9 10  1  0
 10 11  1  0
 11 12  1  0
 12 13  1  0
 13 14  1  0
 14 15  1  0
 15 16  1  0
 16 17  1  0
 17 18  1  0
 18 19  2  0
 18 20  1  0
M  END
