
     RDKit          3D

 20 20  0  0  0  0  0  0  0  0999 V2000
    3.8790    1.4300   -1.0930 C   0  0  0  0  0  0  0  0  0  0  0  0
    3.7340    0.5150    0.1280 C   0  0  2  0  0  0  0  0  0  0  0  0
    3.8480   -0.8910   -0.3710 C   0  0  0  0  0  0  0  0  0  0  0  0
    2.3530    0.8220    0.6980 C   0  0  0  0  0  0  0  0  0  0  0  0
    2.0520    0.0070    1.9030 C   0  0  0  0  0  0  0  0  0  0  0  0
    0.7120    0.3240    2.4750 C   0  0  0  0  0  0  0  0  0  0  0  0
   -0.4090    0.0570    1.5590 C   0  0  0  0  0  0  0  0  0  0  0  0
   -1.5710    0.2440    2.0410 O   0  0  0  0  0  0  0  0  0  0  0  0
   -0.3620   -0.3650    0.2680 O   0  0  0  0  0  0  0  0  0  0  0  0
   -1.4030   -0.6300   -0.6050 C   0  0  1  0  0  0  0  0  0  0  0  0
   -1.5400    0.3110   -1.7730 C   0  0  0  0  0  0  0  0  0  0  0  0
   -1.7850    1.7220   -1.3810 C   0  0  0  0  0  0  0  0  0  0  0  0
   -2.8620    2.4000   -1.7390 C   0  0  0  0  0  0  0  0  0  0  0  0
   -2.7870    3.7470   -1.1880 C   0  0  0  0  0  0  0  0  0  0  0  0
   -1.5220    3.7880   -0.4530 C   0  0  0  0  0  0  0  0  0  0  0  0
   -0.9540    2.6000   -0.5770 C   0  0  0  0  0  0  0  0  0  0  0  0
   -1.5010   -2.0450   -1.0850 C   0  0  0  0  0  0  0  0  0  0  0  0
   -1.6950   -3.0610   -0.0070 C   0  0  1  0  0  0  0  0  0  0  0  0
   -0.6170   -3.1240    1.0180 C   0  0  0  0  0  0  0  0  0  0  0  0
   -3.0330   -2.9280    0.6880 C   0  0  0  0  0  0  0  0  0  0  0  0
  2  1  1  6
  2  3  1  0
  2  4  1  0
  4  5  1  0
  5  6  1  0
  6  7  1  0
  7  8  2  0
  7  9  1  0
  9 10  1  0
 10 11  1  6
 10 17  1  0
 11 12  1  0
 12 13  2  0
 12 16  1  0
 13 14  1  0
 14 15  1  0
 15 16  2  0
 17 18  1  0
 18 19  1  1
 18 20  1  0
M  END
