
     RDKit          3D

 20 20  0  0  0  0  0  0  0  0999 V2000
    6.9750   -0.9050    1.0320 C   0  0  0  0  0  0  0  0  0  0  0  0
    6.2630   -0.9390   -0.0760 C   0  0  0  0  0  0  0  0  0  0  0  0
    5.6040    0.3300   -0.5570 C   0  0  0  0  0  0  0  0  0  0  0  0
    4.1130    0.0390   -0.5900 C   0  0  0  0  0  0  0  0  0  0  0  0
    3.3280    1.2460   -1.0600 C   0  0  0  0  0  0  0  0  0  0  0  0
    1.8660    0.8770   -1.0650 C   0  0  0  0  0  0  0  0  0  0  0  0
    1.4450    0.5060    0.2540 O   0  0  0  0  0  0  0  0  0  0  0  0
    0.1130    0.1310    0.4480 C   0  0  0  0  0  0  0  0  0  0  0  0
   -0.1640   -1.2130    0.2940 C   0  0  0  0  0  0  0  0  0  0  0  0
    0.8910   -2.1990   -0.0570 C   0  0  0  0  0  0  0  0  0  0  0  0
   -1.4690   -1.5930    0.4820 C   0  0  0  0  0  0  0  0  0  0  0  0
   -2.4810   -0.6730    0.8140 C   0  0  0  0  0  0  0  0  0  0  0  0
   -3.8570   -1.2050    1.0070 C   0  0  0  0  0  0  0  0  0  0  0  0
   -4.6570   -1.3120   -0.2360 C   0  0  0  0  0  0  0  0  0  0  0  0
   -5.0100   -0.0830   -0.9680 C   0  0  0  0  0  0  0  0  0  0  0  0
   -5.9090    0.8820   -0.2800 C   0  0  0  0  0  0  0  0  0  0  0  0
   -5.5050    1.3950    0.9050 O   0  0  0  0  0  0  0  0  0  0  0  0
   -2.1940    0.6510    0.9640 C   0  0  0  0  0  0  0  0  0  0  0  0
   -0.8630    1.0480    0.7730 C   0  0  0  0  0  0  0  0  0  0  0  0
   -0.5160    2.4850    0.9290 C   0  0  0  0  0  0  0  0  0  0  0  0
  1  2  2  0
  2  3  1  0
  3  4  1  0
  4  5  1  0
  5  6  1  0
  6  7  1  0
  7  8  1  0
  8  9  2  0
  8 19  1  0
  9 10  1  0
  9 11  1  0
 11 12  2  0
 12 13  1  0
 12 18  1  0
 13 14  1  0
 14 15  1  0
 15 16  1  0
 16 17  1  0
 18 19  2  0
 19 20  1  0
M  END
