
     RDKit          3D

 19 18  0  0  0  0  0  0  0  0999 V2000
    2.1680   -1.5730   -0.5050 C   0  0  0  0  0  0  0  0  0  0  0  0
    2.3500   -0.3820    0.3670 C   0  0  1  0  0  0  0  0  0  0  0  0
    1.4820   -0.3760    1.5780 C   0  0  0  0  0  0  0  0  0  0  0  0
   -0.0210   -0.4130    1.3120 C   0  0  0  0  0  0  0  0  0  0  0  0
   -0.4870    0.7560    0.5350 C   0  0  0  0  0  0  0  0  0  0  0  0
   -1.8790    0.9210    0.1770 C   0  0  0  0  0  0  0  0  0  0  0  0
   -3.0110    0.3000    0.3630 C   0  0  0  0  0  0  0  0  0  0  0  0
   -3.1680   -0.9610    1.1320 C   0  0  0  0  0  0  0  0  0  0  0  0
   -3.6330   -2.1460    0.3490 C   0  0  0  0  0  0  0  0  0  0  0  0
   -2.7080   -2.4260   -0.6600 O   0  0  0  0  0  0  0  0  0  0  0  0
   -4.2970    0.8910   -0.1800 C   0  0  2  0  0  0  0  0  0  0  0  0
   -4.0070    2.2530   -0.7590 C   0  0  0  0  0  0  0  0  0  0  0  0
   -5.2860    1.0900    0.9520 C   0  0  0  0  0  0  0  0  0  0  0  0
   -4.9550    0.0820   -1.2350 C   0  0  0  0  0  0  0  0  0  0  0  0
    3.7400   -0.1020    0.8260 C   0  0  0  0  0  0  0  0  0  0  0  0
    4.7800    0.1710   -0.1810 C   0  0  1  0  0  0  0  0  0  0  0  0
    5.0550   -0.9210   -1.1650 C   0  0  0  0  0  0  0  0  0  0  0  0
    4.5970    1.5190   -0.8690 C   0  0  0  0  0  0  0  0  0  0  0  0
    6.0960    0.3540    0.6090 C   0  0  0  0  0  0  0  0  0  0  0  0
  2  1  1  1
  2  3  1  0
  2 15  1  0
  3  4  1  0
  4  5  1  0
  5  6  1  0
  6  7  2  3
  7  8  1  0
  7 11  1  0
  8  9  1  0
  9 10  1  0
 11 12  1  6
 11 13  1  0
 11 14  1  0
 15 16  1  0
 16 17  1  6
 16 18  1  0
 16 19  1  0
M  END
