
     RDKit          3D

 19 21  0  0  0  0  0  0  0  0999 V2000
   -4.6400    0.9770   -1.3630 O   0  0  0  0  0  0  0  0  0  0  0  0
   -3.3610    0.7660   -1.8840 C   0  0  0  0  0  0  0  0  0  0  0  0
   -2.5450    0.1130   -0.7990 C   0  0  1  0  0  0  0  0  0  0  0  0
   -1.2350   -0.1470   -1.2130 O   0  0  0  0  0  0  0  0  0  0  0  0
   -0.6180   -0.4340    0.0070 C   0  0  1  0  0  0  0  0  0  0  0  0
    0.8040   -0.6200   -0.1320 N   0  0  0  0  0  0  0  0  0  0  0  0
    1.3910   -1.7150   -0.8810 C   0  0  0  0  0  0  0  0  0  0  0  0
    2.7590   -1.7940   -0.4450 N   0  0  0  0  0  0  0  0  0  0  0  0
    3.0710   -0.5670    0.1820 C   0  0  0  0  0  0  0  0  0  0  0  0
    4.2880   -0.0240    0.5970 C   0  0  0  0  0  0  0  0  0  0  0  0
    5.4540   -0.7400    0.4030 O   0  0  0  0  0  0  0  0  0  0  0  0
    4.2450    1.1910    1.1730 N   0  0  0  0  0  0  0  0  0  0  0  0
    3.0840    1.8540    1.3430 C   0  0  0  0  0  0  0  0  0  0  0  0
    1.9030    1.3470    0.9500 N   0  0  0  0  0  0  0  0  0  0  0  0
    1.8970    0.1250    0.3640 C   0  0  0  0  0  0  0  0  0  0  0  0
   -0.9810    0.7650    0.8240 C   0  0  2  0  0  0  0  0  0  0  0  0
   -0.8260    0.5630    2.1900 O   0  0  0  0  0  0  0  0  0  0  0  0
   -2.4330    0.9690    0.4390 C   0  0  2  0  0  0  0  0  0  0  0  0
   -3.2430    0.4070    1.4150 O   0  0  0  0  0  0  0  0  0  0  0  0
  1  2  1  0
  3  2  1  6
  3  4  1  0
  3 18  1  0
  4  5  1  0
  5  6  1  6
  5 16  1  0
  6  7  1  0
  6 15  1  0
  7  8  1  0
  8  9  1  0
  9 10  2  0
  9 15  1  0
 10 11  1  0
 10 12  1  0
 12 13  2  0
 13 14  1  0
 14 15  2  0
 16 17  1  1
 16 18  1  0
 18 19  1  1
M  END
