
     RDKit          3D

 20 19  0  0  0  0  0  0  0  0999 V2000
   -1.0960   -2.2390   -3.4260 C   0  0  0  0  0  0  0  0  0  0  0  0
   -1.5500   -2.5090   -2.1680 O   0  0  0  0  0  0  0  0  0  0  0  0
   -0.7590   -2.1400   -1.1300 C   0  0  0  0  0  0  0  0  0  0  0  0
   -0.4800   -0.6710   -0.9680 C   0  0  2  0  0  0  0  0  0  0  0  0
    0.3930   -0.5950    0.1530 O   0  0  0  0  0  0  0  0  0  0  0  0
    1.5470    0.0700   -0.1920 C   0  0  0  0  0  0  0  0  0  0  0  0
    2.4480    0.1360    0.9620 C   0  0  0  0  0  0  0  0  0  0  0  0
    2.2130   -0.3480    2.0970 O   0  0  0  0  0  0  0  0  0  0  0  0
    3.7070    0.8010    0.8100 N   0  0  0  0  0  0  0  0  0  0  0  0
    4.6320    0.9070    1.8760 C   0  0  0  0  0  0  0  0  0  0  0  0
    5.8600    1.5800    1.6500 N   0  0  0  0  0  0  0  0  0  0  0  0
    4.3370    0.2810    3.3570 S   0  0  0  0  0  0  0  0  0  0  0  0
   -1.7010    0.1060   -0.5450 C   0  0  2  0  0  0  0  0  0  0  0  0
   -2.2610   -0.4870    0.5370 O   0  0  0  0  0  0  0  0  0  0  0  0
   -2.3380    0.1730    1.7100 C   0  0  0  0  0  0  0  0  0  0  0  0
   -1.0810    0.6280    2.3600 C   0  0  0  0  0  0  0  0  0  0  0  0
   -1.4780    1.2810    3.5580 O   0  0  0  0  0  0  0  0  0  0  0  0
   -2.6460    0.3900   -1.6490 C   0  0  0  0  0  0  0  0  0  0  0  0
   -4.0180    0.0270   -1.6210 N   0  0  0  0  0  0  0  0  0  0  0  0
   -2.2340    0.9820   -2.6760 O   0  0  0  0  0  0  0  0  0  0  0  0
  1  2  1  0
  2  3  1  0
  4  3  1  1
  4  5  1  0
  4 13  1  0
  5  6  1  0
  6  7  1  0
  7  8  2  0
  7  9  1  0
  9 10  1  0
 10 11  1  0
 10 12  2  0
 13 14  1  1
 13 18  1  0
 14 15  1  0
 15 16  1  0
 16 17  1  0
 18 19  1  0
 18 20  2  0
M  END
