
     RDKit          3D

 20 19  0  0  0  0  0  0  0  0999 V2000
   -6.1230    2.1490   -1.3310 C   0  0  0  0  0  0  0  0  0  0  0  0
   -5.0060    1.2660   -1.2160 O   0  0  0  0  0  0  0  0  0  0  0  0
   -4.7960    0.4950   -0.0950 C   0  0  0  0  0  0  0  0  0  0  0  0
   -5.6290    0.5790    0.8540 O   0  0  0  0  0  0  0  0  0  0  0  0
   -3.6240   -0.4130    0.0070 C   0  0  0  0  0  0  0  0  0  0  0  0
   -2.8540   -0.0910    1.2590 C   0  0  0  0  0  0  0  0  0  0  0  0
   -1.6920   -0.9290    1.4300 N   0  0  0  0  0  0  0  0  0  0  0  0
   -0.6180   -0.9820    0.4730 C   0  0  0  0  0  0  0  0  0  0  0  0
   -0.7470   -0.2620   -0.5260 O   0  0  0  0  0  0  0  0  0  0  0  0
    0.5110   -1.8040    0.6610 N   0  0  0  0  0  0  0  0  0  0  0  0
    1.6320   -1.8970   -0.1700 C   0  0  0  0  0  0  0  0  0  0  0  0
    2.6230   -0.8000   -0.3060 C   0  0  2  0  0  0  0  0  0  0  0  0
    3.5320   -1.2810   -1.3120 O   0  0  0  0  0  0  0  0  0  0  0  0
    3.5130   -0.7080    0.9270 C   0  0  0  0  0  0  0  0  0  0  0  0
    4.5630    0.3440    0.8150 C   0  0  0  0  0  0  0  0  0  0  0  0
    4.0290    2.0130    0.6110 S   0  0  0  0  0  0  0  0  0  0  0  0
    4.3390    2.8440    1.8580 O   0  0  0  0  0  0  0  0  0  0  0  0
    2.1650    0.5270   -0.6560 C   0  0  0  0  0  0  0  0  0  0  0  0
    2.4110    1.1280   -1.9380 N   0  0  0  0  0  0  0  0  0  0  0  0
    1.5170    1.2300    0.1600 O   0  0  0  0  0  0  0  0  0  0  0  0
  1  2  1  0
  2  3  1  0
  3  4  2  0
  3  5  1  0
  5  6  1  0
  6  7  1  0
  7  8  1  0
  8  9  2  0
  8 10  1  0
 10 11  1  0
 11 12  1  0
 12 13  1  6
 12 14  1  0
 12 18  1  0
 14 15  1  0
 15 16  1  0
 16 17  2  0
 18 19  1  0
 18 20  2  0
M  END
