
     RDKit          3D

 20 19  0  0  0  0  0  0  0  0999 V2000
   -2.4570   -1.0930   -2.0450 N   0  0  0  0  0  0  0  0  0  0  0  0
   -2.3780   -0.3760   -1.1570 C   0  0  0  0  0  0  0  0  0  0  0  0
   -2.2820    0.5730    0.0570 C   0  0  1  0  0  0  0  0  0  0  0  0
   -2.6240    1.9220   -0.4950 C   0  0  0  0  0  0  0  0  0  0  0  0
   -2.6740    2.9270    0.4290 O   0  0  0  0  0  0  0  0  0  0  0  0
   -3.2670    0.1140    1.0470 C   0  0  0  0  0  0  0  0  0  0  0  0
   -4.6400    0.0590    0.7080 N   0  0  0  0  0  0  0  0  0  0  0  0
   -2.9150   -0.2310    2.1860 O   0  0  0  0  0  0  0  0  0  0  0  0
   -0.8590    0.4310    0.4600 C   0  0  1  0  0  0  0  0  0  0  0  0
   -0.1110    0.8700   -0.6810 O   0  0  0  0  0  0  0  0  0  0  0  0
   -0.3870    1.2000    1.6110 C   0  0  0  0  0  0  0  0  0  0  0  0
   -0.4170    2.9840    1.4770 S   0  0  0  0  0  0  0  0  0  0  0  0
   -0.4840   -1.0530    0.5920 C   0  0  0  0  0  0  0  0  0  0  0  0
    0.8840   -1.3280    0.8270 N   0  0  0  0  0  0  0  0  0  0  0  0
    1.9840   -1.0700    0.0070 C   0  0  0  0  0  0  0  0  0  0  0  0
    1.8440   -0.5420   -1.0960 O   0  0  0  0  0  0  0  0  0  0  0  0
    3.2980   -1.3860    0.3700 O   0  0  0  0  0  0  0  0  0  0  0  0
    4.4000   -1.1390   -0.4300 C   0  0  0  0  0  0  0  0  0  0  0  0
    4.3940   -1.8280   -1.7650 C   0  0  0  0  0  0  0  0  0  0  0  0
    5.5690   -1.4900   -2.4730 O   0  0  0  0  0  0  0  0  0  0  0  0
  1  2  3  0
  3  2  1  6
  3  4  1  0
  3  6  1  0
  3  9  1  0
  4  5  1  0
  6  7  1  0
  6  8  2  0
  9 10  1  6
  9 11  1  0
  9 13  1  0
 11 12  1  0
 13 14  1  0
 14 15  1  0
 15 16  2  0
 15 17  1  0
 17 18  1  0
 18 19  1  0
 19 20  1  0
M  END
