
     RDKit          3D

 20 19  0  0  0  0  0  0  0  0999 V2000
    4.6550   -1.0260    2.1580 C   0  0  0  0  0  0  0  0  0  0  0  0
    4.0700    0.1420    1.6200 O   0  0  0  0  0  0  0  0  0  0  0  0
    2.7350    0.3590    1.8030 C   0  0  0  0  0  0  0  0  0  0  0  0
    1.9060    0.8220    0.8270 C   0  0  0  0  0  0  0  0  0  0  0  0
    0.2600    1.0270    1.2600 S   0  0  0  0  0  0  0  0  0  0  0  0
   -0.9180    1.2800   -0.0080 C   0  0  0  0  0  0  0  0  0  0  0  0
   -1.1360    0.0990   -0.9120 C   0  0  0  0  0  0  0  0  0  0  0  0
   -1.5940   -1.0210   -0.2730 O   0  0  0  0  0  0  0  0  0  0  0  0
   -2.8200   -0.9030    0.3050 C   0  0  1  0  0  0  0  0  0  0  0  0
   -3.8200   -1.9190   -0.2380 C   0  0  0  0  0  0  0  0  0  0  0  0
   -4.0010   -1.7660   -1.6060 O   0  0  0  0  0  0  0  0  0  0  0  0
   -2.8060   -1.1290    1.7890 C   0  0  0  0  0  0  0  0  0  0  0  0
   -4.0080   -1.0310    2.5060 N   0  0  0  0  0  0  0  0  0  0  0  0
   -1.7490   -1.3980    2.3730 O   0  0  0  0  0  0  0  0  0  0  0  0
    2.5360    1.0280   -0.4260 C   0  0  0  0  0  0  0  0  0  0  0  0
    3.8080    0.7170   -0.4730 O   0  0  0  0  0  0  0  0  0  0  0  0
    2.0270    1.5180   -1.6470 N   0  0  0  0  0  0  0  0  0  0  0  0
    2.8880    1.6160   -2.7940 C   0  0  0  0  0  0  0  0  0  0  0  0
    2.3310    2.1140   -4.0070 N   0  0  0  0  0  0  0  0  0  0  0  0
    4.0960    1.2850   -2.7750 O   0  0  0  0  0  0  0  0  0  0  0  0
  1  2  1  0
  2  3  1  0
  3  4  2  3
  4  5  1  0
  4 15  1  0
  5  6  1  0
  6  7  1  0
  7  8  1  0
  8  9  1  0
  9 10  1  6
  9 12  1  0
 10 11  1  0
 12 13  1  0
 12 14  2  0
 15 16  2  0
 15 17  1  0
 17 18  1  0
 18 19  1  0
 18 20  2  0
M  END
