
     RDKit          3D

 15 15  0  0  0  0  0  0  0  0999 V2000
    6.1810   -0.8430   -0.1810 C   0  0  0  0  0  0  0  0  0  0  0  0
    5.1010   -0.0480   -0.7950 C   0  0  0  0  0  0  0  0  0  0  0  0
    3.9200    0.0750   -0.1740 C   0  0  0  0  0  0  0  0  0  0  0  0
    2.8970    0.8620   -0.8130 C   0  0  0  0  0  0  0  0  0  0  0  0
    1.6940    1.0850   -0.3470 C   0  0  0  0  0  0  0  0  0  0  0  0
    1.2580    0.5220    0.9390 C   0  0  0  0  0  0  0  0  0  0  0  0
    0.0550   -0.3930    0.7550 C   0  0  0  0  0  0  0  0  0  0  0  0
   -1.0670    0.2860    0.2060 N   0  0  2  0  0  0  0  0  0  0  0  0
   -2.0060    0.5550    1.2770 C   0  0  0  0  0  0  0  0  0  0  0  0
   -3.1740    1.3710    0.8410 C   0  0  0  0  0  0  0  0  0  0  0  0
   -3.0910    1.7310   -0.6200 C   0  0  0  0  0  0  0  0  0  0  0  0
   -2.7490    0.5770   -1.5010 C   0  0  0  0  0  0  0  0  0  0  0  0
   -1.6190   -0.2770   -0.9740 C   0  0  2  0  0  0  0  0  0  0  0  0
   -1.9470   -1.7280   -0.9450 C   0  0  0  0  0  0  0  0  0  0  0  0
   -2.9380   -2.1730    0.0670 C   0  0  0  0  0  0  0  0  0  0  0  0
  1  2  1  0
  2  3  2  3
  3  4  1  0
  4  5  2  3
  5  6  1  0
  6  7  1  0
  8  7  1  1
  8  9  1  0
  8 13  1  0
  9 10  1  0
 10 11  1  0
 11 12  1  0
 12 13  1  0
 13 14  1  1
 14 15  1  0
M  CHG  1   8   1
M  END
