
     RDKit          3D

 15 15  0  0  0  0  0  0  0  0999 V2000
   -3.8960    2.2000   -0.3680 C   0  0  0  0  0  0  0  0  0  0  0  0
   -3.8840    0.7480    0.0370 C   0  0  0  0  0  0  0  0  0  0  0  0
   -3.0780   -0.1200   -0.8510 C   0  0  0  0  0  0  0  0  0  0  0  0
   -1.6920    0.2000   -0.9600 N   0  0  1  0  0  0  0  0  0  0  0  0
   -1.1240    0.9480    0.0870 C   0  0  0  0  0  0  0  0  0  0  0  0
   -0.3320   -0.0270    0.9120 C   0  0  0  0  0  0  0  0  0  0  0  0
    0.1820   -1.0140   -0.0720 C   0  0  2  0  0  0  0  0  0  0  0  0
    0.2250   -2.3990    0.5380 C   0  0  0  0  0  0  0  0  0  0  0  0
    1.0510   -2.5430    1.7610 C   0  0  0  0  0  0  0  0  0  0  0  0
    1.4470   -0.6730   -0.7670 C   0  0  0  0  0  0  0  0  0  0  0  0
    2.6460   -0.4590    0.0250 C   0  0  0  0  0  0  0  0  0  0  0  0
    3.3040    0.6820    0.0240 C   0  0  0  0  0  0  0  0  0  0  0  0
    4.5310    0.8030    0.8770 C   0  0  0  0  0  0  0  0  0  0  0  0
    2.8410    1.8140   -0.8160 C   0  0  0  0  0  0  0  0  0  0  0  0
   -0.9080   -0.9910   -1.1570 C   0  0  0  0  0  0  0  0  0  0  0  0
  1  2  1  0
  2  3  1  0
  4  3  1  1
  4  5  1  0
  4 15  1  0
  5  6  1  0
  6  7  1  0
  7  8  1  1
  7 10  1  0
  7 15  1  0
  8  9  1  0
 10 11  1  0
 11 12  2  3
 12 13  1  0
 12 14  1  0
M  CHG  1   4   1
M  END
