
     RDKit          3D

 15 15  0  0  0  0  0  0  0  0999 V2000
    4.7250    1.7750    0.4430 C   0  0  0  0  0  0  0  0  0  0  0  0
    4.3680    0.5880    0.0410 C   0  0  0  0  0  0  0  0  0  0  0  0
    3.2390   -0.1580    0.6300 C   0  0  0  0  0  0  0  0  0  0  0  0
    2.1990   -0.4680   -0.3600 N   0  0  1  0  0  0  0  0  0  0  0  0
    1.9420   -1.8590   -0.2950 C   0  0  0  0  0  0  0  0  0  0  0  0
    0.8530   -2.1390    0.6650 C   0  0  0  0  0  0  0  0  0  0  0  0
   -0.4140   -1.5480    0.0980 C   0  0  0  0  0  0  0  0  0  0  0  0
   -0.2760   -0.1640   -0.4560 C   0  0  1  0  0  0  0  0  0  0  0  0
   -0.4270   -0.2560   -1.9620 C   0  0  0  0  0  0  0  0  0  0  0  0
   -1.2340    0.7190    0.2300 C   0  0  0  0  0  0  0  0  0  0  0  0
   -2.6630    0.5700    0.2440 C   0  0  1  0  0  0  0  0  0  0  0  0
   -3.2590    0.6280   -1.1480 C   0  0  0  0  0  0  0  0  0  0  0  0
   -3.3430   -0.4940    1.0320 C   0  0  0  0  0  0  0  0  0  0  0  0
   -3.1940    1.8830    0.9020 C   0  0  0  0  0  0  0  0  0  0  0  0
    1.1160    0.4200   -0.2450 C   0  0  0  0  0  0  0  0  0  0  0  0
  1  2  2  0
  2  3  1  0
  4  3  1  1
  4  5  1  0
  4 15  1  0
  5  6  1  0
  6  7  1  0
  7  8  1  0
  8  9  1  6
  8 10  1  0
  8 15  1  0
 10 11  1  0
 11 12  1  6
 11 13  1  0
 11 14  1  0
M  CHG  1   4   1
M  END
