
     RDKit          3D

 15 15  0  0  0  0  0  0  0  0999 V2000
   -4.6940   -0.5710   -1.2300 C   0  0  0  0  0  0  0  0  0  0  0  0
   -3.8310   -0.0260   -0.1170 C   0  0  0  0  0  0  0  0  0  0  0  0
   -3.8710    1.4230    0.2030 C   0  0  0  0  0  0  0  0  0  0  0  0
   -3.0540   -0.8480    0.5630 C   0  0  0  0  0  0  0  0  0  0  0  0
   -2.2070   -0.3150    1.6530 C   0  0  0  0  0  0  0  0  0  0  0  0
   -0.7330   -0.5820    1.4430 C   0  0  0  0  0  0  0  0  0  0  0  0
   -0.1970   -0.0120    0.2490 N   0  0  2  0  0  0  0  0  0  0  0  0
   -0.4130   -0.8300   -0.9040 C   0  0  0  0  0  0  0  0  0  0  0  0
    1.1940    0.3610    0.4390 C   0  0  1  0  0  0  0  0  0  0  0  0
    2.0270   -0.8230    0.8910 C   0  0  0  0  0  0  0  0  0  0  0  0
    3.4980   -0.4810    0.7890 C   0  0  0  0  0  0  0  0  0  0  0  0
    3.9470    0.1260   -0.2970 C   0  0  0  0  0  0  0  0  0  0  0  0
    5.3620    0.4970   -0.4840 C   0  0  0  0  0  0  0  0  0  0  0  0
    2.9700    0.4360   -1.3650 C   0  0  0  0  0  0  0  0  0  0  0  0
    1.7640    1.0550   -0.7440 C   0  0  0  0  0  0  0  0  0  0  0  0
  1  2  1  0
  2  3  1  0
  2  4  2  3
  4  5  1  0
  5  6  1  0
  6  7  1  0
  7  8  1  6
  7  9  1  0
  9 10  1  6
  9 15  1  0
 10 11  1  0
 11 12  2  0
 12 13  1  0
 12 14  1  0
 14 15  1  0
M  CHG  1   7   1
M  END
