
     RDKit          3D

 11 11  0  0  0  0  0  0  0  0999 V2000
   -3.5860    0.9020   -1.1580 C   0  0  0  0  0  0  0  0  0  0  0  0
   -2.5000    0.3480   -0.3040 C   0  0  0  0  0  0  0  0  0  0  0  0
   -2.7930   -0.2470    0.9080 C   0  0  0  0  0  0  0  0  0  0  0  0
   -1.8040   -0.7450    1.6740 N   0  0  0  0  0  0  0  0  0  0  0  0
   -0.5090   -0.6970    1.3210 C   0  0  0  0  0  0  0  0  0  0  0  0
   -0.2150   -0.1040    0.1140 C   0  0  0  0  0  0  0  0  0  0  0  0
    1.1290   -0.0280   -0.3030 N   0  0  0  0  0  0  0  0  0  0  0  0
    2.1720   -0.5590    0.5150 C   0  0  0  0  0  0  0  0  0  0  0  0
    3.5380   -0.3790   -0.1060 C   0  0  0  0  0  0  0  0  0  0  0  0
    3.8250    0.9570   -0.3110 O   0  0  0  0  0  0  0  0  0  0  0  0
   -1.2090    0.4050   -0.6730 N   0  0  0  0  0  0  0  0  0  0  0  0
  1  2  1  0
  2  3  2  0
  2 11  1  0
  3  4  1  0
  4  5  2  0
  5  6  1  0
  6  7  1  0
  6 11  2  0
  7  8  1  0
  8  9  1  0
  9 10  1  0
M  END
