
     RDKit          3D

 11 11  0  0  0  0  0  0  0  0999 V2000
    4.2130    0.3170    0.2590 C   0  0  0  0  0  0  0  0  0  0  0  0
    2.8380    0.7970    0.4530 N   0  0  0  0  0  0  0  0  0  0  0  0
    1.7990   -0.0540    0.0090 C   0  0  0  0  0  0  0  0  0  0  0  0
    2.0620   -1.1430   -0.5160 O   0  0  0  0  0  0  0  0  0  0  0  0
    0.3810    0.3390    0.1650 C   0  0  0  0  0  0  0  0  0  0  0  0
   -0.4530   -0.7090   -0.3640 N   0  0  0  0  0  0  0  0  0  0  0  0
   -1.8850   -0.5690   -0.2620 C   0  0  0  0  0  0  0  0  0  0  0  0
   -2.7970   -1.2370   -0.9360 C   0  0  0  0  0  0  0  0  0  0  0  0
   -4.0930   -0.8100   -0.5490 N   0  0  0  0  0  0  0  0  0  0  0  0
   -4.0250    0.1020    0.3450 C   0  0  0  0  0  0  0  0  0  0  0  0
   -2.6030    0.3590    0.6300 C   0  0  0  0  0  0  0  0  0  0  0  0
  1  2  1  0
  2  3  1  0
  3  4  2  0
  3  5  1  0
  5  6  1  0
  6  7  1  0
  7  8  2  0
  7 11  1  0
  8  9  1  0
  9 10  2  0
 10 11  1  0
M  END
