
     RDKit          3D

 11 11  0  0  0  0  0  0  0  0999 V2000
    3.1290    0.5100    0.6620 C   0  0  0  0  0  0  0  0  0  0  0  0
    1.8700    0.6300    0.5520 N   0  0  0  0  0  0  0  0  0  0  0  0
    1.0330   -0.3390   -0.0050 N   0  0  0  0  0  0  0  0  0  0  0  0
    1.6410   -1.5650   -0.4970 C   0  0  0  0  0  0  0  0  0  0  0  0
   -0.3650   -0.0970   -0.0710 C   0  0  0  0  0  0  0  0  0  0  0  0
   -0.9050    1.1050   -0.1550 C   0  0  0  0  0  0  0  0  0  0  0  0
   -0.2210    2.3470   -0.1950 N   0  0  0  0  0  0  0  0  0  0  0  0
   -2.3590    1.0040   -0.2050 C   0  0  0  0  0  0  0  0  0  0  0  0
   -3.1700    1.9690   -0.3010 O   0  0  0  0  0  0  0  0  0  0  0  0
   -2.7190   -0.4130   -0.1230 C   0  0  0  0  0  0  0  0  0  0  0  0
   -1.4130   -1.1480   -0.0540 C   0  0  0  0  0  0  0  0  0  0  0  0
  1  2  2  0
  2  3  1  0
  3  4  1  0
  3  5  1  0
  5  6  2  0
  5 11  1  0
  6  7  1  0
  6  8  1  0
  8  9  2  0
  8 10  1  0
 10 11  1  0
M  END
