
     RDKit          3D

 12 13  0  0  0  0  0  0  0  0999 V2000
    2.8750    0.8980   -1.1360 C   0  0  0  0  0  0  0  0  0  0  0  0
    2.4370   -0.4110   -1.3000 C   0  0  0  0  0  0  0  0  0  0  0  0
    1.3890   -0.8440   -0.5230 C   0  0  0  0  0  0  0  0  0  0  0  0
    0.7940    0.0020    0.3930 C   0  0  0  0  0  0  0  0  0  0  0  0
   -0.3120   -0.5400    1.1770 C   0  0  0  0  0  0  0  0  0  0  0  0
   -1.6100   -0.3630    0.5790 N   0  0  0  0  0  0  0  0  0  0  0  0
   -2.1320   -1.2870   -0.2540 C   0  0  0  0  0  0  0  0  0  0  0  0
   -3.3700   -0.8390   -0.6580 C   0  0  0  0  0  0  0  0  0  0  0  0
   -3.5460    0.3540   -0.0430 N   0  0  0  0  0  0  0  0  0  0  0  0
   -2.4880    0.6460    0.7050 C   0  0  0  0  0  0  0  0  0  0  0  0
    1.2190    1.3050    0.5670 C   0  0  0  0  0  0  0  0  0  0  0  0
    2.2710    1.7260   -0.2200 C   0  0  0  0  0  0  0  0  0  0  0  0
  1  2  2  0
  1 12  1  0
  2  3  1  0
  3  4  2  0
  4  5  1  0
  4 11  1  0
  5  6  1  0
  6  7  1  0
  6 10  1  0
  7  8  2  0
  8  9  1  0
  9 10  2  0
 11 12  2  0
M  END
