
     RDKit          3D

 18 18  0  0  0  0  0  0  0  0999 V2000
   -3.2460    0.4310   -1.9850 C   0  0  0  0  0  0  0  0  0  0  0  0
   -3.8640   -0.6290   -1.1840 C   0  0  0  0  0  0  0  0  0  0  0  0
   -3.5130   -0.9910    0.0080 C   0  0  0  0  0  0  0  0  0  0  0  0
   -4.3300   -2.1230    0.6070 C   0  0  0  0  0  0  0  0  0  0  0  0
   -2.4460   -0.4670    0.8350 C   0  0  0  0  0  0  0  0  0  0  0  0
   -1.5400    0.5230    0.5460 C   0  0  0  0  0  0  0  0  0  0  0  0
   -0.7500    0.6530    1.6480 N   0  0  0  0  0  0  0  0  0  0  0  0
    0.3570    1.6180    1.7520 C   0  0  0  0  0  0  0  0  0  0  0  0
    1.6200    0.9990    1.2880 C   0  0  0  0  0  0  0  0  0  0  0  0
    2.3840    0.4340    2.1420 O   0  0  0  0  0  0  0  0  0  0  0  0
    2.0440    0.9840   -0.0200 O   0  0  0  0  0  0  0  0  0  0  0  0
    3.2320    0.4060   -0.4850 C   0  0  1  0  0  0  0  0  0  0  0  0
    3.2920    0.6190   -1.9830 C   0  0  0  0  0  0  0  0  0  0  0  0
    4.4650    1.0650    0.0940 C   0  0  0  0  0  0  0  0  0  0  0  0
    3.3100   -1.0740   -0.1880 C   0  0  0  0  0  0  0  0  0  0  0  0
   -1.1380   -0.2060    2.5780 C   0  0  0  0  0  0  0  0  0  0  0  0
   -0.6050   -0.3390    3.7290 O   0  0  0  0  0  0  0  0  0  0  0  0
   -2.1690   -0.9010    2.1080 N   0  0  0  0  0  0  0  0  0  0  0  0
  1  2  1  0
  2  3  2  3
  3  4  1  0
  3  5  1  0
  5  6  2  0
  5 18  1  0
  6  7  1  0
  7  8  1  0
  7 16  1  0
  8  9  1  0
  9 10  2  0
  9 11  1  0
 11 12  1  0
 12 13  1  6
 12 14  1  0
 12 15  1  0
 16 17  2  0
 16 18  1  0
M  END
