
     RDKit          3D

 18 19  0  0  0  0  0  0  0  0999 V2000
   -2.9220    3.2150    0.0340 C   0  0  0  0  0  0  0  0  0  0  0  0
   -2.0080    2.2660    0.0700 C   0  0  0  0  0  0  0  0  0  0  0  0
   -2.2920    0.8540    0.0750 C   0  0  0  0  0  0  0  0  0  0  0  0
   -3.5740    0.4050    0.2690 C   0  0  0  0  0  0  0  0  0  0  0  0
   -3.8630   -0.8990    0.2890 N   0  0  0  0  0  0  0  0  0  0  0  0
   -2.9260   -1.8380    0.1210 C   0  0  0  0  0  0  0  0  0  0  0  0
   -1.6020   -1.4020   -0.0820 C   0  0  0  0  0  0  0  0  0  0  0  0
   -0.5950   -2.4550   -0.3250 C   0  0  0  0  0  0  0  0  0  0  0  0
   -1.2630   -0.0820   -0.1080 C   0  0  0  0  0  0  0  0  0  0  0  0
    0.0870    0.3500   -0.3850 C   0  0  0  0  0  0  0  0  0  0  0  0
    0.3050    1.3380   -1.1710 O   0  0  0  0  0  0  0  0  0  0  0  0
    1.1940   -0.2820    0.1910 N   0  0  0  0  0  0  0  0  0  0  0  0
    2.5370    0.0920   -0.0580 C   0  0  0  0  0  0  0  0  0  0  0  0
    3.0440    1.0740   -0.8510 C   0  0  0  0  0  0  0  0  0  0  0  0
    4.3850    1.0530   -0.7730 O   0  0  0  0  0  0  0  0  0  0  0  0
    4.7860    0.1190    0.0230 C   0  0  0  0  0  0  0  0  0  0  0  0
    3.6620   -0.5230    0.5050 C   0  0  0  0  0  0  0  0  0  0  0  0
    3.6050   -1.5800    1.3820 O   0  0  0  0  0  0  0  0  0  0  0  0
  1  2  2  0
  2  3  1  0
  3  4  2  0
  3  9  1  0
  4  5  1  0
  5  6  2  0
  6  7  1  0
  7  8  1  0
  7  9  2  0
  9 10  1  0
 10 11  2  0
 10 12  1  0
 12 13  1  0
 13 14  2  0
 13 17  1  0
 14 15  1  0
 15 16  1  0
 16 17  2  0
 17 18  1  0
M  END
