
     RDKit          3D

 18 19  0  0  0  0  0  0  0  0999 V2000
   -2.9360   -1.9520   -1.5320 C   0  0  0  0  0  0  0  0  0  0  0  0
   -2.3660   -0.6920   -0.9830 C   0  0  0  0  0  0  0  0  0  0  0  0
   -2.5450    0.5160   -1.4370 O   0  0  0  0  0  0  0  0  0  0  0  0
   -1.8900    1.3890   -0.7050 C   0  0  0  0  0  0  0  0  0  0  0  0
   -1.8260    2.8650   -0.8800 C   0  0  0  0  0  0  0  0  0  0  0  0
   -1.2340    0.6870    0.3070 C   0  0  0  0  0  0  0  0  0  0  0  0
   -0.3970    1.2870    1.3390 C   0  0  0  0  0  0  0  0  0  0  0  0
    0.9920    1.6800    0.9190 C   0  0  0  0  0  0  0  0  0  0  0  0
    1.8420    0.5750    0.4550 C   0  0  0  0  0  0  0  0  0  0  0  0
    2.7990    0.0360    1.3250 C   0  0  0  0  0  0  0  0  0  0  0  0
    3.5930   -0.9740    0.9650 N   0  0  0  0  0  0  0  0  0  0  0  0
    3.5160   -1.5200   -0.2370 C   0  0  0  0  0  0  0  0  0  0  0  0
    4.2800   -2.4760   -0.5510 O   0  0  0  0  0  0  0  0  0  0  0  0
    2.6160   -1.0450   -1.1170 N   0  0  0  0  0  0  0  0  0  0  0  0
    1.7900   -0.0130   -0.7790 C   0  0  0  0  0  0  0  0  0  0  0  0
    0.9820    0.3840   -1.6300 O   0  0  0  0  0  0  0  0  0  0  0  0
   -1.5490   -0.6470    0.1170 C   0  0  0  0  0  0  0  0  0  0  0  0
   -1.0690   -1.7690    0.9650 C   0  0  0  0  0  0  0  0  0  0  0  0
  1  2  1  0
  2  3  1  0
  2 17  2  0
  3  4  1  0
  4  5  1  0
  4  6  2  0
  6  7  1  0
  6 17  1  0
  7  8  1  0
  8  9  1  0
  9 10  2  0
  9 15  1  0
 10 11  1  0
 11 12  1  0
 12 13  2  0
 12 14  1  0
 14 15  1  0
 15 16  2  0
 17 18  1  0
M  END
