
     RDKit          3D

 27 28  0  0  0  0  0  0  0  0999 V2000
   -6.2370   -3.9270    0.5210 C   0  0  0  0  0  0  0  0  0  0  0  0
   -6.4930   -2.4660    0.6820 C   0  0  0  0  0  0  0  0  0  0  0  0
   -5.4960   -1.6370    0.3900 C   0  0  0  0  0  0  0  0  0  0  0  0
   -4.2030   -2.1190   -0.0680 C   0  0  0  0  0  0  0  0  0  0  0  0
   -3.2210   -1.2920   -0.3540 C   0  0  0  0  0  0  0  0  0  0  0  0
   -1.8830   -1.8040   -0.8290 C   0  0  0  0  0  0  0  0  0  0  0  0
   -0.9060   -0.8160   -0.4290 N   0  0  0  0  0  0  0  0  0  0  0  0
    0.2150   -1.2450    0.3190 C   0  0  0  0  0  0  0  0  0  0  0  0
    0.3310   -2.4590    0.6140 O   0  0  0  0  0  0  0  0  0  0  0  0
    1.2850   -0.3400    0.7890 C   0  0  1  0  0  0  0  0  0  0  0  0
    2.3510   -1.0640    1.5650 C   0  0  0  0  0  0  0  0  0  0  0  0
    3.5380   -0.1320    1.7230 C   0  0  0  0  0  0  0  0  0  0  0  0
    4.4060   -0.1450    0.5180 C   0  0  0  0  0  0  0  0  0  0  0  0
    5.7200   -0.1850    0.5750 C   0  0  0  0  0  0  0  0  0  0  0  0
    6.6200   -0.2000   -0.5820 C   0  0  0  0  0  0  0  0  0  0  0  0
    7.7330    1.1790   -0.6180 S   0  0  1  0  0  0  0  0  0  0  0  0
    8.6610    0.9680   -1.7980 O   0  0  0  0  0  0  0  0  0  0  0  0
    6.9910    2.4680   -0.7760 O   0  0  0  0  0  0  0  0  0  0  0  0
    8.6970    1.1940    0.7490 O   0  0  0  0  0  0  0  0  0  0  0  0
    3.7120   -0.1090   -0.8210 C   0  0  0  0  0  0  0  0  0  0  0  0
    2.0470    0.6050   -0.5230 S   0  0  0  0  0  0  0  0  0  0  0  0
   -1.0570    0.5670   -0.7750 C   0  0  0  0  0  0  0  0  0  0  0  0
   -2.4770    0.9070   -1.1030 C   0  0  2  0  0  0  0  0  0  0  0  0
   -2.7910    2.3730   -1.0310 C   0  0  0  0  0  0  0  0  0  0  0  0
   -2.5750    2.9970    0.3020 C   0  0  0  0  0  0  0  0  0  0  0  0
   -2.9490    4.4780    0.1710 C   0  0  0  0  0  0  0  0  0  0  0  0
   -3.3360    0.1160   -0.2400 N   0  0  0  0  0  0  0  0  0  0  0  0
  1  2  1  0
  2  3  2  3
  3  4  1  0
  4  5  2  3
  5  6  1  0
  5 27  1  0
  6  7  1  0
  7  8  1  0
  7 22  1  0
  8  9  2  0
 10  8  1  6
 10 11  1  0
 10 21  1  0
 11 12  1  0
 12 13  1  0
 13 14  2  3
 13 20  1  0
 14 15  1  0
 15 16  1  0
 16 17  2  0
 16 18  2  0
 16 19  1  1
 20 21  1  0
 22 23  1  0
 23 24  1  1
 23 27  1  0
 24 25  1  0
 25 26  1  0
M  END
