
     RDKit          3D

 27 29  0  0  0  0  0  0  0  0999 V2000
    7.2690   -2.6150    1.4150 C   0  0  0  0  0  0  0  0  0  0  0  0
    6.2900   -1.4810    1.1120 C   0  0  0  0  0  0  0  0  0  0  0  0
    7.0750   -0.1950    1.1600 C   0  0  0  0  0  0  0  0  0  0  0  0
    6.1910    0.9600    0.8760 C   0  0  0  0  0  0  0  0  0  0  0  0
    4.9200    0.7570    0.6320 C   0  0  0  0  0  0  0  0  0  0  0  0
    4.0350    1.8890    0.3500 C   0  0  0  0  0  0  0  0  0  0  0  0
    4.4950    3.0560    0.3410 O   0  0  0  0  0  0  0  0  0  0  0  0
    2.6530    1.7050    0.0810 N   0  0  0  0  0  0  0  0  0  0  0  0
    1.7470    2.7960   -0.2020 C   0  0  2  0  0  0  0  0  0  0  0  0
    0.2980    2.8050    0.8630 S   0  0  0  0  0  0  0  0  0  0  0  0
   -0.8430    1.7560   -0.0350 C   0  0  0  0  0  0  0  0  0  0  0  0
   -0.5570    1.5780   -1.2850 C   0  0  0  0  0  0  0  0  0  0  0  0
    0.9520    2.4580   -1.7830 S   0  0  0  0  0  0  0  0  0  0  0  0
   -1.3830    0.7440   -2.2220 C   0  0  0  0  0  0  0  0  0  0  0  0
   -1.4670    1.3420   -3.3710 O   0  0  0  0  0  0  0  0  0  0  0  0
   -1.9580   -0.4140   -1.9960 O   0  0  0  0  0  0  0  0  0  0  0  0
   -3.0830   -1.1540   -1.9630 C   0  0  0  0  0  0  0  0  0  0  0  0
   -3.2280   -2.1420   -0.8500 C   0  0  0  0  0  0  0  0  0  0  0  0
   -4.3870   -2.3520   -0.2360 C   0  0  0  0  0  0  0  0  0  0  0  0
   -5.5820   -1.6090   -0.6370 C   0  0  1  0  0  0  0  0  0  0  0  0
   -6.7870   -1.4980    0.1840 C   0  0  0  0  0  0  0  0  0  0  0  0
   -5.8090   -0.3100   -0.0180 C   0  0  1  0  0  0  0  0  0  0  0  0
   -5.0640    0.0350    1.1460 N   0  0  0  0  0  0  0  0  0  0  0  0
   -4.3060    1.2130    1.3040 C   0  0  0  0  0  0  0  0  0  0  0  0
   -4.4050    1.9330    2.3430 O   0  0  0  0  0  0  0  0  0  0  0  0
   -3.3460    1.6770    0.2630 C   0  0  0  0  0  0  0  0  0  0  0  0
   -2.0230    1.1340    0.6450 C   0  0  0  0  0  0  0  0  0  0  0  0
  1  2  1  0
  2  3  1  0
  3  4  1  0
  4  5  2  3
  5  6  1  0
  6  7  2  0
  6  8  1  0
  9  8  1  1
  9 10  1  0
  9 13  1  0
 10 11  1  0
 11 12  2  0
 11 27  1  0
 12 13  1  0
 12 14  1  0
 14 15  2  0
 14 16  1  0
 16 17  1  0
 17 18  1  0
 18 19  2  0
 19 20  1  0
 20 21  1  1
 20 22  1  0
 22 21  1  1
 22 23  1  0
 23 24  1  0
 24 25  2  0
 24 26  1  0
 26 27  1  0
M  END
