
     RDKit          3D

 27 29  0  0  0  0  0  0  0  0999 V2000
    7.1370    0.6330    0.9280 C   0  0  0  0  0  0  0  0  0  0  0  0
    6.7450   -0.3280   -0.1510 C   0  0  1  0  0  0  0  0  0  0  0  0
    6.3710    0.3580   -1.4260 C   0  0  0  0  0  0  0  0  0  0  0  0
    7.9800   -1.0070   -0.4960 O   0  0  0  0  0  0  0  0  0  0  0  0
    5.7940   -1.3710    0.2800 C   0  0  0  0  0  0  0  0  0  0  0  0
    4.5090   -1.0050    0.7610 N   0  0  0  0  0  0  0  0  0  0  0  0
    3.4570   -0.3900    0.0670 C   0  0  0  0  0  0  0  0  0  0  0  0
    3.4990   -0.0750   -1.1360 O   0  0  0  0  0  0  0  0  0  0  0  0
    2.1860   -0.0760    0.7780 C   0  0  2  0  0  0  0  0  0  0  0  0
    1.5000   -1.2730    1.3390 C   0  0  0  0  0  0  0  0  0  0  0  0
    0.3250   -0.7190    2.6110 S   0  0  0  0  0  0  0  0  0  0  0  0
    1.0810   -0.4550    3.9010 O   0  0  0  0  0  0  0  0  0  0  0  0
   -0.4670    0.8200    2.0240 C   0  0  0  0  0  0  0  0  0  0  0  0
   -0.5620    0.7050    0.5820 C   0  0  0  0  0  0  0  0  0  0  0  0
   -1.6540    0.5450   -0.0920 C   0  0  0  0  0  0  0  0  0  0  0  0
   -2.9850    0.4480    0.4430 C   0  0  0  0  0  0  0  0  0  0  0  0
   -3.2870    0.4980    1.6520 O   0  0  0  0  0  0  0  0  0  0  0  0
   -4.0890    0.2780   -0.4750 N   0  0  0  0  0  0  0  0  0  0  0  0
   -3.8030    0.2440   -1.8830 C   0  0  0  0  0  0  0  0  0  0  0  0
   -5.0020    0.1240   -2.7750 C   0  0  0  0  0  0  0  0  0  0  0  0
   -6.1680    0.9500   -2.2610 C   0  0  0  0  0  0  0  0  0  0  0  0
   -6.5230    0.4720   -0.8980 C   0  0  0  0  0  0  0  0  0  0  0  0
   -7.6650    0.2630   -0.2640 C   0  0  0  0  0  0  0  0  0  0  0  0
   -7.3600   -0.2210    1.0910 C   0  0  0  0  0  0  0  0  0  0  0  0
   -5.8910   -0.2780    1.1630 C   0  0  0  0  0  0  0  0  0  0  0  0
   -5.4250    0.1360   -0.0090 C   0  0  0  0  0  0  0  0  0  0  0  0
    1.0050    0.7810   -0.3200 S   0  0  0  0  0  0  0  0  0  0  0  0
  2  1  1  1
  2  3  1  0
  2  4  1  0
  2  5  1  0
  5  6  1  0
  6  7  1  0
  7  8  2  0
  9  7  1  6
  9 10  1  0
  9 27  1  0
 11 10  1  6
 11 12  2  0
 11 13  1  0
 13 14  1  0
 14 15  2  3
 14 27  1  0
 15 16  1  0
 16 17  2  0
 16 18  1  0
 18 19  1  0
 18 26  1  0
 19 20  1  0
 20 21  1  0
 21 22  1  0
 22 23  2  0
 22 26  1  0
 23 24  1  0
 24 25  1  0
 25 26  2  0
M  END
