
     RDKit          3D

 27 29  0  0  0  0  0  0  0  0999 V2000
    1.3360    0.5160    1.5520 C   0  0  0  0  0  0  0  0  0  0  0  0
    1.2720    0.4610    0.0400 C   0  0  1  0  0  0  0  0  0  0  0  0
    2.3300   -0.3690   -0.5400 C   0  0  0  0  0  0  0  0  0  0  0  0
    2.0390   -1.2330   -1.4000 O   0  0  0  0  0  0  0  0  0  0  0  0
    3.7070   -0.2420   -0.1680 N   0  0  0  0  0  0  0  0  0  0  0  0
    4.7240   -1.0740   -0.7570 C   0  0  0  0  0  0  0  0  0  0  0  0
    6.0290   -0.6990   -0.1670 C   0  0  0  0  0  0  0  0  0  0  0  0
    6.7320   -1.5850    0.4860 C   0  0  0  0  0  0  0  0  0  0  0  0
    8.0360   -1.2320    1.0820 C   0  0  0  0  0  0  0  0  0  0  0  0
    8.4040    0.0960    0.8730 O   0  0  0  0  0  0  0  0  0  0  0  0
    7.6640    1.0230    0.1870 C   0  0  0  0  0  0  0  0  0  0  0  0
    6.5030    0.6540   -0.3270 C   0  0  0  0  0  0  0  0  0  0  0  0
    5.7260    1.5890   -1.0350 O   0  0  0  0  0  0  0  0  0  0  0  0
   -0.0040    0.0890   -0.4700 N   0  0  0  0  0  0  0  0  0  0  0  0
   -0.4850   -1.1980   -0.1180 C   0  0  0  0  0  0  0  0  0  0  0  0
   -1.2980   -1.8440   -1.2470 C   0  0  0  0  0  0  0  0  0  0  0  0
   -2.7270   -0.7110   -1.4800 S   0  0  0  0  0  0  0  0  0  0  0  0
   -2.3870    0.6840   -0.3550 C   0  0  2  0  0  0  0  0  0  0  0  0
   -3.2940    1.8440   -0.6200 C   0  0  0  0  0  0  0  0  0  0  0  0
   -4.7550    1.5040   -0.4460 C   0  0  2  0  0  0  0  0  0  0  0  0
   -5.0610    1.0370    0.9600 C   0  0  0  0  0  0  0  0  0  0  0  0
   -6.5500    0.7700    1.0430 C   0  0  0  0  0  0  0  0  0  0  0  0
   -6.7780   -0.5910    1.2660 O   0  0  0  0  0  0  0  0  0  0  0  0
   -6.2290   -1.3620    0.2400 C   0  0  0  0  0  0  0  0  0  0  0  0
   -6.5760   -0.7930   -1.1140 C   0  0  0  0  0  0  0  0  0  0  0  0
   -5.2780    0.3070   -1.6810 S   0  0  0  0  0  0  0  0  0  0  0  0
   -0.9650    1.1200   -0.5970 C   0  0  0  0  0  0  0  0  0  0  0  0
  2  1  1  1
  2  3  1  0
  2 14  1  0
  3  4  2  0
  3  5  1  0
  5  6  1  0
  6  7  1  0
  7  8  2  0
  7 12  1  0
  8  9  1  0
  9 10  1  0
 10 11  1  0
 11 12  2  0
 12 13  1  0
 14 15  1  0
 14 27  1  0
 15 16  1  0
 16 17  1  0
 17 18  1  0
 18 19  1  6
 18 27  1  0
 20 19  1  1
 20 21  1  0
 20 26  1  0
 21 22  1  0
 22 23  1  0
 23 24  1  0
 24 25  1  0
 25 26  1  0
M  END
