
     RDKit          3D

 27 28  0  0  0  0  0  0  0  0999 V2000
   -6.2780    1.0520   -0.4420 C   0  0  0  0  0  0  0  0  0  0  0  0
   -5.1320    1.6110   -0.7280 C   0  0  0  0  0  0  0  0  0  0  0  0
   -3.8120    1.1120   -0.2450 C   0  0  0  0  0  0  0  0  0  0  0  0
   -2.7260    1.7600   -0.6100 C   0  0  0  0  0  0  0  0  0  0  0  0
   -2.9720    2.9900   -1.4950 C   0  0  0  0  0  0  0  0  0  0  0  0
   -1.3790    1.4630   -0.3200 N   0  0  0  0  0  0  0  0  0  0  0  0
   -0.5160    0.3880   -0.7570 C   0  0  0  0  0  0  0  0  0  0  0  0
    0.6330    0.1570    0.2120 C   0  0  0  0  0  0  0  0  0  0  0  0
    1.6630   -0.6460   -0.4500 N   0  0  0  0  0  0  0  0  0  0  0  0
    2.9800   -0.0910   -0.6880 C   0  0  0  0  0  0  0  0  0  0  0  0
    3.9130   -0.3630    0.4760 C   0  0  2  0  0  0  0  0  0  0  0  0
    3.4500    0.1870    1.6470 O   0  0  0  0  0  0  0  0  0  0  0  0
    5.2930    0.1060    0.1890 C   0  0  0  0  0  0  0  0  0  0  0  0
    5.7860    0.6910   -0.8780 C   0  0  0  0  0  0  0  0  0  0  0  0
    7.2300    0.9490   -0.6420 C   0  0  0  0  0  0  0  0  0  0  0  0
    7.5750    0.2040    0.4590 O   0  0  0  0  0  0  0  0  0  0  0  0
    6.4020   -0.0420    1.1710 C   0  0  0  0  0  0  0  0  0  0  0  0
    1.3350   -1.9800   -0.8500 C   0  0  0  0  0  0  0  0  0  0  0  0
    1.9400   -2.4870   -1.8300 O   0  0  0  0  0  0  0  0  0  0  0  0
    0.3100   -2.8120   -0.1710 C   0  0  0  0  0  0  0  0  0  0  0  0
   -0.9080   -3.4860   -1.3250 S   0  0  0  0  0  0  0  0  0  0  0  0
   -2.5670   -2.9590   -0.7980 C   0  0  0  0  0  0  0  0  0  0  0  0
   -2.5930   -2.6100    0.6530 C   0  0  0  0  0  0  0  0  0  0  0  0
   -2.6680   -3.5570    1.4270 O   0  0  0  0  0  0  0  0  0  0  0  0
   -2.5180   -0.9080    1.1940 S   0  0  0  0  0  0  0  0  0  0  0  0
   -3.9470   -0.0310    0.6740 C   0  0  1  0  0  0  0  0  0  0  0  0
   -4.6690    0.4880    1.9430 C   0  0  0  0  0  0  0  0  0  0  0  0
  1  2  2  0
  2  3  1  0
  3  4  2  0
  3 26  1  0
  4  5  1  0
  4  6  1  0
  6  7  1  0
  7  8  1  0
  8  9  1  0
  9 10  1  0
  9 18  1  0
 10 11  1  0
 11 12  1  1
 11 13  1  0
 13 14  2  0
 13 17  1  0
 14 15  1  0
 15 16  1  0
 16 17  1  0
 18 19  2  0
 18 20  1  0
 20 21  1  0
 21 22  1  0
 22 23  1  0
 23 24  2  0
 23 25  1  0
 25 26  1  0
 26 27  1  1
M  END
