
     RDKit          3D

 26 29  0  0  0  0  0  0  0  0999 V2000
   -4.6150   -1.8710    1.8270 C   0  0  0  0  0  0  0  0  0  0  0  0
   -3.3560   -1.9920    1.1270 N   0  0  0  0  0  0  0  0  0  0  0  0
   -2.4510   -1.0140    1.2880 C   0  0  0  0  0  0  0  0  0  0  0  0
   -2.7310   -0.0490    2.0290 O   0  0  0  0  0  0  0  0  0  0  0  0
   -1.2500   -1.1300    0.6200 C   0  0  0  0  0  0  0  0  0  0  0  0
   -0.9980   -2.2390   -0.1950 C   0  0  0  0  0  0  0  0  0  0  0  0
    0.2310   -2.0760   -0.6930 N   0  0  0  0  0  0  0  0  0  0  0  0
    0.7820   -0.9290   -0.2470 C   0  0  0  0  0  0  0  0  0  0  0  0
    2.1270   -0.4990   -0.5610 N   0  0  0  0  0  0  0  0  0  0  0  0
    2.5320    0.0130   -1.8320 C   0  0  0  0  0  0  0  0  0  0  0  0
    3.4620    1.1800   -1.7100 C   0  0  0  0  0  0  0  0  0  0  0  0
    4.5650    0.8260   -0.8310 N   0  0  0  0  0  0  0  0  0  0  0  0
    4.0660    0.5650    0.5140 C   0  0  0  0  0  0  0  0  0  0  0  0
    3.1510   -0.6070    0.4900 C   0  0  0  0  0  0  0  0  0  0  0  0
   -0.1410   -0.3640    0.5540 N   0  0  0  0  0  0  0  0  0  0  0  0
    0.0210    0.8880    1.2320 C   0  0  0  0  0  0  0  0  0  0  0  0
   -0.5080    2.0610    0.5340 C   0  0  0  0  0  0  0  0  0  0  0  0
   -0.0930    2.5180   -0.6760 C   0  0  0  0  0  0  0  0  0  0  0  0
   -0.6330    3.6520   -1.2300 C   0  0  0  0  0  0  0  0  0  0  0  0
   -1.6150    4.3920   -0.6100 C   0  0  0  0  0  0  0  0  0  0  0  0
   -2.0260    3.9110    0.6240 C   0  0  0  0  0  0  0  0  0  0  0  0
   -1.4990    2.7840    1.1890 C   0  0  0  0  0  0  0  0  0  0  0  0
   -1.9450   -3.2010   -0.3250 N   0  0  0  0  0  0  0  0  0  0  0  0
   -1.6970   -4.3540   -1.1650 C   0  0  0  0  0  0  0  0  0  0  0  0
   -3.1010   -3.0630    0.3330 C   0  0  0  0  0  0  0  0  0  0  0  0
   -3.9980   -3.9360    0.2340 O   0  0  0  0  0  0  0  0  0  0  0  0
  1  2  1  0
  2  3  1  0
  2 25  1  0
  3  4  2  0
  3  5  1  0
  5  6  2  0
  5 15  1  0
  6  7  1  0
  6 23  1  0
  7  8  2  0
  8  9  1  0
  8 15  1  0
  9 10  1  0
  9 14  1  0
 10 11  1  0
 11 12  1  0
 12 13  1  0
 13 14  1  0
 15 16  1  0
 16 17  1  0
 17 18  2  0
 17 22  1  0
 18 19  1  0
 19 20  2  0
 20 21  1  0
 21 22  2  0
 23 24  1  0
 23 25  1  0
 25 26  2  0
M  CHG  1  12   1
M  END
