
     RDKit          3D

 27 29  0  0  0  0  0  0  0  0999 V2000
   -3.8690   -0.9380    2.8050 C   0  0  0  0  0  0  0  0  0  0  0  0
   -4.7300   -0.5300    1.6190 C   0  0  0  0  0  0  0  0  0  0  0  0
   -5.8600    0.0840    1.7370 C   0  0  0  0  0  0  0  0  0  0  0  0
   -6.4740    0.3100    0.0360 S   0  0  0  0  0  0  0  0  0  0  0  0
   -5.5000   -1.2310   -0.5530 C   0  0  1  0  0  0  0  0  0  0  0  0
   -5.4910   -1.0460   -1.9750 C   0  0  0  0  0  0  0  0  0  0  0  0
   -4.4480   -1.0030   -2.7640 C   0  0  0  0  0  0  0  0  0  0  0  0
   -2.8720   -1.1990   -1.9700 S   0  0  0  0  0  0  0  0  0  0  0  0
   -3.0810   -0.6580   -0.2160 C   0  0  0  0  0  0  0  0  0  0  0  0
   -2.0120    0.1150    0.2170 N   0  0  0  0  0  0  0  0  0  0  0  0
   -1.7810    1.0490    1.2200 C   0  0  0  0  0  0  0  0  0  0  0  0
   -2.6780    1.4220    1.9840 O   0  0  0  0  0  0  0  0  0  0  0  0
   -0.3990    1.6640    1.4280 C   0  0  0  0  0  0  0  0  0  0  0  0
    0.5480    1.1370    0.4660 N   0  0  0  0  0  0  0  0  0  0  0  0
    0.7070    1.8050   -0.7800 C   0  0  0  0  0  0  0  0  0  0  0  0
    0.0710    2.8620   -1.0690 O   0  0  0  0  0  0  0  0  0  0  0  0
    1.6320    1.3160   -1.8400 C   0  0  0  0  0  0  0  0  0  0  0  0
    2.0500   -0.1080   -1.6130 C   0  0  0  0  0  0  0  0  0  0  0  0
    2.4760   -0.3980   -0.2070 C   0  0  1  0  0  0  0  0  0  0  0  0
    2.6790   -1.7540   -0.0600 O   0  0  0  0  0  0  0  0  0  0  0  0
    3.6640    0.3930    0.2400 C   0  0  0  0  0  0  0  0  0  0  0  0
    4.8950    0.1570   -0.5930 C   0  0  1  0  0  0  0  0  0  0  0  0
    5.9960    1.0420    0.0080 C   0  0  0  0  0  0  0  0  0  0  0  0
    5.3970   -1.2650   -0.4730 C   0  0  0  0  0  0  0  0  0  0  0  0
    1.3370   -0.0240    0.6950 C   0  0  0  0  0  0  0  0  0  0  0  0
    1.0420   -0.7340    1.6940 O   0  0  0  0  0  0  0  0  0  0  0  0
   -4.2880   -0.8370    0.2330 C   0  0  0  0  0  0  0  0  0  0  0  0
  1  2  1  0
  2  3  2  0
  2 27  1  0
  3  4  1  0
  5  4  1  1
  5  6  1  0
  5 27  1  0
  6  7  2  0
  7  8  1  0
  8  9  1  0
  9 10  1  0
  9 27  2  0
 10 11  1  0
 11 12  2  0
 11 13  1  0
 13 14  1  0
 14 15  1  0
 14 25  1  0
 15 16  2  0
 15 17  1  0
 17 18  1  0
 18 19  1  0
 19 20  1  6
 19 21  1  0
 19 25  1  0
 21 22  1  0
 22 23  1  1
 22 24  1  0
 25 26  2  0
M  END
