
     RDKit          3D

 15 15  0  0  0  0  0  0  0  0999 V2000
   -1.6420    1.2620    0.1100 N   0  0  0  0  0  0  0  0  0  0  0  0
   -1.5200   -0.0600   -0.4500 C   0  0  1  0  0  0  0  0  0  0  0  0
   -0.5140   -0.9290    0.2280 C   0  0  0  0  0  0  0  0  0  0  0  0
    0.8360   -0.4010    0.1970 N   0  0  0  0  0  0  0  0  0  0  0  0
    1.6100   -0.7500   -0.8620 C   0  0  0  0  0  0  0  0  0  0  0  0
    2.9040   -0.2910   -0.9710 C   0  0  0  0  0  0  0  0  0  0  0  0
    3.6910   -0.6210   -2.0080 F   0  0  0  0  0  0  0  0  0  0  0  0
    3.3730    0.5310    0.0350 C   0  0  0  0  0  0  0  0  0  0  0  0
    4.5670    0.9450   -0.0810 O   0  0  0  0  0  0  0  0  0  0  0  0
    2.6170    0.8850    1.0890 N   0  0  0  0  0  0  0  0  0  0  0  0
    1.3480    0.4030    1.1450 C   0  0  0  0  0  0  0  0  0  0  0  0
    0.6430    0.7270    2.1180 O   0  0  0  0  0  0  0  0  0  0  0  0
   -2.8230   -0.7580   -0.4280 C   0  0  0  0  0  0  0  0  0  0  0  0
   -2.8970   -1.9280   -0.8820 O   0  0  0  0  0  0  0  0  0  0  0  0
   -3.9670   -0.1560    0.0800 O   0  0  0  0  0  0  0  0  0  0  0  0
  2  1  1  1
  2  3  1  0
  2 13  1  0
  3  4  1  0
  4  5  1  0
  4 11  1  0
  5  6  2  0
  6  7  1  0
  6  8  1  0
  8  9  2  0
  8 10  1  0
 10 11  1  0
 11 12  2  0
 13 14  2  0
 13 15  1  0
M  CHG  1   1   1
M  END
