
     RDKit          3D

 15 15  0  0  0  0  0  0  0  0999 V2000
    0.6060    2.0370   -0.0090 C   0  0  0  0  0  0  0  0  0  0  0  0
    0.5840    0.5120    0.1150 C   0  0  1  0  0  0  0  0  0  0  0  0
    2.0500    0.0730    0.0690 C   0  0  0  0  0  0  0  0  0  0  0  0
    2.1680   -1.3930    0.1740 C   0  0  0  0  0  0  0  0  0  0  0  0
    1.6910   -2.0180    1.1220 O   0  0  0  0  0  0  0  0  0  0  0  0
    2.8240   -2.1140   -0.7950 F   0  0  0  0  0  0  0  0  0  0  0  0
    0.0330    0.0780    1.3340 N   0  0  0  0  0  0  0  0  0  0  0  0
   -1.2790   -0.3560    1.6670 C   0  0  0  0  0  0  0  0  0  0  0  0
   -1.5420   -0.5310    2.8760 O   0  0  0  0  0  0  0  0  0  0  0  0
   -2.3520   -0.6200    0.7730 N   0  0  0  0  0  0  0  0  0  0  0  0
   -2.3440   -0.5020   -0.6290 C   0  0  0  0  0  0  0  0  0  0  0  0
   -3.5010   -0.3340   -1.1400 O   0  0  0  0  0  0  0  0  0  0  0  0
   -1.2770   -0.5410   -1.5160 N   0  0  0  0  0  0  0  0  0  0  0  0
   -0.0590    0.0050   -1.1160 C   0  0  0  0  0  0  0  0  0  0  0  0
    0.7230    0.0960   -2.0730 O   0  0  0  0  0  0  0  0  0  0  0  0
  2  1  1  6
  2  3  1  0
  2  7  1  0
  2 14  1  0
  3  4  1  0
  4  5  2  0
  4  6  1  0
  7  8  1  0
  8  9  2  0
  8 10  1  0
 10 11  1  0
 11 12  2  0
 11 13  1  0
 13 14  1  0
 14 15  2  0
M  CHG  1  13   1
M  END
