
     RDKit          3D

 14 14  0  0  0  0  0  0  0  0999 V2000
    2.2290   -1.4430    0.3480 C   0  0  0  0  0  0  0  0  0  0  0  0
    1.5960   -0.2470   -0.3320 C   0  0  2  0  0  0  0  0  0  0  0  0
    0.1920   -0.5010   -0.7080 C   0  0  0  0  0  0  0  0  0  0  0  0
   -0.1550   -0.4200   -1.8880 O   0  0  0  0  0  0  0  0  0  0  0  0
   -0.7860   -0.8400    0.2600 N   0  0  0  0  0  0  0  0  0  0  0  0
   -2.1410   -1.1030    0.0340 C   0  0  0  0  0  0  0  0  0  0  0  0
   -2.9720   -0.0300   -0.5750 C   0  0  0  0  0  0  0  0  0  0  0  0
   -3.0110    1.1820    0.2210 N   0  0  0  0  0  0  0  0  0  0  0  0
    2.3730    0.0710   -1.4670 O   0  0  0  0  0  0  0  0  0  0  0  0
    3.3190    1.0210   -1.1320 C   0  0  0  0  0  0  0  0  0  0  0  0
    4.3590    1.3460   -1.7930 O   0  0  0  0  0  0  0  0  0  0  0  0
    2.9600    1.6120    0.1020 N   0  0  0  0  0  0  0  0  0  0  0  0
    1.7510    0.9720    0.4970 C   0  0  0  0  0  0  0  0  0  0  0  0
    0.9840    1.4220    1.4070 O   0  0  0  0  0  0  0  0  0  0  0  0
  2  1  1  1
  2  3  1  0
  2  9  1  0
  2 13  1  0
  3  4  2  0
  3  5  1  0
  5  6  1  0
  6  7  1  0
  7  8  1  0
  9 10  1  0
 10 11  2  0
 10 12  1  0
 12 13  1  0
 13 14  2  0
M  CHG  1   8   1
M  END
