
     RDKit          3D

 14 14  0  0  0  0  0  0  0  0999 V2000
   -1.8210   -1.2790   -0.5140 C   0  0  0  0  0  0  0  0  0  0  0  0
   -1.1210   -0.0770    0.0820 C   0  0  2  0  0  0  0  0  0  0  0  0
    0.2870   -0.3350    0.3240 C   0  0  0  0  0  0  0  0  0  0  0  0
    0.7360   -0.1370    1.4810 O   0  0  0  0  0  0  0  0  0  0  0  0
    1.2120   -0.7990   -0.6470 N   0  0  0  0  0  0  0  0  0  0  0  0
    2.6110   -1.0440   -0.3630 C   0  0  0  0  0  0  0  0  0  0  0  0
    3.3180    0.2140    0.1160 C   0  0  0  0  0  0  0  0  0  0  0  0
    3.2110    1.1570   -0.8920 O   0  0  0  0  0  0  0  0  0  0  0  0
   -1.7930    0.3880    1.2810 N   0  0  0  0  0  0  0  0  0  0  0  0
   -3.0610    0.7610    0.7350 C   0  0  0  0  0  0  0  0  0  0  0  0
   -4.2000    0.5190    1.2110 O   0  0  0  0  0  0  0  0  0  0  0  0
   -2.7260    1.4650   -0.4680 N   0  0  0  0  0  0  0  0  0  0  0  0
   -1.3960    1.0700   -0.8170 C   0  0  0  0  0  0  0  0  0  0  0  0
   -0.7060    1.6200   -1.6860 O   0  0  0  0  0  0  0  0  0  0  0  0
  2  1  1  6
  2  3  1  0
  2  9  1  0
  2 13  1  0
  3  4  2  0
  3  5  1  0
  5  6  1  0
  6  7  1  0
  7  8  1  0
  9 10  1  0
 10 11  2  0
 10 12  1  0
 12 13  1  0
 13 14  2  0
M  CHG  1   9   1
M  END
