
     RDKit          3D

 14 14  0  0  0  0  0  0  0  0999 V2000
    1.2950   -1.4010    0.4890 C   0  0  0  0  0  0  0  0  0  0  0  0
    0.9020    0.0290    0.1820 C   0  0  1  0  0  0  0  0  0  0  0  0
    1.8680    0.9310    0.9200 C   0  0  0  0  0  0  0  0  0  0  0  0
    3.2330    0.7260    0.5390 N   0  0  0  0  0  0  0  0  0  0  0  0
    0.9510    0.2220   -1.2070 O   0  0  0  0  0  0  0  0  0  0  0  0
   -0.0980   -0.2470   -1.9790 C   0  0  0  0  0  0  0  0  0  0  0  0
    0.0980   -0.4770   -3.2100 O   0  0  0  0  0  0  0  0  0  0  0  0
   -1.3920   -0.4630   -1.3530 C   0  0  0  0  0  0  0  0  0  0  0  0
   -2.3500   -0.8930   -2.0630 O   0  0  0  0  0  0  0  0  0  0  0  0
   -1.5760   -0.1950    0.0300 N   0  0  0  0  0  0  0  0  0  0  0  0
   -2.8450   -0.4070    0.6360 C   0  0  0  0  0  0  0  0  0  0  0  0
   -3.7200    0.7370    0.6060 N   0  0  0  0  0  0  0  0  0  0  0  0
   -0.4480    0.2840    0.7470 C   0  0  0  0  0  0  0  0  0  0  0  0
   -0.6040    0.8940    1.8120 O   0  0  0  0  0  0  0  0  0  0  0  0
  2  1  1  6
  2  3  1  0
  2  5  1  0
  2 13  1  0
  3  4  1  0
  5  6  1  0
  6  7  2  0
  6  8  1  0
  8  9  2  0
  8 10  1  0
 10 11  1  0
 10 13  1  0
 11 12  1  0
 13 14  2  0
M  CHG  1   4   1
M  END
