
     RDKit          3D

 14 14  0  0  0  0  0  0  0  0999 V2000
    5.3930    0.5530    0.1020 N   0  0  0  0  0  0  0  0  0  0  0  0
    4.0790    0.9240   -0.3460 C   0  0  0  0  0  0  0  0  0  0  0  0
    3.8710    1.9740   -1.0080 O   0  0  0  0  0  0  0  0  0  0  0  0
    2.9410    0.0930   -0.0450 N   0  0  0  0  0  0  0  0  0  0  0  0
    1.6360    0.4200   -0.4650 C   0  0  0  0  0  0  0  0  0  0  0  0
    1.4700    1.4700   -1.1200 O   0  0  0  0  0  0  0  0  0  0  0  0
    0.5190   -0.4990   -0.1080 C   0  0  0  0  0  0  0  0  0  0  0  0
   -0.7450   -0.0440   -0.5980 N   0  0  0  0  0  0  0  0  0  0  0  0
   -1.8120   -0.2630    0.3570 C   0  0  1  0  0  0  0  0  0  0  0  0
   -2.9670    0.6830    0.0710 C   0  0  0  0  0  0  0  0  0  0  0  0
   -4.1900   -0.1850   -0.1140 C   0  0  0  0  0  0  0  0  0  0  0  0
   -3.7940   -1.4290    0.4490 O   0  0  0  0  0  0  0  0  0  0  0  0
   -2.4280   -1.6090    0.1900 C   0  0  0  0  0  0  0  0  0  0  0  0
   -1.8600   -2.7030   -0.1200 O   0  0  0  0  0  0  0  0  0  0  0  0
  1  2  1  0
  2  3  2  0
  2  4  1  0
  4  5  1  0
  5  6  2  0
  5  7  1  0
  7  8  1  0
  9  8  1  6
  9 10  1  0
  9 13  1  0
 10 11  1  0
 11 12  1  0
 12 13  1  0
 13 14  2  0
M  CHG  1   8   1
M  END
