
     RDKit          3D

 35 36  0  0  0  0  0  0  0  0999 V2000
   -0.1830   -0.6430    1.4640 O   0  0  0  0  0  0  0  0  0  0  0  0
    0.0650    0.1190    2.4300 C   0  0  0  0  0  0  0  0  0  0  0  0
   -1.0820    0.7860    3.0970 C   0  0  0  0  0  0  0  0  0  0  0  0
   -2.3280    0.4740    2.5380 O   0  0  0  0  0  0  0  0  0  0  0  0
   -2.6010    0.7660    1.2350 C   0  0  0  0  0  0  0  0  0  0  0  0
   -1.7100    1.3250    0.5180 O   0  0  0  0  0  0  0  0  0  0  0  0
   -3.8910    0.4800    0.5580 C   0  0  2  0  0  0  0  0  0  0  0  0
   -4.7040   -0.1650    1.5580 O   0  0  0  0  0  0  0  0  0  0  0  0
   -4.2450   -1.4720    1.5630 C   0  0  0  0  0  0  0  0  0  0  0  0
   -4.1930   -2.3130    2.5100 O   0  0  0  0  0  0  0  0  0  0  0  0
   -3.8160   -1.7520    0.2770 O   0  0  0  0  0  0  0  0  0  0  0  0
   -3.7400   -0.5470   -0.5070 C   0  0  2  0  0  0  0  0  0  0  0  0
   -2.4540   -0.5590   -1.2080 C   0  0  0  0  0  0  0  0  0  0  0  0
   -1.6470   -1.5140   -1.0960 O   0  0  0  0  0  0  0  0  0  0  0  0
   -2.0660    0.4900   -2.0350 O   0  0  0  0  0  0  0  0  0  0  0  0
   -4.8820   -0.6210   -1.4310 C   0  0  0  0  0  0  0  0  0  0  0  0
   -5.0000   -1.6040   -2.1870 O   0  0  0  0  0  0  0  0  0  0  0  0
   -5.8270    0.4350   -1.4400 N   0  0  0  0  0  0  0  0  0  0  0  0
   -7.1750    0.2250   -1.8820 C   0  0  0  0  0  0  0  0  0  0  0  0
   -7.9740    1.1890   -1.8720 O   0  0  0  0  0  0  0  0  0  0  0  0
   -7.6420   -1.0000   -2.3240 O   0  0  0  0  0  0  0  0  0  0  0  0
   -5.4230    1.7260   -1.0010 C   0  0  0  0  0  0  0  0  0  0  0  0
   -4.4980    1.7640    0.1560 C   0  0  2  0  0  0  0  0  0  0  0  0
   -3.4710    2.7040   -0.0160 F   0  0  0  0  0  0  0  0  0  0  0  0
    1.4010    0.3210    2.8500 N   0  0  0  0  0  0  0  0  0  0  0  0
    2.5460   -0.3000    2.2340 C   0  0  0  0  0  0  0  0  0  0  0  0
    2.6380    0.1060    0.8020 C   0  0  0  0  0  0  0  0  0  0  0  0
    3.8280   -0.5100    0.0950 C   0  0  0  0  0  0  0  0  0  0  0  0
    5.1430   -0.1240    0.7200 C   0  0  0  0  0  0  0  0  0  0  0  0
    6.5140   -0.9390   -0.2360 P   0  0  0  0  0  0  0  0  0  0  0  0
    6.2100   -0.7190   -1.9360 O   0  0  0  0  0  0  0  0  0  0  0  0
    8.0410   -0.1790    0.1160 O   0  0  0  0  0  0  0  0  0  0  0  0
    9.2420   -0.6640   -1.0130 P   0  0  0  0  0  0  0  0  0  0  0  0
    9.2110    0.4160   -2.3720 O   0  0  0  0  0  0  0  0  0  0  0  0
    9.0120   -2.3110   -1.5230 O   0  0  0  0  0  0  0  0  0  0  0  0
  1  2  2  0
  2  3  1  0
  2 25  1  0
  3  4  1  0
  4  5  1  0
  5  6  2  0
  7  5  1  1
  7  8  1  0
  7 12  1  0
  7 23  1  0
  8  9  1  0
  9 10  2  0
  9 11  1  0
 11 12  1  0
 12 13  1  6
 12 16  1  0
 13 14  2  0
 13 15  1  0
 16 17  2  0
 16 18  1  0
 18 19  1  0
 18 22  1  0
 19 20  2  0
 19 21  1  0
 22 23  1  0
 23 24  1  6
 25 26  1  0
 26 27  1  0
 27 28  1  0
 28 29  1  0
 29 30  1  0
 30 31  1  0
 30 32  1  0
 32 33  1  0
 33 34  1  0
 33 35  1  0
M  END
