
     RDKit          3D

 36 36  0  0  0  0  0  0  0  0999 V2000
    5.2540    1.3370   -3.3560 C   0  0  0  0  0  0  0  0  0  0  0  0
    4.0710    0.8240   -2.8320 O   0  0  0  0  0  0  0  0  0  0  0  0
    4.3250    0.1400   -1.6370 C   0  0  2  0  0  0  0  0  0  0  0  0
    5.2220   -0.9100   -1.9430 O   0  0  0  0  0  0  0  0  0  0  0  0
    5.5530   -1.7710   -0.4860 P   0  0  0  0  0  0  0  0  0  0  0  0
    5.3200   -3.4760   -0.6770 O   0  0  0  0  0  0  0  0  0  0  0  0
    7.1300   -1.4150    0.1470 O   0  0  0  0  0  0  0  0  0  0  0  0
    3.1020   -0.4840   -1.0610 C   0  0  0  0  0  0  0  0  0  0  0  0
    2.2370    0.4360   -0.2680 C   0  0  1  0  0  0  0  0  0  0  0  0
    1.4210   -0.3200    0.6610 N   0  0  0  0  0  0  0  0  0  0  0  0
    0.0020   -0.2310    0.6990 C   0  0  0  0  0  0  0  0  0  0  0  0
   -0.5310    0.5370   -0.1120 O   0  0  0  0  0  0  0  0  0  0  0  0
   -0.7970   -0.9630    1.5990 N   0  0  0  0  0  0  0  0  0  0  0  0
   -2.2140   -0.9130    1.6700 C   0  0  1  0  0  0  0  0  0  0  0  0
   -2.6580    0.3900    2.2970 C   0  0  0  0  0  0  0  0  0  0  0  0
   -2.2570    1.5070    1.6070 O   0  0  0  0  0  0  0  0  0  0  0  0
   -2.7980    2.9420    2.3800 P   0  0  0  0  0  0  0  0  0  0  0  0
   -1.4890    4.0500    2.6400 O   0  0  0  0  0  0  0  0  0  0  0  0
   -4.1220    3.6870    1.5820 O   0  0  0  0  0  0  0  0  0  0  0  0
   -2.9120   -1.1200    0.3790 C   0  0  0  0  0  0  0  0  0  0  0  0
   -2.2230   -1.3450   -0.6430 O   0  0  0  0  0  0  0  0  0  0  0  0
   -4.2760   -1.0820    0.2250 O   0  0  0  0  0  0  0  0  0  0  0  0
   -4.9550   -1.2750   -0.9860 C   0  0  2  0  0  0  0  0  0  0  0  0
   -4.5840   -0.2750   -2.0430 C   0  0  0  0  0  0  0  0  0  0  0  0
   -6.4370   -1.1160   -0.7030 C   0  0  0  0  0  0  0  0  0  0  0  0
   -6.7570   -2.0920    0.2390 F   0  0  0  0  0  0  0  0  0  0  0  0
   -4.7460   -2.6540   -1.5630 C   0  0  0  0  0  0  0  0  0  0  0  0
   -5.1810   -3.6630   -0.7230 O   0  0  0  0  0  0  0  0  0  0  0  0
   -4.9550   -4.8070   -1.3150 O   0  0  0  0  0  0  0  0  0  0  0  0
    3.1470    1.3160    0.6010 C   0  0  2  0  0  0  0  0  0  0  0  0
    2.3710    2.2360    1.3500 O   0  0  0  0  0  0  0  0  0  0  0  0
    2.3460    2.1650    2.7200 C   0  0  0  0  0  0  0  0  0  0  0  0
    3.0200    1.2740    3.3000 O   0  0  0  0  0  0  0  0  0  0  0  0
    1.6170    3.0220    3.5320 O   0  0  0  0  0  0  0  0  0  0  0  0
    4.1750    1.9830   -0.2580 C   0  0  0  0  0  0  0  0  0  0  0  0
    4.9950    0.9930   -0.7890 O   0  0  0  0  0  0  0  0  0  0  0  0
  1  2  1  0
  3  2  1  6
  3  4  1  0
  3  8  1  0
  3 36  1  0
  4  5  1  0
  5  6  1  0
  5  7  1  0
  8  9  1  0
  9 10  1  1
  9 30  1  0
 10 11  1  0
 11 12  2  0
 11 13  1  0
 13 14  1  0
 14 15  1  6
 14 20  1  0
 15 16  1  0
 16 17  1  0
 17 18  1  0
 17 19  1  0
 20 21  2  0
 20 22  1  0
 22 23  1  0
 23 24  1  6
 23 25  1  0
 23 27  1  0
 25 26  1  0
 27 28  1  0
 28 29  1  0
 30 31  1  6
 30 35  1  0
 31 32  1  0
 32 33  2  0
 32 34  1  0
 35 36  1  0
M  END
