
     RDKit          3D

 35 35  0  0  0  0  0  0  0  0999 V2000
    7.7820   -0.7660    0.1620 O   0  0  0  0  0  0  0  0  0  0  0  0
    6.3730   -0.4920    0.7280 P   0  0  0  0  0  0  0  0  0  0  0  0
    5.0610   -0.2910   -0.3800 O   0  0  0  0  0  0  0  0  0  0  0  0
    4.4380   -1.5270   -0.6510 C   0  0  0  0  0  0  0  0  0  0  0  0
    3.3030   -1.3750   -1.6050 C   0  0  2  0  0  0  0  0  0  0  0  0
    2.7400   -2.6170   -1.8260 O   0  0  0  0  0  0  0  0  0  0  0  0
    3.8430   -0.9630   -2.8290 F   0  0  0  0  0  0  0  0  0  0  0  0
    2.3670   -0.3990   -1.2320 O   0  0  0  0  0  0  0  0  0  0  0  0
    1.6430   -0.4080   -0.0780 C   0  0  0  0  0  0  0  0  0  0  0  0
    1.7960   -1.3430    0.7400 O   0  0  0  0  0  0  0  0  0  0  0  0
    0.6450    0.6640    0.2870 C   0  0  1  0  0  0  0  0  0  0  0  0
    1.4690    1.9000    0.3670 C   0  0  0  0  0  0  0  0  0  0  0  0
    1.4850    2.5280    1.4500 O   0  0  0  0  0  0  0  0  0  0  0  0
    2.2150    2.3950   -0.6770 O   0  0  0  0  0  0  0  0  0  0  0  0
    2.9960    3.5700   -0.5940 C   0  0  0  0  0  0  0  0  0  0  0  0
    2.2010    4.7600   -0.2730 C   0  0  0  0  0  0  0  0  0  0  0  0
    0.9610    4.7060   -0.0960 O   0  0  0  0  0  0  0  0  0  0  0  0
    2.8340    5.9860   -0.1600 O   0  0  0  0  0  0  0  0  0  0  0  0
   -0.2600    0.8510   -0.9150 C   0  0  0  0  0  0  0  0  0  0  0  0
   -1.1600    1.8830   -0.7780 O   0  0  0  0  0  0  0  0  0  0  0  0
   -2.8030    1.4880   -0.8260 P   0  0  0  0  0  0  0  0  0  0  0  0
   -3.7540    2.8210   -1.3300 O   0  0  0  0  0  0  0  0  0  0  0  0
   -3.2640   -0.0270   -1.7290 C   0  0  0  0  0  0  0  0  0  0  0  0
   -4.1810   -0.9270   -0.9230 C   0  0  0  0  0  0  0  0  0  0  0  0
   -4.7210   -0.2480    0.2390 N   0  0  0  0  0  0  0  0  0  0  0  0
   -4.0110    0.2550    1.3230 C   0  0  0  0  0  0  0  0  0  0  0  0
   -4.3460    1.4370    1.7150 O   0  0  0  0  0  0  0  0  0  0  0  0
   -2.9690   -0.3180    2.0790 N   0  0  0  0  0  0  0  0  0  0  0  0
   -1.8570   -1.1030    1.5580 C   0  0  2  0  0  0  0  0  0  0  0  0
   -2.1110   -2.5250    2.0450 C   0  0  0  0  0  0  0  0  0  0  0  0
   -0.9900   -3.4220    1.5410 C   0  0  0  0  0  0  0  0  0  0  0  0
   -1.2210   -4.7420    1.9870 O   0  0  0  0  0  0  0  0  0  0  0  0
   -0.5830   -0.5640    2.1090 C   0  0  0  0  0  0  0  0  0  0  0  0
   -0.1670   -1.1200    3.1530 O   0  0  0  0  0  0  0  0  0  0  0  0
    0.0330    0.4500    1.4880 O   0  0  0  0  0  0  0  0  0  0  0  0
  1  2  2  0
  2  3  1  0
  3  4  1  0
  4  5  1  0
  5  6  1  6
  5  7  1  0
  5  8  1  0
  8  9  1  0
  9 10  2  0
 11  9  1  6
 11 12  1  0
 11 19  1  0
 11 35  1  0
 12 13  2  0
 12 14  1  0
 14 15  1  0
 15 16  1  0
 16 17  2  0
 16 18  1  0
 19 20  1  0
 20 21  1  0
 21 22  1  0
 21 23  1  0
 23 24  1  0
 24 25  1  0
 25 26  1  0
 26 27  2  0
 26 28  1  0
 28 29  1  0
 29 30  1  1
 29 33  1  0
 30 31  1  0
 31 32  1  0
 33 34  2  0
 33 35  1  0
M  END
