
     RDKit          3D

 36 36  0  0  0  0  0  0  0  0999 V2000
   -0.6940    7.5210    0.5830 O   0  0  0  0  0  0  0  0  0  0  0  0
    0.5010    7.1990    0.5470 C   0  0  0  0  0  0  0  0  0  0  0  0
    1.4550    8.2220    0.4830 O   0  0  0  0  0  0  0  0  0  0  0  0
    0.8490    5.8610    0.5690 O   0  0  0  0  0  0  0  0  0  0  0  0
   -0.1070    4.8480    0.6330 C   0  0  0  0  0  0  0  0  0  0  0  0
   -1.3340    5.1290    0.6720 O   0  0  0  0  0  0  0  0  0  0  0  0
    0.3150    3.4700    0.6540 N   0  0  0  0  0  0  0  0  0  0  0  0
   -0.6730    2.4660    0.7190 C   0  0  0  0  0  0  0  0  0  0  0  0
   -1.8740    2.8020    0.7540 O   0  0  0  0  0  0  0  0  0  0  0  0
   -0.2810    1.0460    0.7420 C   0  0  2  0  0  0  0  0  0  0  0  0
    1.1360    0.9980    0.6680 O   0  0  0  0  0  0  0  0  0  0  0  0
    1.8250   -0.1790    0.6600 C   0  0  0  0  0  0  0  0  0  0  0  0
    1.2060   -1.2640    0.7190 O   0  0  0  0  0  0  0  0  0  0  0  0
    3.2480   -0.2750    0.5880 N   0  0  0  0  0  0  0  0  0  0  0  0
    3.9620   -1.5260    0.5810 C   0  0  1  0  0  0  0  0  0  0  0  0
    4.6060   -1.6600   -0.7520 C   0  0  0  0  0  0  0  0  0  0  0  0
    4.4980   -0.8040   -1.6400 O   0  0  0  0  0  0  0  0  0  0  0  0
    5.3580   -2.7980   -0.9990 O   0  0  0  0  0  0  0  0  0  0  0  0
    4.8980   -1.6910    1.6860 C   0  0  0  0  0  0  0  0  0  0  0  0
    5.0540   -0.8090    2.5580 O   0  0  0  0  0  0  0  0  0  0  0  0
    5.6500   -2.8410    1.8040 O   0  0  0  0  0  0  0  0  0  0  0  0
    6.5270   -3.0520    2.7960 O   0  0  0  0  0  0  0  0  0  0  0  0
    6.5630   -4.3740    2.9620 O   0  0  0  0  0  0  0  0  0  0  0  0
   -0.9260    0.3350   -0.4080 C   0  0  0  0  0  0  0  0  0  0  0  0
   -1.9940   -0.6110    0.0150 C   0  0  2  0  0  0  0  0  0  0  0  0
   -2.8650   -1.0350   -1.1480 C   0  0  0  0  0  0  0  0  0  0  0  0
   -2.0360   -1.7150   -2.1900 C   0  0  0  0  0  0  0  0  0  0  0  0
   -3.1450   -2.2210   -3.5940 P   0  0  0  0  0  0  0  0  0  0  0  0
   -4.1150   -0.8600   -4.0580 O   0  0  0  0  0  0  0  0  0  0  0  0
   -4.4280   -3.8900   -3.0370 P   0  0  0  0  0  0  0  0  0  0  0  0
   -3.5830   -5.0000   -1.9800 O   0  0  0  0  0  0  0  0  0  0  0  0
   -5.9010   -3.3460   -2.2580 O   0  0  0  0  0  0  0  0  0  0  0  0
   -2.9250   -0.0230    1.0540 C   0  0  0  0  0  0  0  0  0  0  0  0
   -2.1940    0.4860    2.2550 C   0  0  1  0  0  0  0  0  0  0  0  0
   -2.4620   -0.2980    3.3860 F   0  0  0  0  0  0  0  0  0  0  0  0
   -0.6990    0.5000    2.1020 C   0  0  0  0  0  0  0  0  0  0  0  0
  1  2  2  0
  2  3  1  0
  2  4  1  0
  4  5  1  0
  5  6  2  0
  5  7  1  0
  7  8  1  0
  8  9  2  0
  8 10  1  0
 10 11  1  6
 10 24  1  0
 10 36  1  0
 11 12  1  0
 12 13  2  0
 12 14  1  0
 15 14  1  6
 15 16  1  0
 15 19  1  0
 16 17  2  0
 16 18  1  0
 19 20  2  0
 19 21  1  0
 21 22  1  0
 22 23  1  0
 24 25  1  0
 25 26  1  6
 25 33  1  0
 26 27  1  0
 27 28  1  0
 28 29  1  0
 28 30  1  0
 30 31  1  0
 30 32  1  0
 33 34  1  0
 34 35  1  1
 34 36  1  0
M  END
