
     RDKit          3D

 35 35  0  0  0  0  0  0  0  0999 V2000
    4.3980    2.6850   -1.4200 C   0  0  0  0  0  0  0  0  0  0  0  0
    4.5250    1.3270   -0.8770 C   0  0  0  0  0  0  0  0  0  0  0  0
    5.5990    0.7070   -0.9940 O   0  0  0  0  0  0  0  0  0  0  0  0
    3.4300    0.7110   -0.2190 N   0  0  0  0  0  0  0  0  0  0  0  0
    3.5920   -0.6290    0.2110 C   0  0  0  0  0  0  0  0  0  0  0  0
    4.7360   -1.1630    0.0520 O   0  0  0  0  0  0  0  0  0  0  0  0
    2.6280   -1.4180    0.7870 O   0  0  0  0  0  0  0  0  0  0  0  0
    2.7800   -2.7390    1.2100 C   0  0  0  0  0  0  0  0  0  0  0  0
    3.8190   -2.9050    2.2590 C   0  0  0  0  0  0  0  0  0  0  0  0
    4.5000   -1.9610    2.7260 O   0  0  0  0  0  0  0  0  0  0  0  0
    4.0510   -4.1800    2.7490 O   0  0  0  0  0  0  0  0  0  0  0  0
    2.1800    1.4110   -0.0530 C   0  0  1  0  0  0  0  0  0  0  0  0
    1.0840    0.6600   -0.6930 C   0  0  0  0  0  0  0  0  0  0  0  0
    1.3310   -0.4370   -1.2840 O   0  0  0  0  0  0  0  0  0  0  0  0
   -0.2290    1.1090   -0.6780 O   0  0  0  0  0  0  0  0  0  0  0  0
   -1.2580    0.3920   -1.2880 C   0  0  0  0  0  0  0  0  0  0  0  0
   -0.9110   -0.6790   -1.8460 O   0  0  0  0  0  0  0  0  0  0  0  0
   -2.6610    0.8630   -1.2770 C   0  0  0  0  0  0  0  0  0  0  0  0
   -3.5590   -0.0390   -1.9300 N   0  0  0  0  0  0  0  0  0  0  0  0
   -4.9320    0.4860   -1.9330 C   0  0  0  0  0  0  0  0  0  0  0  0
   -5.5160    0.5860   -0.5650 C   0  0  0  0  0  0  0  0  0  0  0  0
   -5.4310   -0.5470    0.2030 O   0  0  0  0  0  0  0  0  0  0  0  0
   -4.1710   -1.1360    0.1800 C   0  0  0  0  0  0  0  0  0  0  0  0
   -3.6820   -1.3310   -1.2390 C   0  0  1  0  0  0  0  0  0  0  0  0
   -5.0420   -2.2500   -2.1550 P   0  0  0  0  0  0  0  0  0  0  0  0
   -4.6320   -3.9120   -2.3440 O   0  0  0  0  0  0  0  0  0  0  0  0
   -6.5240   -2.1500   -1.2640 O   0  0  0  0  0  0  0  0  0  0  0  0
    1.8140    1.6830    1.3960 C   0  0  2  0  0  0  0  0  0  0  0  0
    1.7000    0.4890    2.0920 O   0  0  0  0  0  0  0  0  0  0  0  0
    0.5330    2.2330    1.3720 F   0  0  0  0  0  0  0  0  0  0  0  0
    2.7500    2.6220    2.0570 C   0  0  0  0  0  0  0  0  0  0  0  0
    2.9290    3.7670    1.5980 O   0  0  0  0  0  0  0  0  0  0  0  0
    3.4320    2.2330    3.1900 O   0  0  0  0  0  0  0  0  0  0  0  0
    4.5530    3.3060    4.0130 P   0  0  0  0  0  0  0  0  0  0  0  0
    6.0380    3.2820    3.5660 O   0  0  0  0  0  0  0  0  0  0  0  0
  1  2  1  0
  2  3  2  0
  2  4  1  0
  4  5  1  0
 12  4  1  1
  5  6  2  0
  5  7  1  0
  7  8  1  0
  8  9  1  0
  9 10  2  0
  9 11  1  0
 12 13  1  0
 12 28  1  0
 13 14  2  0
 13 15  1  0
 15 16  1  0
 16 17  2  0
 16 18  1  0
 18 19  1  0
 19 20  1  0
 19 24  1  0
 20 21  1  0
 21 22  1  0
 22 23  1  0
 23 24  1  0
 24 25  1  6
 25 26  1  0
 25 27  1  0
 28 29  1  1
 28 30  1  0
 28 31  1  0
 31 32  2  0
 31 33  1  0
 33 34  1  0
 34 35  2  0
M  END
