
     RDKit          3D

 36 36  0  0  0  0  0  0  0  0999 V2000
   -3.7440   -3.8520   -3.2910 C   0  0  0  0  0  0  0  0  0  0  0  0
   -3.0690   -2.6630   -3.1300 O   0  0  0  0  0  0  0  0  0  0  0  0
   -3.6170   -1.7620   -1.7790 P   0  0  0  0  0  0  0  0  0  0  0  0
   -5.0560   -2.3960   -1.0700 O   0  0  0  0  0  0  0  0  0  0  0  0
   -2.4050   -1.4170   -0.6260 O   0  0  0  0  0  0  0  0  0  0  0  0
   -1.4960   -0.4580   -1.0550 C   0  0  0  0  0  0  0  0  0  0  0  0
   -0.4380   -0.1740   -0.0160 C   0  0  1  0  0  0  0  0  0  0  0  0
   -1.1440    0.3520    1.1930 C   0  0  0  0  0  0  0  0  0  0  0  0
   -1.0290   -0.2600    2.2800 O   0  0  0  0  0  0  0  0  0  0  0  0
   -1.9320    1.4900    1.1970 O   0  0  0  0  0  0  0  0  0  0  0  0
   -2.6020    2.0040    2.3040 C   0  0  2  0  0  0  0  0  0  0  0  0
   -4.1000    2.0820    2.1130 C   0  0  0  0  0  0  0  0  0  0  0  0
   -4.4560    2.8920    1.0420 O   0  0  0  0  0  0  0  0  0  0  0  0
   -2.1130    3.3850    2.5450 C   0  0  0  0  0  0  0  0  0  0  0  0
   -1.2370    3.9000    1.8070 O   0  0  0  0  0  0  0  0  0  0  0  0
   -2.5880    4.1810    3.5880 O   0  0  0  0  0  0  0  0  0  0  0  0
    0.2800   -1.3030    0.2810 O   0  0  0  0  0  0  0  0  0  0  0  0
    1.0900   -2.0970   -0.4610 C   0  0  0  0  0  0  0  0  0  0  0  0
    0.8270   -3.3660   -0.3340 O   0  0  0  0  0  0  0  0  0  0  0  0
    2.1500   -1.7800   -1.3270 N   0  0  0  0  0  0  0  0  0  0  0  0
    2.1420   -1.0150   -2.5480 C   0  0  0  0  0  0  0  0  0  0  0  0
    3.2510    0.0110   -2.6180 C   0  0  0  0  0  0  0  0  0  0  0  0
    4.4300   -0.3560   -1.8710 N   0  0  0  0  0  0  0  0  0  0  0  0
    5.0580    0.4320   -0.8660 C   0  0  0  0  0  0  0  0  0  0  0  0
    6.3360    0.5510   -0.9950 O   0  0  0  0  0  0  0  0  0  0  0  0
    4.3220    0.9960    0.1340 O   0  0  0  0  0  0  0  0  0  0  0  0
    3.6840    0.4240    1.2230 C   0  0  1  0  0  0  0  0  0  0  0  0
    3.7640   -0.9610    1.2540 F   0  0  0  0  0  0  0  0  0  0  0  0
    4.3390    0.8990    2.4650 C   0  0  0  0  0  0  0  0  0  0  0  0
    5.2730    1.6640    2.3930 O   0  0  0  0  0  0  0  0  0  0  0  0
    3.7750    0.3620    4.1180 P   0  0  0  0  0  0  0  0  0  0  0  0
    3.6140   -1.1060    4.5280 O   0  0  0  0  0  0  0  0  0  0  0  0
    2.2170    0.7730    1.3380 C   0  0  0  0  0  0  0  0  0  0  0  0
    1.6430    1.2410    0.1710 O   0  0  0  0  0  0  0  0  0  0  0  0
    0.4750    0.9140   -0.4320 C   0  0  0  0  0  0  0  0  0  0  0  0
    0.1220    1.5930   -1.4440 O   0  0  0  0  0  0  0  0  0  0  0  0
  1  2  1  0
  2  3  1  0
  3  4  1  0
  3  5  1  0
  5  6  1  0
  7  6  1  6
  7  8  1  0
  7 17  1  0
  7 35  1  0
  8  9  2  0
  8 10  1  0
 10 11  1  0
 11 12  1  6
 11 14  1  0
 12 13  1  0
 14 15  2  0
 14 16  1  0
 17 18  1  0
 18 19  2  0
 18 20  1  0
 20 21  1  0
 21 22  1  0
 22 23  1  0
 23 24  1  0
 24 25  2  0
 24 26  1  0
 26 27  1  0
 27 28  1  6
 27 29  1  0
 27 33  1  0
 29 30  2  0
 29 31  1  0
 31 32  2  0
 33 34  1  0
 34 35  1  0
 35 36  2  0
M  END
