
     RDKit          3D

 37 40  0  0  0  0  0  0  0  0999 V2000
   -6.3150    0.9980   -2.3930 C   0  0  0  0  0  0  0  0  0  0  0  0
   -5.4380    1.9590   -1.6270 C   0  0  1  0  0  0  0  0  0  0  0  0
   -5.9850    2.1530   -0.3240 N   0  0  0  0  0  0  0  0  0  0  0  0
   -7.2770    2.7470   -0.2650 C   0  0  0  0  0  0  0  0  0  0  0  0
   -7.6930    2.8300    1.2010 C   0  0  0  0  0  0  0  0  0  0  0  0
   -6.7460    3.6110    1.8490 O   0  0  0  0  0  0  0  0  0  0  0  0
   -4.0590    1.3960   -1.5010 C   0  0  0  0  0  0  0  0  0  0  0  0
   -3.6750    0.4630   -0.6070 N   0  0  0  0  0  0  0  0  0  0  0  0
   -2.3580    0.1850   -0.7780 C   0  0  0  0  0  0  0  0  0  0  0  0
   -1.6080   -0.7740    0.0290 C   0  0  0  0  0  0  0  0  0  0  0  0
   -2.1970   -1.4500    1.0770 C   0  0  0  0  0  0  0  0  0  0  0  0
   -1.5320   -2.3620    1.8490 C   0  0  0  0  0  0  0  0  0  0  0  0
   -0.2150   -2.6250    1.5730 C   0  0  0  0  0  0  0  0  0  0  0  0
    0.4230   -1.9570    0.5120 C   0  0  0  0  0  0  0  0  0  0  0  0
   -0.2720   -1.0420   -0.2490 C   0  0  0  0  0  0  0  0  0  0  0  0
    1.8240   -2.1570    0.1060 C   0  0  1  0  0  0  0  0  0  0  0  0
    2.3230   -1.1950   -0.9390 C   0  0  0  0  0  0  0  0  0  0  0  0
    3.6510   -1.4530   -1.2650 O   0  0  0  0  0  0  0  0  0  0  0  0
    4.2860   -0.4490   -2.3970 S   0  0  2  0  0  0  0  0  0  0  0  0
    3.1000    0.1180   -3.1790 O   0  0  0  0  0  0  0  0  0  0  0  0
    5.1320   -1.1450   -3.4270 O   0  0  0  0  0  0  0  0  0  0  0  0
    5.1080    0.9240   -1.7620 N   0  0  0  0  0  0  0  0  0  0  0  0
    6.4720    0.5400   -1.3970 C   0  0  0  0  0  0  0  0  0  0  0  0
    7.2160    1.7350   -0.8360 C   0  0  0  0  0  0  0  0  0  0  0  0
    6.3050    2.3550    0.6460 P   0  0  0  0  0  0  0  0  0  0  0  0
    7.3420    2.3110    2.0280 O   0  0  0  0  0  0  0  0  0  0  0  0
    5.8170    4.0200    0.4040 O   0  0  0  0  0  0  0  0  0  0  0  0
    2.7280   -1.9570    1.3310 C   0  0  0  0  0  0  0  0  0  0  0  0
    2.7830   -3.2060    2.1400 C   0  0  0  0  0  0  0  0  0  0  0  0
    3.8720   -3.7720    2.3580 O   0  0  0  0  0  0  0  0  0  0  0  0
    1.6380   -3.8410    2.7140 N   0  0  0  0  0  0  0  0  0  0  0  0
    1.7020   -4.8420    3.6380 C   0  0  0  0  0  0  0  0  0  0  0  0
    0.4310   -5.1950    3.9550 N   0  0  0  0  0  0  0  0  0  0  0  0
   -0.4250   -4.4540    3.2650 N   0  0  0  0  0  0  0  0  0  0  0  0
    0.3290   -3.6280    2.5090 C   0  0  0  0  0  0  0  0  0  0  0  0
   -1.9720    0.9740   -1.7910 N   0  0  0  0  0  0  0  0  0  0  0  0
   -3.0030    1.6840   -2.2030 O   0  0  0  0  0  0  0  0  0  0  0  0
  2  1  1  6
  2  3  1  0
  2  7  1  0
  3  4  1  0
  4  5  1  0
  5  6  1  0
  7  8  2  0
  7 37  1  0
  8  9  1  0
  9 10  1  0
  9 36  2  0
 10 11  2  0
 10 15  1  0
 11 12  1  0
 12 13  2  0
 13 14  1  0
 13 35  1  0
 14 15  2  0
 14 16  1  0
 16 17  1  6
 16 28  1  0
 17 18  1  0
 18 19  1  0
 19 20  2  0
 19 21  2  0
 19 22  1  1
 22 23  1  0
 23 24  1  0
 24 25  1  0
 25 26  1  0
 25 27  1  0
 28 29  1  0
 29 30  2  0
 29 31  1  0
 31 32  1  0
 31 35  1  0
 32 33  2  0
 33 34  1  0
 34 35  2  0
 36 37  1  0
M  END
