
     RDKit          3D

 37 39  0  0  0  0  0  0  0  0999 V2000
   -5.7170    3.7390   -0.8800 N   0  0  0  0  0  0  0  0  0  0  0  0
   -5.4840    2.5080   -0.5670 C   0  0  0  0  0  0  0  0  0  0  0  0
   -6.5830    1.5990   -0.6000 N   0  0  0  0  0  0  0  0  0  0  0  0
   -8.2320    2.2690   -0.3810 P   0  0  0  0  0  0  0  0  0  0  0  0
   -8.5690    3.3030   -1.7400 O   0  0  0  0  0  0  0  0  0  0  0  0
   -8.2010    3.3080    1.0250 O   0  0  0  0  0  0  0  0  0  0  0  0
   -4.1750    2.0880   -0.2130 N   0  0  0  0  0  0  0  0  0  0  0  0
   -3.9390    1.5330    1.0630 C   0  0  0  0  0  0  0  0  0  0  0  0
   -2.6200    0.8540    1.2520 C   0  0  0  0  0  0  0  0  0  0  0  0
   -2.0220    0.3700   -0.0800 C   0  0  2  0  0  0  0  0  0  0  0  0
   -0.6300   -0.1190    0.1030 C   0  0  1  0  0  0  0  0  0  0  0  0
    0.1800    0.9460    0.6390 N   0  0  0  0  0  0  0  0  0  0  0  0
    1.5640    0.7690    1.0550 C   0  0  0  0  0  0  0  0  0  0  0  0
    2.4740    0.4440    0.1760 C   0  0  0  0  0  0  0  0  0  0  0  0
    3.8980    0.2170    0.3350 C   0  0  1  0  0  0  0  0  0  0  0  0
    4.6410    1.1910   -0.3510 O   0  0  0  0  0  0  0  0  0  0  0  0
    5.5250    0.5580   -1.2340 C   0  0  0  0  0  0  0  0  0  0  0  0
    6.3660    1.5410   -1.9790 C   0  0  0  0  0  0  0  0  0  0  0  0
    7.3290    0.9030   -2.9240 C   0  0  0  0  0  0  0  0  0  0  0  0
    8.3060    0.0480   -2.2380 C   0  0  0  0  0  0  0  0  0  0  0  0
    8.3160   -0.0590   -0.9920 O   0  0  0  0  0  0  0  0  0  0  0  0
    9.2760   -0.6850   -2.9470 O   0  0  0  0  0  0  0  0  0  0  0  0
    4.3900    0.3850    2.0710 S   0  0  0  0  0  0  0  0  0  0  0  0
    3.0060    0.8230    3.0210 N   0  0  0  0  0  0  0  0  0  0  0  0
    1.8500    0.9590    2.4940 C   0  0  0  0  0  0  0  0  0  0  0  0
   -0.4310   -1.4000    0.7680 C   0  0  0  0  0  0  0  0  0  0  0  0
    0.4640   -1.4010    1.6780 O   0  0  0  0  0  0  0  0  0  0  0  0
   -1.0950   -2.6040    0.5280 N   0  0  0  0  0  0  0  0  0  0  0  0
   -0.9250   -3.8520    1.1410 C   0  0  0  0  0  0  0  0  0  0  0  0
   -1.8930   -4.8440    0.9290 C   0  0  0  0  0  0  0  0  0  0  0  0
   -1.8040   -6.0950    1.4700 C   0  0  0  0  0  0  0  0  0  0  0  0
   -0.7330   -6.4540    2.2680 C   0  0  0  0  0  0  0  0  0  0  0  0
    0.1930   -5.5140    2.4730 N   0  0  0  0  0  0  0  0  0  0  0  0
    0.1230   -4.2530    1.9410 C   0  0  0  0  0  0  0  0  0  0  0  0
   -1.9820    1.4770   -0.9760 O   0  0  0  0  0  0  0  0  0  0  0  0
   -3.1440    2.2440   -1.1600 C   0  0  0  0  0  0  0  0  0  0  0  0
   -3.2360    3.0360   -2.1510 O   0  0  0  0  0  0  0  0  0  0  0  0
  1  2  2  0
  2  3  1  0
  2  7  1  0
  3  4  1  0
  4  5  1  0
  4  6  1  0
  7  8  1  0
  7 36  1  0
  8  9  1  0
 10  9  1  1
 10 11  1  0
 10 35  1  0
 11 12  1  1
 11 26  1  0
 12 13  1  0
 13 14  2  0
 13 25  1  0
 14 15  1  0
 15 16  1  6
 15 23  1  0
 16 17  1  0
 17 18  1  0
 18 19  1  0
 19 20  1  0
 20 21  2  0
 20 22  1  0
 23 24  1  0
 24 25  2  0
 26 27  2  0
 26 28  1  0
 28 29  1  0
 29 30  2  0
 29 34  1  0
 30 31  1  0
 31 32  2  0
 32 33  1  0
 33 34  2  0
 35 36  1  0
 36 37  2  0
M  END
