
     RDKit          3D

 36 40  0  0  0  0  0  0  0  0999 V2000
    9.7290    1.3650   -0.5850 C   0  0  0  0  0  0  0  0  0  0  0  0
    8.3180    1.4610   -0.3410 O   0  0  0  0  0  0  0  0  0  0  0  0
    7.6630    0.4650    0.3700 C   0  0  0  0  0  0  0  0  0  0  0  0
    8.2950   -0.6510    0.8800 C   0  0  0  0  0  0  0  0  0  0  0  0
    7.5650   -1.5750    1.5640 N   0  0  0  0  0  0  0  0  0  0  0  0
    6.2460   -1.4400    1.7630 C   0  0  0  0  0  0  0  0  0  0  0  0
    5.5980   -2.3190    2.4050 O   0  0  0  0  0  0  0  0  0  0  0  0
    5.5490   -0.3310    1.2700 C   0  0  0  0  0  0  0  0  0  0  0  0
    4.1240   -0.1710    1.4950 C   0  0  0  0  0  0  0  0  0  0  0  0
    3.3320    0.1720    0.5440 C   0  0  0  0  0  0  0  0  0  0  0  0
    1.8740    0.3430    0.7540 C   0  0  0  0  0  0  0  0  0  0  0  0
    1.1940    0.8390   -0.4870 C   0  0  2  0  0  0  0  0  0  0  0  0
   -0.1750    0.7260   -0.3050 O   0  0  0  0  0  0  0  0  0  0  0  0
   -0.6300   -0.3070   -1.1340 C   0  0  2  0  0  0  0  0  0  0  0  0
   -1.4090    0.1990   -2.3010 C   0  0  0  0  0  0  0  0  0  0  0  0
   -2.7490   -0.4640   -2.2370 C   0  0  0  0  0  0  0  0  0  0  0  0
   -2.8990   -0.8080   -0.8470 N   0  0  0  0  0  0  0  0  0  0  0  0
   -4.0850   -0.7480   -0.0840 C   0  0  0  0  0  0  0  0  0  0  0  0
   -5.2100   -0.3850   -0.6080 N   0  0  0  0  0  0  0  0  0  0  0  0
   -6.4390   -0.2990    0.0900 C   0  0  0  0  0  0  0  0  0  0  0  0
   -7.5370    0.0860   -0.5400 C   0  0  0  0  0  0  0  0  0  0  0  0
   -8.7760    0.2000    0.0550 O   0  0  0  0  0  0  0  0  0  0  0  0
   -9.3800    1.7100    0.7160 P   0  0  0  0  0  0  0  0  0  0  0  0
   -9.9300    2.7300   -0.5760 O   0  0  0  0  0  0  0  0  0  0  0  0
   -8.1400    2.5690    1.5710 O   0  0  0  0  0  0  0  0  0  0  0  0
   -6.4350   -0.6370    1.4680 N   0  0  0  0  0  0  0  0  0  0  0  0
   -5.3250   -1.0070    2.0320 C   0  0  0  0  0  0  0  0  0  0  0  0
   -5.3600   -1.3420    3.4290 N   0  0  0  0  0  0  0  0  0  0  0  0
   -6.2940   -0.7220    4.2950 N   0  0  0  0  0  0  0  0  0  0  0  0
   -4.1050   -1.0870    1.3160 N   0  0  0  0  0  0  0  0  0  0  0  0
   -1.5840   -1.2140   -0.3930 C   0  0  0  0  0  0  0  0  0  0  0  0
    0.4930   -0.9580   -1.6090 O   0  0  0  0  0  0  0  0  0  0  0  0
    1.4070    0.1030   -1.7330 C   0  0  2  0  0  0  0  0  0  0  0  0
    2.7370   -0.3140   -2.1750 C   0  0  0  0  0  0  0  0  0  0  0  0
    4.0090    0.4200   -1.1150 S   0  0  0  0  0  0  0  0  0  0  0  0
    6.3060    0.6130    0.5680 C   0  0  0  0  0  0  0  0  0  0  0  0
  1  2  1  0
  2  3  1  0
  3  4  2  0
  3 36  1  0
  4  5  1  0
  5  6  1  0
  6  7  2  0
  6  8  1  0
  8  9  1  0
  8 36  2  0
  9 10  2  3
 10 11  1  0
 10 35  1  0
 12 11  1  1
 12 13  1  0
 12 33  1  0
 13 14  1  0
 14 15  1  6
 14 31  1  0
 14 32  1  0
 15 16  1  0
 16 17  1  0
 17 18  1  0
 17 31  1  0
 18 19  2  0
 18 30  1  0
 19 20  1  0
 20 21  2  3
 20 26  1  0
 21 22  1  0
 22 23  1  0
 23 24  1  0
 23 25  1  0
 26 27  2  0
 27 28  1  0
 27 30  1  0
 28 29  1  0
 32 33  1  0
 33 34  1  1
 34 35  1  0
M  END
