
     RDKit          3D

 37 39  0  0  0  0  0  0  0  0999 V2000
   -9.5190    2.2950    2.5000 N   0  0  0  0  0  0  0  0  0  0  0  0
   -8.6360    1.4190    1.8030 C   0  0  0  0  0  0  0  0  0  0  0  0
   -7.4770    1.9150    1.2270 C   0  0  0  0  0  0  0  0  0  0  0  0
   -6.6350    1.0920    0.5830 C   0  0  0  0  0  0  0  0  0  0  0  0
   -6.8310   -0.2690    0.4540 N   0  0  0  0  0  0  0  0  0  0  0  0
   -5.8490   -0.9830   -0.2220 C   0  0  2  0  0  0  0  0  0  0  0  0
   -4.8540   -0.0280   -0.6620 O   0  0  0  0  0  0  0  0  0  0  0  0
   -3.8460   -0.8280   -1.1080 C   0  0  2  0  0  0  0  0  0  0  0  0
   -3.0710   -0.0400   -2.1410 C   0  0  0  0  0  0  0  0  0  0  0  0
   -1.7920   -0.7420   -2.2320 O   0  0  0  0  0  0  0  0  0  0  0  0
   -0.7100    0.0590   -1.4650 P   0  0  0  0  0  0  0  0  0  0  0  0
   -0.1900   -1.3030   -0.6960 O   0  0  0  0  0  0  0  0  0  0  0  0
   -0.0510    0.6120   -2.7850 O   0  0  0  0  0  0  0  0  0  0  0  0
    0.1010    0.9850   -0.5620 O   0  0  0  0  0  0  0  0  0  0  0  0
    1.5260    0.4040   -0.1060 P   0  0  0  0  0  0  0  0  0  0  0  0
    2.2550   -0.8300   -1.0020 O   0  0  0  0  0  0  0  0  0  0  0  0
    2.2830    1.4440   -0.9740 O   0  0  0  0  0  0  0  0  0  0  0  0
    2.2980    0.9080    1.2340 O   0  0  0  0  0  0  0  0  0  0  0  0
    3.3970   -0.0890    1.2810 C   0  0  0  0  0  0  0  0  0  0  0  0
    4.5520    0.7540    0.9250 C   0  0  0  0  0  0  0  0  0  0  0  0
    5.7920    0.1840    0.8000 O   0  0  0  0  0  0  0  0  0  0  0  0
    6.7930    0.9010    1.4660 C   0  0  0  0  0  0  0  0  0  0  0  0
    6.4600    1.8730    2.1700 O   0  0  0  0  0  0  0  0  0  0  0  0
    8.1780    0.4960    1.2740 C   0  0  0  0  0  0  0  0  0  0  0  0
    9.1090    1.4370    1.7320 C   0  0  0  0  0  0  0  0  0  0  0  0
   10.4430    1.2890    1.4010 C   0  0  0  0  0  0  0  0  0  0  0  0
   10.8600    0.2290    0.6260 C   0  0  0  0  0  0  0  0  0  0  0  0
    9.8820   -0.6850    0.1930 C   0  0  0  0  0  0  0  0  0  0  0  0
    8.5470   -0.5600    0.5170 C   0  0  0  0  0  0  0  0  0  0  0  0
    7.5940   -1.5320    0.1310 N   0  0  0  0  0  0  0  0  0  0  0  0
   -4.4410   -2.0690   -1.6520 C   0  0  1  0  0  0  0  0  0  0  0  0
   -4.2850   -3.1440   -0.7500 O   0  0  0  0  0  0  0  0  0  0  0  0
   -5.9830   -1.6890   -1.5260 C   0  0  1  0  0  0  0  0  0  0  0  0
   -6.7230   -2.8310   -1.5470 O   0  0  0  0  0  0  0  0  0  0  0  0
   -7.9300   -0.7120    1.0180 C   0  0  0  0  0  0  0  0  0  0  0  0
   -8.2450   -1.9430    0.9450 O   0  0  0  0  0  0  0  0  0  0  0  0
   -8.8170    0.0800    1.6780 N   0  0  0  0  0  0  0  0  0  0  0  0
  1  2  1  0
  2  3  1  0
  2 37  2  0
  3  4  2  0
  4  5  1  0
  6  5  1  6
  5 35  1  0
  6  7  1  0
  6 33  1  0
  7  8  1  0
  8  9  1  6
  8 31  1  0
  9 10  1  0
 10 11  1  0
 11 12  1  0
 11 13  1  0
 11 14  1  0
 14 15  1  0
 15 16  1  0
 15 17  1  0
 15 18  1  0
 18 19  1  0
 19 20  1  0
 20 21  1  0
 21 22  1  0
 22 23  2  0
 22 24  1  0
 24 25  2  0
 24 29  1  0
 25 26  1  0
 26 27  2  0
 27 28  1  0
 28 29  2  0
 29 30  1  0
 31 32  1  1
 31 33  1  0
 33 34  1  1
 35 36  2  0
 35 37  1  0
M  END
