
     RDKit          3D

 36 38  0  0  0  0  0  0  0  0999 V2000
   -1.0660    1.8480   -5.0770 C   0  0  0  0  0  0  0  0  0  0  0  0
   -1.5150    1.2920   -3.8570 O   0  0  0  0  0  0  0  0  0  0  0  0
   -0.6560    1.3090   -2.7780 C   0  0  0  0  0  0  0  0  0  0  0  0
    0.4800    1.8150   -2.9280 O   0  0  0  0  0  0  0  0  0  0  0  0
   -1.0130    0.7570   -1.4470 C   0  0  2  0  0  0  0  0  0  0  0  0
    0.1550    0.9430   -0.5210 C   0  0  0  0  0  0  0  0  0  0  0  0
    1.1880   -0.1210   -0.5190 C   0  0  2  0  0  0  0  0  0  0  0  0
    2.5040    0.4920   -0.5490 N   0  0  0  0  0  0  0  0  0  0  0  0
    3.4210    0.4130    0.5640 C   0  0  0  0  0  0  0  0  0  0  0  0
    3.0100   -0.2140    1.5470 O   0  0  0  0  0  0  0  0  0  0  0  0
    4.7480    1.0460    0.5020 C   0  0  0  0  0  0  0  0  0  0  0  0
    5.5670    0.8350    1.5810 O   0  0  0  0  0  0  0  0  0  0  0  0
    5.8980   -0.4840    1.7010 C   0  0  0  0  0  0  0  0  0  0  0  0
    6.8020   -0.7540    2.8920 C   0  0  0  0  0  0  0  0  0  0  0  0
    8.3850    0.1710    2.7840 P   0  0  0  0  0  0  0  0  0  0  0  0
    8.7060    0.7720    1.1880 O   0  0  0  0  0  0  0  0  0  0  0  0
    9.6930   -0.8670    3.2440 O   0  0  0  0  0  0  0  0  0  0  0  0
    1.0460   -1.2400   -1.4900 C   0  0  0  0  0  0  0  0  0  0  0  0
   -0.1120   -1.2440   -2.3970 C   0  0  0  0  0  0  0  0  0  0  0  0
   -1.3380   -0.7070   -1.6380 C   0  0  1  0  0  0  0  0  0  0  0  0
   -1.5220   -1.6480   -0.1560 S   0  0  0  0  0  0  0  0  0  0  0  0
   -2.9870   -1.3030    0.7840 C   0  0  0  0  0  0  0  0  0  0  0  0
   -3.0370   -1.8060    2.0290 C   0  0  0  0  0  0  0  0  0  0  0  0
   -4.2240   -1.5280    2.8170 C   0  0  0  0  0  0  0  0  0  0  0  0
   -4.3660   -2.0460    4.1880 C   0  0  0  0  0  0  0  0  0  0  0  0
   -5.5300   -1.7630    4.9360 N   0  0  0  0  0  0  0  0  0  0  0  0
   -3.4680   -2.7420    4.7170 O   0  0  0  0  0  0  0  0  0  0  0  0
   -5.1850   -0.8240    2.3440 N   0  0  0  0  0  0  0  0  0  0  0  0
   -5.2660   -0.2230    1.0590 C   0  0  0  0  0  0  0  0  0  0  0  0
   -4.0890   -0.5490    0.2280 C   0  0  0  0  0  0  0  0  0  0  0  0
   -4.0400   -0.1860   -1.0270 N   0  0  0  0  0  0  0  0  0  0  0  0
   -5.1170    0.5480   -1.5600 N   0  0  0  0  0  0  0  0  0  0  0  0
   -5.2280    1.8750   -1.3920 C   0  0  0  0  0  0  0  0  0  0  0  0
   -6.3570    2.2430   -2.0220 N   0  0  0  0  0  0  0  0  0  0  0  0
   -6.9200    1.1590   -2.5620 N   0  0  0  0  0  0  0  0  0  0  0  0
   -6.1560    0.0890   -2.2820 C   0  0  0  0  0  0  0  0  0  0  0  0
  1  2  1  0
  2  3  1  0
  3  4  2  0
  5  3  1  6
  5  6  1  0
  5 20  1  0
  6  7  1  0
  7  8  1  6
  7 18  1  0
  8  9  1  0
  9 10  2  0
  9 11  1  0
 11 12  1  0
 12 13  1  0
 13 14  1  0
 14 15  1  0
 15 16  1  0
 15 17  1  0
 18 19  1  0
 19 20  1  0
 20 21  1  1
 21 22  1  0
 22 23  2  0
 22 30  1  0
 23 24  1  0
 24 25  1  0
 24 28  2  0
 25 26  1  0
 25 27  2  0
 28 29  1  0
 29 30  1  0
 30 31  2  3
 31 32  1  0
 32 33  1  0
 32 36  1  0
 33 34  2  0
 34 35  1  0
 35 36  2  0
M  END
