
     RDKit          3D

 37 40  0  0  0  0  0  0  0  0999 V2000
    4.1150   -1.9950   -0.2090 C   0  0  0  0  0  0  0  0  0  0  0  0
    4.5400   -0.7400   -0.8120 N   0  0  0  0  0  0  0  0  0  0  0  0
    3.7190   -0.0390   -1.7540 C   0  0  0  0  0  0  0  0  0  0  0  0
    2.4450    0.3220   -1.0870 C   0  0  0  0  0  0  0  0  0  0  0  0
    1.2810   -0.3420   -1.1630 N   0  0  0  0  0  0  0  0  0  0  0  0
    0.3870    0.3300   -0.4110 C   0  0  0  0  0  0  0  0  0  0  0  0
   -0.9830    0.0140   -0.1740 N   0  0  0  0  0  0  0  0  0  0  0  0
   -1.8860    0.2760   -1.2090 C   0  0  0  0  0  0  0  0  0  0  0  0
   -2.3750   -0.6510   -2.0860 C   0  0  0  0  0  0  0  0  0  0  0  0
   -3.2750   -0.2450   -3.0800 C   0  0  0  0  0  0  0  0  0  0  0  0
   -3.6650    1.0650   -3.1770 C   0  0  0  0  0  0  0  0  0  0  0  0
   -4.7930    1.6590   -4.3840 S   0  0  1  0  0  0  0  0  0  0  0  0
   -5.8540    2.4280   -3.6660 O   0  0  0  0  0  0  0  0  0  0  0  0
   -4.0060    2.6210   -5.2550 O   0  0  0  0  0  0  0  0  0  0  0  0
   -3.1550    1.9670   -2.2830 C   0  0  0  0  0  0  0  0  0  0  0  0
   -2.3040    1.5620   -1.3500 N   0  0  0  0  0  0  0  0  0  0  0  0
   -1.4330   -0.4870    1.0990 C   0  0  2  0  0  0  0  0  0  0  0  0
   -2.6710   -1.2610    0.9830 C   0  0  0  0  0  0  0  0  0  0  0  0
   -2.8240   -2.5970    0.5950 C   0  0  0  0  0  0  0  0  0  0  0  0
   -4.0500   -3.2180    0.5360 C   0  0  0  0  0  0  0  0  0  0  0  0
   -5.1690   -2.4880    0.8750 C   0  0  0  0  0  0  0  0  0  0  0  0
   -5.0060   -1.1710    1.2560 C   0  0  0  0  0  0  0  0  0  0  0  0
   -3.7910   -0.5540    1.3160 C   0  0  0  0  0  0  0  0  0  0  0  0
   -3.3750    0.8050    1.7120 C   0  0  0  0  0  0  0  0  0  0  0  0
   -1.8890    0.6990    1.9870 C   0  0  1  0  0  0  0  0  0  0  0  0
   -1.6190    0.3080    3.3190 O   0  0  0  0  0  0  0  0  0  0  0  0
   -0.7820    1.0230    4.1420 C   0  0  0  0  0  0  0  0  0  0  0  0
   -0.2480    2.0610    3.6560 O   0  0  0  0  0  0  0  0  0  0  0  0
   -0.4810    0.7020    5.4480 O   0  0  0  0  0  0  0  0  0  0  0  0
    1.0600    1.3790    0.0910 N   0  0  0  0  0  0  0  0  0  0  0  0
    2.2880    1.3640   -0.3220 O   0  0  0  0  0  0  0  0  0  0  0  0
    5.7960   -0.1550   -0.4720 C   0  0  0  0  0  0  0  0  0  0  0  0
    6.8150   -0.3310   -1.2260 N   0  0  0  0  0  0  0  0  0  0  0  0
    5.9520    0.6400    0.7120 N   0  0  0  0  0  0  0  0  0  0  0  0
    7.5750    1.2580    1.0980 P   0  0  0  0  0  0  0  0  0  0  0  0
    8.3940    0.2630    2.2540 O   0  0  0  0  0  0  0  0  0  0  0  0
    7.5640    2.9180    1.5480 O   0  0  0  0  0  0  0  0  0  0  0  0
  1  2  1  0
  2  3  1  0
  2 32  1  0
  3  4  1  0
  4  5  2  0
  4 31  1  0
  5  6  1  0
  6  7  1  0
  6 30  2  0
  7  8  1  0
 17  7  1  6
  8  9  2  0
  8 16  1  0
  9 10  1  0
 10 11  2  0
 12 11  1  1
 11 15  1  0
 12 13  2  0
 12 14  2  0
 15 16  2  0
 17 18  1  0
 17 25  1  0
 18 19  2  0
 18 23  1  0
 19 20  1  0
 20 21  2  0
 21 22  1  0
 22 23  2  0
 23 24  1  0
 24 25  1  0
 25 26  1  1
 26 27  1  0
 27 28  2  0
 27 29  1  0
 30 31  1  0
 32 33  2  0
 32 34  1  0
 34 35  1  0
 35 36  1  0
 35 37  1  0
M  END
