
     RDKit          3D

 28 29  0  0  0  0  0  0  0  0999 V2000
   -3.2820   -3.7870   -0.4020 C   0  0  0  0  0  0  0  0  0  0  0  0
   -3.9790   -3.7090    0.7000 C   0  0  0  0  0  0  0  0  0  0  0  0
   -3.6910   -4.7960    2.0440 Cl  0  0  0  0  0  0  0  0  0  0  0  0
   -5.0350   -2.6430    0.7840 C   0  0  0  0  0  0  0  0  0  0  0  0
   -5.7170   -2.6070    1.8970 C   0  0  0  0  0  0  0  0  0  0  0  0
   -6.7790   -1.7680    2.3300 C   0  0  0  0  0  0  0  0  0  0  0  0
   -7.3770   -0.8580    1.6910 N   0  0  0  0  0  0  0  0  0  0  0  0
   -5.1820   -1.8380   -0.2580 O   0  0  0  0  0  0  0  0  0  0  0  0
   -4.7850   -0.5950   -0.5970 C   0  0  0  0  0  0  0  0  0  0  0  0
   -3.3220   -0.3290   -0.6270 C   0  0  0  0  0  0  0  0  0  0  0  0
   -2.5890   -0.4110    0.6660 C   0  0  0  0  0  0  0  0  0  0  0  0
   -1.2060   -0.1490    0.5360 O   0  0  0  0  0  0  0  0  0  0  0  0
   -0.6400    1.0220    0.0860 C   0  0  0  0  0  0  0  0  0  0  0  0
   -1.4030    1.9620   -0.2460 O   0  0  0  0  0  0  0  0  0  0  0  0
    0.8280    1.1800   -0.0090 C   0  0  0  0  0  0  0  0  0  0  0  0
    1.2840    2.3270   -0.4500 C   0  0  0  0  0  0  0  0  0  0  0  0
    2.7200    2.5320   -0.5620 C   0  0  0  0  0  0  0  0  0  0  0  0
    3.3740    3.6730   -1.0090 C   0  0  0  0  0  0  0  0  0  0  0  0
    4.7370    3.4390   -0.9530 C   0  0  0  0  0  0  0  0  0  0  0  0
    4.8520    2.1540   -0.4690 C   0  0  0  0  0  0  0  0  0  0  0  0
    6.1000    1.4440   -0.2300 C   0  0  0  0  0  0  0  0  0  0  0  0
    6.2270    0.1460    0.2590 C   0  0  0  0  0  0  0  0  0  0  0  0
    7.5760   -0.0900    0.3160 C   0  0  0  0  0  0  0  0  0  0  0  0
    8.2200    1.0290   -0.1240 C   0  0  0  0  0  0  0  0  0  0  0  0
    9.6740    1.2190   -0.2310 C   0  0  0  0  0  0  0  0  0  0  0  0
   10.4450    0.3020    0.0980 O   0  0  0  0  0  0  0  0  0  0  0  0
    7.2920    1.9030   -0.4330 O   0  0  0  0  0  0  0  0  0  0  0  0
    3.6410    1.6770   -0.2600 O   0  0  0  0  0  0  0  0  0  0  0  0
  1  2  2  0
  2  3  1  0
  2  4  1  0
  4  5  2  3
  4  8  1  0
  5  6  1  0
  6  7  2  0
  8  9  1  0
  9 10  1  0
 10 11  1  0
 11 12  1  0
 12 13  1  0
 13 14  2  0
 13 15  1  0
 15 16  2  3
 16 17  1  0
 17 18  2  0
 17 28  1  0
 18 19  1  0
 19 20  2  0
 20 21  1  0
 20 28  1  0
 21 22  2  0
 21 27  1  0
 22 23  1  0
 23 24  2  0
 24 25  1  0
 24 27  1  0
 25 26  2  0
M  CHG  1   7   1
M  END
