
     RDKit          3D

 28 29  0  0  0  0  0  0  0  0999 V2000
   -4.6270    1.4860   -0.6790 C   0  0  0  0  0  0  0  0  0  0  0  0
   -4.5090    0.0960   -0.0890 C   0  0  0  0  0  0  0  0  0  0  0  0
   -3.2270   -0.5790   -0.5100 C   0  0  2  0  0  0  0  0  0  0  0  0
   -3.1190   -1.9600    0.0840 C   0  0  0  0  0  0  0  0  0  0  0  0
   -4.2480   -2.8720   -0.3340 C   0  0  0  0  0  0  0  0  0  0  0  0
   -4.1060   -4.1940    0.2550 N   0  0  0  0  0  0  0  0  0  0  0  0
   -2.1080    0.1570   -0.0530 O   0  0  0  0  0  0  0  0  0  0  0  0
   -1.1480    0.6210   -0.9110 C   0  0  0  0  0  0  0  0  0  0  0  0
   -1.2990    0.3640   -2.1440 O   0  0  0  0  0  0  0  0  0  0  0  0
    0.0190    1.3760   -0.5340 C   0  0  0  0  0  0  0  0  0  0  0  0
    1.2500    0.8570   -0.1940 C   0  0  0  0  0  0  0  0  0  0  0  0
    1.6550   -0.5530   -0.1350 C   0  0  0  0  0  0  0  0  0  0  0  0
    0.8220   -1.4750   -0.4210 O   0  0  0  0  0  0  0  0  0  0  0  0
    2.9910   -0.9260    0.2420 C   0  0  0  0  0  0  0  0  0  0  0  0
    3.8240   -0.0290    0.5270 O   0  0  0  0  0  0  0  0  0  0  0  0
    3.3930   -2.2410    0.3040 O   0  0  0  0  0  0  0  0  0  0  0  0
    4.7080   -2.6080    0.6760 C   0  0  1  0  0  0  0  0  0  0  0  0
    4.6940   -3.4450    1.9300 C   0  0  0  0  0  0  0  0  0  0  0  0
    5.3810   -3.3610   -0.4610 C   0  0  0  0  0  0  0  0  0  0  0  0
    2.0330    1.8690    0.0810 O   0  0  0  0  0  0  0  0  0  0  0  0
    1.4050    3.0050   -0.0550 C   0  0  0  0  0  0  0  0  0  0  0  0
    1.8140    4.3220    0.1230 C   0  0  0  0  0  0  0  0  0  0  0  0
    3.2210    4.5710    0.5480 C   0  0  0  0  0  0  0  0  0  0  0  0
    0.9270    5.3380   -0.0950 C   0  0  0  0  0  0  0  0  0  0  0  0
    1.4520    6.9860    0.1310 Cl  0  0  0  0  0  0  0  0  0  0  0  0
   -0.3920    5.1220   -0.4930 C   0  0  0  0  0  0  0  0  0  0  0  0
   -0.7590    3.8030   -0.6590 C   0  0  0  0  0  0  0  0  0  0  0  0
    0.1080    2.7460   -0.4490 C   0  0  0  0  0  0  0  0  0  0  0  0
  1  2  1  0
  3  2  1  1
  3  4  1  0
  3  7  1  0
  4  5  1  0
  5  6  1  0
  7  8  1  0
  8  9  2  0
  8 10  1  0
 10 11  2  0
 10 28  1  0
 11 12  1  0
 11 20  1  0
 12 13  2  0
 12 14  1  0
 14 15  2  0
 14 16  1  0
 16 17  1  0
 17 18  1  1
 17 19  1  0
 20 21  1  0
 21 22  2  0
 21 28  1  0
 22 23  1  0
 22 24  1  0
 24 25  1  0
 24 26  2  0
 26 27  1  0
 27 28  2  0
M  CHG  1   6   1
M  END
