
     RDKit          3D

 28 29  0  0  0  0  0  0  0  0999 V2000
   -0.9450   -5.4670   -1.1060 C   0  0  0  0  0  0  0  0  0  0  0  0
   -0.2140   -5.0720    0.1620 C   0  0  0  0  0  0  0  0  0  0  0  0
    0.2290   -3.7470    0.1340 O   0  0  0  0  0  0  0  0  0  0  0  0
   -0.6560   -2.6510   -0.0050 C   0  0  0  0  0  0  0  0  0  0  0  0
   -1.8560   -3.0020   -0.1000 O   0  0  0  0  0  0  0  0  0  0  0  0
   -0.1860   -1.3050   -0.0310 C   0  0  0  0  0  0  0  0  0  0  0  0
   -0.8770   -0.2000   -0.1530 C   0  0  0  0  0  0  0  0  0  0  0  0
   -2.2970   -0.0780   -0.2930 C   0  0  0  0  0  0  0  0  0  0  0  0
   -3.0780   -1.0400   -0.3160 O   0  0  0  0  0  0  0  0  0  0  0  0
   -2.8950    1.2080   -0.4150 O   0  0  0  0  0  0  0  0  0  0  0  0
   -4.2850    1.2970   -0.5500 C   0  0  0  0  0  0  0  0  0  0  0  0
   -4.7910    2.6920   -0.6700 C   0  0  1  0  0  0  0  0  0  0  0  0
   -6.3160    2.6100   -0.8090 C   0  0  0  0  0  0  0  0  0  0  0  0
   -6.7210    2.2210    0.5950 C   0  0  0  0  0  0  0  0  0  0  0  0
   -5.6840    2.8140    1.5020 C   0  0  0  0  0  0  0  0  0  0  0  0
   -4.6630    3.4840    0.6100 C   0  0  0  0  0  0  0  0  0  0  0  0
    1.2070   -1.1070    0.0890 O   0  0  0  0  0  0  0  0  0  0  0  0
    2.0980   -2.1530    0.1960 C   0  0  0  0  0  0  0  0  0  0  0  0
    3.4730   -1.5270    0.3010 C   0  0  0  0  0  0  0  0  0  0  0  0
    4.6240   -2.2680    0.4230 C   0  0  0  0  0  0  0  0  0  0  0  0
    5.6820   -1.3910    0.4930 C   0  0  0  0  0  0  0  0  0  0  0  0
    5.1130   -0.1440    0.4080 C   0  0  0  0  0  0  0  0  0  0  0  0
    5.8050    1.1370    0.4340 C   0  0  0  0  0  0  0  0  0  0  0  0
    5.1560    2.2810    0.3450 C   0  0  0  0  0  0  0  0  0  0  0  0
    5.8370    3.5090    0.3710 N   0  0  0  0  0  0  0  0  0  0  0  0
    7.2960    1.1520    0.5650 C   0  0  0  0  0  0  0  0  0  0  0  0
    8.0000    0.2740   -0.8160 Cl  0  0  0  0  0  0  0  0  0  0  0  0
    3.7980   -0.2810    0.2950 O   0  0  0  0  0  0  0  0  0  0  0  0
  1  2  1  0
  2  3  1  0
  3  4  1  0
  4  5  2  0
  4  6  1  0
  6  7  2  3
  6 17  1  0
  7  8  1  0
  8  9  2  0
  8 10  1  0
 10 11  1  0
 12 11  1  1
 12 13  1  0
 12 16  1  0
 13 14  1  0
 14 15  1  0
 15 16  1  0
 17 18  1  0
 18 19  1  0
 19 20  2  0
 19 28  1  0
 20 21  1  0
 21 22  2  0
 22 23  1  0
 22 28  1  0
 23 24  2  3
 23 26  1  0
 24 25  1  0
 26 27  1  0
M  CHG  1  25   1
M  END
