
     RDKit          3D

 21 24  0  0  0  0  0  0  0  0999 V2000
    3.8300    0.9460   -1.1080 C   0  0  0  0  0  0  0  0  0  0  0  0
    3.9090   -0.1650   -0.1070 C   0  0  1  0  0  0  0  0  0  0  0  0
    2.7830   -0.2620    0.9240 C   0  0  0  0  0  0  0  0  0  0  0  0
    1.5520   -0.4460    0.1760 N   0  0  0  0  0  0  0  0  0  0  0  0
    0.3910   -0.2710    1.0610 C   0  0  1  0  0  0  0  0  0  0  0  0
    0.3930    1.0850    1.6790 C   0  0  0  0  0  0  0  0  0  0  0  0
   -0.9940    1.6750    1.7880 C   0  0  0  0  0  0  0  0  0  0  0  0
   -1.7210    1.7160    0.4890 C   0  0  0  0  0  0  0  0  0  0  0  0
   -1.5240    0.5080   -0.3760 C   0  0  2  0  0  0  0  0  0  0  0  0
   -0.8210    0.8860   -1.6620 C   0  0  0  0  0  0  0  0  0  0  0  0
   -2.8680   -0.0730   -0.6420 C   0  0  0  0  0  0  0  0  0  0  0  0
   -3.8110    0.1580   -1.5280 C   0  0  0  0  0  0  0  0  0  0  0  0
   -5.0680   -0.6150   -1.5250 C   0  0  0  0  0  0  0  0  0  0  0  0
   -5.1730   -1.5830   -0.5270 O   0  0  0  0  0  0  0  0  0  0  0  0
   -4.1670   -1.7940    0.3800 C   0  0  0  0  0  0  0  0  0  0  0  0
   -4.3040   -2.7860    1.3790 O   0  0  0  0  0  0  0  0  0  0  0  0
   -3.0400   -1.1030    0.3750 C   0  0  0  0  0  0  0  0  0  0  0  0
   -1.8830   -1.1330    1.1840 O   0  0  0  0  0  0  0  0  0  0  0  0
   -0.8440   -0.6350    0.3250 C   0  0  2  0  0  0  0  0  0  0  0  0
    4.3850   -1.5210   -0.6140 C   0  0  0  0  0  0  0  0  0  0  0  0
    5.2180   -0.6840    0.3370 C   0  0  0  0  0  0  0  0  0  0  0  0
  2  1  1  6
  2  3  1  0
  2 20  1  0
  2 21  1  0
  3  4  1  0
  5  4  1  6
  5  6  1  0
  5 19  1  0
  6  7  1  0
  7  8  1  0
  8  9  1  0
  9 10  1  6
  9 11  1  0
  9 19  1  0
 11 12  2  0
 11 17  1  0
 12 13  1  0
 13 14  1  0
 14 15  1  0
 15 16  1  0
 15 17  2  0
 17 18  1  0
 19 18  1  1
 20 21  1  0
M  CHG  1   4   1
M  END
