
     RDKit          3D

 20 22  0  0  0  0  0  0  0  0999 V2000
   -2.3920   -3.1620   -1.3460 C   0  0  0  0  0  0  0  0  0  0  0  0
   -2.2580   -2.0820   -0.2940 C   0  0  1  0  0  0  0  0  0  0  0  0
   -2.2810   -2.7640    1.0550 C   0  0  0  0  0  0  0  0  0  0  0  0
   -1.5070   -1.9430    2.0580 C   0  0  0  0  0  0  0  0  0  0  0  0
   -1.5260   -0.4630    1.7280 C   0  0  0  0  0  0  0  0  0  0  0  0
   -0.7670   -0.2000    0.4160 C   0  0  2  0  0  0  0  0  0  0  0  0
    0.6660   -0.0990    0.7880 C   0  0  2  0  0  0  0  0  0  0  0  0
    0.9720    0.9740    1.6240 O   0  0  0  0  0  0  0  0  0  0  0  0
    1.6550   -0.3090   -0.3150 C   0  0  0  0  0  0  0  0  0  0  0  0
    3.0780   -0.1700    0.2570 C   0  0  1  0  0  0  0  0  0  0  0  0
    4.0330   -0.3890   -0.8870 C   0  0  0  0  0  0  0  0  0  0  0  0
    4.8450    0.9080   -0.8640 C   0  0  0  0  0  0  0  0  0  0  0  0
    3.7860    1.8730   -0.3190 C   0  0  0  0  0  0  0  0  0  0  0  0
    3.2090    1.1320    0.6790 O   0  0  0  0  0  0  0  0  0  0  0  0
   -1.3820    0.8750   -0.2520 N   0  0  1  0  0  0  0  0  0  0  0  0
   -2.1690    1.7380    0.6150 C   0  0  0  0  0  0  0  0  0  0  0  0
   -2.1110    3.1360    0.0220 C   0  0  0  0  0  0  0  0  0  0  0  0
   -1.6120    2.8540   -1.3810 C   0  0  0  0  0  0  0  0  0  0  0  0
   -0.5920    1.7430   -1.0500 C   0  0  0  0  0  0  0  0  0  0  0  0
   -0.8830   -1.4670   -0.4530 C   0  0  0  0  0  0  0  0  0  0  0  0
  2  1  1  6
  2  3  1  0
  2 20  1  0
  3  4  1  0
  4  5  1  0
  6  5  1  1
  6  7  1  0
  6 15  1  0
  6 20  1  0
  7  8  1  6
  7  9  1  0
 10  9  1  6
 10 11  1  0
 10 14  1  0
 11 12  1  0
 12 13  1  0
 13 14  1  0
 15 16  1  1
 15 19  1  0
 16 17  1  0
 17 18  1  0
 18 19  1  0
M  CHG  1  15   1
M  END
