
     RDKit          3D

 21 23  0  0  0  0  0  0  0  0999 V2000
   -4.3890    0.1720   -1.3970 C   0  0  0  0  0  0  0  0  0  0  0  0
   -4.1980    0.0390    0.0140 N   0  0  2  0  0  0  0  0  0  0  0  0
   -3.4750    1.1600    0.5960 C   0  0  1  0  0  0  0  0  0  0  0  0
   -3.2610    0.6570    2.0180 C   0  0  0  0  0  0  0  0  0  0  0  0
   -3.2610   -0.8440    1.9120 C   0  0  0  0  0  0  0  0  0  0  0  0
   -3.3880   -1.0770    0.4010 C   0  0  2  0  0  0  0  0  0  0  0  0
   -2.0050   -1.0440   -0.1640 C   0  0  0  0  0  0  0  0  0  0  0  0
   -1.2420    0.2130    0.1950 C   0  0  1  0  0  0  0  0  0  0  0  0
   -0.0820    0.2410   -0.6210 O   0  0  0  0  0  0  0  0  0  0  0  0
    1.1980    0.1960   -0.1070 C   0  0  0  0  0  0  0  0  0  0  0  0
    1.3870    0.1270    1.1150 O   0  0  0  0  0  0  0  0  0  0  0  0
    2.4060    0.2280   -1.0050 C   0  0  2  0  0  0  0  0  0  0  0  0
    2.2590   -0.9510   -1.9410 C   0  0  0  0  0  0  0  0  0  0  0  0
    3.2940   -1.0670   -2.8390 O   0  0  0  0  0  0  0  0  0  0  0  0
    3.6450    0.1690   -0.2270 C   0  0  0  0  0  0  0  0  0  0  0  0
    4.5630    1.1860   -0.3380 C   0  0  0  0  0  0  0  0  0  0  0  0
    5.7470    1.1940    0.3640 C   0  0  0  0  0  0  0  0  0  0  0  0
    6.0070    0.1280    1.2110 C   0  0  0  0  0  0  0  0  0  0  0  0
    5.1150   -0.8960    1.3420 C   0  0  0  0  0  0  0  0  0  0  0  0
    3.9310   -0.8960    0.6350 C   0  0  0  0  0  0  0  0  0  0  0  0
   -2.1530    1.3880   -0.1040 C   0  0  0  0  0  0  0  0  0  0  0  0
  2  1  1  6
  2  3  1  0
  2  6  1  0
  3  4  1  1
  3 21  1  0
  4  5  1  0
  6  5  1  1
  6  7  1  0
  7  8  1  0
  8  9  1  6
  8 21  1  0
  9 10  1  0
 10 11  2  0
 10 12  1  0
 12 13  1  6
 12 15  1  0
 13 14  1  0
 15 16  2  0
 15 20  1  0
 16 17  1  0
 17 18  2  0
 18 19  1  0
 19 20  2  0
M  CHG  1   2   1
M  END
