
     RDKit          3D

 21 22  0  0  0  0  0  0  0  0999 V2000
    4.9390    1.8010    0.4020 C   0  0  0  0  0  0  0  0  0  0  0  0
    4.3090    0.7500   -0.0420 C   0  0  0  0  0  0  0  0  0  0  0  0
    3.3720    0.8520   -1.2120 C   0  0  0  0  0  0  0  0  0  0  0  0
    3.2440   -0.4070   -1.7340 O   0  0  0  0  0  0  0  0  0  0  0  0
    2.6640   -1.3330   -0.9090 C   0  0  2  0  0  0  0  0  0  0  0  0
    1.1930   -1.0240   -0.6830 C   0  0  0  0  0  0  0  0  0  0  0  0
    0.5350   -1.0550   -2.0510 C   0  0  0  0  0  0  0  0  0  0  0  0
   -0.8910   -0.7620   -1.8970 C   0  0  0  0  0  0  0  0  0  0  0  0
   -1.6340   -0.7350   -2.9010 O   0  0  0  0  0  0  0  0  0  0  0  0
   -1.4320   -0.5170   -0.6690 O   0  0  0  0  0  0  0  0  0  0  0  0
   -2.7720   -0.2330   -0.4460 C   0  0  1  0  0  0  0  0  0  0  0  0
   -3.4800   -1.2210    0.4410 C   0  0  0  0  0  0  0  0  0  0  0  0
   -4.8790   -0.7790    0.5360 N   0  0  0  0  0  0  0  0  0  0  0  0
   -5.0060    0.3930    1.3800 C   0  0  0  0  0  0  0  0  0  0  0  0
   -3.8360    1.2930    1.2520 C   0  0  0  0  0  0  0  0  0  0  0  0
   -3.6550    2.2340    2.1340 C   0  0  0  0  0  0  0  0  0  0  0  0
   -2.8840    1.1300    0.1400 C   0  0  0  0  0  0  0  0  0  0  0  0
   -2.1700    2.1490   -0.3090 C   0  0  0  0  0  0  0  0  0  0  0  0
    3.4040   -1.5550    0.3880 C   0  0  0  0  0  0  0  0  0  0  0  0
    4.4900   -0.5570    0.5790 C   0  0  0  0  0  0  0  0  0  0  0  0
    5.5770   -0.8340    1.2810 C   0  0  0  0  0  0  0  0  0  0  0  0
  1  2  2  0
  2  3  1  0
  2 20  1  0
  3  4  1  0
  4  5  1  0
  5  6  1  1
  5 19  1  0
  6  7  1  0
  7  8  1  0
  8  9  2  0
  8 10  1  0
 11 10  1  1
 11 12  1  0
 11 17  1  0
 12 13  1  0
 13 14  1  0
 14 15  1  0
 15 16  2  0
 15 17  1  0
 17 18  2  0
 19 20  1  0
 20 21  2  0
M  CHG  1  13   1
M  END
