
     RDKit          3D

 21 22  0  0  0  0  0  0  0  0999 V2000
   -3.4530    3.7990   -0.1620 C   0  0  0  0  0  0  0  0  0  0  0  0
   -3.0100    2.4240    0.2990 C   0  0  0  0  0  0  0  0  0  0  0  0
   -1.6180    2.2250   -0.1800 C   0  0  0  0  0  0  0  0  0  0  0  0
   -1.0020    0.8970    0.1880 C   0  0  1  0  0  0  0  0  0  0  0  0
    0.2540    0.9690   -0.3630 O   0  0  0  0  0  0  0  0  0  0  0  0
    1.0750   -0.0920   -0.2050 C   0  0  1  0  0  0  0  0  0  0  0  0
    1.3970   -0.6240   -1.5920 C   0  0  0  0  0  0  0  0  0  0  0  0
    2.7510   -0.1400   -2.0780 C   0  0  0  0  0  0  0  0  0  0  0  0
    3.8030   -0.7630   -1.2100 C   0  0  0  0  0  0  0  0  0  0  0  0
    3.4970   -0.6000    0.2360 C   0  0  2  0  0  0  0  0  0  0  0  0
    4.7000   -0.0310    0.9710 C   0  0  0  0  0  0  0  0  0  0  0  0
    3.1240   -1.8870    0.9330 C   0  0  0  0  0  0  0  0  0  0  0  0
    2.3570    0.3790    0.4650 C   0  0  1  0  0  0  0  0  0  0  0  0
    2.7390    1.6390    0.0650 O   0  0  0  0  0  0  0  0  0  0  0  0
   -1.0600    0.5830    1.6290 C   0  0  0  0  0  0  0  0  0  0  0  0
   -1.7660   -0.7350    1.7700 C   0  0  0  0  0  0  0  0  0  0  0  0
   -1.7070   -1.4970    2.7100 O   0  0  0  0  0  0  0  0  0  0  0  0
   -2.5100   -0.8960    0.5760 N   0  0  2  0  0  0  0  0  0  0  0  0
   -2.6280   -2.3350    0.3440 C   0  0  0  0  0  0  0  0  0  0  0  0
   -4.0570   -2.7500    0.1030 C   0  0  0  0  0  0  0  0  0  0  0  0
   -1.7390   -0.2590   -0.4720 C   0  0  0  0  0  0  0  0  0  0  0  0
  1  2  1  0
  2  3  1  0
  4  3  1  1
  4  5  1  0
  4 15  1  0
  4 21  1  0
  6  5  1  6
  6  7  1  0
  6 13  1  0
  7  8  1  0
  8  9  1  0
  9 10  1  0
 10 11  1  1
 10 12  1  0
 10 13  1  0
 13 14  1  6
 15 16  1  0
 16 17  2  0
 16 18  1  0
 18 19  1  6
 18 21  1  0
 19 20  1  0
M  CHG  1  18   1
M  END
