
     RDKit          3D

 21 23  0  0  0  0  0  0  0  0999 V2000
   -6.0370    0.9130    0.7710 C   0  0  0  0  0  0  0  0  0  0  0  0
   -4.9620    0.5670   -0.2260 C   0  0  1  0  0  0  0  0  0  0  0  0
   -3.6010    0.8240    0.4250 C   0  0  0  0  0  0  0  0  0  0  0  0
   -2.6060    0.6110   -0.5800 N   0  0  1  0  0  0  0  0  0  0  0  0
   -1.3790    0.0390   -0.0830 C   0  0  2  0  0  0  0  0  0  0  0  0
   -1.5770   -0.7880    1.1610 C   0  0  0  0  0  0  0  0  0  0  0  0
   -0.3270    1.0930    0.1870 C   0  0  0  0  0  0  0  0  0  0  0  0
    0.8900    0.3700    0.6960 C   0  0  0  0  0  0  0  0  0  0  0  0
    1.1670    0.0880    2.0340 C   0  0  0  0  0  0  0  0  0  0  0  0
    2.3680   -0.5760    2.0280 C   0  0  0  0  0  0  0  0  0  0  0  0
    2.7660   -0.6700    0.7250 C   0  0  0  0  0  0  0  0  0  0  0  0
    4.0050   -1.3010    0.1690 C   0  0  1  0  0  0  0  0  0  0  0  0
    4.1540   -1.0290   -1.2860 C   0  0  0  0  0  0  0  0  0  0  0  0
    4.5250    0.3940   -1.6020 C   0  0  0  0  0  0  0  0  0  0  0  0
    5.3130    1.0140   -0.4560 C   0  0  0  0  0  0  0  0  0  0  0  0
    6.0030   -0.1320    0.2560 C   0  0  0  0  0  0  0  0  0  0  0  0
    5.1030   -0.9240    0.9280 O   0  0  0  0  0  0  0  0  0  0  0  0
    1.8650   -0.1010   -0.0070 O   0  0  0  0  0  0  0  0  0  0  0  0
   -3.0910   -0.1280   -1.7200 C   0  0  0  0  0  0  0  0  0  0  0  0
   -4.0640   -1.2070   -1.3540 C   0  0  0  0  0  0  0  0  0  0  0  0
   -5.0930   -0.7920   -0.5410 O   0  0  0  0  0  0  0  0  0  0  0  0
  2  1  1  1
  2  3  1  0
  2 21  1  0
  4  3  1  1
  4  5  1  0
  4 19  1  0
  5  6  1  1
  5  7  1  0
  7  8  1  0
  8  9  2  0
  8 18  1  0
  9 10  1  0
 10 11  2  0
 12 11  1  1
 11 18  1  0
 12 13  1  0
 12 17  1  0
 13 14  1  0
 14 15  1  0
 15 16  1  0
 16 17  1  0
 19 20  1  0
 20 21  1  0
M  CHG  1   4   1
M  END
