
     RDKit          3D

 21 22  0  0  0  0  0  0  0  0999 V2000
    6.8130    0.0230    0.9770 C   0  0  0  0  0  0  0  0  0  0  0  0
    5.6350    0.9430    0.8210 C   0  0  0  0  0  0  0  0  0  0  0  0
    4.3070    0.2200    0.9760 C   0  0  2  0  0  0  0  0  0  0  0  0
    4.1470   -0.8680   -0.0500 C   0  0  0  0  0  0  0  0  0  0  0  0
    2.6170   -0.9340   -0.1550 C   0  0  0  0  0  0  0  0  0  0  0  0
    2.2360    0.4720    0.1630 C   0  0  1  0  0  0  0  0  0  0  0  0
    1.0710    0.5500    1.1260 C   0  0  0  0  0  0  0  0  0  0  0  0
   -0.1040   -0.1410    0.5640 N   0  0  0  0  0  0  0  0  0  0  0  0
   -0.7100    0.6090   -0.4790 C   0  0  2  0  0  0  0  0  0  0  0  0
   -1.9860    1.2680   -0.0160 C   0  0  0  0  0  0  0  0  0  0  0  0
   -3.2690    0.9010   -0.0900 C   0  0  0  0  0  0  0  0  0  0  0  0
   -4.1770    1.7720    0.4510 O   0  0  0  0  0  0  0  0  0  0  0  0
   -4.4600    3.0170   -0.1880 C   0  0  0  0  0  0  0  0  0  0  0  0
   -3.9170   -0.2970   -0.6590 C   0  0  0  0  0  0  0  0  0  0  0  0
   -5.2690   -0.1240   -0.9210 O   0  0  0  0  0  0  0  0  0  0  0  0
   -6.1940   -0.8470   -0.1290 C   0  0  0  0  0  0  0  0  0  0  0  0
   -3.4290   -1.5000   -0.9590 C   0  0  0  0  0  0  0  0  0  0  0  0
   -2.1300   -2.1690   -0.8820 C   0  0  0  0  0  0  0  0  0  0  0  0
   -1.0570   -1.5710   -1.7150 C   0  0  0  0  0  0  0  0  0  0  0  0
   -0.9960   -0.0890   -1.7430 C   0  0  0  0  0  0  0  0  0  0  0  0
    3.3090    1.1180    0.7050 O   0  0  0  0  0  0  0  0  0  0  0  0
  1  2  1  0
  3  2  1  6
  3  4  1  0
  3 21  1  0
  4  5  1  0
  5  6  1  0
  6  7  1  1
  6 21  1  0
  7  8  1  0
  9  8  1  1
  9 10  1  0
  9 20  1  0
 10 11  2  0
 11 12  1  0
 11 14  1  0
 12 13  1  0
 14 15  1  0
 14 17  2  0
 15 16  1  0
 17 18  1  0
 18 19  1  0
 19 20  1  0
M  CHG  1   8   1
M  END
