
     RDKit          3D

 39 39  0  0  0  0  0  0  0  0999 V2000
    3.2880    6.8800    0.6470 C   0  0  0  0  0  0  0  0  0  0  0  0
    3.4720    5.6290    0.4620 O   0  0  0  0  0  0  0  0  0  0  0  0
    3.1240    4.3900    0.1390 C   0  0  0  0  0  0  0  0  0  0  0  0
    1.8850    4.2690   -0.2040 O   0  0  0  0  0  0  0  0  0  0  0  0
    3.9140    3.2080    0.1200 N   0  0  0  0  0  0  0  0  0  0  0  0
    3.3760    1.9060   -0.2180 C   0  0  0  0  0  0  0  0  0  0  0  0
    2.1320    1.9660   -0.4500 O   0  0  0  0  0  0  0  0  0  0  0  0
    4.1910    0.7190   -0.2720 C   0  0  0  0  0  0  0  0  0  0  0  0
    5.4920    0.8850    0.0370 C   0  0  0  0  0  0  0  0  0  0  0  0
    6.3120   -0.2480   -0.0040 O   0  0  0  0  0  0  0  0  0  0  0  0
    3.7490   -0.5820   -0.6670 C   0  0  0  0  0  0  0  0  0  0  0  0
    2.5740   -1.0330   -1.0040 C   0  0  0  0  0  0  0  0  0  0  0  0
    1.3530   -0.4760   -1.1090 C   0  0  0  0  0  0  0  0  0  0  0  0
    1.0240   -1.6490   -2.6020 C   0  0  0  0  0  0  0  0  0  0  0  0
    0.2100   -0.0770   -1.2400 C   0  0  0  0  0  0  0  0  0  0  0  0
   -1.0610    0.4970   -1.3550 C   0  0  0  0  0  0  0  0  0  0  0  0
   -1.0850    1.7870   -1.0370 O   0  0  0  0  0  0  0  0  0  0  0  0
   -2.2790   -0.0590   -1.7390 N   0  0  0  0  0  0  0  0  0  0  0  0
   -3.6010    0.4090   -1.8540 C   0  0  0  0  0  0  0  0  0  0  0  0
   -4.3650    0.8070   -0.6440 C   0  0  2  0  0  0  0  0  0  0  0  0
   -5.7950    1.1550   -0.9650 C   0  0  0  0  0  0  0  0  0  0  0  0
   -6.7180    0.2210   -1.5520 C   0  0  2  0  0  0  0  0  0  0  0  0
   -7.0310   -1.0580   -0.8030 C   0  0  0  0  0  0  0  0  0  0  0  0
   -6.5830   -0.1530   -2.9930 C   0  0  0  0  0  0  0  0  0  0  0  0
   -3.8360    2.1260   -0.0830 C   0  0  0  0  0  0  0  0  0  0  0  0
   -3.2050    2.0080    1.2610 C   0  0  0  0  0  0  0  0  0  0  0  0
   -4.2360    1.4750    2.2490 C   0  0  2  0  0  0  0  0  0  0  0  0
   -3.6680    1.4690    3.6310 C   0  0  0  0  0  0  0  0  0  0  0  0
   -4.6300    0.9730    4.5110 O   0  0  0  0  0  0  0  0  0  0  0  0
   -4.6140    0.1110    1.7890 C   0  0  0  0  0  0  0  0  0  0  0  0
   -4.1500   -0.2130    0.4050 C   0  0  0  0  0  0  0  0  0  0  0  0
    4.8170   -1.5840   -0.6980 O   0  0  0  0  0  0  0  0  0  0  0  0
    4.7140   -2.5990    0.2390 C   0  0  0  0  0  0  0  0  0  0  0  0
    5.8700   -3.5500    0.1340 C   0  0  0  0  0  0  0  0  0  0  0  0
    6.8180   -3.2380   -0.6190 O   0  0  0  0  0  0  0  0  0  0  0  0
    5.9440   -4.7810    0.8420 N   0  0  0  0  0  0  0  0  0  0  0  0
    7.0810   -5.6720    0.7210 C   0  0  0  0  0  0  0  0  0  0  0  0
    8.3480   -4.9660    1.2200 C   0  0  0  0  0  0  0  0  0  0  0  0
    8.1940   -4.6050    2.5620 O   0  0  0  0  0  0  0  0  0  0  0  0
  1  2  1  0
  2  3  1  0
  3  4  2  0
  3  5  1  0
  5  6  1  0
  6  7  2  0
  6  8  1  0
  8  9  2  3
  8 11  1  0
  9 10  1  0
 11 12  2  3
 11 32  1  0
 12 13  1  0
 13 14  1  0
 13 15  2  3
 15 16  1  0
 16 17  2  0
 16 18  1  0
 18 19  1  0
 20 19  1  6
 20 21  1  0
 20 25  1  0
 20 31  1  0
 21 22  1  0
 22 23  1  1
 22 24  1  0
 25 26  1  0
 26 27  1  0
 27 28  1  1
 27 30  1  0
 28 29  1  0
 30 31  1  0
 32 33  1  0
 33 34  1  0
 34 35  2  0
 34 36  1  0
 36 37  1  0
 37 38  1  0
 38 39  1  0
M  END
