
     RDKit          3D

 39 40  0  0  0  0  0  0  0  0999 V2000
   -5.8160    1.8590    2.4920 C   0  0  0  0  0  0  0  0  0  0  0  0
   -4.9990    1.3520    1.3230 C   0  0  0  0  0  0  0  0  0  0  0  0
   -5.4620   -0.0460    0.8800 C   0  0  2  0  0  0  0  0  0  0  0  0
   -4.6400   -0.4380   -0.2090 O   0  0  0  0  0  0  0  0  0  0  0  0
   -3.3630   -0.8810   -0.0020 C   0  0  0  0  0  0  0  0  0  0  0  0
   -2.3160    0.0600   -0.1750 C   0  0  0  0  0  0  0  0  0  0  0  0
   -2.6590    1.2940   -0.5440 O   0  0  0  0  0  0  0  0  0  0  0  0
   -2.1310    2.4960   -0.8720 C   0  0  0  0  0  0  0  0  0  0  0  0
   -1.3070    2.6580   -2.0960 C   0  0  0  0  0  0  0  0  0  0  0  0
   -0.1330    1.9030   -2.2640 N   0  0  0  0  0  0  0  0  0  0  0  0
   -0.0370    0.7030   -2.9090 C   0  0  0  0  0  0  0  0  0  0  0  0
   -1.2020    0.0160   -3.5400 C   0  0  0  0  0  0  0  0  0  0  0  0
    1.2750    0.2810   -2.8620 C   0  0  0  0  0  0  0  0  0  0  0  0
    1.9930    1.2330   -2.1790 C   0  0  0  0  0  0  0  0  0  0  0  0
    3.4390    1.1400   -1.9190 C   0  0  0  0  0  0  0  0  0  0  0  0
    4.0520    2.0350   -1.2820 O   0  0  0  0  0  0  0  0  0  0  0  0
    4.1860    0.0590   -2.3650 O   0  0  0  0  0  0  0  0  0  0  0  0
    5.5700   -0.0860   -2.1450 C   0  0  0  0  0  0  0  0  0  0  0  0
    5.8850   -0.1210   -0.6730 C   0  0  0  0  0  0  0  0  0  0  0  0
    4.9170   -0.0230    0.1160 O   0  0  0  0  0  0  0  0  0  0  0  0
    7.2030   -0.2590   -0.2100 N   0  0  0  0  0  0  0  0  0  0  0  0
    7.5940   -0.3120    1.1620 C   0  0  0  0  0  0  0  0  0  0  0  0
    7.0580   -1.4690    1.9550 C   0  0  1  0  0  0  0  0  0  0  0  0
    7.4700   -2.7810    1.2650 C   0  0  0  0  0  0  0  0  0  0  0  0
    7.7000   -1.5230    3.3290 C   0  0  0  0  0  0  0  0  0  0  0  0
    5.6950   -1.4790    2.0050 O   0  0  0  0  0  0  0  0  0  0  0  0
    1.1200    2.2180   -1.8210 C   0  0  0  0  0  0  0  0  0  0  0  0
    1.4720    3.4610   -1.0560 C   0  0  0  0  0  0  0  0  0  0  0  0
   -1.0340   -0.3860    0.0460 C   0  0  0  0  0  0  0  0  0  0  0  0
   -0.7040   -1.6720    0.4170 C   0  0  0  0  0  0  0  0  0  0  0  0
    0.6260   -2.0600    0.6260 O   0  0  0  0  0  0  0  0  0  0  0  0
   -1.7420   -2.5490    0.5710 C   0  0  0  0  0  0  0  0  0  0  0  0
   -3.0870   -2.1780    0.3670 C   0  0  0  0  0  0  0  0  0  0  0  0
   -4.1120   -3.2010    0.5420 C   0  0  0  0  0  0  0  0  0  0  0  0
   -5.4790   -3.0220    0.3150 N   0  0  0  0  0  0  0  0  0  0  0  0
   -3.7630   -4.3670    0.9320 O   0  0  0  0  0  0  0  0  0  0  0  0
   -6.8730   -0.0250    0.4270 C   0  0  1  0  0  0  0  0  0  0  0  0
   -7.9340    0.0970    1.4490 C   0  0  0  0  0  0  0  0  0  0  0  0
   -7.0440    0.9510   -0.5670 O   0  0  0  0  0  0  0  0  0  0  0  0
  1  2  1  0
  3  2  1  6
  3  4  1  0
  3 37  1  0
  4  5  1  0
  5  6  2  0
  5 33  1  0
  6  7  1  0
  6 29  1  0
  7  8  1  0
  8  9  1  0
  9 10  1  0
 10 11  1  0
 10 27  1  0
 11 12  1  0
 11 13  2  0
 13 14  1  0
 14 15  1  0
 14 27  2  0
 15 16  2  0
 15 17  1  0
 17 18  1  0
 18 19  1  0
 19 20  2  0
 19 21  1  0
 21 22  1  0
 22 23  1  0
 23 24  1  6
 23 25  1  0
 23 26  1  0
 27 28  1  0
 29 30  2  0
 30 31  1  0
 30 32  1  0
 32 33  2  0
 33 34  1  0
 34 35  1  0
 34 36  2  0
 37 38  1  1
 37 39  1  0
M  END
