
     RDKit          3D

 39 40  0  0  0  0  0  0  0  0999 V2000
    7.6600   -2.6200   -2.0430 C   0  0  0  0  0  0  0  0  0  0  0  0
    7.3090   -2.4530   -0.5850 C   0  0  0  0  0  0  0  0  0  0  0  0
    7.4050   -0.9710   -0.2730 C   0  0  1  0  0  0  0  0  0  0  0  0
    7.0450   -0.7980    1.1870 C   0  0  0  0  0  0  0  0  0  0  0  0
    8.8570   -0.5760   -0.4400 C   0  0  0  0  0  0  0  0  0  0  0  0
    6.5860   -0.2040   -1.1440 N   0  0  0  0  0  0  0  0  0  0  0  0
    5.1550   -0.3400   -1.2510 C   0  0  0  0  0  0  0  0  0  0  0  0
    4.5750   -1.1860   -0.5450 O   0  0  0  0  0  0  0  0  0  0  0  0
    4.4170    0.4600   -2.1190 N   0  0  0  0  0  0  0  0  0  0  0  0
    3.0060    0.5210   -2.3340 C   0  0  0  0  0  0  0  0  0  0  0  0
    2.3090    0.8720   -1.0750 C   0  0  0  0  0  0  0  0  0  0  0  0
    1.3280    0.1230   -0.4790 C   0  0  0  0  0  0  0  0  0  0  0  0
    0.6230    0.5330    0.6660 C   0  0  0  0  0  0  0  0  0  0  0  0
   -0.2820   -0.1900    1.1870 O   0  0  0  0  0  0  0  0  0  0  0  0
   -1.1680   -1.1050    1.5440 C   0  0  0  0  0  0  0  0  0  0  0  0
   -2.0150   -0.7940    2.7350 C   0  0  2  0  0  0  0  0  0  0  0  0
   -2.6640   -2.0750    3.0410 O   0  0  0  0  0  0  0  0  0  0  0  0
   -3.2780    0.0180    2.4470 C   0  0  0  0  0  0  0  0  0  0  0  0
   -4.2370   -0.7360    1.6270 C   0  0  0  0  0  0  0  0  0  0  0  0
   -3.8730   -1.9340    1.3440 O   0  0  0  0  0  0  0  0  0  0  0  0
   -5.4790   -0.3140    1.1400 N   0  0  0  0  0  0  0  0  0  0  0  0
   -6.3880   -1.1070    0.3940 C   0  0  0  0  0  0  0  0  0  0  0  0
   -6.3340   -2.4750    0.3460 C   0  0  0  0  0  0  0  0  0  0  0  0
   -7.2830   -3.2600   -0.3150 C   0  0  0  0  0  0  0  0  0  0  0  0
   -7.1890   -4.6440   -0.3460 O   0  0  0  0  0  0  0  0  0  0  0  0
   -8.3360   -2.6490   -0.9520 C   0  0  0  0  0  0  0  0  0  0  0  0
   -8.4190   -1.2540   -0.9220 C   0  0  0  0  0  0  0  0  0  0  0  0
   -7.4700   -0.5110   -0.2690 C   0  0  0  0  0  0  0  0  0  0  0  0
   -7.5140    0.8520   -0.2170 O   0  0  0  0  0  0  0  0  0  0  0  0
   -8.4950    1.6100   -0.8710 C   0  0  0  0  0  0  0  0  0  0  0  0
   -8.3480    1.4530   -2.3790 C   0  0  0  0  0  0  0  0  0  0  0  0
   -9.2840    2.1560   -3.0950 O   0  0  0  0  0  0  0  0  0  0  0  0
    0.9850    1.8060    1.2000 C   0  0  0  0  0  0  0  0  0  0  0  0
    0.2990    2.1920    2.3140 O   0  0  0  0  0  0  0  0  0  0  0  0
    0.5020    3.3730    3.0370 C   0  0  0  0  0  0  0  0  0  0  0  0
    1.9600    2.5680    0.6190 C   0  0  0  0  0  0  0  0  0  0  0  0
    2.6100    2.1100   -0.5000 C   0  0  0  0  0  0  0  0  0  0  0  0
    3.6090    2.8350   -1.1370 O   0  0  0  0  0  0  0  0  0  0  0  0
    4.1010    4.0930   -0.7630 C   0  0  0  0  0  0  0  0  0  0  0  0
  1  2  1  0
  2  3  1  0
  3  4  1  1
  3  5  1  0
  3  6  1  0
  6  7  1  0
  7  8  2  0
  7  9  1  0
  9 10  1  0
 10 11  1  0
 11 12  2  0
 11 37  1  0
 12 13  1  0
 13 14  1  0
 13 33  2  0
 14 15  1  0
 15 16  1  0
 16 17  1  6
 16 18  1  0
 18 19  1  0
 19 20  2  0
 19 21  1  0
 21 22  1  0
 22 23  2  0
 22 28  1  0
 23 24  1  0
 24 25  1  0
 24 26  2  0
 26 27  1  0
 27 28  2  0
 28 29  1  0
 29 30  1  0
 30 31  1  0
 31 32  1  0
 33 34  1  0
 33 36  1  0
 34 35  1  0
 36 37  2  0
 37 38  1  0
 38 39  1  0
M  END
