
     RDKit          3D

 39 40  0  0  0  0  0  0  0  0999 V2000
   -6.1400    2.6460   -0.0310 C   0  0  0  0  0  0  0  0  0  0  0  0
   -5.6080    1.5630    0.6660 O   0  0  0  0  0  0  0  0  0  0  0  0
   -5.4380    0.4780   -0.2070 C   0  0  0  0  0  0  0  0  0  0  0  0
   -4.8790   -0.6560    0.5570 C   0  0  0  0  0  0  0  0  0  0  0  0
   -3.7240   -1.1810    0.2360 C   0  0  0  0  0  0  0  0  0  0  0  0
   -2.8300   -0.7700   -0.8680 C   0  0  2  0  0  0  0  0  0  0  0  0
   -3.2540   -1.3700   -2.1680 C   0  0  0  0  0  0  0  0  0  0  0  0
   -2.3170   -0.9230   -3.2690 C   0  0  0  0  0  0  0  0  0  0  0  0
   -2.3470    0.4660   -3.3780 O   0  0  0  0  0  0  0  0  0  0  0  0
   -1.4480   -1.0740   -0.5420 N   0  0  0  0  0  0  0  0  0  0  0  0
   -0.4910   -0.0410   -0.3020 C   0  0  0  0  0  0  0  0  0  0  0  0
   -0.8900    1.1430   -0.3770 O   0  0  0  0  0  0  0  0  0  0  0  0
    0.8560   -0.3040    0.0060 N   0  0  0  0  0  0  0  0  0  0  0  0
    1.8560    0.6770    0.2710 C   0  0  0  0  0  0  0  0  0  0  0  0
    1.5970    1.9860    0.5910 C   0  0  0  0  0  0  0  0  0  0  0  0
    2.6500    2.8760    0.8080 C   0  0  0  0  0  0  0  0  0  0  0  0
    2.4110    4.2160    1.1360 O   0  0  0  0  0  0  0  0  0  0  0  0
    3.9540    2.4440    0.7020 C   0  0  0  0  0  0  0  0  0  0  0  0
    4.9650    3.3570    0.9230 O   0  0  0  0  0  0  0  0  0  0  0  0
    5.5390    3.6000    2.1840 C   0  0  0  0  0  0  0  0  0  0  0  0
    4.2590    1.1310    0.3800 C   0  0  0  0  0  0  0  0  0  0  0  0
    5.5930    0.7800    0.2920 O   0  0  0  0  0  0  0  0  0  0  0  0
    5.9120   -0.5500   -0.0360 C   0  0  0  0  0  0  0  0  0  0  0  0
    7.3890   -0.7590   -0.0980 C   0  0  0  0  0  0  0  0  0  0  0  0
    7.9020   -1.9860   -0.4650 C   0  0  0  0  0  0  0  0  0  0  0  0
    9.2780   -2.1740   -0.5270 C   0  0  0  0  0  0  0  0  0  0  0  0
   10.1770   -1.1740   -0.2360 C   0  0  0  0  0  0  0  0  0  0  0  0
   11.6600   -1.3750   -0.3050 C   0  0  0  0  0  0  0  0  0  0  0  0
    9.6590    0.0590    0.1330 C   0  0  0  0  0  0  0  0  0  0  0  0
   10.5930    1.0770    0.4300 N   0  0  0  0  0  0  0  0  0  0  0  0
    8.2930    0.2440    0.1950 C   0  0  0  0  0  0  0  0  0  0  0  0
    3.2020    0.2900    0.1760 C   0  0  0  0  0  0  0  0  0  0  0  0
   -5.5570   -1.2060    1.6470 O   0  0  0  0  0  0  0  0  0  0  0  0
   -6.9510   -1.3630    1.7300 C   0  0  0  0  0  0  0  0  0  0  0  0
   -7.5210   -2.2560    0.6720 C   0  0  0  0  0  0  0  0  0  0  0  0
   -8.8890   -2.4290    0.7280 O   0  0  0  0  0  0  0  0  0  0  0  0
   -9.5970   -1.2720    0.5860 C   0  0  0  0  0  0  0  0  0  0  0  0
  -11.1020   -1.5060    0.6140 C   0  0  0  0  0  0  0  0  0  0  0  0
  -11.5230   -2.3530   -0.4000 O   0  0  0  0  0  0  0  0  0  0  0  0
  1  2  1  0
  2  3  1  0
  3  4  1  0
  4  5  2  3
  4 33  1  0
  5  6  1  0
  6  7  1  6
  6 10  1  0
  7  8  1  0
  8  9  1  0
 10 11  1  0
 11 12  2  0
 11 13  1  0
 13 14  1  0
 14 15  2  0
 14 32  1  0
 15 16  1  0
 16 17  1  0
 16 18  2  0
 18 19  1  0
 18 21  1  0
 19 20  1  0
 21 22  1  0
 21 32  2  0
 22 23  1  0
 23 24  1  0
 24 25  2  0
 24 31  1  0
 25 26  1  0
 26 27  2  0
 27 28  1  0
 27 29  1  0
 29 30  1  0
 29 31  2  0
 33 34  1  0
 34 35  1  0
 35 36  1  0
 36 37  1  0
 37 38  1  0
 38 39  1  0
M  END
