
     RDKit          3D

 39 40  0  0  0  0  0  0  0  0999 V2000
   -8.1200    1.1370   -0.0610 C   0  0  0  0  0  0  0  0  0  0  0  0
   -7.4700    0.2140    0.6990 O   0  0  0  0  0  0  0  0  0  0  0  0
   -6.4320   -0.5700    0.6450 C   0  0  0  0  0  0  0  0  0  0  0  0
   -5.6020   -0.7260   -0.4890 C   0  0  0  0  0  0  0  0  0  0  0  0
   -4.5390   -1.5800   -0.5090 C   0  0  0  0  0  0  0  0  0  0  0  0
   -3.7270   -1.7800   -1.5840 O   0  0  0  0  0  0  0  0  0  0  0  0
   -3.7420   -1.2250   -2.8030 C   0  0  0  0  0  0  0  0  0  0  0  0
   -3.2950    0.2340   -2.9190 C   0  0  0  0  0  0  0  0  0  0  0  0
   -2.0610    0.3470   -2.5450 O   0  0  0  0  0  0  0  0  0  0  0  0
   -0.8420    0.5260   -2.1970 C   0  0  0  0  0  0  0  0  0  0  0  0
   -0.2370    1.7990   -2.5070 C   0  0  0  0  0  0  0  0  0  0  0  0
    1.0660    2.0620   -2.1710 C   0  0  0  0  0  0  0  0  0  0  0  0
    1.6370    3.4140   -2.5210 C   0  0  0  0  0  0  0  0  0  0  0  0
    1.8500    1.1330   -1.5270 C   0  0  0  0  0  0  0  0  0  0  0  0
    3.2000    1.4580   -1.2470 N   0  0  0  0  0  0  0  0  0  0  0  0
    4.0150    0.7740   -0.3580 C   0  0  0  0  0  0  0  0  0  0  0  0
    3.5380   -0.1980    0.3220 O   0  0  0  0  0  0  0  0  0  0  0  0
    5.4070    1.1100   -0.1560 N   0  0  0  0  0  0  0  0  0  0  0  0
    6.1320    0.3450    0.8030 C   0  0  0  0  0  0  0  0  0  0  0  0
    7.5760    0.7050    0.8630 C   0  0  1  0  0  0  0  0  0  0  0  0
    8.1640   -0.1030    1.8440 O   0  0  0  0  0  0  0  0  0  0  0  0
    8.2930    0.4440   -0.4520 C   0  0  0  0  0  0  0  0  0  0  0  0
    9.7860    0.7780   -0.3050 C   0  0  1  0  0  0  0  0  0  0  0  0
   10.4290    0.5010   -1.6380 C   0  0  0  0  0  0  0  0  0  0  0  0
    9.9930    2.0690    0.1420 O   0  0  0  0  0  0  0  0  0  0  0  0
    1.2890   -0.0700   -1.2290 C   0  0  0  0  0  0  0  0  0  0  0  0
   -0.0370   -0.3660   -1.5590 C   0  0  0  0  0  0  0  0  0  0  0  0
   -0.5130   -1.6470   -1.1960 O   0  0  0  0  0  0  0  0  0  0  0  0
    0.2950   -2.5890   -0.5960 C   0  0  0  0  0  0  0  0  0  0  0  0
   -4.2350   -2.3430    0.6380 C   0  0  0  0  0  0  0  0  0  0  0  0
   -3.1480   -3.1840    0.5660 O   0  0  0  0  0  0  0  0  0  0  0  0
   -2.6740   -4.0120    1.5740 C   0  0  0  0  0  0  0  0  0  0  0  0
   -5.0130   -2.2170    1.7540 C   0  0  0  0  0  0  0  0  0  0  0  0
   -6.1050   -1.3420    1.7700 C   0  0  0  0  0  0  0  0  0  0  0  0
   -6.8270   -1.2320    3.0300 C   0  0  0  0  0  0  0  0  0  0  0  0
   -6.2520   -0.2470    3.9670 C   0  0  0  0  0  0  0  0  0  0  0  0
   -6.2200    1.1620    3.6250 C   0  0  0  0  0  0  0  0  0  0  0  0
   -5.0740    1.9220    4.0220 N   0  0  0  0  0  0  0  0  0  0  0  0
   -7.1510    1.7700    3.0000 O   0  0  0  0  0  0  0  0  0  0  0  0
  1  2  1  0
  2  3  1  0
  3  4  2  0
  3 34  1  0
  4  5  1  0
  5  6  1  0
  5 30  2  0
  6  7  1  0
  7  8  1  0
  8  9  1  0
  9 10  1  0
 10 11  2  0
 10 27  1  0
 11 12  1  0
 12 13  1  0
 12 14  2  0
 14 15  1  0
 14 26  1  0
 15 16  1  0
 16 17  2  0
 16 18  1  0
 18 19  1  0
 19 20  1  0
 20 21  1  1
 20 22  1  0
 22 23  1  0
 23 24  1  6
 23 25  1  0
 26 27  2  0
 27 28  1  0
 28 29  1  0
 30 31  1  0
 30 33  1  0
 31 32  1  0
 33 34  2  0
 34 35  1  0
 35 36  1  0
 36 37  1  0
 37 38  1  0
 37 39  2  0
M  END
