
     RDKit          3D

 39 40  0  0  0  0  0  0  0  0999 V2000
   10.0190    0.9310   -1.0940 C   0  0  0  0  0  0  0  0  0  0  0  0
    9.3370    1.2570    0.2420 C   0  0  0  0  0  0  0  0  0  0  0  0
    7.9710    1.0770    0.0300 O   0  0  0  0  0  0  0  0  0  0  0  0
    6.9490    1.2700    0.9170 C   0  0  0  0  0  0  0  0  0  0  0  0
    7.2730    1.6590    2.0850 O   0  0  0  0  0  0  0  0  0  0  0  0
    5.5510    1.0520    0.5790 C   0  0  0  0  0  0  0  0  0  0  0  0
    4.5570    1.2750    1.5050 C   0  0  0  0  0  0  0  0  0  0  0  0
    3.2180    1.0890    1.2040 C   0  0  0  0  0  0  0  0  0  0  0  0
    2.1600    1.3260    2.2320 C   0  0  2  0  0  0  0  0  0  0  0  0
    2.6240    2.3880    3.0340 O   0  0  0  0  0  0  0  0  0  0  0  0
    1.9310    0.1400    3.1290 C   0  0  0  0  0  0  0  0  0  0  0  0
    1.4170   -1.0210    2.4460 N   0  0  0  0  0  0  0  0  0  0  0  0
    0.1460   -0.9630    1.7560 C   0  0  0  0  0  0  0  0  0  0  0  0
   -0.5010    0.1220    1.7600 O   0  0  0  0  0  0  0  0  0  0  0  0
   -0.3980   -2.0810    1.0790 N   0  0  0  0  0  0  0  0  0  0  0  0
   -1.6310   -2.0940    0.3600 C   0  0  0  0  0  0  0  0  0  0  0  0
   -1.7100   -1.2140   -0.8360 C   0  0  2  0  0  0  0  0  0  0  0  0
   -0.7090   -1.6580   -1.8710 C   0  0  0  0  0  0  0  0  0  0  0  0
   -1.4860    0.1080   -0.5290 O   0  0  0  0  0  0  0  0  0  0  0  0
   -3.1470   -1.2590   -1.4350 C   0  0  0  0  0  0  0  0  0  0  0  0
   -4.0350   -0.7550   -0.4680 O   0  0  0  0  0  0  0  0  0  0  0  0
   -5.3740   -0.6600   -0.6970 C   0  0  0  0  0  0  0  0  0  0  0  0
   -5.9620   -1.0540   -1.8790 C   0  0  0  0  0  0  0  0  0  0  0  0
   -7.3280   -0.9280   -2.0500 C   0  0  0  0  0  0  0  0  0  0  0  0
   -8.1390   -0.4180   -1.0740 C   0  0  0  0  0  0  0  0  0  0  0  0
   -9.5870   -0.2650   -1.1980 C   0  0  0  0  0  0  0  0  0  0  0  0
  -10.2700    0.5920   -0.3090 N   0  0  0  0  0  0  0  0  0  0  0  0
  -10.2370   -0.8750   -2.0730 O   0  0  0  0  0  0  0  0  0  0  0  0
   -7.5420   -0.0190    0.1260 C   0  0  0  0  0  0  0  0  0  0  0  0
   -6.1650   -0.1400    0.3110 C   0  0  0  0  0  0  0  0  0  0  0  0
   -5.5210    0.2380    1.4700 O   0  0  0  0  0  0  0  0  0  0  0  0
   -6.2020    0.7980    2.5590 C   0  0  0  0  0  0  0  0  0  0  0  0
   -6.8560    2.1060    2.1950 C   0  0  0  0  0  0  0  0  0  0  0  0
    2.9160    0.6680   -0.0690 C   0  0  0  0  0  0  0  0  0  0  0  0
    3.9190    0.4350   -1.0230 C   0  0  0  0  0  0  0  0  0  0  0  0
    5.2500    0.6260   -0.7080 C   0  0  0  0  0  0  0  0  0  0  0  0
    6.3030    0.4270   -1.5710 O   0  0  0  0  0  0  0  0  0  0  0  0
    6.0730   -0.0250   -2.8810 C   0  0  0  0  0  0  0  0  0  0  0  0
    5.4460   -1.3880   -2.9180 C   0  0  0  0  0  0  0  0  0  0  0  0
  1  2  1  0
  2  3  1  0
  3  4  1  0
  4  5  2  0
  4  6  1  0
  6  7  2  0
  6 36  1  0
  7  8  1  0
  8  9  1  0
  8 34  2  0
  9 10  1  1
  9 11  1  0
 11 12  1  0
 12 13  1  0
 13 14  2  0
 13 15  1  0
 15 16  1  0
 16 17  1  0
 17 18  1  6
 17 19  1  0
 17 20  1  0
 20 21  1  0
 21 22  1  0
 22 23  2  0
 22 30  1  0
 23 24  1  0
 24 25  2  0
 25 26  1  0
 25 29  1  0
 26 27  1  0
 26 28  2  0
 29 30  2  0
 30 31  1  0
 31 32  1  0
 32 33  1  0
 34 35  1  0
 35 36  2  0
 36 37  1  0
 37 38  1  0
 38 39  1  0
M  END
