
     RDKit          3D

 45 49  0  0  0  0  0  0  0  0999 V2000
   -5.6550    0.7690   -2.4230 C   0  0  0  0  0  0  0  0  0  0  0  0
   -4.5570   -0.1850   -2.7830 C   0  0  2  0  0  0  0  0  0  0  0  0
   -3.5670    0.5220   -3.6900 C   0  0  0  0  0  0  0  0  0  0  0  0
   -5.1410   -1.3740   -3.5290 C   0  0  0  0  0  0  0  0  0  0  0  0
   -3.8670   -0.6920   -1.6080 N   0  0  0  0  0  0  0  0  0  0  0  0
   -3.2030    0.2130   -0.7250 C   0  0  0  0  0  0  0  0  0  0  0  0
   -3.1960    1.4350   -0.9310 O   0  0  0  0  0  0  0  0  0  0  0  0
   -2.5170   -0.4100    0.4630 C   0  0  2  0  0  0  0  0  0  0  0  0
   -3.4800   -1.2270    1.2720 C   0  0  0  0  0  0  0  0  0  0  0  0
   -4.2080   -0.5020    2.2690 N   0  0  2  0  0  0  0  0  0  0  0  0
   -5.3250    0.2340    1.7550 C   0  0  0  0  0  0  0  0  0  0  0  0
   -6.6310   -0.3640    2.1580 C   0  0  0  0  0  0  0  0  0  0  0  0
   -7.2590   -1.3070    1.3720 C   0  0  0  0  0  0  0  0  0  0  0  0
   -8.4690   -1.8600    1.7490 C   0  0  0  0  0  0  0  0  0  0  0  0
   -9.0830   -1.4830    2.9250 C   0  0  0  0  0  0  0  0  0  0  0  0
   -8.4600   -0.5620    3.6840 N   0  0  0  0  0  0  0  0  0  0  0  0
   -7.2760   -0.0130    3.3260 C   0  0  0  0  0  0  0  0  0  0  0  0
   -3.3820    0.3260    3.1120 C   0  0  0  0  0  0  0  0  0  0  0  0
   -1.9230    0.2710    2.6840 C   0  0  0  0  0  0  0  0  0  0  0  0
   -1.8780    0.5790    1.2880 N   0  0  1  0  0  0  0  0  0  0  0  0
   -0.4900    0.8420    0.9080 C   0  0  0  0  0  0  0  0  0  0  0  0
    0.4760    0.0070    1.6270 C   0  0  1  0  0  0  0  0  0  0  0  0
    0.1320   -1.3550    1.3180 O   0  0  0  0  0  0  0  0  0  0  0  0
    1.9260    0.2050    1.4780 C   0  0  0  0  0  0  0  0  0  0  0  0
    2.6360    0.0540    0.2170 C   0  0  1  0  0  0  0  0  0  0  0  0
    2.3920    0.9120   -0.9400 C   0  0  0  0  0  0  0  0  0  0  0  0
    2.6300    2.3720   -0.7760 C   0  0  0  0  0  0  0  0  0  0  0  0
    1.5990    3.2510   -0.5660 C   0  0  0  0  0  0  0  0  0  0  0  0
    1.9120    4.6000   -0.3930 C   0  0  0  0  0  0  0  0  0  0  0  0
    3.2010    5.0770   -0.4260 C   0  0  0  0  0  0  0  0  0  0  0  0
    4.2180    4.1690   -0.6410 C   0  0  0  0  0  0  0  0  0  0  0  0
    3.9120    2.8530   -0.8090 C   0  0  0  0  0  0  0  0  0  0  0  0
    4.1210   -0.0470    0.5540 C   0  0  0  0  0  0  0  0  0  0  0  0
    4.5500    0.2240    1.7030 O   0  0  0  0  0  0  0  0  0  0  0  0
    5.0420   -0.4560   -0.4480 N   0  0  0  0  0  0  0  0  0  0  0  0
    6.4370   -0.5520   -0.1340 C   0  0  1  0  0  0  0  0  0  0  0  0
    7.0360   -1.8580   -0.4890 C   0  0  0  0  0  0  0  0  0  0  0  0
    6.4490   -3.1280   -0.5120 C   0  0  0  0  0  0  0  0  0  0  0  0
    7.2230   -4.2020   -0.8770 C   0  0  0  0  0  0  0  0  0  0  0  0
    8.5470   -3.9830   -1.2060 C   0  0  0  0  0  0  0  0  0  0  0  0
    9.1200   -2.7340   -1.1820 C   0  0  0  0  0  0  0  0  0  0  0  0
    8.3540   -1.6480   -0.8180 C   0  0  0  0  0  0  0  0  0  0  0  0
    8.6700   -0.1800   -0.6970 C   0  0  0  0  0  0  0  0  0  0  0  0
    7.2790    0.4200   -0.9450 C   0  0  1  0  0  0  0  0  0  0  0  0
    6.9670    0.3500   -2.3040 O   0  0  0  0  0  0  0  0  0  0  0  0
  2  1  1  1
  2  3  1  0
  2  4  1  0
  2  5  1  0
  5  6  1  0
  6  7  2  0
  8  6  1  6
  8  9  1  0
  8 20  1  0
  9 10  1  0
 10 11  1  6
 10 18  1  0
 11 12  1  0
 12 13  2  0
 12 17  1  0
 13 14  1  0
 14 15  2  0
 15 16  1  0
 16 17  2  0
 18 19  1  0
 19 20  1  0
 20 21  1  6
 21 22  1  0
 22 23  1  6
 22 24  1  0
 25 24  1  1
 25 26  1  0
 25 33  1  0
 26 27  1  0
 27 28  2  0
 27 32  1  0
 28 29  1  0
 29 30  2  0
 30 31  1  0
 31 32  2  0
 33 34  2  0
 33 35  1  0
 36 35  1  6
 36 37  1  0
 36 44  1  0
 37 38  2  0
 37 42  1  0
 38 39  1  0
 39 40  2  0
 40 41  1  0
 41 42  2  0
 42 43  1  0
 43 44  1  0
 44 45  1  6
M  CHG  2  10   1  20   1
M  END
