
     RDKit          3D

 39 40  0  0  0  0  0  0  0  0999 V2000
    4.4250    2.9440    3.0430 C   0  0  0  0  0  0  0  0  0  0  0  0
    4.0290    1.9380    2.0190 C   0  0  0  0  0  0  0  0  0  0  0  0
    4.9940    1.1760    1.3490 C   0  0  0  0  0  0  0  0  0  0  0  0
    4.6970    0.2370    0.3980 C   0  0  0  0  0  0  0  0  0  0  0  0
    5.6580   -0.5320   -0.2960 N   0  0  0  0  0  0  0  0  0  0  0  0
    7.0490   -0.4160   -0.2810 C   0  0  0  0  0  0  0  0  0  0  0  0
    7.5690    0.4730    0.4230 O   0  0  0  0  0  0  0  0  0  0  0  0
    7.9620   -1.2970   -1.0590 C   0  0  1  0  0  0  0  0  0  0  0  0
    7.6720   -1.3040   -2.5220 C   0  0  0  0  0  0  0  0  0  0  0  0
    9.2650   -0.9020   -0.8080 O   0  0  0  0  0  0  0  0  0  0  0  0
    9.9900   -1.8440   -0.0940 C   0  0  0  0  0  0  0  0  0  0  0  0
   11.3780   -1.3070    0.1160 C   0  0  0  0  0  0  0  0  0  0  0  0
   12.1780   -2.1950    0.8290 O   0  0  0  0  0  0  0  0  0  0  0  0
    3.3380    0.0730    0.1240 C   0  0  0  0  0  0  0  0  0  0  0  0
    2.3420    0.7870    0.7450 C   0  0  0  0  0  0  0  0  0  0  0  0
    0.9290    0.5420    0.3730 C   0  0  0  0  0  0  0  0  0  0  0  0
    0.6820   -0.0450   -0.7250 O   0  0  0  0  0  0  0  0  0  0  0  0
   -0.1160    0.9520    1.2190 N   0  0  0  0  0  0  0  0  0  0  0  0
   -1.4990    0.7960    0.9930 C   0  0  0  0  0  0  0  0  0  0  0  0
   -2.3280    0.9190    2.1150 C   0  0  0  0  0  0  0  0  0  0  0  0
   -3.6670    0.7920    1.9310 C   0  0  0  0  0  0  0  0  0  0  0  0
   -4.2680    0.5440    0.6790 C   0  0  0  0  0  0  0  0  0  0  0  0
   -5.6200    0.4360    0.6190 O   0  0  0  0  0  0  0  0  0  0  0  0
   -6.4900    0.1940   -0.4050 C   0  0  2  0  0  0  0  0  0  0  0  0
   -7.3090    1.4430   -0.7170 C   0  0  0  0  0  0  0  0  0  0  0  0
   -8.2460    1.3030   -1.8320 C   0  0  0  0  0  0  0  0  0  0  0  0
   -9.2410    0.3670   -1.6780 O   0  0  0  0  0  0  0  0  0  0  0  0
   -7.3850   -0.9950   -0.1070 C   0  0  0  0  0  0  0  0  0  0  0  0
   -8.2380   -0.8610    1.0980 C   0  0  0  0  0  0  0  0  0  0  0  0
   -7.5210   -0.7580    2.3710 C   0  0  0  0  0  0  0  0  0  0  0  0
   -8.2250   -0.2400    3.5160 N   0  0  0  0  0  0  0  0  0  0  0  0
   -6.3340   -1.1040    2.5000 O   0  0  0  0  0  0  0  0  0  0  0  0
   -3.4090    0.4300   -0.4030 C   0  0  0  0  0  0  0  0  0  0  0  0
   -3.8870    0.1910   -1.6370 O   0  0  0  0  0  0  0  0  0  0  0  0
   -3.3430   -0.0010   -2.8800 C   0  0  0  0  0  0  0  0  0  0  0  0
   -2.4670   -1.1930   -3.0820 C   0  0  0  0  0  0  0  0  0  0  0  0
   -3.1660   -2.3920   -2.8220 O   0  0  0  0  0  0  0  0  0  0  0  0
   -2.0190    0.5580   -0.2440 C   0  0  0  0  0  0  0  0  0  0  0  0
    2.7060    1.7080    1.6820 C   0  0  0  0  0  0  0  0  0  0  0  0
  1  2  1  0
  2  3  2  0
  2 39  1  0
  3  4  1  0
  4  5  1  0
  4 14  2  0
  5  6  1  0
  6  7  2  0
  6  8  1  0
  8  9  1  6
  8 10  1  0
 10 11  1  0
 11 12  1  0
 12 13  1  0
 14 15  1  0
 15 16  1  0
 15 39  2  0
 16 17  2  0
 16 18  1  0
 18 19  1  0
 19 20  2  0
 19 38  1  0
 20 21  1  0
 21 22  2  0
 22 23  1  0
 22 33  1  0
 23 24  1  0
 24 25  1  1
 24 28  1  0
 25 26  1  0
 26 27  1  0
 28 29  1  0
 29 30  1  0
 30 31  1  0
 30 32  2  0
 33 34  1  0
 33 38  2  0
 34 35  1  0
 35 36  1  0
 36 37  1  0
M  END
