
     RDKit          3D

 39 39  0  0  0  0  0  0  0  0999 V2000
    4.4470    7.5550    2.3740 C   0  0  0  0  0  0  0  0  0  0  0  0
    4.8960    6.2330    2.4910 O   0  0  0  0  0  0  0  0  0  0  0  0
    4.2870    5.1420    1.8890 C   0  0  0  0  0  0  0  0  0  0  0  0
    3.2770    5.2980    1.1930 O   0  0  0  0  0  0  0  0  0  0  0  0
    4.8240    3.8160    2.0700 N   0  0  0  0  0  0  0  0  0  0  0  0
    4.1530    2.6830    1.4670 C   0  0  0  0  0  0  0  0  0  0  0  0
    3.1550    2.9960    0.8180 O   0  0  0  0  0  0  0  0  0  0  0  0
    4.6650    1.3350    1.6250 C   0  0  0  0  0  0  0  0  0  0  0  0
    5.8520    1.2840    2.2280 C   0  0  0  0  0  0  0  0  0  0  0  0
    6.4510    0.0640    2.4540 O   0  0  0  0  0  0  0  0  0  0  0  0
    4.1450    0.1570    0.9090 C   0  0  0  0  0  0  0  0  0  0  0  0
    2.9990   -0.1560    0.4360 C   0  0  0  0  0  0  0  0  0  0  0  0
    1.6620    0.2730    0.3030 C   0  0  0  0  0  0  0  0  0  0  0  0
    1.0180    1.2730    1.1920 C   0  0  0  0  0  0  0  0  0  0  0  0
    0.8000   -0.4610   -0.4830 C   0  0  0  0  0  0  0  0  0  0  0  0
   -0.5690   -0.0380   -0.6380 C   0  0  0  0  0  0  0  0  0  0  0  0
   -1.0580    0.9750   -0.1140 O   0  0  0  0  0  0  0  0  0  0  0  0
   -1.4890   -0.8000   -1.4490 N   0  0  0  0  0  0  0  0  0  0  0  0
   -2.8350   -0.5970   -1.7290 C   0  0  0  0  0  0  0  0  0  0  0  0
   -3.9050   -0.6940   -0.6820 C   0  0  2  0  0  0  0  0  0  0  0  0
   -3.8880   -2.0650   -0.0560 C   0  0  0  0  0  0  0  0  0  0  0  0
   -4.7730   -2.4280    1.0310 C   0  0  1  0  0  0  0  0  0  0  0  0
   -6.2540   -2.4210    0.8850 C   0  0  0  0  0  0  0  0  0  0  0  0
   -4.4070   -3.8920    1.4320 C   0  0  0  0  0  0  0  0  0  0  0  0
   -5.2370   -0.6180   -1.4940 C   0  0  0  0  0  0  0  0  0  0  0  0
   -6.1110    0.5100   -1.0990 C   0  0  0  0  0  0  0  0  0  0  0  0
   -5.4440    1.8710   -1.1130 C   0  0  2  0  0  0  0  0  0  0  0  0
   -5.2970    2.3790   -2.5100 C   0  0  0  0  0  0  0  0  0  0  0  0
   -6.6030    2.4770   -3.0460 O   0  0  0  0  0  0  0  0  0  0  0  0
   -4.1390    1.7770   -0.4110 C   0  0  0  0  0  0  0  0  0  0  0  0
   -4.0020    0.4350    0.2750 C   0  0  0  0  0  0  0  0  0  0  0  0
    5.1010   -0.8070    0.6920 O   0  0  0  0  0  0  0  0  0  0  0  0
    5.9630   -1.6760    0.4970 C   0  0  0  0  0  0  0  0  0  0  0  0
    5.9790   -2.5510   -0.7290 C   0  0  0  0  0  0  0  0  0  0  0  0
    6.8600   -3.4810   -0.6770 O   0  0  0  0  0  0  0  0  0  0  0  0
    5.1660   -2.4170   -1.8250 N   0  0  0  0  0  0  0  0  0  0  0  0
    5.2360   -3.3160   -2.9790 C   0  0  0  0  0  0  0  0  0  0  0  0
    4.9150   -4.7020   -2.5090 C   0  0  0  0  0  0  0  0  0  0  0  0
    3.6180   -4.7260   -1.9580 O   0  0  0  0  0  0  0  0  0  0  0  0
  1  2  1  0
  2  3  1  0
  3  4  2  0
  3  5  1  0
  5  6  1  0
  6  7  2  0
  6  8  1  0
  8  9  2  3
  8 11  1  0
  9 10  1  0
 11 12  2  3
 11 32  1  0
 12 13  1  0
 13 14  1  0
 13 15  2  3
 15 16  1  0
 16 17  2  0
 16 18  1  0
 18 19  1  0
 20 19  1  6
 20 21  1  0
 20 25  1  0
 20 31  1  0
 21 22  1  0
 22 23  1  6
 22 24  1  0
 25 26  1  0
 26 27  1  0
 27 28  1  6
 27 30  1  0
 28 29  1  0
 30 31  1  0
 32 33  1  0
 33 34  1  0
 34 35  2  0
 34 36  1  0
 36 37  1  0
 37 38  1  0
 38 39  1  0
M  END
