
     RDKit          3D

  8  8  0  0  0  0  0  0  0  0999 V2000
    1.9180    1.0240    0.3670 N   0  0  0  0  0  0  0  0  0  0  0  0
    1.9740   -0.4180    0.2950 C   0  0  0  0  0  0  0  0  0  0  0  0
    1.0110   -0.8910   -0.7810 C   0  0  0  0  0  0  0  0  0  0  0  0
   -0.3710   -0.4320   -0.3990 C   0  0  0  0  0  0  0  0  0  0  0  0
   -1.1730    0.3620   -1.0810 C   0  0  0  0  0  0  0  0  0  0  0  0
   -2.4290    0.5460   -0.3350 C   0  0  0  0  0  0  0  0  0  0  0  0
   -2.2440   -0.2570    0.8840 C   0  0  0  0  0  0  0  0  0  0  0  0
   -1.0510   -0.8150    0.8300 C   0  0  0  0  0  0  0  0  0  0  0  0
  1  2  1  0
  2  3  1  0
  3  4  1  0
  4  5  2  0
  4  8  1  0
  5  6  1  0
  6  7  1  0
  7  8  2  0
M  CHG  1   1   1
M  END
