
     RDKit          3D

  8  9  0  0  0  0  0  0  0  0999 V2000
    2.2450   -0.3080    0.0020 C   0  0  0  0  0  0  0  0  0  0  0  0
    1.7020    0.8540    0.3170 C   0  0  0  0  0  0  0  0  0  0  0  0
    0.2390    0.7470    0.2300 C   0  0  0  0  0  0  0  0  0  0  0  0
   -0.9290    1.3460    0.3590 C   0  0  0  0  0  0  0  0  0  0  0  0
   -2.0120    0.4840    0.0700 N   0  0  0  0  0  0  0  0  0  0  0  0
   -1.4790   -0.7970   -0.2790 C   0  0  0  0  0  0  0  0  0  0  0  0
   -0.0160   -0.6220   -0.1740 C   0  0  0  0  0  0  0  0  0  0  0  0
    1.1570   -1.2130   -0.3000 C   0  0  0  0  0  0  0  0  0  0  0  0
  1  2  2  0
  1  8  1  0
  2  3  1  0
  3  4  2  0
  3  7  1  0
  4  5  1  0
  5  6  1  0
  6  7  1  0
  7  8  2  0
M  END
