
     RDKit          3D

 21 21  0  0  0  0  0  0  0  0999 V2000
   -3.5810   -1.4680    0.1350 C   0  0  0  0  0  0  0  0  0  0  0  0
   -3.3390    0.0070    0.3450 C   0  0  2  0  0  0  0  0  0  0  0  0
   -4.1270    0.3510    1.4760 O   0  0  0  0  0  0  0  0  0  0  0  0
   -3.8160    0.7570   -0.8410 C   0  0  0  0  0  0  0  0  0  0  0  0
   -2.9760    0.2860   -2.5030 Br  0  0  0  0  0  0  0  0  0  0  0  0
   -1.9130    0.1850    0.7030 C   0  0  0  0  0  0  0  0  0  0  0  0
   -1.7040    0.7140    1.8250 O   0  0  0  0  0  0  0  0  0  0  0  0
   -0.8410   -0.1860   -0.0990 N   0  0  0  0  0  0  0  0  0  0  0  0
    0.5270   -0.0320    0.2150 C   0  0  0  0  0  0  0  0  0  0  0  0
    1.0110    0.2680    1.4510 C   0  0  0  0  0  0  0  0  0  0  0  0
    2.3880    0.4150    1.6520 C   0  0  0  0  0  0  0  0  0  0  0  0
    3.3200    0.2690    0.6400 C   0  0  0  0  0  0  0  0  0  0  0  0
    4.7080    0.4460    0.9200 N   0  0  0  0  0  0  0  0  0  0  0  0
    5.0160    1.2140    1.8770 O   0  0  0  0  0  0  0  0  0  0  0  0
    5.7380   -0.1250    0.2640 O   0  0  0  0  0  0  0  0  0  0  0  0
    2.8060   -0.0350   -0.6010 C   0  0  0  0  0  0  0  0  0  0  0  0
    3.7800   -0.2180   -1.7290 C   0  0  2  0  0  0  0  0  0  0  0  0
    4.5520    0.9100   -1.9290 F   0  0  0  0  0  0  0  0  0  0  0  0
    3.0250   -0.4260   -2.8990 F   0  0  0  0  0  0  0  0  0  0  0  0
    4.5310   -1.3590   -1.5920 F   0  0  0  0  0  0  0  0  0  0  0  0
    1.4630   -0.1860   -0.8310 C   0  0  0  0  0  0  0  0  0  0  0  0
  2  1  1  6
  2  3  1  0
  2  4  1  0
  2  6  1  0
  4  5  1  0
  6  7  2  0
  6  8  1  0
  8  9  1  0
  9 10  2  0
  9 21  1  0
 10 11  1  0
 11 12  2  0
 12 13  1  0
 12 16  1  0
 13 14  2  0
 13 15  1  0
 16 17  1  0
 16 21  2  0
 17 18  1  6
 17 19  1  0
 17 20  1  0
M  CHG  2  13   1  15  -1
M  END
