
     RDKit          3D

 23 24  0  0  0  0  0  0  0  0999 V2000
    7.2950   -0.3140   -0.1170 N   0  0  0  0  0  0  0  0  0  0  0  0
    5.9230   -0.1990    0.1580 C   0  0  0  0  0  0  0  0  0  0  0  0
    5.2590   -1.2210    0.4430 O   0  0  0  0  0  0  0  0  0  0  0  0
    5.2810    1.1410    0.1070 C   0  0  0  0  0  0  0  0  0  0  0  0
    3.9010    1.0570    0.4100 O   0  0  0  0  0  0  0  0  0  0  0  0
    3.0620    0.2850   -0.3750 C   0  0  0  0  0  0  0  0  0  0  0  0
    3.5450   -0.3290   -1.3470 O   0  0  0  0  0  0  0  0  0  0  0  0
    1.6590    0.1750   -0.0980 N   0  0  0  0  0  0  0  0  0  0  0  0
    0.8340   -0.6120   -0.9080 C   0  0  0  0  0  0  0  0  0  0  0  0
    1.3760   -1.2160   -1.8850 O   0  0  0  0  0  0  0  0  0  0  0  0
   -0.5930   -0.7820   -0.7050 C   0  0  1  0  0  0  0  0  0  0  0  0
   -0.9660   -1.3840    0.6340 C   0  0  0  0  0  0  0  0  0  0  0  0
   -2.3810   -1.1110    0.6440 O   0  0  0  0  0  0  0  0  0  0  0  0
   -2.6320    0.0390   -0.0780 C   0  0  0  0  0  0  0  0  0  0  0  0
   -3.8020    0.5950   -0.3040 C   0  0  0  0  0  0  0  0  0  0  0  0
   -5.0200    0.0170    0.2190 C   0  0  0  0  0  0  0  0  0  0  0  0
   -6.2300    0.4960    0.0480 C   0  0  0  0  0  0  0  0  0  0  0  0
   -7.1270   -0.4260    0.7570 C   0  0  0  0  0  0  0  0  0  0  0  0
   -8.8490   -0.2520    0.8920 Cl  0  0  0  0  0  0  0  0  0  0  0  0
   -6.3340   -1.3520    1.2300 C   0  0  0  0  0  0  0  0  0  0  0  0
   -5.0890   -1.1860    1.0140 N   0  0  0  0  0  0  0  0  0  0  0  0
   -1.3360    0.5540   -0.5690 C   0  0  2  0  0  0  0  0  0  0  0  0
   -1.4080    1.2390   -1.7480 O   0  0  0  0  0  0  0  0  0  0  0  0
  1  2  1  0
  2  3  2  0
  2  4  1  0
  4  5  1  0
  5  6  1  0
  6  7  2  0
  6  8  1  0
  8  9  1  0
  9 10  2  0
 11  9  1  1
 11 12  1  0
 11 22  1  0
 12 13  1  0
 13 14  1  0
 14 15  2  3
 14 22  1  0
 15 16  1  0
 16 17  2  0
 16 21  1  0
 17 18  1  0
 18 19  1  0
 18 20  2  0
 20 21  2  0
 22 23  1  6
M  END
