
     RDKit          3D

 23 23  0  0  0  0  0  0  0  0999 V2000
   -3.8240    0.9130    1.7510 N   0  0  0  0  0  0  0  0  0  0  0  0
   -3.4570   -0.3500    1.2280 C   0  0  0  0  0  0  0  0  0  0  0  0
   -4.2150   -1.3140    1.4830 O   0  0  0  0  0  0  0  0  0  0  0  0
   -2.2200   -0.4790    0.4190 C   0  0  0  0  0  0  0  0  0  0  0  0
   -1.9530   -1.6980   -0.0310 C   0  0  0  0  0  0  0  0  0  0  0  0
   -0.8270   -2.1310   -0.8360 C   0  0  0  0  0  0  0  0  0  0  0  0
   -1.0650   -2.7020   -2.0000 C   0  0  0  0  0  0  0  0  0  0  0  0
    0.0150   -3.1290   -2.7980 O   0  0  0  0  0  0  0  0  0  0  0  0
    0.6180   -2.0230   -0.4430 C   0  0  1  0  0  0  0  0  0  0  0  0
    1.4990   -1.3040   -1.7990 Cl  0  0  0  0  0  0  0  0  0  0  0  0
    0.8290   -1.3820    0.8540 C   0  0  0  0  0  0  0  0  0  0  0  0
    1.8300   -0.6660    1.2740 C   0  0  0  0  0  0  0  0  0  0  0  0
    3.0640   -0.2660    0.5940 C   0  0  2  0  0  0  0  0  0  0  0  0
    4.1320   -0.2970    1.5320 O   0  0  0  0  0  0  0  0  0  0  0  0
    2.9390    1.1910    0.2030 C   0  0  0  0  0  0  0  0  0  0  0  0
    1.8810    1.7310    0.9320 O   0  0  0  0  0  0  0  0  0  0  0  0
    1.0500    2.7540    0.6030 C   0  0  0  0  0  0  0  0  0  0  0  0
    0.7580    3.6150    1.5030 O   0  0  0  0  0  0  0  0  0  0  0  0
    0.4730    2.9480   -0.6690 N   0  0  0  0  0  0  0  0  0  0  0  0
   -0.0770    1.9490   -1.5060 C   0  0  0  0  0  0  0  0  0  0  0  0
    0.2410    2.0350   -2.7470 O   0  0  0  0  0  0  0  0  0  0  0  0
   -0.9150    0.8990   -1.1240 N   0  0  0  0  0  0  0  0  0  0  0  0
   -1.4650    0.7540    0.2050 C   0  0  0  0  0  0  0  0  0  0  0  0
  1  2  1  0
  2  3  2  0
  2  4  1  0
  4  5  2  0
  4 23  1  0
  5  6  1  0
  6  7  2  3
  6  9  1  0
  7  8  1  0
  9 10  1  6
  9 11  1  0
 11 12  2  0
 12 13  1  0
 13 14  1  1
 13 15  1  0
 15 16  1  0
 16 17  1  0
 17 18  2  0
 17 19  1  0
 19 20  1  0
 20 21  2  0
 20 22  1  0
 22 23  1  0
M  END
