
     RDKit          3D

 23 24  0  0  0  0  0  0  0  0999 V2000
   -4.9990   -4.0540   -0.6130 N   0  0  0  0  0  0  0  0  0  0  0  0
   -3.6790   -3.5470   -0.5250 C   0  0  0  0  0  0  0  0  0  0  0  0
   -3.4700   -2.2510   -0.2960 C   0  0  0  0  0  0  0  0  0  0  0  0
   -2.1240   -1.7220   -0.2050 C   0  0  0  0  0  0  0  0  0  0  0  0
   -1.8270   -0.4350    0.0210 C   0  0  0  0  0  0  0  0  0  0  0  0
   -0.4240   -0.0080    0.0920 C   0  0  0  0  0  0  0  0  0  0  0  0
    0.0570    1.1950    0.3000 C   0  0  0  0  0  0  0  0  0  0  0  0
   -0.6700    2.3740    0.5080 O   0  0  0  0  0  0  0  0  0  0  0  0
   -0.0980    3.6470    0.4830 C   0  0  0  0  0  0  0  0  0  0  0  0
    0.5480    3.9200   -0.8740 C   0  0  0  0  0  0  0  0  0  0  0  0
    1.2510    5.5670   -0.8480 Cl  0  0  0  0  0  0  0  0  0  0  0  0
    1.5000    1.0860    0.2760 N   0  0  0  0  0  0  0  0  0  0  0  0
    1.7870   -0.1170   -0.4850 C   0  0  1  0  0  0  0  0  0  0  0  0
    3.0390   -0.8310   -0.0670 C   0  0  2  0  0  0  0  0  0  0  0  0
    2.9900   -1.2410    1.2620 O   0  0  0  0  0  0  0  0  0  0  0  0
    4.2840   -0.0250   -0.3090 C   0  0  0  0  0  0  0  0  0  0  0  0
    5.4430   -0.8290    0.1360 C   0  0  0  0  0  0  0  0  0  0  0  0
    5.6160   -1.9310   -0.3490 O   0  0  0  0  0  0  0  0  0  0  0  0
    0.6550   -0.9070   -0.0690 O   0  0  0  0  0  0  0  0  0  0  0  0
   -2.9070    0.4520    0.1790 N   0  0  0  0  0  0  0  0  0  0  0  0
   -4.2760   -0.0150    0.1010 C   0  0  0  0  0  0  0  0  0  0  0  0
   -5.1960    0.8000    0.2470 O   0  0  0  0  0  0  0  0  0  0  0  0
   -4.5210   -1.3550   -0.1350 O   0  0  0  0  0  0  0  0  0  0  0  0
  1  2  1  0
  2  3  2  3
  3  4  1  0
  3 23  1  0
  4  5  2  0
  5  6  1  0
  5 20  1  0
  6  7  2  0
  6 19  1  0
  7  8  1  0
  7 12  1  0
  8  9  1  0
  9 10  1  0
 10 11  1  0
 13 12  1  1
 13 14  1  0
 13 19  1  0
 14 15  1  1
 14 16  1  0
 16 17  1  0
 17 18  2  0
 20 21  1  0
 21 22  2  0
 21 23  1  0
M  END
