
     RDKit          3D

 22 23  0  0  0  0  0  0  0  0999 V2000
   -0.5610   -2.5030    1.4880 C   0  0  0  0  0  0  0  0  0  0  0  0
   -1.4150   -1.8530    0.5100 C   0  0  0  0  0  0  0  0  0  0  0  0
   -2.4490   -2.7110    0.3030 O   0  0  0  0  0  0  0  0  0  0  0  0
   -1.5490   -0.6660   -0.2510 C   0  0  0  0  0  0  0  0  0  0  0  0
   -2.8140   -0.5900   -0.8170 C   0  0  0  0  0  0  0  0  0  0  0  0
   -3.1780    0.5160   -1.6290 N   0  0  0  0  0  0  0  0  0  0  0  0
   -3.7610   -1.5680   -0.6080 N   0  0  0  0  0  0  0  0  0  0  0  0
   -0.8910    0.5920   -0.3060 C   0  0  0  0  0  0  0  0  0  0  0  0
    0.3540    0.8430   -0.1650 C   0  0  0  0  0  0  0  0  0  0  0  0
    1.2880   -0.2450    0.0130 C   0  0  0  0  0  0  0  0  0  0  0  0
    2.5720    0.0180    0.2900 C   0  0  0  0  0  0  0  0  0  0  0  0
    3.1430    1.2630    0.4360 O   0  0  0  0  0  0  0  0  0  0  0  0
    3.3570   -1.2380    0.4300 C   0  0  1  0  0  0  0  0  0  0  0  0
    3.4640   -1.6920    1.7820 N   0  0  0  0  0  0  0  0  0  0  0  0
    2.4630   -2.1560   -0.4190 C   0  0  0  0  0  0  0  0  0  0  0  0
    1.2150   -1.6060   -0.0640 O   0  0  0  0  0  0  0  0  0  0  0  0
    0.9110    2.1500   -0.1730 O   0  0  0  0  0  0  0  0  0  0  0  0
    0.6290    3.2800   -0.9960 C   0  0  0  0  0  0  0  0  0  0  0  0
   -0.6830    3.7970   -0.6150 C   0  0  0  0  0  0  0  0  0  0  0  0
   -0.8710    4.9790   -0.7670 O   0  0  0  0  0  0  0  0  0  0  0  0
   -1.8010    3.0050   -0.0590 C   0  0  0  0  0  0  0  0  0  0  0  0
   -1.8310    1.6780   -0.5500 O   0  0  0  0  0  0  0  0  0  0  0  0
  1  2  1  0
  2  3  2  0
  2  4  1  0
  4  5  2  3
  4  8  1  0
  5  6  1  0
  5  7  1  0
  8  9  2  0
  8 22  1  0
  9 10  1  0
  9 17  1  0
 10 11  2  0
 10 16  1  0
 11 12  1  0
 11 13  1  0
 13 14  1  1
 13 15  1  0
 15 16  1  0
 17 18  1  0
 18 19  1  0
 19 20  2  0
 19 21  1  0
 21 22  1  0
M  END
