
     RDKit          3D

 23 24  0  0  0  0  0  0  0  0999 V2000
    2.2990    0.6510    2.9520 C   0  0  0  0  0  0  0  0  0  0  0  0
    2.7550   -0.2950    2.0070 O   0  0  0  0  0  0  0  0  0  0  0  0
    3.3470    0.1140    0.7970 C   0  0  0  0  0  0  0  0  0  0  0  0
    2.5480    0.3210   -0.3320 C   0  0  0  0  0  0  0  0  0  0  0  0
    1.1600    0.1160   -0.2340 N   0  0  0  0  0  0  0  0  0  0  0  0
    0.2140    0.2760   -1.2620 C   0  0  0  0  0  0  0  0  0  0  0  0
    0.5590    0.6350   -2.4040 O   0  0  0  0  0  0  0  0  0  0  0  0
   -1.2100    0.0240   -1.0110 C   0  0  0  0  0  0  0  0  0  0  0  0
   -1.7500   -0.3660    0.1580 C   0  0  0  0  0  0  0  0  0  0  0  0
   -3.2170   -0.5020   -0.0330 C   0  0  1  0  0  0  0  0  0  0  0  0
   -3.7630   -1.7120    0.6950 C   0  0  0  0  0  0  0  0  0  0  0  0
   -3.8650    0.7440    0.3700 C   0  0  0  0  0  0  0  0  0  0  0  0
   -3.1730    1.7010    0.7920 O   0  0  0  0  0  0  0  0  0  0  0  0
   -5.2430    0.9420    0.3120 O   0  0  0  0  0  0  0  0  0  0  0  0
   -3.2740   -0.7220   -1.5420 C   0  0  2  0  0  0  0  0  0  0  0  0
   -2.8360   -2.0650   -1.8290 N   0  0  0  0  0  0  0  0  0  0  0  0
   -2.2170    0.1530   -1.9540 O   0  0  0  0  0  0  0  0  0  0  0  0
    3.2070    0.7180   -1.4660 C   0  0  0  0  0  0  0  0  0  0  0  0
    4.5970    0.9020   -1.4850 C   0  0  0  0  0  0  0  0  0  0  0  0
    5.1800    1.2660   -2.5340 O   0  0  0  0  0  0  0  0  0  0  0  0
    5.3150    0.6920   -0.3850 N   0  0  0  0  0  0  0  0  0  0  0  0
    4.7030    0.3030    0.7440 C   0  0  0  0  0  0  0  0  0  0  0  0
    5.6760    0.0330    2.1820 Cl  0  0  0  0  0  0  0  0  0  0  0  0
  1  2  1  0
  2  3  1  0
  3  4  1  0
  3 22  2  0
  4  5  1  0
  4 18  2  0
  5  6  1  0
  6  7  2  0
  6  8  1  0
  8  9  2  0
  8 17  1  0
  9 10  1  0
 10 11  1  1
 10 12  1  0
 10 15  1  0
 12 13  2  0
 12 14  1  0
 15 16  1  1
 15 17  1  0
 18 19  1  0
 19 20  2  0
 19 21  1  0
 21 22  1  0
 22 23  1  0
M  END
