
     RDKit          3D

 23 23  0  0  0  0  0  0  0  0999 V2000
    4.8750    1.1620   -0.2220 C   0  0  0  0  0  0  0  0  0  0  0  0
    3.8750    0.0930   -0.2110 C   0  0  0  0  0  0  0  0  0  0  0  0
    2.5830    0.2260   -0.4960 C   0  0  0  0  0  0  0  0  0  0  0  0
    1.7400   -0.9980   -0.4240 C   0  0  0  0  0  0  0  0  0  0  0  0
    1.8350   -1.6190    0.8070 O   0  0  0  0  0  0  0  0  0  0  0  0
    0.8900   -2.2370    1.5610 C   0  0  0  0  0  0  0  0  0  0  0  0
    0.9090   -1.9750    2.8200 O   0  0  0  0  0  0  0  0  0  0  0  0
   -0.1160   -3.1350    1.1300 N   0  0  0  0  0  0  0  0  0  0  0  0
   -0.9860   -2.9940    0.0380 C   0  0  0  0  0  0  0  0  0  0  0  0
   -1.0910   -3.9610   -0.7970 O   0  0  0  0  0  0  0  0  0  0  0  0
   -1.7760   -1.8940   -0.2580 O   0  0  0  0  0  0  0  0  0  0  0  0
   -1.8960   -0.7250    0.4840 C   0  0  2  0  0  0  0  0  0  0  0  0
   -3.2180   -0.6420    1.1900 C   0  0  0  0  0  0  0  0  0  0  0  0
   -4.2110   -1.6270    1.1080 N   0  0  0  0  0  0  0  0  0  0  0  0
   -3.4170    0.3850    1.8880 O   0  0  0  0  0  0  0  0  0  0  0  0
   -1.8530    0.4470   -0.4670 C   0  0  1  0  0  0  0  0  0  0  0  0
   -3.2210    0.7570   -0.9140 N   0  0  0  0  0  0  0  0  0  0  0  0
   -1.3130    1.7010    0.1250 C   0  0  2  0  0  0  0  0  0  0  0  0
   -1.3390    2.6720   -0.9010 O   0  0  0  0  0  0  0  0  0  0  0  0
    0.0890    1.6340    0.6360 C   0  0  0  0  0  0  0  0  0  0  0  0
    1.0230    2.1510   -0.3790 C   0  0  0  0  0  0  0  0  0  0  0  0
    2.0930    1.5500   -0.8650 C   0  0  0  0  0  0  0  0  0  0  0  0
    3.0800    2.4040   -2.0930 Cl  0  0  0  0  0  0  0  0  0  0  0  0
  1  2  1  0
  2  3  2  3
  3  4  1  0
  3 22  1  0
  4  5  1  0
  5  6  1  0
  6  7  2  0
  6  8  1  0
  8  9  1  0
  9 10  2  0
  9 11  1  0
 11 12  1  0
 12 13  1  6
 12 16  1  0
 13 14  1  0
 13 15  2  0
 16 17  1  1
 16 18  1  0
 18 19  1  6
 18 20  1  0
 20 21  1  0
 21 22  2  0
 22 23  1  0
M  END
