
     RDKit          3D

 23 23  0  0  0  0  0  0  0  0999 V2000
    7.7780   -0.0630   -0.9600 C   0  0  0  0  0  0  0  0  0  0  0  0
    6.5380    0.5100   -1.3410 O   0  0  0  0  0  0  0  0  0  0  0  0
    5.3600    0.0610   -0.8140 C   0  0  0  0  0  0  0  0  0  0  0  0
    5.3880   -0.8770    0.0210 O   0  0  0  0  0  0  0  0  0  0  0  0
    4.0270    0.6130   -1.1670 C   0  0  0  0  0  0  0  0  0  0  0  0
    2.9640   -0.0400   -0.4700 N   0  0  0  0  0  0  0  0  0  0  0  0
    1.6330    0.3910   -0.7150 C   0  0  0  0  0  0  0  0  0  0  0  0
    1.3800    1.3230   -1.5210 O   0  0  0  0  0  0  0  0  0  0  0  0
    0.5050   -0.2330   -0.0380 C   0  0  0  0  0  0  0  0  0  0  0  0
    0.7310   -1.1660    0.7730 O   0  0  0  0  0  0  0  0  0  0  0  0
   -0.8370    0.1690   -0.2560 N   0  0  0  0  0  0  0  0  0  0  0  0
   -1.9610   -0.4520    0.4190 C   0  0  1  0  0  0  0  0  0  0  0  0
   -1.9690   -1.9130    0.0580 C   0  0  0  0  0  0  0  0  0  0  0  0
   -2.9560   -2.7980    0.5660 N   0  0  0  0  0  0  0  0  0  0  0  0
   -1.1020   -2.4110   -0.7070 O   0  0  0  0  0  0  0  0  0  0  0  0
   -1.9030   -0.2410    1.8920 C   0  0  0  0  0  0  0  0  0  0  0  0
   -2.5670    0.9820    2.4030 C   0  0  0  0  0  0  0  0  0  0  0  0
   -3.0430    1.9260    1.3270 C   0  0  0  0  0  0  0  0  0  0  0  0
   -4.0240    1.1360    0.4830 C   0  0  1  0  0  0  0  0  0  0  0  0
   -4.8590    2.1320   -0.6950 Cl  0  0  0  0  0  0  0  0  0  0  0  0
   -3.1970    0.1100   -0.2080 C   0  0  0  0  0  0  0  0  0  0  0  0
   -3.5510   -0.3120   -1.3820 C   0  0  0  0  0  0  0  0  0  0  0  0
   -4.6860    0.1850   -1.9900 O   0  0  0  0  0  0  0  0  0  0  0  0
  1  2  1  0
  2  3  1  0
  3  4  2  0
  3  5  1  0
  5  6  1  0
  6  7  1  0
  7  8  2  0
  7  9  1  0
  9 10  2  0
  9 11  1  0
 12 11  1  6
 12 13  1  0
 12 16  1  0
 12 21  1  0
 13 14  1  0
 13 15  2  0
 16 17  1  0
 17 18  1  0
 18 19  1  0
 19 20  1  6
 19 21  1  0
 21 22  2  3
 22 23  1  0
M  END
