
     RDKit          3D

 37 39  0  0  0  0  0  0  0  0999 V2000
    5.5150   -3.4390    2.8130 C   0  0  0  0  0  0  0  0  0  0  0  0
    5.7530   -2.2150    3.6370 C   0  0  0  0  0  0  0  0  0  0  0  0
    5.4930   -1.0340    3.0740 C   0  0  0  0  0  0  0  0  0  0  0  0
    4.9980   -0.9280    1.7130 C   0  0  0  0  0  0  0  0  0  0  0  0
    4.7400    0.2410    1.1730 C   0  0  0  0  0  0  0  0  0  0  0  0
    4.2480    0.2110   -0.2210 C   0  0  0  0  0  0  0  0  0  0  0  0
    4.9300   -0.7830   -0.9420 C   0  0  0  0  0  0  0  0  0  0  0  0
    4.6170   -0.9410   -2.2730 C   0  0  0  0  0  0  0  0  0  0  0  0
    3.6730   -0.1530   -2.8720 C   0  0  0  0  0  0  0  0  0  0  0  0
    3.2880   -0.3770   -4.5720 Cl  0  0  0  0  0  0  0  0  0  0  0  0
    3.0230    0.8210   -2.1130 C   0  0  0  0  0  0  0  0  0  0  0  0
    3.2990    1.0190   -0.7770 C   0  0  0  0  0  0  0  0  0  0  0  0
    2.4690    2.0870   -0.1380 C   0  0  1  0  0  0  0  0  0  0  0  0
    1.2980    1.5330    0.4480 N   0  0  0  0  0  0  0  0  0  0  0  0
    0.0230    1.1260    0.0110 C   0  0  0  0  0  0  0  0  0  0  0  0
   -0.9180   -0.0110    1.1800 S   0  0  0  0  0  0  0  0  0  0  0  0
   -2.3330   -0.1560    0.1460 C   0  0  0  0  0  0  0  0  0  0  0  0
   -3.5410   -0.9460    0.4830 C   0  0  0  0  0  0  0  0  0  0  0  0
   -3.6350   -1.5570    1.5510 O   0  0  0  0  0  0  0  0  0  0  0  0
   -4.5890   -1.0010   -0.4190 O   0  0  0  0  0  0  0  0  0  0  0  0
   -5.7790   -1.7580   -0.1080 C   0  0  2  0  0  0  0  0  0  0  0  0
   -5.8940   -2.8080   -1.1310 C   0  0  0  0  0  0  0  0  0  0  0  0
   -6.9900   -3.8000   -1.0620 C   0  0  0  0  0  0  0  0  0  0  0  0
   -5.1000   -2.8780   -2.0350 O   0  0  0  0  0  0  0  0  0  0  0  0
   -6.9220   -0.7730   -0.1450 C   0  0  2  0  0  0  0  0  0  0  0  0
   -6.6810    0.3300    0.8890 C   0  0  0  0  0  0  0  0  0  0  0  0
   -8.2640   -1.3480    0.1430 C   0  0  0  0  0  0  0  0  0  0  0  0
   -2.0410    0.5800   -0.8950 C   0  0  0  0  0  0  0  0  0  0  0  0
   -0.8520    1.2500   -0.9950 C   0  0  0  0  0  0  0  0  0  0  0  0
   -0.6170    2.2430   -2.0930 C   0  0  0  0  0  0  0  0  0  0  0  0
   -1.4610    2.2760   -3.0500 O   0  0  0  0  0  0  0  0  0  0  0  0
    0.3850    3.1250   -2.1870 O   0  0  0  0  0  0  0  0  0  0  0  0
    0.6060    4.0670   -3.1990 C   0  0  0  0  0  0  0  0  0  0  0  0
    3.1910    2.8840    0.9250 C   0  0  0  0  0  0  0  0  0  0  0  0
    4.6240    2.6610    1.1190 C   0  0  0  0  0  0  0  0  0  0  0  0
    4.9570    1.4580    2.0210 C   0  0  1  0  0  0  0  0  0  0  0  0
    3.8090    1.4230    3.3610 Cl  0  0  0  0  0  0  0  0  0  0  0  0
  1  2  1  0
  2  3  2  3
  3  4  1  0
  4  5  2  3
  5  6  1  0
  5 36  1  0
  6  7  2  0
  6 12  1  0
  7  8  1  0
  8  9  2  0
  9 10  1  0
  9 11  1  0
 11 12  2  0
 12 13  1  0
 13 14  1  1
 13 34  1  0
 14 15  1  0
 15 16  1  0
 15 29  2  0
 16 17  1  0
 17 18  1  0
 17 28  2  0
 18 19  2  0
 18 20  1  0
 21 20  1  6
 21 22  1  0
 21 25  1  0
 22 23  1  0
 22 24  2  0
 25 26  1  1
 25 27  1  0
 28 29  1  0
 29 30  1  0
 30 31  2  0
 30 32  1  0
 32 33  1  0
 34 35  1  0
 35 36  1  0
 36 37  1  1
M  END
