
     RDKit          3D

 37 39  0  0  0  0  0  0  0  0999 V2000
   10.7270   -1.3120   -2.1700 C   0  0  0  0  0  0  0  0  0  0  0  0
    9.3670   -1.3720   -1.7320 O   0  0  0  0  0  0  0  0  0  0  0  0
    8.8440   -0.3520   -0.9610 C   0  0  0  0  0  0  0  0  0  0  0  0
    9.5930    0.6110   -0.6660 O   0  0  0  0  0  0  0  0  0  0  0  0
    7.4420   -0.3860   -0.4930 C   0  0  0  0  0  0  0  0  0  0  0  0
    6.6180   -1.4370   -0.8120 C   0  0  0  0  0  0  0  0  0  0  0  0
    5.3140   -1.4710   -0.3780 C   0  0  0  0  0  0  0  0  0  0  0  0
    4.8160   -0.4380    0.3920 C   0  0  0  0  0  0  0  0  0  0  0  0
    3.4210   -0.4900    0.8480 C   0  0  0  0  0  0  0  0  0  0  0  0
    3.0000    0.4770    1.5530 O   0  0  0  0  0  0  0  0  0  0  0  0
    2.5690   -1.6360    0.4830 C   0  0  0  0  0  0  0  0  0  0  0  0
    0.9520   -1.4100    1.1570 S   0  0  2  0  0  0  0  0  0  0  0  0
    1.0500   -1.1900    2.6600 O   0  0  0  0  0  0  0  0  0  0  0  0
    0.0780   -2.5750    0.8350 O   0  0  0  0  0  0  0  0  0  0  0  0
    0.2280    0.0940    0.4930 C   0  0  0  0  0  0  0  0  0  0  0  0
   -1.1350    0.2550    1.0830 C   0  0  0  0  0  0  0  0  0  0  0  0
   -1.4730   -0.6510    1.9130 O   0  0  0  0  0  0  0  0  0  0  0  0
   -2.0300    1.3310    0.7660 C   0  0  0  0  0  0  0  0  0  0  0  0
   -1.7220    2.3350   -0.0370 C   0  0  0  0  0  0  0  0  0  0  0  0
   -0.1610    2.4300   -0.8380 Cl  0  0  0  0  0  0  0  0  0  0  0  0
   -2.5490    3.5380   -0.0770 C   0  0  0  0  0  0  0  0  0  0  0  0
   -2.2010    4.6560   -1.0150 C   0  0  0  0  0  0  0  0  0  0  0  0
   -3.5840    3.6290    0.7020 C   0  0  0  0  0  0  0  0  0  0  0  0
   -3.9900    2.5290    1.6930 C   0  0  1  0  0  0  0  0  0  0  0  0
   -5.4300    2.7620    1.9150 C   0  0  0  0  0  0  0  0  0  0  0  0
   -5.5470    4.4920    2.5900 Cl  0  0  0  0  0  0  0  0  0  0  0  0
   -3.4820    1.2410    1.2000 C   0  0  0  0  0  0  0  0  0  0  0  0
   -4.1660    0.1540    0.9800 C   0  0  0  0  0  0  0  0  0  0  0  0
   -5.5750    0.0020    1.4070 C   0  0  0  0  0  0  0  0  0  0  0  0
   -3.6400   -0.9640    0.1520 C   0  0  1  0  0  0  0  0  0  0  0  0
   -3.7990   -2.2990    0.7390 C   0  0  0  0  0  0  0  0  0  0  0  0
   -4.0070   -3.2040   -0.2160 C   0  0  0  0  0  0  0  0  0  0  0  0
   -4.0020   -2.4930   -1.5530 C   0  0  1  0  0  0  0  0  0  0  0  0
   -4.8750   -3.1820   -2.5390 C   0  0  0  0  0  0  0  0  0  0  0  0
   -4.5970   -1.1530   -1.0820 C   0  0  0  0  0  0  0  0  0  0  0  0
    5.6350    0.6210    0.7180 C   0  0  0  0  0  0  0  0  0  0  0  0
    6.9300    0.6360    0.2760 C   0  0  0  0  0  0  0  0  0  0  0  0
  1  2  1  0
  2  3  1  0
  3  4  2  0
  3  5  1  0
  5  6  2  0
  5 37  1  0
  6  7  1  0
  7  8  2  0
  8  9  1  0
  8 36  1  0
  9 10  2  0
  9 11  1  0
 12 11  1  6
 12 13  2  0
 12 14  2  0
 12 15  1  0
 15 16  1  0
 16 17  2  0
 16 18  1  0
 18 19  2  0
 18 27  1  0
 19 20  1  0
 19 21  1  0
 21 22  1  0
 21 23  2  0
 23 24  1  0
 24 25  1  6
 24 27  1  0
 25 26  1  0
 27 28  2  3
 28 29  1  0
 30 28  1  1
 30 31  1  0
 30 35  1  0
 31 32  2  0
 32 33  1  0
 33 34  1  6
 33 35  1  0
 36 37  2  0
M  END
