
     RDKit          3D

 37 41  0  0  0  0  0  0  0  0999 V2000
    6.8340    4.8580   -0.8160 C   0  0  0  0  0  0  0  0  0  0  0  0
    5.1120    4.5410   -0.6180 S   0  0  1  0  0  0  0  0  0  0  0  0
    4.6010    5.3530    0.5340 O   0  0  0  0  0  0  0  0  0  0  0  0
    4.3800    4.9930   -1.8470 O   0  0  0  0  0  0  0  0  0  0  0  0
    4.7940    2.8320   -0.3580 C   0  0  0  0  0  0  0  0  0  0  0  0
    4.5590    1.9670   -1.4060 C   0  0  0  0  0  0  0  0  0  0  0  0
    4.3100    0.6210   -1.1790 C   0  0  0  0  0  0  0  0  0  0  0  0
    4.2870    0.0950    0.0960 C   0  0  0  0  0  0  0  0  0  0  0  0
    4.0260   -1.3190    0.3480 C   0  0  0  0  0  0  0  0  0  0  0  0
    4.8180   -2.0130    1.2510 C   0  0  0  0  0  0  0  0  0  0  0  0
    4.6500   -3.3330    1.5500 C   0  0  0  0  0  0  0  0  0  0  0  0
    3.6320   -4.0270    0.9200 C   0  0  0  0  0  0  0  0  0  0  0  0
    3.4210   -5.3760    1.1930 C   0  0  0  0  0  0  0  0  0  0  0  0
    2.4120   -6.0740    0.5720 C   0  0  0  0  0  0  0  0  0  0  0  0
    2.1990   -7.4100    0.8390 O   0  0  0  0  0  0  0  0  0  0  0  0
    1.6130   -5.4010   -0.3300 C   0  0  0  0  0  0  0  0  0  0  0  0
    1.8010   -4.0620   -0.6190 C   0  0  0  0  0  0  0  0  0  0  0  0
    2.8220   -3.3670    0.0130 C   0  0  0  0  0  0  0  0  0  0  0  0
    3.0150   -2.0130   -0.2760 C   0  0  0  0  0  0  0  0  0  0  0  0
    2.1970   -1.3930   -1.1770 O   0  0  0  0  0  0  0  0  0  0  0  0
    1.0180   -0.7520   -0.9090 C   0  0  0  0  0  0  0  0  0  0  0  0
    0.3310   -0.1800   -1.9710 C   0  0  0  0  0  0  0  0  0  0  0  0
   -0.8660    0.4850   -1.7870 C   0  0  0  0  0  0  0  0  0  0  0  0
   -1.4250    0.6060   -0.5350 C   0  0  0  0  0  0  0  0  0  0  0  0
   -2.6310    1.2770   -0.3570 O   0  0  0  0  0  0  0  0  0  0  0  0
   -3.2440    1.4290    0.8970 C   0  0  0  0  0  0  0  0  0  0  0  0
   -4.5310    2.2130    0.6650 C   0  0  0  0  0  0  0  0  0  0  0  0
   -5.3450    1.4210   -0.2500 N   0  0  1  0  0  0  0  0  0  0  0  0
   -5.5530    0.1130    0.2870 C   0  0  0  0  0  0  0  0  0  0  0  0
   -6.7790   -0.5620   -0.2870 C   0  0  0  0  0  0  0  0  0  0  0  0
   -8.0410    0.1900    0.0460 C   0  0  0  0  0  0  0  0  0  0  0  0
   -7.7220    1.6390    0.3520 C   0  0  0  0  0  0  0  0  0  0  0  0
   -6.5870    2.1210   -0.5320 C   0  0  0  0  0  0  0  0  0  0  0  0
   -0.7550    0.0440    0.5320 C   0  0  0  0  0  0  0  0  0  0  0  0
    0.4450   -0.6220    0.3370 C   0  0  0  0  0  0  0  0  0  0  0  0
    4.5220    0.9580    1.1450 C   0  0  0  0  0  0  0  0  0  0  0  0
    4.7720    2.3090    0.9180 C   0  0  0  0  0  0  0  0  0  0  0  0
  2  1  1  6
  2  3  2  0
  2  4  2  0
  2  5  1  0
  5  6  2  0
  5 37  1  0
  6  7  1  0
  7  8  2  0
  8  9  1  0
  8 36  1  0
  9 10  2  0
  9 19  1  0
 10 11  1  0
 11 12  2  0
 12 13  1  0
 12 18  1  0
 13 14  2  0
 14 15  1  0
 14 16  1  0
 16 17  2  0
 17 18  1  0
 18 19  2  0
 19 20  1  0
 20 21  1  0
 21 22  2  0
 21 35  1  0
 22 23  1  0
 23 24  2  0
 24 25  1  0
 24 34  1  0
 25 26  1  0
 26 27  1  0
 28 27  1  1
 28 29  1  0
 28 33  1  0
 29 30  1  0
 30 31  1  0
 31 32  1  0
 32 33  1  0
 34 35  2  0
 36 37  2  0
M  CHG  1  28   1
M  END
