
     RDKit          3D

 37 39  0  0  0  0  0  0  0  0999 V2000
    9.1250    0.4020   -2.9250 C   0  0  0  0  0  0  0  0  0  0  0  0
    9.0010    1.8370   -2.4950 C   0  0  0  0  0  0  0  0  0  0  0  0
    8.4110    1.9430   -1.2150 O   0  0  0  0  0  0  0  0  0  0  0  0
    7.1470    1.4770   -0.9140 C   0  0  0  0  0  0  0  0  0  0  0  0
    6.4830    0.9320   -1.8090 O   0  0  0  0  0  0  0  0  0  0  0  0
    6.6730    1.6690    0.4890 C   0  0  2  0  0  0  0  0  0  0  0  0
    7.5380    0.8540    1.4570 C   0  0  0  0  0  0  0  0  0  0  0  0
    5.3710    1.1240    0.5600 O   0  0  0  0  0  0  0  0  0  0  0  0
    4.3350    1.9400    0.9570 C   0  0  0  0  0  0  0  0  0  0  0  0
    4.6130    3.1710    1.2440 O   0  0  0  0  0  0  0  0  0  0  0  0
    2.9730    1.5260    1.0700 C   0  0  0  0  0  0  0  0  0  0  0  0
    2.0130    2.5100    1.3460 C   0  0  0  0  0  0  0  0  0  0  0  0
    0.6730    2.2360    1.4070 C   0  0  0  0  0  0  0  0  0  0  0  0
    0.1780    0.9560    1.1990 C   0  0  0  0  0  0  0  0  0  0  0  0
   -1.2100    0.7260    1.2800 N   0  0  0  0  0  0  0  0  0  0  0  0
   -1.9300   -0.4240    0.9490 C   0  0  0  0  0  0  0  0  0  0  0  0
   -1.3380   -1.4270    0.5090 O   0  0  0  0  0  0  0  0  0  0  0  0
   -3.3830   -0.5440    1.0830 C   0  0  0  0  0  0  0  0  0  0  0  0
   -3.9170   -1.0080    2.2660 C   0  0  0  0  0  0  0  0  0  0  0  0
   -5.2770   -1.1380    2.4350 C   0  0  0  0  0  0  0  0  0  0  0  0
   -6.1400   -0.8000    1.4090 C   0  0  0  0  0  0  0  0  0  0  0  0
   -5.6130   -0.3260    0.1970 C   0  0  0  0  0  0  0  0  0  0  0  0
   -4.2590   -0.2130    0.0730 C   0  0  0  0  0  0  0  0  0  0  0  0
   -3.5740    0.3720   -1.4080 Cl  0  0  0  0  0  0  0  0  0  0  0  0
   -6.6040    0.0010   -0.8200 C   0  0  1  0  0  0  0  0  0  0  0  0
   -7.4100    1.2010   -0.3020 C   0  0  0  0  0  0  0  0  0  0  0  0
   -6.1230    0.3690   -2.1760 C   0  0  0  0  0  0  0  0  0  0  0  0
   -7.5790   -1.1550   -0.9190 C   0  0  0  0  0  0  0  0  0  0  0  0
   -8.2010   -1.5450    0.3660 C   0  0  2  0  0  0  0  0  0  0  0  0
   -9.9450   -1.1090    0.3300 Cl  0  0  0  0  0  0  0  0  0  0  0  0
   -7.6170   -0.9330    1.5830 C   0  0  0  0  0  0  0  0  0  0  0  0
    1.1280   -0.0030    0.9300 C   0  0  0  0  0  0  0  0  0  0  0  0
    2.5040    0.2470    0.8610 C   0  0  0  0  0  0  0  0  0  0  0  0
    3.4450   -0.8320    0.6820 C   0  0  0  0  0  0  0  0  0  0  0  0
    3.2140   -2.0200    0.2350 C   0  0  0  0  0  0  0  0  0  0  0  0
    1.6860   -2.6780   -0.2950 S   0  0  0  0  0  0  0  0  0  0  0  0
    1.8090   -4.4430   -0.6630 C   0  0  0  0  0  0  0  0  0  0  0  0
  1  2  1  0
  2  3  1  0
  3  4  1  0
  4  5  2  0
  4  6  1  0
  6  7  1  1
  6  8  1  0
  8  9  1  0
  9 10  2  0
  9 11  1  0
 11 12  2  0
 11 33  1  0
 12 13  1  0
 13 14  2  0
 14 15  1  0
 14 32  1  0
 15 16  1  0
 16 17  2  0
 16 18  1  0
 18 19  2  0
 18 23  1  0
 19 20  1  0
 20 21  2  0
 21 22  1  0
 21 31  1  0
 22 23  2  0
 22 25  1  0
 23 24  1  0
 25 26  1  1
 25 27  1  0
 25 28  1  0
 28 29  1  0
 29 30  1  6
 29 31  1  0
 32 33  2  0
 33 34  1  0
 34 35  2  3
 35 36  1  0
 36 37  1  0
M  END
