
     RDKit          3D

 37 39  0  0  0  0  0  0  0  0999 V2000
    8.1850    3.0570   -1.2470 C   0  0  0  0  0  0  0  0  0  0  0  0
    7.3640    1.9980   -0.5890 C   0  0  0  0  0  0  0  0  0  0  0  0
    6.1900    2.2560    0.0690 C   0  0  0  0  0  0  0  0  0  0  0  0
    5.4220    1.2600    0.7040 C   0  0  0  0  0  0  0  0  0  0  0  0
    4.2420    1.6550    1.4110 N   0  0  0  0  0  0  0  0  0  0  0  0
    3.0910    2.6900    0.7120 S   0  0  1  0  0  0  0  0  0  0  0  0
    3.0200    3.9930    1.4950 O   0  0  0  0  0  0  0  0  0  0  0  0
    3.4740    3.0120   -0.7330 O   0  0  0  0  0  0  0  0  0  0  0  0
    1.5250    1.9500    0.6310 C   0  0  0  0  0  0  0  0  0  0  0  0
    1.2740    0.7370    1.1890 C   0  0  0  0  0  0  0  0  0  0  0  0
   -0.0370    0.2450    1.1800 C   0  0  0  0  0  0  0  0  0  0  0  0
   -1.1070    0.9140    0.6380 C   0  0  0  0  0  0  0  0  0  0  0  0
   -2.4910    0.4820    0.6950 C   0  0  0  0  0  0  0  0  0  0  0  0
   -3.3880    1.2150    0.1870 O   0  0  0  0  0  0  0  0  0  0  0  0
   -2.8900   -0.6710    1.2750 O   0  0  0  0  0  0  0  0  0  0  0  0
   -4.1080   -1.2350    1.4860 C   0  0  0  0  0  0  0  0  0  0  0  0
   -4.9510   -1.5030    0.2890 C   0  0  1  0  0  0  0  0  0  0  0  0
   -6.2960   -2.0000    0.8780 C   0  0  0  0  0  0  0  0  0  0  0  0
   -7.4920   -1.5510    0.1360 C   0  0  1  0  0  0  0  0  0  0  0  0
   -8.2080   -0.3980    0.7640 C   0  0  2  0  0  0  0  0  0  0  0  0
   -9.4210    0.0120   -0.0350 C   0  0  0  0  0  0  0  0  0  0  0  0
   -7.3850    0.8150    1.0430 C   0  0  0  0  0  0  0  0  0  0  0  0
   -7.2710   -1.4130   -1.3550 C   0  0  0  0  0  0  0  0  0  0  0  0
   -5.8910   -0.8690   -1.6570 C   0  0  1  0  0  0  0  0  0  0  0  0
   -6.0730    0.2140   -2.6980 C   0  0  0  0  0  0  0  0  0  0  0  0
   -4.5760    0.9830   -3.1940 Cl  0  0  0  0  0  0  0  0  0  0  0  0
   -5.2590   -0.4240   -0.5000 O   0  0  0  0  0  0  0  0  0  0  0  0
   -0.7850    2.1570    0.0720 C   0  0  0  0  0  0  0  0  0  0  0  0
    0.4710    2.6730    0.0580 C   0  0  0  0  0  0  0  0  0  0  0  0
    0.8480    4.2270   -0.6790 Cl  0  0  0  0  0  0  0  0  0  0  0  0
    5.9000   -0.0030    0.6360 C   0  0  0  0  0  0  0  0  0  0  0  0
    7.0820   -0.3340   -0.0140 C   0  0  0  0  0  0  0  0  0  0  0  0
    7.5250   -1.7320   -0.0340 C   0  0  2  0  0  0  0  0  0  0  0  0
    6.5880   -2.5660   -0.8540 C   0  0  0  0  0  0  0  0  0  0  0  0
    7.5650   -2.2650    1.3800 C   0  0  0  0  0  0  0  0  0  0  0  0
    8.9140   -1.8760   -0.6330 C   0  0  0  0  0  0  0  0  0  0  0  0
    7.7970    0.6810   -0.6180 C   0  0  0  0  0  0  0  0  0  0  0  0
  1  2  1  0
  2  3  2  0
  2 37  1  0
  3  4  1  0
  4  5  1  0
  4 31  2  0
  6  5  1  1
  6  7  2  0
  6  8  2  0
  6  9  1  0
  9 10  2  0
  9 29  1  0
 10 11  1  0
 11 12  2  0
 12 13  1  0
 12 28  1  0
 13 14  2  0
 13 15  1  0
 15 16  1  0
 17 16  1  1
 17 18  1  0
 17 27  1  0
 19 18  1  1
 19 20  1  0
 19 23  1  0
 20 21  1  6
 20 22  1  0
 23 24  1  0
 24 25  1  6
 24 27  1  0
 25 26  1  0
 28 29  2  0
 29 30  1  0
 31 32  1  0
 32 33  1  0
 32 37  2  0
 33 34  1  6
 33 35  1  0
 33 36  1  0
M  END
