
     RDKit          3D

 40 43  0  0  0  0  0  0  0  0999 V2000
    7.7580   -1.5560    0.5730 C   0  0  0  0  0  0  0  0  0  0  0  0
    6.6440   -0.8990    0.5130 C   0  0  0  0  0  0  0  0  0  0  0  0
    5.4770   -1.6470    0.3710 C   0  0  0  0  0  0  0  0  0  0  0  0
    4.2420   -1.0250    0.3040 C   0  0  0  0  0  0  0  0  0  0  0  0
    3.0960   -1.8120    0.1620 O   0  0  0  0  0  0  0  0  0  0  0  0
    3.2030   -3.2160    0.0890 C   0  0  0  0  0  0  0  0  0  0  0  0
    4.1050    0.3300    0.3710 C   0  0  0  0  0  0  0  0  0  0  0  0
    2.8430    1.0420    0.3060 C   0  0  0  0  0  0  0  0  0  0  0  0
    2.8960    2.3220    0.3880 O   0  0  0  0  0  0  0  0  0  0  0  0
    1.5490    0.5110    0.1620 N   0  0  0  0  0  0  0  0  0  0  0  0
    0.3920    1.3510    0.1150 C   0  0  0  0  0  0  0  0  0  0  0  0
    0.5620    3.1760    0.2520 S   0  0  0  0  0  0  0  0  0  0  0  0
   -1.1830    3.4840    0.1140 C   0  0  0  0  0  0  0  0  0  0  0  0
   -1.7350    4.6990    0.1450 F   0  0  0  0  0  0  0  0  0  0  0  0
   -1.7520    2.2100   -0.0240 C   0  0  0  0  0  0  0  0  0  0  0  0
   -3.2440    2.2540   -0.1610 C   0  0  0  0  0  0  0  0  0  0  0  0
   -4.0240    2.2600    0.9690 C   0  0  0  0  0  0  0  0  0  0  0  0
   -5.4200    2.3550    0.8760 C   0  0  0  0  0  0  0  0  0  0  0  0
   -6.0350    2.4430   -0.3520 C   0  0  0  0  0  0  0  0  0  0  0  0
   -7.5240    2.5410   -0.4000 C   0  0  0  0  0  0  0  0  0  0  0  0
   -5.2550    2.4370   -1.4790 C   0  0  0  0  0  0  0  0  0  0  0  0
   -3.8680    2.3430   -1.3840 C   0  0  0  0  0  0  0  0  0  0  0  0
   -0.9380    1.1430   -0.0210 C   0  0  0  0  0  0  0  0  0  0  0  0
   -1.4120   -0.2690   -0.1560 C   0  0  0  0  0  0  0  0  0  0  0  0
   -0.5240   -1.1920   -0.1480 O   0  0  0  0  0  0  0  0  0  0  0  0
   -2.7070   -0.7140   -0.2910 N   0  0  0  0  0  0  0  0  0  0  0  0
   -3.0430   -2.1540   -0.4190 C   0  0  2  0  0  0  0  0  0  0  0  0
   -3.6930   -2.4240   -1.7010 C   0  0  0  0  0  0  0  0  0  0  0  0
   -4.8560   -3.0120   -1.7830 C   0  0  0  0  0  0  0  0  0  0  0  0
   -5.5100   -3.2680   -3.4230 Cl  0  0  0  0  0  0  0  0  0  0  0  0
   -5.6460   -3.4640   -0.6290 C   0  0  0  0  0  0  0  0  0  0  0  0
   -7.1920   -4.2410   -0.8560 Cl  0  0  0  0  0  0  0  0  0  0  0  0
   -5.1170   -3.2460    0.5600 C   0  0  0  0  0  0  0  0  0  0  0  0
   -5.8180   -3.6510    1.6830 F   0  0  0  0  0  0  0  0  0  0  0  0
   -3.8330   -2.5950    0.7160 C   0  0  0  0  0  0  0  0  0  0  0  0
   -3.4440   -2.4380    1.9240 O   0  0  0  0  0  0  0  0  0  0  0  0
    5.2760    1.0740    0.5130 C   0  0  0  0  0  0  0  0  0  0  0  0
    6.5440    0.4750    0.5840 C   0  0  0  0  0  0  0  0  0  0  0  0
    7.5350    1.2980    0.7070 C   0  0  0  0  0  0  0  0  0  0  0  0
    8.9600    1.0570    0.8020 C   0  0  0  0  0  0  0  0  0  0  0  0
  1  2  2  0
  2  3  1  0
  2 38  1  0
  3  4  2  0
  4  5  1  0
  4  7  1  0
  5  6  1  0
  7  8  1  0
  7 37  2  0
  8  9  2  0
  8 10  1  0
 10 11  1  0
 11 12  1  0
 11 23  2  0
 12 13  1  0
 13 14  1  0
 13 15  2  0
 15 16  1  0
 15 23  1  0
 16 17  2  0
 16 22  1  0
 17 18  1  0
 18 19  2  0
 19 20  1  0
 19 21  1  0
 21 22  2  0
 23 24  1  0
 24 25  2  0
 24 26  1  0
 27 26  1  1
 27 28  1  0
 27 35  1  0
 28 29  2  0
 29 30  1  0
 29 31  1  0
 31 32  1  0
 31 33  2  0
 33 34  1  0
 33 35  1  0
 35 36  2  0
 37 38  1  0
 38 39  2  3
 39 40  1  0
M  END
