
     RDKit          3D

 40 43  0  0  0  0  0  0  0  0999 V2000
   -6.1460   -3.8080    1.0340 C   0  0  0  0  0  0  0  0  0  0  0  0
   -6.3130   -2.3900    1.4030 C   0  0  0  0  0  0  0  0  0  0  0  0
   -7.1730   -2.0250    2.3850 C   0  0  0  0  0  0  0  0  0  0  0  0
   -7.3220   -0.7150    2.7190 C   0  0  0  0  0  0  0  0  0  0  0  0
   -8.4350   -0.2190    3.9940 Cl  0  0  0  0  0  0  0  0  0  0  0  0
   -6.6120    0.2660    2.0770 C   0  0  0  0  0  0  0  0  0  0  0  0
   -6.7740    1.9620    2.4750 Cl  0  0  0  0  0  0  0  0  0  0  0  0
   -5.7340   -0.1240    1.0710 C   0  0  0  0  0  0  0  0  0  0  0  0
   -5.5620   -1.4260    0.7120 C   0  0  0  0  0  0  0  0  0  0  0  0
   -4.6060   -1.8620   -0.3200 C   0  0  0  0  0  0  0  0  0  0  0  0
   -3.9930   -0.7810   -0.9590 O   0  0  0  0  0  0  0  0  0  0  0  0
   -4.6280    0.1540   -1.7500 C   0  0  0  0  0  0  0  0  0  0  0  0
   -5.9610    0.1080   -2.0220 C   0  0  0  0  0  0  0  0  0  0  0  0
   -6.5700    1.0470   -2.8150 C   0  0  0  0  0  0  0  0  0  0  0  0
   -5.8200    2.0540   -3.3460 C   0  0  0  0  0  0  0  0  0  0  0  0
   -4.4420    2.1100   -3.0720 C   0  0  0  0  0  0  0  0  0  0  0  0
   -3.8240    1.1790   -2.2820 C   0  0  0  0  0  0  0  0  0  0  0  0
   -2.4370    1.1950   -1.9780 N   0  0  0  0  0  0  0  0  0  0  0  0
   -1.4750    2.1080   -2.3930 C   0  0  0  0  0  0  0  0  0  0  0  0
   -1.8110    3.0640   -3.1310 O   0  0  0  0  0  0  0  0  0  0  0  0
   -0.0560    2.0360   -2.0210 C   0  0  0  0  0  0  0  0  0  0  0  0
    0.4830    1.0680   -1.2300 C   0  0  0  0  0  0  0  0  0  0  0  0
    1.8040    0.9580   -0.8550 C   0  0  0  0  0  0  0  0  0  0  0  0
    2.8460    1.7690   -1.1800 C   0  0  0  0  0  0  0  0  0  0  0  0
    4.2080    1.5600   -0.7270 N   0  0  0  0  0  0  0  0  0  0  0  0
    4.6830    0.5450    0.0830 C   0  0  0  0  0  0  0  0  0  0  0  0
    3.8840   -0.3340    0.5050 O   0  0  0  0  0  0  0  0  0  0  0  0
    6.0800    0.3860    0.5140 C   0  0  0  0  0  0  0  0  0  0  0  0
    6.4600   -0.8370    1.0830 C   0  0  0  0  0  0  0  0  0  0  0  0
    7.7430   -1.0970    1.5000 C   0  0  0  0  0  0  0  0  0  0  0  0
    8.0850   -2.4140    2.0950 C   0  0  0  0  0  0  0  0  0  0  0  0
    8.7240   -0.1320    1.3670 C   0  0  0  0  0  0  0  0  0  0  0  0
   10.1200   -0.3850    1.8090 C   0  0  0  0  0  0  0  0  0  0  0  0
    8.3660    1.0750    0.8110 C   0  0  0  0  0  0  0  0  0  0  0  0
    9.2990    2.0390    0.6670 F   0  0  0  0  0  0  0  0  0  0  0  0
    7.0530    1.3430    0.3830 C   0  0  0  0  0  0  0  0  0  0  0  0
    6.7990    2.5500   -0.1310 F   0  0  0  0  0  0  0  0  0  0  0  0
    2.6590    2.8920   -1.9990 C   0  0  0  0  0  0  0  0  0  0  0  0
    3.6300    3.6570   -2.3070 O   0  0  0  0  0  0  0  0  0  0  0  0
    1.0960    3.1890   -2.5570 S   0  0  0  0  0  0  0  0  0  0  0  0
  1  2  1  0
  2  3  2  0
  2  9  1  0
  3  4  1  0
  4  5  1  0
  4  6  2  0
  6  7  1  0
  6  8  1  0
  8  9  2  0
  9 10  1  0
 10 11  1  0
 11 12  1  0
 12 13  2  0
 12 17  1  0
 13 14  1  0
 14 15  2  0
 15 16  1  0
 16 17  2  0
 17 18  1  0
 18 19  1  0
 19 20  2  0
 19 21  1  0
 21 22  2  0
 21 40  1  0
 22 23  1  0
 23 24  2  0
 24 25  1  0
 24 38  1  0
 25 26  1  0
 26 27  2  0
 26 28  1  0
 28 29  2  0
 28 36  1  0
 29 30  1  0
 30 31  1  0
 30 32  2  0
 32 33  1  0
 32 34  1  0
 34 35  1  0
 34 36  2  0
 36 37  1  0
 38 39  2  0
 38 40  1  0
M  END
