
     RDKit          3D

 40 43  0  0  0  0  0  0  0  0999 V2000
    0.1180   -3.8420    2.3720 C   0  0  0  0  0  0  0  0  0  0  0  0
    1.3330   -3.2400    1.9190 O   0  0  0  0  0  0  0  0  0  0  0  0
    1.2860   -2.0620    1.2150 C   0  0  0  0  0  0  0  0  0  0  0  0
    0.0840   -1.4500    0.9380 C   0  0  0  0  0  0  0  0  0  0  0  0
    0.0530   -0.2740    0.2330 C   0  0  0  0  0  0  0  0  0  0  0  0
   -1.2090    0.3990   -0.0720 C   0  0  0  0  0  0  0  0  0  0  0  0
   -1.2060    1.4000   -0.8780 O   0  0  0  0  0  0  0  0  0  0  0  0
   -2.4520    0.0060    0.4790 N   0  0  0  0  0  0  0  0  0  0  0  0
   -3.6220    0.7480    0.1000 C   0  0  0  0  0  0  0  0  0  0  0  0
   -4.8520    0.5300    0.5080 C   0  0  0  0  0  0  0  0  0  0  0  0
   -5.5600   -0.4260    1.4120 C   0  0  0  0  0  0  0  0  0  0  0  0
   -4.9680   -1.2580    2.4700 C   0  0  0  0  0  0  0  0  0  0  0  0
   -6.8450   -0.3850    1.0800 C   0  0  0  0  0  0  0  0  0  0  0  0
   -8.0910   -1.3460    1.8730 Cl  0  0  0  0  0  0  0  0  0  0  0  0
   -7.0830    0.5430   -0.0020 C   0  0  0  0  0  0  0  0  0  0  0  0
   -8.0730    0.6190   -0.8440 C   0  0  0  0  0  0  0  0  0  0  0  0
   -8.0570    1.9050   -2.0650 Cl  0  0  0  0  0  0  0  0  0  0  0  0
   -9.2430   -0.2880   -0.9370 C   0  0  0  0  0  0  0  0  0  0  0  0
  -10.5430    0.4570   -0.6640 C   0  0  2  0  0  0  0  0  0  0  0  0
  -11.6060   -0.4400   -0.7680 F   0  0  0  0  0  0  0  0  0  0  0  0
  -10.6750    1.4670   -1.5880 F   0  0  0  0  0  0  0  0  0  0  0  0
   -5.8880    1.4470    0.0010 C   0  0  2  0  0  0  0  0  0  0  0  0
   -5.5180    1.9740   -1.3510 C   0  0  0  0  0  0  0  0  0  0  0  0
   -3.6930    2.1310   -1.0300 S   0  0  0  0  0  0  0  0  0  0  0  0
    1.2350    0.2690   -0.1810 C   0  0  0  0  0  0  0  0  0  0  0  0
    2.4930   -0.3420    0.0930 C   0  0  0  0  0  0  0  0  0  0  0  0
    3.6850    0.3770   -0.3150 C   0  0  0  0  0  0  0  0  0  0  0  0
    3.4510    1.4250   -1.0290 O   0  0  0  0  0  0  0  0  0  0  0  0
    5.0130    0.0770   -0.0410 N   0  0  0  0  0  0  0  0  0  0  0  0
    6.1750    0.7790   -0.4630 C   0  0  0  0  0  0  0  0  0  0  0  0
    6.1430    2.0040   -1.0290 C   0  0  0  0  0  0  0  0  0  0  0  0
    7.3080    2.6630   -1.4480 C   0  0  0  0  0  0  0  0  0  0  0  0
    7.2800    4.0050   -2.0670 C   0  0  0  0  0  0  0  0  0  0  0  0
    8.4980    2.0320   -1.2700 C   0  0  0  0  0  0  0  0  0  0  0  0
    8.6020    0.7870   -0.7010 C   0  0  0  0  0  0  0  0  0  0  0  0
    9.9250    0.1210   -0.5190 C   0  0  0  0  0  0  0  0  0  0  0  0
    7.4330    0.1860   -0.3090 C   0  0  0  0  0  0  0  0  0  0  0  0
    2.5080   -1.5110    0.7900 C   0  0  0  0  0  0  0  0  0  0  0  0
    3.6690   -2.1930    1.1020 O   0  0  0  0  0  0  0  0  0  0  0  0
    4.1540   -3.2420    0.2500 C   0  0  0  0  0  0  0  0  0  0  0  0
  1  2  1  0
  2  3  1  0
  3  4  2  0
  3 38  1  0
  4  5  1  0
  5  6  1  0
  5 25  2  0
  6  7  2  0
  6  8  1  0
  8  9  1  0
  9 10  2  0
  9 24  1  0
 10 11  1  0
 10 22  1  0
 11 12  1  0
 11 13  2  0
 13 14  1  0
 13 15  1  0
 15 16  2  3
 15 22  1  0
 16 17  1  0
 16 18  1  0
 18 19  1  0
 19 20  1  6
 19 21  1  0
 22 23  1  6
 23 24  1  0
 25 26  1  0
 26 27  1  0
 26 38  2  0
 27 28  2  0
 27 29  1  0
 29 30  1  0
 30 31  2  0
 30 37  1  0
 31 32  1  0
 32 33  1  0
 32 34  2  0
 34 35  1  0
 35 36  1  0
 35 37  2  0
 38 39  1  0
 39 40  1  0
M  END
