
     RDKit          3D

 40 43  0  0  0  0  0  0  0  0999 V2000
   -6.9650    1.7390    1.6640 C   0  0  0  0  0  0  0  0  0  0  0  0
   -5.9800    1.3340    0.7090 C   0  0  0  0  0  0  0  0  0  0  0  0
   -5.8780    0.9320   -0.5170 C   0  0  0  0  0  0  0  0  0  0  0  0
   -4.5420    0.6570   -0.9910 C   0  0  0  0  0  0  0  0  0  0  0  0
   -3.4540    1.3660   -0.2360 C   0  0  0  0  0  0  0  0  0  0  0  0
   -2.5470    0.5260    0.4320 N   0  0  0  0  0  0  0  0  0  0  0  0
   -1.7100   -0.5500    0.1280 C   0  0  0  0  0  0  0  0  0  0  0  0
   -1.6240   -0.8990   -1.0540 O   0  0  0  0  0  0  0  0  0  0  0  0
   -0.9660   -1.2450    1.2090 C   0  0  0  0  0  0  0  0  0  0  0  0
   -1.5760   -1.3470    2.4430 C   0  0  0  0  0  0  0  0  0  0  0  0
   -3.0370   -1.0380    2.5970 C   0  0  0  0  0  0  0  0  0  0  0  0
   -0.8880   -1.8460    3.5090 C   0  0  0  0  0  0  0  0  0  0  0  0
    0.4150   -2.2670    3.3830 C   0  0  0  0  0  0  0  0  0  0  0  0
    1.0210   -2.1780    2.1560 C   0  0  0  0  0  0  0  0  0  0  0  0
    0.3390   -1.6570    1.0150 C   0  0  0  0  0  0  0  0  0  0  0  0
    0.9530   -1.7320   -0.2680 C   0  0  0  0  0  0  0  0  0  0  0  0
    0.2730   -2.4330   -1.1340 O   0  0  0  0  0  0  0  0  0  0  0  0
    2.1610   -1.2020   -0.8070 C   0  0  0  0  0  0  0  0  0  0  0  0
    3.0510   -1.8410   -1.6400 C   0  0  0  0  0  0  0  0  0  0  0  0
    4.0320   -1.1210   -2.0670 N   0  0  0  0  0  0  0  0  0  0  0  0
    4.2700    0.0290   -1.8360 C   0  0  0  0  0  0  0  0  0  0  0  0
    5.2930    0.9450   -2.3520 C   0  0  0  0  0  0  0  0  0  0  0  0
    6.5410    0.7480   -1.9180 O   0  0  0  0  0  0  0  0  0  0  0  0
    7.3430    0.8520   -0.8730 C   0  0  0  0  0  0  0  0  0  0  0  0
    6.9810    1.3920    0.3330 C   0  0  0  0  0  0  0  0  0  0  0  0
    7.8520    1.4850    1.4120 C   0  0  0  0  0  0  0  0  0  0  0  0
    9.1680    0.9980    1.2470 C   0  0  0  0  0  0  0  0  0  0  0  0
   10.2710    1.1550    2.6130 Cl  0  0  0  0  0  0  0  0  0  0  0  0
    9.5280    0.4610    0.0580 C   0  0  0  0  0  0  0  0  0  0  0  0
   10.8310   -0.0320   -0.1540 O   0  0  0  0  0  0  0  0  0  0  0  0
    8.6550    0.3710   -1.0110 C   0  0  0  0  0  0  0  0  0  0  0  0
    2.8530    0.4580   -0.7060 S   0  0  0  0  0  0  0  0  0  0  0  0
   -4.3100    0.0450   -2.1780 C   0  0  0  0  0  0  0  0  0  0  0  0
   -5.3450   -0.3370   -2.9860 C   0  0  0  0  0  0  0  0  0  0  0  0
   -6.6210   -0.0950   -2.5880 C   0  0  0  0  0  0  0  0  0  0  0  0
   -7.9570   -0.5790   -3.6100 Cl  0  0  0  0  0  0  0  0  0  0  0  0
   -6.8970    0.5410   -1.3540 C   0  0  0  0  0  0  0  0  0  0  0  0
   -8.1600    0.7250   -1.0700 C   0  0  0  0  0  0  0  0  0  0  0  0
   -9.0980    0.2800   -2.0120 F   0  0  0  0  0  0  0  0  0  0  0  0
   -8.7070    1.2720   -0.0220 F   0  0  0  0  0  0  0  0  0  0  0  0
  1  2  1  0
  2  3  2  3
  3  4  1  0
  3 37  1  0
  4  5  1  0
  4 33  2  0
  5  6  1  0
  6  7  1  0
  7  8  2  0
  7  9  1  0
  9 10  2  0
  9 15  1  0
 10 11  1  0
 10 12  1  0
 12 13  2  0
 13 14  1  0
 14 15  2  0
 15 16  1  0
 16 17  2  0
 16 18  1  0
 18 19  2  0
 18 32  1  0
 19 20  1  0
 20 21  2  0
 21 22  1  0
 21 32  1  0
 22 23  1  0
 23 24  1  0
 24 25  2  0
 24 31  1  0
 25 26  1  0
 26 27  2  0
 27 28  1  0
 27 29  1  0
 29 30  1  0
 29 31  2  0
 33 34  1  0
 34 35  2  0
 35 36  1  0
 35 37  1  0
 37 38  2  3
 38 39  1  0
 38 40  1  0
M  END
