
     RDKit          3D

 40 43  0  0  0  0  0  0  0  0999 V2000
    8.7740   -3.5850   -2.5290 C   0  0  0  0  0  0  0  0  0  0  0  0
    7.5230   -2.9700   -3.0220 C   0  0  0  0  0  0  0  0  0  0  0  0
    6.6750   -2.2710   -2.0720 C   0  0  0  0  0  0  0  0  0  0  0  0
    5.5030   -1.7210   -2.6060 C   0  0  0  0  0  0  0  0  0  0  0  0
    5.1760   -1.8520   -4.0480 C   0  0  0  0  0  0  0  0  0  0  0  0
    4.6130   -1.0340   -1.8070 C   0  0  0  0  0  0  0  0  0  0  0  0
    4.8480   -0.8620   -0.4450 C   0  0  0  0  0  0  0  0  0  0  0  0
    3.9000   -0.1390    0.4060 C   0  0  0  0  0  0  0  0  0  0  0  0
    4.1830   -0.0090    1.6380 O   0  0  0  0  0  0  0  0  0  0  0  0
    2.7360    0.4040   -0.0290 O   0  0  0  0  0  0  0  0  0  0  0  0
    1.8890    1.0950    0.9320 C   0  0  2  0  0  0  0  0  0  0  0  0
    0.4750    0.6360    0.7790 C   0  0  0  0  0  0  0  0  0  0  0  0
   -0.5050    1.1370    1.7420 C   0  0  0  0  0  0  0  0  0  0  0  0
   -0.1190    1.8980    2.7740 C   0  0  0  0  0  0  0  0  0  0  0  0
   -0.9210    2.5150    3.8540 C   0  0  0  0  0  0  0  0  0  0  0  0
   -2.0940    2.1300    4.3270 C   0  0  0  0  0  0  0  0  0  0  0  0
   -2.6900    2.9240    5.4180 C   0  0  0  0  0  0  0  0  0  0  0  0
   -2.8620    0.9790    3.8750 C   0  0  0  0  0  0  0  0  0  0  0  0
   -3.8390    0.3890    4.8030 C   0  0  0  0  0  0  0  0  0  0  0  0
   -2.8080    0.3640    2.6780 C   0  0  0  0  0  0  0  0  0  0  0  0
   -1.9520    0.7260    1.5420 C   0  0  0  0  0  0  0  0  0  0  0  0
   -2.3540    0.7230    0.3270 C   0  0  0  0  0  0  0  0  0  0  0  0
   -3.6020    0.4150   -0.3160 C   0  0  0  0  0  0  0  0  0  0  0  0
   -3.6910    0.5230   -1.6610 C   0  0  0  0  0  0  0  0  0  0  0  0
   -4.8430    0.2740   -2.4810 C   0  0  0  0  0  0  0  0  0  0  0  0
   -6.0080   -0.0930   -2.0330 C   0  0  0  0  0  0  0  0  0  0  0  0
   -6.9760   -0.2710   -3.1630 C   0  0  0  0  0  0  0  0  0  0  0  0
   -6.0440   -0.5390   -4.3230 C   0  0  0  0  0  0  0  0  0  0  0  0
   -4.9090    0.3970   -3.9890 C   0  0  0  0  0  0  0  0  0  0  0  0
   -6.3040   -0.2380   -0.6660 N   0  0  0  0  0  0  0  0  0  0  0  0
   -4.9990   -0.1690    0.5020 S   0  0  2  0  0  0  0  0  0  0  0  0
   -5.4560    0.6780    1.6420 O   0  0  0  0  0  0  0  0  0  0  0  0
   -4.7910   -1.6080    0.9800 O   0  0  0  0  0  0  0  0  0  0  0  0
    1.9660    2.5190    0.3330 C   0  0  2  0  0  0  0  0  0  0  0  0
    1.2470    3.4320    0.9960 F   0  0  0  0  0  0  0  0  0  0  0  0
    1.4740    2.4620   -0.9730 F   0  0  0  0  0  0  0  0  0  0  0  0
    3.6670    3.0600    0.3200 Cl  0  0  0  0  0  0  0  0  0  0  0  0
    5.9740   -1.4020    0.0150 N   0  0  0  0  0  0  0  0  0  0  0  0
    6.8600   -2.0770   -0.7400 C   0  0  0  0  0  0  0  0  0  0  0  0
    8.3020   -2.7380    0.0020 Cl  0  0  0  0  0  0  0  0  0  0  0  0
  1  2  1  0
  2  3  1  0
  3  4  2  0
  3 39  1  0
  4  5  1  0
  4  6  1  0
  6  7  2  0
  7  8  1  0
  7 38  1  0
  8  9  2  0
  8 10  1  0
 10 11  1  0
 11 12  1  6
 11 34  1  0
 12 13  1  0
 13 14  2  0
 13 21  1  0
 14 15  1  0
 15 16  2  0
 16 17  1  0
 16 18  1  0
 18 19  1  0
 18 20  2  0
 20 21  1  0
 21 22  2  3
 22 23  1  0
 23 24  2  0
 23 31  1  0
 24 25  1  0
 25 26  2  0
 25 29  1  0
 26 27  1  0
 26 30  1  0
 27 28  1  0
 28 29  1  0
 31 30  1  6
 31 32  2  0
 31 33  2  0
 34 35  1  1
 34 36  1  0
 34 37  1  0
 38 39  2  0
 39 40  1  0
M  END
