
     RDKit          3D

 17 18  0  0  0  0  0  0  0  0999 V2000
    3.9540   -0.1280   -1.4350 C   0  0  0  0  0  0  0  0  0  0  0  0
    3.1630   -0.4090   -0.4340 C   0  0  0  0  0  0  0  0  0  0  0  0
    1.7280   -0.6450   -0.6580 C   0  0  0  0  0  0  0  0  0  0  0  0
    0.8300    0.6150    0.3180 S   0  0  0  0  0  0  0  0  0  0  0  0
   -0.9280    0.4340    0.1260 C   0  0  0  0  0  0  0  0  0  0  0  0
   -1.7340    1.3160    0.8070 C   0  0  0  0  0  0  0  0  0  0  0  0
   -3.0960    1.2020    0.6780 C   0  0  0  0  0  0  0  0  0  0  0  0
   -4.0790    1.8870    1.1960 O   0  0  0  0  0  0  0  0  0  0  0  0
   -5.2340    1.4240    0.7960 C   0  0  0  0  0  0  0  0  0  0  0  0
   -6.3790    1.8740    1.1230 O   0  0  0  0  0  0  0  0  0  0  0  0
   -4.9620    0.4100   -0.0050 O   0  0  0  0  0  0  0  0  0  0  0  0
   -3.6820    0.2370   -0.1070 C   0  0  0  0  0  0  0  0  0  0  0  0
   -2.8660   -0.6340   -0.7790 C   0  0  0  0  0  0  0  0  0  0  0  0
   -1.4890   -0.5310   -0.6590 C   0  0  0  0  0  0  0  0  0  0  0  0
   -0.6380   -1.4000   -1.3280 O   0  0  0  0  0  0  0  0  0  0  0  0
    3.6540   -0.4900    0.8520 O   0  0  0  0  0  0  0  0  0  0  0  0
    4.9630   -0.5950    1.1890 N   0  0  0  0  0  0  0  0  0  0  0  0
  1  2  2  0
  2  3  1  0
  2 16  1  0
  3  4  1  0
  4  5  1  0
  5  6  2  0
  5 14  1  0
  6  7  1  0
  7  8  1  0
  7 12  2  0
  8  9  1  0
  9 10  2  0
  9 11  1  0
 11 12  1  0
 12 13  1  0
 13 14  2  0
 14 15  1  0
 16 17  1  0
M  END
