
     RDKit          3D

 17 17  0  0  0  0  0  0  0  0999 V2000
   -5.2960    0.5490   -1.1800 C   0  0  0  0  0  0  0  0  0  0  0  0
   -4.4510   -0.5250   -0.9220 O   0  0  0  0  0  0  0  0  0  0  0  0
   -3.5180   -0.2280    0.0760 C   0  0  0  0  0  0  0  0  0  0  0  0
   -2.6670   -1.4400    0.2720 C   0  0  0  0  0  0  0  0  0  0  0  0
   -1.6730   -1.2960    1.2530 O   0  0  0  0  0  0  0  0  0  0  0  0
   -0.6640   -0.3290    1.1780 C   0  0  0  0  0  0  0  0  0  0  0  0
   -0.6820    0.4110    0.1930 O   0  0  0  0  0  0  0  0  0  0  0  0
    0.3260   -0.2000    2.1740 N   0  0  0  0  0  0  0  0  0  0  0  0
    1.3740    0.7510    2.1460 C   0  0  0  0  0  0  0  0  0  0  0  0
    2.3070    0.5860    1.0040 C   0  0  0  0  0  0  0  0  0  0  0  0
    3.5980    0.3400    1.0390 C   0  0  0  0  0  0  0  0  0  0  0  0
    4.2960    0.2200   -0.1830 C   0  0  0  0  0  0  0  0  0  0  0  0
    5.5530   -0.0170   -0.3160 O   0  0  0  0  0  0  0  0  0  0  0  0
    3.4950    0.3850   -1.3870 C   0  0  0  0  0  0  0  0  0  0  0  0
    3.8440    0.3190   -2.6510 C   0  0  0  0  0  0  0  0  0  0  0  0
    5.1300    0.0620   -3.0270 O   0  0  0  0  0  0  0  0  0  0  0  0
    1.8650    0.7100   -0.7180 S   0  0  0  0  0  0  0  0  0  0  0  0
  1  2  1  0
  2  3  1  0
  3  4  1  0
  4  5  1  0
  5  6  1  0
  6  7  2  0
  6  8  1  0
  8  9  1  0
  9 10  1  0
 10 11  2  0
 10 17  1  0
 11 12  1  0
 12 13  2  0
 12 14  1  0
 14 15  2  3
 14 17  1  0
 15 16  1  0
M  END
