
     RDKit          3D

 37 41  0  0  0  0  0  0  0  0999 V2000
    9.2700   -3.5500   -0.0270 O   0  0  0  0  0  0  0  0  0  0  0  0
    8.8210   -2.3420    0.0710 C   0  0  0  0  0  0  0  0  0  0  0  0
    8.9520   -1.6130   -1.0810 O   0  0  0  0  0  0  0  0  0  0  0  0
    8.2480   -1.9190    1.3510 C   0  0  0  0  0  0  0  0  0  0  0  0
    7.9020   -0.6160    1.4590 O   0  0  0  0  0  0  0  0  0  0  0  0
    7.0740    0.2090    0.7320 C   0  0  0  0  0  0  0  0  0  0  0  0
    7.5980    1.1210   -0.2030 C   0  0  0  0  0  0  0  0  0  0  0  0
    8.9800    1.4540   -0.5300 C   0  0  0  0  0  0  0  0  0  0  0  0
    9.1350    2.2940   -1.4400 O   0  0  0  0  0  0  0  0  0  0  0  0
   10.0830    0.9290    0.0730 O   0  0  0  0  0  0  0  0  0  0  0  0
    6.1600    1.9220   -0.8760 S   0  0  0  0  0  0  0  0  0  0  0  0
    4.9430    0.9350    0.1930 C   0  0  0  0  0  0  0  0  0  0  0  0
    5.7230    0.2610    0.7910 C   0  0  0  0  0  0  0  0  0  0  0  0
    4.5000   -0.7370    1.8710 S   0  0  0  0  0  0  0  0  0  0  0  0
    3.0730    0.0780    1.1870 C   0  0  0  0  0  0  0  0  0  0  0  0
    1.7110   -0.0740    1.4460 C   0  0  0  0  0  0  0  0  0  0  0  0
    0.8000    0.6980    0.7600 C   0  0  0  0  0  0  0  0  0  0  0  0
   -0.5750    0.5130    1.0660 N   0  0  0  0  0  0  0  0  0  0  0  0
   -1.6570    1.1240    0.2800 C   0  0  2  0  0  0  0  0  0  0  0  0
   -2.9420    0.8380    0.9630 C   0  0  0  0  0  0  0  0  0  0  0  0
   -4.0800    0.4930    0.0160 C   0  0  0  0  0  0  0  0  0  0  0  0
   -3.7350   -0.4690   -0.9210 N   0  0  0  0  0  0  0  0  0  0  0  0
   -4.6520   -1.8390   -1.1620 S   0  0  1  0  0  0  0  0  0  0  0  0
   -4.0450   -2.8000   -2.1620 O   0  0  0  0  0  0  0  0  0  0  0  0
   -4.8030   -2.6830    0.1110 O   0  0  0  0  0  0  0  0  0  0  0  0
   -6.3040   -1.5300   -1.7160 C   0  0  0  0  0  0  0  0  0  0  0  0
   -7.0840   -0.7190   -0.7690 C   0  0  0  0  0  0  0  0  0  0  0  0
   -7.7620   -1.3500    0.2810 C   0  0  0  0  0  0  0  0  0  0  0  0
   -8.5060   -0.6280    1.1580 C   0  0  0  0  0  0  0  0  0  0  0  0
   -8.6170    0.7370    1.0440 C   0  0  0  0  0  0  0  0  0  0  0  0
   -7.9630    1.3960    0.0210 C   0  0  0  0  0  0  0  0  0  0  0  0
   -7.2200    0.6490   -0.8500 C   0  0  0  0  0  0  0  0  0  0  0  0
   -2.5710   -0.2510   -1.6600 C   0  0  0  0  0  0  0  0  0  0  0  0
   -1.5120    0.6260   -1.1130 C   0  0  0  0  0  0  0  0  0  0  0  0
    1.3060    1.5770   -0.1440 C   0  0  0  0  0  0  0  0  0  0  0  0
    2.6460    1.7330   -0.4040 C   0  0  0  0  0  0  0  0  0  0  0  0
    3.5900    0.9630    0.2750 C   0  0  0  0  0  0  0  0  0  0  0  0
  1  2  2  0
  2  3  1  0
  2  4  1  0
  4  5  1  0
  5  6  1  0
  6  7  2  0
  6 13  1  0
  7  8  1  0
  7 11  1  0
  8  9  2  0
  8 10  1  0
 11 12  1  0
 12 13  2  0
 12 37  1  0
 13 14  1  0
 14 15  1  0
 15 16  2  0
 15 37  1  0
 16 17  1  0
 17 18  1  0
 17 35  2  0
 19 18  1  1
 19 20  1  0
 19 34  1  0
 20 21  1  0
 21 22  1  0
 22 23  1  0
 22 33  1  0
 23 24  2  0
 23 25  2  0
 23 26  1  6
 26 27  1  0
 27 28  2  0
 27 32  1  0
 28 29  1  0
 29 30  2  0
 30 31  1  0
 31 32  2  0
 33 34  1  0
 35 36  1  0
 36 37  2  0
M  END
