
     RDKit          3D

 37 40  0  0  0  0  0  0  0  0999 V2000
   -7.1100    1.4940   -0.9500 C   0  0  0  0  0  0  0  0  0  0  0  0
   -5.7500    0.8470   -1.1870 C   0  0  2  0  0  0  0  0  0  0  0  0
   -5.3010    1.3830   -2.5530 C   0  0  0  0  0  0  0  0  0  0  0  0
   -5.9350   -0.6000   -1.4050 C   0  0  0  0  0  0  0  0  0  0  0  0
   -4.7060   -1.4380   -1.4400 C   0  0  0  0  0  0  0  0  0  0  0  0
   -4.4180   -2.1200   -0.1330 C   0  0  0  0  0  0  0  0  0  0  0  0
   -5.2600   -1.6690    1.0170 C   0  0  0  0  0  0  0  0  0  0  0  0
   -5.3500   -0.2290    1.3000 C   0  0  0  0  0  0  0  0  0  0  0  0
   -4.2440    0.6180    0.7920 N   0  0  2  0  0  0  0  0  0  0  0  0
   -3.4260    1.2210    1.7140 C   0  0  0  0  0  0  0  0  0  0  0  0
   -3.1240    0.1160    2.1310 O   0  0  0  0  0  0  0  0  0  0  0  0
   -2.7070    2.2200    2.4980 C   0  0  0  0  0  0  0  0  0  0  0  0
   -1.8110    1.6930    3.5090 N   0  0  0  0  0  0  0  0  0  0  0  0
   -0.7270    0.8910    3.0560 C   0  0  0  0  0  0  0  0  0  0  0  0
   -0.6220    0.7020    1.8170 O   0  0  0  0  0  0  0  0  0  0  0  0
    0.2660    0.2830    3.9620 C   0  0  0  0  0  0  0  0  0  0  0  0
    1.3010   -0.4290    3.0740 C   0  0  0  0  0  0  0  0  0  0  0  0
    1.8430    0.5990    2.2690 O   0  0  0  0  0  0  0  0  0  0  0  0
    2.8000    0.4470    1.3070 C   0  0  0  0  0  0  0  0  0  0  0  0
    3.4050   -0.7190    0.9590 N   0  0  0  0  0  0  0  0  0  0  0  0
    4.2750   -0.4680   -0.0070 N   0  0  0  0  0  0  0  0  0  0  0  0
    5.0870   -1.4870   -0.5980 C   0  0  0  0  0  0  0  0  0  0  0  0
    5.8590   -2.3030    0.1970 C   0  0  0  0  0  0  0  0  0  0  0  0
    6.6460   -3.2820   -0.3310 C   0  0  0  0  0  0  0  0  0  0  0  0
    6.6650   -3.4580   -1.7080 C   0  0  0  0  0  0  0  0  0  0  0  0
    7.4950   -4.4930   -2.2980 C   0  0  0  0  0  0  0  0  0  0  0  0
    7.4860   -4.6610   -3.6960 N   0  0  0  0  0  0  0  0  0  0  0  0
    8.2040   -5.2190   -1.5640 O   0  0  0  0  0  0  0  0  0  0  0  0
    5.8840   -2.6320   -2.5050 C   0  0  0  0  0  0  0  0  0  0  0  0
    5.0900   -1.6440   -1.9730 C   0  0  0  0  0  0  0  0  0  0  0  0
    4.2860    0.8340   -0.3320 C   0  0  0  0  0  0  0  0  0  0  0  0
    3.3490    1.4140    0.5030 C   0  0  0  0  0  0  0  0  0  0  0  0
    3.1510    2.8830    0.3570 C   0  0  0  0  0  0  0  0  0  0  0  0
    4.5630    3.4670    0.2600 C   0  0  0  0  0  0  0  0  0  0  0  0
    5.1540    3.0360   -1.0420 C   0  0  0  0  0  0  0  0  0  0  0  0
    5.0750    1.5820   -1.3400 C   0  0  0  0  0  0  0  0  0  0  0  0
   -4.7130    1.3660   -0.2650 C   0  0  0  0  0  0  0  0  0  0  0  0
  2  1  1  1
  2  3  1  0
  2  4  1  0
  2 37  1  0
  4  5  1  0
  5  6  1  0
  6  7  1  0
  7  8  1  0
  8  9  1  0
  9 10  1  1
  9 37  1  0
 10 11  2  0
 10 12  1  0
 12 13  1  0
 13 14  1  0
 14 15  2  0
 14 16  1  0
 16 17  1  0
 17 18  1  0
 18 19  1  0
 19 20  2  0
 19 32  1  0
 20 21  1  0
 21 22  1  0
 21 31  1  0
 22 23  2  0
 22 30  1  0
 23 24  1  0
 24 25  2  0
 25 26  1  0
 25 29  1  0
 26 27  1  0
 26 28  2  0
 29 30  2  0
 31 32  2  0
 31 36  1  0
 32 33  1  0
 33 34  1  0
 34 35  1  0
 35 36  1  0
M  CHG  1   9   1
M  END
