
     RDKit          3D

 37 40  0  0  0  0  0  0  0  0999 V2000
   -4.7770   -1.6630    0.6740 C   0  0  0  0  0  0  0  0  0  0  0  0
   -4.6170   -2.0960   -0.4790 C   0  0  0  0  0  0  0  0  0  0  0  0
   -3.1930   -1.3230   -1.2940 C   0  0  0  0  0  0  0  0  0  0  0  0
   -3.4200   -2.1850   -2.2900 C   0  0  0  0  0  0  0  0  0  0  0  0
   -4.3020   -3.2130   -2.6040 C   0  0  0  0  0  0  0  0  0  0  0  0
   -3.1460   -0.4350   -0.3280 C   0  0  0  0  0  0  0  0  0  0  0  0
   -1.9230   -0.3260    0.3110 C   0  0  0  0  0  0  0  0  0  0  0  0
   -1.0120   -1.2000   -0.2800 N   0  0  0  0  0  0  0  0  0  0  0  0
    0.3570   -1.3750   -0.0300 C   0  0  0  0  0  0  0  0  0  0  0  0
    1.0270   -0.7360    0.7100 O   0  0  0  0  0  0  0  0  0  0  0  0
    1.1250   -2.5110   -0.7770 C   0  0  2  0  0  0  0  0  0  0  0  0
    2.1540   -2.9480    0.2910 C   0  0  0  0  0  0  0  0  0  0  0  0
    3.4340   -2.7810   -0.4130 C   0  0  0  0  0  0  0  0  0  0  0  0
    4.5540   -3.3790   -0.1630 O   0  0  0  0  0  0  0  0  0  0  0  0
    3.2560   -1.8180   -1.4630 N   0  0  0  0  0  0  0  0  0  0  0  0
    4.3170   -0.9340   -1.9080 C   0  0  0  0  0  0  0  0  0  0  0  0
    4.4110    0.3300   -1.2170 N   0  0  0  0  0  0  0  0  0  0  0  0
    4.3960    0.5010    0.1750 C   0  0  0  0  0  0  0  0  0  0  0  0
    4.2660   -0.5240    0.9300 O   0  0  0  0  0  0  0  0  0  0  0  0
    4.5180    1.8120    0.8350 C   0  0  0  0  0  0  0  0  0  0  0  0
    3.4280    2.5040    1.3410 C   0  0  0  0  0  0  0  0  0  0  0  0
    3.6340    3.7170    1.9410 C   0  0  0  0  0  0  0  0  0  0  0  0
    4.8000    4.3340    2.0990 N   0  0  0  0  0  0  0  0  0  0  0  0
    5.9060    3.6100    1.5790 C   0  0  0  0  0  0  0  0  0  0  0  0
    5.7480    2.4450    0.9950 C   0  0  0  0  0  0  0  0  0  0  0  0
    6.9320    1.6690    0.4470 C   0  0  0  0  0  0  0  0  0  0  0  0
    1.8960   -1.9850   -1.9290 C   0  0  0  0  0  0  0  0  0  0  0  0
   -1.7610    0.3610    1.5510 C   0  0  0  0  0  0  0  0  0  0  0  0
   -0.7050   -0.0880    2.4870 C   0  0  0  0  0  0  0  0  0  0  0  0
   -2.4970    1.3350    2.1190 C   0  0  0  0  0  0  0  0  0  0  0  0
   -3.6910    2.0070    1.6590 C   0  0  0  0  0  0  0  0  0  0  0  0
   -4.4260    1.6450    0.6240 C   0  0  0  0  0  0  0  0  0  0  0  0
   -5.6560    2.3810    0.2250 C   0  0  0  0  0  0  0  0  0  0  0  0
   -5.8530    1.9940   -1.2140 C   0  0  0  0  0  0  0  0  0  0  0  0
   -5.1880    0.6980   -1.3280 C   0  0  0  0  0  0  0  0  0  0  0  0
   -5.3780   -0.2110   -2.1710 O   0  0  0  0  0  0  0  0  0  0  0  0
   -4.2150    0.5830   -0.2790 N   0  0  0  0  0  0  0  0  0  0  0  0
  1  2  2  0
  2  3  1  0
  3  4  2  3
  3  6  1  0
  4  5  1  0
  6  7  2  0
  6 37  1  0
  7  8  1  0
  7 28  1  0
  8  9  1  0
  9 10  2  0
 11  9  1  1
 11 12  1  0
 11 27  1  0
 12 13  1  0
 13 14  2  0
 13 15  1  0
 15 16  1  0
 15 27  1  0
 16 17  1  0
 17 18  1  0
 18 19  2  0
 18 20  1  0
 20 21  2  0
 20 25  1  0
 21 22  1  0
 22 23  2  0
 23 24  1  0
 24 25  2  0
 25 26  1  0
 28 29  1  0
 28 30  2  0
 30 31  1  0
 31 32  2  0
 32 33  1  0
 32 37  1  0
 33 34  1  0
 34 35  1  0
 35 36  2  0
 35 37  1  0
M  CHG  1  23   1
M  END
