
     RDKit          3D

 37 41  0  0  0  0  0  0  0  0999 V2000
    9.1090    1.0080    1.3870 C   0  0  0  0  0  0  0  0  0  0  0  0
    9.4770    1.5030    0.0330 C   0  0  0  0  0  0  0  0  0  0  0  0
    8.3350    1.3630   -0.9780 C   0  0  0  0  0  0  0  0  0  0  0  0
    7.9960   -0.0540   -1.0490 C   0  0  0  0  0  0  0  0  0  0  0  0
    6.9210   -0.7260   -0.8340 C   0  0  0  0  0  0  0  0  0  0  0  0
    6.8490   -2.2410   -0.9950 C   0  0  0  0  0  0  0  0  0  0  0  0
    5.4480   -2.4320   -1.5700 C   0  0  0  0  0  0  0  0  0  0  0  0
    4.7050   -1.3460   -0.8660 C   0  0  0  0  0  0  0  0  0  0  0  0
    3.4800   -0.9660   -0.4730 N   0  0  0  0  0  0  0  0  0  0  0  0
    3.5040    0.1940    0.1920 C   0  0  0  0  0  0  0  0  0  0  0  0
    2.3250    0.8810    0.7540 C   0  0  0  0  0  0  0  0  0  0  0  0
    1.1520    0.1210    0.4870 N   0  0  0  0  0  0  0  0  0  0  0  0
   -0.0600    0.7080    0.9920 C   0  0  0  0  0  0  0  0  0  0  0  0
   -1.2340   -0.0750    0.7120 N   0  0  0  0  0  0  0  0  0  0  0  0
   -1.3270   -1.3990    1.2070 C   0  0  0  0  0  0  0  0  0  0  0  0
   -2.3600   -2.1830    0.9890 C   0  0  0  0  0  0  0  0  0  0  0  0
   -2.4360   -3.5360    1.5050 C   0  0  0  0  0  0  0  0  0  0  0  0
   -3.4520   -4.2740    1.2620 N   0  0  0  0  0  0  0  0  0  0  0  0
   -4.5500   -3.8110    0.4680 C   0  0  0  0  0  0  0  0  0  0  0  0
   -5.5690   -4.6850    0.1400 C   0  0  0  0  0  0  0  0  0  0  0  0
   -6.5610   -4.2770   -0.7160 C   0  0  0  0  0  0  0  0  0  0  0  0
   -6.5570   -3.0190   -1.2550 C   0  0  0  0  0  0  0  0  0  0  0  0
   -5.5270   -2.1200   -0.9260 C   0  0  0  0  0  0  0  0  0  0  0  0
   -4.5540   -2.5260   -0.0630 C   0  0  0  0  0  0  0  0  0  0  0  0
   -3.4480   -1.6520    0.2030 N   0  0  0  0  0  0  0  0  0  0  0  0
   -3.4410   -0.3540   -0.3030 C   0  0  0  0  0  0  0  0  0  0  0  0
   -4.6000    0.4640   -0.5810 C   0  0  0  0  0  0  0  0  0  0  0  0
   -4.3340    1.7220   -1.4050 C   0  0  0  0  0  0  0  0  0  0  0  0
   -5.8090    0.2940   -0.2890 N   0  0  0  0  0  0  0  0  0  0  0  0
   -6.8020    1.1920   -0.6390 N   0  0  0  0  0  0  0  0  0  0  0  0
   -7.2100    2.3040    0.1880 C   0  0  0  0  0  0  0  0  0  0  0  0
   -8.3230    3.0660   -0.5230 C   0  0  0  0  0  0  0  0  0  0  0  0
   -8.7820    4.2430    0.3110 C   0  0  0  0  0  0  0  0  0  0  0  0
   -2.3300    0.4060   -0.0460 C   0  0  0  0  0  0  0  0  0  0  0  0
    4.8300    0.5670    0.2170 C   0  0  0  0  0  0  0  0  0  0  0  0
    5.3190    1.7840    0.8790 C   0  0  0  0  0  0  0  0  0  0  0  0
    5.5820   -0.3610   -0.4260 C   0  0  0  0  0  0  0  0  0  0  0  0
  1  2  1  0
  2  3  1  0
  3  4  1  0
  4  5  2  3
  5  6  1  0
  5 37  1  0
  6  7  1  0
  7  8  1  0
  8  9  1  0
  8 37  2  0
  9 10  1  0
 10 11  1  0
 10 35  2  0
 11 12  1  0
 12 13  1  0
 13 14  1  0
 14 15  1  0
 14 34  1  0
 15 16  2  0
 16 17  1  0
 16 25  1  0
 17 18  2  0
 18 19  1  0
 19 20  2  0
 19 24  1  0
 20 21  1  0
 21 22  2  0
 22 23  1  0
 23 24  2  0
 24 25  1  0
 25 26  1  0
 26 27  1  0
 26 34  2  0
 27 28  1  0
 27 29  2  3
 29 30  1  0
 30 31  1  0
 31 32  1  0
 32 33  1  0
 35 36  1  0
 35 37  1  0
M  END
