
     RDKit          3D

 37 41  0  0  0  0  0  0  0  0999 V2000
    4.1040   -1.8610   -1.1930 C   0  0  0  0  0  0  0  0  0  0  0  0
    5.2220   -1.0260   -0.7430 C   0  0  0  0  0  0  0  0  0  0  0  0
    6.4280   -1.4360   -1.1520 C   0  0  0  0  0  0  0  0  0  0  0  0
    7.8180   -1.0060   -1.0080 C   0  0  0  0  0  0  0  0  0  0  0  0
    8.0540    0.4110   -1.4590 C   0  0  0  0  0  0  0  0  0  0  0  0
    7.8240    1.3870   -0.3630 C   0  0  0  0  0  0  0  0  0  0  0  0
    6.7810    1.6710    0.4000 C   0  0  0  0  0  0  0  0  0  0  0  0
    5.3970    1.1990    0.5520 C   0  0  0  0  0  0  0  0  0  0  0  0
    4.5170    2.0600    1.3540 C   0  0  0  0  0  0  0  0  0  0  0  0
    4.8180    0.1140    0.0770 C   0  0  0  0  0  0  0  0  0  0  0  0
    3.4490    0.0590    0.4800 N   0  0  0  0  0  0  0  0  0  0  0  0
    3.1390   -0.8260    1.5690 C   0  0  0  0  0  0  0  0  0  0  0  0
    1.7230   -0.8260    1.9740 C   0  0  0  0  0  0  0  0  0  0  0  0
    1.2880   -1.9140    2.7370 C   0  0  0  0  0  0  0  0  0  0  0  0
   -0.0220   -1.9650    3.1480 C   0  0  0  0  0  0  0  0  0  0  0  0
   -0.9150   -0.9710    2.8260 C   0  0  0  0  0  0  0  0  0  0  0  0
   -0.5190    0.1360    2.0640 C   0  0  0  0  0  0  0  0  0  0  0  0
   -1.4500    1.1950    1.7130 C   0  0  0  0  0  0  0  0  0  0  0  0
   -2.0580    1.2510    0.3730 C   0  0  0  0  0  0  0  0  0  0  0  0
   -2.8210    0.1730   -0.1230 N   0  0  0  0  0  0  0  0  0  0  0  0
   -2.0520   -0.9420   -0.5170 C   0  0  0  0  0  0  0  0  0  0  0  0
   -2.9010   -2.0680   -1.0310 C   0  0  0  0  0  0  0  0  0  0  0  0
   -3.5590   -2.9240   -0.1850 C   0  0  0  0  0  0  0  0  0  0  0  0
   -4.3050   -3.9270   -0.7550 C   0  0  0  0  0  0  0  0  0  0  0  0
   -4.4010   -4.0850   -2.0890 N   0  0  0  0  0  0  0  0  0  0  0  0
   -3.7600   -3.2510   -2.8740 N   0  0  0  0  0  0  0  0  0  0  0  0
   -3.0060   -2.2380   -2.3820 C   0  0  0  0  0  0  0  0  0  0  0  0
   -3.8970    0.5120   -0.9850 C   0  0  0  0  0  0  0  0  0  0  0  0
   -4.9780    1.3090   -0.3940 C   0  0  0  0  0  0  0  0  0  0  0  0
   -5.1140    1.7340    0.8830 C   0  0  0  0  0  0  0  0  0  0  0  0
   -6.2810    2.4160    0.9530 N   0  0  0  0  0  0  0  0  0  0  0  0
   -6.8800    2.4360   -0.2150 N   0  0  0  0  0  0  0  0  0  0  0  0
   -6.1040    1.7610   -1.0760 C   0  0  0  0  0  0  0  0  0  0  0  0
   -6.7130    1.7570   -2.3570 N   0  0  0  0  0  0  0  0  0  0  0  0
   -8.1170    2.1010   -2.1520 C   0  0  0  0  0  0  0  0  0  0  0  0
   -8.0710    2.9290   -0.8850 C   0  0  0  0  0  0  0  0  0  0  0  0
    0.8180    0.1470    1.6690 C   0  0  0  0  0  0  0  0  0  0  0  0
  1  2  1  0
  2  3  2  0
  2 10  1  0
  3  4  1  0
  4  5  1  0
  5  6  1  0
  6  7  2  0
  7  8  1  0
  8  9  1  0
  8 10  2  0
 10 11  1  0
 11 12  1  0
 12 13  1  0
 13 14  2  0
 13 37  1  0
 14 15  1  0
 15 16  2  0
 16 17  1  0
 17 18  1  0
 17 37  2  0
 18 19  1  0
 19 20  1  0
 20 21  1  0
 20 28  1  0
 21 22  1  0
 22 23  2  0
 22 27  1  0
 23 24  1  0
 24 25  2  0
 25 26  1  0
 26 27  2  0
 28 29  1  0
 29 30  1  0
 29 33  2  0
 30 31  2  0
 31 32  1  0
 32 33  1  0
 32 36  1  0
 33 34  1  0
 34 35  1  0
 35 36  1  0
M  END
