
     RDKit          3D

 11 11  0  0  0  0  0  0  0  0999 V2000
   -3.2050    1.4670    0.4130 O   0  0  0  0  0  0  0  0  0  0  0  0
   -2.1490    0.7570   -0.1990 C   0  0  0  0  0  0  0  0  0  0  0  0
   -1.4530    0.0070    0.8930 C   0  0  1  0  0  0  0  0  0  0  0  0
   -2.4230   -0.8510    1.4650 O   0  0  0  0  0  0  0  0  0  0  0  0
   -0.3250   -0.8520    0.4530 C   0  0  0  0  0  0  0  0  0  0  0  0
    0.8060   -0.1690   -0.2300 C   0  0  2  0  0  0  0  0  0  0  0  0
    0.4830    0.4950   -1.3840 O   0  0  0  0  0  0  0  0  0  0  0  0
    1.8630   -1.2210   -0.5610 C   0  0  0  0  0  0  0  0  0  0  0  0
    3.0560   -0.7320    0.0210 O   0  0  0  0  0  0  0  0  0  0  0  0
    2.7900    0.6330    0.0090 C   0  0  0  0  0  0  0  0  0  0  0  0
    1.5310    0.6780    0.6040 O   0  0  0  0  0  0  0  0  0  0  0  0
  1  2  1  0
  2  3  1  0
  3  4  1  6
  3  5  1  0
  5  6  1  0
  6  7  1  6
  6  8  1  0
  6 11  1  0
  8  9  1  0
  9 10  1  0
 10 11  1  0
M  END
