
     RDKit          3D

 11 10  0  0  0  0  0  0  0  0999 V2000
    0.4240   -1.0630   -1.3060 C   0  0  0  0  0  0  0  0  0  0  0  0
    0.4980   -0.2130   -0.0790 C   0  0  1  0  0  0  0  0  0  0  0  0
    1.6160   -0.7970    0.7820 C   0  0  0  0  0  0  0  0  0  0  0  0
    2.8300   -0.7810    0.1280 O   0  0  0  0  0  0  0  0  0  0  0  0
    0.9430    1.1850   -0.4210 C   0  0  0  0  0  0  0  0  0  0  0  0
    0.1110    1.8350   -1.2940 O   0  0  0  0  0  0  0  0  0  0  0  0
   -0.7350   -0.2560    0.7670 C   0  0  1  0  0  0  0  0  0  0  0  0
   -0.5090    0.5860    1.8710 O   0  0  0  0  0  0  0  0  0  0  0  0
   -1.9810    0.2250    0.0970 C   0  0  1  0  0  0  0  0  0  0  0  0
   -2.3290   -0.5200   -1.0200 O   0  0  0  0  0  0  0  0  0  0  0  0
   -3.0230    0.0730    1.0210 O   0  0  0  0  0  0  0  0  0  0  0  0
  2  1  1  6
  2  3  1  0
  2  5  1  0
  2  7  1  0
  3  4  1  0
  5  6  1  0
  7  8  1  1
  7  9  1  0
  9 10  1  6
  9 11  1  0
M  END
