
     RDKit          3D

 12 11  0  0  0  0  0  0  0  0999 V2000
   -1.0600    0.7480    1.3810 C   0  0  0  0  0  0  0  0  0  0  0  0
   -1.4040    0.2770   -0.0070 C   0  0  2  0  0  0  0  0  0  0  0  0
   -1.7240    1.4590   -0.8700 C   0  0  0  0  0  0  0  0  0  0  0  0
   -2.5870   -0.4910    0.1260 O   0  0  0  0  0  0  0  0  0  0  0  0
   -0.3830   -0.6460   -0.5890 C   0  0  1  0  0  0  0  0  0  0  0  0
   -0.8920   -1.0780   -1.8340 O   0  0  0  0  0  0  0  0  0  0  0  0
    0.8400   -0.0870   -0.8350 O   0  0  0  0  0  0  0  0  0  0  0  0
    1.8040   -0.8800   -0.1920 C   0  0  1  0  0  0  0  0  0  0  0  0
    2.6430   -1.4940   -1.1530 O   0  0  0  0  0  0  0  0  0  0  0  0
    2.6870   -0.0810    0.6870 C   0  0  0  0  0  0  0  0  0  0  0  0
    3.9310   -0.0220    0.5280 O   0  0  0  0  0  0  0  0  0  0  0  0
    2.1650    0.6610    1.7570 O   0  0  0  0  0  0  0  0  0  0  0  0
  2  1  1  1
  2  3  1  0
  2  4  1  0
  2  5  1  0
  5  6  1  6
  5  7  1  0
  7  8  1  0
  8  9  1  6
  8 10  1  0
 10 11  2  0
 10 12  1  0
M  END
