
     RDKit          3D

 11 10  0  0  0  0  0  0  0  0999 V2000
    1.7480    2.0760    0.0520 C   0  0  0  0  0  0  0  0  0  0  0  0
    1.0470    1.3240   -0.8330 O   0  0  0  0  0  0  0  0  0  0  0  0
    0.9920   -0.0180   -0.6690 C   0  0  0  0  0  0  0  0  0  0  0  0
    0.3750   -0.5250    0.6060 C   0  0  2  0  0  0  0  0  0  0  0  0
    1.0360   -0.0870    1.7350 O   0  0  0  0  0  0  0  0  0  0  0  0
    0.4650   -2.0510    0.5600 C   0  0  0  0  0  0  0  0  0  0  0  0
   -0.2170   -2.4430   -0.5980 O   0  0  0  0  0  0  0  0  0  0  0  0
   -1.0740   -0.1540    0.6600 C   0  0  1  0  0  0  0  0  0  0  0  0
   -1.7230   -0.7000    1.7710 O   0  0  0  0  0  0  0  0  0  0  0  0
   -1.2710    1.2070    0.6070 O   0  0  0  0  0  0  0  0  0  0  0  0
   -2.0690    1.4960   -0.4940 C   0  0  0  0  0  0  0  0  0  0  0  0
  1  2  1  0
  2  3  1  0
  3  4  1  0
  4  5  1  1
  4  6  1  0
  4  8  1  0
  6  7  1  0
  8  9  1  1
  8 10  1  0
 10 11  1  0
M  END
