
     RDKit          3D

 13 14  0  0  0  0  0  0  0  0999 V2000
   -3.5680   -1.7340    0.9400 O   0  0  0  0  0  0  0  0  0  0  0  0
   -2.9800   -1.6760   -0.1780 N   0  0  0  0  0  0  0  0  0  0  0  0
   -2.3720   -0.5290   -0.6530 N   0  0  0  0  0  0  0  0  0  0  0  0
   -1.3700    0.1410    0.1520 C   0  0  1  0  0  0  0  0  0  0  0  0
   -0.2230   -0.7180    0.4440 C   0  0  0  0  0  0  0  0  0  0  0  0
    1.0140   -0.3400    0.2540 C   0  0  0  0  0  0  0  0  0  0  0  0
    2.1910   -1.0020    0.4690 N   0  0  0  0  0  0  0  0  0  0  0  0
    3.1730   -0.1610    0.1070 C   0  0  0  0  0  0  0  0  0  0  0  0
    4.4210   -0.4280    0.1660 O   0  0  0  0  0  0  0  0  0  0  0  0
    2.6550    0.9600   -0.3100 O   0  0  0  0  0  0  0  0  0  0  0  0
    1.3410    0.9150   -0.2450 C   0  0  0  0  0  0  0  0  0  0  0  0
    0.3610    1.7490   -0.5340 C   0  0  0  0  0  0  0  0  0  0  0  0
   -0.9960    1.4120   -0.3550 N   0  0  0  0  0  0  0  0  0  0  0  0
  1  2  2  0
  2  3  1  0
  4  3  1  6
  4  5  1  0
  4 13  1  0
  5  6  2  0
  6  7  1  0
  6 11  1  0
  7  8  1  0
  8  9  2  0
  8 10  1  0
 10 11  1  0
 11 12  2  0
 12 13  1  0
M  END
