
     RDKit          3D

 14 14  0  0  0  0  0  0  0  0999 V2000
   -0.1440   -1.8980   -0.2790 C   0  0  0  0  0  0  0  0  0  0  0  0
    0.4130   -0.6700    0.3830 C   0  0  1  0  0  0  0  0  0  0  0  0
    1.3790    0.0280   -0.4410 N   0  0  0  0  0  0  0  0  0  0  0  0
    2.7160    0.2250    0.0100 C   0  0  0  0  0  0  0  0  0  0  0  0
    3.0700   -0.2150    1.1510 O   0  0  0  0  0  0  0  0  0  0  0  0
    3.6830    0.8790   -0.7230 O   0  0  0  0  0  0  0  0  0  0  0  0
    4.9800    1.0510   -0.2430 N   0  0  0  0  0  0  0  0  0  0  0  0
   -0.7490    0.2350    0.7380 C   0  0  2  0  0  0  0  0  0  0  0  0
   -1.6460   -0.4660    1.5250 O   0  0  0  0  0  0  0  0  0  0  0  0
   -2.9080    0.0680    1.5240 C   0  0  0  0  0  0  0  0  0  0  0  0
   -3.5750   -0.0840    0.2340 N   0  0  0  0  0  0  0  0  0  0  0  0
   -2.6950    0.3430   -0.7990 N   0  0  0  0  0  0  0  0  0  0  0  0
   -1.3950    0.7850   -0.4690 C   0  0  0  0  0  0  0  0  0  0  0  0
   -0.8420    1.6260   -1.2150 O   0  0  0  0  0  0  0  0  0  0  0  0
  2  1  1  6
  2  3  1  0
  2  8  1  0
  3  4  1  0
  4  5  2  0
  4  6  1  0
  6  7  1  0
  8  9  1  6
  8 13  1  0
  9 10  1  0
 10 11  1  0
 11 12  1  0
 12 13  1  0
 13 14  2  0
M  END
