
     RDKit          3D

 39 42  0  0  0  0  0  0  0  0999 V2000
    7.6230    4.1070    1.7100 N   0  0  0  0  0  0  0  0  0  0  0  0
    7.1300    2.7660    1.6630 C   0  0  0  0  0  0  0  0  0  0  0  0
    7.9220    1.8180    1.9690 N   0  0  0  0  0  0  0  0  0  0  0  0
    5.7480    2.5430    1.2680 C   0  0  0  0  0  0  0  0  0  0  0  0
    4.9370    3.6310    0.9450 C   0  0  0  0  0  0  0  0  0  0  0  0
    3.6300    3.4400    0.5700 C   0  0  0  0  0  0  0  0  0  0  0  0
    3.0750    2.1810    0.4990 C   0  0  0  0  0  0  0  0  0  0  0  0
    1.8490    1.7040    0.1710 N   0  0  0  0  0  0  0  0  0  0  0  0
    1.8160    0.3800    0.2600 C   0  0  0  0  0  0  0  0  0  0  0  0
    0.6930   -0.5120   -0.0090 C   0  0  0  0  0  0  0  0  0  0  0  0
    0.8670   -1.8990    0.1370 C   0  0  0  0  0  0  0  0  0  0  0  0
   -0.1400   -2.8020   -0.0970 C   0  0  0  0  0  0  0  0  0  0  0  0
    0.0460   -4.2810    0.0600 C   0  0  1  0  0  0  0  0  0  0  0  0
   -0.9100   -4.7640    1.0950 C   0  0  0  0  0  0  0  0  0  0  0  0
   -0.8540   -6.1940    1.3720 C   0  0  0  0  0  0  0  0  0  0  0  0
   -0.0340   -6.9260    0.7800 O   0  0  0  0  0  0  0  0  0  0  0  0
   -1.7100   -6.7560    2.2950 O   0  0  0  0  0  0  0  0  0  0  0  0
   -0.2350   -4.9760   -1.2280 C   0  0  0  0  0  0  0  0  0  0  0  0
   -1.1580   -5.8240   -1.3130 O   0  0  0  0  0  0  0  0  0  0  0  0
    0.5000   -4.7270   -2.3890 O   0  0  0  0  0  0  0  0  0  0  0  0
   -1.3760   -2.2930   -0.4950 C   0  0  0  0  0  0  0  0  0  0  0  0
   -1.6130   -0.9580   -0.6560 C   0  0  0  0  0  0  0  0  0  0  0  0
   -2.9270   -0.4100   -1.0480 C   0  0  0  0  0  0  0  0  0  0  0  0
   -3.5160    0.5630   -0.2350 C   0  0  0  0  0  0  0  0  0  0  0  0
   -4.7540    1.0850   -0.5140 C   0  0  0  0  0  0  0  0  0  0  0  0
   -5.3970    2.1230    0.3530 C   0  0  0  0  0  0  0  0  0  0  0  0
   -4.7740    3.3900    0.0500 N   0  0  0  0  0  0  0  0  0  0  0  0
   -5.0620    4.1290   -1.1130 C   0  0  0  0  0  0  0  0  0  0  0  0
   -4.4290    5.3730   -1.3770 N   0  0  0  0  0  0  0  0  0  0  0  0
   -5.8920    3.6900   -1.9410 O   0  0  0  0  0  0  0  0  0  0  0  0
   -5.3810    0.5950   -1.6420 C   0  0  0  0  0  0  0  0  0  0  0  0
   -4.8290   -0.3530   -2.4540 C   0  0  0  0  0  0  0  0  0  0  0  0
   -3.5870   -0.8650   -2.1590 C   0  0  0  0  0  0  0  0  0  0  0  0
   -3.0180   -1.8410   -3.0050 O   0  0  0  0  0  0  0  0  0  0  0  0
   -0.5500   -0.0740   -0.4040 C   0  0  0  0  0  0  0  0  0  0  0  0
   -0.8350    1.2620   -0.5790 O   0  0  0  0  0  0  0  0  0  0  0  0
    3.0620    0.0130    0.6580 N   0  0  0  0  0  0  0  0  0  0  0  0
    3.8470    1.0850    0.8110 C   0  0  0  0  0  0  0  0  0  0  0  0
    5.1580    1.3030    1.1850 C   0  0  0  0  0  0  0  0  0  0  0  0
  1  2  1  0
  2  3  2  0
  2  4  1  0
  4  5  2  0
  4 39  1  0
  5  6  1  0
  6  7  2  0
  7  8  1  0
  7 38  1  0
  8  9  2  0
  9 10  1  0
  9 37  1  0
 10 11  2  0
 10 35  1  0
 11 12  1  0
 12 13  1  0
 12 21  2  0
 13 14  1  1
 13 18  1  0
 14 15  1  0
 15 16  2  0
 15 17  1  0
 18 19  2  0
 18 20  1  0
 21 22  1  0
 22 23  1  0
 22 35  2  0
 23 24  2  0
 23 33  1  0
 24 25  1  0
 25 26  1  0
 25 31  2  0
 26 27  1  0
 27 28  1  0
 28 29  1  0
 28 30  2  0
 31 32  1  0
 32 33  2  0
 33 34  1  0
 35 36  1  0
 37 38  1  0
 38 39  2  0
M  CHG  1   3   1
M  END
