
     RDKit          3D

 38 39  0  0  0  0  0  0  0  0999 V2000
    7.5240    1.4470    1.4760 C   0  0  0  0  0  0  0  0  0  0  0  0
    7.5470    0.5470    0.4000 O   0  0  0  0  0  0  0  0  0  0  0  0
    7.3000    1.0430   -0.8640 C   0  0  0  0  0  0  0  0  0  0  0  0
    7.0480    2.2130   -1.1750 O   0  0  0  0  0  0  0  0  0  0  0  0
    7.3530    0.0700   -1.9360 N   0  0  0  0  0  0  0  0  0  0  0  0
    7.1430    0.5020   -3.3030 C   0  0  1  0  0  0  0  0  0  0  0  0
    8.4130    0.1470   -4.1030 C   0  0  0  0  0  0  0  0  0  0  0  0
    6.0150   -0.1370   -3.9700 C   0  0  2  0  0  0  0  0  0  0  0  0
    5.9280    0.4980   -5.3890 C   0  0  0  0  0  0  0  0  0  0  0  0
    4.7380    0.0040   -3.3660 O   0  0  0  0  0  0  0  0  0  0  0  0
    3.8090   -0.9940   -3.2920 C   0  0  0  0  0  0  0  0  0  0  0  0
    4.1010   -2.1070   -3.8000 O   0  0  0  0  0  0  0  0  0  0  0  0
    2.4900   -0.8650   -2.6720 C   0  0  0  0  0  0  0  0  0  0  0  0
    2.1280    0.2210   -1.9000 C   0  0  0  0  0  0  0  0  0  0  0  0
    0.8330    0.3430   -1.3820 C   0  0  0  0  0  0  0  0  0  0  0  0
   -0.1280   -0.6190   -1.6290 C   0  0  0  0  0  0  0  0  0  0  0  0
   -1.4140   -0.4660   -1.1130 O   0  0  0  0  0  0  0  0  0  0  0  0
   -1.7530    0.6370   -0.2840 C   0  0  0  0  0  0  0  0  0  0  0  0
   -3.1840    0.6770    0.0390 C   0  0  0  0  0  0  0  0  0  0  0  0
   -4.0070    0.0060   -0.6160 O   0  0  0  0  0  0  0  0  0  0  0  0
   -3.6650    1.4950    1.1190 N   0  0  0  0  0  0  0  0  0  0  0  0
   -5.0670    1.5460    1.2440 C   0  0  0  0  0  0  0  0  0  0  0  0
   -5.9280    0.6390    1.9790 C   0  0  0  0  0  0  0  0  0  0  0  0
   -5.9720   -0.8250    1.7130 C   0  0  2  0  0  0  0  0  0  0  0  0
   -7.1350   -1.3320    2.6470 C   0  0  0  0  0  0  0  0  0  0  0  0
   -4.7320   -1.5180    2.2430 C   0  0  0  0  0  0  0  0  0  0  0  0
   -4.7910   -3.0090    1.9730 C   0  0  0  0  0  0  0  0  0  0  0  0
   -4.8670   -3.3710    0.5300 C   0  0  0  0  0  0  0  0  0  0  0  0
   -3.7040   -2.9300   -0.1080 O   0  0  0  0  0  0  0  0  0  0  0  0
   -2.6190    2.1640    1.8330 C   0  0  0  0  0  0  0  0  0  0  0  0
   -2.1020    1.4310    3.0510 C   0  0  1  0  0  0  0  0  0  0  0  0
   -0.9390    2.1810    3.5970 C   0  0  0  0  0  0  0  0  0  0  0  0
   -1.3970    3.3080    4.4920 C   0  0  0  0  0  0  0  0  0  0  0  0
   -2.5620    2.2790    5.5070 S   0  0  0  0  0  0  0  0  0  0  0  0
   -3.2080    1.3090    4.0790 C   0  0  0  0  0  0  0  0  0  0  0  0
    0.2090   -1.7110   -2.3960 C   0  0  0  0  0  0  0  0  0  0  0  0
   -0.8040   -2.7910   -2.6870 C   0  0  0  0  0  0  0  0  0  0  0  0
    1.5050   -1.8080   -2.8960 C   0  0  0  0  0  0  0  0  0  0  0  0
  1  2  1  0
  2  3  1  0
  3  4  2  0
  3  5  1  0
  5  6  1  0
  6  7  1  6
  6  8  1  0
  8  9  1  6
  8 10  1  0
 10 11  1  0
 11 12  2  0
 11 13  1  0
 13 14  2  0
 13 38  1  0
 14 15  1  0
 15 16  2  0
 16 17  1  0
 16 36  1  0
 17 18  1  0
 18 19  1  0
 19 20  2  0
 19 21  1  0
 21 22  1  0
 21 30  1  0
 22 23  1  0
 23 24  1  0
 24 25  1  1
 24 26  1  0
 26 27  1  0
 27 28  1  0
 28 29  1  0
 31 30  1  6
 31 32  1  0
 31 35  1  0
 32 33  1  0
 33 34  1  0
 34 35  1  0
 36 37  1  0
 36 38  2  0
M  END
