
     RDKit          3D

 39 40  0  0  0  0  0  0  0  0999 V2000
   -3.1080    0.8930   -4.1110 C   0  0  0  0  0  0  0  0  0  0  0  0
   -3.9710    0.3630   -3.2320 C   0  0  0  0  0  0  0  0  0  0  0  0
   -5.2900    0.1860   -3.6610 O   0  0  0  0  0  0  0  0  0  0  0  0
   -3.5620   -0.0030   -1.9100 C   0  0  0  0  0  0  0  0  0  0  0  0
   -4.4070   -0.5070   -1.0540 C   0  0  0  0  0  0  0  0  0  0  0  0
   -5.8610   -0.7510   -1.3670 C   0  0  0  0  0  0  0  0  0  0  0  0
   -2.1180    0.1720   -1.4960 C   0  0  0  0  0  0  0  0  0  0  0  0
   -1.9620   -0.3820   -0.2150 N   0  0  0  0  0  0  0  0  0  0  0  0
   -0.8380   -0.0590    0.6030 C   0  0  0  0  0  0  0  0  0  0  0  0
   -0.7050    1.3780    1.0340 C   0  0  2  0  0  0  0  0  0  0  0  0
   -1.8230    1.8940    1.6090 O   0  0  0  0  0  0  0  0  0  0  0  0
    0.1000    2.2130    0.1050 C   0  0  0  0  0  0  0  0  0  0  0  0
    0.5250    3.4640    0.7300 N   0  0  0  0  0  0  0  0  0  0  0  0
   -0.4120    4.5730    0.5070 C   0  0  0  0  0  0  0  0  0  0  0  0
    1.6780    3.6910    1.4690 C   0  0  0  0  0  0  0  0  0  0  0  0
    1.8230    4.8960    1.9150 O   0  0  0  0  0  0  0  0  0  0  0  0
    2.7340    2.7580    1.8100 C   0  0  0  0  0  0  0  0  0  0  0  0
    2.6150    2.0450    2.9890 C   0  0  0  0  0  0  0  0  0  0  0  0
    3.6020    1.1660    3.4040 C   0  0  0  0  0  0  0  0  0  0  0  0
    4.7330    0.9750    2.6550 C   0  0  0  0  0  0  0  0  0  0  0  0
    5.8210    0.0480    3.1380 C   0  0  0  0  0  0  0  0  0  0  0  0
    4.8420    1.6840    1.4870 C   0  0  0  0  0  0  0  0  0  0  0  0
    3.8600    2.5760    1.0430 C   0  0  0  0  0  0  0  0  0  0  0  0
    4.0710    3.2810   -0.2120 C   0  0  0  0  0  0  0  0  0  0  0  0
    3.1990    4.0760   -0.6130 O   0  0  0  0  0  0  0  0  0  0  0  0
    5.2050    3.0840   -0.9470 O   0  0  0  0  0  0  0  0  0  0  0  0
    5.5540    3.6800   -2.1740 C   0  0  0  0  0  0  0  0  0  0  0  0
    6.9490    3.1030   -2.4970 C   0  0  0  0  0  0  0  0  0  0  0  0
   -1.8350   -1.8570   -0.4940 C   0  0  1  0  0  0  0  0  0  0  0  0
   -0.6500   -2.1760   -1.3330 C   0  0  0  0  0  0  0  0  0  0  0  0
   -0.1980   -3.6020   -0.9890 C   0  0  0  0  0  0  0  0  0  0  0  0
   -1.2650   -4.4310   -0.7660 O   0  0  0  0  0  0  0  0  0  0  0  0
   -1.9660   -4.1230    0.3980 C   0  0  1  0  0  0  0  0  0  0  0  0
   -3.4260   -4.4080    0.1420 C   0  0  0  0  0  0  0  0  0  0  0  0
   -3.6400   -5.7540   -0.1650 O   0  0  0  0  0  0  0  0  0  0  0  0
   -1.4170   -5.0420    1.4770 C   0  0  0  0  0  0  0  0  0  0  0  0
   -2.2740   -4.7440    3.0430 S   0  0  0  0  0  0  0  0  0  0  0  0
   -3.2070   -5.8660    3.4100 O   0  0  0  0  0  0  0  0  0  0  0  0
   -1.8230   -2.6610    0.7590 C   0  0  0  0  0  0  0  0  0  0  0  0
  1  2  2  0
  2  3  1  0
  2  4  1  0
  4  5  2  3
  4  7  1  0
  5  6  1  0
  7  8  1  0
  8  9  1  0
 29  8  1  1
  9 10  1  0
 10 11  1  6
 10 12  1  0
 12 13  1  0
 13 14  1  0
 13 15  1  0
 15 16  2  0
 15 17  1  0
 17 18  2  0
 17 23  1  0
 18 19  1  0
 19 20  2  0
 20 21  1  0
 20 22  1  0
 22 23  2  0
 23 24  1  0
 24 25  2  0
 24 26  1  0
 26 27  1  0
 27 28  1  0
 29 30  1  0
 29 39  1  0
 30 31  1  0
 31 32  1  0
 32 33  1  0
 33 34  1  6
 33 36  1  0
 33 39  1  0
 34 35  1  0
 36 37  1  0
 37 38  2  0
M  END
