
     RDKit          3D

 39 40  0  0  0  0  0  0  0  0999 V2000
   -1.2060    8.2540   -2.6720 C   0  0  0  0  0  0  0  0  0  0  0  0
   -1.0330    7.9690   -1.4080 C   0  0  0  0  0  0  0  0  0  0  0  0
   -0.8860    6.5420   -0.9390 C   0  0  0  0  0  0  0  0  0  0  0  0
   -1.9430    6.3140   -0.0370 O   0  0  0  0  0  0  0  0  0  0  0  0
   -2.1170    5.0750    0.6010 C   0  0  0  0  0  0  0  0  0  0  0  0
   -3.1480    4.8610    1.4770 C   0  0  0  0  0  0  0  0  0  0  0  0
   -3.2930    3.6340    2.0890 C   0  0  0  0  0  0  0  0  0  0  0  0
   -2.4380    2.5850    1.8620 C   0  0  0  0  0  0  0  0  0  0  0  0
   -2.6340    1.2900    2.5450 C   0  0  0  0  0  0  0  0  0  0  0  0
   -3.2060    0.2620    1.6400 C   0  0  0  0  0  0  0  0  0  0  0  0
   -3.4460    0.5900    0.4490 O   0  0  0  0  0  0  0  0  0  0  0  0
   -3.4930   -1.0200    2.0080 O   0  0  0  0  0  0  0  0  0  0  0  0
   -4.0350   -2.0060    1.1670 C   0  0  2  0  0  0  0  0  0  0  0  0
   -5.4220   -2.3420    1.6650 C   0  0  0  0  0  0  0  0  0  0  0  0
   -5.4200   -3.5090    2.6200 C   0  0  0  0  0  0  0  0  0  0  0  0
   -5.4400   -4.8040    1.8270 C   0  0  0  0  0  0  0  0  0  0  0  0
   -4.2900   -4.5690    0.4420 S   0  0  0  0  0  0  0  0  0  0  0  0
   -3.1750   -3.2050    0.9700 C   0  0  1  0  0  0  0  0  0  0  0  0
   -2.3310   -2.9820   -0.1100 O   0  0  0  0  0  0  0  0  0  0  0  0
   -1.0390   -3.3070    0.3020 C   0  0  0  0  0  0  0  0  0  0  0  0
   -1.3800    2.7780    0.9730 C   0  0  0  0  0  0  0  0  0  0  0  0
   -0.4970    1.6940    0.7370 N   0  0  0  0  0  0  0  0  0  0  0  0
    0.6190    1.6680   -0.1000 C   0  0  0  0  0  0  0  0  0  0  0  0
    0.9510    2.6660   -0.7540 O   0  0  0  0  0  0  0  0  0  0  0  0
    1.4100    0.4350   -0.2020 C   0  0  0  0  0  0  0  0  0  0  0  0
    1.0840   -0.5670    0.4560 O   0  0  0  0  0  0  0  0  0  0  0  0
    2.5280    0.4270   -1.0550 N   0  0  0  0  0  0  0  0  0  0  0  0
    3.3980   -0.7360   -1.2460 C   0  0  1  0  0  0  0  0  0  0  0  0
    3.9380   -1.0360    0.1390 C   0  0  0  0  0  0  0  0  0  0  0  0
    4.7020    0.1960    0.6730 C   0  0  0  0  0  0  0  0  0  0  0  0
    2.6090   -1.8340   -1.7870 C   0  0  0  0  0  0  0  0  0  0  0  0
    3.1470   -3.1370   -2.1420 C   0  0  0  0  0  0  0  0  0  0  0  0
    3.8050   -4.0190   -1.1650 C   0  0  0  0  0  0  0  0  0  0  0  0
    2.9320   -4.3890    0.0150 C   0  0  0  0  0  0  0  0  0  0  0  0
    4.5150   -0.2930   -2.1220 C   0  0  0  0  0  0  0  0  0  0  0  0
    4.5310    0.8860   -2.5190 O   0  0  0  0  0  0  0  0  0  0  0  0
    5.5390   -1.1310   -2.5200 O   0  0  0  0  0  0  0  0  0  0  0  0
    6.5670   -0.6180   -3.3620 C   0  0  0  0  0  0  0  0  0  0  0  0
   -1.2420    4.0140    0.3640 C   0  0  0  0  0  0  0  0  0  0  0  0
  1  2  2  0
  2  3  1  0
  3  4  1  0
  4  5  1  0
  5  6  2  0
  5 39  1  0
  6  7  1  0
  7  8  2  0
  8  9  1  0
  8 21  1  0
  9 10  1  0
 10 11  2  0
 10 12  1  0
 13 12  1  1
 13 14  1  0
 13 18  1  0
 14 15  1  0
 15 16  1  0
 16 17  1  0
 17 18  1  0
 18 19  1  6
 19 20  1  0
 21 22  1  0
 21 39  2  0
 22 23  1  0
 23 24  2  0
 23 25  1  0
 25 26  2  0
 25 27  1  0
 27 28  1  0
 28 29  1  1
 28 31  1  0
 28 35  1  0
 29 30  1  0
 31 32  1  0
 32 33  1  0
 33 34  1  0
 35 36  2  0
 35 37  1  0
 37 38  1  0
M  END
