
     RDKit          3D

 39 41  0  0  0  0  0  0  0  0999 V2000
   -3.4940    3.6520    2.3120 C   0  0  0  0  0  0  0  0  0  0  0  0
   -4.0820    2.2870    2.5970 C   0  0  0  0  0  0  0  0  0  0  0  0
   -3.8660    1.4630    1.5070 O   0  0  0  0  0  0  0  0  0  0  0  0
   -2.7070    1.0480    0.9320 C   0  0  0  0  0  0  0  0  0  0  0  0
   -1.5030    1.4960    1.5050 C   0  0  0  0  0  0  0  0  0  0  0  0
   -0.3030    1.0840    0.9270 C   0  0  0  0  0  0  0  0  0  0  0  0
   -0.2820    0.2630   -0.1710 C   0  0  0  0  0  0  0  0  0  0  0  0
    0.9240   -0.1370   -0.7810 N   0  0  0  0  0  0  0  0  0  0  0  0
    2.1800    0.4710   -0.7110 C   0  0  0  0  0  0  0  0  0  0  0  0
    2.3410    1.5150   -0.0480 O   0  0  0  0  0  0  0  0  0  0  0  0
    3.3880   -0.0890   -1.4220 C   0  0  1  0  0  0  0  0  0  0  0  0
    3.0530   -0.1260   -2.8930 C   0  0  0  0  0  0  0  0  0  0  0  0
    4.5330    0.7620   -1.2410 N   0  0  0  0  0  0  0  0  0  0  0  0
    5.6970    0.2700   -0.5890 C   0  0  0  0  0  0  0  0  0  0  0  0
    5.6750   -0.9050   -0.1890 O   0  0  0  0  0  0  0  0  0  0  0  0
    6.8980    1.0950   -0.3820 C   0  0  0  0  0  0  0  0  0  0  0  0
    8.0050    0.3850    0.3720 C   0  0  2  0  0  0  0  0  0  0  0  0
    9.1620    1.3280    0.5090 C   0  0  0  0  0  0  0  0  0  0  0  0
   10.2120    0.8710    1.2670 O   0  0  0  0  0  0  0  0  0  0  0  0
    9.8700    0.6340    2.5670 C   0  0  0  0  0  0  0  0  0  0  0  0
    8.3560   -0.8250   -0.2130 O   0  0  0  0  0  0  0  0  0  0  0  0
    8.0910   -1.9080    0.6140 C   0  0  1  0  0  0  0  0  0  0  0  0
    7.9830   -3.2900    0.0710 C   0  0  0  0  0  0  0  0  0  0  0  0
    9.2770   -2.8760    0.6870 C   0  0  0  0  0  0  0  0  0  0  0  0
   -1.4700   -0.1690   -0.7210 C   0  0  0  0  0  0  0  0  0  0  0  0
   -2.7150    0.2280   -0.1640 C   0  0  0  0  0  0  0  0  0  0  0  0
   -3.8380   -0.2270   -0.7540 O   0  0  0  0  0  0  0  0  0  0  0  0
   -5.1950   -0.0730   -0.4390 C   0  0  2  0  0  0  0  0  0  0  0  0
   -5.8310   -1.3630   -0.8080 C   0  0  0  0  0  0  0  0  0  0  0  0
   -7.2600   -1.6250   -0.6300 C   0  0  1  0  0  0  0  0  0  0  0  0
   -8.1100   -0.7000   -1.4550 C   0  0  0  0  0  0  0  0  0  0  0  0
   -7.5500   -3.0250   -1.0710 C   0  0  0  0  0  0  0  0  0  0  0  0
   -7.2260   -3.9890   -0.0040 C   0  0  0  0  0  0  0  0  0  0  0  0
   -7.7800   -3.1240    1.4910 S   0  0  0  0  0  0  0  0  0  0  0  0
   -7.7440   -1.4560    0.7890 C   0  0  0  0  0  0  0  0  0  0  0  0
   -5.6370    1.1290   -1.2010 C   0  0  0  0  0  0  0  0  0  0  0  0
   -4.9140    1.6120   -2.1150 O   0  0  0  0  0  0  0  0  0  0  0  0
   -6.8220    1.7850   -0.9650 O   0  0  0  0  0  0  0  0  0  0  0  0
   -7.2290    2.9340   -1.6910 C   0  0  0  0  0  0  0  0  0  0  0  0
  1  2  1  0
  2  3  1  0
  3  4  1  0
  4  5  2  0
  4 26  1  0
  5  6  1  0
  6  7  2  0
  7  8  1  0
  7 25  1  0
  8  9  1  0
  9 10  2  0
  9 11  1  0
 11 12  1  6
 11 13  1  0
 13 14  1  0
 14 15  2  0
 14 16  1  0
 17 16  1  6
 17 18  1  0
 17 21  1  0
 18 19  1  0
 19 20  1  0
 22 21  1  6
 22 23  1  0
 22 24  1  0
 23 24  1  0
 25 26  2  0
 26 27  1  0
 27 28  1  0
 28 29  1  6
 28 36  1  0
 29 30  1  0
 30 31  1  6
 30 32  1  0
 30 35  1  0
 32 33  1  0
 33 34  1  0
 34 35  1  0
 36 37  2  0
 36 38  1  0
 38 39  1  0
M  END
