
     RDKit          3D

 39 42  0  0  0  0  0  0  0  0999 V2000
   10.3720   -0.8360    3.1230 C   0  0  0  0  0  0  0  0  0  0  0  0
   10.6930    0.1720    2.2260 O   0  0  0  0  0  0  0  0  0  0  0  0
    9.8840    0.7990    1.3040 C   0  0  0  0  0  0  0  0  0  0  0  0
   10.4680    1.8010    0.5160 C   0  0  0  0  0  0  0  0  0  0  0  0
    9.7540    2.4920   -0.4350 C   0  0  0  0  0  0  0  0  0  0  0  0
    8.4140    2.1980   -0.6320 C   0  0  0  0  0  0  0  0  0  0  0  0
    7.7790    2.9410   -1.6010 O   0  0  0  0  0  0  0  0  0  0  0  0
    7.8250    1.2080    0.1400 C   0  0  0  0  0  0  0  0  0  0  0  0
    6.4430    0.8460   -0.1640 C   0  0  0  0  0  0  0  0  0  0  0  0
    5.7270    0.0300    0.5710 C   0  0  0  0  0  0  0  0  0  0  0  0
    4.3610   -0.2890    0.1940 C   0  0  0  0  0  0  0  0  0  0  0  0
    3.6900   -1.0420    0.9360 O   0  0  0  0  0  0  0  0  0  0  0  0
    3.7560    0.1930   -0.9700 N   0  0  0  0  0  0  0  0  0  0  0  0
    2.4620   -0.0390   -1.4850 C   0  0  0  0  0  0  0  0  0  0  0  0
    2.4200   -0.3580   -2.8680 C   0  0  0  0  0  0  0  0  0  0  0  0
    1.2320   -0.5320   -3.5270 C   0  0  0  0  0  0  0  0  0  0  0  0
    0.0710   -0.3880   -2.8120 C   0  0  0  0  0  0  0  0  0  0  0  0
    0.0740   -0.0790   -1.4660 C   0  0  0  0  0  0  0  0  0  0  0  0
   -1.0910    0.0820   -0.7840 N   0  0  0  0  0  0  0  0  0  0  0  0
   -2.2150   -0.8730   -1.1540 C   0  0  0  0  0  0  0  0  0  0  0  0
   -1.9900   -1.7480   -1.9080 O   0  0  0  0  0  0  0  0  0  0  0  0
   -3.3320   -0.4200   -0.4530 N   0  0  0  0  0  0  0  0  0  0  0  0
   -4.4650   -1.5340   -1.1020 C   0  0  0  0  0  0  0  0  0  0  0  0
   -3.9680   -2.3560   -1.7980 O   0  0  0  0  0  0  0  0  0  0  0  0
   -5.8090   -1.3180   -0.7330 C   0  0  0  0  0  0  0  0  0  0  0  0
   -6.3540   -0.4060    0.0140 C   0  0  0  0  0  0  0  0  0  0  0  0
   -7.8140   -0.2960    0.3070 C   0  0  0  0  0  0  0  0  0  0  0  0
   -8.2490    0.6940    1.2810 C   0  0  0  0  0  0  0  0  0  0  0  0
   -7.4360    1.6530    1.8100 C   0  0  0  0  0  0  0  0  0  0  0  0
   -8.2560    2.4460    2.7380 C   0  0  0  0  0  0  0  0  0  0  0  0
   -9.4990    2.1230    2.3450 C   0  0  0  0  0  0  0  0  0  0  0  0
   -9.4960    0.8210    1.9960 C   0  0  0  0  0  0  0  0  0  0  0  0
   -8.6380   -1.1520   -0.2080 C   0  0  0  0  0  0  0  0  0  0  0  0
  -10.1150   -1.1580   -0.0180 C   0  0  0  0  0  0  0  0  0  0  0  0
  -10.5680   -2.6180    0.8640 Cl  0  0  0  0  0  0  0  0  0  0  0  0
   -8.1450   -2.2310   -1.1200 C   0  0  0  0  0  0  0  0  0  0  0  0
   -6.7430   -2.3210   -1.2330 N   0  0  0  0  0  0  0  0  0  0  0  0
    1.2920    0.0880   -0.8310 C   0  0  0  0  0  0  0  0  0  0  0  0
    8.5520    0.5200    1.0950 C   0  0  0  0  0  0  0  0  0  0  0  0
  1  2  1  0
  2  3  1  0
  3  4  2  0
  3 39  1  0
  4  5  1  0
  5  6  2  0
  6  7  1  0
  6  8  1  0
  8  9  1  0
  8 39  2  0
  9 10  2  3
 10 11  1  0
 11 12  2  0
 11 13  1  0
 13 14  1  0
 14 15  2  0
 14 38  1  0
 15 16  1  0
 16 17  2  0
 17 18  1  0
 18 19  1  0
 18 38  2  0
 19 20  1  0
 20 21  2  0
 20 22  1  0
 22 23  1  0
 23 24  2  0
 23 25  1  0
 25 26  2  0
 25 37  1  0
 26 27  1  0
 27 28  1  0
 27 33  2  0
 28 29  2  0
 28 32  1  0
 29 30  1  0
 30 31  2  0
 31 32  2  0
 33 34  1  0
 33 36  1  0
 34 35  1  0
 36 37  1  0
M  END
