
     RDKit          3D

 39 40  0  0  0  0  0  0  0  0999 V2000
   -8.6780   -3.5520    2.1820 C   0  0  0  0  0  0  0  0  0  0  0  0
   -8.6370   -2.3090    2.6300 O   0  0  0  0  0  0  0  0  0  0  0  0
   -7.8360   -1.3160    2.3250 C   0  0  0  0  0  0  0  0  0  0  0  0
   -7.6580   -0.7890    0.9490 C   0  0  1  0  0  0  0  0  0  0  0  0
   -6.8810    0.4020    1.0260 O   0  0  0  0  0  0  0  0  0  0  0  0
   -7.2710    1.4000    0.1860 C   0  0  1  0  0  0  0  0  0  0  0  0
   -7.6260    2.6850    0.9020 C   0  0  0  0  0  0  0  0  0  0  0  0
   -6.1390    1.7670   -0.7770 C   0  0  0  0  0  0  0  0  0  0  0  0
   -6.6790   -1.6850    0.1960 C   0  0  0  0  0  0  0  0  0  0  0  0
   -6.9870   -2.8690    0.0180 O   0  0  0  0  0  0  0  0  0  0  0  0
   -5.4870   -1.2560   -0.3020 O   0  0  0  0  0  0  0  0  0  0  0  0
   -4.5260   -1.9940   -1.0150 C   0  0  1  0  0  0  0  0  0  0  0  0
   -4.6360   -1.4580   -2.4870 C   0  0  0  0  0  0  0  0  0  0  0  0
   -3.1290   -1.6650   -0.6600 C   0  0  0  0  0  0  0  0  0  0  0  0
   -2.2310   -2.2030   -1.3980 O   0  0  0  0  0  0  0  0  0  0  0  0
   -2.7640   -0.8140    0.4040 N   0  0  0  0  0  0  0  0  0  0  0  0
   -1.3460   -0.4600    0.6780 C   0  0  0  0  0  0  0  0  0  0  0  0
   -0.8570    0.3370   -0.5280 C   0  0  0  0  0  0  0  0  0  0  0  0
    0.4820    0.7490   -0.4250 N   0  0  0  0  0  0  0  0  0  0  0  0
    1.5710   -0.1850   -0.3770 C   0  0  0  0  0  0  0  0  0  0  0  0
    1.3020   -1.3980   -0.4230 O   0  0  0  0  0  0  0  0  0  0  0  0
    2.9190    0.3710   -0.2880 C   0  0  0  0  0  0  0  0  0  0  0  0
    3.8750   -0.0010   -1.2100 C   0  0  0  0  0  0  0  0  0  0  0  0
    5.1300    0.5800   -1.2850 C   0  0  0  0  0  0  0  0  0  0  0  0
    6.1060    0.1600   -2.3030 C   0  0  0  0  0  0  0  0  0  0  0  0
    7.1360   -0.8380   -1.8070 C   0  0  2  0  0  0  0  0  0  0  0  0
    6.5830   -2.1030   -1.2870 C   0  0  0  0  0  0  0  0  0  0  0  0
    7.8640   -0.1400   -0.7940 O   0  0  0  0  0  0  0  0  0  0  0  0
    9.1790    0.2300   -1.1260 C   0  0  0  0  0  0  0  0  0  0  0  0
    9.6470   -0.0720   -2.2750 O   0  0  0  0  0  0  0  0  0  0  0  0
   10.0190    0.9450   -0.2090 C   0  0  0  0  0  0  0  0  0  0  0  0
    9.8760    1.3990    1.0660 C   0  0  0  0  0  0  0  0  0  0  0  0
   10.8460    2.0670    1.6550 C   0  0  0  0  0  0  0  0  0  0  0  0
   12.0260    2.3330    1.0190 C   0  0  0  0  0  0  0  0  0  0  0  0
   11.7110    1.5260   -0.6230 S   0  0  0  0  0  0  0  0  0  0  0  0
    5.3820    1.5900   -0.3520 C   0  0  0  0  0  0  0  0  0  0  0  0
    4.4480    1.9900    0.5870 C   0  0  0  0  0  0  0  0  0  0  0  0
    3.1980    1.3610    0.6100 C   0  0  0  0  0  0  0  0  0  0  0  0
    2.1920    1.7290    1.6340 C   0  0  0  0  0  0  0  0  0  0  0  0
  1  2  1  0
  2  3  1  0
  4  3  1  1
  4  5  1  0
  4  9  1  0
  5  6  1  0
  6  7  1  1
  6  8  1  0
  9 10  2  0
  9 11  1  0
 11 12  1  0
 12 13  1  6
 12 14  1  0
 14 15  2  0
 14 16  1  0
 16 17  1  0
 17 18  1  0
 18 19  1  0
 19 20  1  0
 20 21  2  0
 20 22  1  0
 22 23  2  0
 22 38  1  0
 23 24  1  0
 24 25  1  0
 24 36  2  0
 25 26  1  0
 26 27  1  1
 26 28  1  0
 28 29  1  0
 29 30  2  0
 29 31  1  0
 31 32  2  0
 31 35  1  0
 32 33  1  0
 33 34  2  0
 34 35  1  0
 36 37  1  0
 37 38  2  0
 38 39  1  0
M  END
