
     RDKit          3D

 23 23  0  0  0  0  0  0  0  0999 V2000
    0.9610    0.0940   -3.2320 C   0  0  0  0  0  0  0  0  0  0  0  0
    1.1650    0.6100   -2.0050 C   0  0  0  0  0  0  0  0  0  0  0  0
    2.0050   -0.0810   -1.0960 N   0  0  0  0  0  0  0  0  0  0  0  0
    1.7660   -0.6200    0.1950 C   0  0  0  0  0  0  0  0  0  0  0  0
    2.6150   -0.1800    1.3090 C   0  0  0  0  0  0  0  0  0  0  0  0
    3.5570    0.6520    1.1780 O   0  0  0  0  0  0  0  0  0  0  0  0
    2.3760   -0.6990    2.5730 O   0  0  0  0  0  0  0  0  0  0  0  0
    3.1600   -0.3190    3.7120 C   0  0  0  0  0  0  0  0  0  0  0  0
    0.8210   -1.5330    0.4720 C   0  0  0  0  0  0  0  0  0  0  0  0
   -0.1350   -2.1560   -0.4240 C   0  0  0  0  0  0  0  0  0  0  0  0
    0.1450   -3.6120   -0.8100 C   0  0  0  0  0  0  0  0  0  0  0  0
   -1.2700   -1.6880   -0.8810 C   0  0  0  0  0  0  0  0  0  0  0  0
   -1.9510   -0.4400   -0.6540 C   0  0  0  0  0  0  0  0  0  0  0  0
   -2.6170    0.0280   -1.6620 O   0  0  0  0  0  0  0  0  0  0  0  0
   -2.0130    0.3920    0.5520 C   0  0  0  0  0  0  0  0  0  0  0  0
   -3.2160    0.6700    1.0990 C   0  0  0  0  0  0  0  0  0  0  0  0
   -4.4440    0.1320    0.4650 C   0  0  0  0  0  0  0  0  0  0  0  0
   -0.8730    1.0070    1.2360 C   0  0  0  0  0  0  0  0  0  0  0  0
   -0.6990    0.5790    2.9650 Cl  0  0  0  0  0  0  0  0  0  0  0  0
    0.0050    1.8600    0.7010 C   0  0  0  0  0  0  0  0  0  0  0  0
    0.0390    2.3710   -0.6460 C   0  0  0  0  0  0  0  0  0  0  0  0
    0.4960    1.8930   -1.7620 C   0  0  0  0  0  0  0  0  0  0  0  0
    0.2850    2.7540   -3.0160 C   0  0  0  0  0  0  0  0  0  0  0  0
  1  2  2  0
  2  3  1  0
  2 22  1  0
  3  4  1  0
  4  5  1  0
  4  9  2  0
  5  6  2  0
  5  7  1  0
  7  8  1  0
  9 10  1  0
 10 11  1  0
 10 12  2  0
 12 13  1  0
 13 14  2  0
 13 15  1  0
 15 16  2  3
 15 18  1  0
 16 17  1  0
 18 19  1  0
 18 20  2  0
 20 21  1  0
 21 22  2  0
 22 23  1  0
M  END
