
     RDKit          3D

 17 17  0  0  0  0  0  0  0  0999 V2000
   -3.2580    1.1070   -1.9870 C   0  0  0  0  0  0  0  0  0  0  0  0
   -3.3100    0.7050   -0.7220 C   0  0  0  0  0  0  0  0  0  0  0  0
   -2.1660    0.2950   -0.0140 C   0  0  0  0  0  0  0  0  0  0  0  0
   -2.1150   -0.1170    1.2180 C   0  0  0  0  0  0  0  0  0  0  0  0
   -3.0410   -0.3260    2.2960 C   0  0  0  0  0  0  0  0  0  0  0  0
   -0.8420    0.3260   -0.7300 C   0  0  0  0  0  0  0  0  0  0  0  0
   -0.6060    0.6640   -1.8710 O   0  0  0  0  0  0  0  0  0  0  0  0
    0.3020   -0.0890   -0.0050 O   0  0  0  0  0  0  0  0  0  0  0  0
    1.5950   -0.0930   -0.6030 C   0  0  2  0  0  0  0  0  0  0  0  0
    2.1000   -1.4890   -0.5530 C   0  0  0  0  0  0  0  0  0  0  0  0
    3.5890   -1.6290   -0.4610 C   0  0  0  0  0  0  0  0  0  0  0  0
    4.1860   -0.6670    0.5490 C   0  0  0  0  0  0  0  0  0  0  0  0
    3.8920    0.7190    0.0140 C   0  0  0  0  0  0  0  0  0  0  0  0
    2.4140    0.9180    0.1350 C   0  0  0  0  0  0  0  0  0  0  0  0
   -4.6830    0.7490   -0.1450 C   0  0  1  0  0  0  0  0  0  0  0  0
   -5.0540   -0.4390    0.3770 F   0  0  0  0  0  0  0  0  0  0  0  0
   -4.9230    1.7790    0.7050 F   0  0  0  0  0  0  0  0  0  0  0  0
  1  2  2  0
  2  3  1  0
  2 15  1  0
  3  4  2  3
  3  6  1  0
  4  5  1  0
  6  7  2  0
  6  8  1  0
  9  8  1  1
  9 10  1  0
  9 14  1  0
 10 11  1  0
 11 12  1  0
 12 13  1  0
 13 14  1  0
 15 16  1  1
 15 17  1  0
M  END
