
     RDKit          3D

 22 24  0  0  0  0  0  0  0  0999 V2000
    1.3810   -3.1890   -0.4300 C   0  0  0  0  0  0  0  0  0  0  0  0
    0.7710   -1.8450   -0.2280 C   0  0  0  0  0  0  0  0  0  0  0  0
    1.3480   -0.9160    0.4770 C   0  0  0  0  0  0  0  0  0  0  0  0
    2.6090   -1.0600    1.1340 C   0  0  0  0  0  0  0  0  0  0  0  0
    2.9930    0.0170    1.7640 O   0  0  0  0  0  0  0  0  0  0  0  0
    3.5370   -2.1770    1.2290 C   0  0  0  0  0  0  0  0  0  0  0  0
    4.7400   -1.6750    1.8490 O   0  0  0  0  0  0  0  0  0  0  0  0
    0.6580    0.3970    0.6200 C   0  0  1  0  0  0  0  0  0  0  0  0
    1.5790    1.4680    0.1110 C   0  0  0  0  0  0  0  0  0  0  0  0
    2.0130    1.5990   -1.1720 C   0  0  0  0  0  0  0  0  0  0  0  0
    2.8360    2.7160   -1.1780 C   0  0  0  0  0  0  0  0  0  0  0  0
    2.8530    3.2020    0.1100 C   0  0  0  0  0  0  0  0  0  0  0  0
    2.0870    2.4190    0.8330 O   0  0  0  0  0  0  0  0  0  0  0  0
   -0.6200    0.5080   -0.0620 C   0  0  0  0  0  0  0  0  0  0  0  0
   -1.1880   -0.4430   -0.7710 C   0  0  0  0  0  0  0  0  0  0  0  0
   -2.4520   -0.5910   -1.5500 C   0  0  0  0  0  0  0  0  0  0  0  0
   -3.6020   -0.9300   -0.6310 C   0  0  0  0  0  0  0  0  0  0  0  0
   -4.1720    0.2990    0.0120 C   0  0  0  0  0  0  0  0  0  0  0  0
   -3.1550    0.9100    0.9620 C   0  0  0  0  0  0  0  0  0  0  0  0
   -2.5260    2.0780    0.2510 C   0  0  0  0  0  0  0  0  0  0  0  0
   -1.0230    1.9210    0.2820 C   0  0  0  0  0  0  0  0  0  0  0  0
   -0.4960   -1.6650   -0.8740 N   0  0  0  0  0  0  0  0  0  0  0  0
  1  2  1  0
  2  3  2  0
  2 22  1  0
  3  4  1  0
  3  8  1  0
  4  5  2  0
  4  6  1  0
  6  7  1  0
  8  9  1  6
  8 14  1  0
  9 10  2  0
  9 13  1  0
 10 11  1  0
 11 12  2  0
 12 13  1  0
 14 15  2  0
 14 21  1  0
 15 16  1  0
 15 22  1  0
 16 17  1  0
 17 18  1  0
 18 19  1  0
 19 20  1  0
 20 21  1  0
M  END
