
     RDKit          3D

  9  9  0  0  0  0  0  0  0  0999 V2000
   -0.2970   -1.5630    0.6060 N   0  0  0  0  0  0  0  0  0  0  0  0
    0.2150   -0.2990    0.1480 C   0  0  2  0  0  0  0  0  0  0  0  0
    1.6890   -0.3710   -0.0990 C   0  0  0  0  0  0  0  0  0  0  0  0
    2.1520    0.8750   -0.5430 O   0  0  0  0  0  0  0  0  0  0  0  0
    0.0020    0.7370    1.2600 C   0  0  0  0  0  0  0  0  0  0  0  0
   -1.3600    0.9870    1.1150 O   0  0  0  0  0  0  0  0  0  0  0  0
   -1.5020    1.2650   -0.2300 C   0  0  0  0  0  0  0  0  0  0  0  0
   -0.5710    0.2990   -0.9700 C   0  0  2  0  0  0  0  0  0  0  0  0
   -1.2750   -0.6030   -1.7300 O   0  0  0  0  0  0  0  0  0  0  0  0
  2  1  1  1
  2  3  1  0
  2  5  1  0
  2  8  1  0
  3  4  1  0
  5  6  1  0
  6  7  1  0
  7  8  1  0
  8  9  1  1
M  CHG  1   1   1
M  END
