
     RDKit          3D

 27 29  0  0  0  0  0  0  0  0999 V2000
   -3.9780   -2.2710   -1.6780 C   0  0  0  0  0  0  0  0  0  0  0  0
   -3.2040   -2.4150   -0.4050 C   0  0  2  0  0  0  0  0  0  0  0  0
   -2.3410   -3.6540   -0.3750 C   0  0  0  0  0  0  0  0  0  0  0  0
   -4.2150   -2.5490    0.7300 C   0  0  0  0  0  0  0  0  0  0  0  0
   -2.3440   -1.2170   -0.2270 C   0  0  0  0  0  0  0  0  0  0  0  0
   -0.9570   -1.1370   -0.1080 C   0  0  0  0  0  0  0  0  0  0  0  0
   -0.6000    0.1820    0.0410 C   0  0  0  0  0  0  0  0  0  0  0  0
    0.6930    0.7440    0.1960 N   0  0  0  0  0  0  0  0  0  0  0  0
    1.8790   -0.0590    0.2190 C   0  0  0  0  0  0  0  0  0  0  0  0
    1.8160   -1.2930    0.1030 O   0  0  0  0  0  0  0  0  0  0  0  0
    3.1210    0.5960    0.3770 N   0  0  0  0  0  0  0  0  0  0  0  0
    4.3980   -0.0280    0.4250 C   0  0  0  0  0  0  0  0  0  0  0  0
    4.6200   -1.3790    0.3250 C   0  0  0  0  0  0  0  0  0  0  0  0
    5.9140   -1.8780    0.3860 C   0  0  0  0  0  0  0  0  0  0  0  0
    7.0130   -1.0740    0.5450 C   0  0  0  0  0  0  0  0  0  0  0  0
    6.8080    0.2670    0.6450 C   0  0  0  0  0  0  0  0  0  0  0  0
    8.1430    1.3740    0.8490 Cl  0  0  0  0  0  0  0  0  0  0  0  0
    5.5400    0.7750    0.5870 C   0  0  0  0  0  0  0  0  0  0  0  0
    5.2970    2.5240    0.7180 Cl  0  0  0  0  0  0  0  0  0  0  0  0
   -1.7730    0.8840    0.0100 N   0  0  0  0  0  0  0  0  0  0  0  0
   -1.8540    2.3100    0.1330 C   0  0  0  0  0  0  0  0  0  0  0  0
   -1.1600    3.1540   -0.6770 C   0  0  0  0  0  0  0  0  0  0  0  0
   -1.2950    4.5280   -0.4910 C   0  0  0  0  0  0  0  0  0  0  0  0
   -2.1120    5.0410    0.4910 C   0  0  0  0  0  0  0  0  0  0  0  0
   -2.8180    4.1830    1.3150 C   0  0  0  0  0  0  0  0  0  0  0  0
   -2.6810    2.8280    1.1260 C   0  0  0  0  0  0  0  0  0  0  0  0
   -2.7720    0.0360   -0.1470 N   0  0  0  0  0  0  0  0  0  0  0  0
  2  1  1  6
  2  3  1  0
  2  4  1  0
  2  5  1  0
  5  6  1  0
  5 27  2  0
  6  7  2  0
  7  8  1  0
  7 20  1  0
  8  9  1  0
  9 10  2  0
  9 11  1  0
 11 12  1  0
 12 13  2  0
 12 18  1  0
 13 14  1  0
 14 15  2  0
 15 16  1  0
 16 17  1  0
 16 18  2  0
 18 19  1  0
 20 21  1  0
 20 27  1  0
 21 22  2  0
 21 26  1  0
 22 23  1  0
 23 24  2  0
 24 25  1  0
 25 26  2  0
M  END
