
     RDKit          3D

  9  9  0  0  0  0  0  0  0  0999 V2000
    1.8780    0.4130   -1.2620 O   0  0  0  0  0  0  0  0  0  0  0  0
    1.6720   -0.4830   -0.2180 C   0  0  1  0  0  0  0  0  0  0  0  0
    2.5090   -0.1350    0.8320 O   0  0  0  0  0  0  0  0  0  0  0  0
    0.2460   -0.4220    0.2730 C   0  0  2  0  0  0  0  0  0  0  0  0
    0.0740   -1.3220    1.3100 O   0  0  0  0  0  0  0  0  0  0  0  0
   -0.7400   -0.7850   -0.8150 C   0  0  0  0  0  0  0  0  0  0  0  0
   -1.9670    0.0160   -0.3660 C   0  0  0  0  0  0  0  0  0  0  0  0
   -1.4140    1.2690    0.0870 N   0  0  0  0  0  0  0  0  0  0  0  0
   -0.1180    0.9830    0.6660 C   0  0  0  0  0  0  0  0  0  0  0  0
  2  1  1  6
  2  3  1  0
  2  4  1  0
  4  5  1  1
  4  6  1  0
  4  9  1  0
  6  7  1  0
  7  8  1  0
  8  9  1  0
M  CHG  1   8   1
M  END
