
     RDKit          3D

  9  9  0  0  0  0  0  0  0  0999 V2000
    2.4250    0.0270   -0.4040 N   0  0  0  0  0  0  0  0  0  0  0  0
    1.2580   -0.5970    0.1330 C   0  0  0  0  0  0  0  0  0  0  0  0
    0.0940    0.3370    0.3110 C   0  0  1  0  0  0  0  0  0  0  0  0
    0.4060    1.3620    1.1640 O   0  0  0  0  0  0  0  0  0  0  0  0
   -0.5140    0.7790   -0.9890 C   0  0  0  0  0  0  0  0  0  0  0  0
   -1.7070    0.1210   -1.1560 O   0  0  0  0  0  0  0  0  0  0  0  0
   -1.7100   -1.0040   -0.3580 C   0  0  0  0  0  0  0  0  0  0  0  0
   -1.0480   -0.4880    0.9100 C   0  0  2  0  0  0  0  0  0  0  0  0
   -1.9520    0.3410    1.5390 O   0  0  0  0  0  0  0  0  0  0  0  0
  1  2  1  0
  2  3  1  0
  3  4  1  1
  3  5  1  0
  3  8  1  0
  5  6  1  0
  6  7  1  0
  7  8  1  0
  8  9  1  6
M  CHG  1   1   1
M  END
