
     RDKit          3D

 43 46  0  0  0  0  0  0  0  0999 V2000
   -6.3390    2.0570   -2.3910 C   0  0  0  0  0  0  0  0  0  0  0  0
   -4.8900    1.6990   -2.0360 C   0  0  0  0  0  0  0  0  0  0  0  0
   -4.6960    2.1620   -0.6370 C   0  0  0  0  0  0  0  0  0  0  0  0
   -4.5610    3.5300   -0.4200 C   0  0  0  0  0  0  0  0  0  0  0  0
   -4.5100    4.4900   -1.5390 C   0  0  0  0  0  0  0  0  0  0  0  0
   -4.4560    3.9860    0.8790 C   0  0  0  0  0  0  0  0  0  0  0  0
   -4.4860    3.1000    1.9240 C   0  0  0  0  0  0  0  0  0  0  0  0
   -4.4060    3.3450    3.2100 O   0  0  0  0  0  0  0  0  0  0  0  0
   -4.4800    2.2120    3.8640 C   0  0  0  0  0  0  0  0  0  0  0  0
   -4.6160    1.1830    2.9470 C   0  0  0  0  0  0  0  0  0  0  0  0
   -4.7270   -0.1460    3.2680 O   0  0  0  0  0  0  0  0  0  0  0  0
   -4.6190    1.7460    1.6980 C   0  0  0  0  0  0  0  0  0  0  0  0
   -4.7240    1.2700    0.3870 C   0  0  0  0  0  0  0  0  0  0  0  0
   -4.8370   -0.1030    0.2830 O   0  0  0  0  0  0  0  0  0  0  0  0
   -3.7600   -0.9900    0.2650 C   0  0  0  0  0  0  0  0  0  0  0  0
   -2.8020   -0.8910   -0.8640 C   0  0  0  0  0  0  0  0  0  0  0  0
   -1.7230   -1.7900   -0.8170 O   0  0  0  0  0  0  0  0  0  0  0  0
   -1.7450   -3.1460   -0.7550 C   0  0  0  0  0  0  0  0  0  0  0  0
   -2.9340   -3.6590   -0.7210 O   0  0  0  0  0  0  0  0  0  0  0  0
   -0.6140   -4.0400   -0.7280 C   0  0  0  0  0  0  0  0  0  0  0  0
   -0.9080   -5.4110   -0.6940 C   0  0  0  0  0  0  0  0  0  0  0  0
    0.1080   -6.3380   -0.7080 C   0  0  0  0  0  0  0  0  0  0  0  0
   -0.1720   -7.7350   -0.6740 N   0  0  0  0  0  0  0  0  0  0  0  0
    1.4100   -5.9010   -0.7560 C   0  0  0  0  0  0  0  0  0  0  0  0
    1.7070   -4.5360   -0.7880 C   0  0  0  0  0  0  0  0  0  0  0  0
    0.6770   -3.5910   -0.7740 C   0  0  0  0  0  0  0  0  0  0  0  0
    0.9790   -2.2230   -0.7460 N   0  0  0  0  0  0  0  0  0  0  0  0
    2.1970   -1.5950   -1.1160 C   0  0  0  0  0  0  0  0  0  0  0  0
    3.1420   -2.2830   -1.5280 O   0  0  0  0  0  0  0  0  0  0  0  0
    2.4070   -0.1060   -1.0360 C   0  0  0  0  0  0  0  0  0  0  0  0
    4.0140    0.2340   -1.7040 S   0  0  2  0  0  0  0  0  0  0  0  0
    4.2320    1.7040   -1.8650 O   0  0  0  0  0  0  0  0  0  0  0  0
    4.0300   -0.3600   -3.1040 O   0  0  0  0  0  0  0  0  0  0  0  0
    5.3040   -0.5410   -0.8080 C   0  0  0  0  0  0  0  0  0  0  0  0
    5.4240   -0.0740    0.6300 C   0  0  1  0  0  0  0  0  0  0  0  0
    6.4850   -0.8290    1.1670 O   0  0  0  0  0  0  0  0  0  0  0  0
    6.1170   -1.5300    2.2900 C   0  0  0  0  0  0  0  0  0  0  0  0
    5.8500    1.3530    0.5320 C   0  0  0  0  0  0  0  0  0  0  0  0
    6.7950    1.9890    0.1170 N   0  0  0  0  0  0  0  0  0  0  0  0
    6.9360    3.2830    0.1590 C   0  0  0  0  0  0  0  0  0  0  0  0
    5.9440    4.0230    0.7170 C   0  0  0  0  0  0  0  0  0  0  0  0
    5.7550    5.4460    0.9350 C   0  0  0  0  0  0  0  0  0  0  0  0
    4.7870    2.7020    1.1780 S   0  0  0  0  0  0  0  0  0  0  0  0
  1  2  1  0
  2  3  1  0
  3  4  2  0
  3 13  1  0
  4  5  1  0
  4  6  1  0
  6  7  2  0
  7  8  1  0
  7 12  1  0
  8  9  1  0
  9 10  2  0
 10 11  1  0
 10 12  1  0
 12 13  2  0
 13 14  1  0
 14 15  1  0
 15 16  1  0
 16 17  1  0
 17 18  1  0
 18 19  2  0
 18 20  1  0
 20 21  2  0
 20 26  1  0
 21 22  1  0
 22 23  1  0
 22 24  2  0
 24 25  1  0
 25 26  2  0
 26 27  1  0
 27 28  1  0
 28 29  2  0
 28 30  1  0
 31 30  1  1
 31 32  2  0
 31 33  2  0
 31 34  1  0
 35 34  1  6
 35 36  1  0
 35 38  1  0
 36 37  1  0
 38 39  2  0
 38 43  1  0
 39 40  1  0
 40 41  2  0
 41 42  1  0
 41 43  1  0
M  END
