
     RDKit          3D

 43 48  0  0  0  0  0  0  0  0999 V2000
   -7.1140    4.2060    0.3190 C   0  0  0  0  0  0  0  0  0  0  0  0
   -6.5990    2.9000    0.2250 O   0  0  0  0  0  0  0  0  0  0  0  0
   -5.3120    2.5300    0.2810 C   0  0  0  0  0  0  0  0  0  0  0  0
   -4.2020    3.3000    0.4370 C   0  0  0  0  0  0  0  0  0  0  0  0
   -2.9360    2.7690    0.4780 C   0  0  0  0  0  0  0  0  0  0  0  0
   -1.8480    3.5480    0.6430 N   0  0  0  0  0  0  0  0  0  0  0  0
   -0.6180    3.0090    0.6910 C   0  0  0  0  0  0  0  0  0  0  0  0
   -0.4410    1.6860    0.5750 N   0  0  0  0  0  0  0  0  0  0  0  0
   -1.4730    0.8250    0.4050 C   0  0  0  0  0  0  0  0  0  0  0  0
   -1.2200   -0.5820    0.2560 N   0  0  0  0  0  0  0  0  0  0  0  0
    0.0270   -1.2230    0.3300 C   0  0  0  0  0  0  0  0  0  0  0  0
    1.2050   -0.6270    0.6960 C   0  0  0  0  0  0  0  0  0  0  0  0
    2.4330   -1.3000    0.7820 C   0  0  0  0  0  0  0  0  0  0  0  0
    3.5870   -0.6050    1.1720 N   0  0  0  0  0  0  0  0  0  0  0  0
    4.8660   -1.1210    1.4600 C   0  0  0  0  0  0  0  0  0  0  0  0
    5.0520   -2.3500    1.3760 O   0  0  0  0  0  0  0  0  0  0  0  0
    5.9670   -0.2100    1.8560 C   0  0  0  0  0  0  0  0  0  0  0  0
    6.5530   -0.2200    3.0910 C   0  0  0  0  0  0  0  0  0  0  0  0
    7.5710    0.6300    3.4460 C   0  0  0  0  0  0  0  0  0  0  0  0
    8.0340    1.5350    2.5390 N   0  0  0  0  0  0  0  0  0  0  0  0
    7.4740    1.5730    1.2970 C   0  0  0  0  0  0  0  0  0  0  0  0
    7.9710    2.5300    0.3720 N   0  0  0  0  0  0  0  0  0  0  0  0
    7.7360    2.3450   -1.0310 C   0  0  0  0  0  0  0  0  0  0  0  0
    8.8430    2.8360   -1.9180 C   0  0  0  0  0  0  0  0  0  0  0  0
    9.6420    3.8030   -1.3700 O   0  0  0  0  0  0  0  0  0  0  0  0
    8.8990    4.5700   -0.4840 C   0  0  0  0  0  0  0  0  0  0  0  0
    8.7040    3.7210    0.7790 C   0  0  0  0  0  0  0  0  0  0  0  0
    6.4500    0.7130    0.9500 C   0  0  0  0  0  0  0  0  0  0  0  0
    2.4230   -2.6350    0.4740 C   0  0  0  0  0  0  0  0  0  0  0  0
    1.2330   -3.2730    0.0950 C   0  0  0  0  0  0  0  0  0  0  0  0
    0.0450   -2.5970    0.0190 C   0  0  0  0  0  0  0  0  0  0  0  0
   -1.2170   -3.2630   -0.3640 C   0  0  0  0  0  0  0  0  0  0  0  0
   -2.7230    1.3930    0.3590 C   0  0  0  0  0  0  0  0  0  0  0  0
   -3.8250    0.5860    0.2000 C   0  0  0  0  0  0  0  0  0  0  0  0
   -5.0910    1.1060    0.1580 C   0  0  0  0  0  0  0  0  0  0  0  0
   -6.2080    0.3650   -0.0040 O   0  0  0  0  0  0  0  0  0  0  0  0
   -6.4940   -0.9410   -0.2210 C   0  0  0  0  0  0  0  0  0  0  0  0
   -5.9770   -1.3720   -1.5760 C   0  0  0  0  0  0  0  0  0  0  0  0
   -6.2230   -2.7020   -1.9520 N   0  0  2  0  0  0  0  0  0  0  0  0
   -6.7780   -3.5840   -0.9530 C   0  0  0  0  0  0  0  0  0  0  0  0
   -6.9790   -4.8490   -1.8070 C   0  0  0  0  0  0  0  0  0  0  0  0
   -5.8250   -4.7640   -2.8130 C   0  0  0  0  0  0  0  0  0  0  0  0
   -5.0820   -3.4780   -2.4000 C   0  0  0  0  0  0  0  0  0  0  0  0
  1  2  1  0
  2  3  1  0
  3  4  2  0
  3 35  1  0
  4  5  1  0
  5  6  2  0
  5 33  1  0
  6  7  1  0
  7  8  2  0
  8  9  1  0
  9 10  1  0
  9 33  2  0
 10 11  1  0
 11 12  2  0
 11 31  1  0
 12 13  1  0
 13 14  1  0
 13 29  2  0
 14 15  1  0
 15 16  2  0
 15 17  1  0
 17 18  2  0
 17 28  1  0
 18 19  1  0
 19 20  2  0
 20 21  1  0
 21 22  1  0
 21 28  2  0
 22 23  1  0
 22 27  1  0
 23 24  1  0
 24 25  1  0
 25 26  1  0
 26 27  1  0
 29 30  1  0
 30 31  2  0
 31 32  1  0
 33 34  1  0
 34 35  2  0
 35 36  1  0
 36 37  1  0
 37 38  1  0
 39 38  1  1
 39 40  1  0
 39 43  1  0
 40 41  1  0
 41 42  1  0
 42 43  1  0
M  CHG  1  39   1
M  END
