
     RDKit          3D

 43 46  0  0  0  0  0  0  0  0999 V2000
   -7.0160   -2.8790   -1.7150 C   0  0  0  0  0  0  0  0  0  0  0  0
   -5.9220   -2.4550   -2.6520 C   0  0  2  0  0  0  0  0  0  0  0  0
   -5.0130   -3.5470   -2.6780 O   0  0  0  0  0  0  0  0  0  0  0  0
   -5.1390   -1.3170   -2.1350 C   0  0  0  0  0  0  0  0  0  0  0  0
   -3.8440   -1.1440   -2.6180 C   0  0  0  0  0  0  0  0  0  0  0  0
   -3.0450   -0.0760   -2.1820 C   0  0  0  0  0  0  0  0  0  0  0  0
   -3.5150    0.8280   -1.2660 C   0  0  0  0  0  0  0  0  0  0  0  0
   -2.7960    1.9210   -0.7670 N   0  0  0  0  0  0  0  0  0  0  0  0
   -1.4990    2.2640   -1.1630 C   0  0  0  0  0  0  0  0  0  0  0  0
   -0.8410    1.6370   -2.0030 O   0  0  0  0  0  0  0  0  0  0  0  0
   -0.8650    3.4710   -0.5270 C   0  0  0  0  0  0  0  0  0  0  0  0
    0.4550    3.6340   -1.0820 N   0  0  0  0  0  0  0  0  0  0  0  0
    1.4280    2.6140   -0.9400 C   0  0  0  0  0  0  0  0  0  0  0  0
    1.1800    1.5460   -0.3340 O   0  0  0  0  0  0  0  0  0  0  0  0
    2.7570    2.8250   -1.5250 C   0  0  0  0  0  0  0  0  0  0  0  0
    3.5920    1.7570   -1.2180 O   0  0  0  0  0  0  0  0  0  0  0  0
    3.9350    1.4510    0.0790 C   0  0  0  0  0  0  0  0  0  0  0  0
    3.5030    2.1900    1.1480 C   0  0  0  0  0  0  0  0  0  0  0  0
    3.8790    1.8310    2.4330 C   0  0  0  0  0  0  0  0  0  0  0  0
    4.6870    0.7310    2.6210 C   0  0  0  0  0  0  0  0  0  0  0  0
    5.1360   -0.0260    1.5700 C   0  0  0  0  0  0  0  0  0  0  0  0
    4.7510    0.3450    0.2890 C   0  0  0  0  0  0  0  0  0  0  0  0
    5.1570   -0.3600   -0.8250 O   0  0  0  0  0  0  0  0  0  0  0  0
    6.0060   -1.4730   -0.7550 C   0  0  0  0  0  0  0  0  0  0  0  0
    7.3310   -1.0940   -0.2740 C   0  0  0  0  0  0  0  0  0  0  0  0
    7.7010    0.1870   -0.0480 C   0  0  0  0  0  0  0  0  0  0  0  0
    8.9970    0.5100    0.3740 C   0  0  0  0  0  0  0  0  0  0  0  0
    9.8900   -0.5080    0.5530 C   0  0  0  0  0  0  0  0  0  0  0  0
    9.5550   -1.8190    0.3330 C   0  0  0  0  0  0  0  0  0  0  0  0
    8.2720   -2.1090   -0.0800 C   0  0  0  0  0  0  0  0  0  0  0  0
    7.9070   -3.5050   -0.3170 C   0  0  0  0  0  0  0  0  0  0  0  0
    8.7530   -4.4130   -0.1410 O   0  0  0  0  0  0  0  0  0  0  0  0
   -4.8230    0.6610   -0.7710 C   0  0  0  0  0  0  0  0  0  0  0  0
   -5.3430    1.6130    0.1460 N   0  0  0  0  0  0  0  0  0  0  0  0
   -5.5630    1.2260    1.7860 S   0  0  1  0  0  0  0  0  0  0  0  0
   -4.2330    0.8430    2.4370 O   0  0  0  0  0  0  0  0  0  0  0  0
   -6.0300    2.4470    2.5580 O   0  0  0  0  0  0  0  0  0  0  0  0
   -6.6780   -0.0760    2.1410 C   0  0  2  0  0  0  0  0  0  0  0  0
   -6.9200   -0.0130    3.6600 C   0  0  0  0  0  0  0  0  0  0  0  0
   -7.6670   -1.1300    3.9950 O   0  0  0  0  0  0  0  0  0  0  0  0
   -6.6170   -2.3610    3.3460 S   0  0  0  0  0  0  0  0  0  0  0  0
   -6.0840   -1.4240    1.8500 C   0  0  0  0  0  0  0  0  0  0  0  0
   -5.5590   -0.3910   -1.2270 C   0  0  0  0  0  0  0  0  0  0  0  0
  2  1  1  1
  2  3  1  0
  2  4  1  0
  4  5  2  0
  4 43  1  0
  5  6  1  0
  6  7  2  0
  7  8  1  0
  7 33  1  0
  8  9  1  0
  9 10  2  0
  9 11  1  0
 11 12  1  0
 12 13  1  0
 13 14  2  0
 13 15  1  0
 15 16  1  0
 16 17  1  0
 17 18  2  0
 17 22  1  0
 18 19  1  0
 19 20  2  0
 20 21  1  0
 21 22  2  0
 22 23  1  0
 23 24  1  0
 24 25  1  0
 25 26  2  0
 25 30  1  0
 26 27  1  0
 27 28  2  0
 28 29  1  0
 29 30  2  0
 30 31  1  0
 31 32  2  0
 33 34  1  0
 33 43  2  0
 35 34  1  6
 35 36  2  0
 35 37  2  0
 35 38  1  0
 38 39  1  1
 38 42  1  0
 39 40  1  0
 40 41  1  0
 41 42  1  0
M  END
