
     RDKit          3D

 43 46  0  0  0  0  0  0  0  0999 V2000
   -4.1770   -1.2550   -2.5640 C   0  0  0  0  0  0  0  0  0  0  0  0
   -2.7020   -1.4700   -2.4570 C   0  0  0  0  0  0  0  0  0  0  0  0
   -2.1240   -0.8750   -1.2850 O   0  0  0  0  0  0  0  0  0  0  0  0
   -2.2560    0.4300   -1.0200 C   0  0  0  0  0  0  0  0  0  0  0  0
   -2.9500    1.1240   -1.8370 O   0  0  0  0  0  0  0  0  0  0  0  0
   -1.6290    1.1530    0.1700 C   0  0  1  0  0  0  0  0  0  0  0  0
   -2.2970    0.4950    1.6390 S   0  0  0  0  0  0  0  0  0  0  0  0
   -3.9590    0.2780    2.0370 C   0  0  0  0  0  0  0  0  0  0  0  0
   -4.5790   -0.9450    1.4100 C   0  0  0  0  0  0  0  0  0  0  0  0
   -5.6400   -1.1100    0.5980 C   0  0  0  0  0  0  0  0  0  0  0  0
   -5.7410   -2.4900    0.3380 C   0  0  0  0  0  0  0  0  0  0  0  0
   -4.7070   -3.0660    1.0240 C   0  0  0  0  0  0  0  0  0  0  0  0
   -4.0460   -2.1390    1.6440 O   0  0  0  0  0  0  0  0  0  0  0  0
   -0.1960    0.8130    0.0120 C   0  0  1  0  0  0  0  0  0  0  0  0
    0.8380    1.4300    0.8780 N   0  0  0  0  0  0  0  0  0  0  0  0
    2.1020    0.8040    0.7940 C   0  0  0  0  0  0  0  0  0  0  0  0
    2.2960   -0.1970    0.0900 O   0  0  0  0  0  0  0  0  0  0  0  0
    3.2860    1.3440    1.5790 C   0  0  0  0  0  0  0  0  0  0  0  0
    4.2060    0.3290    1.6920 O   0  0  0  0  0  0  0  0  0  0  0  0
    4.9530   -0.3770    0.8180 C   0  0  0  0  0  0  0  0  0  0  0  0
    5.0720   -0.2220   -0.5410 C   0  0  0  0  0  0  0  0  0  0  0  0
    5.8690   -1.0390   -1.3440 C   0  0  0  0  0  0  0  0  0  0  0  0
    6.5610   -2.0390   -0.7690 N   0  0  0  0  0  0  0  0  0  0  0  0
    6.4700   -2.2300    0.5830 C   0  0  0  0  0  0  0  0  0  0  0  0
    5.6960   -1.4360    1.3720 C   0  0  0  0  0  0  0  0  0  0  0  0
    0.0080   -0.6330    0.3310 N   0  0  0  0  0  0  0  0  0  0  0  0
    0.2630   -1.1520    1.6030 C   0  0  0  0  0  0  0  0  0  0  0  0
    0.2850   -0.5080    2.7880 C   0  0  0  0  0  0  0  0  0  0  0  0
    0.6170   -1.1150    4.0190 C   0  0  0  0  0  0  0  0  0  0  0  0
    0.9410   -2.4280    4.0340 C   0  0  0  0  0  0  0  0  0  0  0  0
    1.2780   -3.0530    5.2460 O   0  0  0  0  0  0  0  0  0  0  0  0
    0.9390   -3.1450    2.8420 C   0  0  0  0  0  0  0  0  0  0  0  0
    1.2880   -4.4920    2.9030 O   0  0  0  0  0  0  0  0  0  0  0  0
    0.6080   -2.5230    1.6630 C   0  0  0  0  0  0  0  0  0  0  0  0
    0.3410    1.0960   -1.3310 C   0  0  0  0  0  0  0  0  0  0  0  0
    1.1870    0.4650   -1.9810 O   0  0  0  0  0  0  0  0  0  0  0  0
   -0.1250    2.2720   -1.9730 O   0  0  0  0  0  0  0  0  0  0  0  0
    0.3930    2.6050   -3.2230 C   0  0  0  0  0  0  0  0  0  0  0  0
    0.1640    4.1300   -3.3960 C   0  0  0  0  0  0  0  0  0  0  0  0
    0.8540    4.8490   -4.2850 C   0  0  0  0  0  0  0  0  0  0  0  0
    0.7230    6.2120   -4.3250 C   0  0  0  0  0  0  0  0  0  0  0  0
   -0.4870    6.5320   -3.0060 S   0  0  0  0  0  0  0  0  0  0  0  0
   -0.6900    4.8300   -2.5290 C   0  0  0  0  0  0  0  0  0  0  0  0
  1  2  1  0
  2  3  1  0
  3  4  1  0
  4  5  2  0
  4  6  1  0
  6  7  1  1
  6 14  1  0
  7  8  1  0
  8  9  1  0
  9 10  2  0
  9 13  1  0
 10 11  1  0
 11 12  2  0
 12 13  1  0
 14 15  1  1
 14 26  1  0
 14 35  1  0
 15 16  1  0
 16 17  2  0
 16 18  1  0
 18 19  1  0
 19 20  1  0
 20 21  2  0
 20 25  1  0
 21 22  1  0
 22 23  2  0
 23 24  1  0
 24 25  2  0
 26 27  1  0
 27 28  2  0
 27 34  1  0
 28 29  1  0
 29 30  2  0
 30 31  1  0
 30 32  1  0
 32 33  1  0
 32 34  2  0
 35 36  2  0
 35 37  1  0
 37 38  1  0
 38 39  1  0
 39 40  1  0
 39 43  2  0
 40 41  2  0
 41 42  1  0
 42 43  1  0
M  END
