
     RDKit          3D

 28 31  0  0  0  0  0  0  0  0999 V2000
    3.9880   -1.2030    0.6640 N   0  0  0  0  0  0  0  0  0  0  0  0
    3.6720    0.0720    0.0870 C   0  0  0  0  0  0  0  0  0  0  0  0
    2.4160    0.4720   -0.4100 C   0  0  0  0  0  0  0  0  0  0  0  0
    1.2590   -0.3780   -0.3440 C   0  0  0  0  0  0  0  0  0  0  0  0
    1.3000   -1.5050    0.2510 O   0  0  0  0  0  0  0  0  0  0  0  0
   -0.0130   -0.0290   -0.9320 C   0  0  0  0  0  0  0  0  0  0  0  0
   -0.1050    0.7320   -2.0690 C   0  0  0  0  0  0  0  0  0  0  0  0
   -1.3340    1.1150   -2.6230 C   0  0  0  0  0  0  0  0  0  0  0  0
   -2.4840    0.6940   -1.9800 C   0  0  0  0  0  0  0  0  0  0  0  0
   -2.4420   -0.0730   -0.8370 C   0  0  0  0  0  0  0  0  0  0  0  0
   -3.5920   -0.4840   -0.2100 O   0  0  0  0  0  0  0  0  0  0  0  0
   -4.9040   -0.2460   -0.5490 C   0  0  2  0  0  0  0  0  0  0  0  0
   -5.7000    0.4400    0.5410 C   0  0  0  0  0  0  0  0  0  0  0  0
   -5.9070   -0.4150    1.7520 C   0  0  0  0  0  0  0  0  0  0  0  0
   -6.6520   -1.5910    1.3390 N   0  0  0  0  0  0  0  0  0  0  0  0
   -5.7390   -2.3390    0.4610 C   0  0  0  0  0  0  0  0  0  0  0  0
   -5.6110   -1.5610   -0.8250 C   0  0  0  0  0  0  0  0  0  0  0  0
   -1.2090   -0.4330   -0.3150 C   0  0  0  0  0  0  0  0  0  0  0  0
    2.6120    1.7550   -0.8500 C   0  0  0  0  0  0  0  0  0  0  0  0
    3.9010    2.0700   -0.6210 N   0  0  0  0  0  0  0  0  0  0  0  0
    4.5510    1.0660   -0.0560 N   0  0  0  0  0  0  0  0  0  0  0  0
    5.9120    1.0260    0.3290 C   0  0  0  0  0  0  0  0  0  0  0  0
    6.8660    1.6570   -0.4200 C   0  0  0  0  0  0  0  0  0  0  0  0
    8.2180    1.6240   -0.0470 C   0  0  0  0  0  0  0  0  0  0  0  0
    8.5730    0.9360    1.1010 C   0  0  0  0  0  0  0  0  0  0  0  0
    9.8740    0.8860    1.4880 F   0  0  0  0  0  0  0  0  0  0  0  0
    7.6190    0.3010    1.8550 C   0  0  0  0  0  0  0  0  0  0  0  0
    6.2900    0.3530    1.4590 C   0  0  0  0  0  0  0  0  0  0  0  0
  1  2  1  0
  2  3  2  0
  2 21  1  0
  3  4  1  0
  3 19  1  0
  4  5  2  0
  4  6  1  0
  6  7  2  0
  6 18  1  0
  7  8  1  0
  8  9  2  0
  9 10  1  0
 10 11  1  0
 10 18  2  0
 12 11  1  1
 12 13  1  0
 12 17  1  0
 13 14  1  0
 14 15  1  0
 15 16  1  0
 16 17  1  0
 19 20  2  0
 20 21  1  0
 21 22  1  0
 22 23  2  0
 22 28  1  0
 23 24  1  0
 24 25  2  0
 25 26  1  0
 25 27  1  0
 27 28  2  0
M  CHG  1  15   1
M  END
