
     RDKit          3D

 17 17  0  0  0  0  0  0  0  0999 V2000
   -2.8250   -0.5080    1.3480 C   0  0  0  0  0  0  0  0  0  0  0  0
   -1.9910   -0.5590    0.1080 C   0  0  1  0  0  0  0  0  0  0  0  0
   -2.0090   -2.0030   -0.3880 C   0  0  0  0  0  0  0  0  0  0  0  0
   -2.5490    0.2810   -1.0220 C   0  0  0  0  0  0  0  0  0  0  0  0
   -2.6530    1.7450   -0.6480 C   0  0  0  0  0  0  0  0  0  0  0  0
   -3.1790    2.3990   -1.7750 O   0  0  0  0  0  0  0  0  0  0  0  0
   -0.5680   -0.1150    0.3360 C   0  0  0  0  0  0  0  0  0  0  0  0
    0.1380   -0.9830    1.3620 C   0  0  0  0  0  0  0  0  0  0  0  0
    1.4440   -0.4890    1.4990 O   0  0  0  0  0  0  0  0  0  0  0  0
    2.3490   -0.4270    0.4280 C   0  0  0  0  0  0  0  0  0  0  0  0
    2.3490   -1.1480   -0.6820 C   0  0  0  0  0  0  0  0  0  0  0  0
    3.4670   -0.7690   -1.5380 C   0  0  0  0  0  0  0  0  0  0  0  0
    3.8010   -1.2190   -2.6610 O   0  0  0  0  0  0  0  0  0  0  0  0
    4.1570    0.2850   -0.8050 C   0  0  0  0  0  0  0  0  0  0  0  0
    5.6280    1.1330   -1.3970 S   0  0  0  0  0  0  0  0  0  0  0  0
    3.4990    0.4610    0.3130 C   0  0  0  0  0  0  0  0  0  0  0  0
    3.8470    1.4080    1.3220 N   0  0  0  0  0  0  0  0  0  0  0  0
  2  1  1  1
  2  3  1  0
  2  4  1  0
  2  7  1  0
  4  5  1  0
  5  6  1  0
  7  8  1  0
  8  9  1  0
  9 10  1  0
 10 11  2  0
 10 16  1  0
 11 12  1  0
 12 13  2  0
 12 14  1  0
 14 15  1  0
 14 16  2  0
 16 17  1  0
M  END
