
     RDKit          3D

 20 20  0  0  0  0  0  0  0  0999 V2000
    6.1760    1.9010    0.4570 C   0  0  0  0  0  0  0  0  0  0  0  0
    4.8710    2.2270    0.7850 O   0  0  0  0  0  0  0  0  0  0  0  0
    4.0540    1.8640   -0.1540 O   0  0  0  0  0  0  0  0  0  0  0  0
    3.5920    0.5810    0.1110 C   0  0  0  0  0  0  0  0  0  0  0  0
    2.4170    0.0480   -1.2290 P   0  0  0  0  0  0  0  0  0  0  0  0
    2.0180   -1.6390   -1.0060 O   0  0  0  0  0  0  0  0  0  0  0  0
    1.5000   -1.8090    0.2770 C   0  0  2  0  0  0  0  0  0  0  0  0
    0.6930   -3.0910    0.3200 C   0  0  0  0  0  0  0  0  0  0  0  0
   -0.3790   -3.0590   -0.5450 O   0  0  0  0  0  0  0  0  0  0  0  0
    0.6330   -0.6940    0.6560 N   0  0  0  0  0  0  0  0  0  0  0  0
    0.0390   -0.1040   -0.4930 C   0  0  1  0  0  0  0  0  0  0  0  0
   -1.2720    0.5190   -0.2600 C   0  0  0  0  0  0  0  0  0  0  0  0
   -1.7490    0.4820    0.9040 O   0  0  0  0  0  0  0  0  0  0  0  0
   -2.0220    1.1460   -1.2300 O   0  0  0  0  0  0  0  0  0  0  0  0
   -3.2630    1.7470   -1.0510 C   0  0  0  0  0  0  0  0  0  0  0  0
   -4.2990    0.7820   -0.5610 C   0  0  0  0  0  0  0  0  0  0  0  0
   -4.0080   -0.4160   -0.3580 O   0  0  0  0  0  0  0  0  0  0  0  0
   -5.6000    1.1870   -0.3210 O   0  0  0  0  0  0  0  0  0  0  0  0
   -6.6150    0.3060    0.1440 C   0  0  0  0  0  0  0  0  0  0  0  0
    0.9130    0.8890   -0.9920 O   0  0  0  0  0  0  0  0  0  0  0  0
  1  2  1  0
  2  3  1  0
  3  4  1  0
  4  5  1  0
  5  6  1  0
  5 20  1  0
  6  7  1  0
  7  8  1  6
  7 10  1  0
  8  9  1  0
 10 11  1  0
 11 12  1  1
 11 20  1  0
 12 13  2  0
 12 14  1  0
 14 15  1  0
 15 16  1  0
 16 17  2  0
 16 18  1  0
 18 19  1  0
M  END
