
     RDKit          3D

 14 13  0  0  0  0  0  0  0  0999 V2000
    2.4740    1.1190   -1.3990 O   0  0  0  0  0  0  0  0  0  0  0  0
    2.4560    0.2870   -0.4690 C   0  0  0  0  0  0  0  0  0  0  0  0
    3.0530    0.6050    0.7660 N   0  0  0  0  0  0  0  0  0  0  0  0
    3.6430    1.8130    0.9360 O   0  0  0  0  0  0  0  0  0  0  0  0
    1.7940   -1.0390   -0.6930 C   0  0  2  0  0  0  0  0  0  0  0  0
    1.2780   -1.1370   -1.9680 O   0  0  0  0  0  0  0  0  0  0  0  0
    0.6720   -1.2560    0.3260 C   0  0  2  0  0  0  0  0  0  0  0  0
    0.1810   -2.5490    0.0620 O   0  0  0  0  0  0  0  0  0  0  0  0
   -0.4140   -0.2530    0.1100 C   0  0  0  0  0  0  0  0  0  0  0  0
   -1.4520   -0.5320    0.9560 O   0  0  0  0  0  0  0  0  0  0  0  0
   -2.6650    0.5670    0.7340 P   0  0  0  0  0  0  0  0  0  0  0  0
   -3.6520    0.9270    2.0540 O   0  0  0  0  0  0  0  0  0  0  0  0
   -3.6600   -0.5480    0.3830 O   0  0  0  0  0  0  0  0  0  0  0  0
   -2.8160    1.3810   -0.6540 O   0  0  0  0  0  0  0  0  0  0  0  0
  1  2  2  0
  2  3  1  0
  2  5  1  0
  3  4  1  0
  5  6  1  6
  5  7  1  0
  7  8  1  6
  7  9  1  0
  9 10  1  0
 10 11  1  0
 11 12  1  0
 11 13  1  0
 11 14  1  0
M  END
