
     RDKit          3D

 20 20  0  0  0  0  0  0  0  0999 V2000
   -2.8070   -0.0750   -1.4110 O   0  0  0  0  0  0  0  0  0  0  0  0
   -2.4450    0.2980   -0.2660 C   0  0  0  0  0  0  0  0  0  0  0  0
   -3.5080    0.5930    0.7140 C   0  0  0  0  0  0  0  0  0  0  0  0
   -4.8560    0.3990    0.1860 C   0  0  0  0  0  0  0  0  0  0  0  0
   -5.8390    0.6220    0.9380 O   0  0  0  0  0  0  0  0  0  0  0  0
   -5.1250   -0.0210   -1.1080 O   0  0  0  0  0  0  0  0  0  0  0  0
   -6.3570   -0.1980   -1.5900 O   0  0  0  0  0  0  0  0  0  0  0  0
   -1.0630    0.4140    0.0150 N   0  0  0  0  0  0  0  0  0  0  0  0
   -0.1000    0.1010   -1.0190 C   0  0  1  0  0  0  0  0  0  0  0  0
    0.6080    1.3970   -1.3350 C   0  0  0  0  0  0  0  0  0  0  0  0
    1.9040    1.2320   -1.8350 O   0  0  0  0  0  0  0  0  0  0  0  0
    2.7690    0.4080   -1.1730 C   0  0  0  0  0  0  0  0  0  0  0  0
    4.0090    0.5580   -1.3390 O   0  0  0  0  0  0  0  0  0  0  0  0
    2.2070   -0.6350   -0.2830 C   0  0  1  0  0  0  0  0  0  0  0  0
    2.2480   -0.2130    1.1680 C   0  0  0  0  0  0  0  0  0  0  0  0
    3.5180    0.0520    1.6620 O   0  0  0  0  0  0  0  0  0  0  0  0
    4.5060   -0.8870    1.7080 C   0  0  0  0  0  0  0  0  0  0  0  0
    4.3400   -2.0560    1.3100 O   0  0  0  0  0  0  0  0  0  0  0  0
    5.7440   -0.4650    2.2360 O   0  0  0  0  0  0  0  0  0  0  0  0
    0.8130   -1.0240   -0.6330 C   0  0  0  0  0  0  0  0  0  0  0  0
  1  2  2  0
  2  3  1  0
  2  8  1  0
  3  4  1  0
  4  5  2  0
  4  6  1  0
  6  7  1  0
  9  8  1  1
  9 10  1  0
  9 20  1  0
 10 11  1  0
 11 12  1  0
 12 13  2  0
 12 14  1  0
 14 15  1  1
 14 20  1  0
 15 16  1  0
 16 17  1  0
 17 18  2  0
 17 19  1  0
M  END
