
     RDKit          3D

 20 19  0  0  0  0  0  0  0  0999 V2000
   -7.0640    0.1030   -0.5080 C   0  0  0  0  0  0  0  0  0  0  0  0
   -5.7700   -0.3810    0.1380 C   0  0  0  0  0  0  0  0  0  0  0  0
   -4.8350   -0.4150   -1.0000 O   0  0  0  0  0  0  0  0  0  0  0  0
   -3.5570    0.5490   -0.4980 P   0  0  0  0  0  0  0  0  0  0  0  0
   -4.0600    2.0260    0.2250 O   0  0  0  0  0  0  0  0  0  0  0  0
   -1.8960    0.0130   -0.3790 C   0  0  0  0  0  0  0  0  0  0  0  0
   -1.2720    0.7470    0.7690 N   0  0  0  0  0  0  0  0  0  0  0  0
    0.0550    0.3130    1.0280 C   0  0  0  0  0  0  0  0  0  0  0  0
    0.9550    0.6840   -0.0930 C   0  0  0  0  0  0  0  0  0  0  0  0
    2.2700    0.2770    0.0690 O   0  0  0  0  0  0  0  0  0  0  0  0
    2.8720   -0.7830   -0.6470 C   0  0  0  0  0  0  0  0  0  0  0  0
    2.2010   -1.3600   -1.5180 O   0  0  0  0  0  0  0  0  0  0  0  0
    4.2330   -1.0790   -0.2300 C   0  0  2  0  0  0  0  0  0  0  0  0
    4.2350   -2.2470    0.7790 C   0  0  0  0  0  0  0  0  0  0  0  0
    3.8060   -3.4110    0.0720 O   0  0  0  0  0  0  0  0  0  0  0  0
    4.8860    0.0660    0.2940 C   0  0  0  0  0  0  0  0  0  0  0  0
    5.5160    0.1200    1.4430 O   0  0  0  0  0  0  0  0  0  0  0  0
    4.8740    1.3030   -0.4290 O   0  0  0  0  0  0  0  0  0  0  0  0
    5.4620    2.3780    0.0620 O   0  0  0  0  0  0  0  0  0  0  0  0
    5.2730    3.3880   -0.8010 O   0  0  0  0  0  0  0  0  0  0  0  0
  1  2  1  0
  2  3  1  0
  3  4  1  0
  4  5  1  0
  4  6  1  0
  6  7  1  0
  7  8  1  0
  8  9  1  0
  9 10  1  0
 10 11  1  0
 11 12  2  0
 11 13  1  0
 13 14  1  1
 13 16  1  0
 14 15  1  0
 16 17  2  0
 16 18  1  0
 18 19  1  0
 19 20  1  0
M  END
