
     RDKit          3D

 20 20  0  0  0  0  0  0  0  0999 V2000
   -3.2270    0.9070   -1.9340 C   0  0  0  0  0  0  0  0  0  0  0  0
   -3.5530    0.4840   -0.6520 O   0  0  0  0  0  0  0  0  0  0  0  0
   -2.1900   -0.1870    0.1710 P   0  0  0  0  0  0  0  0  0  0  0  0
   -2.6550   -1.2000    1.4790 O   0  0  0  0  0  0  0  0  0  0  0  0
   -3.8130   -1.8850    1.1080 C   0  0  0  0  0  0  0  0  0  0  0  0
   -1.0510    1.1420    0.6680 C   0  0  0  0  0  0  0  0  0  0  0  0
    0.2810    0.9650    0.5290 C   0  0  0  0  0  0  0  0  0  0  0  0
    0.8100   -0.2720   -0.0120 C   0  0  0  0  0  0  0  0  0  0  0  0
    0.0000   -1.1690   -0.3460 O   0  0  0  0  0  0  0  0  0  0  0  0
    2.1500   -0.4900   -0.1690 O   0  0  0  0  0  0  0  0  0  0  0  0
    2.7190   -1.6740   -0.6900 C   0  0  0  0  0  0  0  0  0  0  0  0
    4.2300   -1.5410   -0.7090 C   0  0  0  0  0  0  0  0  0  0  0  0
    4.8400   -2.6800   -1.2130 O   0  0  0  0  0  0  0  0  0  0  0  0
    6.1410   -2.4930   -1.1990 O   0  0  0  0  0  0  0  0  0  0  0  0
    1.0730    1.9620    0.9050 O   0  0  0  0  0  0  0  0  0  0  0  0
    0.6100    3.0840    1.3950 C   0  0  0  0  0  0  0  0  0  0  0  0
    1.3730    4.0330    1.7520 O   0  0  0  0  0  0  0  0  0  0  0  0
   -0.7220    3.2970    1.5490 N   0  0  0  0  0  0  0  0  0  0  0  0
   -1.5670    2.3180    1.1830 C   0  0  0  0  0  0  0  0  0  0  0  0
   -2.8030    2.5180    1.3270 O   0  0  0  0  0  0  0  0  0  0  0  0
  1  2  1  0
  2  3  1  0
  3  4  1  0
  3  6  1  0
  4  5  1  0
  6  7  2  0
  6 19  1  0
  7  8  1  0
  7 15  1  0
  8  9  2  0
  8 10  1  0
 10 11  1  0
 11 12  1  0
 12 13  1  0
 13 14  1  0
 15 16  1  0
 16 17  2  0
 16 18  1  0
 18 19  1  0
 19 20  2  0
M  END
