
     RDKit          3D

 22 21  0  0  0  0  0  0  0  0999 V2000
   -6.3110   -0.7280   -2.2760 C   0  0  0  0  0  0  0  0  0  0  0  0
   -4.8500   -0.9160   -2.1180 C   0  0  0  0  0  0  0  0  0  0  0  0
   -4.1750   -1.4580   -3.0230 O   0  0  0  0  0  0  0  0  0  0  0  0
   -4.1760   -0.5030   -0.9720 O   0  0  0  0  0  0  0  0  0  0  0  0
   -2.8250   -0.6670   -0.8000 C   0  0  0  0  0  0  0  0  0  0  0  0
   -2.1300   -1.2000   -1.6710 O   0  0  0  0  0  0  0  0  0  0  0  0
   -2.1520   -0.2210    0.4130 N   0  0  0  0  0  0  0  0  0  0  0  0
   -3.0000    0.3860    1.3800 C   0  0  0  0  0  0  0  0  0  0  0  0
   -0.7750   -0.3980    0.5530 C   0  0  0  0  0  0  0  0  0  0  0  0
   -0.2460   -0.9860   -0.5070 O   0  0  0  0  0  0  0  0  0  0  0  0
    0.1280   -0.0450    1.6440 C   0  0  1  0  0  0  0  0  0  0  0  0
   -0.0570    1.3940    2.0340 C   0  0  0  0  0  0  0  0  0  0  0  0
    0.0720    2.2950    0.9950 O   0  0  0  0  0  0  0  0  0  0  0  0
   -0.0890   -0.9300    2.8650 C   0  0  0  0  0  0  0  0  0  0  0  0
    0.0150   -2.2760    2.5570 O   0  0  0  0  0  0  0  0  0  0  0  0
    1.4940   -0.2960    1.1560 N   0  0  0  0  0  0  0  0  0  0  0  0
    1.9270    0.5340    0.1080 C   0  0  0  0  0  0  0  0  0  0  0  0
    3.2970    0.0420   -0.4100 C   0  0  0  0  0  0  0  0  0  0  0  0
    3.7390    0.9390   -1.5250 C   0  0  0  0  0  0  0  0  0  0  0  0
    5.3740    0.3360   -2.1440 P   0  0  0  0  0  0  0  0  0  0  0  0
    6.6050    1.5610   -2.0430 O   0  0  0  0  0  0  0  0  0  0  0  0
    5.8550   -1.1490   -1.4450 O   0  0  0  0  0  0  0  0  0  0  0  0
  1  2  1  0
  2  3  2  0
  2  4  1  0
  4  5  1  0
  5  6  2  0
  5  7  1  0
  7  8  1  0
  7  9  1  0
  9 10  2  0
  9 11  1  0
 11 12  1  1
 11 14  1  0
 11 16  1  0
 12 13  1  0
 14 15  1  0
 16 17  1  0
 17 18  1  0
 18 19  1  0
 19 20  1  0
 20 21  1  0
 20 22  1  0
M  END
