
     RDKit          3D

 22 23  0  0  0  0  0  0  0  0999 V2000
    0.7340    1.4210   -1.7900 O   0  0  0  0  0  0  0  0  0  0  0  0
   -0.0230    0.5220   -1.2300 C   0  0  0  0  0  0  0  0  0  0  0  0
    0.0060   -0.7960   -1.4750 O   0  0  0  0  0  0  0  0  0  0  0  0
    0.0080   -1.7740   -2.3950 C   0  0  0  0  0  0  0  0  0  0  0  0
    1.3980   -2.2060   -2.8580 C   0  0  0  0  0  0  0  0  0  0  0  0
    2.4160   -1.8690   -1.8490 C   0  0  0  0  0  0  0  0  0  0  0  0
    3.7340   -2.0000   -1.6830 N   0  0  0  0  0  0  0  0  0  0  0  0
    4.1000   -1.4810   -0.5490 O   0  0  0  0  0  0  0  0  0  0  0  0
    3.0400   -1.0070    0.0420 C   0  0  0  0  0  0  0  0  0  0  0  0
    1.9960   -1.2410   -0.7500 N   0  0  0  0  0  0  0  0  0  0  0  0
    2.7360   -0.3030    1.3230 C   0  0  0  0  0  0  0  0  0  0  0  0
    1.4420    0.2500    1.2870 O   0  0  0  0  0  0  0  0  0  0  0  0
    0.5930   -0.7580    1.7110 C   0  0  0  0  0  0  0  0  0  0  0  0
   -0.8440   -0.4100    1.7100 C   0  0  0  0  0  0  0  0  0  0  0  0
   -1.5690   -1.0550    2.7590 O   0  0  0  0  0  0  0  0  0  0  0  0
   -1.4760    0.3860    0.8890 C   0  0  0  0  0  0  0  0  0  0  0  0
   -2.8660    0.5320    1.1310 O   0  0  0  0  0  0  0  0  0  0  0  0
   -3.4080    0.3150    2.3110 O   0  0  0  0  0  0  0  0  0  0  0  0
   -0.9620    1.1460   -0.2400 C   0  0  0  0  0  0  0  0  0  0  0  0
   -1.3000    2.4040   -0.4520 C   0  0  0  0  0  0  0  0  0  0  0  0
   -2.2160    3.1950    0.4190 C   0  0  0  0  0  0  0  0  0  0  0  0
   -3.3390    3.6540   -0.2350 O   0  0  0  0  0  0  0  0  0  0  0  0
  1  2  2  0
  2  3  1  0
  2 19  1  0
  3  4  1  0
  4  5  1  0
  5  6  1  0
  6  7  2  0
  6 10  1  0
  7  8  1  0
  8  9  1  0
  9 10  2  0
  9 11  1  0
 11 12  1  0
 12 13  1  0
 13 14  1  0
 14 15  1  0
 14 16  2  0
 16 17  1  0
 16 19  1  0
 17 18  1  0
 19 20  2  3
 20 21  1  0
 21 22  1  0
M  END
