
     RDKit          3D

 17 17  0  0  0  0  0  0  0  0999 V2000
   -1.9020   -3.3300    0.7770 C   0  0  0  0  0  0  0  0  0  0  0  0
   -0.9050   -2.3870    0.5190 O   0  0  0  0  0  0  0  0  0  0  0  0
   -1.1490   -1.0640    0.1990 C   0  0  0  0  0  0  0  0  0  0  0  0
   -2.4550   -0.6680    0.1340 C   0  0  0  0  0  0  0  0  0  0  0  0
   -2.7660    0.6260   -0.1780 C   0  0  0  0  0  0  0  0  0  0  0  0
   -4.4480    1.1640   -0.2680 S   0  0  0  0  0  0  0  0  0  0  0  0
   -4.5920    2.9040   -0.6940 C   0  0  0  0  0  0  0  0  0  0  0  0
   -1.7390    1.4980   -0.4190 C   0  0  0  0  0  0  0  0  0  0  0  0
   -0.4050    1.0690   -0.3470 C   0  0  0  0  0  0  0  0  0  0  0  0
   -0.0730   -0.2020   -0.0420 C   0  0  0  0  0  0  0  0  0  0  0  0
    1.2320   -0.7310    0.0560 N   0  0  0  0  0  0  0  0  0  0  0  0
    2.4320   -0.0340   -0.1460 C   0  0  0  0  0  0  0  0  0  0  0  0
    2.4130    1.1720   -0.4440 O   0  0  0  0  0  0  0  0  0  0  0  0
    3.7080   -0.7990    0.0100 C   0  0  0  0  0  0  0  0  0  0  0  0
    5.1840    0.2400   -0.2840 P   0  0  0  0  0  0  0  0  0  0  0  0
    6.4250   -0.1990    0.8340 O   0  0  0  0  0  0  0  0  0  0  0  0
    4.7760    1.8950   -0.0370 O   0  0  0  0  0  0  0  0  0  0  0  0
  1  2  1  0
  2  3  1  0
  3  4  2  0
  3 10  1  0
  4  5  1  0
  5  6  1  0
  5  8  2  0
  6  7  1  0
  8  9  1  0
  9 10  2  0
 10 11  1  0
 11 12  1  0
 12 13  2  0
 12 14  1  0
 14 15  1  0
 15 16  1  0
 15 17  1  0
M  END
