
     RDKit          3D

 20 20  0  0  0  0  0  0  0  0999 V2000
    4.0720   -2.5910    0.7780 C   0  0  0  0  0  0  0  0  0  0  0  0
    2.8680   -1.7310    0.4900 C   0  0  0  0  0  0  0  0  0  0  0  0
    1.7950   -2.2440    0.0740 O   0  0  0  0  0  0  0  0  0  0  0  0
    2.9190   -0.3240    0.6830 N   0  0  0  0  0  0  0  0  0  0  0  0
    1.7990    0.5290    0.4210 C   0  0  0  0  0  0  0  0  0  0  0  0
    1.3110    0.5020   -0.9910 C   0  0  0  0  0  0  0  0  0  0  0  0
    0.1760    1.4130   -1.1070 N   0  0  0  0  0  0  0  0  0  0  0  0
    0.3220    2.8040   -1.4480 C   0  0  0  0  0  0  0  0  0  0  0  0
    0.5350    3.8330    0.0840 P   0  0  0  0  0  0  0  0  0  0  0  0
    0.1600    5.4950   -0.2010 O   0  0  0  0  0  0  0  0  0  0  0  0
   -0.4110    3.2180    1.4030 O   0  0  0  0  0  0  0  0  0  0  0  0
   -1.1210    0.8790   -0.8690 C   0  0  0  0  0  0  0  0  0  0  0  0
   -2.1390    1.6050   -0.9520 O   0  0  0  0  0  0  0  0  0  0  0  0
   -1.3300   -0.4460   -0.5390 O   0  0  0  0  0  0  0  0  0  0  0  0
   -2.5530   -1.0420   -0.2920 C   0  0  2  0  0  0  0  0  0  0  0  0
   -2.6800   -1.6690    1.0790 C   0  0  0  0  0  0  0  0  0  0  0  0
   -3.9240   -2.5110    0.8620 C   0  0  0  0  0  0  0  0  0  0  0  0
   -3.6400   -3.0810   -0.4280 O   0  0  0  0  0  0  0  0  0  0  0  0
   -2.8610   -2.2020   -1.1540 C   0  0  0  0  0  0  0  0  0  0  0  0
   -2.4830   -2.3580   -2.3260 O   0  0  0  0  0  0  0  0  0  0  0  0
  1  2  1  0
  2  3  2  0
  2  4  1  0
  4  5  1  0
  5  6  1  0
  6  7  1  0
  7  8  1  0
  7 12  1  0
  8  9  1  0
  9 10  1  0
  9 11  1  0
 12 13  2  0
 12 14  1  0
 15 14  1  6
 15 16  1  0
 15 19  1  0
 16 17  1  0
 17 18  1  0
 18 19  1  0
 19 20  2  0
M  END
