
     RDKit          3D

 35 36  0  0  0  0  0  0  0  0999 V2000
    1.0990    5.5220    0.7110 C   0  0  0  0  0  0  0  0  0  0  0  0
    0.6730    4.3000   -0.0770 C   0  0  2  0  0  0  0  0  0  0  0  0
    1.2820    4.2710   -1.3120 O   0  0  0  0  0  0  0  0  0  0  0  0
   -0.7010    4.4010   -0.2790 O   0  0  0  0  0  0  0  0  0  0  0  0
   -1.4080    3.7660    0.7280 C   0  0  0  0  0  0  0  0  0  0  0  0
   -1.2590    2.2340    0.6710 C   0  0  0  0  0  0  0  0  0  0  0  0
    0.1240    1.9380    0.7350 N   0  0  0  0  0  0  0  0  0  0  0  0
    0.6970    0.6680    0.7670 C   0  0  0  0  0  0  0  0  0  0  0  0
    2.0570    0.7040    0.8780 O   0  0  0  0  0  0  0  0  0  0  0  0
    0.2810   -0.7080    0.7130 C   0  0  2  0  0  0  0  0  0  0  0  0
   -0.7630   -1.2140   -0.1780 C   0  0  0  0  0  0  0  0  0  0  0  0
   -2.1640   -0.8390   -0.0420 C   0  0  0  0  0  0  0  0  0  0  0  0
   -2.7500   -0.4320    0.9920 O   0  0  0  0  0  0  0  0  0  0  0  0
   -3.0540   -0.9160   -1.1850 N   0  0  0  0  0  0  0  0  0  0  0  0
   -4.4240   -0.5560   -1.0790 C   0  0  0  0  0  0  0  0  0  0  0  0
   -5.2160   -1.3700   -0.0840 C   0  0  0  0  0  0  0  0  0  0  0  0
   -5.2150   -2.7140   -0.3980 O   0  0  0  0  0  0  0  0  0  0  0  0
   -5.9150   -3.3660    0.4980 O   0  0  0  0  0  0  0  0  0  0  0  0
   -0.2960   -0.9640    2.1270 C   0  0  0  0  0  0  0  0  0  0  0  0
   -0.4390   -0.0300    2.9450 O   0  0  0  0  0  0  0  0  0  0  0  0
   -0.6240   -2.2980    2.3750 O   0  0  0  0  0  0  0  0  0  0  0  0
    0.3460   -3.2220    1.9240 C   0  0  0  0  0  0  0  0  0  0  0  0
    0.1310   -4.4300    1.7830 O   0  0  0  0  0  0  0  0  0  0  0  0
    1.6620   -2.6090    1.6300 C   0  0  0  0  0  0  0  0  0  0  0  0
    1.4820   -1.5590    0.6620 N   0  0  0  0  0  0  0  0  0  0  0  0
    2.5020   -1.4000   -0.3040 C   0  0  0  0  0  0  0  0  0  0  0  0
    3.7350   -1.7450   -0.0140 N   0  0  0  0  0  0  0  0  0  0  0  0
    2.3200   -0.8820   -1.6130 N   0  0  0  0  0  0  0  0  0  0  0  0
    3.2300   -1.5190   -3.0200 P   0  0  0  0  0  0  0  0  0  0  0  0
    2.4610   -2.8770   -3.7430 O   0  0  0  0  0  0  0  0  0  0  0  0
    5.2950   -2.0190   -2.5200 P   0  0  0  0  0  0  0  0  0  0  0  0
    5.4250   -3.4760   -1.5980 O   0  0  0  0  0  0  0  0  0  0  0  0
    6.1250   -0.7020   -1.7830 O   0  0  0  0  0  0  0  0  0  0  0  0
    0.9990    3.0930    0.7500 C   0  0  0  0  0  0  0  0  0  0  0  0
    2.0410    3.0370    1.4840 O   0  0  0  0  0  0  0  0  0  0  0  0
  2  1  1  1
  2  3  1  0
  2  4  1  0
  2 34  1  0
  4  5  1  0
  5  6  1  0
  6  7  1  0
  7  8  1  0
  7 34  1  0
  8  9  2  0
  8 10  1  0
 10 11  1  6
 10 19  1  0
 10 25  1  0
 11 12  1  0
 12 13  2  0
 12 14  1  0
 14 15  1  0
 15 16  1  0
 16 17  1  0
 17 18  1  0
 19 20  2  0
 19 21  1  0
 21 22  1  0
 22 23  2  0
 22 24  1  0
 24 25  1  0
 25 26  1  0
 26 27  2  0
 26 28  1  0
 28 29  1  0
 29 30  1  0
 29 31  1  0
 31 32  1  0
 31 33  1  0
 34 35  2  0
M  END
