
     RDKit          3D

 36 39  0  0  0  0  0  0  0  0999 V2000
   -8.9930    3.2260    0.6980 N   0  0  0  0  0  0  0  0  0  0  0  0
   -7.7430    2.6440    1.0060 C   0  0  0  0  0  0  0  0  0  0  0  0
   -6.8990    3.2100    1.8910 N   0  0  0  0  0  0  0  0  0  0  0  0
   -5.7000    2.6790    2.2060 C   0  0  0  0  0  0  0  0  0  0  0  0
   -5.2910    1.5330    1.6320 N   0  0  0  0  0  0  0  0  0  0  0  0
   -6.0870    0.9360    0.7540 C   0  0  0  0  0  0  0  0  0  0  0  0
   -7.3150    1.4660    0.4210 C   0  0  0  0  0  0  0  0  0  0  0  0
   -7.8620    0.6510   -0.4680 N   0  0  0  0  0  0  0  0  0  0  0  0
   -6.9990   -0.3600   -0.6850 C   0  0  0  0  0  0  0  0  0  0  0  0
   -5.8910   -0.2030    0.0620 N   0  0  0  0  0  0  0  0  0  0  0  0
   -4.7890   -1.1080    0.0580 C   0  0  2  0  0  0  0  0  0  0  0  0
   -3.5980   -0.5630    0.4540 O   0  0  0  0  0  0  0  0  0  0  0  0
   -2.6300   -1.4970    0.1750 C   0  0  2  0  0  0  0  0  0  0  0  0
   -1.3220   -0.8700   -0.1910 C   0  0  0  0  0  0  0  0  0  0  0  0
   -0.3480   -1.8490   -0.4740 O   0  0  0  0  0  0  0  0  0  0  0  0
    1.0670   -1.3440   -0.8740 P   0  0  0  0  0  0  0  0  0  0  0  0
    1.4690   -2.9560   -1.0460 O   0  0  0  0  0  0  0  0  0  0  0  0
    1.2440   -0.6350    0.6000 O   0  0  0  0  0  0  0  0  0  0  0  0
    2.4530   -1.0030   -1.3590 O   0  0  0  0  0  0  0  0  0  0  0  0
    3.8630   -1.4840   -0.8550 P   0  0  0  0  0  0  0  0  0  0  0  0
    3.5700   -2.0100    0.5410 O   0  0  0  0  0  0  0  0  0  0  0  0
    4.4780   -2.9820   -1.3050 O   0  0  0  0  0  0  0  0  0  0  0  0
    4.9470   -0.3810   -0.1400 O   0  0  0  0  0  0  0  0  0  0  0  0
    4.2230    0.4720    0.6350 C   0  0  0  0  0  0  0  0  0  0  0  0
    5.2410    1.4460    1.2500 C   0  0  1  0  0  0  0  0  0  0  0  0
    6.1550    0.7550    1.9990 O   0  0  0  0  0  0  0  0  0  0  0  0
    7.3810    0.8040    1.3700 C   0  0  2  0  0  0  0  0  0  0  0  0
    8.4300    0.7070    2.2660 O   0  0  0  0  0  0  0  0  0  0  0  0
    7.4010    2.1340    0.6110 C   0  0  2  0  0  0  0  0  0  0  0  0
    7.7270    3.1450    1.4950 O   0  0  0  0  0  0  0  0  0  0  0  0
    5.9470    2.2290    0.2010 C   0  0  2  0  0  0  0  0  0  0  0  0
    5.5110    3.5500    0.1830 O   0  0  0  0  0  0  0  0  0  0  0  0
   -3.1300   -2.3170   -1.0150 C   0  0  1  0  0  0  0  0  0  0  0  0
   -3.4560   -3.6190   -0.6080 O   0  0  0  0  0  0  0  0  0  0  0  0
   -4.4470   -1.6330   -1.3250 C   0  0  1  0  0  0  0  0  0  0  0  0
   -5.3840   -2.5380   -1.7970 O   0  0  0  0  0  0  0  0  0  0  0  0
  1  2  1  0
  2  3  2  0
  2  7  1  0
  3  4  1  0
  4  5  2  0
  5  6  1  0
  6  7  2  0
  6 10  1  0
  7  8  1  0
  8  9  2  0
  9 10  1  0
 11 10  1  6
 11 12  1  0
 11 35  1  0
 12 13  1  0
 13 14  1  6
 13 33  1  0
 14 15  1  0
 15 16  1  0
 16 17  1  0
 16 18  1  0
 16 19  1  0
 19 20  1  0
 20 21  1  0
 20 22  1  0
 20 23  1  0
 23 24  1  0
 25 24  1  6
 25 26  1  0
 25 31  1  0
 26 27  1  0
 27 28  1  1
 27 29  1  0
 29 30  1  1
 29 31  1  0
 31 32  1  1
 33 34  1  1
 33 35  1  0
 35 36  1  1
M  END
