
     RDKit          3D

 36 36  0  0  0  0  0  0  0  0999 V2000
   -3.2110    0.8880   -1.9030 N   0  0  0  0  0  0  0  0  0  0  0  0
   -3.5410    0.2800   -0.8230 C   0  0  0  0  0  0  0  0  0  0  0  0
   -4.9220    0.2020   -0.4840 N   0  0  0  0  0  0  0  0  0  0  0  0
   -6.1970    1.0110   -1.4180 P   0  0  0  0  0  0  0  0  0  0  0  0
   -6.1030    0.7440   -3.1090 O   0  0  0  0  0  0  0  0  0  0  0  0
   -6.3800    2.6780   -1.0260 O   0  0  0  0  0  0  0  0  0  0  0  0
   -2.5670   -0.3170    0.0370 N   0  0  0  0  0  0  0  0  0  0  0  0
   -2.6210   -1.7140    0.3240 C   0  0  0  0  0  0  0  0  0  0  0  0
   -1.4010   -2.2380    0.9910 C   0  0  0  0  0  0  0  0  0  0  0  0
   -1.2730   -2.0810    2.2400 O   0  0  0  0  0  0  0  0  0  0  0  0
   -0.3580   -2.9150    0.2990 N   0  0  0  0  0  0  0  0  0  0  0  0
    0.2490   -4.0600    0.8740 C   0  0  0  0  0  0  0  0  0  0  0  0
    1.1620   -4.6780    0.2580 O   0  0  0  0  0  0  0  0  0  0  0  0
   -0.1320   -4.5490    2.1380 O   0  0  0  0  0  0  0  0  0  0  0  0
    0.1230   -2.4930   -1.0000 C   0  0  0  0  0  0  0  0  0  0  0  0
    1.5390   -1.8940   -0.9160 C   0  0  0  0  0  0  0  0  0  0  0  0
    1.6380   -0.7560   -0.2310 O   0  0  0  0  0  0  0  0  0  0  0  0
    2.5490    0.2060   -0.5140 C   0  0  1  0  0  0  0  0  0  0  0  0
    3.1980    0.5640    0.7290 N   0  0  0  0  0  0  0  0  0  0  0  0
    3.8940    1.7870    0.7800 C   0  0  0  0  0  0  0  0  0  0  0  0
    4.4740    2.0750    2.1680 C   0  0  0  0  0  0  0  0  0  0  0  0
    3.4580    2.1370    3.1290 O   0  0  0  0  0  0  0  0  0  0  0  0
    3.4440    0.0270   -1.6780 C   0  0  1  0  0  0  0  0  0  0  0  0
    4.0690    1.2840   -1.9490 O   0  0  0  0  0  0  0  0  0  0  0  0
    4.5540   -0.9110   -1.5500 C   0  0  0  0  0  0  0  0  0  0  0  0
    5.7400   -0.4260   -1.6470 O   0  0  0  0  0  0  0  0  0  0  0  0
    4.5410   -2.2640   -1.3380 O   0  0  0  0  0  0  0  0  0  0  0  0
    1.6860    1.4380   -0.8230 C   0  0  0  0  0  0  0  0  0  0  0  0
    2.2490    2.2650   -1.6260 O   0  0  0  0  0  0  0  0  0  0  0  0
    0.4540    1.6080   -0.2850 O   0  0  0  0  0  0  0  0  0  0  0  0
   -0.8020    1.1450   -0.6040 C   0  0  0  0  0  0  0  0  0  0  0  0
   -1.5480    0.5540    0.5870 C   0  0  1  0  0  0  0  0  0  0  0  0
   -2.2650    1.6500    1.3580 C   0  0  0  0  0  0  0  0  0  0  0  0
   -3.0170    1.0710    2.3690 O   0  0  0  0  0  0  0  0  0  0  0  0
   -3.8590    2.2780    3.2870 P   0  0  0  0  0  0  0  0  0  0  0  0
   -4.0080    2.0000    4.8240 O   0  0  0  0  0  0  0  0  0  0  0  0
  1  2  2  0
  2  3  1  0
  2  7  1  0
  3  4  1  0
  4  5  1  0
  4  6  1  0
  7  8  1  0
  7 32  1  0
  8  9  1  0
  9 10  2  0
  9 11  1  0
 11 12  1  0
 11 15  1  0
 12 13  2  0
 12 14  1  0
 15 16  1  0
 16 17  1  0
 17 18  1  0
 18 19  1  1
 18 23  1  0
 18 28  1  0
 19 20  1  0
 20 21  1  0
 21 22  1  0
 23 24  1  1
 23 25  1  0
 25 26  2  0
 25 27  1  0
 28 29  2  0
 28 30  1  0
 30 31  1  0
 31 32  1  0
 32 33  1  6
 33 34  1  0
 34 35  1  0
 35 36  2  0
M  END
