
     RDKit          3D

 35 37  0  0  0  0  0  0  0  0999 V2000
   -2.0680    4.0850   -2.3540 N   0  0  0  0  0  0  0  0  0  0  0  0
   -1.6740    3.2340   -3.4310 C   0  0  0  0  0  0  0  0  0  0  0  0
   -0.8160    2.1080   -3.0150 C   0  0  0  0  0  0  0  0  0  0  0  0
   -0.4260    1.3130   -3.9090 O   0  0  0  0  0  0  0  0  0  0  0  0
   -0.4290    1.8970   -1.6920 O   0  0  0  0  0  0  0  0  0  0  0  0
    0.3860    0.8150   -1.3400 C   0  0  0  0  0  0  0  0  0  0  0  0
    0.7360    0.0640   -2.2880 O   0  0  0  0  0  0  0  0  0  0  0  0
    0.8110    0.5660    0.0520 C   0  0  2  0  0  0  0  0  0  0  0  0
    1.6040   -0.5710    0.0660 O   0  0  0  0  0  0  0  0  0  0  0  0
    2.9000   -0.2910    0.4600 C   0  0  0  0  0  0  0  0  0  0  0  0
    3.6720   -1.5900    0.4390 C   0  0  1  0  0  0  0  0  0  0  0  0
    3.6510   -2.1050   -0.8470 O   0  0  0  0  0  0  0  0  0  0  0  0
    4.3700   -3.1550   -1.3470 C   0  0  0  0  0  0  0  0  0  0  0  0
    3.8680   -3.9630   -2.2020 O   0  0  0  0  0  0  0  0  0  0  0  0
    5.6740   -3.3230   -0.8970 O   0  0  0  0  0  0  0  0  0  0  0  0
    5.9920   -2.7200    0.7260 P   0  0  0  0  0  0  0  0  0  0  0  0
    5.5490   -3.9080    1.9120 O   0  0  0  0  0  0  0  0  0  0  0  0
    4.9400   -1.3490    0.9440 O   0  0  0  0  0  0  0  0  0  0  0  0
   -0.4170    0.3580    0.9740 C   0  0  1  0  0  0  0  0  0  0  0  0
   -1.2130    1.3720    1.0420 O   0  0  0  0  0  0  0  0  0  0  0  0
   -1.5730    2.2500    1.9210 C   0  0  0  0  0  0  0  0  0  0  0  0
   -0.4800    3.1500    2.4090 C   0  0  0  0  0  0  0  0  0  0  0  0
    0.8200    2.1930    3.2940 P   0  0  0  0  0  0  0  0  0  0  0  0
    0.7700    1.8470    4.7980 O   0  0  0  0  0  0  0  0  0  0  0  0
   -0.8850   -0.9990    0.6470 C   0  0  0  0  0  0  0  0  0  0  0  0
    0.0700   -1.8760    0.7670 O   0  0  0  0  0  0  0  0  0  0  0  0
   -2.1100   -1.5070    0.2470 N   0  0  0  0  0  0  0  0  0  0  0  0
   -2.2280   -2.9470    0.1750 C   0  0  0  0  0  0  0  0  0  0  0  0
   -3.5480   -3.4580   -0.1980 C   0  0  0  0  0  0  0  0  0  0  0  0
   -4.5090   -2.6630   -0.4530 N   0  0  0  0  0  0  0  0  0  0  0  0
   -4.4100   -1.2660   -0.4040 C   0  0  0  0  0  0  0  0  0  0  0  0
   -5.2760   -0.2350   -0.6440 N   0  0  0  0  0  0  0  0  0  0  0  0
   -4.6420    0.8890   -0.4550 O   0  0  0  0  0  0  0  0  0  0  0  0
   -3.4160    0.6220   -0.1050 N   0  0  0  0  0  0  0  0  0  0  0  0
   -3.2060   -0.7000   -0.0540 C   0  0  0  0  0  0  0  0  0  0  0  0
  1  2  1  0
  2  3  1  0
  3  4  2  0
  3  5  1  0
  5  6  1  0
  6  7  2  0
  6  8  1  0
  8  9  1  6
  8 19  1  0
  9 10  1  0
 11 10  1  6
 11 12  1  0
 11 18  1  0
 12 13  1  0
 13 14  2  0
 13 15  1  0
 15 16  1  0
 16 17  1  0
 16 18  1  0
 19 20  1  6
 19 25  1  0
 20 21  1  0
 21 22  1  0
 22 23  1  0
 23 24  2  0
 25 26  2  0
 25 27  1  0
 27 28  1  0
 27 35  1  0
 28 29  1  0
 29 30  2  0
 30 31  1  0
 31 32  2  0
 31 35  1  0
 32 33  1  0
 33 34  1  0
 34 35  2  0
M  END
