
     RDKit          3D

 20 21  0  0  0  0  0  0  0  0999 V2000
   -4.7330    2.8990    0.4600 O   0  0  0  0  0  0  0  0  0  0  0  0
   -4.4210    1.7370    0.3270 C   0  0  0  0  0  0  0  0  0  0  0  0
   -3.8170    0.9250   -0.7730 C   0  0  0  0  0  0  0  0  0  0  0  0
   -3.1980   -0.2350   -0.0860 C   0  0  2  0  0  0  0  0  0  0  0  0
   -4.1760   -0.4620    1.0530 C   0  0  0  0  0  0  0  0  0  0  0  0
   -4.5830    0.8220    1.4250 O   0  0  0  0  0  0  0  0  0  0  0  0
   -1.9360    0.0200    0.3950 O   0  0  0  0  0  0  0  0  0  0  0  0
   -1.1350   -0.2960   -0.6980 C   0  0  1  0  0  0  0  0  0  0  0  0
    0.2400   -0.0100   -0.4930 C   0  0  0  0  0  0  0  0  0  0  0  0
    0.9470    0.7550   -1.1760 O   0  0  0  0  0  0  0  0  0  0  0  0
    0.9370   -0.6210    0.6560 N   0  0  0  0  0  0  0  0  0  0  0  0
    2.2390   -0.2060    1.0180 C   0  0  0  0  0  0  0  0  0  0  0  0
    3.3820   -0.2770    0.0890 C   0  0  0  0  0  0  0  0  0  0  0  0
    4.4340    0.3160    0.8490 O   0  0  0  0  0  0  0  0  0  0  0  0
    5.7990    0.7780    0.0100 P   0  0  0  0  0  0  0  0  0  0  0  0
    6.6740    2.0370    0.7330 O   0  0  0  0  0  0  0  0  0  0  0  0
    6.7490   -0.3840   -0.7270 O   0  0  0  0  0  0  0  0  0  0  0  0
   -1.6030   -1.5630   -1.1140 N   0  0  0  0  0  0  0  0  0  0  0  0
   -3.0660   -1.4430   -0.9900 C   0  0  0  0  0  0  0  0  0  0  0  0
   -3.9200   -2.1500   -1.4600 O   0  0  0  0  0  0  0  0  0  0  0  0
  1  2  2  0
  2  3  1  0
  2  6  1  0
  4  3  1  6
  4  5  1  0
  4  7  1  0
  4 19  1  0
  5  6  1  0
  7  8  1  0
  8  9  1  1
  8 18  1  0
  9 10  2  0
  9 11  1  0
 11 12  1  0
 12 13  1  0
 13 14  1  0
 14 15  1  0
 15 16  1  0
 15 17  1  0
 18 19  1  0
 19 20  2  0
M  END
