
     RDKit          3D

 20 21  0  0  0  0  0  0  0  0999 V2000
   -2.7140    2.7920    0.3200 N   0  0  0  0  0  0  0  0  0  0  0  0
   -2.6450    1.5700   -0.1270 C   0  0  0  0  0  0  0  0  0  0  0  0
   -1.3400    1.0130   -0.2350 N   0  0  0  0  0  0  0  0  0  0  0  0
   -1.0210   -0.1250   -0.7760 C   0  0  0  0  0  0  0  0  0  0  0  0
    0.3940   -0.4640   -0.7570 C   0  0  0  0  0  0  0  0  0  0  0  0
    0.9050   -1.5770   -1.2590 C   0  0  0  0  0  0  0  0  0  0  0  0
    2.2970   -1.5900   -1.0770 O   0  0  0  0  0  0  0  0  0  0  0  0
    2.6580   -0.2440   -0.8390 C   0  0  2  0  0  0  0  0  0  0  0  0
    3.8060   -0.2280    0.1210 C   0  0  0  0  0  0  0  0  0  0  0  0
    4.2220    1.0760    0.4060 O   0  0  0  0  0  0  0  0  0  0  0  0
    5.5500    1.0210    1.5190 P   0  0  0  0  0  0  0  0  0  0  0  0
    6.7920   -0.0570    0.9840 O   0  0  0  0  0  0  0  0  0  0  0  0
    5.0260    0.6690    3.1310 O   0  0  0  0  0  0  0  0  0  0  0  0
    1.4600    0.2550   -0.2440 O   0  0  0  0  0  0  0  0  0  0  0  0
   -1.8820   -1.0340   -1.3600 O   0  0  0  0  0  0  0  0  0  0  0  0
   -3.2710   -1.0150   -1.6090 C   0  0  0  0  0  0  0  0  0  0  0  0
   -4.0700   -0.4340   -0.4890 C   0  0  1  0  0  0  0  0  0  0  0  0
   -3.6880   -1.0650    0.8480 C   0  0  0  0  0  0  0  0  0  0  0  0
   -4.4970   -0.4750    1.8130 O   0  0  0  0  0  0  0  0  0  0  0  0
   -3.8550    0.9580   -0.4440 O   0  0  0  0  0  0  0  0  0  0  0  0
  1  2  2  0
  2  3  1  0
  2 20  1  0
  3  4  2  0
  4  5  1  0
  4 15  1  0
  5  6  2  0
  5 14  1  0
  6  7  1  0
  7  8  1  0
  8  9  1  1
  8 14  1  0
  9 10  1  0
 10 11  1  0
 11 12  1  0
 11 13  1  0
 15 16  1  0
 16 17  1  0
 17 18  1  1
 17 20  1  0
 18 19  1  0
M  END
