
     RDKit          3D

 20 21  0  0  0  0  0  0  0  0999 V2000
   -1.5390    1.3200    1.2010 N   0  0  0  0  0  0  0  0  0  0  0  0
   -2.3850    0.4510    0.4940 C   0  0  2  0  0  0  0  0  0  0  0  0
   -1.7720   -0.6790   -0.2120 C   0  0  0  0  0  0  0  0  0  0  0  0
   -0.5080   -0.9570   -0.4200 C   0  0  0  0  0  0  0  0  0  0  0  0
    0.7050   -0.2540   -0.0310 C   0  0  0  0  0  0  0  0  0  0  0  0
    0.7360    0.8120    0.6100 O   0  0  0  0  0  0  0  0  0  0  0  0
    1.9970   -0.7810   -0.3850 N   0  0  0  0  0  0  0  0  0  0  0  0
    3.2130   -0.0980   -0.0080 C   0  0  0  0  0  0  0  0  0  0  0  0
    4.3120   -0.7890   -0.4550 O   0  0  0  0  0  0  0  0  0  0  0  0
    5.7340    0.0810    0.0280 P   0  0  0  0  0  0  0  0  0  0  0  0
    5.3010    1.7590    0.1280 O   0  0  0  0  0  0  0  0  0  0  0  0
    6.3420   -0.4990    1.5290 O   0  0  0  0  0  0  0  0  0  0  0  0
   -0.4700   -2.2560   -1.2070 C   0  0  0  0  0  0  0  0  0  0  0  0
   -1.7920   -2.6150   -1.4260 O   0  0  0  0  0  0  0  0  0  0  0  0
   -2.6400   -1.7140   -0.8380 C   0  0  0  0  0  0  0  0  0  0  0  0
   -3.9120   -1.7570   -0.8310 O   0  0  0  0  0  0  0  0  0  0  0  0
   -3.2200    1.2650   -0.4860 C   0  0  0  0  0  0  0  0  0  0  0  0
   -4.1440    1.8520    0.3500 O   0  0  0  0  0  0  0  0  0  0  0  0
   -4.2640    1.0880    1.4980 C   0  0  0  0  0  0  0  0  0  0  0  0
   -3.4050    0.0020    1.3680 O   0  0  0  0  0  0  0  0  0  0  0  0
  2  1  1  1
  2  3  1  0
  2 17  1  0
  2 20  1  0
  3  4  2  0
  3 15  1  0
  4  5  1  0
  4 13  1  0
  5  6  2  0
  5  7  1  0
  7  8  1  0
  8  9  1  0
  9 10  1  0
 10 11  1  0
 10 12  1  0
 13 14  1  0
 14 15  1  0
 15 16  2  0
 17 18  1  0
 18 19  1  0
 19 20  1  0
M  END
