
     RDKit          3D

 20 20  0  0  0  0  0  0  0  0999 V2000
    6.1430    0.9240    1.6240 C   0  0  0  0  0  0  0  0  0  0  0  0
    4.7740    1.2530    1.3380 O   0  0  0  0  0  0  0  0  0  0  0  0
    3.8640    0.2660    0.9710 C   0  0  0  0  0  0  0  0  0  0  0  0
    4.2550   -0.9160    0.8920 O   0  0  0  0  0  0  0  0  0  0  0  0
    2.5360    0.5360    0.6860 O   0  0  0  0  0  0  0  0  0  0  0  0
    1.6320   -0.4860    0.3150 C   0  0  0  0  0  0  0  0  0  0  0  0
    2.1370   -1.6410    0.2690 O   0  0  0  0  0  0  0  0  0  0  0  0
    0.2770   -0.1950    0.0270 N   0  0  0  0  0  0  0  0  0  0  0  0
   -0.3200    1.1150    0.0920 C   0  0  0  0  0  0  0  0  0  0  0  0
   -1.8220    0.8400    0.1500 C   0  0  1  0  0  0  0  0  0  0  0  0
   -2.8120    2.2850   -0.3870 P   0  0  0  0  0  0  0  0  0  0  0  0
   -2.4160    2.8220   -1.9670 O   0  0  0  0  0  0  0  0  0  0  0  0
   -4.4800    1.9390   -0.1930 O   0  0  0  0  0  0  0  0  0  0  0  0
   -1.8830   -0.3260   -0.7890 C   0  0  2  0  0  0  0  0  0  0  0  0
   -3.1840   -1.0780   -0.7140 C   0  0  0  0  0  0  0  0  0  0  0  0
   -3.4670   -1.6240    0.5740 N   0  0  0  0  0  0  0  0  0  0  0  0
   -0.7060   -1.1480   -0.3560 C   0  0  1  0  0  0  0  0  0  0  0  0
   -0.2450   -2.0440   -1.4570 C   0  0  0  0  0  0  0  0  0  0  0  0
   -0.8940   -3.0080   -1.8800 O   0  0  0  0  0  0  0  0  0  0  0  0
    0.9800   -1.7670   -2.0310 O   0  0  0  0  0  0  0  0  0  0  0  0
  1  2  1  0
  2  3  1  0
  3  4  2  0
  3  5  1  0
  5  6  1  0
  6  7  2  0
  6  8  1  0
  8  9  1  0
  8 17  1  0
  9 10  1  0
 10 11  1  6
 10 14  1  0
 11 12  1  0
 11 13  1  0
 14 15  1  1
 14 17  1  0
 15 16  1  0
 17 18  1  6
 18 19  2  0
 18 20  1  0
M  END
