
     RDKit          3D

  9  9  0  0  0  0  0  0  0  0999 V2000
   -1.4890    1.2350   -0.8760 N   0  0  0  0  0  0  0  0  0  0  0  0
   -1.1510    0.3350    0.2070 C   0  0  1  0  0  0  0  0  0  0  0  0
   -1.9800   -0.9260    0.1410 C   0  0  0  0  0  0  0  0  0  0  0  0
   -1.6480   -1.7840    1.1850 O   0  0  0  0  0  0  0  0  0  0  0  0
    0.3040    0.0470    0.1420 C   0  0  0  0  0  0  0  0  0  0  0  0
    1.1610    0.3210    1.1070 C   0  0  0  0  0  0  0  0  0  0  0  0
    2.4880   -0.1260    0.6350 C   0  0  0  0  0  0  0  0  0  0  0  0
    2.3420   -0.1010   -0.8020 N   0  0  0  0  0  0  0  0  0  0  0  0
    1.0180   -0.5440   -0.9070 O   0  0  0  0  0  0  0  0  0  0  0  0
  2  1  1  6
  2  3  1  0
  2  5  1  0
  3  4  1  0
  5  6  2  0
  5  9  1  0
  6  7  1  0
  7  8  1  0
  8  9  1  0
M  CHG  2   1   1   8   1
M  END
