
     RDKit          3D

  9  8  0  0  0  0  0  0  0  0999 V2000
    2.3560   -0.9660   -1.0850 N   0  0  0  0  0  0  0  0  0  0  0  0
    1.9040   -0.1540   -0.0190 C   0  0  0  0  0  0  0  0  0  0  0  0
    0.4730    0.0540    0.1280 C   0  0  0  0  0  0  0  0  0  0  0  0
   -0.4150   -0.4810   -0.6900 C   0  0  0  0  0  0  0  0  0  0  0  0
   -1.8620   -0.2600   -0.5280 C   0  0  0  0  0  0  0  0  0  0  0  0
   -2.1130    0.5530    0.5610 O   0  0  0  0  0  0  0  0  0  0  0  0
   -3.4640    0.7160    0.6540 N   0  0  0  0  0  0  0  0  0  0  0  0
    2.7560    0.3890    0.8070 C   0  0  0  0  0  0  0  0  0  0  0  0
    4.1280    0.1740    0.6460 O   0  0  0  0  0  0  0  0  0  0  0  0
  1  2  1  0
  2  3  1  0
  2  8  2  3
  3  4  2  3
  4  5  1  0
  5  6  1  0
  6  7  1  0
  8  9  1  0
M  CHG  1   7   1
M  END
