
     RDKit          3D

  8  7  0  0  0  0  0  0  0  0999 V2000
   -0.6810    1.9610   -0.0160 C   0  0  0  0  0  0  0  0  0  0  0  0
   -0.7990    0.5400    0.4000 C   0  0  1  0  0  0  0  0  0  0  0  0
   -2.0610   -0.0270   -0.2630 C   0  0  0  0  0  0  0  0  0  0  0  0
   -2.2670   -1.4090    0.0800 N   0  0  0  0  0  0  0  0  0  0  0  0
    0.3330   -0.2760    0.1760 N   0  0  0  0  0  0  0  0  0  0  0  0
    1.4800    0.3880   -0.3710 C   0  0  0  0  0  0  0  0  0  0  0  0
    2.6170   -0.6240   -0.4190 C   0  0  0  0  0  0  0  0  0  0  0  0
    2.9340   -1.1160    0.8370 O   0  0  0  0  0  0  0  0  0  0  0  0
  2  1  1  6
  2  3  1  0
  2  5  1  0
  3  4  1  0
  5  6  1  0
  6  7  1  0
  7  8  1  0
M  CHG  2   4   1   5   1
M  END
