
     RDKit          3D

 24 25  0  0  0  0  0  0  0  0999 V2000
    1.7400   -1.3460   -0.1210 O   0  0  0  0  0  0  0  0  0  0  0  0
    1.7030   -0.1630   -0.4510 C   0  0  0  0  0  0  0  0  0  0  0  0
    0.3040    0.3520   -0.9090 N   0  0  0  0  0  0  0  0  0  0  0  0
   -0.4150   -0.8480   -0.6760 C   0  0  0  0  0  0  0  0  0  0  0  0
   -1.0190   -1.6530   -0.5330 N   0  0  0  0  0  0  0  0  0  0  0  0
   -1.7170   -2.8240   -0.3050 C   0  0  0  0  0  0  0  0  0  0  0  0
   -1.5990   -3.9830   -0.3420 O   0  0  0  0  0  0  0  0  0  0  0  0
   -3.1180   -2.2180    0.1980 C   0  0  1  0  0  0  0  0  0  0  0  0
   -2.9740   -2.3440    1.5640 O   0  0  0  0  0  0  0  0  0  0  0  0
   -3.1270   -3.5870    1.8670 O   0  0  0  0  0  0  0  0  0  0  0  0
   -3.0310   -0.7920   -0.1930 C   0  0  0  0  0  0  0  0  0  0  0  0
   -4.2370   -0.2130   -0.3050 O   0  0  0  0  0  0  0  0  0  0  0  0
   -2.0180    0.0660   -0.4430 N   0  0  0  0  0  0  0  0  0  0  0  0
   -1.7990    1.3650   -0.2080 C   0  0  0  0  0  0  0  0  0  0  0  0
   -2.4460    2.4580   -0.9620 C   0  0  0  0  0  0  0  0  0  0  0  0
   -3.7800    2.5460   -0.5190 O   0  0  0  0  0  0  0  0  0  0  0  0
   -3.9050    3.8800   -0.2490 O   0  0  0  0  0  0  0  0  0  0  0  0
    2.7060    0.6820   -0.4350 O   0  0  0  0  0  0  0  0  0  0  0  0
    3.9280    0.4520    0.0520 C   0  0  0  0  0  0  0  0  0  0  0  0
    4.2310    0.5910    1.4320 C   0  0  0  0  0  0  0  0  0  0  0  0
    5.4550    0.4020    1.9340 N   0  0  0  0  0  0  0  0  0  0  0  0
    6.4160    0.0590    1.0670 C   0  0  0  0  0  0  0  0  0  0  0  0
    6.2560   -0.1310   -0.2570 N   0  0  0  0  0  0  0  0  0  0  0  0
    4.9950    0.0860   -0.7540 C   0  0  0  0  0  0  0  0  0  0  0  0
  1  2  2  0
  2  3  1  0
  2 18  1  0
  3  4  1  0
  4  5  2  0
  4 13  1  0
  5  6  1  0
  6  7  2  0
  6  8  1  0
  8  9  1  1
  8 11  1  0
  9 10  1  0
 11 12  2  0
 11 13  1  0
 13 14  1  0
 14 15  1  0
 15 16  1  0
 16 17  1  0
 18 19  1  0
 19 20  2  0
 19 24  1  0
 20 21  1  0
 21 22  2  0
 22 23  1  0
 23 24  2  0
M  END
