
     RDKit          3D

 24 25  0  0  0  0  0  0  0  0999 V2000
    2.1030   -5.4140   -1.6580 O   0  0  0  0  0  0  0  0  0  0  0  0
    2.0580   -4.6420   -0.6620 C   0  0  0  0  0  0  0  0  0  0  0  0
    1.9030   -5.2440    0.5880 O   0  0  0  0  0  0  0  0  0  0  0  0
    2.1590   -3.2470   -0.8190 N   0  0  0  0  0  0  0  0  0  0  0  0
    1.1430   -2.4600   -0.7000 C   0  0  0  0  0  0  0  0  0  0  0  0
    1.2840   -1.0540   -0.8650 N   0  0  0  0  0  0  0  0  0  0  0  0
    0.2490   -0.3520   -1.4440 N   0  0  0  0  0  0  0  0  0  0  0  0
   -0.8210   -0.0890   -0.7420 C   0  0  0  0  0  0  0  0  0  0  0  0
   -1.8810    0.6110   -1.2800 C   0  0  0  0  0  0  0  0  0  0  0  0
   -3.0230    0.9040   -0.5660 C   0  0  0  0  0  0  0  0  0  0  0  0
   -3.1260    0.4850    0.7480 C   0  0  0  0  0  0  0  0  0  0  0  0
   -2.0580   -0.2150    1.2730 C   0  0  0  0  0  0  0  0  0  0  0  0
   -0.9470   -0.4850    0.5380 N   0  0  0  0  0  0  0  0  0  0  0  0
   -4.2730    0.7780    1.4680 O   0  0  0  0  0  0  0  0  0  0  0  0
   -5.3250    1.4750    0.9290 O   0  0  0  0  0  0  0  0  0  0  0  0
   -5.2870    1.9250   -0.3840 C   0  0  0  0  0  0  0  0  0  0  0  0
   -6.2630    2.5620   -0.8580 O   0  0  0  0  0  0  0  0  0  0  0  0
   -4.1140    1.6300   -1.1340 N   0  0  0  0  0  0  0  0  0  0  0  0
    2.4590   -0.4920   -0.4290 O   0  0  0  0  0  0  0  0  0  0  0  0
    2.5330    0.8100    0.0670 C   0  0  0  0  0  0  0  0  0  0  0  0
    1.4830    1.4720    0.1080 O   0  0  0  0  0  0  0  0  0  0  0  0
    3.7380    1.3890    0.5150 N   0  0  0  0  0  0  0  0  0  0  0  0
    3.7610    2.7450    1.0210 C   0  0  0  0  0  0  0  0  0  0  0  0
    3.3330    3.6710    0.0660 O   0  0  0  0  0  0  0  0  0  0  0  0
  1  2  2  0
  2  3  1  0
  2  4  1  0
  4  5  2  3
  5  6  1  0
  6  7  1  0
  6 19  1  0
  7  8  2  3
  8  9  1  0
  8 13  1  0
  9 10  2  0
 10 11  1  0
 10 18  1  0
 11 12  2  0
 11 14  1  0
 12 13  1  0
 14 15  1  0
 15 16  1  0
 16 17  2  0
 16 18  1  0
 19 20  1  0
 20 21  2  0
 20 22  1  0
 22 23  1  0
 23 24  1  0
M  END
