
     RDKit          3D

 24 24  0  0  0  0  0  0  0  0999 V2000
    2.6790    0.7890   -0.6260 O   0  0  0  0  0  0  0  0  0  0  0  0
    3.1440   -0.2220    0.0560 C   0  0  0  0  0  0  0  0  0  0  0  0
    4.4210   -0.3340    0.5010 N   0  0  0  0  0  0  0  0  0  0  0  0
    5.3740    0.7260    0.2700 C   0  0  0  0  0  0  0  0  0  0  0  0
    4.8850    1.9790    0.9480 C   0  0  0  0  0  0  0  0  0  0  0  0
    4.7680    1.7150    2.3120 O   0  0  0  0  0  0  0  0  0  0  0  0
    4.3460    2.7500    2.9900 O   0  0  0  0  0  0  0  0  0  0  0  0
    2.1090   -1.1370    0.2500 N   0  0  0  0  0  0  0  0  0  0  0  0
    0.8860   -0.9910   -0.4780 C   0  0  0  0  0  0  0  0  0  0  0  0
   -0.0160   -0.9000    0.4050 N   0  0  0  0  0  0  0  0  0  0  0  0
   -1.3700   -0.7610    0.0480 C   0  0  0  0  0  0  0  0  0  0  0  0
   -2.2130   -0.4810    1.0290 C   0  0  0  0  0  0  0  0  0  0  0  0
   -3.6110   -0.2850    0.9520 C   0  0  0  0  0  0  0  0  0  0  0  0
   -4.2390    0.0100    2.1370 C   0  0  0  0  0  0  0  0  0  0  0  0
   -5.5820    0.2200    2.1880 O   0  0  0  0  0  0  0  0  0  0  0  0
   -4.4760   -0.3610   -0.1710 C   0  0  0  0  0  0  0  0  0  0  0  0
   -5.7420   -0.1390   -0.0250 O   0  0  0  0  0  0  0  0  0  0  0  0
   -4.0990   -0.6570   -1.4420 O   0  0  0  0  0  0  0  0  0  0  0  0
   -4.9540   -0.7290   -2.5290 C   0  0  0  0  0  0  0  0  0  0  0  0
   -6.1820   -0.5060   -2.3520 O   0  0  0  0  0  0  0  0  0  0  0  0
   -4.5370   -1.0340   -3.8160 O   0  0  0  0  0  0  0  0  0  0  0  0
   -1.6800   -0.7810   -1.3270 N   0  0  0  0  0  0  0  0  0  0  0  0
   -0.8060   -0.9130   -2.2550 C   0  0  0  0  0  0  0  0  0  0  0  0
    0.5440   -1.0240   -1.8330 N   0  0  0  0  0  0  0  0  0  0  0  0
  1  2  2  0
  2  3  1  0
  2  8  1  0
  3  4  1  0
  4  5  1  0
  5  6  1  0
  6  7  1  0
  8  9  1  0
  9 10  2  0
  9 24  1  0
 10 11  1  0
 11 12  2  3
 11 22  1  0
 12 13  1  0
 13 14  2  3
 13 16  1  0
 14 15  1  0
 16 17  2  0
 16 18  1  0
 18 19  1  0
 19 20  2  0
 19 21  1  0
 22 23  2  0
 23 24  1  0
M  END
