
     RDKit          3D

 23 24  0  0  0  0  0  0  0  0999 V2000
   -2.7650    2.6190    1.0870 N   0  0  0  0  0  0  0  0  0  0  0  0
   -1.7270    1.6910    1.4560 C   0  0  0  0  0  0  0  0  0  0  0  0
   -0.6330    2.2560    1.7260 O   0  0  0  0  0  0  0  0  0  0  0  0
   -1.9750    0.2480    1.4980 C   0  0  1  0  0  0  0  0  0  0  0  0
   -2.6390   -0.2980    0.2650 C   0  0  0  0  0  0  0  0  0  0  0  0
   -1.8410   -0.1980   -0.9830 C   0  0  0  0  0  0  0  0  0  0  0  0
   -1.7440   -1.5240   -1.6940 C   0  0  0  0  0  0  0  0  0  0  0  0
   -2.7860   -1.9890   -2.2740 O   0  0  0  0  0  0  0  0  0  0  0  0
   -0.5240   -2.1820   -1.6890 O   0  0  0  0  0  0  0  0  0  0  0  0
    0.1900   -2.2140   -0.5520 O   0  0  0  0  0  0  0  0  0  0  0  0
    1.5360   -2.2230   -0.3500 C   0  0  0  0  0  0  0  0  0  0  0  0
    2.2400   -3.2450   -0.0100 O   0  0  0  0  0  0  0  0  0  0  0  0
    2.3070   -1.0350   -0.5090 N   0  0  0  0  0  0  0  0  0  0  0  0
    3.5990   -0.8520   -1.1920 C   0  0  0  0  0  0  0  0  0  0  0  0
    3.3000    0.4700   -1.8390 C   0  0  0  0  0  0  0  0  0  0  0  0
    3.6250    0.8120   -2.9820 O   0  0  0  0  0  0  0  0  0  0  0  0
    2.5840    1.2110   -0.8700 N   0  0  0  0  0  0  0  0  0  0  0  0
    2.5520    2.5500   -0.8260 O   0  0  0  0  0  0  0  0  0  0  0  0
    1.9470    0.2420   -0.0110 C   0  0  0  0  0  0  0  0  0  0  0  0
    1.2220    0.4880    0.9930 N   0  0  0  0  0  0  0  0  0  0  0  0
    0.5260   -0.2020    1.9580 C   0  0  0  0  0  0  0  0  0  0  0  0
    1.0180   -0.6360    3.0860 O   0  0  0  0  0  0  0  0  0  0  0  0
   -0.8670   -0.5530    1.8730 N   0  0  0  0  0  0  0  0  0  0  0  0
  1  2  1  0
  2  3  2  0
  4  2  1  6
  4  5  1  0
  4 23  1  0
  5  6  1  0
  6  7  1  0
  7  8  2  0
  7  9  1  0
  9 10  1  0
 10 11  1  0
 11 12  2  0
 11 13  1  0
 13 14  1  0
 13 19  1  0
 14 15  1  0
 15 16  2  0
 15 17  1  0
 17 18  1  0
 17 19  1  0
 19 20  2  0
 20 21  1  0
 21 22  2  0
 21 23  1  0
M  END
