
     RDKit          3D

 24 25  0  0  0  0  0  0  0  0999 V2000
   -2.0230    0.8840    2.5240 O   0  0  0  0  0  0  0  0  0  0  0  0
   -1.8380    1.2700    1.3140 C   0  0  0  0  0  0  0  0  0  0  0  0
   -2.7530    0.6980    0.3310 C   0  0  0  0  0  0  0  0  0  0  0  0
   -2.3150    0.5930   -0.9570 O   0  0  0  0  0  0  0  0  0  0  0  0
   -2.1630   -0.7030   -1.3560 O   0  0  0  0  0  0  0  0  0  0  0  0
   -1.4490   -1.5960   -0.5360 C   0  0  0  0  0  0  0  0  0  0  0  0
   -1.4690   -2.9270   -0.6850 N   0  0  0  0  0  0  0  0  0  0  0  0
   -0.7350   -3.7030    0.1730 C   0  0  0  0  0  0  0  0  0  0  0  0
   -0.0220   -3.1110    1.1320 N   0  0  0  0  0  0  0  0  0  0  0  0
   -0.0050   -1.7610    1.2800 C   0  0  0  0  0  0  0  0  0  0  0  0
   -0.7300   -1.0630    0.4250 N   0  0  0  0  0  0  0  0  0  0  0  0
    0.7440   -1.1280    2.3110 N   0  0  0  0  0  0  0  0  0  0  0  0
    1.7590   -0.1610    2.2220 C   0  0  0  0  0  0  0  0  0  0  0  0
    2.1700    0.5570    1.2080 C   0  0  0  0  0  0  0  0  0  0  0  0
    1.7680    0.6540   -0.1760 C   0  0  0  0  0  0  0  0  0  0  0  0
    0.8430    1.4140   -0.7440 C   0  0  0  0  0  0  0  0  0  0  0  0
    0.6800    1.2640   -2.2210 C   0  0  0  0  0  0  0  0  0  0  0  0
   -0.1730    1.9470   -2.8610 O   0  0  0  0  0  0  0  0  0  0  0  0
    1.4520    0.3750   -2.9420 O   0  0  0  0  0  0  0  0  0  0  0  0
    1.3560    0.1960   -4.2530 O   0  0  0  0  0  0  0  0  0  0  0  0
    2.5620    0.0990   -4.8110 O   0  0  0  0  0  0  0  0  0  0  0  0
   -0.0160    2.3860   -0.0490 C   0  0  0  0  0  0  0  0  0  0  0  0
   -0.0620    3.5490   -0.5990 O   0  0  0  0  0  0  0  0  0  0  0  0
   -0.7750    2.1880    1.1300 N   0  0  0  0  0  0  0  0  0  0  0  0
  1  2  2  0
  2  3  1  0
  2 24  1  0
  3  4  1  0
  4  5  1  0
  5  6  1  0
  6  7  1  0
  6 11  2  0
  7  8  2  0
  8  9  1  0
  9 10  2  0
 10 11  1  0
 10 12  1  0
 12 13  1  0
 13 14  2  0
 14 15  1  0
 15 16  2  0
 16 17  1  0
 16 22  1  0
 17 18  2  0
 17 19  1  0
 19 20  1  0
 20 21  1  0
 22 23  2  0
 22 24  1  0
M  END
