
     RDKit          3D

 21 23  0  0  0  0  0  0  0  0999 V2000
   -3.6830    0.7220    0.4050 O   0  0  0  0  0  0  0  0  0  0  0  0
   -2.5030    1.1960    0.6720 C   0  0  0  0  0  0  0  0  0  0  0  0
   -2.5610    2.6230    0.6450 N   0  0  0  0  0  0  0  0  0  0  0  0
   -1.3490    3.3920    0.3090 C   0  0  0  0  0  0  0  0  0  0  0  0
   -0.5730    2.6970   -0.8040 C   0  0  0  0  0  0  0  0  0  0  0  0
    0.7340    2.5290   -0.3730 O   0  0  0  0  0  0  0  0  0  0  0  0
    1.5450    1.3910   -1.4020 P   0  0  0  0  0  0  0  0  0  0  0  0
    3.0870    2.0410   -1.8230 O   0  0  0  0  0  0  0  0  0  0  0  0
    1.6450   -0.1700   -0.7020 O   0  0  0  0  0  0  0  0  0  0  0  0
    2.8480   -0.4550   -0.1050 C   0  0  0  0  0  0  0  0  0  0  0  0
    2.9050   -1.9400    0.1770 C   0  0  0  0  0  0  0  0  0  0  0  0
    1.6320   -2.4830    0.5810 N   0  0  0  0  0  0  0  0  0  0  0  0
    0.5380   -1.7240    1.0380 C   0  0  0  0  0  0  0  0  0  0  0  0
    0.6660   -0.6670    1.7380 N   0  0  0  0  0  0  0  0  0  0  0  0
   -0.2550    0.4270    1.7510 N   0  0  0  0  0  0  0  0  0  0  0  0
   -1.3720    0.3240    0.9390 C   0  0  0  0  0  0  0  0  0  0  0  0
   -1.4650   -0.8300    0.2120 C   0  0  0  0  0  0  0  0  0  0  0  0
   -2.0670   -1.2150   -1.0810 C   0  0  0  0  0  0  0  0  0  0  0  0
   -2.2250   -2.6020   -0.9650 O   0  0  0  0  0  0  0  0  0  0  0  0
   -0.9920   -3.0320   -0.4290 C   0  0  0  0  0  0  0  0  0  0  0  0
   -0.8540   -2.1180    0.7210 C   0  0  1  0  0  0  0  0  0  0  0  0
  1  2  2  0
  2  3  1  0
  2 16  1  0
  3  4  1  0
  4  5  1  0
  5  6  1  0
  6  7  1  0
  7  8  1  0
  7  9  1  0
  9 10  1  0
 10 11  1  0
 11 12  1  0
 12 13  1  0
 13 14  2  0
 13 21  1  0
 14 15  1  0
 15 16  1  0
 16 17  2  0
 17 18  1  0
 17 21  1  0
 18 19  1  0
 19 20  1  0
 21 20  1  6
M  END
