
     RDKit          3D

 12 11  0  0  0  0  0  0  0  0999 V2000
    3.9210    1.4200    0.3990 O   0  0  0  0  0  0  0  0  0  0  0  0
    3.2010    0.2110    0.4020 C   0  0  0  0  0  0  0  0  0  0  0  0
    2.3010    0.2000   -0.8210 C   0  0  0  0  0  0  0  0  0  0  0  0
    1.5520   -0.9230   -0.9300 O   0  0  0  0  0  0  0  0  0  0  0  0
    0.6970   -1.2040    0.0630 C   0  0  0  0  0  0  0  0  0  0  0  0
   -0.3280   -0.3890    0.4030 O   0  0  0  0  0  0  0  0  0  0  0  0
   -1.2890   -0.1170   -0.5220 C   0  0  2  0  0  0  0  0  0  0  0  0
   -1.7160    1.3080   -0.4920 C   0  0  0  0  0  0  0  0  0  0  0  0
   -0.6940    2.1820   -0.7570 O   0  0  0  0  0  0  0  0  0  0  0  0
   -2.5730   -0.8850   -0.0100 C   0  0  2  0  0  0  0  0  0  0  0  0
   -2.8550   -0.3680    1.2280 O   0  0  0  0  0  0  0  0  0  0  0  0
   -2.3540   -2.2390   -0.0530 O   0  0  0  0  0  0  0  0  0  0  0  0
  1  2  1  0
  2  3  1  0
  3  4  1  0
  4  5  1  0
  5  6  1  0
  6  7  1  0
  7  8  1  1
  7 10  1  0
  8  9  1  0
 10 11  1  1
 10 12  1  0
M  END
