
     RDKit          3D

 12 11  0  0  0  0  0  0  0  0999 V2000
    4.3080    1.3390    0.2220 O   0  0  0  0  0  0  0  0  0  0  0  0
    3.3970    0.5700   -0.5190 C   0  0  0  0  0  0  0  0  0  0  0  0
    2.1770    0.3620    0.3570 C   0  0  0  0  0  0  0  0  0  0  0  0
    1.2630   -0.3900   -0.3410 O   0  0  0  0  0  0  0  0  0  0  0  0
    0.1210   -0.6050    0.4350 C   0  0  2  0  0  0  0  0  0  0  0  0
   -0.0440   -2.0900    0.6850 C   0  0  0  0  0  0  0  0  0  0  0  0
    1.0780   -2.5690    1.3590 O   0  0  0  0  0  0  0  0  0  0  0  0
   -0.9810   -0.1060   -0.2450 O   0  0  0  0  0  0  0  0  0  0  0  0
   -1.5690    0.8750    0.5470 C   0  0  0  0  0  0  0  0  0  0  0  0
   -2.6900    1.4350   -0.0590 O   0  0  0  0  0  0  0  0  0  0  0  0
   -3.6290    0.4410   -0.2890 C   0  0  0  0  0  0  0  0  0  0  0  0
   -4.7510    1.0120   -0.8990 O   0  0  0  0  0  0  0  0  0  0  0  0
  1  2  1  0
  2  3  1  0
  3  4  1  0
  4  5  1  0
  5  6  1  6
  5  8  1  0
  6  7  1  0
  8  9  1  0
  9 10  1  0
 10 11  1  0
 11 12  1  0
M  END
