
     RDKit          3D

 12 11  0  0  0  0  0  0  0  0999 V2000
    3.3740    1.7220    1.1600 O   0  0  0  0  0  0  0  0  0  0  0  0
    3.4210    0.3310    1.1010 C   0  0  0  0  0  0  0  0  0  0  0  0
    2.7000   -0.1580   -0.1410 C   0  0  2  0  0  0  0  0  0  0  0  0
    3.2950    0.3560   -1.2880 O   0  0  0  0  0  0  0  0  0  0  0  0
    1.2240    0.1600   -0.0730 C   0  0  0  0  0  0  0  0  0  0  0  0
    0.7280   -0.3880    1.0900 O   0  0  0  0  0  0  0  0  0  0  0  0
   -0.6230   -0.1680    1.2760 C   0  0  0  0  0  0  0  0  0  0  0  0
   -1.2900   -0.7480    0.1930 O   0  0  0  0  0  0  0  0  0  0  0  0
   -2.6650   -0.5920    0.2670 C   0  0  2  0  0  0  0  0  0  0  0  0
   -3.2290   -1.8660    0.2440 O   0  0  0  0  0  0  0  0  0  0  0  0
   -3.2190    0.1760   -0.9000 C   0  0  0  0  0  0  0  0  0  0  0  0
   -2.9380   -0.4830   -2.0950 O   0  0  0  0  0  0  0  0  0  0  0  0
  1  2  1  0
  2  3  1  0
  3  4  1  6
  3  5  1  0
  5  6  1  0
  6  7  1  0
  7  8  1  0
  8  9  1  0
  9 10  1  6
  9 11  1  0
 11 12  1  0
M  END
