
     RDKit          3D

 12 11  0  0  0  0  0  0  0  0999 V2000
    5.3820   -0.3240   -0.9280 O   0  0  0  0  0  0  0  0  0  0  0  0
    4.1940   -0.7260   -0.3570 C   0  0  0  0  0  0  0  0  0  0  0  0
    3.2710    0.3020   -0.5130 O   0  0  0  0  0  0  0  0  0  0  0  0
    2.0510   -0.0800    0.0590 C   0  0  0  0  0  0  0  0  0  0  0  0
    1.0710    1.0360   -0.1180 C   0  0  0  0  0  0  0  0  0  0  0  0
   -0.1360    0.7080    0.4330 O   0  0  0  0  0  0  0  0  0  0  0  0
   -0.7560   -0.4130   -0.0960 C   0  0  0  0  0  0  0  0  0  0  0  0
   -1.9590   -0.5490    0.6050 O   0  0  0  0  0  0  0  0  0  0  0  0
   -2.7700    0.5730    0.4480 C   0  0  2  0  0  0  0  0  0  0  0  0
   -2.9400    1.1570    1.7060 O   0  0  0  0  0  0  0  0  0  0  0  0
   -4.0940    0.0740   -0.1040 C   0  0  0  0  0  0  0  0  0  0  0  0
   -3.8150   -0.5470   -1.3210 O   0  0  0  0  0  0  0  0  0  0  0  0
  1  2  1  0
  2  3  1  0
  3  4  1  0
  4  5  1  0
  5  6  1  0
  6  7  1  0
  7  8  1  0
  8  9  1  0
  9 10  1  1
  9 11  1  0
 11 12  1  0
M  END
