
     RDKit          3D

 19 21  0  0  0  0  0  0  0  0999 V2000
   -4.7030   -1.0780   -0.7750 N   0  0  0  0  0  0  0  0  0  0  0  0
   -3.5230   -0.6130   -0.1270 C   0  0  1  0  0  0  0  0  0  0  0  0
   -2.6350   -1.7490    0.3710 C   0  0  0  0  0  0  0  0  0  0  0  0
   -1.2470   -1.0980    0.4130 C   0  0  0  0  0  0  0  0  0  0  0  0
   -1.3870    0.1650   -0.2590 N   0  0  0  0  0  0  0  0  0  0  0  0
   -0.5580    1.2960   -0.1240 C   0  0  0  0  0  0  0  0  0  0  0  0
   -1.0730    2.4680   -0.3910 N   0  0  0  0  0  0  0  0  0  0  0  0
   -0.5310    3.7550   -0.3560 N   0  0  0  0  0  0  0  0  0  0  0  0
    0.5820    4.1860    0.4070 C   0  0  0  0  0  0  0  0  0  0  0  0
    1.5750    3.4240    0.8930 C   0  0  0  0  0  0  0  0  0  0  0  0
    1.7110    1.9760    0.7320 C   0  0  0  0  0  0  0  0  0  0  0  0
    0.8380    1.0750    0.3110 C   0  0  0  0  0  0  0  0  0  0  0  0
    1.2400   -0.2410    0.2570 O   0  0  0  0  0  0  0  0  0  0  0  0
    2.5660   -0.6810    0.3280 C   0  0  1  0  0  0  0  0  0  0  0  0
    2.5470   -2.2130    0.2290 C   0  0  0  0  0  0  0  0  0  0  0  0
    3.8780   -2.4770   -0.4130 C   0  0  0  0  0  0  0  0  0  0  0  0
    4.2500   -1.3770   -1.1290 O   0  0  0  0  0  0  0  0  0  0  0  0
    3.3760   -0.3500   -0.9040 C   0  0  0  0  0  0  0  0  0  0  0  0
   -2.5470    0.0550   -1.1050 C   0  0  0  0  0  0  0  0  0  0  0  0
  2  1  1  6
  2  3  1  0
  2 19  1  0
  3  4  1  0
  4  5  1  0
  5  6  1  0
  5 19  1  0
  6  7  2  0
  6 12  1  0
  7  8  1  0
  8  9  1  0
  9 10  2  0
 10 11  1  0
 11 12  2  0
 12 13  1  0
 14 13  1  6
 14 15  1  0
 14 18  1  0
 15 16  1  0
 16 17  1  0
 17 18  1  0
M  CHG  1   1   1
M  END
