
     RDKit          3D

 12 11  0  0  0  0  0  0  0  0999 V2000
   -5.1630   -0.1140   -0.0820 O   0  0  0  0  0  0  0  0  0  0  0  0
   -3.8600   -0.3330    0.3390 C   0  0  0  0  0  0  0  0  0  0  0  0
   -2.9240    0.2350   -0.5270 O   0  0  0  0  0  0  0  0  0  0  0  0
   -1.6620   -0.0450   -0.0100 C   0  0  0  0  0  0  0  0  0  0  0  0
   -0.5630    0.5310   -0.8800 C   0  0  1  0  0  0  0  0  0  0  0  0
   -0.6560    1.9040   -0.9960 O   0  0  0  0  0  0  0  0  0  0  0  0
    0.6660    0.2450   -0.2920 O   0  0  0  0  0  0  0  0  0  0  0  0
    1.4530   -0.5400   -1.1000 C   0  0  0  0  0  0  0  0  0  0  0  0
    2.7630   -0.8220   -0.4280 C   0  0  2  0  0  0  0  0  0  0  0  0
    2.5530   -1.4790    0.7600 O   0  0  0  0  0  0  0  0  0  0  0  0
    3.4830    0.5030   -0.2000 C   0  0  0  0  0  0  0  0  0  0  0  0
    2.7190    1.3250    0.6300 O   0  0  0  0  0  0  0  0  0  0  0  0
  1  2  1  0
  2  3  1  0
  3  4  1  0
  4  5  1  0
  5  6  1  1
  5  7  1  0
  7  8  1  0
  8  9  1  0
  9 10  1  1
  9 11  1  0
 11 12  1  0
M  END
