
     RDKit          3D

 33 37  0  0  0  0  0  0  0  0999 V2000
   -6.5530    2.7320   -0.3210 C   0  0  0  0  0  0  0  0  0  0  0  0
   -5.3170    2.0400    0.2740 C   0  0  1  0  0  0  0  0  0  0  0  0
   -5.6830    0.6240    0.5050 C   0  0  0  0  0  0  0  0  0  0  0  0
   -4.1870    2.2970   -0.5550 N   0  0  2  0  0  0  0  0  0  0  0  0
   -3.9920    1.4270   -1.6560 C   0  0  0  0  0  0  0  0  0  0  0  0
   -3.1800    0.2270   -1.4650 C   0  0  0  0  0  0  0  0  0  0  0  0
   -2.5240    0.0070   -0.1360 C   0  0  1  0  0  0  0  0  0  0  0  0
   -1.1650   -0.5600   -0.3150 N   0  0  0  0  0  0  0  0  0  0  0  0
   -0.8200   -1.8340    0.1330 C   0  0  0  0  0  0  0  0  0  0  0  0
   -1.8040   -2.4500    0.7160 O   0  0  0  0  0  0  0  0  0  0  0  0
    0.4500   -2.5210    0.0320 C   0  0  0  0  0  0  0  0  0  0  0  0
    0.6380   -3.7730    0.6650 C   0  0  0  0  0  0  0  0  0  0  0  0
    1.9190   -4.1980    0.3940 C   0  0  0  0  0  0  0  0  0  0  0  0
    2.6300   -5.3260    0.7490 C   0  0  0  0  0  0  0  0  0  0  0  0
    3.9200   -5.4890    0.3290 C   0  0  0  0  0  0  0  0  0  0  0  0
    4.5050   -4.5140   -0.4550 C   0  0  0  0  0  0  0  0  0  0  0  0
    3.7650   -3.3810   -0.8010 C   0  0  0  0  0  0  0  0  0  0  0  0
    2.4680   -3.2070   -0.3840 C   0  0  0  0  0  0  0  0  0  0  0  0
    1.5660   -2.2000   -0.5930 N   0  0  0  0  0  0  0  0  0  0  0  0
    1.8740   -1.0490   -1.3810 C   0  0  0  0  0  0  0  0  0  0  0  0
    2.4840    0.0560   -0.6070 C   0  0  0  0  0  0  0  0  0  0  0  0
    3.8460    0.2650   -0.3570 C   0  0  0  0  0  0  0  0  0  0  0  0
    3.9650    1.3940    0.3910 C   0  0  0  0  0  0  0  0  0  0  0  0
    5.2110    2.0140    0.9000 C   0  0  0  0  0  0  0  0  0  0  0  0
    5.3990    3.1050    1.6290 C   0  0  0  0  0  0  0  0  0  0  0  0
    6.6420    3.4860    1.9810 C   0  0  0  0  0  0  0  0  0  0  0  0
    7.6830    2.6860    1.5450 C   0  0  0  0  0  0  0  0  0  0  0  0
    9.4270    2.8420    1.7920 Cl  0  0  0  0  0  0  0  0  0  0  0  0
    6.8340    1.3990    0.6330 S   0  0  0  0  0  0  0  0  0  0  0  0
    2.7610    1.8570    0.5940 O   0  0  0  0  0  0  0  0  0  0  0  0
    1.8840    1.0700    0.0070 N   0  0  0  0  0  0  0  0  0  0  0  0
   -2.4170    1.1960    0.7420 C   0  0  0  0  0  0  0  0  0  0  0  0
   -2.9450    2.4670    0.1800 C   0  0  0  0  0  0  0  0  0  0  0  0
  2  1  1  6
  2  3  1  0
  2  4  1  0
  4  5  1  6
  4 33  1  0
  5  6  1  0
  6  7  1  0
  7  8  1  6
  7 32  1  0
  8  9  1  0
  9 10  2  0
  9 11  1  0
 11 12  2  0
 11 19  1  0
 12 13  1  0
 13 14  2  0
 13 18  1  0
 14 15  1  0
 15 16  2  0
 16 17  1  0
 17 18  2  0
 18 19  1  0
 19 20  1  0
 20 21  1  0
 21 22  1  0
 21 31  2  0
 22 23  2  0
 23 24  1  0
 23 30  1  0
 24 25  2  0
 24 29  1  0
 25 26  1  0
 26 27  2  0
 27 28  1  0
 27 29  1  0
 30 31  1  0
 32 33  1  0
M  CHG  1   4   1
M  END
