
     RDKit          3D

 32 36  0  0  0  0  0  0  0  0999 V2000
   -5.2370   -0.3540   -2.8590 C   0  0  0  0  0  0  0  0  0  0  0  0
   -5.3950   -1.1960   -1.8620 C   0  0  0  0  0  0  0  0  0  0  0  0
   -5.6530   -0.7720   -0.5110 C   0  0  0  0  0  0  0  0  0  0  0  0
   -4.8510    0.1380    0.1120 C   0  0  0  0  0  0  0  0  0  0  0  0
   -3.5910    0.6610   -0.4570 C   0  0  0  0  0  0  0  0  0  0  0  0
   -2.8020    1.6440    0.1080 C   0  0  0  0  0  0  0  0  0  0  0  0
   -1.7250    1.8550   -0.7110 C   0  0  0  0  0  0  0  0  0  0  0  0
   -1.8850    0.9690   -1.7920 C   0  0  0  0  0  0  0  0  0  0  0  0
   -0.9670    0.8460   -2.9160 C   0  0  0  0  0  0  0  0  0  0  0  0
    0.2850    0.6090   -2.8730 C   0  0  0  0  0  0  0  0  0  0  0  0
    1.1270    0.5410   -4.4450 Cl  0  0  0  0  0  0  0  0  0  0  0  0
    1.0990    0.2480   -1.7320 C   0  0  0  0  0  0  0  0  0  0  0  0
    0.6170   -0.1980   -0.5250 C   0  0  0  0  0  0  0  0  0  0  0  0
    1.4620   -0.4460    0.5090 C   0  0  0  0  0  0  0  0  0  0  0  0
    2.8180   -0.2650    0.3900 C   0  0  0  0  0  0  0  0  0  0  0  0
    3.8790   -0.4240    1.2170 N   0  0  0  0  0  0  0  0  0  0  0  0
    5.0090   -0.1040    0.5900 C   0  0  0  0  0  0  0  0  0  0  0  0
    6.3850   -0.1490    1.1720 C   0  0  2  0  0  0  0  0  0  0  0  0
    7.0640    1.1880    1.0860 C   0  0  0  0  0  0  0  0  0  0  0  0
    8.5160    0.8350    1.2480 C   0  0  0  0  0  0  0  0  0  0  0  0
    8.6300   -0.4240    0.4140 C   0  0  0  0  0  0  0  0  0  0  0  0
    7.2730   -1.0460    0.3680 C   0  0  0  0  0  0  0  0  0  0  0  0
    4.6930    0.2800   -0.6910 C   0  0  0  0  0  0  0  0  0  0  0  0
    3.2960    0.1780   -0.8210 C   0  0  0  0  0  0  0  0  0  0  0  0
    2.4580    0.4180   -1.8240 N   0  0  0  0  0  0  0  0  0  0  0  0
   -2.9820    0.3300   -1.5550 O   0  0  0  0  0  0  0  0  0  0  0  0
   -5.2170    0.5460    1.3980 C   0  0  0  0  0  0  0  0  0  0  0  0
   -6.3540    0.0270    1.9900 C   0  0  0  0  0  0  0  0  0  0  0  0
   -6.7390    0.4620    3.3520 C   0  0  0  0  0  0  0  0  0  0  0  0
   -7.0900   -0.8580    1.3260 N   0  0  0  0  0  0  0  0  0  0  0  0
   -6.8020   -1.2940    0.0940 C   0  0  0  0  0  0  0  0  0  0  0  0
   -7.6480   -2.2930   -0.6360 C   0  0  0  0  0  0  0  0  0  0  0  0
  1  2  2  0
  2  3  1  0
  3  4  2  0
  3 31  1  0
  4  5  1  0
  4 27  1  0
  5  6  2  0
  5 26  1  0
  6  7  1  0
  7  8  2  0
  8  9  1  0
  8 26  1  0
  9 10  2  3
 10 11  1  0
 10 12  1  0
 12 13  2  0
 12 25  1  0
 13 14  1  0
 14 15  2  0
 15 16  1  0
 15 24  1  0
 16 17  1  0
 18 17  1  6
 17 23  2  0
 18 19  1  0
 18 22  1  0
 19 20  1  0
 20 21  1  0
 21 22  1  0
 23 24  1  0
 24 25  2  0
 27 28  2  0
 28 29  1  0
 28 30  1  0
 30 31  2  0
 31 32  1  0
M  END
