
     RDKit          3D

 32 36  0  0  0  0  0  0  0  0999 V2000
    7.6040    1.4100   -2.3830 C   0  0  0  0  0  0  0  0  0  0  0  0
    6.9740    1.5960   -0.9970 C   0  0  0  0  0  0  0  0  0  0  0  0
    6.0050    0.5370   -0.8150 N   0  0  0  0  0  0  0  0  0  0  0  0
    4.6480    0.9340   -0.7970 C   0  0  0  0  0  0  0  0  0  0  0  0
    3.6140    0.4720   -0.0800 C   0  0  0  0  0  0  0  0  0  0  0  0
    2.3630    1.1450   -0.3500 C   0  0  0  0  0  0  0  0  0  0  0  0
    2.3140    2.0900   -1.1990 O   0  0  0  0  0  0  0  0  0  0  0  0
    1.1820    0.8030    0.2890 N   0  0  0  0  0  0  0  0  0  0  0  0
   -0.1090    1.3830    0.1280 C   0  0  0  0  0  0  0  0  0  0  0  0
   -0.3300    2.5950   -0.4690 C   0  0  0  0  0  0  0  0  0  0  0  0
   -1.6390    3.0960   -0.6130 C   0  0  0  0  0  0  0  0  0  0  0  0
   -2.7200    2.3720   -0.1530 C   0  0  0  0  0  0  0  0  0  0  0  0
   -2.5150    1.1510    0.4500 C   0  0  0  0  0  0  0  0  0  0  0  0
   -3.6980    0.4450    0.8880 N   0  0  0  0  0  0  0  0  0  0  0  0
   -3.5650   -0.2950    2.0970 C   0  0  0  0  0  0  0  0  0  0  0  0
   -4.5300   -1.4510    2.1310 C   0  0  0  0  0  0  0  0  0  0  0  0
   -5.9100   -0.8340    1.9910 C   0  0  0  0  0  0  0  0  0  0  0  0
   -6.0090   -0.3750    0.5480 C   0  0  2  0  0  0  0  0  0  0  0  0
   -6.2670   -1.5940   -0.2990 C   0  0  0  0  0  0  0  0  0  0  0  0
   -6.5740   -1.0330   -1.6990 C   0  0  0  0  0  0  0  0  0  0  0  0
   -5.1980   -0.5480   -2.1740 C   0  0  0  0  0  0  0  0  0  0  0  0
   -4.6670    0.5600   -1.3490 C   0  0  0  0  0  0  0  0  0  0  0  0
   -4.9170    0.5130    0.1280 C   0  0  2  0  0  0  0  0  0  0  0  0
   -1.2480    0.7030    0.5700 C   0  0  0  0  0  0  0  0  0  0  0  0
    3.7040   -0.5830    0.8960 C   0  0  0  0  0  0  0  0  0  0  0  0
    4.7360   -1.4340    1.0930 C   0  0  0  0  0  0  0  0  0  0  0  0
    4.7290   -2.4730    2.1160 C   0  0  0  0  0  0  0  0  0  0  0  0
    5.8750   -3.1230    2.0500 C   0  0  0  0  0  0  0  0  0  0  0  0
    6.3870   -4.4690    3.0560 Cl  0  0  0  0  0  0  0  0  0  0  0  0
    6.7070   -2.5690    0.9960 C   0  0  0  0  0  0  0  0  0  0  0  0
    6.0210   -1.5530    0.4200 C   0  0  0  0  0  0  0  0  0  0  0  0
    6.5640   -0.7740   -0.6990 C   0  0  0  0  0  0  0  0  0  0  0  0
  1  2  1  0
  2  3  1  0
  3  4  1  0
  3 32  1  0
  4  5  2  0
  5  6  1  0
  5 25  1  0
  6  7  2  0
  6  8  1  0
  8  9  1  0
  9 10  2  0
  9 24  1  0
 10 11  1  0
 11 12  2  0
 12 13  1  0
 13 14  1  0
 13 24  2  0
 14 15  1  0
 14 23  1  0
 15 16  1  0
 16 17  1  0
 18 17  1  1
 18 19  1  0
 18 23  1  0
 19 20  1  0
 20 21  1  0
 21 22  1  0
 23 22  1  6
 25 26  2  0
 26 27  1  0
 26 31  1  0
 27 28  2  0
 28 29  1  0
 28 30  1  0
 30 31  2  0
 31 32  1  0
M  END
