
     RDKit          3D

 32 36  0  0  0  0  0  0  0  0999 V2000
   -0.1290   -0.3780    1.8020 O   0  0  0  0  0  0  0  0  0  0  0  0
   -0.6310   -0.5640    0.6590 C   0  0  0  0  0  0  0  0  0  0  0  0
    0.2060   -0.4210   -0.4690 N   0  0  0  0  0  0  0  0  0  0  0  0
    1.5890   -0.1030   -0.3070 C   0  0  0  0  0  0  0  0  0  0  0  0
    2.3310   -0.5970    0.7650 C   0  0  0  0  0  0  0  0  0  0  0  0
    3.6680   -0.1980    0.8400 C   0  0  0  0  0  0  0  0  0  0  0  0
    4.2780    0.6320   -0.0590 C   0  0  0  0  0  0  0  0  0  0  0  0
    5.6770    1.0550    0.0260 C   0  0  0  0  0  0  0  0  0  0  0  0
    6.1920    1.9460   -0.8990 C   0  0  0  0  0  0  0  0  0  0  0  0
    7.5120    2.2980   -0.7920 C   0  0  0  0  0  0  0  0  0  0  0  0
    8.3160    1.7800    0.2110 C   0  0  0  0  0  0  0  0  0  0  0  0
    7.8160    0.8920    1.1380 C   0  0  0  0  0  0  0  0  0  0  0  0
    8.8200    0.2350    2.4010 Cl  0  0  0  0  0  0  0  0  0  0  0  0
    6.4700    0.5450    1.0150 C   0  0  0  0  0  0  0  0  0  0  0  0
    3.5180    1.0780   -1.0710 N   0  0  0  0  0  0  0  0  0  0  0  0
    2.2340    0.7260   -1.1890 C   0  0  0  0  0  0  0  0  0  0  0  0
   -2.0770   -0.9240    0.5330 C   0  0  2  0  0  0  0  0  0  0  0  0
   -2.3870   -1.7390   -0.6780 C   0  0  0  0  0  0  0  0  0  0  0  0
   -1.6040   -3.0260   -0.6220 C   0  0  0  0  0  0  0  0  0  0  0  0
   -0.7040   -3.4870   -1.4630 C   0  0  0  0  0  0  0  0  0  0  0  0
   -0.1790   -4.8090   -1.0130 C   0  0  0  0  0  0  0  0  0  0  0  0
   -0.9260   -5.0470    0.2370 C   0  0  0  0  0  0  0  0  0  0  0  0
   -1.7170   -4.0350    0.4350 C   0  0  0  0  0  0  0  0  0  0  0  0
   -2.8710    0.2260    0.7690 N   0  0  0  0  0  0  0  0  0  0  0  0
   -4.1550   -0.0490    1.3330 C   0  0  0  0  0  0  0  0  0  0  0  0
   -4.6570    1.2420    1.9950 C   0  0  0  0  0  0  0  0  0  0  0  0
   -4.8400    2.1860    0.8390 C   0  0  0  0  0  0  0  0  0  0  0  0
   -3.9450    2.1590   -0.1450 C   0  0  0  0  0  0  0  0  0  0  0  0
   -4.3470    3.1670   -1.1500 C   0  0  0  0  0  0  0  0  0  0  0  0
   -5.4440    3.7680   -0.7650 C   0  0  0  0  0  0  0  0  0  0  0  0
   -5.8560    3.2020    0.5300 C   0  0  0  0  0  0  0  0  0  0  0  0
   -2.7680    1.2620   -0.1790 C   0  0  0  0  0  0  0  0  0  0  0  0
  1  2  2  0
  2  3  1  0
  2 17  1  0
  3  4  1  0
  4  5  2  0
  4 16  1  0
  5  6  1  0
  6  7  2  0
  7  8  1  0
  7 15  1  0
  8  9  2  0
  8 14  1  0
  9 10  1  0
 10 11  2  0
 11 12  1  0
 12 13  1  0
 12 14  2  0
 15 16  2  0
 17 18  1  6
 17 24  1  0
 18 19  1  0
 19 20  2  0
 19 23  1  0
 20 21  1  0
 21 22  1  0
 22 23  2  0
 24 25  1  0
 24 32  1  0
 25 26  1  0
 26 27  1  0
 27 28  2  0
 27 31  1  0
 28 29  1  0
 28 32  1  0
 29 30  2  0
 30 31  1  0
M  END
