
     RDKit          3D

 32 36  0  0  0  0  0  0  0  0999 V2000
    5.7020    4.0630   -1.7030 C   0  0  0  0  0  0  0  0  0  0  0  0
    4.7610    2.9820   -1.2860 C   0  0  0  0  0  0  0  0  0  0  0  0
    4.1840    2.1290   -2.2070 C   0  0  0  0  0  0  0  0  0  0  0  0
    3.3190    1.1430   -1.7690 C   0  0  0  0  0  0  0  0  0  0  0  0
    2.9970    0.9660   -0.4220 C   0  0  0  0  0  0  0  0  0  0  0  0
    2.1360   -0.0230   -0.0100 C   0  0  0  0  0  0  0  0  0  0  0  0
    1.8370   -0.1800    1.2980 C   0  0  0  0  0  0  0  0  0  0  0  0
    0.9080   -1.2570    1.8120 C   0  0  2  0  0  0  0  0  0  0  0  0
    1.6650   -2.4440    2.2640 C   0  0  0  0  0  0  0  0  0  0  0  0
    1.9250   -3.5680    1.3940 C   0  0  0  0  0  0  0  0  0  0  0  0
    1.6980   -3.5100   -0.0640 C   0  0  0  0  0  0  0  0  0  0  0  0
    0.3230   -3.2400   -0.5240 C   0  0  0  0  0  0  0  0  0  0  0  0
   -0.6010   -2.6840    0.5190 C   0  0  0  0  0  0  0  0  0  0  0  0
   -0.2430   -1.4540    1.0520 N   0  0  0  0  0  0  0  0  0  0  0  0
   -0.8490   -0.3540    0.3870 C   0  0  0  0  0  0  0  0  0  0  0  0
   -2.3210   -0.2820    0.6050 C   0  0  0  0  0  0  0  0  0  0  0  0
   -3.1220   -0.3720   -0.3980 N   0  0  0  0  0  0  0  0  0  0  0  0
   -4.5490   -0.3220   -0.3560 C   0  0  2  0  0  0  0  0  0  0  0  0
   -5.1020    0.6880   -1.3190 C   0  0  0  0  0  0  0  0  0  0  0  0
   -4.6770    1.9660   -1.5430 C   0  0  0  0  0  0  0  0  0  0  0  0
   -5.4650    2.5480   -2.5140 C   0  0  0  0  0  0  0  0  0  0  0  0
   -5.2890    4.1850   -3.1260 Cl  0  0  0  0  0  0  0  0  0  0  0  0
   -6.3790    1.5920   -2.8720 C   0  0  0  0  0  0  0  0  0  0  0  0
   -6.1440    0.4930   -2.1490 N   0  0  0  0  0  0  0  0  0  0  0  0
   -5.1130   -0.1470    1.0050 C   0  0  0  0  0  0  0  0  0  0  0  0
   -4.3270   -0.0500    2.0580 C   0  0  0  0  0  0  0  0  0  0  0  0
   -2.8890   -0.1100    1.9320 C   0  0  0  0  0  0  0  0  0  0  0  0
   -2.1080   -0.0200    2.9300 O   0  0  0  0  0  0  0  0  0  0  0  0
    2.4210    0.6800    2.2130 C   0  0  0  0  0  0  0  0  0  0  0  0
    3.2820    1.6640    1.7830 C   0  0  0  0  0  0  0  0  0  0  0  0
    3.6010    1.8440    0.4530 C   0  0  0  0  0  0  0  0  0  0  0  0
    4.4690    2.8390    0.0510 C   0  0  0  0  0  0  0  0  0  0  0  0
  1  2  1  0
  2  3  2  0
  2 32  1  0
  3  4  1  0
  4  5  2  0
  5  6  1  0
  5 31  1  0
  6  7  2  0
  8  7  1  6
  7 29  1  0
  8  9  1  0
  8 14  1  0
  9 10  1  0
 10 11  1  0
 11 12  1  0
 12 13  1  0
 13 14  1  0
 14 15  1  0
 15 16  1  0
 16 17  2  0
 16 27  1  0
 17 18  1  0
 18 19  1  6
 18 25  1  0
 19 20  2  0
 19 24  1  0
 20 21  1  0
 21 22  1  0
 21 23  2  0
 23 24  1  0
 25 26  2  0
 26 27  1  0
 27 28  2  0
 29 30  2  0
 30 31  1  0
 31 32  2  0
M  END
