
     RDKit          3D

 33 36  0  0  0  0  0  0  0  0999 V2000
    7.4580   -2.2990   -0.1040 C   0  0  0  0  0  0  0  0  0  0  0  0
    7.2560   -0.8540    0.0740 C   0  0  0  0  0  0  0  0  0  0  0  0
    8.2480    0.0990    0.2130 C   0  0  0  0  0  0  0  0  0  0  0  0
    7.9480    1.4470    0.3240 C   0  0  0  0  0  0  0  0  0  0  0  0
    6.6140    1.8820    0.3000 C   0  0  0  0  0  0  0  0  0  0  0  0
    6.3060    3.1930    0.4240 F   0  0  0  0  0  0  0  0  0  0  0  0
    5.6180    0.9210    0.1650 C   0  0  0  0  0  0  0  0  0  0  0  0
    5.9550   -0.3940    0.0530 C   0  0  0  0  0  0  0  0  0  0  0  0
    4.9030   -1.4560   -0.0770 C   0  0  0  0  0  0  0  0  0  0  0  0
    3.8760   -0.9130   -1.4130 S   0  0  0  0  0  0  0  0  0  0  0  0
    2.6990    0.3450   -1.1570 C   0  0  0  0  0  0  0  0  0  0  0  0
    2.9370    1.5400   -1.4640 O   0  0  0  0  0  0  0  0  0  0  0  0
    1.4380   -0.0660   -0.5950 N   0  0  0  0  0  0  0  0  0  0  0  0
    1.2250   -1.3530   -0.1750 C   0  0  0  0  0  0  0  0  0  0  0  0
   -0.1290   -1.5340   -0.0010 C   0  0  0  0  0  0  0  0  0  0  0  0
   -0.7330   -0.3380   -0.3170 C   0  0  0  0  0  0  0  0  0  0  0  0
   -1.9450    0.2450   -0.4540 C   0  0  0  0  0  0  0  0  0  0  0  0
   -3.2200   -0.3270   -0.1050 N   0  0  0  0  0  0  0  0  0  0  0  0
   -3.2770   -1.3400    0.8540 C   0  0  0  0  0  0  0  0  0  0  0  0
   -2.3260   -1.6110    1.6280 O   0  0  0  0  0  0  0  0  0  0  0  0
   -4.4880   -2.2100    1.0220 C   0  0  2  0  0  0  0  0  0  0  0  0
   -4.1550   -3.4480    0.2680 C   0  0  0  0  0  0  0  0  0  0  0  0
   -5.2540   -3.9140   -0.2880 C   0  0  0  0  0  0  0  0  0  0  0  0
   -6.4270   -3.0160    0.0420 C   0  0  1  0  0  0  0  0  0  0  0  0
   -7.1290   -3.5340    1.5660 Cl  0  0  0  0  0  0  0  0  0  0  0  0
   -5.6970   -1.6930    0.3090 C   0  0  0  0  0  0  0  0  0  0  0  0
   -1.7130    1.5200   -0.9060 N   0  0  0  0  0  0  0  0  0  0  0  0
   -2.9290    2.2830   -1.2260 C   0  0  0  0  0  0  0  0  0  0  0  0
   -3.7050    2.6570   -0.0420 C   0  0  0  0  0  0  0  0  0  0  0  0
   -3.3940    3.7500    0.8830 C   0  0  0  0  0  0  0  0  0  0  0  0
   -3.6150    5.0750    0.3330 N   0  0  0  0  0  0  0  0  0  0  0  0
   -0.4400    1.6940   -1.0300 N   0  0  0  0  0  0  0  0  0  0  0  0
    0.2670    0.5670   -0.6850 C   0  0  0  0  0  0  0  0  0  0  0  0
  1  2  1  0
  2  3  2  0
  2  8  1  0
  3  4  1  0
  4  5  2  0
  5  6  1  0
  5  7  1  0
  7  8  2  0
  8  9  1  0
  9 10  1  0
 10 11  1  0
 11 12  2  0
 11 13  1  0
 13 14  1  0
 13 33  1  0
 14 15  2  0
 15 16  1  0
 16 17  2  0
 16 33  1  0
 17 18  1  0
 17 27  1  0
 18 19  1  0
 19 20  2  0
 21 19  1  6
 21 22  1  0
 21 26  1  0
 22 23  2  0
 23 24  1  0
 24 25  1  1
 24 26  1  0
 27 28  1  0
 27 32  1  0
 28 29  1  0
 29 30  1  0
 30 31  1  0
 32 33  2  0
M  CHG  1  31   1
M  END
