
     RDKit          3D

 10 11  0  0  0  0  0  0  0  0999 V2000
    2.8840   -0.2540   -0.0010 C   0  0  0  0  0  0  0  0  0  0  0  0
    1.4150   -0.1650    0.0700 N   0  0  0  0  0  0  0  0  0  0  0  0
    0.7010    0.2020    1.1150 N   0  0  0  0  0  0  0  0  0  0  0  0
   -0.6230    0.1710    0.8340 C   0  0  0  0  0  0  0  0  0  0  0  0
   -0.7510   -0.2420   -0.4730 C   0  0  0  0  0  0  0  0  0  0  0  0
    0.5410   -0.4390   -0.9070 C   0  0  0  0  0  0  0  0  0  0  0  0
    0.8660   -0.8300   -2.0800 O   0  0  0  0  0  0  0  0  0  0  0  0
   -2.1440   -0.2710   -0.7670 N   0  0  0  0  0  0  0  0  0  0  0  0
   -2.7750    0.5920    0.2400 C   0  0  0  0  0  0  0  0  0  0  0  0
   -1.9110    0.3880    1.3280 O   0  0  0  0  0  0  0  0  0  0  0  0
  1  2  1  0
  2  3  1  0
  2  6  1  0
  3  4  1  0
  4  5  2  0
  4 10  1  0
  5  6  1  0
  5  8  1  0
  6  7  2  0
  8  9  1  0
  9 10  1  0
M  END
