
     RDKit          3D

 10 10  0  0  0  0  0  0  0  0999 V2000
   -2.4630    0.1130   -0.3850 C   0  0  0  0  0  0  0  0  0  0  0  0
   -1.5530   -0.1780    0.7890 C   0  0  0  0  0  0  0  0  0  0  0  0
   -0.1190   -0.0060    0.3950 C   0  0  0  0  0  0  0  0  0  0  0  0
    0.4660    1.1930    0.5360 N   0  0  0  0  0  0  0  0  0  0  0  0
    1.7400    1.4000    0.2000 N   0  0  0  0  0  0  0  0  0  0  0  0
    2.4710    0.3760   -0.2990 C   0  0  0  0  0  0  0  0  0  0  0  0
    3.6660    0.5970   -0.6070 O   0  0  0  0  0  0  0  0  0  0  0  0
    1.9160   -0.8700   -0.4620 C   0  0  0  0  0  0  0  0  0  0  0  0
    2.5660   -1.8370   -0.9210 O   0  0  0  0  0  0  0  0  0  0  0  0
    0.6150   -1.0100   -0.1000 N   0  0  0  0  0  0  0  0  0  0  0  0
  1  2  1  0
  2  3  1  0
  3  4  2  0
  3 10  1  0
  4  5  1  0
  5  6  1  0
  6  7  2  0
  6  8  1  0
  8  9  2  0
  8 10  1  0
M  END
