
     RDKit          3D

 10 10  0  0  0  0  0  0  0  0999 V2000
   -0.0090    2.4710   -0.5950 N   0  0  0  0  0  0  0  0  0  0  0  0
   -0.6750    1.3980   -0.3170 C   0  0  0  0  0  0  0  0  0  0  0  0
   -2.0460    1.1450   -0.5590 N   0  0  0  0  0  0  0  0  0  0  0  0
   -2.3340   -0.0340   -0.1350 C   0  0  0  0  0  0  0  0  0  0  0  0
   -3.6460   -0.5280   -0.2590 O   0  0  0  0  0  0  0  0  0  0  0  0
   -1.1620   -0.7170    0.4500 C   0  0  0  0  0  0  0  0  0  0  0  0
   -0.1100    0.2380    0.3150 N   0  0  0  0  0  0  0  0  0  0  0  0
    1.2650    0.0680    0.7120 C   0  0  0  0  0  0  0  0  0  0  0  0
    1.9950   -0.9000   -0.1930 C   0  0  0  0  0  0  0  0  0  0  0  0
    3.3030   -1.0000    0.2660 O   0  0  0  0  0  0  0  0  0  0  0  0
  1  2  2  0
  2  3  1  0
  2  7  1  0
  3  4  2  0
  4  5  1  0
  4  6  1  0
  6  7  1  0
  7  8  1  0
  8  9  1  0
  9 10  1  0
M  END
