
     RDKit          3D

 10 10  0  0  0  0  0  0  0  0999 V2000
   -2.4520   -0.8350   -0.4660 C   0  0  0  0  0  0  0  0  0  0  0  0
   -1.1470   -0.1380   -0.3380 C   0  0  0  0  0  0  0  0  0  0  0  0
   -0.0310   -0.8450   -0.2850 N   0  0  0  0  0  0  0  0  0  0  0  0
    1.1610   -0.2850   -0.1710 N   0  0  0  0  0  0  0  0  0  0  0  0
    2.3220   -1.1250   -0.1200 C   0  0  0  0  0  0  0  0  0  0  0  0
    1.2130    1.0580   -0.1080 C   0  0  0  0  0  0  0  0  0  0  0  0
    2.3660    1.5840    0.0010 O   0  0  0  0  0  0  0  0  0  0  0  0
    0.0990    1.8110   -0.1590 N   0  0  0  0  0  0  0  0  0  0  0  0
   -1.0880    1.2320   -0.2740 C   0  0  0  0  0  0  0  0  0  0  0  0
   -2.1790    1.8570   -0.3290 O   0  0  0  0  0  0  0  0  0  0  0  0
  1  2  1  0
  2  3  2  0
  2  9  1  0
  3  4  1  0
  4  5  1  0
  4  6  1  0
  6  7  2  0
  6  8  1  0
  8  9  1  0
  9 10  2  0
M  END
