
     RDKit          3D

  9  9  0  0  0  0  0  0  0  0999 V2000
   -2.0390    0.1950   -0.0850 C   0  0  0  0  0  0  0  0  0  0  0  0
   -0.6040   -0.0640   -0.0360 N   0  0  0  0  0  0  0  0  0  0  0  0
   -0.1120   -1.3150   -0.0710 C   0  0  0  0  0  0  0  0  0  0  0  0
    1.2110   -1.5620   -0.0270 N   0  0  0  0  0  0  0  0  0  0  0  0
    2.1250   -0.6060    0.0530 N   0  0  0  0  0  0  0  0  0  0  0  0
    1.6520    0.6560    0.0890 C   0  0  0  0  0  0  0  0  0  0  0  0
    2.4910    1.6160    0.1660 O   0  0  0  0  0  0  0  0  0  0  0  0
    0.3010    0.9340    0.0450 C   0  0  0  0  0  0  0  0  0  0  0  0
   -0.1440    2.1200    0.0780 O   0  0  0  0  0  0  0  0  0  0  0  0
  1  2  1  0
  2  3  1  0
  2  8  1  0
  3  4  2  0
  4  5  1  0
  5  6  1  0
  6  7  2  0
  6  8  1  0
  8  9  2  0
M  END
