
     RDKit          3D

 29 31  0  0  0  0  0  0  0  0999 V2000
   -7.6370   -1.2690    0.5380 C   0  0  0  0  0  0  0  0  0  0  0  0
   -7.4210    0.0180    0.5500 O   0  0  0  0  0  0  0  0  0  0  0  0
   -6.4000    0.6760    1.0470 C   0  0  0  0  0  0  0  0  0  0  0  0
   -5.0410    0.2100    0.6150 C   0  0  0  0  0  0  0  0  0  0  0  0
   -4.3930   -0.8580    1.1990 C   0  0  0  0  0  0  0  0  0  0  0  0
   -3.0120   -1.0240    0.9140 C   0  0  0  0  0  0  0  0  0  0  0  0
   -2.4150   -2.0020    1.4510 O   0  0  0  0  0  0  0  0  0  0  0  0
   -2.3260   -0.2060    0.1240 N   0  0  0  0  0  0  0  0  0  0  0  0
   -0.9380   -0.2440   -0.0570 C   0  0  0  0  0  0  0  0  0  0  0  0
   -0.3040   -0.2030   -1.2190 C   0  0  0  0  0  0  0  0  0  0  0  0
   -1.0030   -0.1520   -2.4790 C   0  0  0  0  0  0  0  0  0  0  0  0
    1.2010   -0.0370   -1.1500 C   0  0  0  0  0  0  0  0  0  0  0  0
    1.9850   -0.7120   -1.8050 N   0  0  0  0  0  0  0  0  0  0  0  0
    3.4020   -0.5860   -1.7660 C   0  0  0  0  0  0  0  0  0  0  0  0
    4.1710   -1.3490   -2.6140 C   0  0  0  0  0  0  0  0  0  0  0  0
    5.5160   -1.3300   -2.4850 N   0  0  0  0  0  0  0  0  0  0  0  0
    6.1460   -0.5770   -1.5450 C   0  0  0  0  0  0  0  0  0  0  0  0
    5.4690    0.2150   -0.6590 C   0  0  0  0  0  0  0  0  0  0  0  0
    5.8760    0.9930    0.3340 O   0  0  0  0  0  0  0  0  0  0  0  0
    7.0030    1.2970    1.0360 C   0  0  0  0  0  0  0  0  0  0  0  0
    7.2980    0.1450    2.0360 C   0  0  0  0  0  0  0  0  0  0  0  0
    7.5180   -1.0500    1.3770 O   0  0  0  0  0  0  0  0  0  0  0  0
    4.0430    0.1580   -0.8370 C   0  0  0  0  0  0  0  0  0  0  0  0
    1.6180    1.3340    0.0040 S   0  0  0  0  0  0  0  0  0  0  0  0
    0.5200    1.0260    1.4440 C   0  0  0  0  0  0  0  0  0  0  0  0
   -0.0210   -0.3730    1.1570 C   0  0  0  0  0  0  0  0  0  0  0  0
   -3.0390    0.8110   -0.4130 N   0  0  0  0  0  0  0  0  0  0  0  0
   -4.3290    1.0190   -0.1950 C   0  0  0  0  0  0  0  0  0  0  0  0
   -5.0210    2.0960   -1.0180 C   0  0  0  0  0  0  0  0  0  0  0  0
  1  2  1  0
  2  3  1  0
  3  4  1  0
  4  5  2  0
  4 28  1  0
  5  6  1  0
  6  7  2  0
  6  8  1  0
  8  9  1  0
  8 27  1  0
  9 10  2  0
  9 26  1  0
 10 11  1  0
 10 12  1  0
 12 13  2  3
 12 24  1  0
 13 14  1  0
 14 15  2  0
 14 23  1  0
 15 16  1  0
 16 17  2  0
 17 18  1  0
 18 19  1  0
 18 23  2  0
 19 20  1  0
 20 21  1  0
 21 22  1  0
 24 25  1  0
 25 26  1  0
 27 28  2  0
 28 29  1  0
M  END
