
     RDKit          3D

 30 32  0  0  0  0  0  0  0  0999 V2000
    1.3680   -0.1860   -1.8420 C   0  0  0  0  0  0  0  0  0  0  0  0
    0.2700   -1.1170   -1.3900 C   0  0  0  0  0  0  0  0  0  0  0  0
    0.3460   -2.4170   -0.9730 C   0  0  0  0  0  0  0  0  0  0  0  0
    1.5050   -3.2490   -0.7960 C   0  0  0  0  0  0  0  0  0  0  0  0
    2.5890   -3.0190   -0.1020 C   0  0  0  0  0  0  0  0  0  0  0  0
    3.6590   -4.0940   -0.1060 C   0  0  0  0  0  0  0  0  0  0  0  0
    3.1480   -5.4440   -1.0930 Cl  0  0  0  0  0  0  0  0  0  0  0  0
    2.8220   -1.8030    0.7210 C   0  0  0  0  0  0  0  0  0  0  0  0
    4.0010   -1.0140    0.2730 C   0  0  0  0  0  0  0  0  0  0  0  0
    4.1640    0.1840    1.1390 C   0  0  0  0  0  0  0  0  0  0  0  0
    3.3460    0.3640    2.0680 O   0  0  0  0  0  0  0  0  0  0  0  0
    5.2430    1.1360    0.9280 C   0  0  0  0  0  0  0  0  0  0  0  0
    6.1850    1.0940   -0.0000 C   0  0  0  0  0  0  0  0  0  0  0  0
    7.0610    2.2860    0.1840 C   0  0  0  0  0  0  0  0  0  0  0  0
    6.8150    2.5790    1.5320 O   0  0  0  0  0  0  0  0  0  0  0  0
    5.4810    2.3000    1.6940 N   0  0  0  0  0  0  0  0  0  0  0  0
   -0.9380   -2.8260   -0.7080 N   0  0  0  0  0  0  0  0  0  0  0  0
   -1.8000   -1.8250   -0.9470 C   0  0  0  0  0  0  0  0  0  0  0  0
   -3.5750   -1.8430   -0.7650 S   0  0  0  0  0  0  0  0  0  0  0  0
   -4.1320   -1.3410    0.8630 C   0  0  0  0  0  0  0  0  0  0  0  0
   -3.8430    0.0760    1.1310 C   0  0  0  0  0  0  0  0  0  0  0  0
   -2.7860    0.3650    1.7870 O   0  0  0  0  0  0  0  0  0  0  0  0
   -4.6400    1.1700    0.7230 N   0  0  0  0  0  0  0  0  0  0  0  0
   -5.8420    0.9260   -0.0350 C   0  0  0  0  0  0  0  0  0  0  0  0
   -6.9630    1.7040    0.6670 C   0  0  0  0  0  0  0  0  0  0  0  0
   -6.6150    3.0490    0.5760 O   0  0  0  0  0  0  0  0  0  0  0  0
   -5.5240    3.3720    1.3410 C   0  0  0  0  0  0  0  0  0  0  0  0
   -4.3000    2.5390    1.0330 C   0  0  0  0  0  0  0  0  0  0  0  0
   -1.0580   -0.7920   -1.3600 N   0  0  0  0  0  0  0  0  0  0  0  0
   -1.5420    0.5220   -1.7370 C   0  0  0  0  0  0  0  0  0  0  0  0
  1  2  1  0
  2  3  2  0
  2 29  1  0
  3  4  1  0
  3 17  1  0
  4  5  2  3
  5  6  1  0
  5  8  1  0
  6  7  1  0
  8  9  1  0
  9 10  1  0
 10 11  2  0
 10 12  1  0
 12 13  2  0
 12 16  1  0
 13 14  1  0
 14 15  1  0
 15 16  1  0
 17 18  2  0
 18 19  1  0
 18 29  1  0
 19 20  1  0
 20 21  1  0
 21 22  2  0
 21 23  1  0
 23 24  1  0
 23 28  1  0
 24 25  1  0
 25 26  1  0
 26 27  1  0
 27 28  1  0
 29 30  1  0
M  END
