
     RDKit          3D

 30 31  0  0  0  0  0  0  0  0999 V2000
   -5.2520   -2.7060   -0.4210 C   0  0  0  0  0  0  0  0  0  0  0  0
   -6.2880   -1.7980   -0.9970 C   0  0  0  0  0  0  0  0  0  0  0  0
   -6.0510   -0.5270   -1.1520 C   0  0  0  0  0  0  0  0  0  0  0  0
   -7.0630    0.3780   -1.7180 C   0  0  0  0  0  0  0  0  0  0  0  0
   -4.7810    0.0050   -0.7640 N   0  0  0  0  0  0  0  0  0  0  0  0
   -4.6820    1.0110    0.2210 C   0  0  0  0  0  0  0  0  0  0  0  0
   -5.8630    1.3350    0.6600 O   0  0  0  0  0  0  0  0  0  0  0  0
   -3.5160    1.6630    0.7520 C   0  0  0  0  0  0  0  0  0  0  0  0
   -2.1220    1.4860    0.4640 C   0  0  0  0  0  0  0  0  0  0  0  0
   -1.3520    0.7590   -0.2300 C   0  0  0  0  0  0  0  0  0  0  0  0
   -1.6310   -0.2800   -1.0820 O   0  0  0  0  0  0  0  0  0  0  0  0
   -1.4850   -1.5960   -0.5640 C   0  0  0  0  0  0  0  0  0  0  0  0
    0.1040    1.0400   -0.1420 N   0  0  0  0  0  0  0  0  0  0  0  0
    1.0810    0.4200   -0.8030 C   0  0  0  0  0  0  0  0  0  0  0  0
    2.3100    0.9610   -0.4480 C   0  0  0  0  0  0  0  0  0  0  0  0
    3.6640    0.6280   -0.8930 C   0  0  0  0  0  0  0  0  0  0  0  0
    4.3400   -0.3580   -0.1640 N   0  0  0  0  0  0  0  0  0  0  0  0
    4.5860   -0.1710    1.2020 C   0  0  0  0  0  0  0  0  0  0  0  0
    5.7310   -0.9980    1.7070 C   0  0  0  0  0  0  0  0  0  0  0  0
    7.0510   -0.5510    1.1530 C   0  0  0  0  0  0  0  0  0  0  0  0
    7.1390   -0.4770   -0.5790 S   0  0  1  0  0  0  0  0  0  0  0  0
    7.0150    0.9710   -1.0310 O   0  0  0  0  0  0  0  0  0  0  0  0
    8.5410   -0.8980   -1.0000 O   0  0  0  0  0  0  0  0  0  0  0  0
    6.0060   -1.5000   -1.4320 C   0  0  0  0  0  0  0  0  0  0  0  0
    4.6500   -1.5870   -0.7690 C   0  0  0  0  0  0  0  0  0  0  0  0
    1.9940    1.9440    0.4680 C   0  0  0  0  0  0  0  0  0  0  0  0
    0.6580    1.9500    0.6160 N   0  0  0  0  0  0  0  0  0  0  0  0
   -3.8150    2.6510    1.6500 C   0  0  0  0  0  0  0  0  0  0  0  0
   -5.1440    3.0220    2.0420 C   0  0  0  0  0  0  0  0  0  0  0  0
   -2.4500    3.5000    2.3570 Cl  0  0  0  0  0  0  0  0  0  0  0  0
  1  2  1  0
  2  3  2  3
  3  4  1  0
  3  5  1  0
  5  6  1  0
  6  7  2  0
  6  8  1  0
  8  9  1  0
  8 28  2  3
  9 10  2  3
 10 11  1  0
 10 13  1  0
 11 12  1  0
 13 14  1  0
 13 27  1  0
 14 15  2  0
 15 16  1  0
 15 26  1  0
 16 17  1  0
 17 18  1  0
 17 25  1  0
 18 19  1  0
 19 20  1  0
 21 20  1  1
 21 22  2  0
 21 23  2  0
 21 24  1  0
 24 25  1  0
 26 27  2  0
 28 29  1  0
 28 30  1  0
M  END
