
     RDKit          3D

 30 32  0  0  0  0  0  0  0  0999 V2000
    7.9030   -2.2480   -2.0090 C   0  0  0  0  0  0  0  0  0  0  0  0
    8.3110   -1.2240   -1.3120 C   0  0  0  0  0  0  0  0  0  0  0  0
   10.0090   -0.7600   -1.4440 Cl  0  0  0  0  0  0  0  0  0  0  0  0
    7.4480   -0.4590   -0.4450 C   0  0  0  0  0  0  0  0  0  0  0  0
    7.9850    0.5800    0.2260 C   0  0  0  0  0  0  0  0  0  0  0  0
    7.2150    1.4370    1.1380 C   0  0  0  0  0  0  0  0  0  0  0  0
    6.0350   -0.7000   -0.2190 C   0  0  0  0  0  0  0  0  0  0  0  0
    5.3090   -1.6740   -0.7830 N   0  0  0  0  0  0  0  0  0  0  0  0
    4.0900   -1.6480   -0.4010 O   0  0  0  0  0  0  0  0  0  0  0  0
    3.9880   -0.6420    0.4330 C   0  0  0  0  0  0  0  0  0  0  0  0
    2.7680   -0.1990    1.1470 C   0  0  0  0  0  0  0  0  0  0  0  0
    1.9690    0.8250    0.4250 C   0  0  0  0  0  0  0  0  0  0  0  0
    1.4040    0.2540   -1.1340 S   0  0  2  0  0  0  0  0  0  0  0  0
    2.6190   -0.1710   -1.9500 O   0  0  0  0  0  0  0  0  0  0  0  0
    0.7690    1.3560   -1.9240 O   0  0  0  0  0  0  0  0  0  0  0  0
    0.4040   -1.1680   -0.9390 C   0  0  0  0  0  0  0  0  0  0  0  0
   -0.8150   -1.0070   -0.1070 C   0  0  0  0  0  0  0  0  0  0  0  0
   -1.7800   -0.0310   -0.6180 C   0  0  0  0  0  0  0  0  0  0  0  0
   -1.6770    0.6050   -1.6840 O   0  0  0  0  0  0  0  0  0  0  0  0
   -2.9460    0.2190    0.1680 N   0  0  0  0  0  0  0  0  0  0  0  0
   -3.9340    1.1590   -0.2670 C   0  0  2  0  0  0  0  0  0  0  0  0
   -4.2520    2.2180    0.7280 C   0  0  0  0  0  0  0  0  0  0  0  0
   -5.7580    2.3510    0.6500 C   0  0  0  0  0  0  0  0  0  0  0  0
   -6.1250    0.9300    0.5440 N   0  0  0  0  0  0  0  0  0  0  0  0
   -7.0900    0.0830    1.1580 C   0  0  0  0  0  0  0  0  0  0  0  0
   -7.6740   -0.9020    0.2190 C   0  0  0  0  0  0  0  0  0  0  0  0
   -6.9970   -1.0970   -1.0830 C   0  0  0  0  0  0  0  0  0  0  0  0
   -5.6270   -0.5720   -1.1990 C   0  0  0  0  0  0  0  0  0  0  0  0
   -5.2240    0.4020   -0.4160 C   0  0  0  0  0  0  0  0  0  0  0  0
    5.1770   -0.0270    0.5720 N   0  0  0  0  0  0  0  0  0  0  0  0
  1  2  2  0
  2  3  1  0
  2  4  1  0
  4  5  2  3
  4  7  1  0
  5  6  1  0
  7  8  2  0
  7 30  1  0
  8  9  1  0
  9 10  1  0
 10 11  1  0
 10 30  2  0
 11 12  1  0
 13 12  1  1
 13 14  2  0
 13 15  2  0
 13 16  1  0
 16 17  1  0
 17 18  1  0
 18 19  2  0
 18 20  1  0
 21 20  1  1
 21 22  1  0
 21 29  1  0
 22 23  1  0
 23 24  1  0
 24 25  1  0
 24 29  1  0
 25 26  1  0
 26 27  1  0
 27 28  1  0
 28 29  2  0
M  END
