
     RDKit          3D

 15 15  0  0  0  0  0  0  0  0999 V2000
   -1.5520    1.8690    1.4070 N   0  0  0  0  0  0  0  0  0  0  0  0
   -1.9880    1.0070    0.3200 C   0  0  1  0  0  0  0  0  0  0  0  0
   -2.2580    1.7230   -0.8410 O   0  0  0  0  0  0  0  0  0  0  0  0
   -1.0300   -0.1220    0.0820 C   0  0  1  0  0  0  0  0  0  0  0  0
    0.3410    0.3830   -0.2760 C   0  0  0  0  0  0  0  0  0  0  0  0
    0.6070    1.6070   -0.3540 O   0  0  0  0  0  0  0  0  0  0  0  0
    1.3720   -0.4950   -0.5360 O   0  0  0  0  0  0  0  0  0  0  0  0
    2.6740   -0.1550   -0.8740 C   0  0  0  0  0  0  0  0  0  0  0  0
    3.3810    0.6730    0.1720 C   0  0  0  0  0  0  0  0  0  0  0  0
    3.4590   -0.0050    1.3850 O   0  0  0  0  0  0  0  0  0  0  0  0
   -0.9420   -1.0450    1.2510 C   0  0  0  0  0  0  0  0  0  0  0  0
   -1.5270   -2.2520    0.8750 O   0  0  0  0  0  0  0  0  0  0  0  0
   -1.2070   -2.3940   -0.4720 C   0  0  0  0  0  0  0  0  0  0  0  0
   -1.5700   -1.0040   -1.0080 C   0  0  2  0  0  0  0  0  0  0  0  0
   -1.0060   -0.7630   -2.2430 O   0  0  0  0  0  0  0  0  0  0  0  0
  2  1  1  1
  2  3  1  0
  2  4  1  0
  4  5  1  6
  4 11  1  0
  4 14  1  0
  5  6  2  0
  5  7  1  0
  7  8  1  0
  8  9  1  0
  9 10  1  0
 11 12  1  0
 12 13  1  0
 13 14  1  0
 14 15  1  6
M  END
