
     RDKit          3D

 15 15  0  0  0  0  0  0  0  0999 V2000
    4.7160    0.8810   -0.1330 C   0  0  0  0  0  0  0  0  0  0  0  0
    3.4140    0.6290    0.2610 O   0  0  0  0  0  0  0  0  0  0  0  0
    3.1840   -0.7360    0.1140 C   0  0  0  0  0  0  0  0  0  0  0  0
    1.7620   -1.1040    0.5290 C   0  0  0  0  0  0  0  0  0  0  0  0
    0.9040   -0.4040   -0.2770 O   0  0  0  0  0  0  0  0  0  0  0  0
   -0.4280   -0.6110   -0.0460 C   0  0  2  0  0  0  0  0  0  0  0  0
   -1.2020   -1.1270   -1.1550 C   0  0  0  0  0  0  0  0  0  0  0  0
   -0.6660   -1.7730   -2.0780 O   0  0  0  0  0  0  0  0  0  0  0  0
   -2.5620   -0.9080   -1.2100 O   0  0  0  0  0  0  0  0  0  0  0  0
   -3.1630    0.2360   -0.6220 C   0  0  1  0  0  0  0  0  0  0  0  0
   -4.5520    0.0080   -0.3710 N   0  0  0  0  0  0  0  0  0  0  0  0
   -2.4990    0.5840    0.6960 C   0  0  1  0  0  0  0  0  0  0  0  0
   -2.8840   -0.2590    1.7050 O   0  0  0  0  0  0  0  0  0  0  0  0
   -1.0050    0.6820    0.5160 C   0  0  2  0  0  0  0  0  0  0  0  0
   -0.7600    1.7140   -0.3870 O   0  0  0  0  0  0  0  0  0  0  0  0
  1  2  1  0
  2  3  1  0
  3  4  1  0
  4  5  1  0
  6  5  1  6
  6  7  1  0
  6 14  1  0
  7  8  2  0
  7  9  1  0
  9 10  1  0
 10 11  1  1
 10 12  1  0
 12 13  1  1
 12 14  1  0
 14 15  1  6
M  END
