
     RDKit          3D

 15 15  0  0  0  0  0  0  0  0999 V2000
   -0.3800    1.5940    1.3060 C   0  0  0  0  0  0  0  0  0  0  0  0
   -0.4890    0.4350    0.3420 C   0  0  2  0  0  0  0  0  0  0  0  0
    0.6500    0.2900   -0.4470 O   0  0  0  0  0  0  0  0  0  0  0  0
    0.6280   -0.9560   -1.0450 C   0  0  1  0  0  0  0  0  0  0  0  0
    0.9700   -0.7340   -2.3980 O   0  0  0  0  0  0  0  0  0  0  0  0
    1.5340   -1.7740   -0.4320 O   0  0  0  0  0  0  0  0  0  0  0  0
    2.8430   -1.4040   -0.4520 C   0  0  0  0  0  0  0  0  0  0  0  0
    3.1920   -0.1000    0.1840 C   0  0  0  0  0  0  0  0  0  0  0  0
    2.8610   -0.0410    1.5280 O   0  0  0  0  0  0  0  0  0  0  0  0
   -0.6830   -1.5580   -1.0730 N   0  0  0  0  0  0  0  0  0  0  0  0
   -1.7170   -0.6280   -1.4630 C   0  0  0  0  0  0  0  0  0  0  0  0
   -1.6490    0.6340   -0.6270 C   0  0  2  0  0  0  0  0  0  0  0  0
   -1.3200    1.6720   -1.4670 O   0  0  0  0  0  0  0  0  0  0  0  0
   -2.9420    0.8850    0.1100 C   0  0  0  0  0  0  0  0  0  0  0  0
   -3.2390   -0.1740    0.9420 O   0  0  0  0  0  0  0  0  0  0  0  0
  2  1  1  1
  2  3  1  0
  2 12  1  0
  3  4  1  0
  4  5  1  6
  4  6  1  0
  4 10  1  0
  6  7  1  0
  7  8  1  0
  8  9  1  0
 10 11  1  0
 11 12  1  0
 12 13  1  6
 12 14  1  0
 14 15  1  0
M  END
