
     RDKit          3D

 44 48  0  0  0  0  0  0  0  0999 V2000
    9.6440    0.5200    0.2330 C   0  0  0  0  0  0  0  0  0  0  0  0
    9.3650    1.9480   -0.1840 C   0  0  0  0  0  0  0  0  0  0  0  0
    8.3930    2.0080   -1.2530 N   0  0  0  0  0  0  0  0  0  0  0  0
    7.0690    1.9570   -0.6540 C   0  0  1  0  0  0  0  0  0  0  0  0
    6.0650    2.7290   -1.4990 C   0  0  0  0  0  0  0  0  0  0  0  0
    4.7660    2.2180   -0.8740 C   0  0  0  0  0  0  0  0  0  0  0  0
    5.0340    0.7230   -0.6730 C   0  0  2  0  0  0  0  0  0  0  0  0
    4.4720    0.2140    0.5950 C   0  0  0  0  0  0  0  0  0  0  0  0
    5.1340   -0.3660    1.4890 O   0  0  0  0  0  0  0  0  0  0  0  0
    3.1180    0.3870    0.8170 O   0  0  0  0  0  0  0  0  0  0  0  0
    2.5070   -0.0810    1.9810 C   0  0  0  0  0  0  0  0  0  0  0  0
    2.5290   -1.6100    2.0770 C   0  0  0  0  0  0  0  0  0  0  0  0
    1.8300   -2.1980    0.9670 N   0  0  0  0  0  0  0  0  0  0  0  0
    2.2260   -2.6210   -0.2870 C   0  0  0  0  0  0  0  0  0  0  0  0
    1.2130   -2.7780   -1.1200 O   0  0  0  0  0  0  0  0  0  0  0  0
    3.5150   -2.9210   -0.8560 C   0  0  0  0  0  0  0  0  0  0  0  0
    3.5960   -3.1370   -2.2500 C   0  0  0  0  0  0  0  0  0  0  0  0
    4.7410   -3.4680   -2.8960 C   0  0  0  0  0  0  0  0  0  0  0  0
    5.9180   -3.6140   -2.2010 C   0  0  0  0  0  0  0  0  0  0  0  0
    5.8830   -3.4130   -0.8450 C   0  0  0  0  0  0  0  0  0  0  0  0
    4.7000   -3.0750   -0.2030 C   0  0  0  0  0  0  0  0  0  0  0  0
    0.3850   -2.2770    1.2100 C   0  0  0  0  0  0  0  0  0  0  0  0
   -0.1440   -3.3740    1.7870 C   0  0  0  0  0  0  0  0  0  0  0  0
   -1.5160   -3.4840    2.0300 C   0  0  0  0  0  0  0  0  0  0  0  0
   -2.3180   -2.4020    1.6480 C   0  0  0  0  0  0  0  0  0  0  0  0
   -1.8140   -1.2720    1.0610 C   0  0  0  0  0  0  0  0  0  0  0  0
   -2.7030   -0.1730    0.6570 C   0  0  0  0  0  0  0  0  0  0  0  0
   -2.1240    1.1310    0.1850 C   0  0  0  0  0  0  0  0  0  0  0  0
   -4.0000   -0.3270    0.7370 C   0  0  0  0  0  0  0  0  0  0  0  0
   -4.9010    0.7530    0.3420 C   0  0  0  0  0  0  0  0  0  0  0  0
   -4.4510    1.8250   -0.0800 O   0  0  0  0  0  0  0  0  0  0  0  0
   -6.3950    0.5520    0.4500 C   0  0  2  0  0  0  0  0  0  0  0  0
   -6.6680    0.2370    1.9110 C   0  0  0  0  0  0  0  0  0  0  0  0
   -6.8320   -0.6140   -0.3700 C   0  0  0  0  0  0  0  0  0  0  0  0
   -8.3340   -0.7530   -0.2250 C   0  0  0  0  0  0  0  0  0  0  0  0
   -8.9540    0.4520   -0.8920 C   0  0  1  0  0  0  0  0  0  0  0  0
  -10.3990    0.6360   -0.4910 C   0  0  0  0  0  0  0  0  0  0  0  0
  -10.5570    2.0670   -0.6400 N   0  0  0  0  0  0  0  0  0  0  0  0
   -9.4090    2.6580   -0.6130 C   0  0  0  0  0  0  0  0  0  0  0  0
   -9.2840    4.0850   -0.7410 N   0  0  0  0  0  0  0  0  0  0  0  0
   -8.3710    1.6970   -0.4480 N   0  0  0  0  0  0  0  0  0  0  0  0
   -7.0410    1.8470    0.0340 C   0  0  0  0  0  0  0  0  0  0  0  0
   -0.4400   -1.2380    0.8510 C   0  0  0  0  0  0  0  0  0  0  0  0
    6.5320    0.5570   -0.6720 C   0  0  0  0  0  0  0  0  0  0  0  0
  1  2  1  0
  2  3  1  0
  4  3  1  6
  4  5  1  0
  4 44  1  0
  5  6  1  0
  6  7  1  0
  7  8  1  1
  7 44  1  0
  8  9  2  0
  8 10  1  0
 10 11  1  0
 11 12  1  0
 12 13  1  0
 13 14  1  0
 13 22  1  0
 14 15  2  0
 14 16  1  0
 16 17  2  0
 16 21  1  0
 17 18  1  0
 18 19  2  0
 19 20  1  0
 20 21  2  0
 22 23  2  0
 22 43  1  0
 23 24  1  0
 24 25  2  0
 25 26  1  0
 26 27  1  0
 26 43  2  0
 27 28  1  0
 27 29  2  3
 29 30  1  0
 30 31  2  0
 30 32  1  0
 32 33  1  1
 32 34  1  0
 32 42  1  0
 34 35  1  0
 36 35  1  1
 36 37  1  0
 36 41  1  0
 37 38  1  0
 38 39  2  0
 39 40  1  0
 39 41  1  0
 41 42  1  0
M  CHG  2   3   1  38   1
M  END
