
     RDKit          3D

 45 49  0  0  0  0  0  0  0  0999 V2000
   -7.5740    3.0150    2.5730 C   0  0  0  0  0  0  0  0  0  0  0  0
   -7.0590    2.0220    1.6110 N   0  0  0  0  0  0  0  0  0  0  0  0
   -6.3980    2.6870    0.5380 C   0  0  1  0  0  0  0  0  0  0  0  0
   -6.0210    4.1070    0.8860 C   0  0  0  0  0  0  0  0  0  0  0  0
   -5.1710    1.9620    0.1170 C   0  0  0  0  0  0  0  0  0  0  0  0
   -4.8960    1.7880   -1.2410 C   0  0  0  0  0  0  0  0  0  0  0  0
   -3.7830    1.1030   -1.6310 C   0  0  0  0  0  0  0  0  0  0  0  0
   -2.8660    0.5450   -0.7120 C   0  0  0  0  0  0  0  0  0  0  0  0
   -1.7350   -0.1540   -1.3210 C   0  0  1  0  0  0  0  0  0  0  0  0
   -2.2650   -1.3850   -2.0550 C   0  0  0  0  0  0  0  0  0  0  0  0
   -2.8940   -2.3000   -1.1630 N   0  0  0  0  0  0  0  0  0  0  0  0
   -4.0950   -2.1770   -0.4630 C   0  0  0  0  0  0  0  0  0  0  0  0
   -4.1640   -2.6070    0.8590 C   0  0  0  0  0  0  0  0  0  0  0  0
   -5.2660   -2.5690    1.6480 C   0  0  0  0  0  0  0  0  0  0  0  0
   -6.4400   -2.0580    1.0950 C   0  0  0  0  0  0  0  0  0  0  0  0
   -7.6420   -1.9590    1.8470 N   0  0  0  0  0  0  0  0  0  0  0  0
   -6.4470   -1.6130   -0.2220 C   0  0  0  0  0  0  0  0  0  0  0  0
   -7.7360   -1.0840   -0.7990 C   0  0  0  0  0  0  0  0  0  0  0  0
   -5.2890   -1.6840   -0.9530 C   0  0  0  0  0  0  0  0  0  0  0  0
   -1.0600    0.8220   -2.2570 C   0  0  0  0  0  0  0  0  0  0  0  0
   -0.6020    2.0220   -1.4340 C   0  0  0  0  0  0  0  0  0  0  0  0
    0.1360    1.6260   -0.1730 C   0  0  0  0  0  0  0  0  0  0  0  0
    0.4780    0.2200   -0.3180 N   0  0  0  0  0  0  0  0  0  0  0  0
    1.7960   -0.2310   -0.3550 C   0  0  0  0  0  0  0  0  0  0  0  0
    2.6990    0.6720   -0.1590 O   0  0  0  0  0  0  0  0  0  0  0  0
    2.3290   -1.5650   -0.5920 C   0  0  1  0  0  0  0  0  0  0  0  0
    2.8750   -1.6690   -2.0270 C   0  0  0  0  0  0  0  0  0  0  0  0
    4.0790   -0.7590   -1.8850 C   0  0  0  0  0  0  0  0  0  0  0  0
    4.4740   -0.0860   -2.8470 O   0  0  0  0  0  0  0  0  0  0  0  0
    4.5630   -0.8600   -0.5640 N   0  0  0  0  0  0  0  0  0  0  0  0
    5.6620   -0.2270    0.0980 C   0  0  0  0  0  0  0  0  0  0  0  0
    6.9950   -0.8940    0.0360 C   0  0  1  0  0  0  0  0  0  0  0  0
    6.9790   -2.3130    0.5790 C   0  0  0  0  0  0  0  0  0  0  0  0
    6.6140   -2.3950    1.9020 O   0  0  0  0  0  0  0  0  0  0  0  0
    7.5860   -0.7910   -1.3390 C   0  0  0  0  0  0  0  0  0  0  0  0
    8.5200    0.4080   -1.4790 C   0  0  0  0  0  0  0  0  0  0  0  0
    9.7600    0.0720   -0.7040 C   0  0  0  0  0  0  0  0  0  0  0  0
    9.3680   -0.3070    0.6840 C   0  0  0  0  0  0  0  0  0  0  0  0
    7.9070   -0.1110    1.0130 C   0  0  1  0  0  0  0  0  0  0  0  0
    7.5210    1.1820    1.1090 O   0  0  0  0  0  0  0  0  0  0  0  0
    7.1860    1.6370    2.3770 C   0  0  0  0  0  0  0  0  0  0  0  0
    3.6370   -1.7640    0.1790 C   0  0  0  0  0  0  0  0  0  0  0  0
   -0.6710   -0.6660   -0.3960 C   0  0  0  0  0  0  0  0  0  0  0  0
   -3.1630    0.7320    0.5990 C   0  0  0  0  0  0  0  0  0  0  0  0
   -4.2930    1.4280    1.0130 C   0  0  0  0  0  0  0  0  0  0  0  0
  1  2  1  0
  2  3  1  0
  3  4  1  1
  3  5  1  0
  5  6  2  0
  5 45  1  0
  6  7  1  0
  7  8  2  0
  8  9  1  0
  8 44  1  0
  9 10  1  6
  9 20  1  0
  9 43  1  0
 10 11  1  0
 11 12  1  0
 12 13  2  0
 12 19  1  0
 13 14  1  0
 14 15  2  0
 15 16  1  0
 15 17  1  0
 17 18  1  0
 17 19  2  0
 20 21  1  0
 21 22  1  0
 22 23  1  0
 23 24  1  0
 23 43  1  0
 24 25  2  0
 26 24  1  6
 26 27  1  0
 26 42  1  0
 27 28  1  0
 28 29  2  0
 28 30  1  0
 30 31  1  0
 30 42  1  0
 32 31  1  6
 32 33  1  0
 32 35  1  0
 32 39  1  0
 33 34  1  0
 35 36  1  0
 36 37  1  0
 37 38  1  0
 38 39  1  0
 39 40  1  6
 40 41  1  0
 44 45  2  0
M  CHG  2   2   1  16   1
M  END
