
     RDKit          3D

 45 49  0  0  0  0  0  0  0  0999 V2000
   -5.9900    8.3380    2.1110 C   0  0  0  0  0  0  0  0  0  0  0  0
   -5.6530    7.5780    0.9760 O   0  0  0  0  0  0  0  0  0  0  0  0
   -4.8360    6.5420    1.4200 C   0  0  0  0  0  0  0  0  0  0  0  0
   -4.4040    5.6680    0.2950 C   0  0  0  0  0  0  0  0  0  0  0  0
   -4.8500    5.8360   -1.0030 C   0  0  0  0  0  0  0  0  0  0  0  0
   -4.4200    5.0080   -2.0250 C   0  0  0  0  0  0  0  0  0  0  0  0
   -3.5170    3.9800   -1.7440 C   0  0  0  0  0  0  0  0  0  0  0  0
   -3.0760    3.8120   -0.4660 C   0  0  0  0  0  0  0  0  0  0  0  0
   -2.1310    2.7760   -0.0870 C   0  0  0  0  0  0  0  0  0  0  0  0
   -1.6100    2.7220    1.0560 O   0  0  0  0  0  0  0  0  0  0  0  0
   -1.7240    1.7330   -1.0100 N   0  0  0  0  0  0  0  0  0  0  0  0
   -0.8850    0.8350   -0.6730 N   0  0  0  0  0  0  0  0  0  0  0  0
   -0.3210   -0.1490   -0.3180 C   0  0  0  0  0  0  0  0  0  0  0  0
    1.1670   -0.0730   -0.2840 C   0  0  0  0  0  0  0  0  0  0  0  0
    1.9740   -1.1190    0.0470 C   0  0  0  0  0  0  0  0  0  0  0  0
    3.3640   -0.9910    0.0740 C   0  0  0  0  0  0  0  0  0  0  0  0
    3.9690    0.1910   -0.2330 C   0  0  0  0  0  0  0  0  0  0  0  0
    5.3570    0.3670   -0.2200 O   0  0  0  0  0  0  0  0  0  0  0  0
    5.9060    1.6350   -0.5560 C   0  0  0  0  0  0  0  0  0  0  0  0
    7.3960    1.5050   -0.4460 C   0  0  1  0  0  0  0  0  0  0  0  0
    8.0870    2.7490   -0.7770 N   0  0  0  0  0  0  0  0  0  0  0  0
    9.2850    2.7630    0.0010 C   0  0  0  0  0  0  0  0  0  0  0  0
    8.9210    2.1650    1.3260 C   0  0  0  0  0  0  0  0  0  0  0  0
    7.8160    1.2060    0.9880 C   0  0  2  0  0  0  0  0  0  0  0  0
    8.2450   -0.2270    1.1050 C   0  0  0  0  0  0  0  0  0  0  0  0
    3.1720    1.2590   -0.5710 C   0  0  0  0  0  0  0  0  0  0  0  0
    1.8050    1.1200   -0.5930 C   0  0  0  0  0  0  0  0  0  0  0  0
   -1.0150   -1.3970    0.0880 C   0  0  2  0  0  0  0  0  0  0  0  0
   -0.7290   -1.8260    1.4420 C   0  0  0  0  0  0  0  0  0  0  0  0
   -0.6560   -3.2620    1.7590 C   0  0  0  0  0  0  0  0  0  0  0  0
   -0.3710   -4.2350    0.6840 C   0  0  1  0  0  0  0  0  0  0  0  0
   -0.1720   -5.6030    1.4070 C   0  0  0  0  0  0  0  0  0  0  0  0
   -1.3250   -5.9260    2.0880 O   0  0  0  0  0  0  0  0  0  0  0  0
   -1.5880   -4.4440   -0.1590 C   0  0  0  0  0  0  0  0  0  0  0  0
   -1.9730   -3.3770   -1.0120 N   0  0  1  0  0  0  0  0  0  0  0  0
   -3.3090   -2.8770   -0.7630 C   0  0  0  0  0  0  0  0  0  0  0  0
   -4.3330   -3.8840   -1.1300 C   0  0  0  0  0  0  0  0  0  0  0  0
   -4.9690   -4.6040   -0.1300 C   0  0  0  0  0  0  0  0  0  0  0  0
   -5.9270   -5.5560   -0.3840 C   0  0  0  0  0  0  0  0  0  0  0  0
   -6.2730   -5.8080   -1.7050 C   0  0  0  0  0  0  0  0  0  0  0  0
   -7.2460   -6.7710   -2.0020 O   0  0  0  0  0  0  0  0  0  0  0  0
   -5.6370   -5.0870   -2.7000 C   0  0  0  0  0  0  0  0  0  0  0  0
   -4.6680   -4.1270   -2.4210 C   0  0  0  0  0  0  0  0  0  0  0  0
   -0.9730   -2.3440   -1.0360 C   0  0  0  0  0  0  0  0  0  0  0  0
   -3.5210    4.6580    0.5530 C   0  0  0  0  0  0  0  0  0  0  0  0
  1  2  1  0
  2  3  1  0
  3  4  1  0
  4  5  2  0
  4 45  1  0
  5  6  1  0
  6  7  2  0
  7  8  1  0
  8  9  1  0
  8 45  2  0
  9 10  2  0
  9 11  1  0
 11 12  1  0
 12 13  2  3
 13 14  1  0
 28 13  1  6
 14 15  2  0
 14 27  1  0
 15 16  1  0
 16 17  2  0
 17 18  1  0
 17 26  1  0
 18 19  1  0
 20 19  1  1
 20 21  1  0
 20 24  1  0
 21 22  1  0
 22 23  1  0
 23 24  1  0
 24 25  1  6
 26 27  2  0
 28 29  1  0
 28 44  1  0
 29 30  1  0
 30 31  1  0
 31 32  1  1
 31 34  1  0
 32 33  1  0
 34 35  1  0
 35 36  1  1
 35 44  1  0
 36 37  1  0
 37 38  2  0
 37 43  1  0
 38 39  1  0
 39 40  2  0
 40 41  1  0
 40 42  1  0
 42 43  2  0
M  CHG  2  21   1  35   1
M  END
