
     RDKit          3D

 29 31  0  0  0  0  0  0  0  0999 V2000
    5.0650   -3.5780    2.3110 C   0  0  0  0  0  0  0  0  0  0  0  0
    3.7650   -3.5790    2.5360 C   0  0  0  0  0  0  0  0  0  0  0  0
    2.7860   -3.9810    1.5150 C   0  0  0  0  0  0  0  0  0  0  0  0
    1.8870   -2.9970    1.1980 O   0  0  0  0  0  0  0  0  0  0  0  0
    2.0250   -1.7680    0.6580 C   0  0  0  0  0  0  0  0  0  0  0  0
    3.2220   -1.2660    0.2870 C   0  0  0  0  0  0  0  0  0  0  0  0
    3.3120    0.0110   -0.2690 C   0  0  0  0  0  0  0  0  0  0  0  0
    2.1930    0.7680   -0.4460 C   0  0  0  0  0  0  0  0  0  0  0  0
    2.2210    2.0510   -0.9970 N   0  0  0  0  0  0  0  0  0  0  0  0
    3.3300    2.7780   -1.4520 C   0  0  0  0  0  0  0  0  0  0  0  0
    3.2050    4.1570   -2.0240 C   0  0  0  0  0  0  0  0  0  0  0  0
    4.4660    2.2990   -1.3950 O   0  0  0  0  0  0  0  0  0  0  0  0
    0.9580    0.2140   -0.0500 C   0  0  0  0  0  0  0  0  0  0  0  0
    0.8270   -1.0130    0.4920 C   0  0  0  0  0  0  0  0  0  0  0  0
   -0.3900   -1.6860    0.8890 C   0  0  0  0  0  0  0  0  0  0  0  0
   -1.6090   -1.1620    0.8910 O   0  0  0  0  0  0  0  0  0  0  0  0
   -2.5460   -0.5380    0.1900 C   0  0  0  0  0  0  0  0  0  0  0  0
   -3.3330   -1.2950   -0.6940 C   0  0  0  0  0  0  0  0  0  0  0  0
   -3.1870   -2.6510   -0.8730 O   0  0  0  0  0  0  0  0  0  0  0  0
   -4.3040   -0.6670   -1.4240 C   0  0  0  0  0  0  0  0  0  0  0  0
   -4.5440    0.6730   -1.3310 C   0  0  0  0  0  0  0  0  0  0  0  0
   -3.7710    1.3950   -0.4650 C   0  0  0  0  0  0  0  0  0  0  0  0
   -2.7650    0.8330    0.3140 C   0  0  0  0  0  0  0  0  0  0  0  0
   -2.0480    1.6550    1.2900 C   0  0  0  0  0  0  0  0  0  0  0  0
   -1.1790    1.0810    2.2430 N   0  0  0  0  0  0  0  0  0  0  0  0
   -2.2080    2.8920    1.2850 O   0  0  0  0  0  0  0  0  0  0  0  0
   -4.1520    2.7470   -0.4960 O   0  0  0  0  0  0  0  0  0  0  0  0
   -5.0570    2.9720   -1.5540 C   0  0  0  0  0  0  0  0  0  0  0  0
   -5.5160    1.6050   -1.9930 C   0  0  0  0  0  0  0  0  0  0  0  0
  1  2  2  0
  2  3  1  0
  3  4  1  0
  4  5  1  0
  5  6  2  0
  5 14  1  0
  6  7  1  0
  7  8  2  0
  8  9  1  0
  8 13  1  0
  9 10  1  0
 10 11  1  0
 10 12  2  0
 13 14  2  0
 14 15  1  0
 15 16  1  0
 16 17  1  0
 17 18  2  0
 17 23  1  0
 18 19  1  0
 18 20  1  0
 20 21  2  0
 21 22  1  0
 21 29  1  0
 22 23  2  0
 22 27  1  0
 23 24  1  0
 24 25  1  0
 24 26  2  0
 27 28  1  0
 28 29  1  0
M  END
