
     RDKit          3D

 30 31  0  0  0  0  0  0  0  0999 V2000
   -4.5730   -2.7890    1.5420 C   0  0  0  0  0  0  0  0  0  0  0  0
   -4.6620   -2.5480    0.0890 C   0  0  0  0  0  0  0  0  0  0  0  0
   -3.8030   -1.5440   -0.4620 N   0  0  0  0  0  0  0  0  0  0  0  0
   -4.3160   -0.2040   -0.5070 C   0  0  0  0  0  0  0  0  0  0  0  0
   -5.3790    0.0610    0.1240 O   0  0  0  0  0  0  0  0  0  0  0  0
   -3.5990    0.8520   -1.2870 C   0  0  0  0  0  0  0  0  0  0  0  0
   -2.1480    0.7680   -0.8590 C   0  0  1  0  0  0  0  0  0  0  0  0
   -1.9520    1.3920    0.4590 N   0  0  0  0  0  0  0  0  0  0  0  0
   -2.5830    2.7110    0.3900 C   0  0  0  0  0  0  0  0  0  0  0  0
   -1.7950    3.7300    1.2090 C   0  0  0  0  0  0  0  0  0  0  0  0
   -1.7130    3.3870    2.5380 O   0  0  0  0  0  0  0  0  0  0  0  0
   -1.5720   -0.5880   -0.9550 C   0  0  1  0  0  0  0  0  0  0  0  0
   -0.6130   -0.7420    0.1250 N   0  0  0  0  0  0  0  0  0  0  0  0
    0.8060   -0.9150   -0.1290 C   0  0  0  0  0  0  0  0  0  0  0  0
    1.1700   -0.9260   -1.3070 O   0  0  0  0  0  0  0  0  0  0  0  0
    1.7280   -1.0600    0.8370 O   0  0  0  0  0  0  0  0  0  0  0  0
    3.0820   -1.2110    0.8520 C   0  0  0  0  0  0  0  0  0  0  0  0
    4.0170   -0.1510    0.4830 C   0  0  2  0  0  0  0  0  0  0  0  0
    4.3450    0.0320   -0.9410 C   0  0  0  0  0  0  0  0  0  0  0  0
    3.4890    0.9290   -1.6510 N   0  0  0  0  0  0  0  0  0  0  0  0
    5.4020   -0.6770    1.0890 C   0  0  0  0  0  0  0  0  0  0  0  0
    6.1230    0.4890    0.9900 O   0  0  0  0  0  0  0  0  0  0  0  0
    5.2470    1.4680    1.4550 C   0  0  1  0  0  0  0  0  0  0  0  0
    5.6020    2.7630    0.7660 C   0  0  0  0  0  0  0  0  0  0  0  0
    4.7620    3.7960    1.1800 O   0  0  0  0  0  0  0  0  0  0  0  0
    3.9740    1.0250    1.2200 O   0  0  0  0  0  0  0  0  0  0  0  0
   -2.4870   -1.7590   -0.9710 C   0  0  1  0  0  0  0  0  0  0  0  0
   -1.8630   -2.8900   -0.1600 C   0  0  0  0  0  0  0  0  0  0  0  0
   -2.6280   -2.3030   -2.3890 C   0  0  0  0  0  0  0  0  0  0  0  0
   -1.3850   -2.5440   -2.9680 O   0  0  0  0  0  0  0  0  0  0  0  0
  1  2  1  0
  2  3  1  0
  3  4  1  0
  3 27  1  0
  4  5  2  0
  4  6  1  0
  6  7  1  0
  7  8  1  1
  7 12  1  0
  8  9  1  0
  9 10  1  0
 10 11  1  0
 12 13  1  1
 12 27  1  0
 13 14  1  0
 14 15  2  0
 14 16  1  0
 16 17  1  0
 18 17  1  6
 18 19  1  0
 18 21  1  0
 18 26  1  0
 19 20  1  0
 21 22  1  0
 22 23  1  0
 23 24  1  6
 23 26  1  0
 24 25  1  0
 27 28  1  1
 27 29  1  0
 29 30  1  0
M  CHG  2   8   1  20   1
M  END
