
     RDKit          3D

 30 33  0  0  0  0  0  0  0  0999 V2000
    7.6630    2.7520   -0.7520 C   0  0  0  0  0  0  0  0  0  0  0  0
    6.8550    1.6600   -1.0870 O   0  0  0  0  0  0  0  0  0  0  0  0
    5.4730    1.6480   -0.9700 C   0  0  0  0  0  0  0  0  0  0  0  0
    4.7930    2.7560   -0.5000 C   0  0  0  0  0  0  0  0  0  0  0  0
    3.4190    2.7000   -0.4000 C   0  0  0  0  0  0  0  0  0  0  0  0
    2.7260    1.5360   -0.7710 C   0  0  0  0  0  0  0  0  0  0  0  0
    3.4200    0.4490   -1.2360 C   0  0  0  0  0  0  0  0  0  0  0  0
    2.7020   -0.7720   -1.6430 C   0  0  0  0  0  0  0  0  0  0  0  0
    2.2720   -1.5360   -0.4930 N   0  0  0  0  0  0  0  0  0  0  0  0
    1.0820   -1.4730    0.0940 C   0  0  0  0  0  0  0  0  0  0  0  0
   -0.1040   -0.7350   -0.3000 C   0  0  0  0  0  0  0  0  0  0  0  0
   -0.2300   -0.0930   -1.3730 O   0  0  0  0  0  0  0  0  0  0  0  0
   -1.2660   -0.6880    0.5520 N   0  0  0  0  0  0  0  0  0  0  0  0
   -2.4600    0.0340    0.1950 C   0  0  2  0  0  0  0  0  0  0  0  0
   -2.7540    1.1560    1.1730 C   0  0  0  0  0  0  0  0  0  0  0  0
   -4.1070    1.7360    0.9080 C   0  0  0  0  0  0  0  0  0  0  0  0
   -5.1720    0.7700    0.9210 N   0  0  1  0  0  0  0  0  0  0  0  0
   -5.9710    0.9320   -0.2380 C   0  0  2  0  0  0  0  0  0  0  0  0
   -6.6350    2.3040   -0.1650 C   0  0  0  0  0  0  0  0  0  0  0  0
   -6.9980   -0.0960   -0.5020 C   0  0  0  0  0  0  0  0  0  0  0  0
   -4.6280   -0.5330    1.1370 C   0  0  0  0  0  0  0  0  0  0  0  0
   -3.6360   -0.9210    0.0770 C   0  0  0  0  0  0  0  0  0  0  0  0
    1.1390   -2.3370    1.1880 C   0  0  0  0  0  0  0  0  0  0  0  0
    2.3750   -2.9150    1.2450 C   0  0  0  0  0  0  0  0  0  0  0  0
    2.9180   -3.8260    2.1190 C   0  0  0  0  0  0  0  0  0  0  0  0
    4.2210   -4.2870    1.9760 C   0  0  0  0  0  0  0  0  0  0  0  0
    4.9340   -3.7800    0.9120 C   0  0  0  0  0  0  0  0  0  0  0  0
    4.3750   -2.8540    0.0270 C   0  0  0  0  0  0  0  0  0  0  0  0
    3.0740   -2.3970    0.1750 C   0  0  0  0  0  0  0  0  0  0  0  0
    4.8190    0.4960   -1.3410 C   0  0  0  0  0  0  0  0  0  0  0  0
  1  2  1  0
  2  3  1  0
  3  4  2  0
  3 30  1  0
  4  5  1  0
  5  6  2  0
  6  7  1  0
  7  8  1  0
  7 30  2  0
  8  9  1  0
  9 10  1  0
  9 29  1  0
 10 11  1  0
 10 23  2  0
 11 12  2  0
 11 13  1  0
 14 13  1  1
 14 15  1  0
 14 22  1  0
 15 16  1  0
 17 16  1  6
 17 18  1  0
 17 21  1  0
 18 19  1  1
 18 20  1  0
 21 22  1  0
 23 24  1  0
 24 25  2  0
 24 29  1  0
 25 26  1  0
 26 27  2  0
 27 28  1  0
 28 29  2  0
M  CHG  1  17   1
M  END
