
     RDKit          3D

 29 30  0  0  0  0  0  0  0  0999 V2000
    7.0150   -3.2210   -1.4110 N   0  0  0  0  0  0  0  0  0  0  0  0
    6.8720   -2.3210   -0.2730 C   0  0  0  0  0  0  0  0  0  0  0  0
    6.2340   -1.0520   -0.7370 C   0  0  2  0  0  0  0  0  0  0  0  0
    6.0550   -0.0700    0.3930 C   0  0  0  0  0  0  0  0  0  0  0  0
    7.2920    0.0810    1.0340 O   0  0  0  0  0  0  0  0  0  0  0  0
    4.9800   -1.2370   -1.4260 N   0  0  0  0  0  0  0  0  0  0  0  0
    3.9760   -1.8770   -0.6240 C   0  0  0  0  0  0  0  0  0  0  0  0
    2.9910   -0.8560   -0.1880 C   0  0  0  0  0  0  0  0  0  0  0  0
    2.0020   -1.1720    0.5200 O   0  0  0  0  0  0  0  0  0  0  0  0
    3.1030    0.4980   -0.5340 O   0  0  0  0  0  0  0  0  0  0  0  0
    2.1390    1.4200   -0.0910 C   0  0  0  0  0  0  0  0  0  0  0  0
    0.7790    1.0970   -0.5710 C   0  0  0  0  0  0  0  0  0  0  0  0
    0.5230    0.1030   -1.3000 O   0  0  0  0  0  0  0  0  0  0  0  0
   -0.2760    1.9040   -0.2200 O   0  0  0  0  0  0  0  0  0  0  0  0
   -1.6340    1.6710   -0.6390 C   0  0  2  0  0  0  0  0  0  0  0  0
   -2.1530    2.7950   -1.4630 C   0  0  0  0  0  0  0  0  0  0  0  0
   -3.5460    3.2150   -1.2790 C   0  0  0  0  0  0  0  0  0  0  0  0
   -4.4250    2.4310   -0.3980 C   0  0  0  0  0  0  0  0  0  0  0  0
   -3.8840    1.0580    0.0090 C   0  0  2  0  0  0  0  0  0  0  0  0
   -3.9150    0.1990   -1.2080 C   0  0  0  0  0  0  0  0  0  0  0  0
   -5.2250    0.0640   -1.6630 O   0  0  0  0  0  0  0  0  0  0  0  0
   -4.7870    0.5830    1.1220 C   0  0  1  0  0  0  0  0  0  0  0  0
   -6.1130    0.4490    0.7870 O   0  0  0  0  0  0  0  0  0  0  0  0
   -4.3350   -0.5880    1.9040 C   0  0  1  0  0  0  0  0  0  0  0  0
   -5.2790   -0.7330    3.1060 C   0  0  0  0  0  0  0  0  0  0  0  0
   -5.0710   -2.1880    3.4190 C   0  0  0  0  0  0  0  0  0  0  0  0
   -4.6240   -2.8090    2.3570 N   0  0  0  0  0  0  0  0  0  0  0  0
   -4.5010   -1.8730    1.2970 N   0  0  0  0  0  0  0  0  0  0  0  0
   -2.4930    1.3010    0.5450 C   0  0  0  0  0  0  0  0  0  0  0  0
  1  2  1  0
  3  2  1  1
  3  4  1  0
  3  6  1  0
  4  5  1  0
  6  7  1  0
  7  8  1  0
  8  9  2  0
  8 10  1  0
 10 11  1  0
 11 12  1  0
 12 13  2  0
 12 14  1  0
 15 14  1  1
 15 16  1  0
 15 29  1  0
 16 17  1  0
 17 18  1  0
 18 19  1  0
 19 20  1  6
 19 22  1  0
 19 29  1  0
 20 21  1  0
 22 23  1  6
 22 24  1  0
 24 25  1  1
 24 28  1  0
 25 26  1  0
 26 27  2  0
 27 28  1  0
M  CHG  2   1   1   6   1
M  END
