
     RDKit          3D

 29 30  0  0  0  0  0  0  0  0999 V2000
    4.6140   -2.0670   -0.8680 C   0  0  0  0  0  0  0  0  0  0  0  0
    3.8850   -2.5520    0.2850 N   0  0  0  0  0  0  0  0  0  0  0  0
    2.5770   -1.9400    0.4250 C   0  0  1  0  0  0  0  0  0  0  0  0
    2.1820   -1.9920    1.8820 C   0  0  0  0  0  0  0  0  0  0  0  0
    3.1350   -1.2870    2.6190 O   0  0  0  0  0  0  0  0  0  0  0  0
    2.7440   -0.4980   -0.0560 C   0  0  0  0  0  0  0  0  0  0  0  0
    1.4310    0.2630    0.0370 C   0  0  0  0  0  0  0  0  0  0  0  0
    1.5790    1.6890   -0.4180 C   0  0  1  0  0  0  0  0  0  0  0  0
    2.5820    2.4700    0.4080 C   0  0  0  0  0  0  0  0  0  0  0  0
    2.1670    1.6210   -1.7870 C   0  0  0  0  0  0  0  0  0  0  0  0
    3.4200    1.4930   -1.8760 O   0  0  0  0  0  0  0  0  0  0  0  0
    1.4290    1.6900   -2.9730 N   0  0  0  0  0  0  0  0  0  0  0  0
    0.0360    1.9290   -2.8960 C   0  0  0  0  0  0  0  0  0  0  0  0
   -0.6930    2.0030   -3.9500 O   0  0  0  0  0  0  0  0  0  0  0  0
   -0.5130    2.0840   -1.6050 N   0  0  0  0  0  0  0  0  0  0  0  0
    0.3190    2.4590   -0.4820 C   0  0  1  0  0  0  0  0  0  0  0  0
   -0.5450    2.4880    0.7180 C   0  0  2  0  0  0  0  0  0  0  0  0
    0.0010    3.0400    1.9720 C   0  0  0  0  0  0  0  0  0  0  0  0
   -1.1160    1.2230    0.9820 O   0  0  0  0  0  0  0  0  0  0  0  0
   -2.4360    0.8860    0.9120 C   0  0  0  0  0  0  0  0  0  0  0  0
   -3.2580    1.8060    0.5700 O   0  0  0  0  0  0  0  0  0  0  0  0
   -3.0390   -0.4280    1.1840 C   0  0  0  0  0  0  0  0  0  0  0  0
   -3.8940   -0.9230    0.0350 C   0  0  2  0  0  0  0  0  0  0  0  0
   -4.9810   -0.0540   -0.3020 N   0  0  0  0  0  0  0  0  0  0  0  0
   -4.5210   -2.2800    0.3990 C   0  0  0  0  0  0  0  0  0  0  0  0
   -4.6320   -2.9500   -0.9670 C   0  0  0  0  0  0  0  0  0  0  0  0
   -3.6010   -2.4040   -1.7570 O   0  0  0  0  0  0  0  0  0  0  0  0
   -3.0430   -1.2910   -1.1040 C   0  0  0  0  0  0  0  0  0  0  0  0
   -1.9790   -0.7640   -1.5050 O   0  0  0  0  0  0  0  0  0  0  0  0
  1  2  1  0
  2  3  1  0
  3  4  1  1
  3  6  1  0
  4  5  1  0
  6  7  1  0
  7  8  1  0
  8  9  1  1
  8 10  1  0
  8 16  1  0
 10 11  2  0
 10 12  1  0
 12 13  1  0
 13 14  2  0
 13 15  1  0
 16 15  1  6
 16 17  1  0
 17 18  1  1
 17 19  1  0
 19 20  1  0
 20 21  2  0
 20 22  1  0
 22 23  1  0
 23 24  1  6
 23 25  1  0
 23 28  1  0
 25 26  1  0
 26 27  1  0
 27 28  1  0
 28 29  2  0
M  CHG  2   2   1  24   1
M  END
