
     RDKit          3D

 29 30  0  0  0  0  0  0  0  0999 V2000
   -2.4190    1.5250    1.8420 C   0  0  0  0  0  0  0  0  0  0  0  0
   -2.1690    1.7310    0.3580 C   0  0  2  0  0  0  0  0  0  0  0  0
   -3.3990    2.4030   -0.2140 C   0  0  0  0  0  0  0  0  0  0  0  0
   -1.9680    0.4220   -0.3170 C   0  0  1  0  0  0  0  0  0  0  0  0
   -0.8570   -0.3400    0.1730 N   0  0  0  0  0  0  0  0  0  0  0  0
    0.2130    0.3840    0.7550 C   0  0  2  0  0  0  0  0  0  0  0  0
    1.1910    0.7740   -0.3720 C   0  0  0  0  0  0  0  0  0  0  0  0
    2.4090    1.0820    0.5140 C   0  0  0  0  0  0  0  0  0  0  0  0
    2.5400   -0.2130    1.2130 C   0  0  1  0  0  0  0  0  0  0  0  0
    2.8800   -1.2570    0.4860 O   0  0  0  0  0  0  0  0  0  0  0  0
    3.9460   -1.5620   -0.1880 C   0  0  0  0  0  0  0  0  0  0  0  0
    4.4110   -0.8680   -1.3980 C   0  0  0  0  0  0  0  0  0  0  0  0
    3.7990    0.0170   -2.0040 O   0  0  0  0  0  0  0  0  0  0  0  0
    5.6970   -1.2150   -1.9720 N   0  0  0  0  0  0  0  0  0  0  0  0
    6.1350   -0.5450   -3.1280 C   0  0  0  0  0  0  0  0  0  0  0  0
    5.4210    0.3350   -3.6500 O   0  0  0  0  0  0  0  0  0  0  0  0
    7.3830   -0.8470   -3.7260 O   0  0  0  0  0  0  0  0  0  0  0  0
    3.3400   -0.0940    2.5110 C   0  0  0  0  0  0  0  0  0  0  0  0
    2.9690    1.1840    3.2010 C   0  0  0  0  0  0  0  0  0  0  0  0
    1.5080    1.1030    3.4610 C   0  0  0  0  0  0  0  0  0  0  0  0
    0.9540    2.0280    4.0850 O   0  0  0  0  0  0  0  0  0  0  0  0
    0.8610   -0.0110    2.9850 O   0  0  0  0  0  0  0  0  0  0  0  0
    1.0780   -0.4400    1.6680 C   0  0  1  0  0  0  0  0  0  0  0  0
   -3.2300   -0.3830   -0.2200 C   0  0  0  0  0  0  0  0  0  0  0  0
   -3.1520   -1.5190    0.2640 O   0  0  0  0  0  0  0  0  0  0  0  0
   -4.4150    0.0850   -0.6350 O   0  0  0  0  0  0  0  0  0  0  0  0
   -5.6900   -0.4240   -0.6790 C   0  0  0  0  0  0  0  0  0  0  0  0
   -5.8720   -1.5470   -1.6420 C   0  0  0  0  0  0  0  0  0  0  0  0
   -5.1200   -2.7320   -1.4710 N   0  0  0  0  0  0  0  0  0  0  0  0
  2  1  1  1
  2  3  1  0
  2  4  1  0
  4  5  1  1
  4 24  1  0
  6  5  1  6
  6  7  1  0
  6 23  1  0
  7  8  1  0
  8  9  1  0
  9 10  1  6
  9 18  1  0
  9 23  1  0
 10 11  1  0
 11 12  1  0
 12 13  2  0
 12 14  1  0
 14 15  1  0
 15 16  2  0
 15 17  1  0
 18 19  1  0
 19 20  1  0
 20 21  2  0
 20 22  1  0
 23 22  1  1
 24 25  2  0
 24 26  1  0
 26 27  1  0
 27 28  1  0
 28 29  1  0
M  CHG  2   5   1  29   1
M  END
