
     RDKit          3D

 29 30  0  0  0  0  0  0  0  0999 V2000
   -7.7120    1.2850   -3.2640 C   0  0  0  0  0  0  0  0  0  0  0  0
   -7.9500    0.0330   -2.7590 O   0  0  0  0  0  0  0  0  0  0  0  0
   -6.9800   -0.4290   -1.9000 C   0  0  0  0  0  0  0  0  0  0  0  0
   -6.7920    0.4230   -0.6900 C   0  0  0  0  0  0  0  0  0  0  0  0
   -5.7840   -0.1250    0.1320 O   0  0  0  0  0  0  0  0  0  0  0  0
   -4.4720   -0.3180   -0.1960 C   0  0  0  0  0  0  0  0  0  0  0  0
   -4.0910    0.0260   -1.3580 O   0  0  0  0  0  0  0  0  0  0  0  0
   -3.5850   -0.8760    0.7210 N   0  0  0  0  0  0  0  0  0  0  0  0
   -3.9690   -1.2740    2.0310 C   0  0  0  0  0  0  0  0  0  0  0  0
   -2.6700   -1.6180    2.7750 C   0  0  0  0  0  0  0  0  0  0  0  0
   -1.7280   -0.6300    2.6740 O   0  0  0  0  0  0  0  0  0  0  0  0
   -1.4010   -0.2870    1.3470 C   0  0  1  0  0  0  0  0  0  0  0  0
    0.0580   -0.1400    1.2650 C   0  0  2  0  0  0  0  0  0  0  0  0
    0.4160    0.9380    2.2100 N   0  0  0  0  0  0  0  0  0  0  0  0
    0.7100    0.0370   -0.0600 C   0  0  2  0  0  0  0  0  0  0  0  0
    0.5550   -1.0990   -0.9990 C   0  0  0  0  0  0  0  0  0  0  0  0
    1.8300   -1.7940   -1.4280 C   0  0  0  0  0  0  0  0  0  0  0  0
    2.9790   -0.8380   -1.6820 C   0  0  0  0  0  0  0  0  0  0  0  0
    3.2290   -0.1160   -0.4270 N   0  0  0  0  0  0  0  0  0  0  0  0
    4.4780   -0.0870    0.2490 C   0  0  0  0  0  0  0  0  0  0  0  0
    5.3880    1.0500   -0.1050 C   0  0  1  0  0  0  0  0  0  0  0  0
    4.7820    2.2790    0.1620 O   0  0  0  0  0  0  0  0  0  0  0  0
    6.6040    0.9260    0.8430 C   0  0  0  0  0  0  0  0  0  0  0  0
    6.2000    0.9790    2.2180 N   0  0  0  0  0  0  0  0  0  0  0  0
    5.9730    0.9680   -1.4880 C   0  0  0  0  0  0  0  0  0  0  0  0
    5.0450    1.1640   -2.4740 O   0  0  0  0  0  0  0  0  0  0  0  0
    2.0880    0.5560    0.0990 C   0  0  0  0  0  0  0  0  0  0  0  0
    2.2630    1.6320    0.7210 O   0  0  0  0  0  0  0  0  0  0  0  0
   -2.1650   -1.0850    0.3700 C   0  0  0  0  0  0  0  0  0  0  0  0
  1  2  1  0
  2  3  1  0
  3  4  1  0
  4  5  1  0
  5  6  1  0
  6  7  2  0
  6  8  1  0
  8  9  1  0
  8 29  1  0
  9 10  1  0
 10 11  1  0
 11 12  1  0
 12 13  1  0
 12 29  1  6
 13 14  1  1
 13 15  1  0
 15 16  1  1
 15 27  1  0
 16 17  1  0
 17 18  1  0
 18 19  1  0
 19 20  1  0
 19 27  1  0
 20 21  1  0
 21 22  1  6
 21 23  1  0
 21 25  1  0
 23 24  1  0
 25 26  1  0
 27 28  2  0
M  CHG  2  14   1  24   1
M  END
