
     RDKit          3D

 43 46  0  0  0  0  0  0  0  0999 V2000
   -4.4050    0.4040    3.1050 C   0  0  0  0  0  0  0  0  0  0  0  0
   -3.1370   -0.1720    2.4810 C   0  0  1  0  0  0  0  0  0  0  0  0
   -3.1860   -1.5960    2.2080 C   0  0  0  0  0  0  0  0  0  0  0  0
   -2.9500   -2.3050    0.9640 C   0  0  2  0  0  0  0  0  0  0  0  0
   -1.7790   -3.3070    1.2420 C   0  0  0  0  0  0  0  0  0  0  0  0
   -2.4160   -1.6190   -0.2320 C   0  0  0  0  0  0  0  0  0  0  0  0
   -4.0880   -3.2780    0.6020 C   0  0  0  0  0  0  0  0  0  0  0  0
   -4.6780   -3.0540   -0.7360 C   0  0  0  0  0  0  0  0  0  0  0  0
   -4.9880   -1.7590   -1.0550 O   0  0  0  0  0  0  0  0  0  0  0  0
   -5.9690   -1.1960   -0.2470 C   0  0  0  0  0  0  0  0  0  0  0  0
   -6.0310    0.2710   -0.6060 C   0  0  2  0  0  0  0  0  0  0  0  0
   -5.5000    0.5710   -1.9860 C   0  0  0  0  0  0  0  0  0  0  0  0
   -5.9720    1.8250   -2.3660 O   0  0  0  0  0  0  0  0  0  0  0  0
   -5.6250    1.1780    0.4040 N   0  0  0  0  0  0  0  0  0  0  0  0
   -4.4930    1.9740    0.5810 C   0  0  0  0  0  0  0  0  0  0  0  0
   -4.7830    3.2510    0.6250 O   0  0  0  0  0  0  0  0  0  0  0  0
   -3.0870    1.7030    0.7270 C   0  0  0  0  0  0  0  0  0  0  0  0
   -2.0460    2.3610    0.0690 C   0  0  0  0  0  0  0  0  0  0  0  0
   -2.1010    3.4890   -0.9370 C   0  0  0  0  0  0  0  0  0  0  0  0
   -2.4260    3.0200   -2.3100 C   0  0  0  0  0  0  0  0  0  0  0  0
   -1.3940    2.0320   -2.8430 C   0  0  0  0  0  0  0  0  0  0  0  0
   -1.3070    0.9080   -2.0450 O   0  0  0  0  0  0  0  0  0  0  0  0
   -0.8850    1.8280    0.4830 N   0  0  0  0  0  0  0  0  0  0  0  0
   -1.1000    0.8660    1.3690 C   0  0  0  0  0  0  0  0  0  0  0  0
   -0.0410    0.0450    2.0470 C   0  0  0  0  0  0  0  0  0  0  0  0
   -0.3340   -0.7810    2.9140 O   0  0  0  0  0  0  0  0  0  0  0  0
    1.3180    0.2090    1.6960 N   0  0  0  0  0  0  0  0  0  0  0  0
    2.4200   -0.4830    2.2420 C   0  0  0  0  0  0  0  0  0  0  0  0
    2.3820   -1.4080    3.2370 C   0  0  0  0  0  0  0  0  0  0  0  0
    3.5180   -2.0500    3.7320 C   0  0  0  0  0  0  0  0  0  0  0  0
    4.7280   -1.7440    3.2020 C   0  0  0  0  0  0  0  0  0  0  0  0
    4.8250   -0.8210    2.1990 C   0  0  0  0  0  0  0  0  0  0  0  0
    3.7000   -0.1840    1.7050 C   0  0  0  0  0  0  0  0  0  0  0  0
    3.7850    0.6960    0.7520 O   0  0  0  0  0  0  0  0  0  0  0  0
    4.2700    1.4780   -0.1750 C   0  0  0  0  0  0  0  0  0  0  0  0
    4.9580    0.9360   -1.3950 C   0  0  0  0  0  0  0  0  0  0  0  0
    6.1270    0.1460   -1.1680 N   0  0  2  0  0  0  0  0  0  0  0  0
    7.2070    0.9150   -0.5980 C   0  0  0  0  0  0  0  0  0  0  0  0
    6.5610   -0.5590   -2.3500 C   0  0  0  0  0  0  0  0  0  0  0  0
    7.8690   -0.0350   -2.8410 C   0  0  2  0  0  0  0  0  0  0  0  0
    8.0390    1.3580   -3.2640 C   0  0  0  0  0  0  0  0  0  0  0  0
    7.9790    0.2240   -4.3120 C   0  0  0  0  0  0  0  0  0  0  0  0
   -2.4740    0.7590    1.5490 C   0  0  0  0  0  0  0  0  0  0  0  0
  2  1  1  6
  2  3  1  0
  2 43  1  0
  3  4  1  0
  4  5  1  1
  4  6  1  0
  4  7  1  0
  7  8  1  0
  8  9  1  0
  9 10  1  0
 10 11  1  0
 11 12  1  6
 11 14  1  0
 12 13  1  0
 14 15  1  0
 15 16  2  0
 15 17  1  0
 17 18  2  0
 17 43  1  0
 18 19  1  0
 18 23  1  0
 19 20  1  0
 20 21  1  0
 21 22  1  0
 23 24  1  0
 24 25  1  0
 24 43  2  0
 25 26  2  0
 25 27  1  0
 27 28  1  0
 28 29  2  0
 28 33  1  0
 29 30  1  0
 30 31  2  0
 31 32  1  0
 32 33  2  0
 33 34  1  0
 34 35  1  0
 35 36  1  0
 36 37  1  0
 37 38  1  6
 37 39  1  0
 40 39  1  6
 40 41  1  0
 40 42  1  0
 41 42  1  0
M  CHG  1  37   1
M  END
