
     RDKit          3D

 43 47  0  0  0  0  0  0  0  0999 V2000
   -6.9040    1.3370   -3.3160 C   0  0  0  0  0  0  0  0  0  0  0  0
   -6.2950    0.6930   -2.3250 C   0  0  0  0  0  0  0  0  0  0  0  0
   -6.3660    1.1840   -1.0960 O   0  0  0  0  0  0  0  0  0  0  0  0
   -5.8070    0.6330   -0.0610 C   0  0  0  0  0  0  0  0  0  0  0  0
   -5.9130    1.1550    1.0930 O   0  0  0  0  0  0  0  0  0  0  0  0
   -5.0820   -0.5280   -0.1630 C   0  0  0  0  0  0  0  0  0  0  0  0
   -4.4760   -1.1080    1.0180 C   0  0  0  0  0  0  0  0  0  0  0  0
   -5.1870   -2.0140    1.7620 C   0  0  0  0  0  0  0  0  0  0  0  0
   -4.7080   -2.6180    2.8900 C   0  0  0  0  0  0  0  0  0  0  0  0
   -5.5030   -3.5160    3.5690 O   0  0  0  0  0  0  0  0  0  0  0  0
   -5.1030   -4.1910    4.7390 C   0  0  0  0  0  0  0  0  0  0  0  0
   -3.4340   -2.2860    3.2880 C   0  0  0  0  0  0  0  0  0  0  0  0
   -2.6870   -1.3610    2.5420 C   0  0  0  0  0  0  0  0  0  0  0  0
   -3.1810   -0.7610    1.4090 C   0  0  0  0  0  0  0  0  0  0  0  0
   -2.5000    0.1740    0.6080 N   0  0  0  0  0  0  0  0  0  0  0  0
   -1.1940    0.6550    0.8210 C   0  0  0  0  0  0  0  0  0  0  0  0
   -0.4990    0.2740    1.7870 O   0  0  0  0  0  0  0  0  0  0  0  0
   -0.5590    1.6530   -0.0950 C   0  0  0  0  0  0  0  0  0  0  0  0
    0.7640    1.9780    0.3380 N   0  0  0  0  0  0  0  0  0  0  0  0
    0.9260    3.1600    1.2080 C   0  0  0  0  0  0  0  0  0  0  0  0
    1.0290    4.3990    0.4030 C   0  0  1  0  0  0  0  0  0  0  0  0
    1.1850    5.5420    1.2280 O   0  0  0  0  0  0  0  0  0  0  0  0
    2.1980    4.4020   -0.5370 C   0  0  0  0  0  0  0  0  0  0  0  0
    2.1550    5.7400   -1.2840 C   0  0  0  0  0  0  0  0  0  0  0  0
    3.2850    5.8660   -2.2650 C   0  0  0  0  0  0  0  0  0  0  0  0
    1.9200    1.2870   -0.0100 C   0  0  0  0  0  0  0  0  0  0  0  0
    3.0430    1.7640    0.4590 O   0  0  0  0  0  0  0  0  0  0  0  0
    2.0300    0.1030   -0.8290 C   0  0  0  0  0  0  0  0  0  0  0  0
    1.1320   -0.6280   -1.4180 C   0  0  0  0  0  0  0  0  0  0  0  0
    1.7650   -1.7830   -2.1780 C   0  0  0  0  0  0  0  0  0  0  0  0
    3.1550   -1.2050   -2.4270 C   0  0  0  0  0  0  0  0  0  0  0  0
    3.3850   -0.5180   -1.1160 C   0  0  2  0  0  0  0  0  0  0  0  0
    3.6450   -1.4050   -0.0220 N   0  0  0  0  0  0  0  0  0  0  0  0
    5.0530   -1.6210    0.2240 C   0  0  2  0  0  0  0  0  0  0  0  0
    5.5830   -2.9710    0.4930 C   0  0  1  0  0  0  0  0  0  0  0  0
    7.0800   -3.1210    0.4640 C   0  0  0  0  0  0  0  0  0  0  0  0
    7.4170   -2.8960    1.9400 C   0  0  0  0  0  0  0  0  0  0  0  0
    6.6290   -1.7230    2.2220 N   0  0  0  0  0  0  0  0  0  0  0  0
    5.3500   -2.0420    1.6570 C   0  0  1  0  0  0  0  0  0  0  0  0
   -4.9750   -1.0800   -1.4090 C   0  0  0  0  0  0  0  0  0  0  0  0
   -4.2080   -2.3360   -1.6090 C   0  0  0  0  0  0  0  0  0  0  0  0
   -5.5880   -0.4660   -2.5180 C   0  0  0  0  0  0  0  0  0  0  0  0
   -5.4570   -1.0370   -3.7050 C   0  0  0  0  0  0  0  0  0  0  0  0
  1  2  2  0
  2  3  1  0
  2 42  1  0
  3  4  1  0
  4  5  2  0
  4  6  1  0
  6  7  1  0
  6 40  2  0
  7  8  2  0
  7 14  1  0
  8  9  1  0
  9 10  1  0
  9 12  2  0
 10 11  1  0
 12 13  1  0
 13 14  2  0
 14 15  1  0
 15 16  1  0
 16 17  2  0
 16 18  1  0
 18 19  1  0
 19 20  1  0
 19 26  1  0
 20 21  1  0
 21 22  1  1
 21 23  1  0
 23 24  1  0
 24 25  1  0
 26 27  2  0
 26 28  1  0
 28 29  2  0
 28 32  1  0
 29 30  1  0
 30 31  1  0
 31 32  1  0
 32 33  1  1
 34 33  1  1
 34 35  1  0
 34 39  1  0
 35 36  1  6
 35 39  1  0
 36 37  1  0
 37 38  1  0
 39 38  1  6
 40 41  1  0
 40 42  1  0
 42 43  2  0
M  CHG  1  33   1
M  END
