
     RDKit          3D

 43 47  0  0  0  0  0  0  0  0999 V2000
    1.2500   -1.5040    0.0670 O   0  0  0  0  0  0  0  0  0  0  0  0
    1.6570   -0.3650   -0.2130 C   0  0  0  0  0  0  0  0  0  0  0  0
    0.7430    0.6040   -0.6110 N   0  0  0  0  0  0  0  0  0  0  0  0
   -0.6600    0.6080   -0.7710 C   0  0  0  0  0  0  0  0  0  0  0  0
   -1.5790    0.4600    0.3880 C   0  0  1  0  0  0  0  0  0  0  0  0
   -2.9930    0.5870   -0.2240 C   0  0  0  0  0  0  0  0  0  0  0  0
   -4.0390    0.4970    0.7270 N   0  0  0  0  0  0  0  0  0  0  0  0
   -5.0810   -0.4570    0.3900 C   0  0  1  0  0  0  0  0  0  0  0  0
   -6.3140   -0.1070    1.1880 C   0  0  0  0  0  0  0  0  0  0  0  0
   -6.1020   -0.1470    2.6780 C   0  0  0  0  0  0  0  0  0  0  0  0
   -5.6790   -1.5500    3.0510 C   0  0  0  0  0  0  0  0  0  0  0  0
   -5.4720   -1.6770    4.4250 O   0  0  0  0  0  0  0  0  0  0  0  0
   -5.3820   -0.4000   -1.0830 C   0  0  0  0  0  0  0  0  0  0  0  0
   -5.5110   -1.5510   -1.8260 C   0  0  0  0  0  0  0  0  0  0  0  0
   -5.7920   -1.4850   -3.1920 C   0  0  0  0  0  0  0  0  0  0  0  0
   -5.9430   -0.2410   -3.8030 C   0  0  0  0  0  0  0  0  0  0  0  0
   -5.8150    0.9180   -3.0660 C   0  0  0  0  0  0  0  0  0  0  0  0
   -5.9720    2.2560   -3.6920 C   0  0  0  0  0  0  0  0  0  0  0  0
   -7.3340    2.5960   -3.5290 O   0  0  0  0  0  0  0  0  0  0  0  0
   -5.5360    0.8160   -1.7140 C   0  0  0  0  0  0  0  0  0  0  0  0
   -1.4970   -0.8590    1.0590 C   0  0  0  0  0  0  0  0  0  0  0  0
   -0.7860   -0.8860    2.3660 C   0  0  0  0  0  0  0  0  0  0  0  0
    0.0590    0.2920    2.6890 C   0  0  0  0  0  0  0  0  0  0  0  0
   -0.0900    1.4000    1.9040 O   0  0  0  0  0  0  0  0  0  0  0  0
   -1.3300    1.5980    1.3520 C   0  0  0  0  0  0  0  0  0  0  0  0
    3.1130   -0.1680   -0.0850 C   0  0  0  0  0  0  0  0  0  0  0  0
    3.7320    0.9690   -0.5240 C   0  0  0  0  0  0  0  0  0  0  0  0
    5.1090    1.1380   -0.3900 C   0  0  0  0  0  0  0  0  0  0  0  0
    5.8530    0.1470    0.1900 C   0  0  0  0  0  0  0  0  0  0  0  0
    7.2650    0.3610    0.3070 N   0  0  0  0  0  0  0  0  0  0  0  0
    7.7560    1.1980    1.2320 C   0  0  0  0  0  0  0  0  0  0  0  0
    6.9390    1.7970    2.0040 O   0  0  0  0  0  0  0  0  0  0  0  0
    9.0890    1.4270    1.3730 N   0  0  0  0  0  0  0  0  0  0  0  0
    9.9820    0.8070    0.5710 C   0  0  0  0  0  0  0  0  0  0  0  0
   11.2200    1.0170    0.6980 O   0  0  0  0  0  0  0  0  0  0  0  0
    9.5110   -0.0560   -0.3860 C   0  0  0  0  0  0  0  0  0  0  0  0
   10.4000   -0.6930   -1.2090 C   0  0  0  0  0  0  0  0  0  0  0  0
    9.9030   -1.5690   -2.1780 C   0  0  0  0  0  0  0  0  0  0  0  0
    8.5450   -1.7780   -2.2950 C   0  0  0  0  0  0  0  0  0  0  0  0
    7.6460   -1.1250   -1.4520 C   0  0  0  0  0  0  0  0  0  0  0  0
    8.1590   -0.2530   -0.4890 C   0  0  0  0  0  0  0  0  0  0  0  0
    5.2640   -1.0170    0.6460 C   0  0  0  0  0  0  0  0  0  0  0  0
    3.9050   -1.1400    0.4940 C   0  0  0  0  0  0  0  0  0  0  0  0
  1  2  2  0
  2  3  1  0
  2 26  1  0
  3  4  1  0
  5  4  1  6
  5  6  1  0
  5 21  1  0
  5 25  1  0
  6  7  1  0
  7  8  1  0
  8  9  1  1
  8 13  1  0
  9 10  1  0
 10 11  1  0
 11 12  1  0
 13 14  2  0
 13 20  1  0
 14 15  1  0
 15 16  2  0
 16 17  1  0
 17 18  1  0
 17 20  2  0
 18 19  1  0
 21 22  1  0
 22 23  1  0
 23 24  1  0
 24 25  1  0
 26 27  2  0
 26 43  1  0
 27 28  1  0
 28 29  2  0
 29 30  1  0
 29 42  1  0
 30 31  1  0
 30 41  1  0
 31 32  2  0
 31 33  1  0
 33 34  1  0
 34 35  2  0
 34 36  1  0
 36 37  2  0
 36 41  1  0
 37 38  1  0
 38 39  2  0
 39 40  1  0
 40 41  2  0
 42 43  2  0
M  CHG  1   7   1
M  END
