
     RDKit          3D

 43 46  0  0  0  0  0  0  0  0999 V2000
   -3.3630   -1.4990    1.3980 C   0  0  0  0  0  0  0  0  0  0  0  0
   -3.7320   -1.2600   -0.0520 C   0  0  2  0  0  0  0  0  0  0  0  0
   -4.9230   -2.0070   -0.3940 N   0  0  0  0  0  0  0  0  0  0  0  0
   -6.1280   -1.2340   -0.1320 C   0  0  1  0  0  0  0  0  0  0  0  0
   -6.7830   -0.6680   -1.3390 C   0  0  0  0  0  0  0  0  0  0  0  0
   -7.9000   -1.5700   -1.7370 C   0  0  0  0  0  0  0  0  0  0  0  0
   -8.3740   -2.1290   -0.4330 C   0  0  0  0  0  0  0  0  0  0  0  0
   -7.2190   -2.0440    0.5260 C   0  0  0  0  0  0  0  0  0  0  0  0
   -2.6420   -1.6150   -0.9990 C   0  0  0  0  0  0  0  0  0  0  0  0
   -1.5220   -2.0630   -0.4510 C   0  0  0  0  0  0  0  0  0  0  0  0
   -0.2900   -2.4820   -1.1800 C   0  0  0  0  0  0  0  0  0  0  0  0
   -0.2900   -2.2900   -2.5250 O   0  0  0  0  0  0  0  0  0  0  0  0
    0.4100   -1.6720   -3.4750 C   0  0  0  0  0  0  0  0  0  0  0  0
    0.4580   -2.2360   -4.7330 C   0  0  0  0  0  0  0  0  0  0  0  0
    1.1580   -1.6610   -5.7810 C   0  0  0  0  0  0  0  0  0  0  0  0
    1.8230   -0.4900   -5.5460 C   0  0  0  0  0  0  0  0  0  0  0  0
    1.7840    0.0720   -4.3150 C   0  0  0  0  0  0  0  0  0  0  0  0
    1.0800   -0.4880   -3.2280 C   0  0  0  0  0  0  0  0  0  0  0  0
    1.1230    0.1670   -2.0680 O   0  0  0  0  0  0  0  0  0  0  0  0
    0.3240    0.6510   -1.0880 C   0  0  0  0  0  0  0  0  0  0  0  0
    1.0260    0.8260    0.2130 C   0  0  0  0  0  0  0  0  0  0  0  0
    2.2330    0.5590    0.3780 O   0  0  0  0  0  0  0  0  0  0  0  0
    0.3710    1.3220    1.3940 N   0  0  0  0  0  0  0  0  0  0  0  0
    1.0410    1.5250    2.6310 C   0  0  0  0  0  0  0  0  0  0  0  0
    0.3510    1.4940    3.8620 C   0  0  0  0  0  0  0  0  0  0  0  0
    1.0080    1.7330    5.0350 C   0  0  0  0  0  0  0  0  0  0  0  0
    2.3570    2.0140    5.1100 C   0  0  0  0  0  0  0  0  0  0  0  0
    3.0470    2.0490    3.9330 C   0  0  0  0  0  0  0  0  0  0  0  0
    4.4330    2.3120    3.8920 C   0  0  0  0  0  0  0  0  0  0  0  0
    5.6540    2.5280    3.8720 C   0  0  0  0  0  0  0  0  0  0  0  0
    7.0870    2.7950    3.8620 C   0  0  1  0  0  0  0  0  0  0  0  0
    7.7870    1.7560    4.4920 O   0  0  0  0  0  0  0  0  0  0  0  0
    7.6450    3.0630    2.5980 N   0  0  0  0  0  0  0  0  0  0  0  0
    7.6690    2.0910    1.5890 C   0  0  2  0  0  0  0  0  0  0  0  0
    7.6070    2.7030    0.1800 C   0  0  0  0  0  0  0  0  0  0  0  0
    6.4840    1.1600    1.6600 C   0  0  0  0  0  0  0  0  0  0  0  0
    6.6510    0.2430    0.5930 O   0  0  0  0  0  0  0  0  0  0  0  0
    2.3550    1.8010    2.7180 C   0  0  0  0  0  0  0  0  0  0  0  0
   -0.9420    0.9720   -1.1490 C   0  0  0  0  0  0  0  0  0  0  0  0
   -1.8440    0.8930   -2.2940 C   0  0  0  0  0  0  0  0  0  0  0  0
   -2.2690    2.0390   -2.7360 O   0  0  0  0  0  0  0  0  0  0  0  0
   -2.3160   -0.2150   -2.9730 N   0  0  0  0  0  0  0  0  0  0  0  0
   -2.8900   -1.4360   -2.4320 C   0  0  0  0  0  0  0  0  0  0  0  0
  2  1  1  1
  2  3  1  0
  2  9  1  0
  4  3  1  6
  4  5  1  0
  4  8  1  0
  5  6  1  0
  6  7  1  0
  7  8  1  0
  9 10  2  0
  9 43  1  0
 10 11  1  0
 11 12  1  0
 12 13  1  0
 13 14  2  0
 13 18  1  0
 14 15  1  0
 15 16  2  0
 16 17  1  0
 17 18  2  0
 18 19  1  0
 19 20  1  0
 20 21  1  0
 20 39  2  0
 21 22  2  0
 21 23  1  0
 23 24  1  0
 24 25  2  0
 24 38  1  0
 25 26  1  0
 26 27  2  0
 27 28  1  0
 28 29  1  0
 28 38  2  0
 29 30  3  0
 30 31  1  0
 31 32  1  6
 31 33  1  0
 33 34  1  0
 34 35  1  6
 34 36  1  0
 36 37  1  0
 39 40  1  0
 40 41  2  0
 40 42  1  0
 42 43  1  0
M  CHG  1   3   1
M  END
