
     RDKit          3D

 21 23  0  0  0  0  0  0  0  0999 V2000
   -4.6070   -0.2480    1.1000 C   0  0  0  0  0  0  0  0  0  0  0  0
   -3.3990    0.0630    0.2600 C   0  0  2  0  0  0  0  0  0  0  0  0
   -3.2100   -1.0510   -0.6480 N   0  0  0  0  0  0  0  0  0  0  0  0
   -2.1950    0.3160    1.1060 C   0  0  0  0  0  0  0  0  0  0  0  0
   -1.0000    0.6220    0.3580 N   0  0  0  0  0  0  0  0  0  0  0  0
   -0.7010    1.8770    0.0310 C   0  0  0  0  0  0  0  0  0  0  0  0
   -1.4950    2.7860    0.3910 O   0  0  0  0  0  0  0  0  0  0  0  0
    0.4700    2.2200   -0.7020 C   0  0  0  0  0  0  0  0  0  0  0  0
    0.7540    3.5370   -1.0290 C   0  0  0  0  0  0  0  0  0  0  0  0
    2.3440    3.3590   -1.9480 S   0  0  0  0  0  0  0  0  0  0  0  0
    2.4350    1.5750   -1.7860 C   0  0  0  0  0  0  0  0  0  0  0  0
    1.2850    1.2460   -1.0670 C   0  0  0  0  0  0  0  0  0  0  0  0
    0.9650   -0.0550   -0.7210 N   0  0  0  0  0  0  0  0  0  0  0  0
    1.8610   -1.1240   -1.1210 C   0  0  0  0  0  0  0  0  0  0  0  0
    2.8820   -1.3810   -0.0840 C   0  0  0  0  0  0  0  0  0  0  0  0
    4.1340   -0.8340    0.0730 C   0  0  0  0  0  0  0  0  0  0  0  0
    4.7070   -1.3960    1.1940 C   0  0  0  0  0  0  0  0  0  0  0  0
    3.7720   -2.2730    1.6820 C   0  0  0  0  0  0  0  0  0  0  0  0
    2.7140   -2.2420    0.9100 O   0  0  0  0  0  0  0  0  0  0  0  0
   -0.1520   -0.3320   -0.0280 C   0  0  0  0  0  0  0  0  0  0  0  0
   -0.3720   -1.5510    0.2490 O   0  0  0  0  0  0  0  0  0  0  0  0
  2  1  1  1
  2  3  1  0
  2  4  1  0
  4  5  1  0
  5  6  1  0
  5 20  1  0
  6  7  2  0
  6  8  1  0
  8  9  2  0
  8 12  1  0
  9 10  1  0
 10 11  1  0
 11 12  2  0
 12 13  1  0
 13 14  1  0
 13 20  1  0
 14 15  1  0
 15 16  2  0
 15 19  1  0
 16 17  1  0
 17 18  2  0
 18 19  1  0
 20 21  2  0
M  CHG  1   3   1
M  END
