
     RDKit          3D

 21 23  0  0  0  0  0  0  0  0999 V2000
    7.5160    1.2790    0.6500 C   0  0  0  0  0  0  0  0  0  0  0  0
    6.2290    0.7340    0.8740 O   0  0  0  0  0  0  0  0  0  0  0  0
    5.1490    0.9510    0.0350 C   0  0  0  0  0  0  0  0  0  0  0  0
    5.3520    1.6740   -0.9730 O   0  0  0  0  0  0  0  0  0  0  0  0
    3.8430    0.3620    0.3180 C   0  0  0  0  0  0  0  0  0  0  0  0
    2.7800    0.5890   -0.5300 C   0  0  0  0  0  0  0  0  0  0  0  0
    1.5440    0.0360   -0.2690 C   0  0  0  0  0  0  0  0  0  0  0  0
    0.4530    0.2650   -1.1320 O   0  0  0  0  0  0  0  0  0  0  0  0
   -0.7890   -0.2910   -0.8690 C   0  0  0  0  0  0  0  0  0  0  0  0
   -1.1250   -1.5320   -1.3620 C   0  0  0  0  0  0  0  0  0  0  0  0
   -2.3790   -2.0990   -1.0980 C   0  0  0  0  0  0  0  0  0  0  0  0
   -3.2730   -1.3890   -0.3330 C   0  0  0  0  0  0  0  0  0  0  0  0
   -2.9440   -0.1480    0.1640 C   0  0  0  0  0  0  0  0  0  0  0  0
   -1.6930    0.4250   -0.0950 C   0  0  0  0  0  0  0  0  0  0  0  0
   -3.9830    0.5330    0.9790 C   0  0  0  0  0  0  0  0  0  0  0  0
   -5.2910    0.6230    0.2500 C   0  0  0  0  0  0  0  0  0  0  0  0
   -5.9740   -0.6210    0.1170 N   0  0  0  0  0  0  0  0  0  0  0  0
   -4.8910   -2.0120    0.0640 S   0  0  0  0  0  0  0  0  0  0  0  0
    1.3540   -0.7340    0.8170 N   0  0  0  0  0  0  0  0  0  0  0  0
    2.3980   -0.9500    1.6370 C   0  0  0  0  0  0  0  0  0  0  0  0
    3.6220   -0.4120    1.3940 N   0  0  0  0  0  0  0  0  0  0  0  0
  1  2  1  0
  2  3  1  0
  3  4  2  0
  3  5  1  0
  5  6  2  0
  5 21  1  0
  6  7  1  0
  7  8  1  0
  7 19  2  0
  8  9  1  0
  9 10  2  0
  9 14  1  0
 10 11  1  0
 11 12  2  0
 12 13  1  0
 12 18  1  0
 13 14  2  0
 13 15  1  0
 15 16  1  0
 16 17  1  0
 17 18  1  0
 19 20  1  0
 20 21  2  0
M  CHG  1  17   1
M  END
