
     RDKit          3D

 21 23  0  0  0  0  0  0  0  0999 V2000
    6.6250    0.5380   -2.1150 N   0  0  0  0  0  0  0  0  0  0  0  0
    5.6140    0.4700   -1.5540 C   0  0  0  0  0  0  0  0  0  0  0  0
    4.3700    0.4070   -0.8510 C   0  0  0  0  0  0  0  0  0  0  0  0
    4.1610   -0.5800    0.1000 C   0  0  0  0  0  0  0  0  0  0  0  0
    5.2220   -1.4940    0.3250 N   0  0  0  0  0  0  0  0  0  0  0  0
    3.0180   -0.6490    0.7550 O   0  0  0  0  0  0  0  0  0  0  0  0
    2.0500    0.2180    0.5210 C   0  0  0  0  0  0  0  0  0  0  0  0
    0.8440    0.1570    1.2030 C   0  0  0  0  0  0  0  0  0  0  0  0
   -0.1730    1.0490    0.9740 C   0  0  0  0  0  0  0  0  0  0  0  0
   -1.7060    0.9550    1.8540 S   0  0  0  0  0  0  0  0  0  0  0  0
   -2.9010   -0.0730    1.0270 C   0  0  0  0  0  0  0  0  0  0  0  0
   -2.6820   -0.6790   -0.0800 N   0  0  0  0  0  0  0  0  0  0  0  0
   -3.7280   -1.4650   -0.6230 C   0  0  0  0  0  0  0  0  0  0  0  0
   -5.1080   -0.9480   -0.3310 C   0  0  0  0  0  0  0  0  0  0  0  0
   -5.1680    0.0520    0.6040 O   0  0  0  0  0  0  0  0  0  0  0  0
   -4.2480   -0.2620    1.6310 C   0  0  0  0  0  0  0  0  0  0  0  0
    0.0160    2.0330    0.0360 C   0  0  0  0  0  0  0  0  0  0  0  0
    1.2100    2.1350   -0.6740 C   0  0  0  0  0  0  0  0  0  0  0  0
    2.1950    1.2220   -0.4100 C   0  0  0  0  0  0  0  0  0  0  0  0
    3.3770    1.3240   -1.1130 C   0  0  0  0  0  0  0  0  0  0  0  0
    3.5440    2.2200   -1.9650 O   0  0  0  0  0  0  0  0  0  0  0  0
  1  2  3  0
  2  3  1  0
  3  4  2  0
  3 20  1  0
  4  5  1  0
  4  6  1  0
  6  7  1  0
  7  8  2  0
  7 19  1  0
  8  9  1  0
  9 10  1  0
  9 17  2  0
 10 11  1  0
 11 12  2  0
 11 16  1  0
 12 13  1  0
 13 14  1  0
 14 15  1  0
 15 16  1  0
 17 18  1  0
 18 19  2  0
 19 20  1  0
 20 21  2  0
M  CHG  1  12   1
M  END
