
     RDKit          3D

 21 23  0  0  0  0  0  0  0  0999 V2000
    6.9080    1.4720   -0.4530 C   0  0  0  0  0  0  0  0  0  0  0  0
    6.2210    0.2310   -0.2390 O   0  0  0  0  0  0  0  0  0  0  0  0
    4.8490    0.1730   -0.2630 C   0  0  0  0  0  0  0  0  0  0  0  0
    4.1990    1.2160   -0.4740 O   0  0  0  0  0  0  0  0  0  0  0  0
    4.1490   -1.1230   -0.0400 C   0  0  0  0  0  0  0  0  0  0  0  0
    2.6450   -0.8980   -0.1200 C   0  0  0  0  0  0  0  0  0  0  0  0
    2.2280    0.2570   -0.3460 O   0  0  0  0  0  0  0  0  0  0  0  0
    1.7570   -1.9690    0.0570 N   0  0  0  0  0  0  0  0  0  0  0  0
    0.3580   -1.8850    0.0090 C   0  0  0  0  0  0  0  0  0  0  0  0
   -0.3270   -3.1100   -0.0090 C   0  0  0  0  0  0  0  0  0  0  0  0
   -1.6930   -3.0790   -0.0430 C   0  0  0  0  0  0  0  0  0  0  0  0
   -2.4160   -1.9050   -0.0600 C   0  0  0  0  0  0  0  0  0  0  0  0
   -1.7760   -0.6880   -0.0420 C   0  0  0  0  0  0  0  0  0  0  0  0
   -0.3750   -0.7240   -0.0070 C   0  0  0  0  0  0  0  0  0  0  0  0
   -2.4960    0.5200   -0.0560 N   0  0  0  0  0  0  0  0  0  0  0  0
   -2.1380    1.8020   -0.6430 C   0  0  0  0  0  0  0  0  0  0  0  0
   -2.9120    2.7520    0.2780 C   0  0  0  0  0  0  0  0  0  0  0  0
   -4.1350    2.0180    0.5740 N   0  0  0  0  0  0  0  0  0  0  0  0
   -3.8170    0.6290    0.5820 C   0  0  1  0  0  0  0  0  0  0  0  0
   -4.7610   -0.1990   -0.2710 C   0  0  0  0  0  0  0  0  0  0  0  0
   -4.2110   -1.9210   -0.1080 S   0  0  0  0  0  0  0  0  0  0  0  0
  1  2  1  0
  2  3  1  0
  3  4  2  0
  3  5  1  0
  5  6  1  0
  6  7  2  0
  6  8  1  0
  8  9  1  0
  9 10  2  0
  9 14  1  0
 10 11  1  0
 11 12  2  0
 12 13  1  0
 12 21  1  0
 13 14  2  0
 13 15  1  0
 15 16  1  0
 15 19  1  0
 16 17  1  0
 17 18  1  0
 18 19  1  0
 19 20  1  6
 20 21  1  0
M  CHG  1  18   1
M  END
