
     RDKit          3D

 21 22  0  0  0  0  0  0  0  0999 V2000
   -2.5350   -3.1190   -1.0210 C   0  0  0  0  0  0  0  0  0  0  0  0
   -1.8940   -2.0120   -0.2670 C   0  0  0  0  0  0  0  0  0  0  0  0
   -2.4370   -0.8530   -0.2550 C   0  0  0  0  0  0  0  0  0  0  0  0
   -3.9910   -0.5550   -1.1450 S   0  0  0  0  0  0  0  0  0  0  0  0
   -4.8960    0.4850    0.0180 N   0  0  0  0  0  0  0  0  0  0  0  0
   -4.2170    0.2900    1.3100 C   0  0  0  0  0  0  0  0  0  0  0  0
   -2.8370    0.9040    1.2960 C   0  0  0  0  0  0  0  0  0  0  0  0
   -2.5300    2.0480    2.0790 C   0  0  0  0  0  0  0  0  0  0  0  0
   -1.4730    2.6860    2.1740 O   0  0  0  0  0  0  0  0  0  0  0  0
   -1.9420    0.3040    0.4860 C   0  0  0  0  0  0  0  0  0  0  0  0
   -0.6040    0.6860    0.3960 N   0  0  0  0  0  0  0  0  0  0  0  0
    0.4210    0.1840   -0.4360 C   0  0  0  0  0  0  0  0  0  0  0  0
    0.1520   -0.7220   -1.2550 O   0  0  0  0  0  0  0  0  0  0  0  0
    1.7740    0.6230   -0.4300 N   0  0  0  0  0  0  0  0  0  0  0  0
    2.1580    1.6960    0.4590 C   0  0  0  0  0  0  0  0  0  0  0  0
    3.2850    2.5050   -0.1820 C   0  0  0  0  0  0  0  0  0  0  0  0
    3.2770    2.3080   -1.5590 O   0  0  0  0  0  0  0  0  0  0  0  0
    3.6900    1.0300   -1.8750 C   0  0  0  0  0  0  0  0  0  0  0  0
    2.7650    0.0310   -1.2580 C   0  0  1  0  0  0  0  0  0  0  0  0
    3.6030   -1.0080   -0.5390 C   0  0  0  0  0  0  0  0  0  0  0  0
    2.6600   -2.0860   -0.0620 C   0  0  0  0  0  0  0  0  0  0  0  0
  1  2  1  0
  2  3  2  3
  3  4  1  0
  3 10  1  0
  4  5  1  0
  5  6  1  0
  6  7  1  0
  7  8  1  0
  7 10  2  0
  8  9  2  0
 10 11  1  0
 11 12  1  0
 12 13  2  0
 12 14  1  0
 14 15  1  0
 14 19  1  0
 15 16  1  0
 16 17  1  0
 17 18  1  0
 18 19  1  0
 19 20  1  1
 20 21  1  0
M  CHG  1   5   1
M  END
