
     RDKit          3D

 21 22  0  0  0  0  0  0  0  0999 V2000
   -2.7610   -0.5370   -1.9550 C   0  0  0  0  0  0  0  0  0  0  0  0
   -3.2460    0.1420   -0.6720 C   0  0  2  0  0  0  0  0  0  0  0  0
   -4.0870    1.3150   -1.1400 C   0  0  0  0  0  0  0  0  0  0  0  0
   -2.0550    0.5670    0.0660 C   0  0  0  0  0  0  0  0  0  0  0  0
   -1.5550   -0.1500    1.0480 C   0  0  0  0  0  0  0  0  0  0  0  0
   -0.3500    0.3360    1.7510 C   0  0  0  0  0  0  0  0  0  0  0  0
    0.4270    1.8500    1.3880 S   0  0  2  0  0  0  0  0  0  0  0  0
    1.3000    2.2430    2.5800 O   0  0  0  0  0  0  0  0  0  0  0  0
   -0.4880    2.9620    1.0320 O   0  0  0  0  0  0  0  0  0  0  0  0
    1.5350    1.5720    0.0210 C   0  0  0  0  0  0  0  0  0  0  0  0
    2.5790    0.5340    0.3730 C   0  0  0  0  0  0  0  0  0  0  0  0
    3.4660    0.3690   -0.8430 C   0  0  0  0  0  0  0  0  0  0  0  0
    4.5580   -0.6570   -0.6020 C   0  0  0  0  0  0  0  0  0  0  0  0
    5.3390   -0.7300   -1.8260 N   0  0  0  0  0  0  0  0  0  0  0  0
    0.1190   -0.4390    2.7340 C   0  0  0  0  0  0  0  0  0  0  0  0
   -0.5090   -1.6910    3.1030 C   0  0  0  0  0  0  0  0  0  0  0  0
   -1.5630   -2.1450    2.5120 N   0  0  0  0  0  0  0  0  0  0  0  0
   -2.1140   -1.3990    1.4780 N   0  0  0  0  0  0  0  0  0  0  0  0
   -3.2790   -1.8490    0.7750 C   0  0  0  0  0  0  0  0  0  0  0  0
   -3.6160   -3.0320    0.7500 O   0  0  0  0  0  0  0  0  0  0  0  0
   -4.1170   -0.8360    0.0450 C   0  0  0  0  0  0  0  0  0  0  0  0
  2  1  1  6
  2  3  1  0
  2  4  1  0
  2 21  1  0
  4  5  2  0
  5  6  1  0
  5 18  1  0
  6  7  1  0
  6 15  2  0
  7  8  2  0
  7  9  2  0
  7 10  1  6
 10 11  1  0
 11 12  1  0
 12 13  1  0
 13 14  1  0
 15 16  1  0
 16 17  2  0
 17 18  1  0
 18 19  1  0
 19 20  2  0
 19 21  1  0
M  CHG  1  14   1
M  END
