
     RDKit          3D

 25 28  0  0  0  0  0  0  0  0999 V2000
    6.1230   -0.5480    0.4040 O   0  0  0  0  0  0  0  0  0  0  0  0
    4.7260   -0.6370    0.5720 C   0  0  0  0  0  0  0  0  0  0  0  0
    4.0300   -0.0740   -0.6410 C   0  0  0  0  0  0  0  0  0  0  0  0
    2.6010   -0.1510   -0.4960 N   0  0  0  0  0  0  0  0  0  0  0  0
    1.9790   -1.4020   -0.4420 C   0  0  0  0  0  0  0  0  0  0  0  0
    2.7370   -2.5410   -0.5380 N   0  0  0  0  0  0  0  0  0  0  0  0
    2.1710   -3.7500   -0.4920 C   0  0  0  0  0  0  0  0  0  0  0  0
    0.8460   -3.8400   -0.3500 N   0  0  0  0  0  0  0  0  0  0  0  0
    0.0270   -2.7690   -0.2490 C   0  0  0  0  0  0  0  0  0  0  0  0
   -1.2460   -2.6000   -0.1090 O   0  0  0  0  0  0  0  0  0  0  0  0
   -1.5780   -1.3430   -0.0580 C   0  0  0  0  0  0  0  0  0  0  0  0
   -2.8930   -0.7380    0.0910 C   0  0  0  0  0  0  0  0  0  0  0  0
   -3.4440    0.0280   -0.9130 C   0  0  0  0  0  0  0  0  0  0  0  0
   -4.7030    0.6110   -0.7740 C   0  0  0  0  0  0  0  0  0  0  0  0
   -5.4430    0.4390    0.3770 C   0  0  0  0  0  0  0  0  0  0  0  0
   -4.8990   -0.3270    1.3870 C   0  0  0  0  0  0  0  0  0  0  0  0
   -3.6470   -0.9010    1.2390 C   0  0  0  0  0  0  0  0  0  0  0  0
   -0.4010   -0.6100   -0.1760 C   0  0  0  0  0  0  0  0  0  0  0  0
   -0.3370    0.8210   -0.1640 C   0  0  0  0  0  0  0  0  0  0  0  0
   -0.2080    1.5690    1.0080 C   0  0  0  0  0  0  0  0  0  0  0  0
   -0.1710    2.9380    1.0310 C   0  0  0  0  0  0  0  0  0  0  0  0
   -0.2610    3.6500   -0.1410 C   0  0  0  0  0  0  0  0  0  0  0  0
   -0.3890    2.9520   -1.3220 C   0  0  0  0  0  0  0  0  0  0  0  0
   -0.4260    1.5770   -1.3360 C   0  0  0  0  0  0  0  0  0  0  0  0
    0.6190   -1.5070   -0.2970 C   0  0  0  0  0  0  0  0  0  0  0  0
  1  2  1  0
  2  3  1  0
  3  4  1  0
  4  5  1  0
  5  6  2  0
  5 25  1  0
  6  7  1  0
  7  8  2  0
  8  9  1  0
  9 10  1  0
  9 25  2  0
 10 11  1  0
 11 12  1  0
 11 18  2  0
 12 13  2  0
 12 17  1  0
 13 14  1  0
 14 15  2  0
 15 16  1  0
 16 17  2  0
 18 19  1  0
 18 25  1  0
 19 20  2  0
 19 24  1  0
 20 21  1  0
 21 22  2  0
 22 23  1  0
 23 24  2  0
M  END
