
     RDKit          3D

 25 28  0  0  0  0  0  0  0  0999 V2000
   -5.4020    1.4000    0.6350 C   0  0  0  0  0  0  0  0  0  0  0  0
   -4.1960    1.1300   -0.3010 C   0  0  0  0  0  0  0  0  0  0  0  0
   -4.2750   -0.2090   -0.8680 C   0  0  0  0  0  0  0  0  0  0  0  0
   -4.8040   -0.4480   -2.1060 N   0  0  0  0  0  0  0  0  0  0  0  0
   -4.8300   -1.7490   -2.3320 N   0  0  0  0  0  0  0  0  0  0  0  0
   -4.3250   -2.3790   -1.2650 C   0  0  0  0  0  0  0  0  0  0  0  0
   -3.9620   -1.4020   -0.3200 C   0  0  0  0  0  0  0  0  0  0  0  0
   -3.2940   -1.7220    0.9410 C   0  0  0  0  0  0  0  0  0  0  0  0
   -1.8240   -1.8730    0.8930 C   0  0  0  0  0  0  0  0  0  0  0  0
   -1.0780   -0.7440    0.4290 N   0  0  0  0  0  0  0  0  0  0  0  0
    0.3460   -0.8320    0.3820 C   0  0  0  0  0  0  0  0  0  0  0  0
    0.8230   -1.9550    0.7790 O   0  0  0  0  0  0  0  0  0  0  0  0
    1.2360    0.2120   -0.0600 C   0  0  0  0  0  0  0  0  0  0  0  0
    0.9870    1.4110   -0.6440 C   0  0  0  0  0  0  0  0  0  0  0  0
   -0.3190    2.0030   -1.0390 C   0  0  0  0  0  0  0  0  0  0  0  0
    2.1390    2.0220   -0.8290 O   0  0  0  0  0  0  0  0  0  0  0  0
    3.1490    1.3010   -0.4030 C   0  0  0  0  0  0  0  0  0  0  0  0
    4.5090    1.5230   -0.3870 C   0  0  0  0  0  0  0  0  0  0  0  0
    5.3740    0.5680    0.1350 C   0  0  0  0  0  0  0  0  0  0  0  0
    4.8780   -0.6090    0.6410 C   0  0  0  0  0  0  0  0  0  0  0  0
    3.5050   -0.7870    0.6040 C   0  0  0  0  0  0  0  0  0  0  0  0
    2.6260    0.1430    0.0930 C   0  0  0  0  0  0  0  0  0  0  0  0
    5.8730   -1.3590    1.0800 C   0  0  0  0  0  0  0  0  0  0  0  0
    7.1440   -0.6420    0.8580 C   0  0  0  0  0  0  0  0  0  0  0  0
    6.6910    0.6050    0.2390 C   0  0  0  0  0  0  0  0  0  0  0  0
  1  2  1  0
  2  3  1  0
  3  4  2  0
  3  7  1  0
  4  5  1  0
  5  6  1  0
  6  7  2  0
  7  8  1  0
  8  9  1  0
  9 10  1  0
 10 11  1  0
 11 12  2  0
 11 13  1  0
 13 14  2  0
 13 22  1  0
 14 15  1  0
 14 16  1  0
 16 17  1  0
 17 18  2  0
 17 22  1  0
 18 19  1  0
 19 20  1  0
 19 25  2  0
 20 21  1  0
 20 23  2  0
 21 22  2  0
 23 24  1  0
 24 25  1  0
M  END
