
     RDKit          3D

 25 28  0  0  0  0  0  0  0  0999 V2000
   -1.8260   -4.9420   -1.0750 C   0  0  0  0  0  0  0  0  0  0  0  0
   -0.7940   -4.8240    0.0200 C   0  0  0  0  0  0  0  0  0  0  0  0
    0.0650   -3.6460   -0.1460 N   0  0  0  0  0  0  0  0  0  0  0  0
   -0.5150   -2.3560   -0.1050 C   0  0  0  0  0  0  0  0  0  0  0  0
   -1.8440   -2.2340    0.1380 N   0  0  0  0  0  0  0  0  0  0  0  0
   -2.4910   -1.0680    0.2290 C   0  0  0  0  0  0  0  0  0  0  0  0
   -3.7560   -0.7140    0.4570 N   0  0  0  0  0  0  0  0  0  0  0  0
   -3.8940    0.6120    0.4520 C   0  0  0  0  0  0  0  0  0  0  0  0
   -5.1560    1.3660    0.6710 C   0  0  0  0  0  0  0  0  0  0  0  0
   -2.6620    1.1570    0.2080 C   0  0  0  0  0  0  0  0  0  0  0  0
   -2.3340    2.6150    0.1100 C   0  0  0  0  0  0  0  0  0  0  0  0
   -1.7740    0.0980    0.0680 C   0  0  0  0  0  0  0  0  0  0  0  0
   -0.4280    0.0430   -0.1810 C   0  0  0  0  0  0  0  0  0  0  0  0
    0.2100   -1.1960   -0.2680 C   0  0  0  0  0  0  0  0  0  0  0  0
    1.6020   -1.1790   -0.6240 C   0  0  0  0  0  0  0  0  0  0  0  0
    2.1970   -2.2270   -0.9580 O   0  0  0  0  0  0  0  0  0  0  0  0
    2.4050    0.0210   -0.6220 C   0  0  0  0  0  0  0  0  0  0  0  0
    3.3660    0.2500   -1.6180 C   0  0  0  0  0  0  0  0  0  0  0  0
    4.1730    1.3600   -1.5580 C   0  0  0  0  0  0  0  0  0  0  0  0
    4.0820    2.2850   -0.5410 C   0  0  0  0  0  0  0  0  0  0  0  0
    3.1490    2.0800    0.4440 C   0  0  0  0  0  0  0  0  0  0  0  0
    2.3320    0.9540    0.3830 C   0  0  0  0  0  0  0  0  0  0  0  0
    3.2540    3.1940    1.3970 C   0  0  0  0  0  0  0  0  0  0  0  0
    4.5500    3.8620    1.0490 C   0  0  0  0  0  0  0  0  0  0  0  0
    4.7930    3.4690   -0.2880 O   0  0  0  0  0  0  0  0  0  0  0  0
  1  2  1  0
  2  3  1  0
  3  4  1  0
  4  5  2  0
  4 14  1  0
  5  6  1  0
  6  7  1  0
  6 12  2  0
  7  8  1  0
  8  9  1  0
  8 10  2  0
 10 11  1  0
 10 12  1  0
 12 13  1  0
 13 14  2  0
 14 15  1  0
 15 16  2  0
 15 17  1  0
 17 18  2  0
 17 22  1  0
 18 19  1  0
 19 20  2  0
 20 21  1  0
 20 25  1  0
 21 22  2  0
 21 23  1  0
 23 24  1  0
 24 25  1  0
M  END
