
     RDKit          3D

 25 28  0  0  0  0  0  0  0  0999 V2000
   -4.5520    0.1260   -2.1410 C   0  0  0  0  0  0  0  0  0  0  0  0
   -4.5160   -1.3160   -1.7190 C   0  0  1  0  0  0  0  0  0  0  0  0
   -3.8990   -1.6340   -0.5040 N   0  0  0  0  0  0  0  0  0  0  0  0
   -2.5300   -1.4470   -0.2870 C   0  0  0  0  0  0  0  0  0  0  0  0
   -2.1180   -0.0190   -0.2270 C   0  0  0  0  0  0  0  0  0  0  0  0
   -0.6400    0.1120    0.0390 C   0  0  0  0  0  0  0  0  0  0  0  0
    0.3500    0.1740   -0.8580 N   0  0  0  0  0  0  0  0  0  0  0  0
    1.5390    0.2870   -0.2060 C   0  0  0  0  0  0  0  0  0  0  0  0
    2.8610    0.3870   -0.5810 C   0  0  0  0  0  0  0  0  0  0  0  0
    3.8550    0.4900    0.3600 C   0  0  0  0  0  0  0  0  0  0  0  0
    3.4980    0.4910    1.6990 C   0  0  0  0  0  0  0  0  0  0  0  0
    2.1860    0.3920    2.1050 C   0  0  0  0  0  0  0  0  0  0  0  0
    1.2100    0.2900    1.1360 C   0  0  0  0  0  0  0  0  0  0  0  0
   -0.1270    0.1830    1.2710 N   0  0  0  0  0  0  0  0  0  0  0  0
    4.5710    0.5920    2.7040 C   0  0  0  0  0  0  0  0  0  0  0  0
    5.5130    1.6950    2.3220 C   0  0  0  0  0  0  0  0  0  0  0  0
    5.9270    1.6270    0.9070 C   0  0  0  0  0  0  0  0  0  0  0  0
    6.8370    2.4630    0.4620 C   0  0  0  0  0  0  0  0  0  0  0  0
    7.2360    2.4030   -0.8870 N   0  0  0  0  0  0  0  0  0  0  0  0
    5.3110    0.6110   -0.0310 C   0  0  0  0  0  0  0  0  0  0  0  0
   -5.9480   -1.7940   -1.6640 C   0  0  0  0  0  0  0  0  0  0  0  0
   -6.7660   -1.5960   -0.5760 C   0  0  0  0  0  0  0  0  0  0  0  0
   -7.9870   -2.1620   -0.8840 C   0  0  0  0  0  0  0  0  0  0  0  0
   -7.8480   -2.6800   -2.1550 C   0  0  0  0  0  0  0  0  0  0  0  0
   -6.6310   -2.4410   -2.5760 O   0  0  0  0  0  0  0  0  0  0  0  0
  2  1  1  1
  2  3  1  0
  2 21  1  0
  3  4  1  0
  4  5  1  0
  5  6  1  0
  6  7  2  0
  6 14  1  0
  7  8  1  0
  8  9  2  0
  8 13  1  0
  9 10  1  0
 10 11  2  0
 10 20  1  0
 11 12  1  0
 11 15  1  0
 12 13  2  0
 13 14  1  0
 15 16  1  0
 16 17  1  0
 17 18  2  3
 17 20  1  0
 18 19  1  0
 21 22  2  0
 21 25  1  0
 22 23  1  0
 23 24  2  0
 24 25  1  0
M  END
