
     RDKit          3D

 25 28  0  0  0  0  0  0  0  0999 V2000
   -5.1040   -2.5920    0.8790 C   0  0  0  0  0  0  0  0  0  0  0  0
   -4.1410   -1.5210    0.4870 C   0  0  0  0  0  0  0  0  0  0  0  0
   -4.5590   -0.4520   -0.3040 C   0  0  0  0  0  0  0  0  0  0  0  0
   -3.6880    0.5420   -0.6740 C   0  0  0  0  0  0  0  0  0  0  0  0
   -2.3510    0.5010   -0.2620 C   0  0  0  0  0  0  0  0  0  0  0  0
   -1.9120   -0.5600    0.5300 C   0  0  0  0  0  0  0  0  0  0  0  0
   -0.6750   -0.8620    1.0770 C   0  0  0  0  0  0  0  0  0  0  0  0
    0.5520   -0.0870    0.9460 C   0  0  0  0  0  0  0  0  0  0  0  0
    1.6670   -0.5000    1.5270 C   0  0  0  0  0  0  0  0  0  0  0  0
    2.9170    0.2270    1.4320 C   0  0  0  0  0  0  0  0  0  0  0  0
    3.9380   -0.2630    2.0340 O   0  0  0  0  0  0  0  0  0  0  0  0
    3.0650    1.4440    0.7130 N   0  0  0  0  0  0  0  0  0  0  0  0
    4.3300    2.1080    0.6610 C   0  0  0  0  0  0  0  0  0  0  0  0
    5.2720    1.4360   -0.2730 C   0  0  0  0  0  0  0  0  0  0  0  0
    4.8850    0.3250   -1.0010 C   0  0  0  0  0  0  0  0  0  0  0  0
    5.8100   -0.2500   -1.8480 C   0  0  0  0  0  0  0  0  0  0  0  0
    7.0820    0.2710   -1.9630 C   0  0  0  0  0  0  0  0  0  0  0  0
    7.4110    1.3790   -1.2130 C   0  0  0  0  0  0  0  0  0  0  0  0
    6.5110    1.9420   -0.3860 N   0  0  0  0  0  0  0  0  0  0  0  0
   -0.8680   -2.0490    1.7650 C   0  0  0  0  0  0  0  0  0  0  0  0
   -2.1490   -2.4260    1.6300 N   0  0  0  0  0  0  0  0  0  0  0  0
   -2.8200   -1.5330    0.8760 C   0  0  0  0  0  0  0  0  0  0  0  0
   -4.3850    1.5500   -1.5070 C   0  0  0  0  0  0  0  0  0  0  0  0
   -5.8430    1.2500   -1.2390 C   0  0  0  0  0  0  0  0  0  0  0  0
   -5.8400   -0.1670   -0.8530 N   0  0  0  0  0  0  0  0  0  0  0  0
  1  2  1  0
  2  3  2  0
  2 22  1  0
  3  4  1  0
  3 25  1  0
  4  5  2  0
  4 23  1  0
  5  6  1  0
  6  7  1  0
  6 22  2  0
  7  8  1  0
  7 20  2  0
  8  9  2  3
  9 10  1  0
 10 11  2  0
 10 12  1  0
 12 13  1  0
 13 14  1  0
 14 15  2  0
 14 19  1  0
 15 16  1  0
 16 17  2  0
 17 18  1  0
 18 19  2  0
 20 21  1  0
 21 22  1  0
 23 24  1  0
 24 25  1  0
M  END
