
     RDKit          3D

 23 25  0  0  0  0  0  0  0  0999 V2000
    6.1220    1.3280    0.5700 C   0  0  0  0  0  0  0  0  0  0  0  0
    4.8130    1.4860   -0.1830 C   0  0  0  0  0  0  0  0  0  0  0  0
    3.7300    0.8370    0.6360 C   0  0  2  0  0  0  0  0  0  0  0  0
    3.9830   -0.6270    0.8720 C   0  0  0  0  0  0  0  0  0  0  0  0
    2.6070   -1.1850    0.9390 C   0  0  0  0  0  0  0  0  0  0  0  0
    2.3260   -2.3920    1.5830 O   0  0  0  0  0  0  0  0  0  0  0  0
    1.7450   -0.3940    0.3250 C   0  0  0  0  0  0  0  0  0  0  0  0
    0.3070   -0.5610    0.1560 C   0  0  0  0  0  0  0  0  0  0  0  0
   -0.5850    0.5100    0.2510 C   0  0  0  0  0  0  0  0  0  0  0  0
   -1.9440    0.3410    0.0900 C   0  0  0  0  0  0  0  0  0  0  0  0
   -2.4810   -0.8990   -0.1730 C   0  0  0  0  0  0  0  0  0  0  0  0
   -1.6240   -1.9530   -0.2680 C   0  0  0  0  0  0  0  0  0  0  0  0
   -0.2410   -1.7970   -0.1070 C   0  0  0  0  0  0  0  0  0  0  0  0
    0.5410   -2.9400   -0.2240 O   0  0  0  0  0  0  0  0  0  0  0  0
   -0.0030   -4.2000   -0.4900 C   0  0  0  0  0  0  0  0  0  0  0  0
   -3.9600   -1.0320   -0.3410 C   0  0  0  0  0  0  0  0  0  0  0  0
   -4.5650    0.1030   -1.1000 C   0  0  0  0  0  0  0  0  0  0  0  0
   -3.8120    1.3880   -1.0160 C   0  0  0  0  0  0  0  0  0  0  0  0
   -2.8900    1.4790    0.1890 C   0  0  2  0  0  0  0  0  0  0  0  0
   -2.1870    2.8120    0.1090 C   0  0  0  0  0  0  0  0  0  0  0  0
   -3.6760    1.4500    1.4840 C   0  0  0  0  0  0  0  0  0  0  0  0
    2.4830    0.7650   -0.2010 C   0  0  0  0  0  0  0  0  0  0  0  0
    2.2160    1.5510   -1.1140 O   0  0  0  0  0  0  0  0  0  0  0  0
  1  2  1  0
  3  2  1  6
  3  4  1  0
  3 22  1  0
  4  5  1  0
  5  6  1  0
  5  7  2  0
  7  8  1  0
  7 22  1  0
  8  9  2  0
  8 13  1  0
  9 10  1  0
 10 11  2  0
 10 19  1  0
 11 12  1  0
 11 16  1  0
 12 13  2  0
 13 14  1  0
 14 15  1  0
 16 17  1  0
 17 18  1  0
 18 19  1  0
 19 20  1  6
 19 21  1  0
 22 23  2  0
M  END
