
     RDKit          3D

 25 27  0  0  0  0  0  0  0  0999 V2000
   -4.3640   -0.2900    0.7390 C   0  0  0  0  0  0  0  0  0  0  0  0
   -3.2420    0.5110    0.2160 C   0  0  0  0  0  0  0  0  0  0  0  0
   -2.3310   -0.0350   -0.6650 C   0  0  0  0  0  0  0  0  0  0  0  0
   -1.2510    0.6540   -1.1910 C   0  0  0  0  0  0  0  0  0  0  0  0
   -0.3780    0.0770   -2.0420 N   0  0  0  0  0  0  0  0  0  0  0  0
    0.3160   -0.3350   -2.8550 C   0  0  0  0  0  0  0  0  0  0  0  0
    1.3470   -1.3950   -2.7420 C   0  0  0  0  0  0  0  0  0  0  0  0
    1.5410   -2.0190   -1.6070 C   0  0  0  0  0  0  0  0  0  0  0  0
    0.7870   -1.7150   -0.4730 N   0  0  0  0  0  0  0  0  0  0  0  0
    1.3930   -1.1180    0.6840 C   0  0  0  0  0  0  0  0  0  0  0  0
    2.4970   -1.3790    1.1250 N   0  0  0  0  0  0  0  0  0  0  0  0
    3.5730   -2.1670    0.8900 C   0  0  0  0  0  0  0  0  0  0  0  0
    3.6570   -3.4230    1.5330 C   0  0  0  0  0  0  0  0  0  0  0  0
    4.7450   -4.1990    1.3260 C   0  0  0  0  0  0  0  0  0  0  0  0
    5.7970   -3.8530    0.5160 C   0  0  0  0  0  0  0  0  0  0  0  0
    5.7410   -2.6080   -0.1370 C   0  0  0  0  0  0  0  0  0  0  0  0
    4.6460   -1.8240    0.0710 C   0  0  0  0  0  0  0  0  0  0  0  0
    4.5540   -0.5870   -0.5600 O   0  0  0  0  0  0  0  0  0  0  0  0
   -1.0860    2.0100   -0.7910 C   0  0  0  0  0  0  0  0  0  0  0  0
   -1.9700    2.5560    0.0710 C   0  0  0  0  0  0  0  0  0  0  0  0
   -3.0480    1.8180    0.5750 C   0  0  0  0  0  0  0  0  0  0  0  0
   -3.9140    2.5670    1.5010 C   0  0  0  0  0  0  0  0  0  0  0  0
   -4.3450    3.7780    0.8350 N   0  0  0  0  0  0  0  0  0  0  0  0
   -3.2910    4.5380    0.2460 C   0  0  0  0  0  0  0  0  0  0  0  0
   -1.9030    3.9560    0.5580 C   0  0  0  0  0  0  0  0  0  0  0  0
  1  2  1  0
  2  3  2  0
  2 21  1  0
  3  4  1  0
  4  5  1  0
  4 19  2  0
  5  6  2  3
  6  7  1  0
  7  8  2  3
  8  9  1  0
  9 10  1  0
 10 11  2  3
 11 12  1  0
 12 13  2  0
 12 17  1  0
 13 14  1  0
 14 15  2  0
 15 16  1  0
 16 17  2  0
 17 18  1  0
 19 20  1  0
 20 21  2  0
 20 25  1  0
 21 22  1  0
 22 23  1  0
 23 24  1  0
 24 25  1  0
M  END
