
     RDKit          3D

 32 35  0  0  0  0  0  0  0  0999 V2000
   -6.6250   -2.2110    0.8300 C   0  0  0  0  0  0  0  0  0  0  0  0
   -5.2730   -2.3180    0.4420 O   0  0  0  0  0  0  0  0  0  0  0  0
   -4.6080   -1.2160   -0.1010 C   0  0  0  0  0  0  0  0  0  0  0  0
   -5.2590   -0.0180   -0.2530 C   0  0  0  0  0  0  0  0  0  0  0  0
   -4.5800    1.0390   -0.7850 C   0  0  0  0  0  0  0  0  0  0  0  0
   -3.2450    0.8900   -1.1670 C   0  0  0  0  0  0  0  0  0  0  0  0
   -2.5860    2.0470   -1.6870 C   0  0  0  0  0  0  0  0  0  0  0  0
   -2.0390    2.9890   -2.1160 N   0  0  0  0  0  0  0  0  0  0  0  0
   -2.6230   -0.3180   -1.0050 C   0  0  0  0  0  0  0  0  0  0  0  0
   -3.2580   -1.4190   -0.4710 C   0  0  0  0  0  0  0  0  0  0  0  0
   -2.6770   -2.6790   -0.2850 N   0  0  0  0  0  0  0  0  0  0  0  0
   -1.3620   -2.9990   -0.6210 C   0  0  0  0  0  0  0  0  0  0  0  0
   -0.2600   -2.6200   -0.0230 C   0  0  0  0  0  0  0  0  0  0  0  0
    1.1230   -3.0380   -0.4760 C   0  0  0  0  0  0  0  0  0  0  0  0
    1.6960   -3.3400    0.9230 C   0  0  2  0  0  0  0  0  0  0  0  0
    1.0070   -4.4950    1.4160 N   0  0  0  0  0  0  0  0  0  0  0  0
    1.3180   -2.1120    1.6290 N   0  0  0  0  0  0  0  0  0  0  0  0
    2.0920   -1.3850    2.6010 C   0  0  0  0  0  0  0  0  0  0  0  0
    3.1820   -0.1970    1.8370 S   0  0  0  0  0  0  0  0  0  0  0  0
    2.2210    1.1540    1.1090 C   0  0  0  0  0  0  0  0  0  0  0  0
    3.1440    2.0270    0.3550 C   0  0  0  0  0  0  0  0  0  0  0  0
    4.4760    1.7090    0.2800 C   0  0  0  0  0  0  0  0  0  0  0  0
    5.3870    2.4740   -0.4310 C   0  0  0  0  0  0  0  0  0  0  0  0
    7.0590    1.9760   -0.4580 Cl  0  0  0  0  0  0  0  0  0  0  0  0
    4.9100    3.5990   -1.0820 C   0  0  0  0  0  0  0  0  0  0  0  0
    3.5640    3.9570   -1.0290 C   0  0  0  0  0  0  0  0  0  0  0  0
    2.7150    3.1540   -0.3050 C   0  0  0  0  0  0  0  0  0  0  0  0
    1.4070    3.7260   -0.3850 N   0  0  0  0  0  0  0  0  0  0  0  0
    1.3700    4.6190   -1.5350 C   0  0  0  0  0  0  0  0  0  0  0  0
    2.8080    5.0780   -1.6470 C   0  0  0  0  0  0  0  0  0  0  0  0
    0.0310   -1.7810    1.1320 C   0  0  0  0  0  0  0  0  0  0  0  0
   -0.7770   -0.9040    1.5860 O   0  0  0  0  0  0  0  0  0  0  0  0
  1  2  1  0
  2  3  1  0
  3  4  2  0
  3 10  1  0
  4  5  1  0
  5  6  2  0
  6  7  1  0
  6  9  1  0
  7  8  3  0
  9 10  2  0
 10 11  1  0
 11 12  1  0
 12 13  2  3
 13 14  1  0
 13 31  1  0
 14 15  1  0
 15 16  1  1
 15 17  1  0
 17 18  1  0
 17 31  1  0
 18 19  1  0
 19 20  1  0
 20 21  1  0
 21 22  2  0
 21 27  1  0
 22 23  1  0
 23 24  1  0
 23 25  2  0
 25 26  1  0
 26 27  2  0
 26 30  1  0
 27 28  1  0
 28 29  1  0
 29 30  1  0
 31 32  2  0
M  CHG  1  16   1
M  END
