
     RDKit          3D

 32 35  0  0  0  0  0  0  0  0999 V2000
   -8.0800   -1.0390    1.3050 C   0  0  0  0  0  0  0  0  0  0  0  0
   -7.2090    0.0920    0.8350 C   0  0  0  0  0  0  0  0  0  0  0  0
   -7.2110    1.2850    1.5260 C   0  0  0  0  0  0  0  0  0  0  0  0
   -6.4200    2.3360    1.1130 C   0  0  0  0  0  0  0  0  0  0  0  0
   -6.4040    3.5570    1.7970 O   0  0  0  0  0  0  0  0  0  0  0  0
   -5.6350    2.1490   -0.0040 C   0  0  0  0  0  0  0  0  0  0  0  0
   -5.6320    0.9380   -0.7060 C   0  0  0  0  0  0  0  0  0  0  0  0
   -4.7760    0.7660   -1.9120 C   0  0  0  0  0  0  0  0  0  0  0  0
   -3.4040    0.4550   -1.5930 N   0  0  0  0  0  0  0  0  0  0  0  0
   -2.9900   -0.8410   -1.1670 C   0  0  0  0  0  0  0  0  0  0  0  0
   -3.8550   -1.7740   -1.0590 O   0  0  0  0  0  0  0  0  0  0  0  0
   -1.6180   -1.1740   -0.8400 C   0  0  0  0  0  0  0  0  0  0  0  0
   -1.3060   -2.4210   -0.3420 C   0  0  0  0  0  0  0  0  0  0  0  0
   -0.0170   -2.8130   -0.0060 C   0  0  0  0  0  0  0  0  0  0  0  0
    0.2330   -4.1870    0.5280 C   0  0  0  0  0  0  0  0  0  0  0  0
    0.9600   -1.9320   -0.1780 N   0  0  0  0  0  0  0  0  0  0  0  0
    0.7390   -0.7010   -0.6570 C   0  0  0  0  0  0  0  0  0  0  0  0
    1.8640    0.2600   -0.8340 C   0  0  0  0  0  0  0  0  0  0  0  0
    2.0570    1.2310    0.6730 S   0  0  0  0  0  0  0  0  0  0  0  0
    3.4280    2.4000    0.4810 C   0  0  0  0  0  0  0  0  0  0  0  0
    4.7210    1.6920    0.3710 C   0  0  0  0  0  0  0  0  0  0  0  0
    5.4960    1.3800    1.4200 N   0  0  0  0  0  0  0  0  0  0  0  0
    6.5880    0.7470    0.9990 C   0  0  0  0  0  0  0  0  0  0  0  0
    6.4640    0.6750   -0.3670 C   0  0  0  0  0  0  0  0  0  0  0  0
    5.3130    1.2590   -0.7360 N   0  0  0  0  0  0  0  0  0  0  0  0
    7.5590    0.0120   -1.0830 C   0  0  0  0  0  0  0  0  0  0  0  0
    7.4300   -0.0960   -2.8230 Cl  0  0  0  0  0  0  0  0  0  0  0  0
    8.5600   -0.4570   -0.3880 C   0  0  0  0  0  0  0  0  0  0  0  0
    8.7430   -0.4130    0.9970 N   0  0  0  0  0  0  0  0  0  0  0  0
    7.7190    0.2120    1.7600 C   0  0  0  0  0  0  0  0  0  0  0  0
   -0.5600   -0.3020   -0.9970 C   0  0  0  0  0  0  0  0  0  0  0  0
   -6.4220   -0.1130   -0.2950 C   0  0  0  0  0  0  0  0  0  0  0  0
  1  2  1  0
  2  3  2  0
  2 32  1  0
  3  4  1  0
  4  5  1  0
  4  6  2  0
  6  7  1  0
  7  8  1  0
  7 32  2  0
  8  9  1  0
  9 10  1  0
 10 11  2  0
 10 12  1  0
 12 13  2  0
 12 31  1  0
 13 14  1  0
 14 15  1  0
 14 16  2  0
 16 17  1  0
 17 18  1  0
 17 31  2  0
 18 19  1  0
 19 20  1  0
 20 21  1  0
 21 22  2  0
 21 25  1  0
 22 23  1  0
 23 24  2  0
 23 30  1  0
 24 25  1  0
 24 26  1  0
 26 27  1  0
 26 28  2  0
 28 29  1  0
 29 30  1  0
M  CHG  1  29   1
M  END
