
     RDKit          3D

 31 34  0  0  0  0  0  0  0  0999 V2000
   -7.4390   -0.4870   -1.0830 C   0  0  0  0  0  0  0  0  0  0  0  0
   -6.0070   -0.3360   -1.5330 C   0  0  0  0  0  0  0  0  0  0  0  0
   -5.4480    0.7970   -0.7940 N   0  0  0  0  0  0  0  0  0  0  0  0
   -5.2080    0.4120    0.5930 C   0  0  2  0  0  0  0  0  0  0  0  0
   -6.1800    1.1160    1.5210 C   0  0  0  0  0  0  0  0  0  0  0  0
   -3.8010    0.8400    0.9440 C   0  0  0  0  0  0  0  0  0  0  0  0
   -2.8770    0.1980    0.0840 N   0  0  0  0  0  0  0  0  0  0  0  0
   -2.7060   -1.2040    0.2200 C   0  0  0  0  0  0  0  0  0  0  0  0
   -1.7400   -1.5820    1.2850 C   0  0  0  0  0  0  0  0  0  0  0  0
   -0.4350   -0.8110    1.1290 C   0  0  1  0  0  0  0  0  0  0  0  0
    0.1440   -1.1740   -0.1280 N   0  0  0  0  0  0  0  0  0  0  0  0
    1.4810   -0.8010   -0.4210 C   0  0  0  0  0  0  0  0  0  0  0  0
    2.3140   -0.2460    0.5110 C   0  0  0  0  0  0  0  0  0  0  0  0
    3.6390    0.0890    0.2020 C   0  0  0  0  0  0  0  0  0  0  0  0
    4.5170    0.6850    1.1990 C   0  0  0  0  0  0  0  0  0  0  0  0
    3.9730    1.3480    2.1260 O   0  0  0  0  0  0  0  0  0  0  0  0
    5.9660    0.5460    1.1650 C   0  0  0  0  0  0  0  0  0  0  0  0
    6.6910   -0.4820    0.6020 C   0  0  0  0  0  0  0  0  0  0  0  0
    8.0340   -0.2100    0.7980 C   0  0  0  0  0  0  0  0  0  0  0  0
    8.0550    0.9880    1.4810 C   0  0  0  0  0  0  0  0  0  0  0  0
    9.2820    1.7010    1.9240 C   0  0  0  0  0  0  0  0  0  0  0  0
    6.8230    1.3930    1.6740 O   0  0  0  0  0  0  0  0  0  0  0  0
    4.0880   -0.1550   -1.0720 C   0  0  0  0  0  0  0  0  0  0  0  0
    3.2790   -0.7180   -2.0500 C   0  0  0  0  0  0  0  0  0  0  0  0
    3.4740   -1.0480   -3.3380 N   0  0  0  0  0  0  0  0  0  0  0  0
    2.3160   -1.5700   -3.8160 C   0  0  0  0  0  0  0  0  0  0  0  0
    1.9990   -2.1270   -5.3000 S   0  0  0  0  0  0  0  0  0  0  0  0
    1.4190   -1.5470   -2.7890 N   0  0  0  0  0  0  0  0  0  0  0  0
    2.0040   -1.0240   -1.7020 C   0  0  0  0  0  0  0  0  0  0  0  0
   -0.7380    0.6880    1.0420 C   0  0  0  0  0  0  0  0  0  0  0  0
   -1.6540    0.8920   -0.1510 C   0  0  0  0  0  0  0  0  0  0  0  0
  1  2  1  0
  2  3  1  0
  3  4  1  0
  4  5  1  1
  4  6  1  0
  6  7  1  0
  7  8  1  0
  7 31  1  0
  8  9  1  0
  9 10  1  0
 10 11  1  6
 10 30  1  0
 11 12  1  0
 12 13  2  0
 12 29  1  0
 13 14  1  0
 14 15  1  0
 14 23  2  0
 15 16  2  0
 15 17  1  0
 17 18  2  0
 17 22  1  0
 18 19  1  0
 19 20  2  0
 20 21  1  0
 20 22  1  0
 23 24  1  0
 24 25  1  0
 24 29  2  0
 25 26  1  0
 26 27  2  0
 26 28  1  0
 28 29  1  0
 30 31  1  0
M  CHG  1   3   1
M  END
