
     RDKit          3D

 32 35  0  0  0  0  0  0  0  0999 V2000
    8.5790   -2.3890   -0.2610 C   0  0  0  0  0  0  0  0  0  0  0  0
    8.7640   -1.0400   -0.7940 C   0  0  0  0  0  0  0  0  0  0  0  0
    7.8000   -0.0620   -0.7350 C   0  0  0  0  0  0  0  0  0  0  0  0
    8.1440    1.1950   -1.3030 C   0  0  0  0  0  0  0  0  0  0  0  0
    7.5530    2.3140   -1.4480 C   0  0  0  0  0  0  0  0  0  0  0  0
    5.9630    2.8200   -0.9820 Cl  0  0  0  0  0  0  0  0  0  0  0  0
    6.5470   -0.4360   -0.0990 C   0  0  2  0  0  0  0  0  0  0  0  0
    5.4600   -0.6560   -1.1200 C   0  0  0  0  0  0  0  0  0  0  0  0
    4.3220   -1.3830   -0.3730 C   0  0  0  0  0  0  0  0  0  0  0  0
    3.7530   -0.2770    0.5090 C   0  0  0  0  0  0  0  0  0  0  0  0
    2.5060    0.0200    0.6960 N   0  0  0  0  0  0  0  0  0  0  0  0
    2.0920    0.9520    1.4410 C   0  0  0  0  0  0  0  0  0  0  0  0
    0.8080    1.4420    1.7840 N   0  0  0  0  0  0  0  0  0  0  0  0
   -0.3600    0.8510    1.2470 C   0  0  0  0  0  0  0  0  0  0  0  0
   -0.2040   -0.1010    0.4740 O   0  0  0  0  0  0  0  0  0  0  0  0
   -1.6610    1.3110    1.5650 N   0  0  0  0  0  0  0  0  0  0  0  0
   -2.8770    0.7950    1.0870 C   0  0  0  0  0  0  0  0  0  0  0  0
   -3.0280   -0.2600    0.2120 C   0  0  0  0  0  0  0  0  0  0  0  0
   -4.2610   -0.7190   -0.2200 C   0  0  0  0  0  0  0  0  0  0  0  0
   -5.4140   -0.0940    0.2440 C   0  0  0  0  0  0  0  0  0  0  0  0
   -6.6940   -0.5180   -0.1760 N   0  0  0  0  0  0  0  0  0  0  0  0
   -6.7890   -1.4350   -1.3260 C   0  0  0  0  0  0  0  0  0  0  0  0
   -8.1830   -1.3050   -1.9180 C   0  0  0  0  0  0  0  0  0  0  0  0
   -8.6570    0.0670   -1.9250 N   0  0  0  0  0  0  0  0  0  0  0  0
   -8.7830    0.6250   -0.5920 C   0  0  0  0  0  0  0  0  0  0  0  0
   -7.9550   -0.1610    0.4110 C   0  0  0  0  0  0  0  0  0  0  0  0
   -5.2940    0.9590    1.1150 C   0  0  0  0  0  0  0  0  0  0  0  0
   -4.0380    1.4080    1.5400 C   0  0  0  0  0  0  0  0  0  0  0  0
   -3.9710    2.4750    2.4200 O   0  0  0  0  0  0  0  0  0  0  0  0
    3.6400    1.6150    2.0540 S   0  0  0  0  0  0  0  0  0  0  0  0
    4.7040    0.4630    1.1590 C   0  0  0  0  0  0  0  0  0  0  0  0
    6.1250    0.3210    1.1050 C   0  0  0  0  0  0  0  0  0  0  0  0
  1  2  1  0
  2  3  2  3
  3  4  1  0
  7  3  1  6
  4  5  2  3
  5  6  1  0
  7  8  1  0
  7 32  1  0
  8  9  1  0
  9 10  1  0
 10 11  1  0
 10 31  2  0
 11 12  2  0
 12 13  1  0
 12 30  1  0
 13 14  1  0
 14 15  2  0
 14 16  1  0
 16 17  1  0
 17 18  2  0
 17 28  1  0
 18 19  1  0
 19 20  2  0
 20 21  1  0
 20 27  1  0
 21 22  1  0
 21 26  1  0
 22 23  1  0
 23 24  1  0
 24 25  1  0
 25 26  1  0
 27 28  2  0
 28 29  1  0
 30 31  1  0
 31 32  1  0
M  CHG  1  24   1
M  END
