
     RDKit          3D

 33 35  0  0  0  0  0  0  0  0999 V2000
   -2.0830   -3.8180    0.9640 C   0  0  0  0  0  0  0  0  0  0  0  0
   -2.3650   -2.3070    0.9430 C   0  0  1  0  0  0  0  0  0  0  0  0
   -1.7010   -1.7920   -0.1230 O   0  0  0  0  0  0  0  0  0  0  0  0
   -2.0210   -0.5300   -0.5100 C   0  0  2  0  0  0  0  0  0  0  0  0
   -1.4290    0.4840    0.2170 O   0  0  0  0  0  0  0  0  0  0  0  0
   -0.6210    1.2990   -0.5570 C   0  0  2  0  0  0  0  0  0  0  0  0
    0.8130    1.2810   -0.0760 C   0  0  1  0  0  0  0  0  0  0  0  0
    1.5900    0.4170   -0.8400 O   0  0  0  0  0  0  0  0  0  0  0  0
    2.1900   -0.5160   -0.0380 C   0  0  1  0  0  0  0  0  0  0  0  0
    1.8440   -1.8970   -0.5480 C   0  0  1  0  0  0  0  0  0  0  0  0
    1.4360   -1.7940   -1.9980 C   0  0  0  0  0  0  0  0  0  0  0  0
    2.4550   -1.2740   -2.7890 O   0  0  0  0  0  0  0  0  0  0  0  0
    2.9600   -2.7470   -0.4870 O   0  0  0  0  0  0  0  0  0  0  0  0
    3.5480   -2.6850    0.7830 C   0  0  1  0  0  0  0  0  0  0  0  0
    4.5120   -3.6840    0.8500 O   0  0  0  0  0  0  0  0  0  0  0  0
    4.2340   -1.3450    1.0100 C   0  0  2  0  0  0  0  0  0  0  0  0
    3.7750   -0.8060    2.2260 O   0  0  0  0  0  0  0  0  0  0  0  0
    3.7150   -0.4140   -0.0820 C   0  0  2  0  0  0  0  0  0  0  0  0
    4.1460    0.8760    0.1240 O   0  0  0  0  0  0  0  0  0  0  0  0
    1.3890    2.5460   -0.2290 O   0  0  0  0  0  0  0  0  0  0  0  0
    0.9190    3.4690    0.6790 C   0  0  1  0  0  0  0  0  0  0  0  0
    1.5520    4.8090    0.3080 C   0  0  0  0  0  0  0  0  0  0  0  0
    1.1060    5.7650    1.1950 O   0  0  0  0  0  0  0  0  0  0  0  0
   -0.5890    3.5330    0.5760 C   0  0  1  0  0  0  0  0  0  0  0  0
   -0.9340    4.8670    0.3670 O   0  0  0  0  0  0  0  0  0  0  0  0
   -1.1030    2.7280   -0.5990 C   0  0  2  0  0  0  0  0  0  0  0  0
   -2.4710    2.8470   -0.6400 O   0  0  0  0  0  0  0  0  0  0  0  0
   -3.5050   -0.2510   -0.5550 C   0  0  1  0  0  0  0  0  0  0  0  0
   -3.9030    0.3330   -1.7540 O   0  0  0  0  0  0  0  0  0  0  0  0
   -4.2050   -1.6050   -0.4870 C   0  0  2  0  0  0  0  0  0  0  0  0
   -5.5620   -1.4090   -0.6530 O   0  0  0  0  0  0  0  0  0  0  0  0
   -3.8660   -2.1640    0.8850 C   0  0  2  0  0  0  0  0  0  0  0  0
   -4.3620   -1.3170    1.8640 O   0  0  0  0  0  0  0  0  0  0  0  0
  2  1  1  6
  2  3  1  0
  2 32  1  0
  3  4  1  0
  4  5  1  1
  4 28  1  0
  6  5  1  1
  6  7  1  0
  6 26  1  0
  7  8  1  6
  7 20  1  0
  9  8  1  6
  9 10  1  0
  9 18  1  0
 10 11  1  6
 10 13  1  0
 11 12  1  0
 13 14  1  0
 14 15  1  6
 14 16  1  0
 16 17  1  1
 16 18  1  0
 18 19  1  1
 20 21  1  0
 21 22  1  6
 21 24  1  0
 22 23  1  0
 24 25  1  6
 24 26  1  0
 26 27  1  1
 28 29  1  6
 28 30  1  0
 30 31  1  1
 30 32  1  0
 32 33  1  1
M  END
