
     RDKit          3D

 32 35  0  0  0  0  0  0  0  0999 V2000
   -2.6740   -3.6780    1.3820 C   0  0  0  0  0  0  0  0  0  0  0  0
   -3.9230   -2.4990    1.5010 S   0  0  0  0  0  0  0  0  0  0  0  0
   -4.9860   -2.7040    0.3980 O   0  0  0  0  0  0  0  0  0  0  0  0
   -3.5560   -0.7830    1.6820 C   0  0  0  0  0  0  0  0  0  0  0  0
   -2.7390   -0.3140    0.5490 C   0  0  0  0  0  0  0  0  0  0  0  0
   -1.4010   -0.5770    0.4180 C   0  0  0  0  0  0  0  0  0  0  0  0
   -0.5930   -0.0220   -0.5840 C   0  0  0  0  0  0  0  0  0  0  0  0
    0.5960    0.0550   -0.5500 N   0  0  0  0  0  0  0  0  0  0  0  0
    1.8610   -0.0620   -0.0950 C   0  0  0  0  0  0  0  0  0  0  0  0
    2.5260    1.1200   -0.2830 C   0  0  0  0  0  0  0  0  0  0  0  0
    3.8270    1.5220    0.0120 C   0  0  0  0  0  0  0  0  0  0  0  0
    4.4490    2.4070   -0.9110 C   0  0  0  0  0  0  0  0  0  0  0  0
    5.6540    2.9430   -0.5860 C   0  0  0  0  0  0  0  0  0  0  0  0
    6.3040    2.6770    0.5810 C   0  0  0  0  0  0  0  0  0  0  0  0
    7.8150    3.4150    0.9690 Cl  0  0  0  0  0  0  0  0  0  0  0  0
    5.6790    1.8120    1.4590 C   0  0  0  0  0  0  0  0  0  0  0  0
    4.4420    1.2260    1.1870 C   0  0  0  0  0  0  0  0  0  0  0  0
    2.5230   -1.1120    0.5710 N   0  0  0  0  0  0  0  0  0  0  0  0
    3.2460   -2.1310   -0.0400 C   0  0  0  0  0  0  0  0  0  0  0  0
    3.9320   -3.0940    0.6480 N   0  0  0  0  0  0  0  0  0  0  0  0
    4.5180   -3.9460   -0.1870 C   0  0  0  0  0  0  0  0  0  0  0  0
    4.2200   -3.5440   -1.4480 C   0  0  0  0  0  0  0  0  0  0  0  0
    3.4610   -2.4610   -1.3330 N   0  0  0  0  0  0  0  0  0  0  0  0
   -1.2430    0.8270   -1.4740 N   0  0  0  0  0  0  0  0  0  0  0  0
   -2.5210    1.1010   -1.3680 C   0  0  0  0  0  0  0  0  0  0  0  0
   -3.0880    2.0170   -2.2640 C   0  0  0  0  0  0  0  0  0  0  0  0
   -4.3950    2.3730   -2.1370 C   0  0  0  0  0  0  0  0  0  0  0  0
   -5.2030    1.8680   -1.1630 C   0  0  0  0  0  0  0  0  0  0  0  0
   -6.6020    2.2460   -0.9300 C   0  0  0  0  0  0  0  0  0  0  0  0
   -6.8360    2.3400    0.4670 O   0  0  0  0  0  0  0  0  0  0  0  0
   -4.6160    0.9480   -0.2850 C   0  0  0  0  0  0  0  0  0  0  0  0
   -3.3020    0.5570   -0.3670 C   0  0  0  0  0  0  0  0  0  0  0  0
  2  1  1  6
  2  3  2  0
  2  4  1  0
  4  5  1  0
  5  6  2  0
  5 32  1  0
  6  7  1  0
  7  8  2  3
  7 24  1  0
  8  9  1  0
  9 10  2  3
  9 18  1  0
 10 11  1  0
 11 12  2  0
 11 17  1  0
 12 13  1  0
 13 14  2  0
 14 15  1  0
 14 16  1  0
 16 17  2  0
 18 19  1  0
 19 20  1  0
 19 23  2  0
 20 21  1  0
 21 22  2  0
 22 23  1  0
 24 25  1  0
 25 26  2  0
 25 32  1  0
 26 27  1  0
 27 28  2  0
 28 29  1  0
 28 31  1  0
 29 30  1  0
 31 32  2  0
M  CHG  1  23   1
M  END
