
     RDKit          3D

 12 12  0  0  0  0  0  0  0  0999 V2000
    3.0380    0.3290    0.8930 C   0  0  0  0  0  0  0  0  0  0  0  0
    1.6600    0.1390    0.9130 O   0  0  0  0  0  0  0  0  0  0  0  0
    1.2320   -0.5610   -0.2150 C   0  0  1  0  0  0  0  0  0  0  0  0
    0.6700   -1.7500    0.1310 O   0  0  0  0  0  0  0  0  0  0  0  0
   -0.6250   -1.9450   -0.2520 C   0  0  0  0  0  0  0  0  0  0  0  0
   -1.5000   -0.7750    0.1200 C   0  0  1  0  0  0  0  0  0  0  0  0
   -1.5160   -0.6960    1.5220 O   0  0  0  0  0  0  0  0  0  0  0  0
   -1.0280    0.4880   -0.5240 C   0  0  1  0  0  0  0  0  0  0  0  0
   -1.1630    1.6280    0.4790 C   0  0  0  0  0  0  0  0  0  0  0  0
   -2.4890    1.7560    0.8530 O   0  0  0  0  0  0  0  0  0  0  0  0
    0.3620    0.3430   -1.0350 C   0  0  2  0  0  0  0  0  0  0  0  0
    0.4340   -0.0790   -2.3580 O   0  0  0  0  0  0  0  0  0  0  0  0
  1  2  1  0
  3  2  1  1
  3  4  1  0
  3 11  1  0
  4  5  1  0
  5  6  1  0
  6  7  1  1
  6  8  1  0
  8  9  1  1
  8 11  1  0
  9 10  1  0
 11 12  1  6
M  END
