
     RDKit          3D

 26 28  0  0  0  0  0  0  0  0999 V2000
    2.5340   -1.0870    2.3210 C   0  0  0  0  0  0  0  0  0  0  0  0
    2.0520   -0.7730    0.9690 C   0  0  0  0  0  0  0  0  0  0  0  0
    1.6840   -1.6950    0.1610 O   0  0  0  0  0  0  0  0  0  0  0  0
    1.9730    0.5850    0.5090 C   0  0  0  0  0  0  0  0  0  0  0  0
    2.9490    1.2760   -0.1680 C   0  0  0  0  0  0  0  0  0  0  0  0
    4.2690    0.9160   -0.6040 C   0  0  0  0  0  0  0  0  0  0  0  0
    4.9260    1.7870   -1.2850 O   0  0  0  0  0  0  0  0  0  0  0  0
    4.9770   -0.3390   -0.3700 C   0  0  2  0  0  0  0  0  0  0  0  0
    5.7380   -0.2710    0.9800 C   0  0  0  0  0  0  0  0  0  0  0  0
    6.4940   -1.5820    0.8660 C   0  0  0  0  0  0  0  0  0  0  0  0
    6.7970   -1.6490   -0.6290 C   0  0  0  0  0  0  0  0  0  0  0  0
    6.1910   -0.4430   -1.2150 N   0  0  0  0  0  0  0  0  0  0  0  0
    2.3830    2.5420   -0.3860 C   0  0  0  0  0  0  0  0  0  0  0  0
    1.1520    2.5870    0.1320 N   0  0  0  0  0  0  0  0  0  0  0  0
    0.8530    1.4100    0.6940 C   0  0  0  0  0  0  0  0  0  0  0  0
   -0.3330    1.0170    1.3540 N   0  0  0  0  0  0  0  0  0  0  0  0
   -1.2190    0.3230    0.7380 C   0  0  0  0  0  0  0  0  0  0  0  0
   -1.0060   -0.0710   -0.6620 C   0  0  0  0  0  0  0  0  0  0  0  0
   -2.0850    0.3010   -1.5290 N   0  0  0  0  0  0  0  0  0  0  0  0
   -3.3660    0.2800   -0.8800 C   0  0  1  0  0  0  0  0  0  0  0  0
   -4.4170    0.7960   -1.8690 C   0  0  0  0  0  0  0  0  0  0  0  0
   -5.7630    0.7640   -1.1860 C   0  0  0  0  0  0  0  0  0  0  0  0
   -5.6710    0.4130    0.2850 C   0  0  1  0  0  0  0  0  0  0  0  0
   -7.0810    0.2760    0.8130 C   0  0  0  0  0  0  0  0  0  0  0  0
   -4.9660   -0.9130    0.5070 C   0  0  0  0  0  0  0  0  0  0  0  0
   -3.8210   -1.0900   -0.4720 C   0  0  0  0  0  0  0  0  0  0  0  0
  1  2  1  0
  2  3  2  0
  2  4  1  0
  4  5  1  0
  4 15  2  0
  5  6  1  0
  5 13  2  0
  6  7  2  0
  8  6  1  6
  8  9  1  0
  8 12  1  0
  9 10  1  0
 10 11  1  0
 11 12  1  0
 13 14  1  0
 14 15  1  0
 15 16  1  0
 16 17  2  3
 17 18  1  0
 18 19  1  0
 20 19  1  6
 20 21  1  0
 20 26  1  0
 21 22  1  0
 22 23  1  0
 23 24  1  6
 23 25  1  0
 25 26  1  0
M  CHG  1  19   1
M  END
