
     RDKit          3D

 12 12  0  0  0  0  0  0  0  0999 V2000
   -0.0360    0.7140   -2.1120 C   0  0  0  0  0  0  0  0  0  0  0  0
   -0.1660    0.3580   -0.6140 C   0  0  1  0  0  0  0  0  0  0  0  0
   -1.6730    0.3000   -0.3900 C   0  0  1  0  0  0  0  0  0  0  0  0
   -2.2330   -0.7710   -1.0710 O   0  0  0  0  0  0  0  0  0  0  0  0
   -2.0740    0.3810    1.0450 C   0  0  0  0  0  0  0  0  0  0  0  0
   -1.7010   -0.7630    1.7390 O   0  0  0  0  0  0  0  0  0  0  0  0
    0.4190   -0.9740   -0.3960 C   0  0  0  0  0  0  0  0  0  0  0  0
    1.6200   -1.0730    0.2340 O   0  0  0  0  0  0  0  0  0  0  0  0
    2.2720    0.0710    0.5710 C   0  0  2  0  0  0  0  0  0  0  0  0
    3.1590   -0.2160    1.6180 O   0  0  0  0  0  0  0  0  0  0  0  0
    1.2790    1.1020    1.0570 C   0  0  0  0  0  0  0  0  0  0  0  0
    0.3600    1.4130    0.0980 O   0  0  0  0  0  0  0  0  0  0  0  0
  2  1  1  6
  2  3  1  0
  2  7  1  0
  2 12  1  0
  3  4  1  1
  3  5  1  0
  5  6  1  0
  7  8  1  0
  8  9  1  0
  9 10  1  1
  9 11  1  0
 11 12  1  0
M  END
