
     RDKit          3D

 12 13  0  0  0  0  0  0  0  0999 V2000
   -2.2110    1.1220   -1.2740 O   0  0  0  0  0  0  0  0  0  0  0  0
   -2.3230    0.6160    0.0080 C   0  0  0  0  0  0  0  0  0  0  0  0
   -1.0850   -0.2150    0.3440 C   0  0  1  0  0  0  0  0  0  0  0  0
   -1.2600   -0.6950    1.6480 O   0  0  0  0  0  0  0  0  0  0  0  0
   -0.9190   -1.2640   -0.4920 O   0  0  0  0  0  0  0  0  0  0  0  0
    0.3600   -1.3100   -0.9680 C   0  0  0  0  0  0  0  0  0  0  0  0
    1.0410   -0.0160   -0.6640 C   0  0  2  0  0  0  0  0  0  0  0  0
    1.2660    0.7690   -1.7860 O   0  0  0  0  0  0  0  0  0  0  0  0
    2.2860   -0.1710    0.1690 C   0  0  0  0  0  0  0  0  0  0  0  0
    2.2030    0.9040    1.0810 O   0  0  0  0  0  0  0  0  0  0  0  0
    0.8910    0.7030    1.5650 C   0  0  0  0  0  0  0  0  0  0  0  0
    0.1020    0.6780    0.2890 C   0  0  2  0  0  0  0  0  0  0  0  0
  1  2  1  0
  2  3  1  0
  3  4  1  1
  3  5  1  0
  3 12  1  0
  5  6  1  0
  6  7  1  0
  7  8  1  6
  7  9  1  0
  7 12  1  0
  9 10  1  0
 10 11  1  0
 12 11  1  1
M  END
