
     RDKit          3D

 12 12  0  0  0  0  0  0  0  0999 V2000
    3.4720   -0.4910    0.2710 C   0  0  0  0  0  0  0  0  0  0  0  0
    2.0590   -0.5640    0.8000 C   0  0  0  0  0  0  0  0  0  0  0  0
    1.2680    0.2810    0.0260 O   0  0  0  0  0  0  0  0  0  0  0  0
   -0.0590    0.2480    0.4780 C   0  0  1  0  0  0  0  0  0  0  0  0
   -0.5200    1.6440    0.8440 C   0  0  1  0  0  0  0  0  0  0  0  0
    0.3340    2.6250    0.2960 O   0  0  0  0  0  0  0  0  0  0  0  0
   -1.7970    1.7920    0.2970 O   0  0  0  0  0  0  0  0  0  0  0  0
   -1.7380    1.1130   -0.9210 C   0  0  0  0  0  0  0  0  0  0  0  0
   -1.0050   -0.1730   -0.6280 C   0  0  1  0  0  0  0  0  0  0  0  0
   -0.3360   -0.5730   -1.7670 O   0  0  0  0  0  0  0  0  0  0  0  0
   -1.9460   -1.2350   -0.0980 C   0  0  0  0  0  0  0  0  0  0  0  0
   -2.9120   -1.5750   -1.0150 O   0  0  0  0  0  0  0  0  0  0  0  0
  1  2  1  0
  2  3  1  0
  4  3  1  6
  4  5  1  0
  4  9  1  0
  5  6  1  6
  5  7  1  0
  7  8  1  0
  8  9  1  0
  9 10  1  6
  9 11  1  0
 11 12  1  0
M  END
