
     RDKit          3D

 12 12  0  0  0  0  0  0  0  0999 V2000
   -1.3590    1.5570   -0.0270 C   0  0  0  0  0  0  0  0  0  0  0  0
   -1.4340    0.0480   -0.0060 C   0  0  2  0  0  0  0  0  0  0  0  0
   -2.1330   -0.4860   -1.0600 O   0  0  0  0  0  0  0  0  0  0  0  0
   -2.1240   -0.3360    1.3030 C   0  0  0  0  0  0  0  0  0  0  0  0
   -3.4130    0.1270    1.3680 O   0  0  0  0  0  0  0  0  0  0  0  0
   -0.0460   -0.5400    0.0530 C   0  0  1  0  0  0  0  0  0  0  0  0
    0.7400   -0.2990   -1.2040 C   0  0  0  0  0  0  0  0  0  0  0  0
    1.7740    0.6130   -1.0320 O   0  0  0  0  0  0  0  0  0  0  0  0
    2.6890    0.2470   -0.0780 C   0  0  2  0  0  0  0  0  0  0  0  0
    3.7730   -0.4650   -0.5790 O   0  0  0  0  0  0  0  0  0  0  0  0
    1.9840   -0.5700    0.9800 C   0  0  0  0  0  0  0  0  0  0  0  0
    0.6960   -0.0210    1.1140 O   0  0  0  0  0  0  0  0  0  0  0  0
  2  1  1  6
  2  3  1  0
  2  4  1  0
  2  6  1  0
  4  5  1  0
  6  7  1  6
  6 12  1  0
  7  8  1  0
  8  9  1  0
  9 10  1  6
  9 11  1  0
 11 12  1  0
M  END
