
     RDKit          3D

 26 28  0  0  0  0  0  0  0  0999 V2000
   -6.7630    0.8460    1.0510 C   0  0  0  0  0  0  0  0  0  0  0  0
   -6.1130    0.4570   -0.2640 C   0  0  2  0  0  0  0  0  0  0  0  0
   -7.0220   -0.3610   -1.1440 C   0  0  0  0  0  0  0  0  0  0  0  0
   -4.9730   -0.4320    0.1040 N   0  0  0  0  0  0  0  0  0  0  0  0
   -5.3890   -1.6340    0.7830 C   0  0  0  0  0  0  0  0  0  0  0  0
   -3.6960   -0.0070   -0.2290 C   0  0  0  0  0  0  0  0  0  0  0  0
   -3.6560    1.1540   -0.8290 O   0  0  0  0  0  0  0  0  0  0  0  0
   -2.4100   -0.6120   -0.0320 C   0  0  0  0  0  0  0  0  0  0  0  0
   -2.2610   -1.8550    0.5220 C   0  0  0  0  0  0  0  0  0  0  0  0
   -1.0340   -2.3780    0.7070 N   0  0  0  0  0  0  0  0  0  0  0  0
    0.0900   -1.7190    0.3640 C   0  0  0  0  0  0  0  0  0  0  0  0
    0.0120   -0.4770   -0.1920 C   0  0  0  0  0  0  0  0  0  0  0  0
   -1.2340    0.0750   -0.3890 C   0  0  0  0  0  0  0  0  0  0  0  0
    1.1450    0.3740   -0.6160 C   0  0  0  0  0  0  0  0  0  0  0  0
    2.3990   -0.3180   -0.9690 C   0  0  0  0  0  0  0  0  0  0  0  0
    2.8820   -1.2780    0.0280 C   0  0  0  0  0  0  0  0  0  0  0  0
    4.0860   -1.3160    0.4800 N   0  0  0  0  0  0  0  0  0  0  0  0
    5.1020   -0.4720    0.1060 N   0  0  0  0  0  0  0  0  0  0  0  0
    5.5320   -0.2560   -1.0800 C   0  0  0  0  0  0  0  0  0  0  0  0
    6.6020    0.6660   -1.2270 N   0  0  0  0  0  0  0  0  0  0  0  0
    7.2820    1.1400   -0.0600 C   0  0  0  0  0  0  0  0  0  0  0  0
    8.3330    2.0270    0.0100 C   0  0  0  0  0  0  0  0  0  0  0  0
    8.6400    2.1680    1.3420 C   0  0  0  0  0  0  0  0  0  0  0  0
    7.7730    1.3660    2.0500 C   0  0  0  0  0  0  0  0  0  0  0  0
    7.0000    0.7890    1.1690 O   0  0  0  0  0  0  0  0  0  0  0  0
    1.6970   -2.4590    0.6370 S   0  0  0  0  0  0  0  0  0  0  0  0
  2  1  1  1
  2  3  1  0
  2  4  1  0
  4  5  1  0
  4  6  1  0
  6  7  2  0
  6  8  1  0
  8  9  2  0
  8 13  1  0
  9 10  1  0
 10 11  2  0
 11 12  1  0
 11 26  1  0
 12 13  2  0
 12 14  1  0
 14 15  1  0
 15 16  1  0
 16 17  2  3
 16 26  1  0
 17 18  1  0
 18 19  2  3
 19 20  1  0
 20 21  1  0
 21 22  2  0
 21 25  1  0
 22 23  1  0
 23 24  2  0
 24 25  1  0
M  END
