
     RDKit          3D

 28 30  0  0  0  0  0  0  0  0999 V2000
    7.8690   -0.9100   -1.1710 C   0  0  0  0  0  0  0  0  0  0  0  0
    7.0280   -1.5600   -0.0910 C   0  0  0  0  0  0  0  0  0  0  0  0
    5.7410   -0.9770    0.0000 O   0  0  0  0  0  0  0  0  0  0  0  0
    5.5070    0.3440    0.2850 C   0  0  0  0  0  0  0  0  0  0  0  0
    6.5170    1.0920    0.4790 O   0  0  0  0  0  0  0  0  0  0  0  0
    4.1220    0.8790    0.3620 C   0  0  0  0  0  0  0  0  0  0  0  0
    3.1820   -0.1690    0.1130 N   0  0  0  0  0  0  0  0  0  0  0  0
    3.1320   -1.1610    1.1360 C   0  0  0  0  0  0  0  0  0  0  0  0
    2.0190   -1.0040    2.1260 C   0  0  0  0  0  0  0  0  0  0  0  0
    0.7990   -0.8120    1.4700 O   0  0  0  0  0  0  0  0  0  0  0  0
    0.9180    0.3900    0.7860 C   0  0  2  0  0  0  0  0  0  0  0  0
   -0.3950    0.8880    0.2730 C   0  0  0  0  0  0  0  0  0  0  0  0
   -0.3400    1.9720   -0.3410 O   0  0  0  0  0  0  0  0  0  0  0  0
   -1.5970    0.2180    0.4510 N   0  0  0  0  0  0  0  0  0  0  0  0
   -2.8780    0.6210    0.0100 C   0  0  0  0  0  0  0  0  0  0  0  0
   -3.1230    1.9910   -0.2100 C   0  0  0  0  0  0  0  0  0  0  0  0
   -4.3860    2.4630   -0.4940 C   0  0  0  0  0  0  0  0  0  0  0  0
   -4.6230    3.9170   -0.7240 C   0  0  0  0  0  0  0  0  0  0  0  0
   -5.4110    1.5520   -0.5560 C   0  0  0  0  0  0  0  0  0  0  0  0
   -6.7850    2.0500   -0.8600 C   0  0  0  0  0  0  0  0  0  0  0  0
   -5.1790    0.2120   -0.3450 C   0  0  0  0  0  0  0  0  0  0  0  0
   -3.8970   -0.2900   -0.0570 C   0  0  0  0  0  0  0  0  0  0  0  0
   -3.6880   -1.7220    0.0170 C   0  0  0  0  0  0  0  0  0  0  0  0
   -2.6130   -2.5200   -0.1320 C   0  0  0  0  0  0  0  0  0  0  0  0
   -3.0200   -3.8390    0.0460 C   0  0  0  0  0  0  0  0  0  0  0  0
   -4.3670   -3.7850    0.3020 C   0  0  0  0  0  0  0  0  0  0  0  0
   -4.7070   -2.5550    0.2760 O   0  0  0  0  0  0  0  0  0  0  0  0
    1.8950    0.2520   -0.3350 C   0  0  0  0  0  0  0  0  0  0  0  0
  1  2  1  0
  2  3  1  0
  3  4  1  0
  4  5  2  0
  4  6  1  0
  6  7  1  0
  7  8  1  0
  7 28  1  0
  8  9  1  0
  9 10  1  0
 10 11  1  0
 11 12  1  6
 11 28  1  0
 12 13  2  0
 12 14  1  0
 14 15  1  0
 15 16  2  0
 15 22  1  0
 16 17  1  0
 17 18  1  0
 17 19  2  0
 19 20  1  0
 19 21  1  0
 21 22  2  0
 22 23  1  0
 23 24  2  0
 23 27  1  0
 24 25  1  0
 25 26  2  0
 26 27  1  0
M  END
