
     RDKit          3D

 26 28  0  0  0  0  0  0  0  0999 V2000
   -3.2920   -3.4560   -1.2660 N   0  0  0  0  0  0  0  0  0  0  0  0
   -2.2770   -2.4710   -1.1810 C   0  0  0  0  0  0  0  0  0  0  0  0
   -1.2030   -2.5340   -1.8170 O   0  0  0  0  0  0  0  0  0  0  0  0
   -2.4970   -1.2980   -0.2870 C   0  0  2  0  0  0  0  0  0  0  0  0
   -3.8300   -0.7070   -0.5680 C   0  0  0  0  0  0  0  0  0  0  0  0
   -3.9130    0.6730   -0.1000 C   0  0  0  0  0  0  0  0  0  0  0  0
   -5.0510    1.1700    0.4740 C   0  0  0  0  0  0  0  0  0  0  0  0
   -5.1310    2.4900    0.9240 C   0  0  0  0  0  0  0  0  0  0  0  0
   -4.0140    3.2780    0.7680 C   0  0  0  0  0  0  0  0  0  0  0  0
   -2.8500    2.7610    0.1780 C   0  0  0  0  0  0  0  0  0  0  0  0
   -2.7930    1.4780   -0.2530 C   0  0  0  0  0  0  0  0  0  0  0  0
   -1.5580    0.9210   -0.8740 C   0  0  0  0  0  0  0  0  0  0  0  0
   -1.3570   -0.4170   -0.3710 N   0  0  0  0  0  0  0  0  0  0  0  0
   -0.1070   -0.8840    0.0610 C   0  0  0  0  0  0  0  0  0  0  0  0
    0.0400   -2.0700    0.5240 O   0  0  0  0  0  0  0  0  0  0  0  0
    1.1710   -0.1070    0.0550 C   0  0  0  0  0  0  0  0  0  0  0  0
    1.8650   -0.2310    1.3860 C   0  0  2  0  0  0  0  0  0  0  0  0
    1.0300    0.2820    2.4640 N   0  0  0  0  0  0  0  0  0  0  0  0
    3.1320    0.5460    1.3860 C   0  0  0  0  0  0  0  0  0  0  0  0
    4.1280    0.1030    0.4030 C   0  0  0  0  0  0  0  0  0  0  0  0
    4.2460   -1.1950   -0.0390 C   0  0  0  0  0  0  0  0  0  0  0  0
    5.2420   -1.5330   -0.9130 C   0  0  0  0  0  0  0  0  0  0  0  0
    6.1540   -0.5830   -1.3780 C   0  0  0  0  0  0  0  0  0  0  0  0
    6.0170    0.7150   -0.9230 C   0  0  0  0  0  0  0  0  0  0  0  0
    5.0310    1.0610   -0.0540 C   0  0  0  0  0  0  0  0  0  0  0  0
    4.9160    2.3600    0.3720 F   0  0  0  0  0  0  0  0  0  0  0  0
  1  2  1  0
  2  3  2  0
  4  2  1  6
  4  5  1  0
  4 13  1  0
  5  6  1  0
  6  7  2  0
  6 11  1  0
  7  8  1  0
  8  9  2  0
  9 10  1  0
 10 11  2  0
 11 12  1  0
 12 13  1  0
 13 14  1  0
 14 15  2  0
 14 16  1  0
 16 17  1  0
 17 18  1  1
 17 19  1  0
 19 20  1  0
 20 21  2  0
 20 25  1  0
 21 22  1  0
 22 23  2  0
 23 24  1  0
 24 25  2  0
 25 26  1  0
M  END
