
     RDKit          3D

 26 28  0  0  0  0  0  0  0  0999 V2000
    5.1660    2.6520    1.0320 C   0  0  0  0  0  0  0  0  0  0  0  0
    6.0570    1.5260    0.5960 C   0  0  0  0  0  0  0  0  0  0  0  0
    5.7820    1.2130   -1.1680 S   0  0  0  0  0  0  0  0  0  0  0  0
    4.0870    0.5930   -1.3400 C   0  0  0  0  0  0  0  0  0  0  0  0
    2.9830    1.3270   -1.5330 N   0  0  0  0  0  0  0  0  0  0  0  0
    1.9670    0.4880   -1.6020 N   0  0  0  0  0  0  0  0  0  0  0  0
    2.3910   -0.7690   -1.4590 C   0  0  0  0  0  0  0  0  0  0  0  0
    1.6150   -2.0430   -1.4670 C   0  0  0  0  0  0  0  0  0  0  0  0
    1.2240   -2.4600   -0.1350 C   0  0  0  0  0  0  0  0  0  0  0  0
    1.9030   -3.4060    0.6060 C   0  0  0  0  0  0  0  0  0  0  0  0
    1.2890   -3.5210    1.7960 N   0  0  0  0  0  0  0  0  0  0  0  0
    0.2340   -2.6750    1.8390 N   0  0  0  0  0  0  0  0  0  0  0  0
   -0.6380   -2.5630    2.9810 C   0  0  0  0  0  0  0  0  0  0  0  0
    0.1900   -2.0270    0.6660 C   0  0  0  0  0  0  0  0  0  0  0  0
   -0.7830   -1.0500    0.2210 C   0  0  0  0  0  0  0  0  0  0  0  0
   -0.8110   -0.6940   -1.0130 O   0  0  0  0  0  0  0  0  0  0  0  0
   -1.7580   -0.4010    1.0130 N   0  0  0  0  0  0  0  0  0  0  0  0
   -2.6750    0.5480    0.4750 C   0  0  0  0  0  0  0  0  0  0  0  0
   -2.6360    1.7750    0.9890 C   0  0  0  0  0  0  0  0  0  0  0  0
   -3.4750    2.9320    0.6080 C   0  0  0  0  0  0  0  0  0  0  0  0
   -4.1070    3.1430   -0.5360 C   0  0  0  0  0  0  0  0  0  0  0  0
   -4.1520    2.3030   -1.7320 C   0  0  0  0  0  0  0  0  0  0  0  0
   -4.1770    0.8470   -1.4910 C   0  0  0  0  0  0  0  0  0  0  0  0
   -3.5700    0.1090   -0.5820 C   0  0  0  0  0  0  0  0  0  0  0  0
   -3.8310   -1.3430   -0.6550 C   0  0  0  0  0  0  0  0  0  0  0  0
    3.7090   -0.6560   -1.3000 O   0  0  0  0  0  0  0  0  0  0  0  0
  1  2  1  0
  2  3  1  0
  3  4  1  0
  4  5  2  0
  4 26  1  0
  5  6  1  0
  6  7  2  0
  7  8  1  0
  7 26  1  0
  8  9  1  0
  9 10  1  0
  9 14  2  0
 10 11  2  0
 11 12  1  0
 12 13  1  0
 12 14  1  0
 14 15  1  0
 15 16  2  0
 15 17  1  0
 17 18  1  0
 18 19  2  0
 18 24  1  0
 19 20  1  0
 20 21  2  0
 21 22  1  0
 22 23  1  0
 23 24  2  0
 24 25  1  0
M  END
