
     RDKit          3D

 10 10  0  0  0  0  0  0  0  0999 V2000
    3.4310    0.5220   -0.8240 O   0  0  0  0  0  0  0  0  0  0  0  0
    2.3390   -0.3170   -0.5360 C   0  0  0  0  0  0  0  0  0  0  0  0
    1.4040    0.4640    0.3460 C   0  0  2  0  0  0  0  0  0  0  0  0
    2.0610    0.8340    1.5200 O   0  0  0  0  0  0  0  0  0  0  0  0
    0.1770   -0.3030    0.7370 C   0  0  2  0  0  0  0  0  0  0  0  0
   -0.5770   -0.8870   -0.4050 C   0  0  0  0  0  0  0  0  0  0  0  0
   -2.0690   -0.9650   -0.1630 C   0  0  0  0  0  0  0  0  0  0  0  0
   -2.6360    0.3190    0.3800 C   0  0  0  0  0  0  0  0  0  0  0  0
   -1.4500    1.2420    0.6650 C   0  0  0  0  0  0  0  0  0  0  0  0
   -0.6120    0.5490    1.5210 O   0  0  0  0  0  0  0  0  0  0  0  0
  1  2  1  0
  2  3  1  0
  3  4  1  1
  3  5  1  0
  5  6  1  6
  5 10  1  0
  6  7  1  0
  7  8  1  0
  8  9  1  0
  9 10  1  0
M  END
