
     RDKit          3D

 10  9  0  0  0  0  0  0  0  0999 V2000
    0.5550   -0.1060    1.5290 C   0  0  0  0  0  0  0  0  0  0  0  0
    0.6510    0.0570    0.0530 C   0  0  1  0  0  0  0  0  0  0  0  0
    1.5820    1.2110   -0.2270 C   0  0  0  0  0  0  0  0  0  0  0  0
    1.3600   -1.1970   -0.4870 C   0  0  0  0  0  0  0  0  0  0  0  0
    2.6260   -1.2250    0.1350 O   0  0  0  0  0  0  0  0  0  0  0  0
   -0.6300    0.1700   -0.6860 C   0  0  2  0  0  0  0  0  0  0  0  0
   -1.4910    1.3240   -0.2870 C   0  0  0  0  0  0  0  0  0  0  0  0
   -1.8840    1.3340    1.0270 O   0  0  0  0  0  0  0  0  0  0  0  0
   -1.4350   -1.0920   -0.7070 C   0  0  0  0  0  0  0  0  0  0  0  0
   -1.7950   -1.5460    0.5610 O   0  0  0  0  0  0  0  0  0  0  0  0
  2  1  1  1
  2  3  1  0
  2  4  1  0
  2  6  1  0
  4  5  1  0
  6  7  1  1
  6  9  1  0
  7  8  1  0
  9 10  1  0
M  END
