
     RDKit          3D

 10 10  0  0  0  0  0  0  0  0999 V2000
    2.7800   -0.9460   -1.6050 O   0  0  0  0  0  0  0  0  0  0  0  0
    2.9790    0.2150   -1.1700 C   0  0  0  0  0  0  0  0  0  0  0  0
    2.2670    0.6820   -0.0910 O   0  0  0  0  0  0  0  0  0  0  0  0
    1.3010    0.0100    0.6180 C   0  0  0  0  0  0  0  0  0  0  0  0
    0.0550   -0.3940   -0.0780 C   0  0  2  0  0  0  0  0  0  0  0  0
    0.3110   -1.2500   -1.1230 O   0  0  0  0  0  0  0  0  0  0  0  0
   -0.7390    0.7900   -0.5930 C   0  0  0  0  0  0  0  0  0  0  0  0
   -1.4150    1.2770    0.6600 C   0  0  0  0  0  0  0  0  0  0  0  0
   -1.9600   -0.0090    1.2390 C   0  0  0  0  0  0  0  0  0  0  0  0
   -0.8840   -1.0300    0.9530 C   0  0  0  0  0  0  0  0  0  0  0  0
  1  2  2  0
  2  3  1  0
  3  4  1  0
  4  5  1  0
  5  6  1  6
  5  7  1  0
  5 10  1  0
  7  8  1  0
  8  9  1  0
  9 10  1  0
M  END
