
     RDKit          3D

 10  9  0  0  0  0  0  0  0  0999 V2000
   -1.8020   -0.2040    1.5380 C   0  0  0  0  0  0  0  0  0  0  0  0
   -1.7480   -0.1990    0.0260 C   0  0  2  0  0  0  0  0  0  0  0  0
   -2.1250    1.1480   -0.4820 C   0  0  0  0  0  0  0  0  0  0  0  0
   -2.6920   -1.1250   -0.4670 O   0  0  0  0  0  0  0  0  0  0  0  0
   -0.4010   -0.6750   -0.4320 C   0  0  1  0  0  0  0  0  0  0  0  0
   -0.3140   -0.7400   -1.8220 O   0  0  0  0  0  0  0  0  0  0  0  0
    0.7380    0.1630    0.0580 C   0  0  0  0  0  0  0  0  0  0  0  0
    2.0150   -0.4670   -0.5030 C   0  0  0  0  0  0  0  0  0  0  0  0
    3.2360    0.3110   -0.0630 C   0  0  0  0  0  0  0  0  0  0  0  0
    3.2820    0.2930    1.3320 O   0  0  0  0  0  0  0  0  0  0  0  0
  2  1  1  1
  2  3  1  0
  2  4  1  0
  2  5  1  0
  5  6  1  6
  5  7  1  0
  7  8  1  0
  8  9  1  0
  9 10  1  0
M  END
