
     RDKit          3D

 10 11  0  0  0  0  0  0  0  0999 V2000
   -1.7060   -0.9350    1.1740 C   0  0  0  0  0  0  0  0  0  0  0  0
   -0.7030   -0.4140    0.5050 C   0  0  0  0  0  0  0  0  0  0  0  0
   -0.5330    0.7210   -0.3780 C   0  0  0  0  0  0  0  0  0  0  0  0
   -1.3070    1.6940   -0.8720 C   0  0  0  0  0  0  0  0  0  0  0  0
   -2.9920    1.8200   -0.4840 Cl  0  0  0  0  0  0  0  0  0  0  0  0
    0.8640    0.3320   -0.4900 C   0  0  0  0  0  0  0  0  0  0  0  0
    2.1560    0.3300   -0.8570 N   0  0  0  0  0  0  0  0  0  0  0  0
    2.8180   -0.6730   -0.3090 N   0  0  0  0  0  0  0  0  0  0  0  0
    1.9320   -1.3260    0.4230 N   0  0  0  0  0  0  0  0  0  0  0  0
    0.7180   -0.7540    0.3490 C   0  0  0  0  0  0  0  0  0  0  0  0
  1  2  2  0
  2  3  1  0
  2 10  1  0
  3  4  2  3
  3  6  1  0
  4  5  1  0
  6  7  2  0
  6 10  1  0
  7  8  1  0
  8  9  1  0
  9 10  2  0
M  END
