
     RDKit          3D

 11 12  0  0  0  0  0  0  0  0999 V2000
   -1.8900    2.6560   -0.7550 Cl  0  0  0  0  0  0  0  0  0  0  0  0
   -1.9770    0.9620   -0.2590 C   0  0  0  0  0  0  0  0  0  0  0  0
   -2.9080    0.0790    0.0260 C   0  0  0  0  0  0  0  0  0  0  0  0
   -1.8730   -0.9090    0.2830 C   0  0  0  0  0  0  0  0  0  0  0  0
   -1.8940   -2.6080    0.7740 Cl  0  0  0  0  0  0  0  0  0  0  0  0
   -0.9250   -0.0370    0.0020 C   0  0  0  0  0  0  0  0  0  0  0  0
    0.5370   -0.0730   -0.0090 C   0  0  0  0  0  0  0  0  0  0  0  0
    1.3140    1.0320   -0.1610 N   0  0  0  0  0  0  0  0  0  0  0  0
    2.6240    0.6380   -0.1130 C   0  0  0  0  0  0  0  0  0  0  0  0
    2.6330   -0.6940    0.0700 N   0  0  0  0  0  0  0  0  0  0  0  0
    1.3660   -1.1010    0.1300 N   0  0  0  0  0  0  0  0  0  0  0  0
  1  2  1  0
  2  3  2  0
  2  6  1  0
  3  4  1  0
  4  5  1  0
  4  6  2  0
  6  7  1  0
  7  8  1  0
  7 11  2  0
  8  9  2  0
  9 10  1  0
 10 11  1  0
M  END
