
     RDKit          3D

 11 12  0  0  0  0  0  0  0  0999 V2000
    0.3900    3.1010   -0.5270 Cl  0  0  0  0  0  0  0  0  0  0  0  0
   -0.9020    2.0200   -0.0670 C   0  0  0  0  0  0  0  0  0  0  0  0
   -2.4990    2.6890    0.1700 Cl  0  0  0  0  0  0  0  0  0  0  0  0
   -0.7300    0.7230    0.1100 C   0  0  0  0  0  0  0  0  0  0  0  0
   -1.6940   -0.3120    0.4900 C   0  0  0  0  0  0  0  0  0  0  0  0
   -1.0930   -1.5150   -0.0560 N   0  0  0  0  0  0  0  0  0  0  0  0
    0.3120   -1.2890   -0.1490 C   0  0  0  0  0  0  0  0  0  0  0  0
    1.5080   -1.8900   -0.2970 N   0  0  0  0  0  0  0  0  0  0  0  0
    2.4820   -0.9600   -0.2950 C   0  0  0  0  0  0  0  0  0  0  0  0
    1.8560    0.2590   -0.1380 C   0  0  0  0  0  0  0  0  0  0  0  0
    0.5290    0.0360   -0.0510 N   0  0  0  0  0  0  0  0  0  0  0  0
  1  2  1  0
  2  3  1  0
  2  4  2  3
  4  5  1  0
  4 11  1  0
  5  6  1  0
  6  7  1  0
  7  8  2  0
  7 11  1  0
  8  9  1  0
  9 10  2  0
 10 11  1  0
M  END
