
     RDKit          3D

 27 30  0  0  0  0  0  0  0  0999 V2000
   -2.5190    2.8110    0.8480 C   0  0  0  0  0  0  0  0  0  0  0  0
   -2.8530    1.8980   -0.2850 C   0  0  0  0  0  0  0  0  0  0  0  0
   -3.7420    0.7730    0.1010 C   0  0  0  0  0  0  0  0  0  0  0  0
   -3.3490   -0.4850   -0.0460 C   0  0  0  0  0  0  0  0  0  0  0  0
   -2.0800   -0.7720   -0.5710 N   0  0  0  0  0  0  0  0  0  0  0  0
   -1.1230   -1.3890    0.2960 C   0  0  0  0  0  0  0  0  0  0  0  0
   -1.4870   -1.7790    1.4700 N   0  0  0  0  0  0  0  0  0  0  0  0
    0.2260   -1.5920   -0.0830 N   0  0  0  0  0  0  0  0  0  0  0  0
    0.5500   -2.8790   -0.6750 C   0  0  0  0  0  0  0  0  0  0  0  0
    1.8680   -2.7270   -1.4120 C   0  0  0  0  0  0  0  0  0  0  0  0
    2.8960   -2.3180   -0.3960 C   0  0  0  0  0  0  0  0  0  0  0  0
    2.5930   -1.0190    0.2540 C   0  0  1  0  0  0  0  0  0  0  0  0
    3.5660    0.0010   -0.1970 C   0  0  0  0  0  0  0  0  0  0  0  0
    3.6300    0.4520   -1.4970 C   0  0  0  0  0  0  0  0  0  0  0  0
    4.5490    1.3790   -1.8080 N   0  0  0  0  0  0  0  0  0  0  0  0
    5.4170    1.8900   -0.9010 C   0  0  0  0  0  0  0  0  0  0  0  0
    6.3300    2.8200   -1.2400 N   0  0  0  0  0  0  0  0  0  0  0  0
    7.1800    3.3130   -0.3270 C   0  0  0  0  0  0  0  0  0  0  0  0
    7.1380    2.8800    0.9810 C   0  0  0  0  0  0  0  0  0  0  0  0
    6.2180    1.9480    1.3080 N   0  0  0  0  0  0  0  0  0  0  0  0
    5.3580    1.4420    0.4030 C   0  0  0  0  0  0  0  0  0  0  0  0
    4.4310    0.5150    0.6940 N   0  0  0  0  0  0  0  0  0  0  0  0
    1.1700   -0.5500    0.1290 C   0  0  0  0  0  0  0  0  0  0  0  0
   -4.3220   -1.5560    0.3740 C   0  0  0  0  0  0  0  0  0  0  0  0
   -5.6140   -1.2470   -0.3540 C   0  0  0  0  0  0  0  0  0  0  0  0
   -6.0970    0.1500   -0.1390 C   0  0  0  0  0  0  0  0  0  0  0  0
   -5.1000    0.9870    0.6630 C   0  0  0  0  0  0  0  0  0  0  0  0
  1  2  1  0
  2  3  1  0
  3  4  2  0
  3 27  1  0
  4  5  1  0
  4 24  1  0
  5  6  1  0
  6  7  2  0
  6  8  1  0
  8  9  1  0
  8 23  1  0
  9 10  1  0
 10 11  1  0
 11 12  1  0
 12 13  1  6
 12 23  1  0
 13 14  2  0
 13 22  1  0
 14 15  1  0
 15 16  2  0
 16 17  1  0
 16 21  1  0
 17 18  2  0
 18 19  1  0
 19 20  2  0
 20 21  1  0
 21 22  2  0
 24 25  1  0
 25 26  1  0
 26 27  1  0
M  END
