
     RDKit          3D

 26 28  0  0  0  0  0  0  0  0999 V2000
    4.3000    0.4810    3.0360 O   0  0  0  0  0  0  0  0  0  0  0  0
    4.6010    0.7280    1.8020 C   0  0  0  0  0  0  0  0  0  0  0  0
    4.6630    2.2050    1.5440 C   0  0  0  0  0  0  0  0  0  0  0  0
    3.2730    2.7690    1.1540 C   0  0  0  0  0  0  0  0  0  0  0  0
    2.6450    1.6430    0.4090 C   0  0  2  0  0  0  0  0  0  0  0  0
    3.4460    1.5500   -0.8500 C   0  0  0  0  0  0  0  0  0  0  0  0
    3.1360    0.3930   -1.4490 O   0  0  0  0  0  0  0  0  0  0  0  0
    2.1600   -0.3720   -0.8770 C   0  0  2  0  0  0  0  0  0  0  0  0
    2.3060   -1.6370   -1.6470 C   0  0  0  0  0  0  0  0  0  0  0  0
    3.5420   -2.3110   -1.0080 C   0  0  0  0  0  0  0  0  0  0  0  0
    4.8130   -1.6040   -1.0860 C   0  0  0  0  0  0  0  0  0  0  0  0
    5.4460   -1.0350    0.1520 C   0  0  0  0  0  0  0  0  0  0  0  0
    4.7900   -0.3060    1.0330 O   0  0  0  0  0  0  0  0  0  0  0  0
    0.9390    0.4590   -0.9070 C   0  0  1  0  0  0  0  0  0  0  0  0
   -0.1800   -0.3010   -0.2240 C   0  0  0  0  0  0  0  0  0  0  0  0
   -1.4800    0.4860   -0.2130 C   0  0  0  0  0  0  0  0  0  0  0  0
   -2.4850   -0.3910    0.4900 C   0  0  0  0  0  0  0  0  0  0  0  0
   -3.8320    0.2720    0.5860 C   0  0  1  0  0  0  0  0  0  0  0  0
   -4.4560    0.6080   -0.7220 C   0  0  0  0  0  0  0  0  0  0  0  0
   -5.1510   -0.5990   -1.3260 C   0  0  0  0  0  0  0  0  0  0  0  0
   -6.2590   -1.0960   -0.4200 C   0  0  2  0  0  0  0  0  0  0  0  0
   -7.5220   -0.8620   -0.9340 O   0  0  0  0  0  0  0  0  0  0  0  0
   -6.1590   -0.4770    0.9590 C   0  0  1  0  0  0  0  0  0  0  0  0
   -6.9820   -1.1880    1.8340 O   0  0  0  0  0  0  0  0  0  0  0  0
   -4.7480   -0.5840    1.4440 C   0  0  0  0  0  0  0  0  0  0  0  0
    1.2340    1.6920   -0.0180 C   0  0  0  0  0  0  0  0  0  0  0  0
  1  2  2  0
  2  3  1  0
  2 13  1  0
  3  4  1  0
  5  4  1  6
  5  6  1  0
  5 26  1  0
  6  7  1  0
  7  8  1  0
  8  9  1  6
  8 14  1  0
  9 10  1  0
 10 11  1  0
 11 12  1  0
 12 13  1  0
 14 15  1  1
 14 26  1  0
 15 16  1  0
 16 17  1  0
 18 17  1  6
 18 19  1  0
 18 25  1  0
 19 20  1  0
 20 21  1  0
 21 22  1  6
 21 23  1  0
 23 24  1  1
 23 25  1  0
M  END
