
     RDKit          3D

 26 29  0  0  0  0  0  0  0  0999 V2000
   -3.3410   -1.5860   -1.5950 C   0  0  0  0  0  0  0  0  0  0  0  0
   -2.9810   -2.5110   -0.4960 C   0  0  0  0  0  0  0  0  0  0  0  0
   -3.0900   -3.8500   -0.5070 N   0  0  0  0  0  0  0  0  0  0  0  0
   -2.6850   -4.3510    0.6390 N   0  0  0  0  0  0  0  0  0  0  0  0
   -2.3000   -3.3180    1.4230 C   0  0  0  0  0  0  0  0  0  0  0  0
   -2.4790   -2.1610    0.7250 C   0  0  0  0  0  0  0  0  0  0  0  0
   -2.1730   -0.8020    1.2080 C   0  0  0  0  0  0  0  0  0  0  0  0
   -2.3830    0.1600    0.3930 N   0  0  0  0  0  0  0  0  0  0  0  0
   -2.1820    1.5170    0.5910 C   0  0  0  0  0  0  0  0  0  0  0  0
   -0.9820    2.0450    0.5610 C   0  0  0  0  0  0  0  0  0  0  0  0
    0.2540    1.2790    0.3240 C   0  0  0  0  0  0  0  0  0  0  0  0
    1.1850    1.7540   -0.5270 N   0  0  0  0  0  0  0  0  0  0  0  0
    2.3510    1.1520   -0.7980 C   0  0  0  0  0  0  0  0  0  0  0  0
    3.3530    1.6980   -1.7460 C   0  0  0  0  0  0  0  0  0  0  0  0
    2.6010   -0.0430   -0.1470 C   0  0  0  0  0  0  0  0  0  0  0  0
    1.6600   -0.5580    0.7370 C   0  0  0  0  0  0  0  0  0  0  0  0
    0.5290    0.1180    0.9370 N   0  0  0  0  0  0  0  0  0  0  0  0
    1.9980   -1.8330    1.4190 C   0  0  0  0  0  0  0  0  0  0  0  0
    2.4750   -2.8090    0.3760 C   0  0  0  0  0  0  0  0  0  0  0  0
    3.3440   -2.2400   -0.6860 C   0  0  0  0  0  0  0  0  0  0  0  0
    3.8190   -0.8440   -0.3270 C   0  0  1  0  0  0  0  0  0  0  0  0
    4.7830   -0.3310   -1.2290 N   0  0  0  0  0  0  0  0  0  0  0  0
   -0.9250    3.5250    0.7930 C   0  0  0  0  0  0  0  0  0  0  0  0
   -1.7840    4.1460   -0.3080 C   0  0  0  0  0  0  0  0  0  0  0  0
   -3.1970    3.7130   -0.0450 C   0  0  0  0  0  0  0  0  0  0  0  0
   -3.2990    2.4950    0.8490 C   0  0  0  0  0  0  0  0  0  0  0  0
  1  2  1  0
  2  3  2  0
  2  6  1  0
  3  4  1  0
  4  5  1  0
  5  6  2  0
  6  7  1  0
  7  8  2  3
  8  9  1  0
  9 10  2  0
  9 26  1  0
 10 11  1  0
 10 23  1  0
 11 12  2  0
 11 17  1  0
 12 13  1  0
 13 14  1  0
 13 15  2  0
 15 16  1  0
 15 21  1  0
 16 17  2  0
 16 18  1  0
 18 19  1  0
 19 20  1  0
 20 21  1  0
 21 22  1  6
 23 24  1  0
 24 25  1  0
 25 26  1  0
M  END
