
     RDKit          3D

 27 28  0  0  0  0  0  0  0  0999 V2000
    0.0700    2.7110   -2.2450 N   0  0  0  0  0  0  0  0  0  0  0  0
    0.3230    1.9020   -1.1150 C   0  0  0  0  0  0  0  0  0  0  0  0
    0.3010    2.3840    0.0340 O   0  0  0  0  0  0  0  0  0  0  0  0
    0.6160    0.4660   -1.3090 C   0  0  2  0  0  0  0  0  0  0  0  0
   -0.5950   -0.2390   -1.9240 C   0  0  0  0  0  0  0  0  0  0  0  0
   -1.7950   -0.1360   -1.0590 C   0  0  0  0  0  0  0  0  0  0  0  0
   -2.0110   -1.1180   -0.0870 C   0  0  0  0  0  0  0  0  0  0  0  0
   -3.1230   -1.0140    0.7020 C   0  0  0  0  0  0  0  0  0  0  0  0
   -4.0420    0.0240    0.5750 C   0  0  0  0  0  0  0  0  0  0  0  0
   -5.1750    0.0710    1.4280 N   0  0  0  0  0  0  0  0  0  0  0  0
   -6.3390   -0.1230    0.9430 C   0  0  0  0  0  0  0  0  0  0  0  0
   -7.4640   -0.0750    1.7990 N   0  0  0  0  0  0  0  0  0  0  0  0
   -6.4940   -0.3840   -0.4340 N   0  0  0  0  0  0  0  0  0  0  0  0
   -3.7840    0.9680   -0.4000 C   0  0  0  0  0  0  0  0  0  0  0  0
   -2.6760    0.9050   -1.2200 C   0  0  0  0  0  0  0  0  0  0  0  0
    0.8670   -0.1930   -0.0230 N   0  0  0  0  0  0  0  0  0  0  0  0
    2.0690   -0.9310    0.1210 C   0  0  0  0  0  0  0  0  0  0  0  0
    2.8570   -0.9860   -0.8550 O   0  0  0  0  0  0  0  0  0  0  0  0
    2.3630   -1.6130    1.4080 C   0  0  0  0  0  0  0  0  0  0  0  0
    3.9450   -2.4520    1.2530 S   0  0  0  0  0  0  0  0  0  0  0  0
    5.2430   -1.2370    1.0740 C   0  0  0  0  0  0  0  0  0  0  0  0
    5.0110    0.1220    1.0680 C   0  0  0  0  0  0  0  0  0  0  0  0
    6.0070    1.0680    0.9300 C   0  0  0  0  0  0  0  0  0  0  0  0
    7.3170    0.6500    0.7880 C   0  0  0  0  0  0  0  0  0  0  0  0
    8.6110    1.8080    0.6110 Cl  0  0  0  0  0  0  0  0  0  0  0  0
    7.5830   -0.7140    0.7900 C   0  0  0  0  0  0  0  0  0  0  0  0
    6.5710   -1.6390    0.9290 C   0  0  0  0  0  0  0  0  0  0  0  0
  1  2  1  0
  2  3  2  0
  2  4  1  0
  4  5  1  1
  4 16  1  0
  5  6  1  0
  6  7  2  0
  6 15  1  0
  7  8  1  0
  8  9  2  0
  9 10  1  0
  9 14  1  0
 10 11  2  3
 11 12  1  0
 11 13  1  0
 14 15  2  0
 16 17  1  0
 17 18  2  0
 17 19  1  0
 19 20  1  0
 20 21  1  0
 21 22  2  0
 21 27  1  0
 22 23  1  0
 23 24  2  0
 24 25  1  0
 24 26  1  0
 26 27  2  0
M  CHG  1  10   1
M  END
