
     RDKit          3D

 37 39  0  0  0  0  0  0  0  0999 V2000
    6.3260    3.8060    0.5550 C   0  0  0  0  0  0  0  0  0  0  0  0
    6.2600    2.4320    0.2200 O   0  0  0  0  0  0  0  0  0  0  0  0
    5.7040    1.5090    1.0840 C   0  0  0  0  0  0  0  0  0  0  0  0
    5.2600    1.9390    2.1770 O   0  0  0  0  0  0  0  0  0  0  0  0
    5.6100    0.0550    0.7820 C   0  0  1  0  0  0  0  0  0  0  0  0
    4.9910   -0.6270    1.8650 N   0  0  0  0  0  0  0  0  0  0  0  0
    4.7070   -2.0060    1.6860 C   0  0  2  0  0  0  0  0  0  0  0  0
    4.0320   -2.6100    2.8080 N   0  0  0  0  0  0  0  0  0  0  0  0
    6.0000   -2.7650    1.4840 C   0  0  0  0  0  0  0  0  0  0  0  0
    5.7670   -4.1190    1.3080 F   0  0  0  0  0  0  0  0  0  0  0  0
    4.8670   -0.0920   -0.5000 C   0  0  0  0  0  0  0  0  0  0  0  0
    5.5100   -0.3830   -1.6770 C   0  0  0  0  0  0  0  0  0  0  0  0
    4.8290   -0.5180   -2.8580 C   0  0  0  0  0  0  0  0  0  0  0  0
    3.4490   -0.3540   -2.8510 C   0  0  0  0  0  0  0  0  0  0  0  0
    2.7310   -0.4770   -3.9950 F   0  0  0  0  0  0  0  0  0  0  0  0
    2.7400   -0.0580   -1.6880 C   0  0  0  0  0  0  0  0  0  0  0  0
    1.3510    0.1000   -1.7200 N   0  0  0  0  0  0  0  0  0  0  0  0
    0.4650    0.4010   -0.6910 C   0  0  0  0  0  0  0  0  0  0  0  0
    0.9110    0.5690    0.4670 O   0  0  0  0  0  0  0  0  0  0  0  0
   -0.9880    0.5300   -0.9110 C   0  0  0  0  0  0  0  0  0  0  0  0
   -1.8210    0.6740    0.1890 C   0  0  0  0  0  0  0  0  0  0  0  0
   -3.1940    0.8010    0.0060 C   0  0  0  0  0  0  0  0  0  0  0  0
   -3.7670    0.7900   -1.2360 C   0  0  0  0  0  0  0  0  0  0  0  0
   -5.1160    0.9150   -1.4000 O   0  0  0  0  0  0  0  0  0  0  0  0
   -6.1100    1.0480   -0.4500 C   0  0  0  0  0  0  0  0  0  0  0  0
   -6.3130   -0.0590    0.4760 C   0  0  0  0  0  0  0  0  0  0  0  0
   -5.6390   -1.2450    0.4270 C   0  0  0  0  0  0  0  0  0  0  0  0
   -5.8800   -2.2790    1.3060 C   0  0  0  0  0  0  0  0  0  0  0  0
   -6.8270   -2.1560    2.2870 C   0  0  0  0  0  0  0  0  0  0  0  0
   -7.5270   -0.9610    2.3590 C   0  0  0  0  0  0  0  0  0  0  0  0
   -7.2760    0.0700    1.4700 C   0  0  0  0  0  0  0  0  0  0  0  0
   -8.0530    1.3180    1.5970 C   0  0  0  0  0  0  0  0  0  0  0  0
   -2.9490    0.6480   -2.3250 C   0  0  0  0  0  0  0  0  0  0  0  0
   -3.4550    0.6290   -3.5950 O   0  0  0  0  0  0  0  0  0  0  0  0
   -2.6300    0.4850   -4.7300 C   0  0  0  0  0  0  0  0  0  0  0  0
   -1.5660    0.5190   -2.1500 C   0  0  0  0  0  0  0  0  0  0  0  0
    3.4750    0.0630   -0.5540 C   0  0  0  0  0  0  0  0  0  0  0  0
  1  2  1  0
  2  3  1  0
  3  4  2  0
  3  5  1  0
  5  6  1  1
  5 11  1  0
  6  7  1  0
  7  8  1  1
  7  9  1  0
  9 10  1  0
 11 12  2  0
 11 37  1  0
 12 13  1  0
 13 14  2  0
 14 15  1  0
 14 16  1  0
 16 17  1  0
 16 37  2  0
 17 18  1  0
 18 19  2  0
 18 20  1  0
 20 21  2  0
 20 36  1  0
 21 22  1  0
 22 23  2  0
 23 24  1  0
 23 33  1  0
 24 25  1  0
 25 26  1  0
 26 27  2  0
 26 31  1  0
 27 28  1  0
 28 29  2  0
 29 30  1  0
 30 31  2  0
 31 32  1  0
 33 34  1  0
 33 36  2  0
 34 35  1  0
M  END
