
     RDKit          3D

 37 39  0  0  0  0  0  0  0  0999 V2000
  -10.1460   -1.0560    0.5220 C   0  0  0  0  0  0  0  0  0  0  0  0
   -9.4990   -1.1050   -0.8350 C   0  0  0  0  0  0  0  0  0  0  0  0
   -8.0180   -0.9460   -0.7400 C   0  0  0  0  0  0  0  0  0  0  0  0
   -7.6450    0.3250   -0.0450 C   0  0  0  0  0  0  0  0  0  0  0  0
   -6.1540    0.5320   -0.0760 C   0  0  0  0  0  0  0  0  0  0  0  0
   -5.6500    1.3530   -1.0960 C   0  0  0  0  0  0  0  0  0  0  0  0
   -4.2920    1.5470   -1.2500 C   0  0  0  0  0  0  0  0  0  0  0  0
   -3.3660    0.9340   -0.3950 C   0  0  0  0  0  0  0  0  0  0  0  0
   -1.9710    1.1600   -0.7120 C   0  0  2  0  0  0  0  0  0  0  0  0
   -1.3500   -0.1150   -0.7180 O   0  0  0  0  0  0  0  0  0  0  0  0
   -1.1440    2.0530    0.1880 C   0  0  0  0  0  0  0  0  0  0  0  0
    0.1630    2.0650   -0.5160 N   0  0  0  0  0  0  0  0  0  0  0  0
    1.0530    1.0280   -0.3790 N   0  0  0  0  0  0  0  0  0  0  0  0
    2.0850    1.1410   -1.1740 C   0  0  0  0  0  0  0  0  0  0  0  0
    3.1620    0.1620   -1.2110 C   0  0  0  0  0  0  0  0  0  0  0  0
    4.0880    0.2910   -2.0440 O   0  0  0  0  0  0  0  0  0  0  0  0
    3.1510   -0.9120   -0.3040 N   0  0  0  0  0  0  0  0  0  0  0  0
    4.1250   -1.9740   -0.2220 C   0  0  0  0  0  0  0  0  0  0  0  0
    5.4910   -1.4650   -0.3140 C   0  0  0  0  0  0  0  0  0  0  0  0
    6.3310   -2.0210   -1.3050 C   0  0  0  0  0  0  0  0  0  0  0  0
    7.6430   -1.6770   -1.3750 C   0  0  0  0  0  0  0  0  0  0  0  0
    8.1500   -0.7650   -0.4660 C   0  0  0  0  0  0  0  0  0  0  0  0
    9.5930   -0.4020   -0.5650 C   0  0  0  0  0  0  0  0  0  0  0  0
   10.3810   -1.3960    0.2870 C   0  0  0  0  0  0  0  0  0  0  0  0
    7.3390   -0.2070    0.5090 C   0  0  0  0  0  0  0  0  0  0  0  0
    6.0150   -0.5600    0.5810 C   0  0  0  0  0  0  0  0  0  0  0  0
    5.1330   -0.0370    1.5340 O   0  0  0  0  0  0  0  0  0  0  0  0
    5.3960    0.9780    2.4340 C   0  0  2  0  0  0  0  0  0  0  0  0
    6.1750    1.9800    1.7710 F   0  0  0  0  0  0  0  0  0  0  0  0
    6.0200    0.6950    3.5910 F   0  0  0  0  0  0  0  0  0  0  0  0
    1.9490    2.3960   -1.9580 C   0  0  0  0  0  0  0  0  0  0  0  0
    0.6520    2.9560   -1.4810 C   0  0  0  0  0  0  0  0  0  0  0  0
    0.0890    4.0250   -1.8610 O   0  0  0  0  0  0  0  0  0  0  0  0
   -3.8780    0.1360    0.6030 C   0  0  0  0  0  0  0  0  0  0  0  0
   -5.2590   -0.0560    0.7540 C   0  0  0  0  0  0  0  0  0  0  0  0
   -5.6990   -0.8920    1.8740 C   0  0  0  0  0  0  0  0  0  0  0  0
   -4.5610   -1.3780    2.5330 O   0  0  0  0  0  0  0  0  0  0  0  0
  1  2  1  0
  2  3  1  0
  3  4  1  0
  4  5  1  0
  5  6  2  0
  5 35  1  0
  6  7  1  0
  7  8  2  0
  8  9  1  0
  8 34  1  0
  9 10  1  1
  9 11  1  0
 11 12  1  0
 12 13  1  0
 12 32  1  0
 13 14  2  0
 14 15  1  0
 14 31  1  0
 15 16  2  0
 15 17  1  0
 17 18  1  0
 18 19  1  0
 19 20  2  0
 19 26  1  0
 20 21  1  0
 21 22  2  0
 22 23  1  0
 22 25  1  0
 23 24  1  0
 25 26  2  0
 26 27  1  0
 27 28  1  0
 28 29  1  6
 28 30  1  0
 31 32  1  0
 32 33  2  0
 34 35  2  0
 35 36  1  0
 36 37  1  0
M  END
