
     RDKit          3D

 37 39  0  0  0  0  0  0  0  0999 V2000
   -4.0050   -3.2870    1.9540 C   0  0  0  0  0  0  0  0  0  0  0  0
   -2.9820   -4.1010    1.8220 C   0  0  0  0  0  0  0  0  0  0  0  0
   -2.8270   -5.4940    2.3480 C   0  0  0  0  0  0  0  0  0  0  0  0
   -1.8090   -6.0000    1.4340 N   0  0  0  0  0  0  0  0  0  0  0  0
   -1.0770   -4.9100    0.8880 C   0  0  0  0  0  0  0  0  0  0  0  0
   -1.7480   -3.7960    1.1070 C   0  0  0  0  0  0  0  0  0  0  0  0
   -1.2480   -2.4570    0.6540 C   0  0  0  0  0  0  0  0  0  0  0  0
   -1.0400   -1.5320    1.7850 C   0  0  0  0  0  0  0  0  0  0  0  0
   -0.5270   -0.2430    1.3450 N   0  0  0  0  0  0  0  0  0  0  0  0
   -1.4740    0.7930    1.0920 C   0  0  0  0  0  0  0  0  0  0  0  0
   -1.9540    0.9220   -0.3330 C   0  0  0  0  0  0  0  0  0  0  0  0
   -2.9440    2.0770   -0.4400 C   0  0  2  0  0  0  0  0  0  0  0  0
   -4.1190    1.8760    0.4090 C   0  0  0  0  0  0  0  0  0  0  0  0
   -4.9930    0.7550    0.2620 N   0  0  0  0  0  0  0  0  0  0  0  0
   -4.4400    2.6890    1.3330 O   0  0  0  0  0  0  0  0  0  0  0  0
   -3.2350    2.3980   -1.8390 C   0  0  0  0  0  0  0  0  0  0  0  0
   -2.8510    1.6960   -2.8860 C   0  0  0  0  0  0  0  0  0  0  0  0
   -2.1180    0.5450   -2.9120 F   0  0  0  0  0  0  0  0  0  0  0  0
   -3.3380    2.3370   -4.1460 C   0  0  0  0  0  0  0  0  0  0  0  0
   -4.0640    3.5210   -3.6690 C   0  0  0  0  0  0  0  0  0  0  0  0
   -3.9960    3.5400   -2.3630 C   0  0  0  0  0  0  0  0  0  0  0  0
   -4.5430    4.4740   -1.5700 F   0  0  0  0  0  0  0  0  0  0  0  0
    0.8520   -0.0050    1.2030 C   0  0  0  0  0  0  0  0  0  0  0  0
    1.6030   -1.0260    1.4470 O   0  0  0  0  0  0  0  0  0  0  0  0
    1.4970    1.2670    0.8110 C   0  0  1  0  0  0  0  0  0  0  0  0
    1.2570    2.4010    1.7670 C   0  0  0  0  0  0  0  0  0  0  0  0
    2.8940    1.0590    0.6000 O   0  0  0  0  0  0  0  0  0  0  0  0
    3.5240    1.2260   -0.6120 C   0  0  0  0  0  0  0  0  0  0  0  0
    2.7570    1.5860   -1.5490 O   0  0  0  0  0  0  0  0  0  0  0  0
    4.9520    1.0110   -0.8190 C   0  0  0  0  0  0  0  0  0  0  0  0
    5.5480    1.1980   -2.0540 C   0  0  0  0  0  0  0  0  0  0  0  0
    6.8910    1.0030   -2.2750 C   0  0  0  0  0  0  0  0  0  0  0  0
    7.4370    1.2040   -3.5280 O   0  0  0  0  0  0  0  0  0  0  0  0
    7.7110    0.6030   -1.2380 C   0  0  0  0  0  0  0  0  0  0  0  0
    7.1270    0.4140   -0.0070 C   0  0  0  0  0  0  0  0  0  0  0  0
    5.7620    0.6120    0.2210 C   0  0  0  0  0  0  0  0  0  0  0  0
    5.1710    0.3960    1.5700 C   0  0  0  0  0  0  0  0  0  0  0  0
  1  2  2  0
  2  3  1  0
  2  6  1  0
  3  4  1  0
  4  5  1  0
  5  6  2  0
  6  7  1  0
  7  8  1  0
  8  9  1  0
  9 10  1  0
  9 23  1  0
 10 11  1  0
 12 11  1  6
 12 13  1  0
 12 16  1  0
 13 14  1  0
 13 15  2  0
 16 17  2  0
 16 21  1  0
 17 18  1  0
 17 19  1  0
 19 20  1  0
 20 21  2  0
 21 22  1  0
 23 24  2  0
 23 25  1  0
 25 26  1  1
 25 27  1  0
 27 28  1  0
 28 29  2  0
 28 30  1  0
 30 31  2  0
 30 36  1  0
 31 32  1  0
 32 33  1  0
 32 34  2  0
 34 35  1  0
 35 36  2  0
 36 37  1  0
M  END
