
     RDKit          3D

 37 39  0  0  0  0  0  0  0  0999 V2000
   -4.4470    3.1940    0.8790 C   0  0  0  0  0  0  0  0  0  0  0  0
   -4.1190    1.9040    0.6000 O   0  0  0  0  0  0  0  0  0  0  0  0
   -2.8960    1.3270    0.4810 C   0  0  0  0  0  0  0  0  0  0  0  0
   -2.5440    1.4440   -1.0090 C   0  0  0  0  0  0  0  0  0  0  0  0
   -3.6630    1.8620   -1.7550 N   0  0  0  0  0  0  0  0  0  0  0  0
   -4.2000    0.8280   -2.6600 C   0  0  0  0  0  0  0  0  0  0  0  0
   -4.7710   -0.2320   -1.8550 C   0  0  0  0  0  0  0  0  0  0  0  0
   -6.2980   -0.4660   -1.8570 C   0  0  0  0  0  0  0  0  0  0  0  0
   -6.7960   -1.6980   -1.2580 C   0  0  0  0  0  0  0  0  0  0  0  0
   -8.1080   -1.5350   -0.7570 C   0  0  0  0  0  0  0  0  0  0  0  0
   -9.3970   -1.3680   -0.2400 N   0  0  0  0  0  0  0  0  0  0  0  0
   -6.0420   -2.7280   -0.7100 C   0  0  0  0  0  0  0  0  0  0  0  0
   -4.5240   -2.4480   -0.7450 C   0  0  0  0  0  0  0  0  0  0  0  0
   -4.3940   -1.3300   -1.2880 C   0  0  0  0  0  0  0  0  0  0  0  0
   -2.8330   -1.2110   -1.4000 F   0  0  0  0  0  0  0  0  0  0  0  0
   -1.3660    0.9790   -1.3810 C   0  0  0  0  0  0  0  0  0  0  0  0
   -0.5170    0.4180   -0.4980 C   0  0  0  0  0  0  0  0  0  0  0  0
    0.7320   -0.1360   -0.7550 O   0  0  0  0  0  0  0  0  0  0  0  0
    1.7610   -0.5520   -1.3130 C   0  0  0  0  0  0  0  0  0  0  0  0
    3.0340   -1.0470   -0.5420 C   0  0  1  0  0  0  0  0  0  0  0  0
    4.0370   -1.2080   -1.5510 O   0  0  0  0  0  0  0  0  0  0  0  0
    3.4590   -0.2580    0.5470 C   0  0  0  0  0  0  0  0  0  0  0  0
    4.4370   -0.3980    1.5590 N   0  0  0  0  0  0  0  0  0  0  0  0
    5.8770   -0.0520    1.3240 C   0  0  0  0  0  0  0  0  0  0  0  0
    6.2300   -0.0060    0.1620 C   0  0  0  0  0  0  0  0  0  0  0  0
    7.4210    0.7010   -0.3760 C   0  0  0  0  0  0  0  0  0  0  0  0
    7.7230    0.6970   -1.7750 C   0  0  0  0  0  0  0  0  0  0  0  0
    8.1430    1.3040    0.7080 C   0  0  0  0  0  0  0  0  0  0  0  0
    7.7360    1.1990    1.9810 C   0  0  0  0  0  0  0  0  0  0  0  0
    6.5120    0.4640    2.4600 C   0  0  0  0  0  0  0  0  0  0  0  0
    6.1340    0.3520    3.6550 F   0  0  0  0  0  0  0  0  0  0  0  0
   -0.7510    0.2170    0.9190 C   0  0  0  0  0  0  0  0  0  0  0  0
    0.0420   -0.3610    1.7660 O   0  0  0  0  0  0  0  0  0  0  0  0
    0.0650   -1.7660    2.0140 C   0  0  0  0  0  0  0  0  0  0  0  0
   -2.0770    0.7990    1.2080 C   0  0  0  0  0  0  0  0  0  0  0  0
   -2.2850    0.5670    2.6010 O   0  0  0  0  0  0  0  0  0  0  0  0
   -3.1110   -0.5820    2.8440 C   0  0  0  0  0  0  0  0  0  0  0  0
  1  2  1  0
  2  3  1  0
  3  4  2  0
  3 35  1  0
  4  5  1  0
  4 16  1  0
  5  6  1  0
  6  7  1  0
  7  8  2  0
  7 14  1  0
  8  9  1  0
  9 10  1  0
  9 12  2  0
 10 11  3  0
 12 13  1  0
 13 14  2  0
 14 15  1  0
 16 17  2  0
 17 18  1  0
 17 32  1  0
 18 19  1  0
 19 20  1  0
 20 21  1  6
 20 22  1  0
 22 23  1  0
 23 24  1  0
 24 25  2  0
 24 30  1  0
 25 26  1  0
 26 27  1  0
 26 28  2  0
 28 29  1  0
 29 30  2  0
 30 31  1  0
 32 33  1  0
 32 35  2  0
 33 34  1  0
 35 36  1  0
 36 37  1  0
M  END
