
     RDKit          3D

 37 41  0  0  0  0  0  0  0  0999 V2000
   -3.4130    6.6050   -2.3080 C   0  0  0  0  0  0  0  0  0  0  0  0
   -3.3930    5.5990   -1.4630 C   0  0  0  0  0  0  0  0  0  0  0  0
   -2.5760    4.4340   -1.7050 C   0  0  0  0  0  0  0  0  0  0  0  0
   -2.5430    3.3960   -0.8510 C   0  0  0  0  0  0  0  0  0  0  0  0
   -3.3060    3.4160    0.3030 O   0  0  0  0  0  0  0  0  0  0  0  0
   -3.2540    2.3340    1.1630 C   0  0  0  0  0  0  0  0  0  0  0  0
   -4.0190    2.3510    2.3220 C   0  0  0  0  0  0  0  0  0  0  0  0
   -4.0310    1.3200    3.2370 C   0  0  0  0  0  0  0  0  0  0  0  0
   -3.2550    0.2010    3.0210 C   0  0  0  0  0  0  0  0  0  0  0  0
   -2.4950    0.1750    1.8770 C   0  0  0  0  0  0  0  0  0  0  0  0
   -2.4700    1.2010    0.9470 C   0  0  0  0  0  0  0  0  0  0  0  0
   -1.6540    1.0850   -0.2040 N   0  0  0  0  0  0  0  0  0  0  0  0
   -0.8080   -0.0040   -0.5570 C   0  0  1  0  0  0  0  0  0  0  0  0
    0.3040   -0.1790    0.3800 C   0  0  0  0  0  0  0  0  0  0  0  0
    1.1630    0.8740    0.9140 N   0  0  0  0  0  0  0  0  0  0  0  0
    2.4650    0.5330    1.2910 N   0  0  0  0  0  0  0  0  0  0  0  0
    3.3510    0.3630    0.3450 C   0  0  0  0  0  0  0  0  0  0  0  0
    3.1490    0.4870   -1.0920 C   0  0  0  0  0  0  0  0  0  0  0  0
    4.2850    0.2390   -1.7180 C   0  0  0  0  0  0  0  0  0  0  0  0
    5.3200   -0.0660   -0.7780 N   0  0  0  0  0  0  0  0  0  0  0  0
    4.7550    0.0070    0.5130 C   0  0  0  0  0  0  0  0  0  0  0  0
    5.3600   -0.2030    1.6630 C   0  0  0  0  0  0  0  0  0  0  0  0
    6.7960   -0.5610    1.7280 C   0  0  0  0  0  0  0  0  0  0  0  0
    7.5460    0.4510    2.5030 C   0  0  0  0  0  0  0  0  0  0  0  0
    8.5460    1.1420    1.9480 C   0  0  0  0  0  0  0  0  0  0  0  0
    0.4040   -1.4280    0.6620 N   0  0  0  0  0  0  0  0  0  0  0  0
   -0.6000   -2.1640   -0.0260 C   0  0  0  0  0  0  0  0  0  0  0  0
   -1.3420   -1.3480   -0.7520 C   0  0  0  0  0  0  0  0  0  0  0  0
   -2.4770   -1.7260   -1.5880 C   0  0  0  0  0  0  0  0  0  0  0  0
   -2.7250   -0.9400   -2.5570 O   0  0  0  0  0  0  0  0  0  0  0  0
   -3.3880   -2.8640   -1.5020 C   0  0  0  0  0  0  0  0  0  0  0  0
   -2.7800   -4.1600   -1.0880 C   0  0  1  0  0  0  0  0  0  0  0  0
   -3.4220   -5.2860   -1.8680 C   0  0  0  0  0  0  0  0  0  0  0  0
   -1.2740   -4.1550   -1.2220 C   0  0  0  0  0  0  0  0  0  0  0  0
   -0.7340   -3.6610    0.1050 C   0  0  0  0  0  0  0  0  0  0  0  0
   -1.7250    2.2390   -1.0990 C   0  0  0  0  0  0  0  0  0  0  0  0
   -1.0430    2.2510   -2.1570 O   0  0  0  0  0  0  0  0  0  0  0  0
  1  2  2  0
  2  3  1  0
  3  4  2  3
  4  5  1  0
  4 36  1  0
  5  6  1  0
  6  7  2  0
  6 11  1  0
  7  8  1  0
  8  9  2  0
  9 10  1  0
 10 11  2  0
 11 12  1  0
 13 12  1  1
 12 36  1  0
 13 14  1  0
 13 28  1  0
 14 15  1  0
 14 26  2  0
 15 16  1  0
 16 17  2  3
 17 18  1  0
 17 21  1  0
 18 19  2  0
 19 20  1  0
 20 21  1  0
 21 22  2  3
 22 23  1  0
 23 24  1  0
 24 25  2  0
 26 27  1  0
 27 28  2  0
 27 35  1  0
 28 29  1  0
 29 30  2  0
 29 31  1  0
 31 32  1  0
 32 33  1  6
 32 34  1  0
 34 35  1  0
 36 37  2  0
M  END
