
     RDKit          3D

 31 33  0  0  0  0  0  0  0  0999 V2000
   -6.5670    1.8810   -2.0170 N   0  0  0  0  0  0  0  0  0  0  0  0
   -6.1530    1.0760   -0.9260 C   0  0  0  0  0  0  0  0  0  0  0  0
   -7.0170    0.1710   -0.4420 N   0  0  0  0  0  0  0  0  0  0  0  0
   -6.7210   -0.6400    0.5900 C   0  0  0  0  0  0  0  0  0  0  0  0
   -5.4960   -0.5170    1.1430 N   0  0  0  0  0  0  0  0  0  0  0  0
   -4.5710    0.3640    0.7190 C   0  0  0  0  0  0  0  0  0  0  0  0
   -4.9120    1.1780   -0.3410 C   0  0  0  0  0  0  0  0  0  0  0  0
   -3.8430    1.9560   -0.5750 N   0  0  0  0  0  0  0  0  0  0  0  0
   -2.8800    1.6250    0.3170 C   0  0  0  0  0  0  0  0  0  0  0  0
   -3.3120    0.6410    1.1260 N   0  0  0  0  0  0  0  0  0  0  0  0
   -2.5700    0.0040    2.2210 C   0  0  2  0  0  0  0  0  0  0  0  0
   -1.3090    0.5330    2.2540 O   0  0  0  0  0  0  0  0  0  0  0  0
   -0.3850   -0.4660    2.1700 C   0  0  2  0  0  0  0  0  0  0  0  0
    0.9410   -0.0170    1.6050 C   0  0  0  0  0  0  0  0  0  0  0  0
    0.8340    0.4900    0.3340 O   0  0  0  0  0  0  0  0  0  0  0  0
    2.2920    0.9930   -0.3100 P   0  0  2  0  0  0  0  0  0  0  0  0
    3.0360    1.7880    0.7650 O   0  0  0  0  0  0  0  0  0  0  0  0
    2.0680    2.0450   -1.6090 O   0  0  0  0  0  0  0  0  0  0  0  0
    3.3280   -0.3820   -0.8480 C   0  0  0  0  0  0  0  0  0  0  0  0
    4.5980    0.1400   -2.0140 P   0  0  2  0  0  0  0  0  0  0  0  0
    5.0990    1.5310   -1.7230 O   0  0  0  0  0  0  0  0  0  0  0  0
    3.9660    0.0250   -3.5870 O   0  0  0  0  0  0  0  0  0  0  0  0
    5.8810   -0.9680   -1.9070 O   0  0  0  0  0  0  0  0  0  0  0  0
    7.3680   -0.2220   -2.0750 P   0  0  2  0  0  0  0  0  0  0  0  0
    7.7510   -0.0610   -3.5490 O   0  0  0  0  0  0  0  0  0  0  0  0
    8.5610   -1.1840   -1.3280 O   0  0  0  0  0  0  0  0  0  0  0  0
    7.3450    1.3120   -1.3980 O   0  0  0  0  0  0  0  0  0  0  0  0
   -1.0550   -1.4870    1.2600 C   0  0  1  0  0  0  0  0  0  0  0  0
   -0.4610   -2.7330    1.3650 O   0  0  0  0  0  0  0  0  0  0  0  0
   -2.4520   -1.4650    1.8740 C   0  0  1  0  0  0  0  0  0  0  0  0
   -2.4110   -2.2440    3.0330 O   0  0  0  0  0  0  0  0  0  0  0  0
  1  2  1  0
  2  3  2  0
  2  7  1  0
  3  4  1  0
  4  5  2  0
  5  6  1  0
  6  7  2  0
  6 10  1  0
  7  8  1  0
  8  9  2  0
  9 10  1  0
 11 10  1  6
 11 12  1  0
 11 30  1  0
 12 13  1  0
 13 14  1  6
 13 28  1  0
 14 15  1  0
 15 16  1  0
 16 17  2  0
 16 18  1  6
 16 19  1  0
 19 20  1  0
 20 21  2  0
 20 22  1  6
 20 23  1  0
 23 24  1  0
 24 25  2  0
 24 26  1  1
 24 27  1  0
 28 29  1  1
 28 30  1  0
 30 31  1  1
M  END
