
     RDKit          3D

 31 33  0  0  0  0  0  0  0  0999 V2000
   -4.4810   -0.2900   -1.6870 C   0  0  0  0  0  0  0  0  0  0  0  0
   -3.3470   -1.3090   -1.5480 C   0  0  1  0  0  0  0  0  0  0  0  0
   -3.8380   -2.6090   -1.4780 O   0  0  0  0  0  0  0  0  0  0  0  0
   -2.4470   -1.1370   -2.5650 O   0  0  0  0  0  0  0  0  0  0  0  0
   -1.4990   -0.2250   -2.1890 C   0  0  0  0  0  0  0  0  0  0  0  0
   -1.5300   -0.1260   -0.7440 N   0  0  0  0  0  0  0  0  0  0  0  0
   -0.5970    0.6610   -0.0130 C   0  0  0  0  0  0  0  0  0  0  0  0
   -0.9800    1.6830    0.7780 N   0  0  0  0  0  0  0  0  0  0  0  0
   -0.1600    2.4490    1.4810 C   0  0  0  0  0  0  0  0  0  0  0  0
   -0.6560    3.4960    2.2810 O   0  0  0  0  0  0  0  0  0  0  0  0
    0.3750    4.5270    3.2200 P   0  0  0  0  0  0  0  0  0  0  0  0
    1.5860    3.6680    4.0920 O   0  0  0  0  0  0  0  0  0  0  0  0
    1.0300    5.7650    2.2120 O   0  0  0  0  0  0  0  0  0  0  0  0
    1.1620    2.2050    1.4150 N   0  0  0  0  0  0  0  0  0  0  0  0
    1.6300    1.1980    0.6440 C   0  0  0  0  0  0  0  0  0  0  0  0
    2.8540    0.7100    0.3710 N   0  0  0  0  0  0  0  0  0  0  0  0
    2.7510   -0.3380   -0.4890 C   0  0  0  0  0  0  0  0  0  0  0  0
    3.9190   -1.1190   -1.0070 C   0  0  2  0  0  0  0  0  0  0  0  0
    3.6750   -2.4650   -0.9580 O   0  0  0  0  0  0  0  0  0  0  0  0
    3.5900   -3.2460   -2.4710 P   0  0  0  0  0  0  0  0  0  0  0  0
    4.5720   -4.3750   -2.9220 O   0  0  0  0  0  0  0  0  0  0  0  0
    5.4700   -0.5900   -0.1760 P   0  0  0  0  0  0  0  0  0  0  0  0
    5.1250    0.1720    1.3430 O   0  0  0  0  0  0  0  0  0  0  0  0
    6.5750   -1.8700    0.1030 O   0  0  0  0  0  0  0  0  0  0  0  0
    1.4880   -0.4880   -0.7370 O   0  0  0  0  0  0  0  0  0  0  0  0
    0.7620    0.3980   -0.0910 C   0  0  0  0  0  0  0  0  0  0  0  0
   -2.6030   -0.9230   -0.3150 C   0  0  0  0  0  0  0  0  0  0  0  0
   -2.8510   -1.2260    0.8980 N   0  0  0  0  0  0  0  0  0  0  0  0
   -3.9540   -2.0380    1.2730 C   0  0  0  0  0  0  0  0  0  0  0  0
   -3.9460   -3.2790    1.0680 O   0  0  0  0  0  0  0  0  0  0  0  0
   -5.0650   -1.4620    1.8770 O   0  0  0  0  0  0  0  0  0  0  0  0
  2  1  1  6
  2  3  1  0
  2  4  1  0
  2 27  1  0
  4  5  1  0
  5  6  1  0
  6  7  1  0
  6 27  1  0
  7  8  2  0
  7 26  1  0
  8  9  1  0
  9 10  1  0
  9 14  2  0
 10 11  1  0
 11 12  1  0
 11 13  1  0
 14 15  1  0
 15 16  1  0
 15 26  2  0
 16 17  2  0
 17 18  1  0
 17 25  1  0
 18 19  1  1
 18 22  1  0
 19 20  1  0
 20 21  2  0
 22 23  1  0
 22 24  1  0
 25 26  1  0
 27 28  2  3
 28 29  1  0
 29 30  2  0
 29 31  1  0
M  END
