
     RDKit          3D

 30 31  0  0  0  0  0  0  0  0999 V2000
   -6.6510   -2.0150    1.5090 C   0  0  0  0  0  0  0  0  0  0  0  0
   -6.3660   -0.7780    0.8670 N   0  0  0  0  0  0  0  0  0  0  0  0
   -7.3220    0.3200    1.1470 C   0  0  0  0  0  0  0  0  0  0  0  0
   -8.9820   -0.1940    0.4700 P   0  0  0  0  0  0  0  0  0  0  0  0
   -9.5240    0.4710   -0.7910 O   0  0  0  0  0  0  0  0  0  0  0  0
   -5.2800   -0.4340    0.0350 C   0  0  0  0  0  0  0  0  0  0  0  0
   -5.3860    0.2920   -1.0300 N   0  0  0  0  0  0  0  0  0  0  0  0
   -3.9440   -0.8450    0.3010 O   0  0  0  0  0  0  0  0  0  0  0  0
   -2.9830    0.1810    0.3050 C   0  0  0  0  0  0  0  0  0  0  0  0
   -3.2330    1.4210   -0.0040 N   0  0  0  0  0  0  0  0  0  0  0  0
   -2.0720    2.2040    0.0970 O   0  0  0  0  0  0  0  0  0  0  0  0
   -1.3240    1.5160    1.1670 C   0  0  0  0  0  0  0  0  0  0  0  0
   -1.5410    0.1090    0.6360 C   0  0  2  0  0  0  0  0  0  0  0  0
   -0.7060   -0.1240   -0.5650 N   0  0  0  0  0  0  0  0  0  0  0  0
    0.1410   -1.1590   -0.2250 C   0  0  0  0  0  0  0  0  0  0  0  0
    1.3230   -1.7390   -0.9850 C   0  0  0  0  0  0  0  0  0  0  0  0
    2.4550   -1.1110   -0.3760 O   0  0  0  0  0  0  0  0  0  0  0  0
    2.5650    0.2700   -0.5210 C   0  0  0  0  0  0  0  0  0  0  0  0
    1.7080    0.8780   -1.2170 O   0  0  0  0  0  0  0  0  0  0  0  0
    3.6790    0.9400    0.1440 C   0  0  0  0  0  0  0  0  0  0  0  0
    4.9010   -0.0330    0.0790 C   0  0  0  0  0  0  0  0  0  0  0  0
    4.9520   -0.1700   -1.3240 O   0  0  0  0  0  0  0  0  0  0  0  0
    6.3230    0.6030   -1.9390 P   0  0  0  0  0  0  0  0  0  0  0  0
    6.3340    0.9220   -3.5990 O   0  0  0  0  0  0  0  0  0  0  0  0
    7.0260    1.7870   -0.9060 O   0  0  0  0  0  0  0  0  0  0  0  0
    8.5000    1.0130   -0.2230 P   0  0  0  0  0  0  0  0  0  0  0  0
    8.6890   -0.4860   -1.1610 O   0  0  0  0  0  0  0  0  0  0  0  0
    8.1710    0.5970    1.4270 O   0  0  0  0  0  0  0  0  0  0  0  0
   -0.1760   -1.6080    0.9730 N   0  0  0  0  0  0  0  0  0  0  0  0
   -1.2130   -0.9100    1.5070 O   0  0  0  0  0  0  0  0  0  0  0  0
  1  2  1  0
  2  3  1  0
  2  6  1  0
  3  4  1  0
  4  5  2  0
  6  7  2  0
  6  8  1  0
  8  9  1  0
  9 10  2  0
  9 13  1  0
 10 11  1  0
 11 12  1  0
 13 12  1  1
 13 14  1  0
 13 30  1  0
 14 15  1  0
 15 16  1  0
 15 29  2  0
 16 17  1  0
 17 18  1  0
 18 19  2  0
 18 20  1  0
 20 21  1  0
 21 22  1  0
 22 23  1  0
 23 24  1  0
 23 25  1  0
 25 26  1  0
 26 27  1  0
 26 28  1  0
 29 30  1  0
M  END
