
     RDKit          3D

 31 32  0  0  0  0  0  0  0  0999 V2000
   -1.3630   -0.3980    2.3770 O   0  0  0  0  0  0  0  0  0  0  0  0
   -2.6140   -0.9580    1.6530 P   0  0  0  0  0  0  0  0  0  0  0  0
   -2.7490   -0.7640   -0.1840 C   0  0  2  0  0  0  0  0  0  0  0  0
   -3.1940    0.5270   -0.5930 N   0  0  0  0  0  0  0  0  0  0  0  0
   -4.3390    0.9970   -0.2610 C   0  0  0  0  0  0  0  0  0  0  0  0
   -4.8100    2.3490   -0.6860 C   0  0  0  0  0  0  0  0  0  0  0  0
   -5.4840    3.0030    0.4170 N   0  0  0  0  0  0  0  0  0  0  0  0
   -6.5710    2.2670    0.7840 O   0  0  0  0  0  0  0  0  0  0  0  0
   -6.3940    0.9180    1.0760 C   0  0  0  0  0  0  0  0  0  0  0  0
   -7.1970    0.2660    1.7850 O   0  0  0  0  0  0  0  0  0  0  0  0
   -5.2460    0.2510    0.5430 N   0  0  0  0  0  0  0  0  0  0  0  0
   -3.6290   -1.7610   -0.7700 N   0  0  0  0  0  0  0  0  0  0  0  0
   -3.2230   -1.9540   -2.1290 C   0  0  0  0  0  0  0  0  0  0  0  0
   -1.8870   -1.2610   -2.2990 C   0  0  0  0  0  0  0  0  0  0  0  0
   -1.4280   -1.1480   -0.8590 C   0  0  1  0  0  0  0  0  0  0  0  0
   -0.4150   -0.1600   -0.6730 N   0  0  0  0  0  0  0  0  0  0  0  0
    0.8470   -0.4250   -0.0910 C   0  0  0  0  0  0  0  0  0  0  0  0
    1.0760   -1.6040    0.2800 O   0  0  0  0  0  0  0  0  0  0  0  0
    1.8780    0.6560    0.0810 C   0  0  0  0  0  0  0  0  0  0  0  0
    3.4060    0.0210    0.8590 P   0  0  0  0  0  0  0  0  0  0  0  0
    4.6180   -0.4680   -0.2370 O   0  0  0  0  0  0  0  0  0  0  0  0
    4.6690    0.3930   -1.3090 C   0  0  0  0  0  0  0  0  0  0  0  0
    4.9550    1.7260   -0.9390 O   0  0  0  0  0  0  0  0  0  0  0  0
    6.1330    2.0670   -0.2830 C   0  0  0  0  0  0  0  0  0  0  0  0
    6.9280    1.1130   -0.0370 O   0  0  0  0  0  0  0  0  0  0  0  0
    6.4230    3.3800    0.0850 O   0  0  0  0  0  0  0  0  0  0  0  0
    7.5640    3.6770    0.7170 O   0  0  0  0  0  0  0  0  0  0  0  0
    3.1090   -1.1230    2.1120 O   0  0  0  0  0  0  0  0  0  0  0  0
    4.0270   -2.5680    1.9340 P   0  0  0  0  0  0  0  0  0  0  0  0
    5.6860   -2.2700    1.5780 O   0  0  0  0  0  0  0  0  0  0  0  0
    3.2960   -3.7040    0.8740 O   0  0  0  0  0  0  0  0  0  0  0  0
  1  2  2  0
  2  3  1  0
  3  4  1  1
  3 12  1  0
  3 15  1  0
  4  5  2  3
  5  6  1  0
  5 11  1  0
  6  7  1  0
  7  8  1  0
  8  9  1  0
  9 10  2  0
  9 11  1  0
 12 13  1  0
 13 14  1  0
 14 15  1  0
 15 16  1  6
 16 17  1  0
 17 18  2  0
 17 19  1  0
 19 20  1  0
 20 21  1  0
 20 28  1  0
 21 22  1  0
 22 23  1  0
 23 24  1  0
 24 25  2  0
 24 26  1  0
 26 27  1  0
 28 29  1  0
 29 30  1  0
 29 31  1  0
M  END
