
     RDKit          3D

 45 50  0  0  0  0  0  0  0  0999 V2000
    7.9230    0.6370   -0.9840 C   0  0  0  0  0  0  0  0  0  0  0  0
    6.5730    0.9730   -0.5700 C   0  0  0  0  0  0  0  0  0  0  0  0
    6.3410    2.2470   -0.2070 C   0  0  0  0  0  0  0  0  0  0  0  0
    7.4410    3.2620   -0.2290 C   0  0  1  0  0  0  0  0  0  0  0  0
    8.5320    2.8110    0.4690 F   0  0  0  0  0  0  0  0  0  0  0  0
    7.7950    3.6980   -1.4570 F   0  0  0  0  0  0  0  0  0  0  0  0
    5.4330   -0.0120   -0.5390 C   0  0  0  0  0  0  0  0  0  0  0  0
    4.2900    0.5870    0.0900 N   0  0  0  0  0  0  0  0  0  0  0  0
    3.0990    0.0700    0.5760 C   0  0  0  0  0  0  0  0  0  0  0  0
    2.8670   -1.1230    0.5470 O   0  0  0  0  0  0  0  0  0  0  0  0
    2.0170    0.9050    1.1640 C   0  0  0  0  0  0  0  0  0  0  0  0
    2.1370    2.2570    1.2570 C   0  0  0  0  0  0  0  0  0  0  0  0
    1.0920    3.0150    1.8190 C   0  0  0  0  0  0  0  0  0  0  0  0
   -0.0490    2.3720    2.2710 C   0  0  0  0  0  0  0  0  0  0  0  0
   -1.1620    2.7650    2.8240 O   0  0  0  0  0  0  0  0  0  0  0  0
   -1.9420    1.7510    3.0710 C   0  0  0  0  0  0  0  0  0  0  0  0
   -3.1040    1.8090    3.6090 O   0  0  0  0  0  0  0  0  0  0  0  0
   -1.3200    0.6320    2.6630 N   0  0  0  0  0  0  0  0  0  0  0  0
   -1.7900   -0.7070    2.7280 C   0  0  0  0  0  0  0  0  0  0  0  0
   -2.4710   -1.3090    1.5640 C   0  0  0  0  0  0  0  0  0  0  0  0
   -3.6200   -0.7530    1.0300 N   0  0  0  0  0  0  0  0  0  0  0  0
   -3.5670    0.4620    0.2720 C   0  0  2  0  0  0  0  0  0  0  0  0
   -4.9640    1.0820    0.4660 C   0  0  0  0  0  0  0  0  0  0  0  0
   -4.8060    2.5210    0.1800 N   0  0  0  0  0  0  0  0  0  0  0  0
   -4.2740    3.0340   -1.0640 C   0  0  0  0  0  0  0  0  0  0  0  0
   -4.6190    4.2260   -1.3750 N   0  0  0  0  0  0  0  0  0  0  0  0
   -3.3940    2.2960   -1.9580 C   0  0  0  0  0  0  0  0  0  0  0  0
   -2.4230    2.9940   -2.5080 C   0  0  0  0  0  0  0  0  0  0  0  0
   -2.2280    4.2980   -2.2790 F   0  0  0  0  0  0  0  0  0  0  0  0
   -3.5150    0.8570   -2.2510 C   0  0  0  0  0  0  0  0  0  0  0  0
   -3.3560   -0.0700   -1.1210 C   0  0  2  0  0  0  0  0  0  0  0  0
   -4.1670   -1.2600   -1.1510 N   0  0  0  0  0  0  0  0  0  0  0  0
   -3.4460   -2.3910   -1.7060 C   0  0  0  0  0  0  0  0  0  0  0  0
   -3.6480   -3.5330   -0.7840 C   0  0  0  0  0  0  0  0  0  0  0  0
   -3.3760   -4.8830   -0.8750 C   0  0  0  0  0  0  0  0  0  0  0  0
   -3.6690   -5.7740    0.1380 C   0  0  0  0  0  0  0  0  0  0  0  0
   -4.2560   -5.2610    1.2740 C   0  0  0  0  0  0  0  0  0  0  0  0
   -4.5340   -3.9150    1.3830 C   0  0  0  0  0  0  0  0  0  0  0  0
   -4.2350   -3.0400    0.3620 C   0  0  0  0  0  0  0  0  0  0  0  0
   -4.4360   -1.5930    0.2400 C   0  0  1  0  0  0  0  0  0  0  0  0
   -0.1200    1.0150    2.1560 C   0  0  0  0  0  0  0  0  0  0  0  0
    0.8930    0.2980    1.6120 N   0  0  0  0  0  0  0  0  0  0  0  0
    5.5910   -1.2640   -0.8600 C   0  0  0  0  0  0  0  0  0  0  0  0
    6.8830   -1.8950   -1.2650 C   0  0  0  0  0  0  0  0  0  0  0  0
    4.4560   -2.2520   -1.0770 C   0  0  0  0  0  0  0  0  0  0  0  0
  1  2  1  0
  2  3  2  3
  2  7  1  0
  3  4  1  0
  4  5  1  6
  4  6  1  0
  7  8  1  0
  7 43  2  3
  8  9  1  0
  9 10  2  0
  9 11  1  0
 11 12  2  0
 11 42  1  0
 12 13  1  0
 13 14  2  0
 14 15  1  0
 14 41  1  0
 15 16  1  0
 16 17  2  0
 16 18  1  0
 18 19  1  0
 18 41  1  0
 19 20  1  0
 20 21  1  0
 21 22  1  0
 40 21  1  1
 22 23  1  6
 22 31  1  0
 23 24  1  0
 24 25  1  0
 25 26  2  0
 25 27  1  0
 27 28  2  3
 27 30  1  0
 28 29  1  0
 31 30  1  6
 31 32  1  0
 32 33  1  0
 32 40  1  0
 33 34  1  0
 34 35  2  0
 34 39  1  0
 35 36  1  0
 36 37  2  0
 37 38  1  0
 38 39  2  0
 39 40  1  0
 41 42  2  0
 43 44  1  0
 43 45  1  0
M  CHG  1  26   1
M  END
