
     RDKit          3D

 45 51  0  0  0  0  0  0  0  0999 V2000
    8.0590   -1.1850    2.9660 C   0  0  0  0  0  0  0  0  0  0  0  0
    7.8090   -0.6180    1.5820 C   0  0  1  0  0  0  0  0  0  0  0  0
    7.6330   -1.7670    0.6490 C   0  0  0  0  0  0  0  0  0  0  0  0
    6.2930   -1.4710    0.0200 C   0  0  0  0  0  0  0  0  0  0  0  0
    5.5830   -2.0740   -0.9840 C   0  0  0  0  0  0  0  0  0  0  0  0
    4.3470   -1.5720   -1.3620 C   0  0  0  0  0  0  0  0  0  0  0  0
    3.5960   -2.2890   -2.4460 C   0  0  0  0  0  0  0  0  0  0  0  0
    2.5650   -3.1580   -1.7600 C   0  0  0  0  0  0  0  0  0  0  0  0
    1.7660   -3.8970   -2.7190 N   0  0  0  0  0  0  0  0  0  0  0  0
    3.7640   -0.4670   -0.7750 C   0  0  0  0  0  0  0  0  0  0  0  0
    2.5430    0.0390   -1.1560 C   0  0  0  0  0  0  0  0  0  0  0  0
    2.0090    1.1540   -0.5410 C   0  0  0  0  0  0  0  0  0  0  0  0
    0.7290    1.6820   -0.9560 N   0  0  0  0  0  0  0  0  0  0  0  0
    0.5750    2.7390   -1.7300 N   0  0  0  0  0  0  0  0  0  0  0  0
   -0.7120    2.9860   -1.9470 C   0  0  0  0  0  0  0  0  0  0  0  0
   -1.2500    3.9040   -2.6310 O   0  0  0  0  0  0  0  0  0  0  0  0
   -1.3890    2.0150   -1.2600 N   0  0  0  0  0  0  0  0  0  0  0  0
   -2.8400    1.8770   -1.2340 C   0  0  0  0  0  0  0  0  0  0  0  0
   -3.4450    2.7130   -0.1560 C   0  0  2  0  0  0  0  0  0  0  0  0
   -2.9930    2.3480    1.1360 N   0  0  0  0  0  0  0  0  0  0  0  0
   -3.2270    1.0950    1.7520 C   0  0  0  0  0  0  0  0  0  0  0  0
   -2.7690    0.8270    3.0270 C   0  0  0  0  0  0  0  0  0  0  0  0
   -2.9730   -0.3830    3.6590 C   0  0  0  0  0  0  0  0  0  0  0  0
   -3.6480   -1.3120    2.9730 N   0  0  0  0  0  0  0  0  0  0  0  0
   -4.1170   -1.0860    1.7130 C   0  0  0  0  0  0  0  0  0  0  0  0
   -4.8470   -2.2150    1.0860 C   0  0  2  0  0  0  0  0  0  0  0  0
   -4.3570   -2.5190   -0.3490 C   0  0  0  0  0  0  0  0  0  0  0  0
   -5.7070   -1.8880   -0.1040 C   0  0  0  0  0  0  0  0  0  0  0  0
   -3.8980    0.0940    1.1430 N   0  0  0  0  0  0  0  0  0  0  0  0
   -4.9390    2.6300   -0.2860 C   0  0  0  0  0  0  0  0  0  0  0  0
   -5.5600    1.9020   -1.2670 C   0  0  0  0  0  0  0  0  0  0  0  0
   -6.9360    1.8680   -1.3400 C   0  0  0  0  0  0  0  0  0  0  0  0
   -7.5800    1.1450   -2.3140 F   0  0  0  0  0  0  0  0  0  0  0  0
   -7.6740    2.5720   -0.4170 C   0  0  0  0  0  0  0  0  0  0  0  0
   -7.0590    3.3200    0.5900 C   0  0  0  0  0  0  0  0  0  0  0  0
   -5.6870    3.3280    0.6280 C   0  0  0  0  0  0  0  0  0  0  0  0
   -5.1170    4.0730    1.6280 F   0  0  0  0  0  0  0  0  0  0  0  0
   -0.5000    1.2350   -0.6660 C   0  0  0  0  0  0  0  0  0  0  0  0
   -0.6890    0.2070    0.0750 O   0  0  0  0  0  0  0  0  0  0  0  0
    2.7330    1.7440    0.4650 C   0  0  0  0  0  0  0  0  0  0  0  0
    2.2260    2.8340    1.0770 F   0  0  0  0  0  0  0  0  0  0  0  0
    3.9570    1.2400    0.8480 C   0  0  0  0  0  0  0  0  0  0  0  0
    4.5120    0.1240    0.2440 C   0  0  0  0  0  0  0  0  0  0  0  0
    5.7410   -0.3690    0.6270 C   0  0  0  0  0  0  0  0  0  0  0  0
    6.5930    0.0990    1.6070 O   0  0  0  0  0  0  0  0  0  0  0  0
  2  1  1  1
  2  3  1  0
  2 45  1  0
  3  4  1  0
  4  5  2  0
  4 44  1  0
  5  6  1  0
  6  7  1  0
  6 10  2  0
  7  8  1  0
  8  9  1  0
 10 11  1  0
 10 43  1  0
 11 12  2  0
 12 13  1  0
 12 40  1  0
 13 14  1  0
 13 38  1  0
 14 15  1  0
 15 16  2  0
 15 17  1  0
 17 18  1  0
 17 38  1  0
 19 18  1  6
 19 20  1  0
 19 30  1  0
 20 21  1  0
 21 22  2  0
 21 29  1  0
 22 23  1  0
 23 24  2  0
 24 25  1  0
 26 25  1  6
 25 29  2  0
 26 27  1  0
 26 28  1  0
 27 28  1  0
 30 31  2  0
 30 36  1  0
 31 32  1  0
 32 33  1  0
 32 34  2  0
 34 35  1  0
 35 36  2  0
 36 37  1  0
 38 39  2  0
 40 41  1  0
 40 42  2  0
 42 43  1  0
 43 44  2  0
 44 45  1  0
M  CHG  1   9   1
M  END
