
     RDKit          3D

 22 23  0  0  0  0  0  0  0  0999 V2000
    4.0030   -0.5290   -1.0020 C   0  0  0  0  0  0  0  0  0  0  0  0
    3.8960    0.1000    0.3300 C   0  0  2  0  0  0  0  0  0  0  0  0
    4.7610    1.1900    0.5370 O   0  0  0  0  0  0  0  0  0  0  0  0
    4.4740   -0.9780    1.3260 C   0  0  0  0  0  0  0  0  0  0  0  0
    4.4160   -0.4760    2.6040 O   0  0  0  0  0  0  0  0  0  0  0  0
    2.6820    0.3840    0.8240 O   0  0  0  0  0  0  0  0  0  0  0  0
    1.9910    1.4460    0.3750 C   0  0  0  0  0  0  0  0  0  0  0  0
    1.6050    1.3750   -1.0510 C   0  0  0  0  0  0  0  0  0  0  0  0
    0.8090    0.3410   -1.4740 O   0  0  0  0  0  0  0  0  0  0  0  0
   -0.4700    0.0470   -1.1140 C   0  0  0  0  0  0  0  0  0  0  0  0
   -1.0200   -1.1100   -1.7050 C   0  0  0  0  0  0  0  0  0  0  0  0
   -2.3030   -1.4800   -1.4010 C   0  0  0  0  0  0  0  0  0  0  0  0
   -2.8590   -2.6200   -1.9760 O   0  0  0  0  0  0  0  0  0  0  0  0
   -3.0890   -0.7600   -0.5310 C   0  0  0  0  0  0  0  0  0  0  0  0
   -4.3850   -1.1260   -0.2190 C   0  0  0  0  0  0  0  0  0  0  0  0
   -5.1440   -0.3740    0.6610 C   0  0  0  0  0  0  0  0  0  0  0  0
   -6.4460   -0.7410    0.9760 O   0  0  0  0  0  0  0  0  0  0  0  0
   -4.6470    0.7640    1.2610 C   0  0  0  0  0  0  0  0  0  0  0  0
   -5.4190    1.5140    2.1460 O   0  0  0  0  0  0  0  0  0  0  0  0
   -3.3480    1.1220    0.9410 C   0  0  0  0  0  0  0  0  0  0  0  0
   -2.5870    0.3760    0.0640 C   0  0  0  0  0  0  0  0  0  0  0  0
   -1.2750    0.7370   -0.2590 C   0  0  0  0  0  0  0  0  0  0  0  0
  2  1  1  6
  2  3  1  0
  2  4  1  0
  2  6  1  0
  4  5  1  0
  6  7  1  0
  7  8  1  0
  8  9  1  0
  9 10  1  0
 10 11  2  0
 10 22  1  0
 11 12  1  0
 12 13  1  0
 12 14  2  0
 14 15  1  0
 14 21  1  0
 15 16  2  0
 16 17  1  0
 16 18  1  0
 18 19  1  0
 18 20  2  0
 20 21  1  0
 21 22  2  0
M  END
