
     RDKit          3D

 23 24  0  0  0  0  0  0  0  0999 V2000
   -7.1360    1.2610   -0.0740 O   0  0  0  0  0  0  0  0  0  0  0  0
   -6.2210    0.5470   -0.8110 C   0  0  0  0  0  0  0  0  0  0  0  0
   -4.8430    0.7750   -0.2700 C   0  0  0  0  0  0  0  0  0  0  0  0
   -3.8550    0.0630   -0.9910 O   0  0  0  0  0  0  0  0  0  0  0  0
   -2.5070    0.1250   -0.6670 C   0  0  0  0  0  0  0  0  0  0  0  0
   -1.7060    1.0890   -1.2450 C   0  0  0  0  0  0  0  0  0  0  0  0
   -2.3200    1.9640   -2.1420 O   0  0  0  0  0  0  0  0  0  0  0  0
   -0.3640    1.1640   -0.9340 C   0  0  0  0  0  0  0  0  0  0  0  0
    0.2480    0.2890   -0.0380 C   0  0  0  0  0  0  0  0  0  0  0  0
    1.6810    0.3980    0.2640 C   0  0  1  0  0  0  0  0  0  0  0  0
    1.9590    0.3120    1.6170 O   0  0  0  0  0  0  0  0  0  0  0  0
    2.4940   -0.4160   -0.5240 O   0  0  0  0  0  0  0  0  0  0  0  0
    3.8810   -0.3890   -0.3070 C   0  0  0  0  0  0  0  0  0  0  0  0
    4.4930    0.5770    0.3500 C   0  0  0  0  0  0  0  0  0  0  0  0
    5.9510    0.6560    0.6080 C   0  0  0  0  0  0  0  0  0  0  0  0
    6.6180   -0.4280    0.0660 O   0  0  0  0  0  0  0  0  0  0  0  0
    6.0030   -1.4430   -0.6210 C   0  0  0  0  0  0  0  0  0  0  0  0
    4.7050   -1.4930   -0.8380 C   0  0  0  0  0  0  0  0  0  0  0  0
   -0.5560   -0.6680    0.5320 C   0  0  0  0  0  0  0  0  0  0  0  0
    0.0560   -1.6170    1.4940 C   0  0  0  0  0  0  0  0  0  0  0  0
   -0.9880   -2.4880    1.9040 O   0  0  0  0  0  0  0  0  0  0  0  0
   -1.9190   -0.7460    0.2180 C   0  0  0  0  0  0  0  0  0  0  0  0
   -2.6810   -1.7330    0.8250 O   0  0  0  0  0  0  0  0  0  0  0  0
  1  2  1  0
  2  3  1  0
  3  4  1  0
  4  5  1  0
  5  6  2  0
  5 22  1  0
  6  7  1  0
  6  8  1  0
  8  9  2  0
  9 10  1  0
  9 19  1  0
 10 11  1  1
 10 12  1  0
 12 13  1  0
 13 14  2  0
 13 18  1  0
 14 15  1  0
 15 16  1  0
 16 17  1  0
 17 18  2  0
 19 20  1  0
 19 22  2  0
 20 21  1  0
 22 23  1  0
M  END
