
     RDKit          3D

 22 22  0  0  0  0  0  0  0  0999 V2000
    1.6820   -1.0070    0.0940 O   0  0  0  0  0  0  0  0  0  0  0  0
    1.6650   -0.0190   -0.6490 C   0  0  0  0  0  0  0  0  0  0  0  0
    2.8880    0.1830   -1.3350 O   0  0  0  0  0  0  0  0  0  0  0  0
    3.9960   -0.6520   -1.1810 C   0  0  1  0  0  0  0  0  0  0  0  0
    4.3990   -1.3540   -2.4480 C   0  0  0  0  0  0  0  0  0  0  0  0
    3.3520   -2.1480   -2.9120 O   0  0  0  0  0  0  0  0  0  0  0  0
    5.1870    0.0600   -0.5750 C   0  0  0  0  0  0  0  0  0  0  0  0
    4.8910    0.5650    0.6860 O   0  0  0  0  0  0  0  0  0  0  0  0
    0.5570    0.8840   -0.8550 C   0  0  0  0  0  0  0  0  0  0  0  0
    0.7140    1.8940   -1.6910 C   0  0  0  0  0  0  0  0  0  0  0  0
    1.9300    2.0480   -2.3320 O   0  0  0  0  0  0  0  0  0  0  0  0
   -0.7380    0.7310   -0.1520 C   0  0  0  0  0  0  0  0  0  0  0  0
   -0.9640   -0.2550    0.6730 C   0  0  0  0  0  0  0  0  0  0  0  0
   -2.2860   -0.3900    1.3650 C   0  0  0  0  0  0  0  0  0  0  0  0
   -2.5140   -1.3670    2.1750 C   0  0  0  0  0  0  0  0  0  0  0  0
   -3.7280   -1.6300    2.9310 C   0  0  0  0  0  0  0  0  0  0  0  0
   -4.3540   -2.8420    2.6570 O   0  0  0  0  0  0  0  0  0  0  0  0
   -3.2360    0.6330    1.0250 C   0  0  0  0  0  0  0  0  0  0  0  0
   -4.4790    0.4090    0.7380 C   0  0  0  0  0  0  0  0  0  0  0  0
   -5.1780   -0.7630    0.6740 O   0  0  0  0  0  0  0  0  0  0  0  0
   -2.6290    2.0080    0.8650 C   0  0  0  0  0  0  0  0  0  0  0  0
   -1.7490    1.8190   -0.3900 C   0  0  0  0  0  0  0  0  0  0  0  0
  1  2  2  0
  2  3  1  0
  2  9  1  0
  3  4  1  0
  4  5  1  6
  4  7  1  0
  5  6  1  0
  7  8  1  0
  9 10  2  3
  9 12  1  0
 10 11  1  0
 12 13  2  0
 12 22  1  0
 13 14  1  0
 14 15  2  3
 14 18  1  0
 15 16  1  0
 16 17  1  0
 18 19  2  3
 18 21  1  0
 19 20  1  0
 21 22  1  0
M  END
