
     RDKit          3D

 22 23  0  0  0  0  0  0  0  0999 V2000
    4.1930    1.6110    0.1460 O   0  0  0  0  0  0  0  0  0  0  0  0
    4.2100    0.3880   -0.5340 C   0  0  0  0  0  0  0  0  0  0  0  0
    3.0270   -0.4490   -0.0780 C   0  0  0  0  0  0  0  0  0  0  0  0
    3.3860   -1.7590    0.2910 C   0  0  0  0  0  0  0  0  0  0  0  0
    4.7360   -2.1640    0.3560 O   0  0  0  0  0  0  0  0  0  0  0  0
    2.3900   -2.6050    0.5760 C   0  0  0  0  0  0  0  0  0  0  0  0
    1.0160   -2.1950    0.4930 C   0  0  0  0  0  0  0  0  0  0  0  0
    0.6960   -0.8800    0.1050 C   0  0  0  0  0  0  0  0  0  0  0  0
    1.7360   -0.0340   -0.1650 C   0  0  0  0  0  0  0  0  0  0  0  0
    1.4370    1.2940   -0.5230 O   0  0  0  0  0  0  0  0  0  0  0  0
    0.7510    2.1880    0.3050 C   0  0  0  0  0  0  0  0  0  0  0  0
   -0.1620    3.1370   -0.4390 C   0  0  0  0  0  0  0  0  0  0  0  0
   -1.3220    3.3210    0.3230 O   0  0  0  0  0  0  0  0  0  0  0  0
   -2.3880    2.8810   -0.4340 C   0  0  0  0  0  0  0  0  0  0  0  0
   -2.9580    1.6780    0.2900 C   0  0  0  0  0  0  0  0  0  0  0  0
   -2.8220    0.5710   -0.5700 O   0  0  0  0  0  0  0  0  0  0  0  0
   -3.1220   -0.5660    0.0750 C   0  0  0  0  0  0  0  0  0  0  0  0
   -1.8080   -1.3250    0.4740 C   0  0  1  0  0  0  0  0  0  0  0  0
   -1.8450   -1.3580    1.8580 O   0  0  0  0  0  0  0  0  0  0  0  0
   -2.0660   -2.7350   -0.1240 C   0  0  0  0  0  0  0  0  0  0  0  0
   -1.8730   -2.6530   -1.5110 O   0  0  0  0  0  0  0  0  0  0  0  0
   -0.7040   -0.5880   -0.1680 C   0  0  0  0  0  0  0  0  0  0  0  0
  1  2  1  0
  2  3  1  0
  3  4  2  0
  3  9  1  0
  4  5  1  0
  4  6  1  0
  6  7  2  0
  7  8  1  0
  8  9  2  0
  8 22  1  0
  9 10  1  0
 10 11  1  0
 11 12  1  0
 12 13  1  0
 13 14  1  0
 14 15  1  0
 15 16  1  0
 16 17  1  0
 17 18  1  0
 18 19  1  1
 18 20  1  0
 18 22  1  0
 20 21  1  0
M  END
