
     RDKit          3D

 23 24  0  0  0  0  0  0  0  0999 V2000
   -1.9140   -0.5590    3.4200 C   0  0  0  0  0  0  0  0  0  0  0  0
   -2.3750   -0.3440    2.1230 O   0  0  0  0  0  0  0  0  0  0  0  0
   -1.5190   -0.3290    1.0100 C   0  0  0  0  0  0  0  0  0  0  0  0
   -0.1750   -0.5250    1.1300 C   0  0  0  0  0  0  0  0  0  0  0  0
    0.6740   -0.5070    0.0280 C   0  0  0  0  0  0  0  0  0  0  0  0
    0.1670   -0.2930   -1.2500 C   0  0  0  0  0  0  0  0  0  0  0  0
   -1.1870   -0.0970   -1.3550 C   0  0  0  0  0  0  0  0  0  0  0  0
   -2.0440   -0.1070   -0.2700 C   0  0  0  0  0  0  0  0  0  0  0  0
   -3.3760    0.0880   -0.3670 O   0  0  0  0  0  0  0  0  0  0  0  0
   -4.2490    0.3430   -1.3790 C   0  0  0  0  0  0  0  0  0  0  0  0
   -4.0960    1.5940   -2.1660 C   0  0  0  0  0  0  0  0  0  0  0  0
   -5.1110    1.6390   -3.1550 O   0  0  0  0  0  0  0  0  0  0  0  0
    1.2920   -0.4080   -2.2460 C   0  0  2  0  0  0  0  0  0  0  0  0
    0.8750   -1.0910   -3.3660 O   0  0  0  0  0  0  0  0  0  0  0  0
    2.2520   -1.3320   -1.4750 C   0  0  1  0  0  0  0  0  0  0  0  0
    3.5290   -1.3020   -1.9270 O   0  0  0  0  0  0  0  0  0  0  0  0
    2.1060   -0.6510   -0.0990 C   0  0  0  0  0  0  0  0  0  0  0  0
    3.0880   -0.2450    0.6420 C   0  0  0  0  0  0  0  0  0  0  0  0
    3.0350    0.5110    1.8460 C   0  0  0  0  0  0  0  0  0  0  0  0
    1.9080    0.9820    2.4390 O   0  0  0  0  0  0  0  0  0  0  0  0
    4.1910    0.8100    2.4810 C   0  0  0  0  0  0  0  0  0  0  0  0
    5.4110    0.3840    1.9590 O   0  0  0  0  0  0  0  0  0  0  0  0
    4.2410    1.5380    3.6550 O   0  0  0  0  0  0  0  0  0  0  0  0
  1  2  1  0
  2  3  1  0
  3  4  2  0
  3  8  1  0
  4  5  1  0
  5  6  2  0
  5 17  1  0
  6  7  1  0
  6 13  1  0
  7  8  2  0
  8  9  1  0
  9 10  1  0
 10 11  1  0
 11 12  1  0
 13 14  1  6
 13 15  1  0
 15 16  1  6
 15 17  1  0
 17 18  2  3
 18 19  1  0
 19 20  1  0
 19 21  2  3
 21 22  1  0
 21 23  1  0
M  END
