
     RDKit          3D

 23 24  0  0  0  0  0  0  0  0999 V2000
    6.9090    0.2370    1.3810 C   0  0  0  0  0  0  0  0  0  0  0  0
    6.2320   -0.7040    0.3890 C   0  0  0  0  0  0  0  0  0  0  0  0
    4.9520   -0.2100    0.0750 O   0  0  0  0  0  0  0  0  0  0  0  0
    3.9930   -0.0330    1.0460 C   0  0  0  0  0  0  0  0  0  0  0  0
    4.2560   -0.3150    2.2300 O   0  0  0  0  0  0  0  0  0  0  0  0
    2.6650    0.4860    0.6800 C   0  0  0  0  0  0  0  0  0  0  0  0
    1.7440   -0.7410    0.5710 C   0  0  0  0  0  0  0  0  0  0  0  0
    0.5210   -0.5190    0.2530 O   0  0  0  0  0  0  0  0  0  0  0  0
   -0.7240   -0.2770   -0.0450 C   0  0  0  0  0  0  0  0  0  0  0  0
   -1.4500    0.5430    0.8280 C   0  0  0  0  0  0  0  0  0  0  0  0
   -2.7710    0.8420    0.5760 C   0  0  0  0  0  0  0  0  0  0  0  0
   -3.4390    1.6550    1.4700 O   0  0  0  0  0  0  0  0  0  0  0  0
   -3.4270    0.3450   -0.5440 C   0  0  0  0  0  0  0  0  0  0  0  0
   -2.7270   -0.4640   -1.4140 C   0  0  0  0  0  0  0  0  0  0  0  0
   -1.3780   -0.7740   -1.1640 C   0  0  0  0  0  0  0  0  0  0  0  0
   -0.6930   -1.5820   -2.0420 O   0  0  0  0  0  0  0  0  0  0  0  0
   -3.3200   -1.0400   -2.6360 C   0  0  0  0  0  0  0  0  0  0  0  0
   -4.6410   -0.7230   -2.8210 O   0  0  0  0  0  0  0  0  0  0  0  0
   -5.3960    0.0730   -2.0020 C   0  0  0  0  0  0  0  0  0  0  0  0
   -6.6070    0.3370   -2.2370 O   0  0  0  0  0  0  0  0  0  0  0  0
   -4.8150    0.6840   -0.7590 C   0  0  0  0  0  0  0  0  0  0  0  0
   -5.5730    1.4160   -0.0360 C   0  0  0  0  0  0  0  0  0  0  0  0
   -5.3900    2.0990    1.1090 O   0  0  0  0  0  0  0  0  0  0  0  0
  1  2  1  0
  2  3  1  0
  3  4  1  0
  4  5  2  0
  4  6  1  0
  6  7  1  0
  7  8  1  0
  8  9  1  0
  9 10  2  0
  9 15  1  0
 10 11  1  0
 11 12  1  0
 11 13  2  0
 13 14  1  0
 13 21  1  0
 14 15  2  0
 14 17  1  0
 15 16  1  0
 17 18  1  0
 18 19  1  0
 19 20  2  0
 19 21  1  0
 21 22  2  3
 22 23  1  0
M  END
