
     RDKit          3D

 29 32  0  0  0  0  0  0  0  0999 V2000
    7.0370   -2.1350    1.1980 O   0  0  0  0  0  0  0  0  0  0  0  0
    6.3630   -0.7870    1.3410 S   0  0  2  0  0  0  0  0  0  0  0  0
    6.3520   -0.4600    2.8010 O   0  0  0  0  0  0  0  0  0  0  0  0
    4.7200   -0.8690    0.7110 C   0  0  0  0  0  0  0  0  0  0  0  0
    3.6800   -0.2040    1.3250 C   0  0  0  0  0  0  0  0  0  0  0  0
    2.3780   -0.2650    0.8310 C   0  0  0  0  0  0  0  0  0  0  0  0
    2.0780   -0.9980   -0.2980 C   0  0  0  0  0  0  0  0  0  0  0  0
    0.7030   -1.0550   -0.8000 C   0  0  0  0  0  0  0  0  0  0  0  0
    0.3780   -2.1590   -1.4140 N   0  0  0  0  0  0  0  0  0  0  0  0
   -0.8540   -2.5390   -2.0120 C   0  0  0  0  0  0  0  0  0  0  0  0
   -2.0110   -1.9830   -1.7490 N   0  0  0  0  0  0  0  0  0  0  0  0
   -2.3550   -0.9260   -0.8640 C   0  0  0  0  0  0  0  0  0  0  0  0
   -3.7670   -0.8070   -0.4780 C   0  0  0  0  0  0  0  0  0  0  0  0
   -4.6270   -1.8130   -0.8590 C   0  0  0  0  0  0  0  0  0  0  0  0
   -5.9740   -1.7940   -0.5450 C   0  0  0  0  0  0  0  0  0  0  0  0
   -6.4340   -0.7170    0.1730 C   0  0  0  0  0  0  0  0  0  0  0  0
   -5.6030    0.3080    0.5710 C   0  0  0  0  0  0  0  0  0  0  0  0
   -6.0980    1.3900    1.3010 O   0  0  0  0  0  0  0  0  0  0  0  0
   -4.2550    0.2430    0.2310 C   0  0  0  0  0  0  0  0  0  0  0  0
   -1.5360   -0.0410   -0.3540 N   0  0  0  0  0  0  0  0  0  0  0  0
   -0.1360    0.0450   -0.5790 N   0  0  0  0  0  0  0  0  0  0  0  0
    0.4510    1.3340   -0.5540 C   0  0  0  0  0  0  0  0  0  0  0  0
    1.6190    1.6450   -1.2020 C   0  0  0  0  0  0  0  0  0  0  0  0
    2.1190    2.9220   -1.1050 C   0  0  0  0  0  0  0  0  0  0  0  0
    1.4870    3.8950   -0.3800 C   0  0  0  0  0  0  0  0  0  0  0  0
    0.3100    3.6210    0.2860 C   0  0  0  0  0  0  0  0  0  0  0  0
   -0.1760    2.3380    0.1770 C   0  0  0  0  0  0  0  0  0  0  0  0
    3.1270   -1.6590   -0.9040 C   0  0  0  0  0  0  0  0  0  0  0  0
    4.4160   -1.6000   -0.4170 C   0  0  0  0  0  0  0  0  0  0  0  0
  1  2  2  0
  2  3  2  0
  2  4  1  1
  4  5  2  0
  4 29  1  0
  5  6  1  0
  6  7  2  0
  7  8  1  0
  7 28  1  0
  8  9  2  0
  8 21  1  0
  9 10  1  0
 10 11  2  0
 11 12  1  0
 12 13  1  0
 12 20  2  0
 13 14  2  0
 13 19  1  0
 14 15  1  0
 15 16  2  0
 16 17  1  0
 17 18  1  0
 17 19  2  0
 20 21  1  0
 21 22  1  0
 22 23  2  0
 22 27  1  0
 23 24  1  0
 24 25  2  0
 25 26  1  0
 26 27  2  0
 28 29  2  0
M  END
