
     RDKit          3D

 29 32  0  0  0  0  0  0  0  0999 V2000
   -4.7970    1.3400    1.0380 C   0  0  0  0  0  0  0  0  0  0  0  0
   -5.3170    0.2750    0.5160 C   0  0  0  0  0  0  0  0  0  0  0  0
   -6.7380    0.1780    0.0070 C   0  0  0  0  0  0  0  0  0  0  0  0
   -6.9820   -1.3040    0.3290 C   0  0  0  0  0  0  0  0  0  0  0  0
   -5.7440   -1.9010   -0.2800 C   0  0  0  0  0  0  0  0  0  0  0  0
   -4.6540   -1.0180    0.3090 C   0  0  0  0  0  0  0  0  0  0  0  0
   -3.4860   -1.4220    0.5140 N   0  0  0  0  0  0  0  0  0  0  0  0
   -2.3340   -0.8980    0.9980 N   0  0  0  0  0  0  0  0  0  0  0  0
   -1.8640   -1.2520    2.2370 C   0  0  0  0  0  0  0  0  0  0  0  0
   -2.5600   -2.0660    2.9030 O   0  0  0  0  0  0  0  0  0  0  0  0
   -0.7100   -0.7430    2.7040 N   0  0  0  0  0  0  0  0  0  0  0  0
    0.0150    0.1220    1.9780 C   0  0  0  0  0  0  0  0  0  0  0  0
    1.0750    0.5790    2.4400 O   0  0  0  0  0  0  0  0  0  0  0  0
   -0.4040    0.5270    0.7050 C   0  0  0  0  0  0  0  0  0  0  0  0
    0.3130    1.4380   -0.0340 C   0  0  0  0  0  0  0  0  0  0  0  0
    1.8770    2.0360    0.4950 S   0  0  0  0  0  0  0  0  0  0  0  0
    3.3150    1.2790   -0.1600 C   0  0  0  0  0  0  0  0  0  0  0  0
    3.6290   -0.0940    0.0760 C   0  0  0  0  0  0  0  0  0  0  0  0
    2.8990   -0.9070    0.6680 O   0  0  0  0  0  0  0  0  0  0  0  0
    4.8770   -0.6280   -0.3830 N   0  0  0  0  0  0  0  0  0  0  0  0
    5.4300   -1.9360   -0.2930 C   0  0  0  0  0  0  0  0  0  0  0  0
    6.8650   -1.6580    0.1630 C   0  0  0  0  0  0  0  0  0  0  0  0
    7.0920   -0.1780   -0.1780 C   0  0  0  0  0  0  0  0  0  0  0  0
    5.9170    0.1430   -1.0910 C   0  0  0  0  0  0  0  0  0  0  0  0
   -0.1700    1.8330   -1.2650 C   0  0  0  0  0  0  0  0  0  0  0  0
    0.5610    2.8280   -2.1180 C   0  0  0  0  0  0  0  0  0  0  0  0
   -1.3570    1.2940   -1.7100 C   0  0  0  0  0  0  0  0  0  0  0  0
   -2.0650    0.3770   -0.9590 C   0  0  0  0  0  0  0  0  0  0  0  0
   -1.5900   -0.0190    0.2700 C   0  0  0  0  0  0  0  0  0  0  0  0
  1  2  2  0
  2  3  1  0
  2  6  1  0
  3  4  1  0
  4  5  1  0
  5  6  1  0
  6  7  2  3
  7  8  1  0
  8  9  1  0
  8 29  1  0
  9 10  2  0
  9 11  1  0
 11 12  1  0
 12 13  2  0
 12 14  1  0
 14 15  2  0
 14 29  1  0
 15 16  1  0
 15 25  1  0
 16 17  1  0
 17 18  1  0
 18 19  2  0
 18 20  1  0
 20 21  1  0
 20 24  1  0
 21 22  1  0
 22 23  1  0
 23 24  1  0
 25 26  1  0
 25 27  2  0
 27 28  1  0
 28 29  2  0
M  END
