
     RDKit          3D

 29 32  0  0  0  0  0  0  0  0999 V2000
   -7.0480   -2.1070   -1.2630 C   0  0  0  0  0  0  0  0  0  0  0  0
   -5.7670   -2.3380   -1.0330 C   0  0  0  0  0  0  0  0  0  0  0  0
   -4.8900   -1.2070   -0.6690 C   0  0  0  0  0  0  0  0  0  0  0  0
   -5.2000    0.0640   -0.5360 N   0  0  0  0  0  0  0  0  0  0  0  0
   -4.0730    0.7800   -0.1860 C   0  0  0  0  0  0  0  0  0  0  0  0
   -4.0820    2.2280    0.0550 C   0  0  0  0  0  0  0  0  0  0  0  0
   -3.1480    3.1300    0.1590 C   0  0  0  0  0  0  0  0  0  0  0  0
   -3.7240    4.5020    0.4220 C   0  0  0  0  0  0  0  0  0  0  0  0
   -5.1640    4.2260    0.4560 C   0  0  0  0  0  0  0  0  0  0  0  0
   -5.3520    2.9480    0.2480 C   0  0  0  0  0  0  0  0  0  0  0  0
   -3.0910   -0.1280   -0.1160 C   0  0  0  0  0  0  0  0  0  0  0  0
   -1.6830    0.0200    0.2240 C   0  0  0  0  0  0  0  0  0  0  0  0
   -1.1360    0.9580    0.8180 O   0  0  0  0  0  0  0  0  0  0  0  0
   -0.7500   -1.0240   -0.1520 N   0  0  0  0  0  0  0  0  0  0  0  0
    0.6410   -0.9730    0.1310 C   0  0  1  0  0  0  0  0  0  0  0  0
    1.0100   -2.1210    1.0450 C   0  0  0  0  0  0  0  0  0  0  0  0
    2.2510   -2.8530    0.6010 C   0  0  0  0  0  0  0  0  0  0  0  0
    3.3060   -1.8910    0.3540 N   0  0  0  0  0  0  0  0  0  0  0  0
    4.5590   -1.9600    0.9640 C   0  0  0  0  0  0  0  0  0  0  0  0
    4.8000   -2.8960    1.7710 O   0  0  0  0  0  0  0  0  0  0  0  0
    5.5890   -0.9370    0.6590 C   0  0  0  0  0  0  0  0  0  0  0  0
    6.8260   -0.9860    1.2480 C   0  0  0  0  0  0  0  0  0  0  0  0
    7.6650    0.4360    0.5590 S   0  0  0  0  0  0  0  0  0  0  0  0
    6.1480    0.9180   -0.4780 C   0  0  0  0  0  0  0  0  0  0  0  0
    6.2900    2.1520   -1.3390 C   0  0  0  0  0  0  0  0  0  0  0  0
    5.4300    0.0650   -0.1610 N   0  0  0  0  0  0  0  0  0  0  0  0
    2.9610   -0.8220   -0.5950 C   0  0  0  0  0  0  0  0  0  0  0  0
    1.5210   -1.0350   -1.0850 C   0  0  0  0  0  0  0  0  0  0  0  0
   -3.6400   -1.3160   -0.4210 O   0  0  0  0  0  0  0  0  0  0  0  0
  1  2  2  0
  2  3  1  0
  3  4  2  0
  3 29  1  0
  4  5  1  0
  5  6  1  0
  5 11  2  0
  6  7  2  0
  6 10  1  0
  7  8  1  0
  8  9  1  0
  9 10  2  0
 11 12  1  0
 11 29  1  0
 12 13  2  0
 12 14  1  0
 15 14  1  6
 15 16  1  0
 15 28  1  0
 16 17  1  0
 17 18  1  0
 18 19  1  0
 18 27  1  0
 19 20  2  0
 19 21  1  0
 21 22  2  0
 21 26  1  0
 22 23  1  0
 23 24  1  0
 24 25  1  0
 24 26  2  0
 27 28  1  0
M  END
