
     RDKit          3D

 28 29  0  0  0  0  0  0  0  0999 V2000
    8.2920    2.0530   -1.0570 C   0  0  0  0  0  0  0  0  0  0  0  0
    8.5410    0.6680   -0.5520 C   0  0  0  0  0  0  0  0  0  0  0  0
    7.5570   -0.0160    0.0200 C   0  0  0  0  0  0  0  0  0  0  0  0
    6.2610    0.5370    0.1670 N   0  0  0  0  0  0  0  0  0  0  0  0
    5.1550   -0.1130   -0.4270 C   0  0  0  0  0  0  0  0  0  0  0  0
    5.3710   -1.1850   -1.0800 O   0  0  0  0  0  0  0  0  0  0  0  0
    3.8260    0.3970   -0.3120 N   0  0  0  0  0  0  0  0  0  0  0  0
    2.8140   -0.3250   -0.9300 N   0  0  0  0  0  0  0  0  0  0  0  0
    1.4520   -0.0750   -0.5060 C   0  0  0  0  0  0  0  0  0  0  0  0
    1.2830    0.7830    0.3930 O   0  0  0  0  0  0  0  0  0  0  0  0
    0.3730   -0.7580   -1.0700 N   0  0  0  0  0  0  0  0  0  0  0  0
   -0.9830   -0.5900   -0.7390 C   0  0  0  0  0  0  0  0  0  0  0  0
   -1.8970   -1.6050   -1.0800 C   0  0  0  0  0  0  0  0  0  0  0  0
   -3.2330   -1.5170   -0.8120 C   0  0  0  0  0  0  0  0  0  0  0  0
   -3.7160   -0.3620   -0.1690 C   0  0  0  0  0  0  0  0  0  0  0  0
   -2.8210    0.6290    0.1620 C   0  0  0  0  0  0  0  0  0  0  0  0
   -1.4460    0.5330   -0.1160 C   0  0  0  0  0  0  0  0  0  0  0  0
   -3.2340    1.7260    0.7600 C   0  0  0  0  0  0  0  0  0  0  0  0
   -2.2920    2.7670    1.1070 N   0  0  0  0  0  0  0  0  0  0  0  0
   -4.6430    1.9700    1.1050 C   0  0  0  0  0  0  0  0  0  0  0  0
   -5.5820    0.8980    0.7660 C   0  0  0  0  0  0  0  0  0  0  0  0
   -5.0040   -0.3070    0.0810 C   0  0  0  0  0  0  0  0  0  0  0  0
   -5.9930   -1.3800   -0.2650 C   0  0  2  0  0  0  0  0  0  0  0  0
   -7.0230   -0.6680   -1.1680 C   0  0  0  0  0  0  0  0  0  0  0  0
   -6.7250   -1.7960    0.9240 N   0  0  0  0  0  0  0  0  0  0  0  0
    7.8570   -1.3570    0.4890 C   0  0  0  0  0  0  0  0  0  0  0  0
    6.8080   -2.1100    1.1050 N   0  0  0  0  0  0  0  0  0  0  0  0
    8.9640   -1.9070    0.3950 O   0  0  0  0  0  0  0  0  0  0  0  0
  1  2  1  0
  2  3  2  3
  3  4  1  0
  3 26  1  0
  4  5  1  0
  5  6  2  0
  5  7  1  0
  7  8  1  0
  8  9  1  0
  9 10  2  0
  9 11  1  0
 11 12  1  0
 12 13  1  0
 12 17  2  0
 13 14  2  0
 14 15  1  0
 15 16  1  0
 15 22  2  0
 16 17  1  0
 16 18  2  0
 18 19  1  0
 18 20  1  0
 20 21  1  0
 21 22  1  0
 22 23  1  0
 23 24  1  6
 23 25  1  0
 26 27  1  0
 26 28  2  0
M  CHG  1  25   1
M  END
