
     RDKit          3D

 27 28  0  0  0  0  0  0  0  0999 V2000
   -3.0610    2.9090   -0.2090 C   0  0  0  0  0  0  0  0  0  0  0  0
   -4.0400    2.2010    0.5030 N   0  0  0  0  0  0  0  0  0  0  0  0
   -3.8220    0.8790    0.9910 C   0  0  0  0  0  0  0  0  0  0  0  0
   -2.9290    0.0710    0.1360 C   0  0  0  0  0  0  0  0  0  0  0  0
   -3.5420   -1.0580   -0.4320 C   0  0  0  0  0  0  0  0  0  0  0  0
   -4.8610   -1.4200   -0.0920 N   0  0  0  0  0  0  0  0  0  0  0  0
   -5.0190   -2.1510    1.1540 C   0  0  0  0  0  0  0  0  0  0  0  0
   -6.0190   -1.1390   -0.8540 C   0  0  0  0  0  0  0  0  0  0  0  0
   -2.7590   -1.8530   -1.1740 N   0  0  0  0  0  0  0  0  0  0  0  0
   -1.4590   -1.6250   -1.3680 C   0  0  0  0  0  0  0  0  0  0  0  0
   -0.7430   -2.3860   -2.0710 O   0  0  0  0  0  0  0  0  0  0  0  0
   -0.8290   -0.5240   -0.7910 C   0  0  0  0  0  0  0  0  0  0  0  0
    0.6520   -0.5700   -0.7450 C   0  0  0  0  0  0  0  0  0  0  0  0
    1.4880    0.2450   -0.2740 N   0  0  0  0  0  0  0  0  0  0  0  0
    2.8790   -0.1120   -0.3680 C   0  0  0  0  0  0  0  0  0  0  0  0
    3.1870   -1.4360   -0.7680 C   0  0  0  0  0  0  0  0  0  0  0  0
    4.4900   -1.8660   -0.7370 C   0  0  0  0  0  0  0  0  0  0  0  0
    5.5130   -1.0110   -0.3110 C   0  0  0  0  0  0  0  0  0  0  0  0
    6.9000   -1.4880   -0.2910 C   0  0  0  0  0  0  0  0  0  0  0  0
    7.2370   -2.8030   -0.0280 N   0  0  0  0  0  0  0  0  0  0  0  0
    7.8380   -0.6450   -0.5210 O   0  0  0  0  0  0  0  0  0  0  0  0
    5.1890    0.2990    0.0820 C   0  0  0  0  0  0  0  0  0  0  0  0
    3.8590    0.7470    0.0490 C   0  0  0  0  0  0  0  0  0  0  0  0
    3.4640    2.1340    0.3500 C   0  0  0  0  0  0  0  0  0  0  0  0
    4.4970    2.8840    1.0020 N   0  0  0  0  0  0  0  0  0  0  0  0
   -1.5810    0.3350   -0.0370 C   0  0  0  0  0  0  0  0  0  0  0  0
   -0.8920    1.3790    0.6200 N   0  0  0  0  0  0  0  0  0  0  0  0
  1  2  1  0
  2  3  1  0
  3  4  1  0
  4  5  2  0
  4 26  1  0
  5  6  1  0
  5  9  1  0
  6  7  1  0
  6  8  1  0
  9 10  1  0
 10 11  2  0
 10 12  1  0
 12 13  1  0
 12 26  2  0
 13 14  2  3
 14 15  1  0
 15 16  2  0
 15 23  1  0
 16 17  1  0
 17 18  2  0
 18 19  1  0
 18 22  1  0
 19 20  1  0
 19 21  2  0
 22 23  2  0
 23 24  1  0
 24 25  1  0
 26 27  1  0
M  CHG  2   2   1  25   1
M  END
