
     RDKit          3D

 28 29  0  0  0  0  0  0  0  0999 V2000
    9.6390    0.7600    0.4240 C   0  0  0  0  0  0  0  0  0  0  0  0
    8.3470    0.0040    0.3380 C   0  0  0  0  0  0  0  0  0  0  0  0
    7.1920    0.9650    0.5920 C   0  0  2  0  0  0  0  0  0  0  0  0
    7.2870    1.5750    1.9040 N   0  0  0  0  0  0  0  0  0  0  0  0
    5.9430    0.1610    0.5760 C   0  0  0  0  0  0  0  0  0  0  0  0
    5.6020   -0.6600    1.6330 C   0  0  0  0  0  0  0  0  0  0  0  0
    4.4400   -1.3910    1.6000 C   0  0  0  0  0  0  0  0  0  0  0  0
    3.5990   -1.2960    0.4780 C   0  0  0  0  0  0  0  0  0  0  0  0
    3.9170   -0.4900   -0.5770 C   0  0  0  0  0  0  0  0  0  0  0  0
    3.0830   -0.3320   -1.7040 N   0  0  0  0  0  0  0  0  0  0  0  0
    1.6620   -0.2890   -1.6890 C   0  0  0  0  0  0  0  0  0  0  0  0
    0.7950   -0.3030   -0.6710 N   0  0  0  0  0  0  0  0  0  0  0  0
   -0.4910   -0.2590   -1.1210 C   0  0  0  0  0  0  0  0  0  0  0  0
   -1.6520   -0.2610   -0.2400 C   0  0  0  0  0  0  0  0  0  0  0  0
   -1.5160   -0.3300    1.0160 O   0  0  0  0  0  0  0  0  0  0  0  0
   -2.9750   -0.1860   -0.7170 N   0  0  0  0  0  0  0  0  0  0  0  0
   -4.0860   -0.1870    0.1640 N   0  0  0  0  0  0  0  0  0  0  0  0
   -5.4100   -0.0730   -0.3340 C   0  0  0  0  0  0  0  0  0  0  0  0
   -5.5390    0.0260   -1.5820 O   0  0  0  0  0  0  0  0  0  0  0  0
   -6.5750   -0.0700    0.5680 C   0  0  1  0  0  0  0  0  0  0  0  0
   -6.1130   -0.1680    1.8940 O   0  0  0  0  0  0  0  0  0  0  0  0
   -7.2640    1.2790    0.4700 C   0  0  0  0  0  0  0  0  0  0  0  0
   -8.4790    1.3640    1.3640 C   0  0  0  0  0  0  0  0  0  0  0  0
   -7.4920   -1.2130    0.2330 C   0  0  0  0  0  0  0  0  0  0  0  0
   -7.9250   -1.0930   -1.1360 N   0  0  0  0  0  0  0  0  0  0  0  0
   -0.3990   -0.2170   -2.4690 C   0  0  0  0  0  0  0  0  0  0  0  0
    0.8920   -0.2340   -2.8170 N   0  0  0  0  0  0  0  0  0  0  0  0
    5.0880    0.2250   -0.5060 C   0  0  0  0  0  0  0  0  0  0  0  0
  1  2  1  0
  2  3  1  0
  3  4  1  1
  3  5  1  0
  5  6  2  0
  5 28  1  0
  6  7  1  0
  7  8  2  0
  8  9  1  0
  9 10  1  0
  9 28  2  0
 10 11  1  0
 11 12  1  0
 11 27  2  0
 12 13  1  0
 13 14  1  0
 13 26  2  0
 14 15  2  0
 14 16  1  0
 16 17  1  0
 17 18  1  0
 18 19  2  0
 18 20  1  0
 20 21  1  1
 20 22  1  0
 20 24  1  0
 22 23  1  0
 24 25  1  0
 26 27  1  0
M  CHG  2  25   1  27   1
M  END
