
     RDKit          3D

 28 29  0  0  0  0  0  0  0  0999 V2000
    9.4690    1.7260   -0.4900 N   0  0  0  0  0  0  0  0  0  0  0  0
    8.0750    1.7230   -0.3580 C   0  0  0  0  0  0  0  0  0  0  0  0
    7.3260    0.7180   -0.9730 C   0  0  0  0  0  0  0  0  0  0  0  0
    5.9460    0.7300   -0.8310 C   0  0  0  0  0  0  0  0  0  0  0  0
    5.3260    1.7230   -0.0940 C   0  0  0  0  0  0  0  0  0  0  0  0
    3.8790    1.6400   -0.0070 C   0  0  0  0  0  0  0  0  0  0  0  0
    3.1420    2.2440   -0.8570 O   0  0  0  0  0  0  0  0  0  0  0  0
    3.2600    0.8780    1.0220 N   0  0  0  0  0  0  0  0  0  0  0  0
    1.9210    0.7320    1.1320 N   0  0  0  0  0  0  0  0  0  0  0  0
    1.4180   -0.6650    0.9890 C   0  0  0  0  0  0  0  0  0  0  0  0
    2.2680   -1.5240    0.8540 O   0  0  0  0  0  0  0  0  0  0  0  0
    0.0440   -0.6460    1.0380 N   0  0  0  0  0  0  0  0  0  0  0  0
   -0.1650   -2.3660    1.0850 C   0  0  0  0  0  0  0  0  0  0  0  0
    0.8140   -2.9900    1.0910 O   0  0  0  0  0  0  0  0  0  0  0  0
   -1.5420   -2.7720    1.1180 C   0  0  0  0  0  0  0  0  0  0  0  0
   -2.5730   -1.7940    1.0130 N   0  0  0  0  0  0  0  0  0  0  0  0
   -2.8450   -1.2020   -0.2380 C   0  0  0  0  0  0  0  0  0  0  0  0
   -2.0040   -1.4800   -1.3110 C   0  0  0  0  0  0  0  0  0  0  0  0
   -2.1920   -0.9070   -2.5340 C   0  0  0  0  0  0  0  0  0  0  0  0
   -3.2340   -0.0260   -2.7270 C   0  0  0  0  0  0  0  0  0  0  0  0
   -4.0630    0.2490   -1.6750 C   0  0  0  0  0  0  0  0  0  0  0  0
   -3.9050   -0.3150   -0.4260 C   0  0  0  0  0  0  0  0  0  0  0  0
   -4.8460    0.0080    0.6530 C   0  0  2  0  0  0  0  0  0  0  0  0
   -5.4060   -1.1620    1.3230 N   0  0  0  0  0  0  0  0  0  0  0  0
   -6.0270    0.7680    0.0850 C   0  0  0  0  0  0  0  0  0  0  0  0
   -6.7190   -0.0570   -0.8620 N   0  0  0  0  0  0  0  0  0  0  0  0
    6.1010    2.6950    0.4950 C   0  0  0  0  0  0  0  0  0  0  0  0
    7.4750    2.7190    0.3790 C   0  0  0  0  0  0  0  0  0  0  0  0
  1  2  1  0
  2  3  2  0
  2 28  1  0
  3  4  1  0
  4  5  2  0
  5  6  1  0
  5 27  1  0
  6  7  2  0
  6  8  1  0
  8  9  1  0
  9 10  1  0
 10 11  2  0
 10 12  1  0
 12 13  1  0
 13 14  2  0
 13 15  1  0
 15 16  1  0
 16 17  1  0
 17 18  2  0
 17 22  1  0
 18 19  1  0
 19 20  2  0
 20 21  1  0
 21 22  2  0
 22 23  1  0
 23 24  1  6
 23 25  1  0
 25 26  1  0
 27 28  2  0
M  CHG  2  24   1  26   1
M  END
