
     RDKit          3D

 28 29  0  0  0  0  0  0  0  0999 V2000
    5.7400   -3.2380    2.0080 N   0  0  0  0  0  0  0  0  0  0  0  0
    5.1260   -3.1560    0.9720 C   0  0  0  0  0  0  0  0  0  0  0  0
    4.4150   -3.0690   -0.2710 C   0  0  0  0  0  0  0  0  0  0  0  0
    3.3830   -2.1160   -0.1860 O   0  0  0  0  0  0  0  0  0  0  0  0
    3.5460   -0.7850    0.0790 C   0  0  0  0  0  0  0  0  0  0  0  0
    4.7830   -0.2420    0.2890 C   0  0  0  0  0  0  0  0  0  0  0  0
    4.9580    1.0890    0.5560 C   0  0  0  0  0  0  0  0  0  0  0  0
    6.2520    1.7080    0.7760 C   0  0  0  0  0  0  0  0  0  0  0  0
    6.2870    3.0730    1.0660 O   0  0  0  0  0  0  0  0  0  0  0  0
    7.3690    1.0330    0.7120 C   0  0  0  0  0  0  0  0  0  0  0  0
    8.6220    1.7210    0.9430 N   0  0  0  0  0  0  0  0  0  0  0  0
    3.8240    1.8910    0.6110 C   0  0  0  0  0  0  0  0  0  0  0  0
    2.5800    1.3350    0.3980 C   0  0  0  0  0  0  0  0  0  0  0  0
    2.3720    0.0120    0.1290 C   0  0  0  0  0  0  0  0  0  0  0  0
    1.1300   -0.6010   -0.0970 N   0  0  0  0  0  0  0  0  0  0  0  0
   -0.1400   -0.0050   -0.1030 C   0  0  0  0  0  0  0  0  0  0  0  0
   -0.2420    1.2110    0.1120 O   0  0  0  0  0  0  0  0  0  0  0  0
   -1.3660   -0.8330   -0.3690 C   0  0  0  0  0  0  0  0  0  0  0  0
   -2.5700    0.0160   -0.2630 C   0  0  2  0  0  0  0  0  0  0  0  0
   -2.8150    0.6530    1.0770 C   0  0  0  0  0  0  0  0  0  0  0  0
   -3.5080   -0.4060    1.7860 N   0  0  0  0  0  0  0  0  0  0  0  0
   -4.0690   -1.2200    0.9250 C   0  0  0  0  0  0  0  0  0  0  0  0
   -4.8290   -2.3700    1.2670 N   0  0  0  0  0  0  0  0  0  0  0  0
   -3.8020   -0.7750   -0.3900 N   0  0  0  0  0  0  0  0  0  0  0  0
   -4.5370   -1.0120   -1.5900 C   0  0  0  0  0  0  0  0  0  0  0  0
   -5.2110    0.2550   -2.1070 C   0  0  0  0  0  0  0  0  0  0  0  0
   -6.1930    0.7860   -1.0680 C   0  0  0  0  0  0  0  0  0  0  0  0
   -6.7950    1.9750   -1.6060 N   0  0  0  0  0  0  0  0  0  0  0  0
  1  2  3  0
  2  3  1  0
  3  4  1  0
  4  5  1  0
  5  6  2  0
  5 14  1  0
  6  7  1  0
  7  8  1  0
  7 12  2  0
  8  9  1  0
  8 10  2  3
 10 11  1  0
 12 13  1  0
 13 14  2  0
 14 15  1  0
 15 16  1  0
 16 17  2  0
 16 18  1  0
 19 18  1  1
 19 20  1  0
 19 24  1  0
 20 21  1  0
 21 22  2  0
 22 23  1  0
 22 24  1  0
 24 25  1  0
 25 26  1  0
 26 27  1  0
 27 28  1  0
M  CHG  2  21   1  28   1
M  END
