
     RDKit          3D

 23 25  0  0  0  0  0  0  0  0999 V2000
   -1.7950    2.1190    0.2660 C   0  0  0  0  0  0  0  0  0  0  0  0
   -1.2250    0.7000    0.3910 C   0  0  0  0  0  0  0  0  0  0  0  0
   -1.4610   -0.1250   -0.7820 C   0  0  0  0  0  0  0  0  0  0  0  0
   -0.5910   -0.5340   -1.6360 C   0  0  0  0  0  0  0  0  0  0  0  0
    0.8040   -0.3350   -1.7340 C   0  0  0  0  0  0  0  0  0  0  0  0
    1.4080   -0.9420   -2.7440 O   0  0  0  0  0  0  0  0  0  0  0  0
    1.7640    0.4330   -0.9250 C   0  0  0  0  0  0  0  0  0  0  0  0
    2.3440   -0.4460    0.1060 C   0  0  1  0  0  0  0  0  0  0  0  0
    3.0710   -1.5820   -0.4320 N   0  0  0  0  0  0  0  0  0  0  0  0
    3.8690   -2.1030    0.6380 C   0  0  0  0  0  0  0  0  0  0  0  0
    3.6440   -1.2000    1.8490 C   0  0  0  0  0  0  0  0  0  0  0  0
    3.2480    0.1050    1.1220 C   0  0  1  0  0  0  0  0  0  0  0  0
    4.5250    0.7240    0.6950 C   0  0  0  0  0  0  0  0  0  0  0  0
    4.4240    1.9120   -0.2100 C   0  0  0  0  0  0  0  0  0  0  0  0
   -2.8430   -0.5480   -1.0310 N   0  0  0  0  0  0  0  0  0  0  0  0
   -3.1970   -1.2860   -2.0610 N   0  0  0  0  0  0  0  0  0  0  0  0
   -4.5220   -1.5030   -2.0010 C   0  0  0  0  0  0  0  0  0  0  0  0
   -4.9930   -0.8590   -0.8680 C   0  0  0  0  0  0  0  0  0  0  0  0
   -6.2340   -0.7470   -0.3240 C   0  0  0  0  0  0  0  0  0  0  0  0
   -6.3940   -0.0260    0.8370 C   0  0  0  0  0  0  0  0  0  0  0  0
   -5.2960    0.5700    1.4260 C   0  0  0  0  0  0  0  0  0  0  0  0
   -4.1180    0.4200    0.8430 N   0  0  0  0  0  0  0  0  0  0  0  0
   -3.8920   -0.2600   -0.2750 C   0  0  0  0  0  0  0  0  0  0  0  0
  1  2  1  0
  2  3  1  0
  3  4  2  3
  3 15  1  0
  4  5  1  0
  5  6  2  0
  5  7  1  0
  8  7  1  6
  8  9  1  0
  8 12  1  0
  9 10  1  0
 10 11  1  0
 11 12  1  0
 12 13  1  6
 13 14  1  0
 15 16  1  0
 15 23  1  0
 16 17  2  0
 17 18  1  0
 18 19  2  0
 18 23  1  0
 19 20  1  0
 20 21  2  0
 21 22  1  0
 22 23  2  0
M  END
