
     RDKit          3D

 24 26  0  0  0  0  0  0  0  0999 V2000
   -3.8290   -3.1520    2.0680 C   0  0  0  0  0  0  0  0  0  0  0  0
   -2.9000   -2.7080    0.9580 C   0  0  0  0  0  0  0  0  0  0  0  0
   -2.6250   -1.2320    1.0960 C   0  0  0  0  0  0  0  0  0  0  0  0
   -1.7330   -0.7490    0.0500 N   0  0  0  0  0  0  0  0  0  0  0  0
   -2.3630   -0.2720   -1.1760 C   0  0  0  0  0  0  0  0  0  0  0  0
   -2.6610    1.1810   -1.0930 C   0  0  0  0  0  0  0  0  0  0  0  0
   -2.4460    2.0410   -0.1240 C   0  0  0  0  0  0  0  0  0  0  0  0
   -2.9190    3.3960   -0.5050 C   0  0  0  0  0  0  0  0  0  0  0  0
   -3.4460    3.1610   -1.8720 C   0  0  0  0  0  0  0  0  0  0  0  0
   -3.2950    1.9080   -2.1940 C   0  0  0  0  0  0  0  0  0  0  0  0
   -3.6890    1.3860   -3.4030 F   0  0  0  0  0  0  0  0  0  0  0  0
   -0.3260   -0.7360    0.1970 C   0  0  0  0  0  0  0  0  0  0  0  0
    0.1740   -1.1530    1.2620 O   0  0  0  0  0  0  0  0  0  0  0  0
    0.5070   -0.2390   -0.8940 C   0  0  0  0  0  0  0  0  0  0  0  0
    1.9140   -0.2710   -0.6400 N   0  0  0  0  0  0  0  0  0  0  0  0
    2.6840   -1.4940   -0.5190 C   0  0  0  0  0  0  0  0  0  0  0  0
    4.1620   -1.2410   -0.4600 C   0  0  0  0  0  0  0  0  0  0  0  0
    4.5140   -0.1600    0.5380 C   0  0  2  0  0  0  0  0  0  0  0  0
    3.9970   -0.4540    1.9150 C   0  0  0  0  0  0  0  0  0  0  0  0
    3.8560    1.0880    0.0630 C   0  0  0  0  0  0  0  0  0  0  0  0
    4.2210    2.3930    0.0500 N   0  0  0  0  0  0  0  0  0  0  0  0
    3.2590    3.0890   -0.4880 N   0  0  0  0  0  0  0  0  0  0  0  0
    2.2570    2.2760   -0.8350 C   0  0  0  0  0  0  0  0  0  0  0  0
    2.6040    0.9630   -0.4940 C   0  0  0  0  0  0  0  0  0  0  0  0
  1  2  1  0
  2  3  1  0
  3  4  1  0
  4  5  1  0
  4 12  1  0
  5  6  1  0
  6  7  2  0
  6 10  1  0
  7  8  1  0
  8  9  1  0
  9 10  2  0
 10 11  1  0
 12 13  2  0
 12 14  1  0
 14 15  1  0
 15 16  1  0
 15 24  1  0
 16 17  1  0
 17 18  1  0
 18 19  1  1
 18 20  1  0
 20 21  1  0
 20 24  2  0
 21 22  1  0
 22 23  2  0
 23 24  1  0
M  END
