
     RDKit          3D

 24 26  0  0  0  0  0  0  0  0999 V2000
    6.6420    0.6720    0.7600 C   0  0  0  0  0  0  0  0  0  0  0  0
    5.7960   -0.2580    1.1790 C   0  0  0  0  0  0  0  0  0  0  0  0
    5.1990   -1.2680    0.2580 C   0  0  0  0  0  0  0  0  0  0  0  0
    3.7620   -1.1900    0.2270 N   0  0  0  0  0  0  0  0  0  0  0  0
    3.0660   -0.0190   -0.1750 C   0  0  0  0  0  0  0  0  0  0  0  0
    3.8220    1.0520   -0.5370 N   0  0  0  0  0  0  0  0  0  0  0  0
    3.2250    2.1870   -0.9260 C   0  0  0  0  0  0  0  0  0  0  0  0
    1.8480    2.2370   -0.9470 C   0  0  0  0  0  0  0  0  0  0  0  0
    1.0640    1.1500   -0.5790 C   0  0  0  0  0  0  0  0  0  0  0  0
   -0.3730    1.3030   -0.6360 C   0  0  0  0  0  0  0  0  0  0  0  0
   -0.8690    2.4220   -1.0190 O   0  0  0  0  0  0  0  0  0  0  0  0
   -1.3130    0.2970   -0.2960 N   0  0  0  0  0  0  0  0  0  0  0  0
   -0.7960   -0.9640    0.1350 C   0  0  0  0  0  0  0  0  0  0  0  0
   -1.7680   -2.0480    0.4170 C   0  0  0  0  0  0  0  0  0  0  0  0
   -3.1320   -1.5900    0.6760 C   0  0  0  0  0  0  0  0  0  0  0  0
   -3.8910   -2.2130    1.5460 C   0  0  0  0  0  0  0  0  0  0  0  0
   -3.6460   -0.4360   -0.0490 C   0  0  0  0  0  0  0  0  0  0  0  0
   -4.9100   -0.3360   -0.3850 C   0  0  0  0  0  0  0  0  0  0  0  0
   -5.7710   -1.3310   -0.0520 F   0  0  0  0  0  0  0  0  0  0  0  0
   -5.3940    0.8670   -1.1270 C   0  0  0  0  0  0  0  0  0  0  0  0
   -4.3120    1.1510   -2.1400 C   0  0  0  0  0  0  0  0  0  0  0  0
   -3.0390    1.0380   -1.8180 C   0  0  0  0  0  0  0  0  0  0  0  0
   -2.7060    0.6190   -0.4090 C   0  0  2  0  0  0  0  0  0  0  0  0
    1.7230    0.0480   -0.2020 N   0  0  0  0  0  0  0  0  0  0  0  0
  1  2  2  0
  2  3  1  0
  3  4  1  0
  4  5  1  0
  5  6  2  0
  5 24  1  0
  6  7  1  0
  7  8  2  0
  8  9  1  0
  9 10  1  0
  9 24  2  0
 10 11  2  0
 10 12  1  0
 12 13  1  0
 23 12  1  6
 13 14  1  0
 14 15  1  0
 15 16  2  0
 15 17  1  0
 17 18  2  0
 17 23  1  0
 18 19  1  0
 18 20  1  0
 20 21  1  0
 21 22  2  0
 22 23  1  0
M  END
