
     RDKit          3D

 24 26  0  0  0  0  0  0  0  0999 V2000
   -1.7070   -2.1290   -1.0340 O   0  0  0  0  0  0  0  0  0  0  0  0
   -2.5980   -1.3650   -0.5790 C   0  0  0  0  0  0  0  0  0  0  0  0
   -3.8400   -1.2660   -1.3040 C   0  0  0  0  0  0  0  0  0  0  0  0
   -4.0730   -2.0250   -2.4720 C   0  0  0  0  0  0  0  0  0  0  0  0
   -5.3330   -1.7190   -2.9250 C   0  0  0  0  0  0  0  0  0  0  0  0
   -5.8420   -0.8280   -2.0880 N   0  0  0  0  0  0  0  0  0  0  0  0
   -4.9560   -0.5530   -1.1170 N   0  0  0  0  0  0  0  0  0  0  0  0
   -2.2520   -0.6820    0.6190 N   0  0  0  0  0  0  0  0  0  0  0  0
   -3.1200    0.1980    1.3370 C   0  0  0  0  0  0  0  0  0  0  0  0
   -2.4720    0.4210    2.6850 C   0  0  0  0  0  0  0  0  0  0  0  0
   -1.3920   -0.6770    2.7590 C   0  0  0  0  0  0  0  0  0  0  0  0
   -0.9760   -0.7040    1.3130 C   0  0  2  0  0  0  0  0  0  0  0  0
   -0.1020    0.4640    0.9480 C   0  0  0  0  0  0  0  0  0  0  0  0
    0.2710    0.5570   -0.4180 N   0  0  0  0  0  0  0  0  0  0  0  0
    1.2340   -0.4380   -0.8590 C   0  0  0  0  0  0  0  0  0  0  0  0
    2.5760   -0.2280   -0.2960 C   0  0  0  0  0  0  0  0  0  0  0  0
    3.2200   -1.0680    0.4870 C   0  0  0  0  0  0  0  0  0  0  0  0
    4.5660   -0.8510    1.0490 C   0  0  0  0  0  0  0  0  0  0  0  0
    5.2090    0.4010    0.6760 C   0  0  0  0  0  0  0  0  0  0  0  0
    4.6170    1.2800   -0.1070 C   0  0  0  0  0  0  0  0  0  0  0  0
    3.2830    1.0270   -0.6360 C   0  0  0  0  0  0  0  0  0  0  0  0
    2.7260    1.8980   -1.4290 C   0  0  0  0  0  0  0  0  0  0  0  0
    3.2820    3.1840   -1.8660 C   0  0  0  0  0  0  0  0  0  0  0  0
    3.4240    3.2460   -3.2470 F   0  0  0  0  0  0  0  0  0  0  0  0
  1  2  2  0
  2  3  1  0
  2  8  1  0
  3  4  2  0
  3  7  1  0
  4  5  1  0
  5  6  2  0
  6  7  1  0
  8  9  1  0
  8 12  1  0
  9 10  1  0
 10 11  1  0
 11 12  1  0
 12 13  1  6
 13 14  1  0
 14 15  1  0
 15 16  1  0
 16 17  2  0
 16 21  1  0
 17 18  1  0
 18 19  1  0
 19 20  2  0
 20 21  1  0
 21 22  2  3
 22 23  1  0
 23 24  1  0
M  END
