
     RDKit          3D

 27 28  0  0  0  0  0  0  0  0999 V2000
   -3.3160   -3.4280   -1.3270 C   0  0  0  0  0  0  0  0  0  0  0  0
   -2.0930   -3.8600   -0.5530 C   0  0  0  0  0  0  0  0  0  0  0  0
   -1.4300   -2.7010    0.0980 C   0  0  0  0  0  0  0  0  0  0  0  0
   -1.9220   -1.5000   -0.0430 C   0  0  0  0  0  0  0  0  0  0  0  0
   -1.3730   -0.2740    0.5410 C   0  0  0  0  0  0  0  0  0  0  0  0
   -1.9520    0.9060    0.3380 C   0  0  0  0  0  0  0  0  0  0  0  0
   -3.1430    0.9020   -0.4930 N   0  0  0  0  0  0  0  0  0  0  0  0
   -1.5960    2.1570    0.8730 N   0  0  0  0  0  0  0  0  0  0  0  0
   -0.3490    2.8400    0.8600 C   0  0  0  0  0  0  0  0  0  0  0  0
    0.2280    3.4030    1.9290 C   0  0  0  0  0  0  0  0  0  0  0  0
    1.4940    4.0040    1.4980 C   0  0  0  0  0  0  0  0  0  0  0  0
    1.5710    3.7370    0.0690 C   0  0  0  0  0  0  0  0  0  0  0  0
    0.4950    3.0490   -0.3200 C   0  0  0  0  0  0  0  0  0  0  0  0
    0.2020    2.5800   -1.6640 C   0  0  0  0  0  0  0  0  0  0  0  0
    0.3530    3.4890   -2.5820 O   0  0  0  0  0  0  0  0  0  0  0  0
   -0.2150    1.2800   -2.0480 N   0  0  0  0  0  0  0  0  0  0  0  0
    0.3670    0.0570   -1.8000 N   0  0  0  0  0  0  0  0  0  0  0  0
    1.5570   -0.2800   -1.1310 C   0  0  0  0  0  0  0  0  0  0  0  0
    2.4060   -1.0820   -1.7060 O   0  0  0  0  0  0  0  0  0  0  0  0
    2.0140    0.1670    0.2030 C   0  0  2  0  0  0  0  0  0  0  0  0
    3.0720   -0.7780    0.7430 C   0  0  0  0  0  0  0  0  0  0  0  0
    4.0970   -1.0590    0.0930 O   0  0  0  0  0  0  0  0  0  0  0  0
    2.9030   -1.3480    1.9900 O   0  0  0  0  0  0  0  0  0  0  0  0
    3.8150   -2.2340    2.5870 C   0  0  0  0  0  0  0  0  0  0  0  0
    1.0220    0.2510    1.1820 O   0  0  0  0  0  0  0  0  0  0  0  0
   -0.1440   -0.4190    1.3520 C   0  0  0  0  0  0  0  0  0  0  0  0
   -0.2370   -1.2850    2.3140 O   0  0  0  0  0  0  0  0  0  0  0  0
  1  2  1  0
  2  3  1  0
  3  4  2  3
  4  5  1  0
  5  6  2  0
  5 26  1  0
  6  7  1  0
  6  8  1  0
  8  9  1  0
  9 10  2  0
  9 13  1  0
 10 11  1  0
 11 12  1  0
 12 13  2  0
 13 14  1  0
 14 15  2  0
 14 16  1  0
 16 17  1  0
 17 18  1  0
 18 19  2  0
 18 20  1  0
 20 21  1  1
 20 25  1  0
 21 22  2  0
 21 23  1  0
 23 24  1  0
 25 26  1  0
 26 27  2  0
M  END
