
     RDKit          3D

 27 29  0  0  0  0  0  0  0  0999 V2000
   -4.8250   -3.8900   -0.7810 C   0  0  0  0  0  0  0  0  0  0  0  0
   -4.2410   -2.5780   -0.5460 N   0  0  0  0  0  0  0  0  0  0  0  0
   -3.4470   -1.9320   -1.5210 C   0  0  0  0  0  0  0  0  0  0  0  0
   -3.2500   -2.5150   -2.6110 O   0  0  0  0  0  0  0  0  0  0  0  0
   -2.8330   -0.5620   -1.2850 C   0  0  2  0  0  0  0  0  0  0  0  0
   -2.1280   -0.1990   -2.4030 O   0  0  0  0  0  0  0  0  0  0  0  0
   -0.7800   -0.0570   -2.0360 C   0  0  0  0  0  0  0  0  0  0  0  0
    0.0420    0.2310   -2.9380 O   0  0  0  0  0  0  0  0  0  0  0  0
   -0.6170   -0.3030   -0.6110 C   0  0  0  0  0  0  0  0  0  0  0  0
    0.5310   -0.5300    0.1910 C   0  0  0  0  0  0  0  0  0  0  0  0
    1.7910   -0.3340    0.3260 C   0  0  0  0  0  0  0  0  0  0  0  0
    2.5420   -0.9130    1.4550 N   0  0  0  0  0  0  0  0  0  0  0  0
    3.8470   -0.4380    1.5020 C   0  0  0  0  0  0  0  0  0  0  0  0
    4.7570   -0.7360    2.3390 O   0  0  0  0  0  0  0  0  0  0  0  0
    4.0010    0.4810    0.4020 C   0  0  0  0  0  0  0  0  0  0  0  0
    4.9270    1.3530   -0.1450 C   0  0  0  0  0  0  0  0  0  0  0  0
    6.3390    1.5700    0.2960 C   0  0  0  0  0  0  0  0  0  0  0  0
    4.2980    1.9470   -1.1330 N   0  0  0  0  0  0  0  0  0  0  0  0
    3.0180    1.4990   -1.2460 C   0  0  0  0  0  0  0  0  0  0  0  0
    2.0270    2.1270   -2.1620 C   0  0  0  0  0  0  0  0  0  0  0  0
    2.7840    0.5440   -0.2870 C   0  0  0  0  0  0  0  0  0  0  0  0
   -1.8750   -0.6020   -0.1900 C   0  0  0  0  0  0  0  0  0  0  0  0
   -2.2410   -0.9160    1.1460 O   0  0  0  0  0  0  0  0  0  0  0  0
   -3.0430   -0.1000    1.9380 C   0  0  0  0  0  0  0  0  0  0  0  0
   -2.5120    1.2550    2.1830 C   0  0  0  0  0  0  0  0  0  0  0  0
   -3.2010    2.2040    2.9720 N   0  0  0  0  0  0  0  0  0  0  0  0
   -1.4150    1.5800    1.6770 O   0  0  0  0  0  0  0  0  0  0  0  0
  1  2  1  0
  2  3  1  0
  3  4  2  0
  5  3  1  6
  5  6  1  0
  5 22  1  0
  6  7  1  0
  7  8  2  0
  7  9  1  0
  9 10  1  0
  9 22  2  0
 10 11  2  3
 11 12  1  0
 11 21  1  0
 12 13  1  0
 13 14  2  0
 13 15  1  0
 15 16  2  0
 15 21  1  0
 16 17  1  0
 16 18  1  0
 18 19  1  0
 19 20  1  0
 19 21  2  0
 22 23  1  0
 23 24  1  0
 24 25  1  0
 25 26  1  0
 25 27  2  0
M  END
