
     RDKit          3D

 13 14  0  0  0  0  0  0  0  0999 V2000
   -4.2950    1.1140    0.8010 O   0  0  0  0  0  0  0  0  0  0  0  0
   -3.5960    0.0290    0.0270 S   0  0  2  0  0  0  0  0  0  0  0  0
   -3.2060   -1.0370    1.0150 O   0  0  0  0  0  0  0  0  0  0  0  0
   -2.1040    0.6800   -0.7380 C   0  0  2  0  0  0  0  0  0  0  0  0
   -1.0750   -0.3840   -0.6930 C   0  0  0  0  0  0  0  0  0  0  0  0
    0.1660    0.1120   -0.0290 C   0  0  2  0  0  0  0  0  0  0  0  0
    0.9450    1.0800   -0.9010 C   0  0  0  0  0  0  0  0  0  0  0  0
    2.4850    1.4900    0.0120 S   0  0  0  0  0  0  0  0  0  0  0  0
    3.1770   -0.1550    0.4580 C   0  0  0  0  0  0  0  0  0  0  0  0
    2.2150   -1.1460   -0.2160 C   0  0  0  0  0  0  0  0  0  0  0  0
    0.9410   -1.0070    0.4070 N   0  0  0  0  0  0  0  0  0  0  0  0
   -0.2540    0.8930    1.2050 C   0  0  0  0  0  0  0  0  0  0  0  0
   -1.5080    1.9670    0.4140 S   0  0  0  0  0  0  0  0  0  0  0  0
  1  2  2  0
  2  3  2  0
  2  4  1  1
  4  5  1  1
  4 13  1  0
  6  5  1  6
  6  7  1  0
  6 11  1  0
  6 12  1  0
  7  8  1  0
  8  9  1  0
  9 10  1  0
 10 11  1  0
 12 13  1  0
M  CHG  1  11   1
M  END
