
     RDKit          3D

 13 14  0  0  0  0  0  0  0  0999 V2000
   -1.1840    1.0730   -1.6760 C   0  0  0  0  0  0  0  0  0  0  0  0
   -0.6740    0.5170   -0.3470 C   0  0  2  0  0  0  0  0  0  0  0  0
    0.7720    0.8890   -0.1590 C   0  0  2  0  0  0  0  0  0  0  0  0
    1.5890    0.4900   -1.3410 C   0  0  0  0  0  0  0  0  0  0  0  0
    1.5910   -1.2620   -1.6940 S   0  0  0  0  0  0  0  0  0  0  0  0
    3.1000   -1.9040   -1.1190 O   0  0  0  0  0  0  0  0  0  0  0  0
    3.4010   -1.0550    0.3690 S   0  0  0  0  0  0  0  0  0  0  0  0
    1.7770   -0.8650    1.1670 C   0  0  0  0  0  0  0  0  0  0  0  0
    1.2830    0.4730    1.1080 N   0  0  0  0  0  0  0  0  0  0  0  0
   -0.9800   -0.7830   -0.2930 O   0  0  0  0  0  0  0  0  0  0  0  0
   -1.7950   -1.1860    0.6590 C   0  0  0  0  0  0  0  0  0  0  0  0
   -2.7780   -0.1620    1.1020 C   0  0  0  0  0  0  0  0  0  0  0  0
   -1.7210    1.3340    0.9260 S   0  0  0  0  0  0  0  0  0  0  0  0
  2  1  1  6
  2  3  1  0
  2 10  1  0
  2 13  1  0
  3  4  1  6
  3  9  1  0
  4  5  1  0
  5  6  1  0
  6  7  1  0
  7  8  1  0
  8  9  1  0
 10 11  1  0
 11 12  1  0
 12 13  1  0
M  CHG  1   9   1
M  END
