
     RDKit          3D

 18 21  0  0  0  0  0  0  0  0999 V2000
    4.4770   -0.5890    1.1040 C   0  0  0  0  0  0  0  0  0  0  0  0
    3.2530   -0.5910    0.7300 N   0  0  0  0  0  0  0  0  0  0  0  0
    3.0920    0.1130   -0.4910 C   0  0  0  0  0  0  0  0  0  0  0  0
    1.9730    0.5500   -1.0400 C   0  0  0  0  0  0  0  0  0  0  0  0
    0.6660    0.3900   -0.4880 C   0  0  0  0  0  0  0  0  0  0  0  0
   -0.4570    0.1360   -1.1680 N   0  0  0  0  0  0  0  0  0  0  0  0
   -1.5030    0.0570   -0.3130 C   0  0  0  0  0  0  0  0  0  0  0  0
   -1.0060    0.2710    0.9490 C   0  0  0  0  0  0  0  0  0  0  0  0
    0.3290    0.4720    0.8020 N   0  0  0  0  0  0  0  0  0  0  0  0
   -2.0180    0.2000    1.8100 N   0  0  0  0  0  0  0  0  0  0  0  0
   -3.1890   -0.0570    1.1780 C   0  0  0  0  0  0  0  0  0  0  0  0
   -4.4960   -0.2270    1.5690 C   0  0  0  0  0  0  0  0  0  0  0  0
   -5.4430   -0.4840    0.5890 C   0  0  0  0  0  0  0  0  0  0  0  0
   -5.1060   -0.5700   -0.7270 C   0  0  0  0  0  0  0  0  0  0  0  0
   -3.8000   -0.4010   -1.1300 C   0  0  0  0  0  0  0  0  0  0  0  0
   -2.8560   -0.1460   -0.1580 C   0  0  0  0  0  0  0  0  0  0  0  0
    4.4450    0.2750   -1.0650 C   0  0  0  0  0  0  0  0  0  0  0  0
    5.3340    0.1450    0.1470 C   0  0  0  0  0  0  0  0  0  0  0  0
  1  2  2  0
  1 18  1  0
  2  3  1  0
  3  4  2  3
  3 17  1  0
  4  5  1  0
  5  6  2  0
  5  9  1  0
  6  7  1  0
  7  8  2  0
  7 16  1  0
  8  9  1  0
  8 10  1  0
 10 11  1  0
 11 12  2  0
 11 16  1  0
 12 13  1  0
 13 14  2  0
 14 15  1  0
 15 16  2  0
 17 18  1  0
M  END
