
     RDKit          3D

 18 21  0  0  0  0  0  0  0  0999 V2000
    5.0290    0.1180   -0.2950 C   0  0  0  0  0  0  0  0  0  0  0  0
    4.4510   -1.0920    0.0400 C   0  0  0  0  0  0  0  0  0  0  0  0
    3.0730   -1.1170    0.1290 C   0  0  0  0  0  0  0  0  0  0  0  0
    2.2880   -0.0080   -0.1000 C   0  0  0  0  0  0  0  0  0  0  0  0
    0.8160   -0.1050    0.0120 C   0  0  0  0  0  0  0  0  0  0  0  0
   -0.0780    0.8770   -0.1780 N   0  0  0  0  0  0  0  0  0  0  0  0
   -1.3070    0.3570    0.0250 C   0  0  0  0  0  0  0  0  0  0  0  0
   -1.1680   -0.9750    0.3470 C   0  0  0  0  0  0  0  0  0  0  0  0
   -2.3010   -1.7260    0.6020 C   0  0  0  0  0  0  0  0  0  0  0  0
   -3.5660   -1.1830    0.5420 C   0  0  0  0  0  0  0  0  0  0  0  0
   -3.7270    0.1490    0.2210 C   0  0  0  0  0  0  0  0  0  0  0  0
   -4.8140    0.9300    0.0920 N   0  0  0  0  0  0  0  0  0  0  0  0
   -4.3740    2.1550   -0.2390 C   0  0  0  0  0  0  0  0  0  0  0  0
   -3.0250    2.1410   -0.3160 N   0  0  0  0  0  0  0  0  0  0  0  0
   -2.5900    0.9030   -0.0340 C   0  0  0  0  0  0  0  0  0  0  0  0
    0.1510   -1.2260    0.3310 N   0  0  0  0  0  0  0  0  0  0  0  0
    2.8970    1.1830   -0.4320 C   0  0  0  0  0  0  0  0  0  0  0  0
    4.2780    1.2570   -0.5330 C   0  0  0  0  0  0  0  0  0  0  0  0
  1  2  2  0
  1 18  1  0
  2  3  1  0
  3  4  2  0
  4  5  1  0
  4 17  1  0
  5  6  2  0
  5 16  1  0
  6  7  1  0
  7  8  2  0
  7 15  1  0
  8  9  1  0
  8 16  1  0
  9 10  2  0
 10 11  1  0
 11 12  1  0
 11 15  2  0
 12 13  1  0
 13 14  2  0
 14 15  1  0
 17 18  2  0
M  END
