
     RDKit          3D

 18 21  0  0  0  0  0  0  0  0999 V2000
   -4.5660    1.1360   -0.0250 C   0  0  0  0  0  0  0  0  0  0  0  0
   -4.9510   -0.1890   -0.1280 C   0  0  0  0  0  0  0  0  0  0  0  0
   -3.9580   -1.1340   -0.1730 C   0  0  0  0  0  0  0  0  0  0  0  0
   -2.6250   -0.7710   -0.1160 C   0  0  0  0  0  0  0  0  0  0  0  0
   -1.4600   -1.4470   -0.1370 N   0  0  0  0  0  0  0  0  0  0  0  0
   -0.4030   -0.6320   -0.0540 C   0  0  0  0  0  0  0  0  0  0  0  0
    1.0210   -0.9670   -0.0450 C   0  0  0  0  0  0  0  0  0  0  0  0
    1.5700   -2.1930   -0.1200 N   0  0  0  0  0  0  0  0  0  0  0  0
    2.9030   -2.1050   -0.0830 N   0  0  0  0  0  0  0  0  0  0  0  0
    3.2830   -0.8190    0.0180 C   0  0  0  0  0  0  0  0  0  0  0  0
    4.5070   -0.1550    0.0940 C   0  0  0  0  0  0  0  0  0  0  0  0
    4.5160    1.2210    0.1920 C   0  0  0  0  0  0  0  0  0  0  0  0
    3.3420    1.9550    0.2170 C   0  0  0  0  0  0  0  0  0  0  0  0
    2.1350    1.2610    0.1390 C   0  0  0  0  0  0  0  0  0  0  0  0
    2.0940   -0.1080    0.0410 C   0  0  0  0  0  0  0  0  0  0  0  0
   -0.9130    0.6080    0.0220 N   0  0  0  0  0  0  0  0  0  0  0  0
   -2.2540    0.5700   -0.0120 C   0  0  0  0  0  0  0  0  0  0  0  0
   -3.2450    1.5240    0.0330 C   0  0  0  0  0  0  0  0  0  0  0  0
  1  2  2  0
  1 18  1  0
  2  3  1  0
  3  4  2  0
  4  5  1  0
  4 17  1  0
  5  6  1  0
  6  7  1  0
  6 16  2  0
  7  8  2  0
  7 15  1  0
  8  9  1  0
  9 10  1  0
 10 11  2  0
 10 15  1  0
 11 12  1  0
 12 13  2  0
 13 14  1  0
 14 15  2  0
 16 17  1  0
 17 18  2  0
M  END
