
     RDKit          3D

 18 21  0  0  0  0  0  0  0  0999 V2000
    1.9460   -0.9010    0.1500 C   0  0  0  0  0  0  0  0  0  0  0  0
    3.1670   -0.1320   -0.1390 C   0  0  0  0  0  0  0  0  0  0  0  0
    4.3220   -0.6690   -0.6990 C   0  0  0  0  0  0  0  0  0  0  0  0
    5.2170    0.3300   -0.8110 N   0  0  0  0  0  0  0  0  0  0  0  0
    4.6380    1.4200   -0.3440 N   0  0  0  0  0  0  0  0  0  0  0  0
    3.4080    1.1690    0.0650 N   0  0  0  0  0  0  0  0  0  0  0  0
    0.7740   -0.3220   -0.0270 C   0  0  0  0  0  0  0  0  0  0  0  0
    0.5000    0.9320   -0.4550 N   0  0  0  0  0  0  0  0  0  0  0  0
   -0.8160    1.1480   -0.5050 C   0  0  0  0  0  0  0  0  0  0  0  0
   -1.6800    2.1910   -0.8480 C   0  0  0  0  0  0  0  0  0  0  0  0
   -3.0670    2.0150   -0.7610 C   0  0  0  0  0  0  0  0  0  0  0  0
   -3.6440    0.8340   -0.3420 C   0  0  0  0  0  0  0  0  0  0  0  0
   -2.7760   -0.2040    0.0000 C   0  0  0  0  0  0  0  0  0  0  0  0
   -3.1980   -1.4410    0.4360 C   0  0  0  0  0  0  0  0  0  0  0  0
   -2.2660   -2.4070    0.7520 C   0  0  0  0  0  0  0  0  0  0  0  0
   -0.8940   -2.1620    0.6410 C   0  0  0  0  0  0  0  0  0  0  0  0
   -0.4540   -0.9290    0.2070 C   0  0  0  0  0  0  0  0  0  0  0  0
   -1.4190    0.0030   -0.0970 C   0  0  0  0  0  0  0  0  0  0  0  0
  1  2  1  0
  1  7  2  3
  2  3  1  0
  2  6  2  0
  3  4  2  0
  4  5  1  0
  5  6  1  0
  7  8  1  0
  7 17  1  0
  8  9  1  0
  9 10  2  0
  9 18  1  0
 10 11  1  0
 11 12  2  0
 12 13  1  0
 13 14  1  0
 13 18  2  0
 14 15  2  0
 15 16  1  0
 16 17  2  0
 17 18  1  0
M  END
