
     RDKit          3D

 18 21  0  0  0  0  0  0  0  0999 V2000
   -1.8130    1.9410    2.3740 N   0  0  0  0  0  0  0  0  0  0  0  0
   -2.5060    0.9310    1.6690 C   0  0  0  0  0  0  0  0  0  0  0  0
   -3.8360    0.7030    1.8880 N   0  0  0  0  0  0  0  0  0  0  0  0
   -4.2180   -0.2770    1.1100 N   0  0  0  0  0  0  0  0  0  0  0  0
   -3.1430   -0.6670    0.4020 C   0  0  0  0  0  0  0  0  0  0  0  0
   -3.0180   -1.6620   -0.5530 C   0  0  0  0  0  0  0  0  0  0  0  0
   -1.7900   -1.8700   -1.1420 C   0  0  0  0  0  0  0  0  0  0  0  0
   -0.6810   -1.1070   -0.7970 C   0  0  0  0  0  0  0  0  0  0  0  0
    0.5480   -1.3160   -1.3870 C   0  0  0  0  0  0  0  0  0  0  0  0
    1.6230   -0.5370   -1.0170 C   0  0  0  0  0  0  0  0  0  0  0  0
    2.8810   -0.7360   -1.6070 C   0  0  0  0  0  0  0  0  0  0  0  0
    3.9290    0.0830   -1.1920 C   0  0  0  0  0  0  0  0  0  0  0  0
    3.7790    1.0630   -0.2410 C   0  0  0  0  0  0  0  0  0  0  0  0
    2.5190    1.2150    0.3060 C   0  0  0  0  0  0  0  0  0  0  0  0
    1.4480    0.4340   -0.0670 C   0  0  0  0  0  0  0  0  0  0  0  0
    0.2130    0.6430    0.5240 C   0  0  0  0  0  0  0  0  0  0  0  0
   -0.8790   -0.1230    0.1720 C   0  0  0  0  0  0  0  0  0  0  0  0
   -2.0770    0.0740    0.7410 N   0  0  0  0  0  0  0  0  0  0  0  0
  1  2  1  0
  2  3  2  0
  2 18  1  0
  3  4  1  0
  4  5  2  0
  5  6  1  0
  5 18  1  0
  6  7  2  0
  7  8  1  0
  8  9  2  0
  8 17  1  0
  9 10  1  0
 10 11  2  0
 10 15  1  0
 11 12  1  0
 12 13  2  0
 13 14  1  0
 14 15  2  0
 15 16  1  0
 16 17  2  0
 17 18  1  0
M  END
