
     RDKit          3D

 25 24  0  0  0  0  0  0  0  0999 V2000
   -1.1920   -2.3130    0.0270 C   0  0  0  0  0  0  0  0  0  0  0  0
   -1.2280   -0.8690    0.2250 N   0  0  2  0  0  0  0  0  0  0  0  0
   -0.0480   -0.5060    0.9530 C   0  0  0  0  0  0  0  0  0  0  0  0
    0.9140    0.3970    0.2730 C   0  0  0  0  0  0  0  0  0  0  0  0
    1.5510   -0.0750   -0.9830 C   0  0  0  0  0  0  0  0  0  0  0  0
    2.5460   -1.5590   -0.7060 S   0  0  0  0  0  0  0  0  0  0  0  0
    3.9210   -1.1670    0.3800 C   0  0  0  0  0  0  0  0  0  0  0  0
    4.9490   -0.2420   -0.2230 C   0  0  2  0  0  0  0  0  0  0  0  0
    4.3250    0.9510   -0.5460 O   0  0  0  0  0  0  0  0  0  0  0  0
    5.3820   -0.8900   -1.5330 C   0  0  0  0  0  0  0  0  0  0  0  0
    6.2580   -0.1090   -2.2600 O   0  0  0  0  0  0  0  0  0  0  0  0
    6.1000   -0.0320    0.6740 C   0  0  0  0  0  0  0  0  0  0  0  0
    6.7710   -1.0160    1.0640 O   0  0  0  0  0  0  0  0  0  0  0  0
    6.4680    1.2600    1.1070 N   0  0  0  0  0  0  0  0  0  0  0  0
    7.5730    1.4740    1.9710 N   0  0  0  0  0  0  0  0  0  0  0  0
   -2.4830   -0.3580    0.7010 C   0  0  2  0  0  0  0  0  0  0  0  0
   -2.3600    0.5420    1.8850 C   0  0  0  0  0  0  0  0  0  0  0  0
   -1.6040    1.6810    1.7040 O   0  0  0  0  0  0  0  0  0  0  0  0
   -3.3320   -1.5390    1.1870 C   0  0  0  0  0  0  0  0  0  0  0  0
   -3.6410   -2.4590    0.2210 O   0  0  0  0  0  0  0  0  0  0  0  0
   -3.1840    0.2170   -0.4680 C   0  0  0  0  0  0  0  0  0  0  0  0
   -4.4720    0.8700   -0.4500 C   0  0  2  0  0  0  0  0  0  0  0  0
   -5.6950    0.1740    0.0070 C   0  0  0  0  0  0  0  0  0  0  0  0
   -4.7540    1.0640   -1.9900 C   0  0  0  0  0  0  0  0  0  0  0  0
   -4.4660    2.3370    0.0280 C   0  0  0  0  0  0  0  0  0  0  0  0
  2  1  1  1
  2  3  1  0
  2 16  1  0
  3  4  1  0
  4  5  1  0
  5  6  1  0
  6  7  1  0
  7  8  1  0
  8  9  1  6
  8 10  1  0
  8 12  1  0
 10 11  1  0
 12 13  2  0
 12 14  1  0
 14 15  1  0
 16 17  1  1
 16 19  1  0
 16 21  1  0
 17 18  1  0
 19 20  1  0
 21 22  1  0
 22 23  1  1
 22 24  1  0
 22 25  1  0
M  CHG  1   2   1
M  END
