
     RDKit          3D

 29 29  0  0  0  0  0  0  0  0999 V2000
   -5.3000   -0.2610    2.7360 O   0  0  0  0  0  0  0  0  0  0  0  0
   -5.5290    0.7400    2.0330 C   0  0  0  0  0  0  0  0  0  0  0  0
   -6.5000    1.6550    2.4210 O   0  0  0  0  0  0  0  0  0  0  0  0
   -4.7860    0.9270    0.8400 N   0  0  0  0  0  0  0  0  0  0  0  0
   -3.7780   -0.0110    0.4250 C   0  0  0  0  0  0  0  0  0  0  0  0
   -3.5630   -1.0010    1.1370 O   0  0  0  0  0  0  0  0  0  0  0  0
   -3.0570    0.1630   -0.7250 O   0  0  0  0  0  0  0  0  0  0  0  0
   -2.0630   -0.6460   -1.2630 C   0  0  1  0  0  0  0  0  0  0  0  0
   -2.5050   -2.0330   -1.6180 C   0  0  0  0  0  0  0  0  0  0  0  0
   -2.9820   -2.7990   -0.5870 O   0  0  0  0  0  0  0  0  0  0  0  0
   -1.6030    0.0150   -2.5110 C   0  0  0  0  0  0  0  0  0  0  0  0
   -1.9440   -0.4670   -3.6100 O   0  0  0  0  0  0  0  0  0  0  0  0
   -0.7910    1.1720   -2.3980 N   0  0  0  0  0  0  0  0  0  0  0  0
   -0.0150    1.3850   -1.2100 C   0  0  0  0  0  0  0  0  0  0  0  0
    0.6820    2.4280   -1.1730 O   0  0  0  0  0  0  0  0  0  0  0  0
   -0.0560    0.4440   -0.1480 N   0  0  0  0  0  0  0  0  0  0  0  0
    0.6840    0.6090    1.0430 C   0  0  0  0  0  0  0  0  0  0  0  0
    2.0590    0.0550    1.0880 C   0  0  1  0  0  0  0  0  0  0  0  0
    2.2130   -1.7500    0.8310 P   0  0  0  0  0  0  0  0  0  0  0  0
    2.8780   -2.5660    2.2160 O   0  0  0  0  0  0  0  0  0  0  0  0
    3.3310   -2.0210   -0.4880 O   0  0  0  0  0  0  0  0  0  0  0  0
    3.1840    1.0090   -0.0720 P   0  0  0  0  0  0  0  0  0  0  0  0
    4.0430    2.2470    0.7490 O   0  0  0  0  0  0  0  0  0  0  0  0
    4.2080   -0.0470   -0.9630 O   0  0  0  0  0  0  0  0  0  0  0  0
    5.7370    0.7180   -1.1860 P   0  0  0  0  0  0  0  0  0  0  0  0
    5.5570    2.4320   -1.3540 O   0  0  0  0  0  0  0  0  0  0  0  0
    6.7850    0.3320    0.1620 O   0  0  0  0  0  0  0  0  0  0  0  0
   -0.8880   -0.6870   -0.3290 C   0  0  0  0  0  0  0  0  0  0  0  0
   -0.6890   -1.7710    0.2770 O   0  0  0  0  0  0  0  0  0  0  0  0
  1  2  2  0
  2  3  1  0
  2  4  1  0
  4  5  1  0
  5  6  2  0
  5  7  1  0
  7  8  1  0
  8  9  1  6
  8 11  1  0
  8 28  1  0
  9 10  1  0
 11 12  2  0
 11 13  1  0
 13 14  1  0
 14 15  2  0
 14 16  1  0
 16 17  1  0
 16 28  1  0
 18 17  1  6
 18 19  1  0
 18 22  1  0
 19 20  1  0
 19 21  1  0
 22 23  1  0
 22 24  1  0
 24 25  1  0
 25 26  1  0
 25 27  1  0
 28 29  2  0
M  END
