
     RDKit          3D

 28 29  0  0  0  0  0  0  0  0999 V2000
    5.9090    1.7880   -0.7510 O   0  0  0  0  0  0  0  0  0  0  0  0
    4.7320    1.8900   -0.7720 N   0  0  0  0  0  0  0  0  0  0  0  0
    3.9270    0.7970   -0.3790 C   0  0  1  0  0  0  0  0  0  0  0  0
    4.6710   -0.3380    0.8860 P   0  0  0  0  0  0  0  0  0  0  0  0
    6.3280   -0.6230    0.5760 O   0  0  0  0  0  0  0  0  0  0  0  0
    4.3260    0.1330    2.4930 O   0  0  0  0  0  0  0  0  0  0  0  0
    2.4790    1.1200   -0.0840 C   0  0  0  0  0  0  0  0  0  0  0  0
    2.1270   -0.1460   -0.6960 N   0  0  0  0  0  0  0  0  0  0  0  0
    1.0810   -1.0670   -0.5590 C   0  0  0  0  0  0  0  0  0  0  0  0
    1.0720   -2.1000   -1.2630 O   0  0  0  0  0  0  0  0  0  0  0  0
   -0.0370   -0.8790    0.3920 C   0  0  1  0  0  0  0  0  0  0  0  0
    0.0790    0.3150    1.1270 O   0  0  0  0  0  0  0  0  0  0  0  0
   -0.9240    0.5760    2.0490 C   0  0  0  0  0  0  0  0  0  0  0  0
   -0.6910    1.2350    3.1030 O   0  0  0  0  0  0  0  0  0  0  0  0
   -2.2190    0.0690    1.7520 N   0  0  0  0  0  0  0  0  0  0  0  0
   -2.4510   -0.8980    0.7400 C   0  0  2  0  0  0  0  0  0  0  0  0
   -2.5200   -2.2020    1.1990 O   0  0  0  0  0  0  0  0  0  0  0  0
   -3.9820   -3.0010    0.8530 P   0  0  0  0  0  0  0  0  0  0  0  0
   -4.4070   -4.2240    1.9800 O   0  0  0  0  0  0  0  0  0  0  0  0
   -5.2850   -1.9540    0.4630 O   0  0  0  0  0  0  0  0  0  0  0  0
   -1.3740   -0.8500   -0.3210 C   0  0  2  0  0  0  0  0  0  0  0  0
   -1.4010   -2.0030   -1.1140 O   0  0  0  0  0  0  0  0  0  0  0  0
   -1.5450    0.3680   -1.1680 C   0  0  0  0  0  0  0  0  0  0  0  0
   -1.5290    1.5390   -0.4510 O   0  0  0  0  0  0  0  0  0  0  0  0
   -1.7250    2.9420   -1.4200 P   0  0  0  0  0  0  0  0  0  0  0  0
   -2.8510    2.5700   -2.6870 O   0  0  0  0  0  0  0  0  0  0  0  0
   -2.3360    4.2800   -0.5080 O   0  0  0  0  0  0  0  0  0  0  0  0
    3.3280   -0.0280   -1.4980 C   0  0  0  0  0  0  0  0  0  0  0  0
  1  2  2  0
  2  3  1  0
  3  4  1  1
  3  7  1  0
  3 28  1  0
  4  5  1  0
  4  6  1  0
  7  8  1  0
  8  9  1  0
  8 28  1  0
  9 10  2  0
 11  9  1  6
 11 12  1  0
 11 21  1  0
 12 13  1  0
 13 14  2  0
 13 15  1  0
 15 16  1  0
 16 17  1  1
 16 21  1  0
 17 18  1  0
 18 19  1  0
 18 20  1  0
 21 22  1  6
 21 23  1  0
 23 24  1  0
 24 25  1  0
 25 26  1  0
 25 27  1  0
M  END
