
     RDKit          3D

 29 30  0  0  0  0  0  0  0  0999 V2000
    7.9220   -0.1130   -0.7170 O   0  0  0  0  0  0  0  0  0  0  0  0
    8.3240    0.8150    0.0230 C   0  0  0  0  0  0  0  0  0  0  0  0
    9.6750    1.1400    0.0460 O   0  0  0  0  0  0  0  0  0  0  0  0
    7.3750    1.4810    0.7970 O   0  0  0  0  0  0  0  0  0  0  0  0
    5.7410    1.0530    0.7380 P   0  0  0  0  0  0  0  0  0  0  0  0
    5.3130   -0.5580    0.7020 O   0  0  0  0  0  0  0  0  0  0  0  0
    4.2940    2.5360    0.2930 P   0  0  0  0  0  0  0  0  0  0  0  0
    3.8640    3.5690    1.6160 O   0  0  0  0  0  0  0  0  0  0  0  0
    2.8160    1.8130   -0.3140 O   0  0  0  0  0  0  0  0  0  0  0  0
    2.2160    0.7210    0.3010 C   0  0  0  0  0  0  0  0  0  0  0  0
    2.7380    0.2210    1.3300 O   0  0  0  0  0  0  0  0  0  0  0  0
    1.0540    0.1810   -0.2060 O   0  0  0  0  0  0  0  0  0  0  0  0
    0.4110   -0.9460    0.4060 C   0  0  1  0  0  0  0  0  0  0  0  0
   -0.8650   -0.5630    0.7100 O   0  0  0  0  0  0  0  0  0  0  0  0
   -1.6450   -0.4730   -0.4360 C   0  0  2  0  0  0  0  0  0  0  0  0
   -2.9230    0.1850   -0.1980 C   0  0  0  0  0  0  0  0  0  0  0  0
   -3.2080    1.3130    0.5010 N   0  0  0  0  0  0  0  0  0  0  0  0
   -4.5120    1.5200    0.4380 N   0  0  0  0  0  0  0  0  0  0  0  0
   -5.0540    0.5290   -0.2970 C   0  0  0  0  0  0  0  0  0  0  0  0
   -6.4780    0.3130   -0.6560 C   0  0  0  0  0  0  0  0  0  0  0  0
   -7.2220   -0.7440    0.6870 P   0  0  0  0  0  0  0  0  0  0  0  0
   -5.9750   -1.5410    1.6020 O   0  0  0  0  0  0  0  0  0  0  0  0
   -8.0450    0.3260    1.8070 O   0  0  0  0  0  0  0  0  0  0  0  0
   -4.0780   -0.2340   -0.6500 O   0  0  0  0  0  0  0  0  0  0  0  0
   -1.8890   -1.8710   -0.8800 C   0  0  0  0  0  0  0  0  0  0  0  0
   -3.0240   -2.3380   -1.1290 O   0  0  0  0  0  0  0  0  0  0  0  0
   -0.7180   -2.6720   -1.0100 N   0  0  0  0  0  0  0  0  0  0  0  0
    0.4870   -2.0620   -0.5630 C   0  0  0  0  0  0  0  0  0  0  0  0
    1.6030   -2.4590   -0.9820 O   0  0  0  0  0  0  0  0  0  0  0  0
  1  2  2  0
  2  3  1  0
  2  4  1  0
  4  5  1  0
  5  6  1  0
  5  7  1  0
  7  8  1  0
  7  9  1  0
  9 10  1  0
 10 11  2  0
 10 12  1  0
 13 12  1  6
 13 14  1  0
 13 28  1  0
 14 15  1  0
 15 16  1  1
 15 25  1  0
 16 17  2  0
 16 24  1  0
 17 18  1  0
 18 19  2  0
 19 20  1  0
 19 24  1  0
 20 21  1  0
 21 22  1  0
 21 23  1  0
 25 26  2  0
 25 27  1  0
 27 28  1  0
 28 29  2  0
M  END
