
     RDKit          3D

 28 28  0  0  0  0  0  0  0  0999 V2000
    8.1780   -0.6590   -0.9960 O   0  0  0  0  0  0  0  0  0  0  0  0
    8.1480    0.1530   -0.0480 C   0  0  0  0  0  0  0  0  0  0  0  0
    9.2430    0.9670    0.1640 O   0  0  0  0  0  0  0  0  0  0  0  0
    6.9570    0.2260    0.8180 C   0  0  0  0  0  0  0  0  0  0  0  0
    6.0000   -0.7060    0.3760 O   0  0  0  0  0  0  0  0  0  0  0  0
    5.4240   -0.7050   -0.8810 C   0  0  0  0  0  0  0  0  0  0  0  0
    5.7820    0.1900   -1.6770 O   0  0  0  0  0  0  0  0  0  0  0  0
    4.4210   -1.6950   -1.3210 C   0  0  2  0  0  0  0  0  0  0  0  0
    4.0460   -1.4050   -2.6490 O   0  0  0  0  0  0  0  0  0  0  0  0
    3.0810   -0.4110   -2.5280 N   0  0  0  0  0  0  0  0  0  0  0  0
    2.5800   -0.4360   -1.3340 C   0  0  0  0  0  0  0  0  0  0  0  0
    1.5210    0.4490   -0.7710 C   0  0  0  0  0  0  0  0  0  0  0  0
    0.4140   -0.3660   -0.3690 N   0  0  0  0  0  0  0  0  0  0  0  0
   -0.7520    0.2200    0.2090 C   0  0  0  0  0  0  0  0  0  0  0  0
   -0.7470    1.4750    0.3410 O   0  0  0  0  0  0  0  0  0  0  0  0
   -1.8360   -0.6030    0.6000 N   0  0  0  0  0  0  0  0  0  0  0  0
   -3.0040    0.0160    1.1830 C   0  0  0  0  0  0  0  0  0  0  0  0
   -3.6700    1.0050    0.2710 C   0  0  1  0  0  0  0  0  0  0  0  0
   -4.2330    0.2080   -1.3080 P   0  0  0  0  0  0  0  0  0  0  0  0
   -5.6090    1.1140   -1.9030 O   0  0  0  0  0  0  0  0  0  0  0  0
   -4.7900   -1.4100   -1.0120 O   0  0  0  0  0  0  0  0  0  0  0  0
   -5.2100    1.6090    1.1540 P   0  0  0  0  0  0  0  0  0  0  0  0
   -5.0430    3.3090    1.5530 O   0  0  0  0  0  0  0  0  0  0  0  0
   -5.4870    0.7250    2.6100 O   0  0  0  0  0  0  0  0  0  0  0  0
   -6.8950   -0.2920    2.4510 P   0  0  0  0  0  0  0  0  0  0  0  0
   -7.2970   -0.4780    0.7580 O   0  0  0  0  0  0  0  0  0  0  0  0
   -6.4640   -1.8550    3.0610 O   0  0  0  0  0  0  0  0  0  0  0  0
    3.2050   -1.4550   -0.6280 O   0  0  0  0  0  0  0  0  0  0  0  0
  1  2  2  0
  2  3  1  0
  2  4  1  0
  4  5  1  0
  5  6  1  0
  6  7  2  0
  8  6  1  1
  8  9  1  0
  8 28  1  0
  9 10  1  0
 10 11  2  0
 11 12  1  0
 11 28  1  0
 12 13  1  0
 13 14  1  0
 14 15  2  0
 14 16  1  0
 16 17  1  0
 18 17  1  1
 18 19  1  0
 18 22  1  0
 19 20  1  0
 19 21  1  0
 22 23  1  0
 22 24  1  0
 24 25  1  0
 25 26  1  0
 25 27  1  0
M  END
