
     RDKit          3D

 31 33  0  0  0  0  0  0  0  0999 V2000
    3.8790    2.1240   -1.5720 O   0  0  0  0  0  0  0  0  0  0  0  0
    3.6380    1.6310   -0.3730 C   0  0  0  0  0  0  0  0  0  0  0  0
    2.3060    1.5350   -0.0110 N   0  0  0  0  0  0  0  0  0  0  0  0
    1.3260    2.4140    0.5920 C   0  0  0  0  0  0  0  0  0  0  0  0
    0.2430    2.5840   -0.5140 C   0  0  0  0  0  0  0  0  0  0  0  0
   -0.0480    1.2400   -1.0500 N   0  0  0  0  0  0  0  0  0  0  0  0
   -0.9430    0.4930   -0.1770 C   0  0  0  0  0  0  0  0  0  0  0  0
   -2.3480    0.8600   -0.6440 C   0  0  0  0  0  0  0  0  0  0  0  0
   -3.3240    0.1740    0.1550 O   0  0  0  0  0  0  0  0  0  0  0  0
   -4.6700    0.3640   -0.1000 C   0  0  0  0  0  0  0  0  0  0  0  0
   -4.9850    1.1400   -1.0330 O   0  0  0  0  0  0  0  0  0  0  0  0
   -5.7290   -0.2860    0.6540 C   0  0  0  0  0  0  0  0  0  0  0  0
   -5.4760   -1.1550    1.6980 C   0  0  0  0  0  0  0  0  0  0  0  0
   -6.5520   -1.7140    2.3430 C   0  0  0  0  0  0  0  0  0  0  0  0
   -7.7960   -1.4620    2.0160 O   0  0  0  0  0  0  0  0  0  0  0  0
   -8.0940   -0.6460    1.0360 C   0  0  0  0  0  0  0  0  0  0  0  0
   -9.2730   -0.3830    0.6970 O   0  0  0  0  0  0  0  0  0  0  0  0
   -7.0540   -0.0560    0.3530 C   0  0  0  0  0  0  0  0  0  0  0  0
    0.3860    0.6470   -2.2380 C   0  0  0  0  0  0  0  0  0  0  0  0
   -0.6080    0.2390   -2.9940 O   0  0  0  0  0  0  0  0  0  0  0  0
    1.6230    0.4050   -2.7740 O   0  0  0  0  0  0  0  0  0  0  0  0
    2.5870   -0.4710   -2.5560 O   0  0  0  0  0  0  0  0  0  0  0  0
    2.9830   -1.4430   -1.7390 C   0  0  0  0  0  0  0  0  0  0  0  0
    2.6270   -2.6620   -2.0940 O   0  0  0  0  0  0  0  0  0  0  0  0
    3.7220   -1.4580   -0.5440 N   0  0  0  0  0  0  0  0  0  0  0  0
    3.2620   -1.8520    0.7060 O   0  0  0  0  0  0  0  0  0  0  0  0
    4.1210   -2.8020    1.0570 O   0  0  0  0  0  0  0  0  0  0  0  0
    5.3870   -2.4070    0.6250 C   0  0  0  0  0  0  0  0  0  0  0  0
    5.0800   -1.1370   -0.2100 C   0  0  2  0  0  0  0  0  0  0  0  0
    5.2430   -0.0110    0.7970 C   0  0  0  0  0  0  0  0  0  0  0  0
    4.8440    1.2940    0.2980 N   0  0  0  0  0  0  0  0  0  0  0  0
  1  2  2  0
  2  3  1  0
  2 31  1  0
  3  4  1  0
  4  5  1  0
  5  6  1  0
  6  7  1  0
  6 19  1  0
  7  8  1  0
  8  9  1  0
  9 10  1  0
 10 11  2  0
 10 12  1  0
 12 13  1  0
 12 18  2  0
 13 14  2  0
 14 15  1  0
 15 16  1  0
 16 17  2  0
 16 18  1  0
 19 20  2  0
 19 21  1  0
 21 22  1  0
 22 23  1  0
 23 24  2  0
 23 25  1  0
 25 26  1  0
 25 29  1  0
 26 27  1  0
 27 28  1  0
 29 28  1  1
 29 30  1  0
 30 31  1  0
M  END
