
     RDKit          3D

 32 33  0  0  0  0  0  0  0  0999 V2000
    1.3830   -4.2340   -3.6260 O   0  0  0  0  0  0  0  0  0  0  0  0
    0.9700   -3.4000   -2.7910 C   0  0  0  0  0  0  0  0  0  0  0  0
   -0.2420   -3.5190   -2.2050 N   0  0  0  0  0  0  0  0  0  0  0  0
   -0.6590   -2.6150   -1.3160 C   0  0  0  0  0  0  0  0  0  0  0  0
   -1.7810   -2.7420   -0.7860 O   0  0  0  0  0  0  0  0  0  0  0  0
    0.1380   -1.5480   -0.9820 C   0  0  0  0  0  0  0  0  0  0  0  0
    1.3620   -1.4650   -1.6010 C   0  0  0  0  0  0  0  0  0  0  0  0
    1.8030   -2.3670   -2.5020 N   0  0  0  0  0  0  0  0  0  0  0  0
    1.9330   -0.3250   -1.0890 N   0  0  0  0  0  0  0  0  0  0  0  0
    3.2330    0.1390   -1.5130 C   0  0  0  0  0  0  0  0  0  0  0  0
    4.3920   -0.4440   -0.8140 C   0  0  1  0  0  0  0  0  0  0  0  0
    5.6250    0.0550   -1.3020 O   0  0  0  0  0  0  0  0  0  0  0  0
    4.4440   -0.5000    0.6400 C   0  0  2  0  0  0  0  0  0  0  0  0
    3.1950   -0.9750    1.1130 O   0  0  0  0  0  0  0  0  0  0  0  0
    4.8550    0.6360    1.4600 C   0  0  2  0  0  0  0  0  0  0  0  0
    4.0270    1.7500    1.4770 O   0  0  0  0  0  0  0  0  0  0  0  0
    6.2630    1.1210    1.3770 C   0  0  0  0  0  0  0  0  0  0  0  0
    6.5210    1.9040    0.2560 O   0  0  0  0  0  0  0  0  0  0  0  0
    1.0700    0.2140   -0.2190 C   0  0  0  0  0  0  0  0  0  0  0  0
    1.2250    1.2630    0.4530 O   0  0  0  0  0  0  0  0  0  0  0  0
   -0.0550   -0.5270   -0.1330 N   0  0  0  0  0  0  0  0  0  0  0  0
   -1.2150   -0.2670    0.6990 C   0  0  0  0  0  0  0  0  0  0  0  0
   -2.2330    0.5890   -0.0340 C   0  0  0  0  0  0  0  0  0  0  0  0
   -3.4440    0.8590    0.8360 C   0  0  0  0  0  0  0  0  0  0  0  0
   -4.4600    1.7020    0.1310 C   0  0  0  0  0  0  0  0  0  0  0  0
   -5.6940    2.0060    0.9290 C   0  0  1  0  0  0  0  0  0  0  0  0
   -5.2360    2.6560    2.0840 F   0  0  0  0  0  0  0  0  0  0  0  0
   -6.2900    3.1010    0.2340 F   0  0  0  0  0  0  0  0  0  0  0  0
   -6.7980    0.7160    1.0600 P   0  0  0  0  0  0  0  0  0  0  0  0
   -6.5620    0.3170    2.5230 O   0  0  0  0  0  0  0  0  0  0  0  0
   -8.4080    1.0490    1.4620 O   0  0  0  0  0  0  0  0  0  0  0  0
   -6.4700   -0.8510    0.6090 O   0  0  0  0  0  0  0  0  0  0  0  0
  1  2  2  0
  2  3  1  0
  2  8  1  0
  3  4  1  0
  4  5  2  0
  4  6  1  0
  6  7  2  0
  6 21  1  0
  7  8  1  0
  7  9  1  0
  9 10  1  0
  9 19  1  0
 10 11  1  0
 11 12  1  1
 11 13  1  0
 13 14  1  1
 13 15  1  0
 15 16  1  6
 15 17  1  0
 17 18  1  0
 19 20  2  0
 19 21  1  0
 21 22  1  0
 22 23  1  0
 23 24  1  0
 24 25  1  0
 25 26  1  0
 26 27  1  1
 26 28  1  0
 26 29  1  0
 29 30  1  0
 29 31  1  0
 29 32  1  0
M  END
