
     RDKit          3D

 38 40  0  0  0  0  0  0  0  0999 V2000
   -4.4850    4.9750   -0.0130 C   0  0  0  0  0  0  0  0  0  0  0  0
   -4.4200    3.9670   -0.9710 O   0  0  0  0  0  0  0  0  0  0  0  0
   -3.4820    3.0810   -0.4930 N   0  0  0  0  0  0  0  0  0  0  0  0
   -2.4200    2.6200   -1.3390 C   0  0  0  0  0  0  0  0  0  0  0  0
   -2.4430    3.0940   -2.5010 O   0  0  0  0  0  0  0  0  0  0  0  0
   -1.4140    1.6930   -0.8940 N   0  0  0  0  0  0  0  0  0  0  0  0
   -0.3920    1.3270   -1.8080 C   0  0  0  0  0  0  0  0  0  0  0  0
    0.8440    1.4750   -1.7890 N   0  0  0  0  0  0  0  0  0  0  0  0
    1.9010    1.9770   -1.0600 C   0  0  0  0  0  0  0  0  0  0  0  0
    3.1980    1.5270   -1.5040 O   0  0  0  0  0  0  0  0  0  0  0  0
    3.6030    0.2170   -1.6300 C   0  0  0  0  0  0  0  0  0  0  0  0
    4.0650   -0.2340   -3.0110 C   0  0  0  0  0  0  0  0  0  0  0  0
    3.6170   -0.6600   -0.6160 C   0  0  0  0  0  0  0  0  0  0  0  0
    4.0460   -1.9570   -0.8920 O   0  0  0  0  0  0  0  0  0  0  0  0
    3.2070   -3.3610   -0.1580 P   0  0  0  0  0  0  0  0  0  0  0  0
    1.7920   -3.6100   -1.1680 O   0  0  0  0  0  0  0  0  0  0  0  0
    0.9860   -4.4460   -0.6090 O   0  0  0  0  0  0  0  0  0  0  0  0
   -0.4720   -3.8210    0.0020 P   0  0  0  0  0  0  0  0  0  0  0  0
   -0.3230   -2.2760    0.8170 O   0  0  0  0  0  0  0  0  0  0  0  0
   -1.0820   -1.1850    0.4610 C   0  0  0  0  0  0  0  0  0  0  0  0
   -0.7640    0.0620    0.8480 C   0  0  0  0  0  0  0  0  0  0  0  0
   -1.6030    1.2180    0.4450 C   0  0  0  0  0  0  0  0  0  0  0  0
    0.3160    0.3540    1.6140 O   0  0  0  0  0  0  0  0  0  0  0  0
    0.6950    0.3850    2.8830 C   0  0  0  0  0  0  0  0  0  0  0  0
    0.4930    1.3040    3.7590 O   0  0  0  0  0  0  0  0  0  0  0  0
    1.4400   -0.7310    3.4130 N   0  0  0  0  0  0  0  0  0  0  0  0
    1.6700   -0.9600    5.2040 P   0  0  0  0  0  0  0  0  0  0  0  0
    2.3980    0.2330    5.9190 O   0  0  0  0  0  0  0  0  0  0  0  0
    2.0160   -1.6760    2.6660 O   0  0  0  0  0  0  0  0  0  0  0  0
    3.1850   -1.4200    2.1930 O   0  0  0  0  0  0  0  0  0  0  0  0
    3.0970   -0.1490    1.0570 P   0  0  0  0  0  0  0  0  0  0  0  0
    3.9130    1.2810    1.5830 O   0  0  0  0  0  0  0  0  0  0  0  0
    4.8030    1.5850    0.6430 O   0  0  0  0  0  0  0  0  0  0  0  0
   -2.2790   -1.3620   -0.3630 C   0  0  0  0  0  0  0  0  0  0  0  0
   -2.6540   -2.8040   -0.6040 C   0  0  1  0  0  0  0  0  0  0  0  0
   -3.0480   -3.4190    0.7370 C   0  0  0  0  0  0  0  0  0  0  0  0
   -3.8000   -2.8160   -1.3930 O   0  0  0  0  0  0  0  0  0  0  0  0
   -1.6760   -3.5430   -1.2500 O   0  0  0  0  0  0  0  0  0  0  0  0
  1  2  1  0
  2  3  1  0
  3  4  1  0
  4  5  2  0
  4  6  1  0
  6  7  1  0
  6 22  1  0
  7  8  2  0
  8  9  1  0
  9 10  1  0
 10 11  1  0
 11 12  1  0
 11 13  2  0
 13 14  1  0
 13 31  1  0
 14 15  1  0
 15 16  1  0
 16 17  1  0
 17 18  1  0
 18 19  1  0
 18 38  1  0
 19 20  1  0
 20 21  2  0
 20 34  1  0
 21 22  1  0
 21 23  1  0
 23 24  1  0
 24 25  2  0
 24 26  1  0
 26 27  1  0
 26 29  1  0
 27 28  2  0
 29 30  1  0
 30 31  1  0
 31 32  1  0
 32 33  1  0
 34 35  1  0
 35 36  1  1
 35 37  1  0
 35 38  1  0
M  END
