
     RDKit          3D

 37 39  0  0  0  0  0  0  0  0999 V2000
    4.7840    0.1020   -1.0580 O   0  0  0  0  0  0  0  0  0  0  0  0
    4.5790    0.8360   -0.1020 C   0  0  0  0  0  0  0  0  0  0  0  0
    3.2740    1.3790    0.2520 C   0  0  0  0  0  0  0  0  0  0  0  0
    2.1760    0.7430   -0.4080 N   0  0  0  0  0  0  0  0  0  0  0  0
    1.7360   -0.5830    0.0480 C   0  0  0  0  0  0  0  0  0  0  0  0
    2.3960   -1.0970    1.0050 O   0  0  0  0  0  0  0  0  0  0  0  0
    0.6310   -1.3230   -0.4840 C   0  0  2  0  0  0  0  0  0  0  0  0
    0.1710   -0.9720   -1.8540 C   0  0  0  0  0  0  0  0  0  0  0  0
   -0.3280    0.2680   -1.9850 O   0  0  0  0  0  0  0  0  0  0  0  0
   -0.8770    0.8350   -0.8780 C   0  0  0  0  0  0  0  0  0  0  0  0
   -1.5470   -0.2230    0.0110 C   0  0  1  0  0  0  0  0  0  0  0  0
   -2.6190   -0.8320   -0.8230 C   0  0  0  0  0  0  0  0  0  0  0  0
   -3.1640   -1.9590   -0.3220 O   0  0  0  0  0  0  0  0  0  0  0  0
   -3.7860   -1.7130    0.8970 C   0  0  0  0  0  0  0  0  0  0  0  0
   -4.8520   -0.6900    0.6390 C   0  0  0  0  0  0  0  0  0  0  0  0
   -5.1970    0.2360    1.5140 N   0  0  0  0  0  0  0  0  0  0  0  0
   -6.1930    0.9920    0.9950 O   0  0  0  0  0  0  0  0  0  0  0  0
   -6.5450    0.4800   -0.2440 C   0  0  2  0  0  0  0  0  0  0  0  0
   -7.9150   -0.1970   -0.1150 C   0  0  0  0  0  0  0  0  0  0  0  0
   -8.7330    0.7740    0.5190 O   0  0  0  0  0  0  0  0  0  0  0  0
   -9.9660    1.1430   -0.6760 P   0  0  0  0  0  0  0  0  0  0  0  0
   -9.4940    2.7770   -1.2720 O   0  0  0  0  0  0  0  0  0  0  0  0
  -11.4960    1.1460   -0.0050 O   0  0  0  0  0  0  0  0  0  0  0  0
   -5.6240   -0.5320   -0.4990 O   0  0  0  0  0  0  0  0  0  0  0  0
   -0.5050   -1.0940    0.4470 N   0  0  0  0  0  0  0  0  0  0  0  0
   -0.1580   -1.8830    1.6070 C   0  0  0  0  0  0  0  0  0  0  0  0
   -0.6540   -1.6890    2.7250 O   0  0  0  0  0  0  0  0  0  0  0  0
    0.8120   -2.8500    1.2420 N   0  0  0  0  0  0  0  0  0  0  0  0
    0.8000   -2.8210   -0.2450 C   0  0  2  0  0  0  0  0  0  0  0  0
    1.8930   -3.3810   -0.8580 O   0  0  0  0  0  0  0  0  0  0  0  0
    5.7230    1.1810    0.7530 N   0  0  0  0  0  0  0  0  0  0  0  0
    6.9220    0.6910    0.2450 C   0  0  0  0  0  0  0  0  0  0  0  0
    7.5430    1.8990   -0.6700 C   0  0  0  0  0  0  0  0  0  0  0  0
    8.6460    1.2410   -1.1220 O   0  0  0  0  0  0  0  0  0  0  0  0
   10.1050    1.9100   -0.3880 P   0  0  0  0  0  0  0  0  0  0  0  0
    9.6620    1.8900    1.3770 O   0  0  0  0  0  0  0  0  0  0  0  0
   11.3270    0.5790   -0.4860 O   0  0  0  0  0  0  0  0  0  0  0  0
  1  2  2  0
  2  3  1  0
  2 31  1  0
  3  4  1  0
  4  5  1  0
  5  6  2  0
  7  5  1  1
  7  8  1  0
  7 25  1  0
  7 29  1  0
  8  9  1  0
  9 10  1  0
 10 11  1  0
 11 12  1  6
 11 25  1  0
 12 13  1  0
 13 14  1  0
 14 15  1  0
 15 16  2  0
 15 24  1  0
 16 17  1  0
 17 18  1  0
 18 19  1  1
 18 24  1  0
 19 20  1  0
 20 21  1  0
 21 22  1  0
 21 23  1  0
 25 26  1  0
 26 27  2  0
 26 28  1  0
 28 29  1  0
 29 30  1  6
 31 32  1  0
 32 33  1  0
 33 34  1  0
 34 35  1  0
 35 36  1  0
 35 37  1  0
M  END
