
     RDKit          3D

 37 38  0  0  0  0  0  0  0  0999 V2000
    6.5200   -1.6470   -0.3600 C   0  0  0  0  0  0  0  0  0  0  0  0
    6.9430   -0.4780    0.3880 N   0  0  0  0  0  0  0  0  0  0  0  0
    7.6150    0.4770   -0.4710 C   0  0  0  0  0  0  0  0  0  0  0  0
    6.9690    1.7840   -0.0740 C   0  0  2  0  0  0  0  0  0  0  0  0
    6.9350    2.7030   -1.1210 O   0  0  0  0  0  0  0  0  0  0  0  0
    7.6130    2.3280    1.0350 O   0  0  0  0  0  0  0  0  0  0  0  0
    5.6690    1.3880    0.2290 O   0  0  0  0  0  0  0  0  0  0  0  0
    5.8080    0.2170    0.9720 C   0  0  1  0  0  0  0  0  0  0  0  0
    4.6650   -0.5410    1.0180 O   0  0  0  0  0  0  0  0  0  0  0  0
    4.2750   -0.6750    2.2460 O   0  0  0  0  0  0  0  0  0  0  0  0
    2.8800   -1.6480    2.4590 P   0  0  0  0  0  0  0  0  0  0  0  0
    3.0090   -3.1520    1.6310 O   0  0  0  0  0  0  0  0  0  0  0  0
    1.3100   -0.7840    1.9840 C   0  0  0  0  0  0  0  0  0  0  0  0
    1.3840   -0.4170    0.5260 C   0  0  1  0  0  0  0  0  0  0  0  0
    1.5360   -1.6180   -0.2360 N   0  0  0  0  0  0  0  0  0  0  0  0
    0.9800   -2.6310    0.0440 O   0  0  0  0  0  0  0  0  0  0  0  0
    0.2170    0.3220    0.0240 C   0  0  0  0  0  0  0  0  0  0  0  0
   -0.1550    1.4320    0.5320 O   0  0  0  0  0  0  0  0  0  0  0  0
   -0.5210   -0.1790   -1.0370 O   0  0  0  0  0  0  0  0  0  0  0  0
   -1.6330    0.4930   -1.5530 C   0  0  0  0  0  0  0  0  0  0  0  0
   -2.6750    0.6640   -0.5370 C   0  0  0  0  0  0  0  0  0  0  0  0
   -3.0440    2.2280   -0.0190 P   0  0  0  0  0  0  0  0  0  0  0  0
   -4.2590    2.5260    1.1760 O   0  0  0  0  0  0  0  0  0  0  0  0
   -5.4260    2.3030    0.6560 O   0  0  0  0  0  0  0  0  0  0  0  0
   -6.0030    3.5210    0.3180 C   0  0  0  0  0  0  0  0  0  0  0  0
   -7.3790    3.3430   -0.3020 C   0  0  0  0  0  0  0  0  0  0  0  0
   -8.2320    2.7010    0.5920 O   0  0  0  0  0  0  0  0  0  0  0  0
   -3.4270   -0.4370    0.0670 C   0  0  1  0  0  0  0  0  0  0  0  0
   -4.1980   -1.2110   -0.8490 N   0  0  0  0  0  0  0  0  0  0  0  0
   -5.4850   -1.6130   -0.3460 C   0  0  0  0  0  0  0  0  0  0  0  0
   -3.5110   -2.2260   -1.4170 N   0  0  0  0  0  0  0  0  0  0  0  0
   -3.6480   -2.6300   -3.1880 P   0  0  0  0  0  0  0  0  0  0  0  0
   -4.3430   -3.9890   -3.5100 O   0  0  0  0  0  0  0  0  0  0  0  0
   -2.6720   -2.9810   -0.5640 C   0  0  0  0  0  0  0  0  0  0  0  0
   -2.2550   -4.1490   -0.6540 O   0  0  0  0  0  0  0  0  0  0  0  0
   -2.3150   -1.7630    0.7950 P   0  0  0  0  0  0  0  0  0  0  0  0
   -2.9230   -2.3320    2.3020 O   0  0  0  0  0  0  0  0  0  0  0  0
  1  2  1  0
  2  3  1  0
  2  8  1  0
  3  4  1  0
  4  5  1  6
  4  6  1  0
  4  7  1  0
  7  8  1  0
  8  9  1  6
  9 10  1  0
 10 11  1  0
 11 12  1  0
 11 13  1  0
 14 13  1  1
 14 15  1  0
 14 17  1  0
 15 16  2  0
 17 18  2  0
 17 19  1  0
 19 20  1  0
 20 21  1  0
 21 22  2  3
 28 21  1  6
 22 23  1  0
 23 24  1  0
 24 25  1  0
 25 26  1  0
 26 27  1  0
 28 29  1  0
 28 36  1  0
 29 30  1  0
 29 31  1  0
 31 32  1  0
 31 34  1  0
 32 33  2  0
 34 35  2  0
 34 36  1  0
 36 37  1  0
M  END
