
     RDKit          3D

 37 39  0  0  0  0  0  0  0  0999 V2000
    5.6820    2.8450    1.8800 O   0  0  0  0  0  0  0  0  0  0  0  0
    5.1780    2.8910    0.7280 C   0  0  0  0  0  0  0  0  0  0  0  0
    5.9230    2.2610   -0.3870 C   0  0  0  0  0  0  0  0  0  0  0  0
    6.4620    0.8900   -0.0500 C   0  0  0  0  0  0  0  0  0  0  0  0
    5.7170   -0.0790   -0.8110 N   0  0  0  0  0  0  0  0  0  0  0  0
    5.5300   -1.3250   -0.1200 C   0  0  0  0  0  0  0  0  0  0  0  0
    4.9320   -1.1490    1.2270 C   0  0  0  0  0  0  0  0  0  0  0  0
    5.4930   -1.8510    2.1450 O   0  0  0  0  0  0  0  0  0  0  0  0
    3.8860   -0.3270    1.5100 O   0  0  0  0  0  0  0  0  0  0  0  0
    2.5660   -0.3500    1.0830 C   0  0  2  0  0  0  0  0  0  0  0  0
    2.3150   -1.0620   -0.2040 C   0  0  0  0  0  0  0  0  0  0  0  0
    0.9430   -1.0770   -0.6220 N   0  0  0  0  0  0  0  0  0  0  0  0
   -0.0630   -1.6650    0.1660 C   0  0  0  0  0  0  0  0  0  0  0  0
    0.1620   -2.2140    1.2810 O   0  0  0  0  0  0  0  0  0  0  0  0
   -1.3930   -1.6750   -0.2460 O   0  0  0  0  0  0  0  0  0  0  0  0
   -2.4070   -2.2710    0.5560 C   0  0  0  0  0  0  0  0  0  0  0  0
   -3.7540   -2.1420   -0.1240 C   0  0  2  0  0  0  0  0  0  0  0  0
   -4.0480   -0.6420   -0.2040 C   0  0  1  0  0  0  0  0  0  0  0  0
   -5.4700   -0.5340   -0.7560 C   0  0  0  0  0  0  0  0  0  0  0  0
   -5.6650    0.6810   -1.4110 O   0  0  0  0  0  0  0  0  0  0  0  0
   -4.8220    1.8980   -0.5100 P   0  0  0  0  0  0  0  0  0  0  0  0
   -5.8900    3.2680   -0.3770 O   0  0  0  0  0  0  0  0  0  0  0  0
   -6.4270    3.2420    0.8450 O   0  0  0  0  0  0  0  0  0  0  0  0
   -6.4140    4.4340    1.3660 O   0  0  0  0  0  0  0  0  0  0  0  0
   -4.3740    1.2500    1.1690 C   0  0  0  0  0  0  0  0  0  0  0  0
   -4.0790   -0.1620    1.1580 N   0  0  0  0  0  0  0  0  0  0  0  0
   -4.7740   -2.7000    0.6030 O   0  0  0  0  0  0  0  0  0  0  0  0
   -4.9050   -4.3300   -0.0480 P   0  0  0  0  0  0  0  0  0  0  0  0
   -6.5780   -4.4890   -0.5600 O   0  0  0  0  0  0  0  0  0  0  0  0
   -3.9830   -4.0370   -1.5460 O   0  0  0  0  0  0  0  0  0  0  0  0
   -3.7340   -2.6730   -1.4830 C   0  0  0  0  0  0  0  0  0  0  0  0
   -3.5120   -1.9800   -2.5370 O   0  0  0  0  0  0  0  0  0  0  0  0
    1.9490    1.0390    1.1300 C   0  0  0  0  0  0  0  0  0  0  0  0
    2.2930    1.7370   -0.0920 N   0  0  0  0  0  0  0  0  0  0  0  0
    2.8230    3.0490   -0.1550 C   0  0  0  0  0  0  0  0  0  0  0  0
    2.2520    3.8550   -0.9620 O   0  0  0  0  0  0  0  0  0  0  0  0
    3.9200    3.5520    0.5870 N   0  0  0  0  0  0  0  0  0  0  0  0
  1  2  2  0
  2  3  1  0
  2 37  1  0
  3  4  1  0
  4  5  1  0
  5  6  1  0
  6  7  1  0
  7  8  2  0
  7  9  1  0
  9 10  1  0
 10 11  1  6
 10 33  1  0
 11 12  1  0
 12 13  1  0
 13 14  2  0
 13 15  1  0
 15 16  1  0
 17 16  1  1
 17 18  1  0
 17 27  1  0
 17 31  1  0
 18 19  1  1
 18 26  1  0
 19 20  1  0
 20 21  1  0
 21 22  1  0
 21 25  1  0
 22 23  1  0
 23 24  1  0
 25 26  1  0
 27 28  1  0
 28 29  1  0
 28 30  1  0
 30 31  1  0
 31 32  2  0
 33 34  1  0
 34 35  1  0
 35 36  2  0
 35 37  1  0
M  END
