
     RDKit          3D

 14 14  0  0  0  0  0  0  0  0999 V2000
    2.7940    1.8810   -0.3590 C   0  0  0  0  0  0  0  0  0  0  0  0
    3.3360    0.4620   -0.2110 O   0  0  0  0  0  0  0  0  0  0  0  0
    2.0110   -0.1900   -0.0330 C   0  0  1  0  0  0  0  0  0  0  0  0
    1.1720   -0.4390   -1.1650 C   0  0  0  0  0  0  0  0  0  0  0  0
   -0.0920   -0.8920   -0.6940 O   0  0  0  0  0  0  0  0  0  0  0  0
   -0.7410    0.2120   -0.2400 C   0  0  0  0  0  0  0  0  0  0  0  0
   -2.0930    0.0440    0.4300 C   0  0  0  0  0  0  0  0  0  0  0  0
   -3.1150   -0.5950   -0.4330 C   0  0  0  0  0  0  0  0  0  0  0  0
   -4.3710   -0.3220    0.1820 O   0  0  0  0  0  0  0  0  0  0  0  0
   -5.1320    0.4490   -0.6320 O   0  0  0  0  0  0  0  0  0  0  0  0
    2.5610   -1.5940    0.4730 C   0  0  0  0  0  0  0  0  0  0  0  0
    1.4220   -1.9240    1.2290 O   0  0  0  0  0  0  0  0  0  0  0  0
    1.1110   -0.7980    1.8600 O   0  0  0  0  0  0  0  0  0  0  0  0
    1.5520    0.2050    1.1710 O   0  0  0  0  0  0  0  0  0  0  0  0
  1  2  1  0
  2  3  1  0
  3  4  1  6
  3 11  1  0
  3 14  1  0
  4  5  1  0
  5  6  1  0
  6  7  1  0
  7  8  1  0
  8  9  1  0
  9 10  1  0
 11 12  1  0
 12 13  1  0
 13 14  1  0
M  END
