
     RDKit          3D

 15 15  0  0  0  0  0  0  0  0999 V2000
    5.8750    1.3910    0.5630 O   0  0  0  0  0  0  0  0  0  0  0  0
    4.5740    1.5470    0.4520 O   0  0  0  0  0  0  0  0  0  0  0  0
    4.0960    0.6090   -0.3310 O   0  0  0  0  0  0  0  0  0  0  0  0
    3.2320   -0.1070    0.3700 O   0  0  0  0  0  0  0  0  0  0  0  0
    2.2380   -0.5290   -0.5080 C   0  0  0  0  0  0  0  0  0  0  0  0
    1.2340   -1.3510    0.2660 C   0  0  0  0  0  0  0  0  0  0  0  0
    0.2040   -1.8350   -0.4390 O   0  0  0  0  0  0  0  0  0  0  0  0
   -0.6720   -1.0810   -1.1040 C   0  0  0  0  0  0  0  0  0  0  0  0
   -1.5540   -0.1190   -0.4240 C   0  0  1  0  0  0  0  0  0  0  0  0
   -2.3750    0.4540   -1.4580 O   0  0  0  0  0  0  0  0  0  0  0  0
   -2.5520   -0.7050    0.5470 C   0  0  0  0  0  0  0  0  0  0  0  0
   -3.5240    0.4520    0.8370 C   0  0  0  0  0  0  0  0  0  0  0  0
   -2.7930    1.5120    1.3650 O   0  0  0  0  0  0  0  0  0  0  0  0
   -2.0270    1.9970    0.3820 O   0  0  0  0  0  0  0  0  0  0  0  0
   -0.9390    1.0660    0.2410 C   0  0  0  0  0  0  0  0  0  0  0  0
  1  2  1  0
  2  3  1  0
  3  4  1  0
  4  5  1  0
  5  6  1  0
  6  7  1  0
  7  8  1  0
  8  9  1  0
  9 10  1  6
  9 11  1  0
  9 15  1  0
 11 12  1  0
 12 13  1  0
 13 14  1  0
 14 15  1  0
M  END
