
     RDKit          3D

 15 15  0  0  0  0  0  0  0  0999 V2000
    5.3380    2.0980   -0.0150 O   0  0  0  0  0  0  0  0  0  0  0  0
    4.0520    2.0260    0.2820 O   0  0  0  0  0  0  0  0  0  0  0  0
    3.4500    1.0470   -0.0720 O   0  0  0  0  0  0  0  0  0  0  0  0
    3.7100   -0.1330   -0.4100 O   0  0  0  0  0  0  0  0  0  0  0  0
    3.2630   -0.9840    0.6450 C   0  0  0  0  0  0  0  0  0  0  0  0
    2.0340   -1.6400   -0.1080 C   0  0  0  0  0  0  0  0  0  0  0  0
    1.2890   -0.5390   -0.3820 O   0  0  0  0  0  0  0  0  0  0  0  0
    0.0710   -0.4500   -0.8730 C   0  0  0  0  0  0  0  0  0  0  0  0
   -1.0520   -0.4530    0.1320 C   0  0  0  0  0  0  0  0  0  0  0  0
   -2.4070   -0.1510   -0.4780 C   0  0  2  0  0  0  0  0  0  0  0  0
   -2.4370    1.2440   -0.9880 C   0  0  0  0  0  0  0  0  0  0  0  0
   -3.1890    2.0910   -0.1520 O   0  0  0  0  0  0  0  0  0  0  0  0
   -3.9940    1.4520    0.6110 O   0  0  0  0  0  0  0  0  0  0  0  0
   -4.5400    0.2740    0.1710 C   0  0  0  0  0  0  0  0  0  0  0  0
   -3.4440   -0.6380    0.2210 O   0  0  0  0  0  0  0  0  0  0  0  0
  1  2  1  0
  2  3  1  0
  3  4  1  0
  4  5  1  0
  5  6  1  0
  6  7  1  0
  7  8  1  0
  8  9  1  0
 10  9  1  1
 10 11  1  0
 10 15  1  0
 11 12  1  0
 12 13  1  0
 13 14  1  0
 14 15  1  0
M  END
