
     RDKit          3D

 14 13  0  0  0  0  0  0  0  0999 V2000
   -3.2320   -0.8150   -0.7630 C   0  0  0  0  0  0  0  0  0  0  0  0
   -2.7300    0.0810    0.3190 C   0  0  2  0  0  0  0  0  0  0  0  0
   -2.6580    1.5240    0.0320 C   0  0  0  0  0  0  0  0  0  0  0  0
   -1.8920    1.9650   -0.9990 O   0  0  0  0  0  0  0  0  0  0  0  0
   -1.6220   -0.5020    1.1480 C   0  0  0  0  0  0  0  0  0  0  0  0
   -0.4910   -0.9090    0.5810 O   0  0  0  0  0  0  0  0  0  0  0  0
    0.3170   -0.1310   -0.1520 C   0  0  0  0  0  0  0  0  0  0  0  0
    1.5790   -0.8540   -0.5660 C   0  0  0  0  0  0  0  0  0  0  0  0
    1.7410   -2.0430   -0.2060 O   0  0  0  0  0  0  0  0  0  0  0  0
    2.5600   -0.2580   -1.3240 O   0  0  0  0  0  0  0  0  0  0  0  0
    3.6820   -0.8830   -1.6980 O   0  0  0  0  0  0  0  0  0  0  0  0
    4.6080   -0.9230   -0.6450 C   0  0  0  0  0  0  0  0  0  0  0  0
    4.9630    0.3530   -0.2170 O   0  0  0  0  0  0  0  0  0  0  0  0
    3.8880    0.9580    0.1890 O   0  0  0  0  0  0  0  0  0  0  0  0
  2  1  1  6
  2  3  1  0
  2  5  1  0
  3  4  1  0
  5  6  1  0
  6  7  1  0
  7  8  1  0
  8  9  2  0
  8 10  1  0
 10 11  1  0
 11 12  1  0
 12 13  1  0
 13 14  1  0
M  END
