
     RDKit          3D

 14 14  0  0  0  0  0  0  0  0999 V2000
    5.4480    0.4320    0.0010 O   0  0  0  0  0  0  0  0  0  0  0  0
    4.2370    0.3800    0.5190 O   0  0  0  0  0  0  0  0  0  0  0  0
    3.4250   -0.4990   -0.2550 C   0  0  0  0  0  0  0  0  0  0  0  0
    2.4440    0.5280   -0.8720 C   0  0  0  0  0  0  0  0  0  0  0  0
    1.6080    1.2170    0.1290 C   0  0  0  0  0  0  0  0  0  0  0  0
    0.4020    0.6310    0.3460 O   0  0  0  0  0  0  0  0  0  0  0  0
    0.3190   -0.7280    0.4350 C   0  0  0  0  0  0  0  0  0  0  0  0
   -1.1890   -1.0330    0.5280 C   0  0  0  0  0  0  0  0  0  0  0  0
   -1.7410   -0.3810   -0.5770 O   0  0  0  0  0  0  0  0  0  0  0  0
   -3.1170   -0.4700   -0.5120 C   0  0  1  0  0  0  0  0  0  0  0  0
   -3.4760    0.6260    0.4550 O   0  0  0  0  0  0  0  0  0  0  0  0
   -4.8540    0.4950    0.3190 C   0  0  0  0  0  0  0  0  0  0  0  0
   -4.9580    0.5210   -1.0720 O   0  0  0  0  0  0  0  0  0  0  0  0
   -3.8400   -0.0160   -1.5400 O   0  0  0  0  0  0  0  0  0  0  0  0
  1  2  1  0
  2  3  1  0
  3  4  1  0
  4  5  1  0
  5  6  1  0
  6  7  1  0
  7  8  1  0
  8  9  1  0
 10  9  1  6
 10 11  1  0
 10 14  1  0
 11 12  1  0
 12 13  1  0
 13 14  1  0
M  END
