
     RDKit          3D

 15 15  0  0  0  0  0  0  0  0999 V2000
    4.8800    1.5430   -0.3080 O   0  0  0  0  0  0  0  0  0  0  0  0
    5.1110    0.7170   -1.3250 O   0  0  0  0  0  0  0  0  0  0  0  0
    4.7560   -0.5070   -0.9750 O   0  0  0  0  0  0  0  0  0  0  0  0
    3.8870   -0.4590    0.0120 O   0  0  0  0  0  0  0  0  0  0  0  0
    2.6690   -0.8960   -0.4920 C   0  0  0  0  0  0  0  0  0  0  0  0
    1.5850   -0.8820    0.5700 C   0  0  0  0  0  0  0  0  0  0  0  0
    0.3190   -1.3770   -0.1090 C   0  0  0  0  0  0  0  0  0  0  0  0
   -0.8470   -1.4180    0.8210 C   0  0  0  0  0  0  0  0  0  0  0  0
   -1.1300   -0.1990    1.3420 O   0  0  0  0  0  0  0  0  0  0  0  0
   -1.4280    0.7520    0.4070 C   0  0  0  0  0  0  0  0  0  0  0  0
   -2.6350    0.3500   -0.4310 C   0  0  1  0  0  0  0  0  0  0  0  0
   -3.6940    0.1820    0.4590 O   0  0  0  0  0  0  0  0  0  0  0  0
   -4.2490    1.4590    0.4870 C   0  0  0  0  0  0  0  0  0  0  0  0
   -4.2350    1.7700   -0.8860 O   0  0  0  0  0  0  0  0  0  0  0  0
   -3.0290    1.4350   -1.2460 O   0  0  0  0  0  0  0  0  0  0  0  0
  1  2  1  0
  2  3  1  0
  3  4  1  0
  4  5  1  0
  5  6  1  0
  6  7  1  0
  7  8  1  0
  8  9  1  0
  9 10  1  0
 11 10  1  1
 11 12  1  0
 11 15  1  0
 12 13  1  0
 13 14  1  0
 14 15  1  0
M  END
