
     RDKit          3D

 18 18  0  0  0  0  0  0  0  0999 V2000
   -7.7440   -0.1240    0.0770 C   0  0  0  0  0  0  0  0  0  0  0  0
   -6.5580    0.7070   -0.2590 C   0  0  0  0  0  0  0  0  0  0  0  0
   -5.3330    0.2690    0.0190 C   0  0  0  0  0  0  0  0  0  0  0  0
   -4.2230    1.1370   -0.3390 C   0  0  0  0  0  0  0  0  0  0  0  0
   -2.9970    0.7310   -0.0770 C   0  0  0  0  0  0  0  0  0  0  0  0
   -2.5320   -0.4200    0.5020 O   0  0  0  0  0  0  0  0  0  0  0  0
   -1.2090   -0.5840    0.6540 C   0  0  0  0  0  0  0  0  0  0  0  0
   -0.4130    0.3610    0.2440 C   0  0  0  0  0  0  0  0  0  0  0  0
    1.0190    0.4160    0.2980 C   0  0  0  0  0  0  0  0  0  0  0  0
    1.5970    1.4610   -0.1750 O   0  0  0  0  0  0  0  0  0  0  0  0
    1.8360   -0.6110    0.8400 N   0  0  0  0  0  0  0  0  0  0  0  0
    3.2110   -0.4360    0.8320 N   0  0  0  0  0  0  0  0  0  0  0  0
    3.9490   -0.7190   -0.3450 C   0  0  0  0  0  0  0  0  0  0  0  0
    3.2830   -1.1310   -1.3500 O   0  0  0  0  0  0  0  0  0  0  0  0
    5.4040   -0.5760   -0.4990 C   0  0  0  0  0  0  0  0  0  0  0  0
    6.0270   -0.1140    0.6420 O   0  0  0  0  0  0  0  0  0  0  0  0
    7.3910    0.0230    0.4920 C   0  0  0  0  0  0  0  0  0  0  0  0
   -1.4600    1.6290   -0.4220 S   0  0  0  0  0  0  0  0  0  0  0  0
  1  2  1  0
  2  3  2  3
  3  4  1  0
  4  5  2  3
  5  6  1  0
  5 18  1  0
  6  7  1  0
  7  8  2  0
  8  9  1  0
  8 18  1  0
  9 10  2  0
  9 11  1  0
 11 12  1  0
 12 13  1  0
 13 14  2  0
 13 15  1  0
 15 16  1  0
 16 17  1  0
M  END
