
     RDKit          3D

 24 27  0  0  0  0  0  0  0  0999 V2000
    0.8210    3.1790   -2.4580 Cl  0  0  0  0  0  0  0  0  0  0  0  0
   -0.7940    2.9620   -1.7640 C   0  0  0  0  0  0  0  0  0  0  0  0
   -1.4990    1.7360   -2.1030 C   0  0  0  0  0  0  0  0  0  0  0  0
   -1.2330    0.3790   -1.7800 C   0  0  0  0  0  0  0  0  0  0  0  0
   -1.1580   -0.3040   -0.5010 C   0  0  2  0  0  0  0  0  0  0  0  0
   -0.1290    0.1480    0.4470 C   0  0  0  0  0  0  0  0  0  0  0  0
    1.2390   -0.0050    0.2550 N   0  0  0  0  0  0  0  0  0  0  0  0
    2.0300    0.5930   -0.6870 C   0  0  0  0  0  0  0  0  0  0  0  0
    3.4400   -0.0790   -0.6690 C   0  0  0  0  0  0  0  0  0  0  0  0
    4.0520    0.5130    0.5420 C   0  0  0  0  0  0  0  0  0  0  0  0
    5.2180    1.0710    0.8670 N   0  0  0  0  0  0  0  0  0  0  0  0
    5.1270    1.4270    2.1570 C   0  0  0  0  0  0  0  0  0  0  0  0
    3.9250    1.0980    2.6300 N   0  0  0  0  0  0  0  0  0  0  0  0
    3.2360    0.5230    1.6340 C   0  0  0  0  0  0  0  0  0  0  0  0
    1.9090   -0.0340    1.5720 C   0  0  0  0  0  0  0  0  0  0  0  0
   -0.7470   -1.8160   -0.8880 C   0  0  0  0  0  0  0  0  0  0  0  0
   -0.4960   -2.6320    0.2900 C   0  0  0  0  0  0  0  0  0  0  0  0
   -1.3550   -2.4960    1.4010 N   0  0  0  0  0  0  0  0  0  0  0  0
   -2.4680   -1.6850    1.0280 C   0  0  0  0  0  0  0  0  0  0  0  0
   -3.6780   -1.9660    1.6090 N   0  0  0  0  0  0  0  0  0  0  0  0
   -4.8000   -1.2910    1.3500 C   0  0  0  0  0  0  0  0  0  0  0  0
   -4.7820   -0.2430    0.4540 C   0  0  0  0  0  0  0  0  0  0  0  0
   -3.5920    0.0880   -0.1620 C   0  0  0  0  0  0  0  0  0  0  0  0
   -2.4630   -0.6350    0.1340 C   0  0  0  0  0  0  0  0  0  0  0  0
  1  2  1  0
  2  3  1  0
  3  4  1  0
  5  4  1  6
  5  6  1  0
  5 16  1  0
  5 24  1  0
  6  7  1  0
  7  8  1  0
  7 15  1  0
  8  9  1  0
  9 10  1  0
 10 11  1  0
 10 14  2  0
 11 12  1  0
 12 13  2  0
 13 14  1  0
 14 15  1  0
 16 17  1  0
 17 18  1  0
 18 19  1  0
 19 20  2  0
 19 24  1  0
 20 21  1  0
 21 22  2  0
 22 23  1  0
 23 24  2  0
M  CHG  1  18   1
M  END
