
     RDKit          3D

 25 26  0  0  0  0  0  0  0  0999 V2000
    7.8290   -1.4980   -2.2150 C   0  0  0  0  0  0  0  0  0  0  0  0
    6.7500   -0.8670   -1.5830 O   0  0  0  0  0  0  0  0  0  0  0  0
    6.8750   -0.1260   -0.4100 C   0  0  0  0  0  0  0  0  0  0  0  0
    8.0320   -0.0430    0.0750 O   0  0  0  0  0  0  0  0  0  0  0  0
    5.7330    0.5160    0.2200 C   0  0  0  0  0  0  0  0  0  0  0  0
    4.5250    0.4320   -0.2810 C   0  0  0  0  0  0  0  0  0  0  0  0
    4.3240   -0.2830   -1.4380 O   0  0  0  0  0  0  0  0  0  0  0  0
    3.3630    1.0780    0.3490 C   0  0  0  0  0  0  0  0  0  0  0  0
    2.1610    0.9820   -0.1690 C   0  0  0  0  0  0  0  0  0  0  0  0
    0.9960    1.6010    0.4190 C   0  0  1  0  0  0  0  0  0  0  0  0
   -0.1340    0.6890    0.5530 N   0  0  0  0  0  0  0  0  0  0  0  0
   -1.3540    0.8230   -0.1500 C   0  0  0  0  0  0  0  0  0  0  0  0
   -1.4900    1.7800   -0.9440 O   0  0  0  0  0  0  0  0  0  0  0  0
   -2.4170   -0.0750    0.0070 N   0  0  0  0  0  0  0  0  0  0  0  0
   -3.6820    0.0050   -0.6780 C   0  0  1  0  0  0  0  0  0  0  0  0
   -4.0120   -1.1810   -1.5140 C   0  0  0  0  0  0  0  0  0  0  0  0
   -4.9340   -2.1720   -0.8550 C   0  0  0  0  0  0  0  0  0  0  0  0
   -5.9290   -1.5990   -0.1030 O   0  0  0  0  0  0  0  0  0  0  0  0
   -5.3340   -0.9190    0.9590 C   0  0  2  0  0  0  0  0  0  0  0  0
   -6.3560   -0.4710    1.9810 C   0  0  0  0  0  0  0  0  0  0  0  0
   -4.7370    0.3370    0.3530 C   0  0  0  0  0  0  0  0  0  0  0  0
    1.2560    2.3260    1.6090 N   0  0  0  0  0  0  0  0  0  0  0  0
    2.5540    2.4240    2.1600 C   0  0  0  0  0  0  0  0  0  0  0  0
    2.7650    3.0850    3.2360 O   0  0  0  0  0  0  0  0  0  0  0  0
    3.5990    1.7920    1.5160 O   0  0  0  0  0  0  0  0  0  0  0  0
  1  2  1  0
  2  3  1  0
  3  4  2  0
  3  5  1  0
  5  6  2  3
  6  7  1  0
  6  8  1  0
  8  9  2  0
  8 25  1  0
  9 10  1  0
 10 11  1  1
 10 22  1  0
 11 12  1  0
 12 13  2  0
 12 14  1  0
 15 14  1  1
 15 16  1  0
 15 21  1  0
 16 17  1  0
 17 18  1  0
 18 19  1  0
 19 20  1  1
 19 21  1  0
 22 23  1  0
 23 24  2  0
 23 25  1  0
M  END
