
     RDKit          3D

 25 26  0  0  0  0  0  0  0  0999 V2000
   -3.3860   -0.0460   -3.3210 C   0  0  0  0  0  0  0  0  0  0  0  0
   -2.7810   -0.3910   -2.0300 C   0  0  0  0  0  0  0  0  0  0  0  0
   -2.8890    0.3580   -0.9390 C   0  0  0  0  0  0  0  0  0  0  0  0
   -3.6520    1.5930   -1.0260 C   0  0  0  0  0  0  0  0  0  0  0  0
   -3.8650    2.4350   -0.0950 N   0  0  0  0  0  0  0  0  0  0  0  0
   -4.2560    1.9670   -2.2590 O   0  0  0  0  0  0  0  0  0  0  0  0
   -2.2680   -0.0410    0.3050 C   0  0  0  0  0  0  0  0  0  0  0  0
   -2.3940    0.7030    1.3300 O   0  0  0  0  0  0  0  0  0  0  0  0
   -1.5030   -1.2140    0.5170 N   0  0  0  0  0  0  0  0  0  0  0  0
   -0.9180   -1.5110    1.8380 C   0  0  1  0  0  0  0  0  0  0  0  0
   -1.4720   -2.8630    2.2370 C   0  0  0  0  0  0  0  0  0  0  0  0
   -0.5830   -3.8150    1.6300 O   0  0  0  0  0  0  0  0  0  0  0  0
    0.6090   -3.1970    1.3250 C   0  0  0  0  0  0  0  0  0  0  0  0
    1.5920   -3.7480    0.7890 O   0  0  0  0  0  0  0  0  0  0  0  0
    0.5490   -1.7780    1.7310 C   0  0  1  0  0  0  0  0  0  0  0  0
    1.2380   -0.9050    0.8330 N   0  0  0  0  0  0  0  0  0  0  0  0
    2.2990   -0.1000    1.2480 C   0  0  0  0  0  0  0  0  0  0  0  0
    2.6120   -0.1980    2.4900 O   0  0  0  0  0  0  0  0  0  0  0  0
    3.0680    0.8240    0.4150 C   0  0  0  0  0  0  0  0  0  0  0  0
    2.8040    0.9760   -0.8640 C   0  0  0  0  0  0  0  0  0  0  0  0
    3.5380    1.8880   -1.7590 C   0  0  0  0  0  0  0  0  0  0  0  0
    4.5510    2.5710   -1.0770 O   0  0  0  0  0  0  0  0  0  0  0  0
    4.8410    2.4230    0.2590 C   0  0  0  0  0  0  0  0  0  0  0  0
    4.1600    1.6000    1.0150 C   0  0  0  0  0  0  0  0  0  0  0  0
    4.4350    1.4350    2.3710 O   0  0  0  0  0  0  0  0  0  0  0  0
  1  2  1  0
  2  3  2  3
  3  4  1  0
  3  7  1  0
  4  5  2  0
  4  6  1  0
  7  8  2  0
  7  9  1  0
 10  9  1  6
 10 11  1  0
 10 15  1  0
 11 12  1  0
 12 13  1  0
 13 14  2  0
 13 15  1  0
 15 16  1  6
 16 17  1  0
 17 18  2  0
 17 19  1  0
 19 20  2  0
 19 24  1  0
 20 21  1  0
 21 22  1  0
 22 23  1  0
 23 24  2  0
 24 25  1  0
M  END
