
     RDKit          3D

 25 26  0  0  0  0  0  0  0  0999 V2000
   -2.6610    3.3530   -2.5360 C   0  0  0  0  0  0  0  0  0  0  0  0
   -2.4150    2.0720   -2.0210 O   0  0  0  0  0  0  0  0  0  0  0  0
   -1.5050    1.8580   -1.0160 C   0  0  0  0  0  0  0  0  0  0  0  0
   -0.9100    2.8990   -0.5930 O   0  0  0  0  0  0  0  0  0  0  0  0
   -1.1990    0.5360   -0.4320 C   0  0  1  0  0  0  0  0  0  0  0  0
   -0.1730    0.7400    0.5870 N   0  0  0  0  0  0  0  0  0  0  0  0
    1.0910    0.1230    0.3960 C   0  0  0  0  0  0  0  0  0  0  0  0
    1.2980   -0.5770   -0.6290 O   0  0  0  0  0  0  0  0  0  0  0  0
    2.1580    0.2580    1.3260 N   0  0  0  0  0  0  0  0  0  0  0  0
    3.4190   -0.3310    1.1170 C   0  0  0  0  0  0  0  0  0  0  0  0
    3.7820   -1.3430    1.8970 C   0  0  0  0  0  0  0  0  0  0  0  0
    5.0760   -2.0270    1.7610 C   0  0  0  0  0  0  0  0  0  0  0  0
    5.8540   -1.4850    0.7310 O   0  0  0  0  0  0  0  0  0  0  0  0
    5.4940   -0.4420   -0.0710 C   0  0  0  0  0  0  0  0  0  0  0  0
    4.2990    0.1560    0.0880 C   0  0  0  0  0  0  0  0  0  0  0  0
    3.9930    1.2690   -0.7570 C   0  0  0  0  0  0  0  0  0  0  0  0
    2.9220    1.8930   -0.6670 O   0  0  0  0  0  0  0  0  0  0  0  0
    4.8990    1.6860   -1.7140 O   0  0  0  0  0  0  0  0  0  0  0  0
   -2.4240   -0.0930    0.1220 C   0  0  2  0  0  0  0  0  0  0  0  0
   -2.1620   -1.4380    0.7720 C   0  0  0  0  0  0  0  0  0  0  0  0
   -3.3430   -2.3260    0.8470 C   0  0  0  0  0  0  0  0  0  0  0  0
   -4.6810   -1.6700    0.6100 C   0  0  0  0  0  0  0  0  0  0  0  0
   -4.6650   -0.8200   -0.6100 C   0  0  0  0  0  0  0  0  0  0  0  0
   -5.6820   -0.6140   -1.2640 O   0  0  0  0  0  0  0  0  0  0  0  0
   -3.3960   -0.2690   -0.9590 N   0  0  0  0  0  0  0  0  0  0  0  0
  1  2  1  0
  2  3  1  0
  3  4  2  0
  3  5  1  0
  5  6  1  1
  5 19  1  0
  6  7  1  0
  7  8  2  0
  7  9  1  0
  9 10  1  0
 10 11  2  0
 10 15  1  0
 11 12  1  0
 12 13  1  0
 13 14  1  0
 14 15  2  0
 15 16  1  0
 16 17  2  0
 16 18  1  0
 19 20  1  6
 19 25  1  0
 20 21  1  0
 21 22  1  0
 22 23  1  0
 23 24  2  0
 23 25  1  0
M  END
