
     RDKit          3D

 13 14  0  0  0  0  0  0  0  0999 V2000
    2.6710    1.6930    1.2730 O   0  0  0  0  0  0  0  0  0  0  0  0
    2.0780    1.1090    0.1580 C   0  0  1  0  0  0  0  0  0  0  0  0
    3.0040    0.1170   -0.5190 C   0  0  0  0  0  0  0  0  0  0  0  0
    2.7210   -1.1260   -0.0290 O   0  0  0  0  0  0  0  0  0  0  0  0
    1.8620   -1.0190    1.0330 C   0  0  0  0  0  0  0  0  0  0  0  0
    0.9620    0.1470    0.5960 C   0  0  2  0  0  0  0  0  0  0  0  0
    0.1700   -0.2330   -0.5190 N   0  0  0  0  0  0  0  0  0  0  0  0
   -1.1830    0.1510   -0.5160 C   0  0  1  0  0  0  0  0  0  0  0  0
   -2.0080   -0.9450   -1.2030 C   0  0  0  0  0  0  0  0  0  0  0  0
   -2.7360   -1.5560   -0.1740 O   0  0  0  0  0  0  0  0  0  0  0  0
   -3.1970   -0.4250    0.5310 C   0  0  0  0  0  0  0  0  0  0  0  0
   -1.8580    0.2810    0.7920 C   0  0  2  0  0  0  0  0  0  0  0  0
   -2.1790    1.6180    1.0370 O   0  0  0  0  0  0  0  0  0  0  0  0
  2  1  1  1
  2  3  1  0
  2  6  1  0
  3  4  1  0
  4  5  1  0
  5  6  1  0
  6  7  1  6
  8  7  1  1
  8  9  1  0
  8 12  1  0
  9 10  1  0
 10 11  1  0
 11 12  1  0
 12 13  1  6
M  CHG  1   7   1
M  END
