
     RDKit          3D

 12 13  0  0  0  0  0  0  0  0999 V2000
    3.6260    0.4540    0.9670 N   0  0  0  0  0  0  0  0  0  0  0  0
    2.6150   -0.2470    0.2110 C   0  0  0  0  0  0  0  0  0  0  0  0
    1.2180    0.1540    0.5990 C   0  0  1  0  0  0  0  0  0  0  0  0
    0.9500    1.4840    0.4160 O   0  0  0  0  0  0  0  0  0  0  0  0
   -0.2040    1.6250   -0.3110 C   0  0  0  0  0  0  0  0  0  0  0  0
   -0.9400    0.2890   -0.2320 C   0  0  1  0  0  0  0  0  0  0  0  0
   -1.6820    0.2530    1.0620 C   0  0  0  0  0  0  0  0  0  0  0  0
   -3.0870   -0.1570    0.6050 C   0  0  0  0  0  0  0  0  0  0  0  0
   -2.7560   -0.8200   -0.7300 C   0  0  0  0  0  0  0  0  0  0  0  0
   -1.8230    0.1040   -1.2540 O   0  0  0  0  0  0  0  0  0  0  0  0
    0.2520   -0.6360   -0.2640 C   0  0  2  0  0  0  0  0  0  0  0  0
    0.0020   -1.8940    0.1930 O   0  0  0  0  0  0  0  0  0  0  0  0
  1  2  1  0
  3  2  1  6
  3  4  1  0
  3 11  1  0
  4  5  1  0
  6  5  1  6
  6  7  1  0
  6 10  1  0
  6 11  1  0
  7  8  1  0
  8  9  1  0
  9 10  1  0
 11 12  1  1
M  CHG  1   1   1
M  END
