
     RDKit          3D

 13 14  0  0  0  0  0  0  0  0999 V2000
   -1.6020    1.8700   -0.4540 O   0  0  0  0  0  0  0  0  0  0  0  0
   -2.2320    0.6550   -0.4370 C   0  0  2  0  0  0  0  0  0  0  0  0
   -3.1390    0.4610   -1.4630 O   0  0  0  0  0  0  0  0  0  0  0  0
   -2.8780    0.3490    0.9210 C   0  0  0  0  0  0  0  0  0  0  0  0
   -3.1100   -1.0020    0.8140 O   0  0  0  0  0  0  0  0  0  0  0  0
   -2.0530   -1.5910    0.1700 C   0  0  0  0  0  0  0  0  0  0  0  0
   -1.2290   -0.5090   -0.4760 C   0  0  2  0  0  0  0  0  0  0  0  0
   -0.1280   -0.1500    0.3140 O   0  0  0  0  0  0  0  0  0  0  0  0
    1.0220   -0.1810   -0.4430 C   0  0  1  0  0  0  0  0  0  0  0  0
    1.7560    1.1440   -0.4510 C   0  0  0  0  0  0  0  0  0  0  0  0
    3.1480    0.8560    0.0210 C   0  0  0  0  0  0  0  0  0  0  0  0
    2.9580   -0.3130    0.8650 N   0  0  0  0  0  0  0  0  0  0  0  0
    2.0710   -1.1210    0.0730 C   0  0  0  0  0  0  0  0  0  0  0  0
  2  1  1  1
  2  3  1  0
  2  4  1  0
  2  7  1  0
  4  5  1  0
  5  6  1  0
  6  7  1  0
  7  8  1  1
  9  8  1  1
  9 10  1  0
  9 13  1  0
 10 11  1  0
 11 12  1  0
 12 13  1  0
M  CHG  1  12   1
M  END
