
     RDKit          3D

 12 12  0  0  0  0  0  0  0  0999 V2000
    3.2530    0.1800   -0.0830 C   0  0  0  0  0  0  0  0  0  0  0  0
    2.4550   -0.0350   -1.1690 O   0  0  0  0  0  0  0  0  0  0  0  0
    1.1920    0.4540   -1.1450 C   0  0  0  0  0  0  0  0  0  0  0  0
    0.3220   -0.0660   -0.0450 C   0  0  2  0  0  0  0  0  0  0  0  0
    0.7520    0.2000    1.2330 O   0  0  0  0  0  0  0  0  0  0  0  0
    0.2280   -1.5890   -0.2020 C   0  0  0  0  0  0  0  0  0  0  0  0
   -1.1680   -1.9370   -0.1550 N   0  0  0  0  0  0  0  0  0  0  0  0
   -1.8220   -0.8030    0.4750 C   0  0  0  0  0  0  0  0  0  0  0  0
   -1.1160    0.3320   -0.2600 C   0  0  2  0  0  0  0  0  0  0  0  0
   -1.4130    0.2990   -1.5990 O   0  0  0  0  0  0  0  0  0  0  0  0
   -1.4680    1.6360    0.3960 C   0  0  0  0  0  0  0  0  0  0  0  0
   -0.7730    2.6760   -0.1990 O   0  0  0  0  0  0  0  0  0  0  0  0
  1  2  1  0
  2  3  1  0
  3  4  1  0
  4  5  1  1
  4  6  1  0
  4  9  1  0
  6  7  1  0
  7  8  1  0
  8  9  1  0
  9 10  1  6
  9 11  1  0
 11 12  1  0
M  CHG  1   7   1
M  END
