
     RDKit          3D

 22 22  0  0  0  0  0  0  0  0999 V2000
   -6.7750    0.4040   -1.1730 C   0  0  0  0  0  0  0  0  0  0  0  0
   -5.4610    0.9750   -0.8420 C   0  0  0  0  0  0  0  0  0  0  0  0
   -4.8560    0.7050    0.3230 C   0  0  0  0  0  0  0  0  0  0  0  0
   -5.5400   -0.1870    1.2780 C   0  0  0  0  0  0  0  0  0  0  0  0
   -4.8450   -1.3220    1.5920 O   0  0  0  0  0  0  0  0  0  0  0  0
   -3.6120    1.2710    0.6460 N   0  0  0  0  0  0  0  0  0  0  0  0
   -2.4220    0.5360    0.8740 C   0  0  0  0  0  0  0  0  0  0  0  0
   -2.4780   -0.7110    0.7750 O   0  0  0  0  0  0  0  0  0  0  0  0
   -1.2140    1.2000    1.2020 N   0  0  0  0  0  0  0  0  0  0  0  0
   -0.0160    0.4780    1.4240 C   0  0  0  0  0  0  0  0  0  0  0  0
    0.4850   -0.3330    0.2410 C   0  0  1  0  0  0  0  0  0  0  0  0
    0.7110    0.6720   -0.8400 C   0  0  0  0  0  0  0  0  0  0  0  0
    0.7100    0.0870   -2.2280 C   0  0  0  0  0  0  0  0  0  0  0  0
    1.2180   -1.3330   -2.1670 C   0  0  0  0  0  0  0  0  0  0  0  0
    2.6290   -1.2500   -1.6470 C   0  0  0  0  0  0  0  0  0  0  0  0
    2.7480   -1.4580   -0.1710 C   0  0  1  0  0  0  0  0  0  0  0  0
    4.0510   -0.8670    0.3850 C   0  0  2  0  0  0  0  0  0  0  0  0
    4.0060   -1.1480    1.7700 O   0  0  0  0  0  0  0  0  0  0  0  0
    4.1990    0.5750    0.2070 C   0  0  0  0  0  0  0  0  0  0  0  0
    5.5340    0.9900    0.8080 C   0  0  0  0  0  0  0  0  0  0  0  0
    6.5220    0.2840    0.1140 O   0  0  0  0  0  0  0  0  0  0  0  0
    1.5800   -1.1950    0.6700 C   0  0  0  0  0  0  0  0  0  0  0  0
  1  2  1  0
  2  3  2  3
  3  4  1  0
  3  6  1  0
  4  5  1  0
  6  7  1  0
  7  8  2  0
  7  9  1  0
  9 10  1  0
 11 10  1  1
 11 12  1  0
 11 22  1  0
 12 13  1  0
 13 14  1  0
 14 15  1  0
 16 15  1  6
 16 17  1  0
 16 22  1  0
 17 18  1  1
 17 19  1  0
 19 20  1  0
 20 21  1  0
M  END
