
     RDKit          3D

 11 11  0  0  0  0  0  0  0  0999 V2000
   -0.2180    1.7220    0.8660 C   0  0  0  0  0  0  0  0  0  0  0  0
   -0.1790    0.7900   -0.3000 C   0  0  1  0  0  0  0  0  0  0  0  0
   -1.1880    1.2480   -1.3570 C   0  0  0  0  0  0  0  0  0  0  0  0
    1.1630    0.7960   -0.8390 N   0  0  0  0  0  0  0  0  0  0  0  0
    1.8220   -0.3950   -0.4050 C   0  0  1  0  0  0  0  0  0  0  0  0
    3.0570   -0.1610    0.1910 O   0  0  0  0  0  0  0  0  0  0  0  0
    0.8880   -1.1040    0.5580 C   0  0  0  0  0  0  0  0  0  0  0  0
   -0.4480   -0.6310    0.0140 C   0  0  2  0  0  0  0  0  0  0  0  0
   -0.6700   -1.3170   -1.1780 O   0  0  0  0  0  0  0  0  0  0  0  0
   -1.5740   -0.8730    0.9690 C   0  0  0  0  0  0  0  0  0  0  0  0
   -1.6490   -2.2470    1.2250 O   0  0  0  0  0  0  0  0  0  0  0  0
  2  1  1  1
  2  3  1  0
  2  4  1  0
  2  8  1  0
  4  5  1  0
  5  6  1  1
  5  7  1  0
  7  8  1  0
  8  9  1  6
  8 10  1  0
 10 11  1  0
M  CHG  1   4   1
M  END
