
     RDKit          3D

 22 22  0  0  0  0  0  0  0  0999 V2000
    6.1370   -1.8710    0.2240 C   0  0  0  0  0  0  0  0  0  0  0  0
    4.7030   -1.6260   -0.0390 C   0  0  0  0  0  0  0  0  0  0  0  0
    4.5030   -0.3530   -0.8770 C   0  0  1  0  0  0  0  0  0  0  0  0
    3.1000   -0.1530   -1.1380 C   0  0  0  0  0  0  0  0  0  0  0  0
    2.2190    0.7480   -0.9760 C   0  0  0  0  0  0  0  0  0  0  0  0
    0.8190    0.2750   -1.5250 C   0  0  0  0  0  0  0  0  0  0  0  0
   -0.0810    0.1950   -0.3380 C   0  0  0  0  0  0  0  0  0  0  0  0
   -1.3300   -0.2410   -0.8250 O   0  0  0  0  0  0  0  0  0  0  0  0
   -2.2680   -0.3590    0.1900 C   0  0  2  0  0  0  0  0  0  0  0  0
   -2.7540   -1.7600    0.3840 C   0  0  0  0  0  0  0  0  0  0  0  0
   -3.8270   -1.7020    1.4790 C   0  0  0  0  0  0  0  0  0  0  0  0
   -5.0580   -1.0960    0.8510 C   0  0  0  0  0  0  0  0  0  0  0  0
   -4.7340   -0.0780   -0.2040 C   0  0  1  0  0  0  0  0  0  0  0  0
   -4.7460   -0.6420   -1.4760 O   0  0  0  0  0  0  0  0  0  0  0  0
   -5.8030    1.0030   -0.1840 C   0  0  0  0  0  0  0  0  0  0  0  0
   -5.8920    1.6640    1.0810 N   0  0  0  0  0  0  0  0  0  0  0  0
   -3.4030    0.5910    0.0050 C   0  0  0  0  0  0  0  0  0  0  0  0
    2.1880    2.0640   -0.4200 C   0  0  0  0  0  0  0  0  0  0  0  0
    3.2040    2.7960    0.2030 N   0  0  0  0  0  0  0  0  0  0  0  0
    1.0620    2.7360   -0.4810 O   0  0  0  0  0  0  0  0  0  0  0  0
    5.2340    0.7820   -0.2660 C   0  0  0  0  0  0  0  0  0  0  0  0
    6.6400    0.4870   -0.2220 O   0  0  0  0  0  0  0  0  0  0  0  0
  1  2  1  0
  3  2  1  1
  3  4  1  0
  3 21  1  0
  4  5  2  3
  5  6  1  0
  5 18  1  0
  6  7  1  0
  7  8  1  0
  9  8  1  6
  9 10  1  0
  9 17  1  0
 10 11  1  0
 11 12  1  0
 12 13  1  0
 13 14  1  6
 13 15  1  0
 13 17  1  0
 15 16  1  0
 18 19  1  0
 18 20  2  0
 21 22  1  0
M  END
