
     RDKit          3D

 22 22  0  0  0  0  0  0  0  0999 V2000
   -2.7500   -3.1130   -0.5850 C   0  0  0  0  0  0  0  0  0  0  0  0
   -3.1330   -1.6650   -0.8530 C   0  0  0  0  0  0  0  0  0  0  0  0
   -2.3420   -0.7130   -0.0290 C   0  0  2  0  0  0  0  0  0  0  0  0
   -2.6010    0.7250   -0.2060 C   0  0  0  0  0  0  0  0  0  0  0  0
   -3.9550    1.2590    0.0560 C   0  0  1  0  0  0  0  0  0  0  0  0
   -5.0670    0.7220   -0.7870 C   0  0  0  0  0  0  0  0  0  0  0  0
   -4.3590    1.1480    1.5200 C   0  0  0  0  0  0  0  0  0  0  0  0
   -3.8780    2.6590   -0.1740 O   0  0  0  0  0  0  0  0  0  0  0  0
   -0.8680   -0.9310   -0.2650 C   0  0  0  0  0  0  0  0  0  0  0  0
   -0.4440   -1.7450   -1.1220 O   0  0  0  0  0  0  0  0  0  0  0  0
    0.0940   -0.2150    0.4810 N   0  0  0  0  0  0  0  0  0  0  0  0
    1.5150   -0.3850    0.2920 C   0  0  2  0  0  0  0  0  0  0  0  0
    2.1090   -0.8360    1.6070 C   0  0  0  0  0  0  0  0  0  0  0  0
    1.8870    0.0940    2.5920 O   0  0  0  0  0  0  0  0  0  0  0  0
    2.1740    0.8930   -0.1560 C   0  0  0  0  0  0  0  0  0  0  0  0
    3.6310    0.7310   -0.3530 C   0  0  0  0  0  0  0  0  0  0  0  0
    4.4650    1.4610    0.3600 C   0  0  0  0  0  0  0  0  0  0  0  0
    5.9370    1.4250    0.2900 C   0  0  0  0  0  0  0  0  0  0  0  0
    6.3660    0.4690   -0.6870 N   0  0  0  0  0  0  0  0  0  0  0  0
    5.4770   -0.3100   -1.4490 C   0  0  0  0  0  0  0  0  0  0  0  0
    4.1700   -0.2090   -1.3130 C   0  0  0  0  0  0  0  0  0  0  0  0
    3.3210   -1.0150   -2.1040 O   0  0  0  0  0  0  0  0  0  0  0  0
  1  2  1  0
  3  2  1  6
  3  4  1  0
  3  9  1  0
  4  5  1  0
  5  6  1  6
  5  7  1  0
  5  8  1  0
  9 10  2  0
  9 11  1  0
 11 12  1  0
 12 13  1  1
 12 15  1  0
 13 14  1  0
 15 16  1  0
 16 17  2  0
 16 21  1  0
 17 18  1  0
 18 19  1  0
 19 20  1  0
 20 21  2  0
 21 22  1  0
M  END
