
     RDKit          3D

 27 30  0  0  0  0  0  0  0  0999 V2000
   -5.0030    3.9300   -0.8410 C   0  0  0  0  0  0  0  0  0  0  0  0
   -3.7990    3.4560   -1.0710 C   0  0  0  0  0  0  0  0  0  0  0  0
   -3.2290    2.3480   -0.3210 C   0  0  0  0  0  0  0  0  0  0  0  0
   -2.0200    1.9000   -0.5790 C   0  0  0  0  0  0  0  0  0  0  0  0
   -1.2460    2.5570   -1.6610 C   0  0  0  0  0  0  0  0  0  0  0  0
   -1.4440    0.7780    0.1790 C   0  0  0  0  0  0  0  0  0  0  0  0
   -0.2070    0.3550   -0.1120 N   0  0  0  0  0  0  0  0  0  0  0  0
    0.3830   -0.6780    0.5480 C   0  0  0  0  0  0  0  0  0  0  0  0
    1.6920   -1.1040    0.2190 N   0  0  0  0  0  0  0  0  0  0  0  0
    2.4380   -0.4760   -0.8070 C   0  0  0  0  0  0  0  0  0  0  0  0
    2.0890    0.7000   -1.2080 N   0  0  0  0  0  0  0  0  0  0  0  0
    2.8150    1.3480   -2.2380 C   0  0  0  0  0  0  0  0  0  0  0  0
    3.8490    0.7730   -2.8170 C   0  0  0  0  0  0  0  0  0  0  0  0
    4.7970    1.1520   -3.8680 C   0  0  0  0  0  0  0  0  0  0  0  0
    4.5320    1.9180   -4.8180 O   0  0  0  0  0  0  0  0  0  0  0  0
    6.0980    0.4540   -3.5710 C   0  0  0  0  0  0  0  0  0  0  0  0
    5.7290   -0.4750   -2.3910 C   0  0  0  0  0  0  0  0  0  0  0  0
    4.2350   -0.6380   -2.5110 C   0  0  1  0  0  0  0  0  0  0  0  0
    3.6270   -1.2160   -1.3120 C   0  0  0  0  0  0  0  0  0  0  0  0
   -0.3640   -1.2760    1.5450 C   0  0  0  0  0  0  0  0  0  0  0  0
   -1.6380   -0.8620    1.8650 C   0  0  0  0  0  0  0  0  0  0  0  0
   -2.3530   -1.5140    2.8920 N   0  0  0  0  0  0  0  0  0  0  0  0
   -3.6970   -1.1510    3.3010 C   0  0  0  0  0  0  0  0  0  0  0  0
   -4.2350   -2.3790    4.0150 C   0  0  0  0  0  0  0  0  0  0  0  0
   -3.0510   -3.1970    4.4070 C   0  0  0  0  0  0  0  0  0  0  0  0
   -1.8850   -2.6190    3.6820 C   0  0  0  0  0  0  0  0  0  0  0  0
   -2.1260    0.1650    1.1530 N   0  0  0  0  0  0  0  0  0  0  0  0
  1  2  2  0
  2  3  1  0
  3  4  2  3
  4  5  1  0
  4  6  1  0
  6  7  2  0
  6 27  1  0
  7  8  1  0
  8  9  1  0
  8 20  2  0
  9 10  1  0
 10 11  2  0
 10 19  1  0
 11 12  1  0
 12 13  2  0
 13 14  1  0
 13 18  1  0
 14 15  2  0
 14 16  1  0
 16 17  1  0
 18 17  1  1
 18 19  1  0
 20 21  1  0
 21 22  1  0
 21 27  2  0
 22 23  1  0
 22 26  1  0
 23 24  1  0
 24 25  1  0
 25 26  1  0
M  END
