
     RDKit          3D

 27 31  0  0  0  0  0  0  0  0999 V2000
    8.7980   -0.4870   -0.1330 C   0  0  0  0  0  0  0  0  0  0  0  0
    7.8820   -1.4320   -0.0210 C   0  0  0  0  0  0  0  0  0  0  0  0
    6.5670   -0.8150   -0.1430 C   0  0  0  0  0  0  0  0  0  0  0  0
    5.2790   -1.5510   -0.0690 C   0  0  0  0  0  0  0  0  0  0  0  0
    4.1680   -0.6300   -0.2300 N   0  0  0  0  0  0  0  0  0  0  0  0
    2.8980   -1.3310   -0.1610 C   0  0  0  0  0  0  0  0  0  0  0  0
    1.7530   -0.4310   -0.3170 C   0  0  0  0  0  0  0  0  0  0  0  0
    1.7130    0.8990   -0.5080 N   0  0  0  0  0  0  0  0  0  0  0  0
    0.4950    1.3060   -0.5950 O   0  0  0  0  0  0  0  0  0  0  0  0
   -0.3640    0.2920   -0.4710 C   0  0  0  0  0  0  0  0  0  0  0  0
   -1.7680    0.2500   -0.4970 C   0  0  0  0  0  0  0  0  0  0  0  0
   -2.4550    1.5190   -0.6470 C   0  0  0  0  0  0  0  0  0  0  0  0
   -1.8110    2.6140   -1.2150 N   0  0  0  0  0  0  0  0  0  0  0  0
   -2.6010    3.6720   -1.2250 C   0  0  0  0  0  0  0  0  0  0  0  0
   -3.7680    3.2540   -0.6560 C   0  0  0  0  0  0  0  0  0  0  0  0
   -3.6650    1.9180   -0.3000 N   0  0  0  0  0  0  0  0  0  0  0  0
   -4.7460    1.2430    0.3460 C   0  0  2  0  0  0  0  0  0  0  0  0
   -4.5130    0.5920    1.6440 C   0  0  0  0  0  0  0  0  0  0  0  0
   -5.8260   -0.1960    1.8410 C   0  0  0  0  0  0  0  0  0  0  0  0
   -6.1300   -0.6970    0.4320 C   0  0  0  0  0  0  0  0  0  0  0  0
   -5.6060    0.3720   -0.4940 C   0  0  0  0  0  0  0  0  0  0  0  0
   -2.3210   -0.9680   -0.3370 C   0  0  0  0  0  0  0  0  0  0  0  0
   -1.5560   -2.1040   -0.1570 C   0  0  0  0  0  0  0  0  0  0  0  0
   -0.2060   -2.0250   -0.1360 C   0  0  0  0  0  0  0  0  0  0  0  0
    0.4150   -0.8100   -0.2950 C   0  0  0  0  0  0  0  0  0  0  0  0
    6.6990    0.4450   -0.3200 N   0  0  0  0  0  0  0  0  0  0  0  0
    8.0850    0.7980   -0.3360 C   0  0  0  0  0  0  0  0  0  0  0  0
  1  2  2  0
  1 27  1  0
  2  3  1  0
  3  4  1  0
  3 26  2  0
  4  5  1  0
  5  6  1  0
  6  7  1  0
  7  8  2  0
  7 25  1  0
  8  9  1  0
  9 10  1  0
 10 11  2  0
 10 25  1  0
 11 12  1  0
 11 22  1  0
 12 13  2  0
 12 16  1  0
 13 14  1  0
 14 15  2  0
 15 16  1  0
 17 16  1  6
 17 18  1  0
 17 21  1  0
 18 19  1  0
 19 20  1  0
 20 21  1  0
 22 23  2  0
 23 24  1  0
 24 25  2  0
 26 27  1  0
M  END
