
     RDKit          3D

 27 30  0  0  0  0  0  0  0  0999 V2000
    4.1470    0.1230   -1.4960 C   0  0  0  0  0  0  0  0  0  0  0  0
    3.4670   -0.9470   -1.1720 C   0  0  0  0  0  0  0  0  0  0  0  0
    3.9450   -2.3340   -1.3620 C   0  0  0  0  0  0  0  0  0  0  0  0
    2.6320   -3.0850   -1.4590 C   0  0  0  0  0  0  0  0  0  0  0  0
    1.6750   -2.2050   -0.7450 C   0  0  0  0  0  0  0  0  0  0  0  0
    2.1050   -0.9910   -0.5620 C   0  0  0  0  0  0  0  0  0  0  0  0
    1.5800    0.1440    0.0340 N   0  0  0  0  0  0  0  0  0  0  0  0
    0.5320    0.7970   -0.0570 C   0  0  0  0  0  0  0  0  0  0  0  0
    0.3500    1.9790    0.7690 C   0  0  0  0  0  0  0  0  0  0  0  0
    1.2270    2.4330    1.6500 C   0  0  0  0  0  0  0  0  0  0  0  0
    0.7390    3.6570    2.3270 C   0  0  0  0  0  0  0  0  0  0  0  0
   -0.5340    3.9150    1.7220 N   0  0  0  0  0  0  0  0  0  0  0  0
   -0.7850    2.9030    0.7900 C   0  0  0  0  0  0  0  0  0  0  0  0
   -1.8320    2.7890    0.0680 O   0  0  0  0  0  0  0  0  0  0  0  0
   -0.5000    0.4390   -0.9500 N   0  0  0  0  0  0  0  0  0  0  0  0
   -0.4520    0.7150   -2.3070 C   0  0  0  0  0  0  0  0  0  0  0  0
    0.6790    1.3900   -2.9930 C   0  0  0  0  0  0  0  0  0  0  0  0
    0.3880    2.8930   -2.9560 C   0  0  0  0  0  0  0  0  0  0  0  0
   -1.6010    0.2510   -2.8030 N   0  0  0  0  0  0  0  0  0  0  0  0
   -2.3160   -0.2750   -1.8360 N   0  0  0  0  0  0  0  0  0  0  0  0
   -1.6300   -0.1660   -0.6440 C   0  0  0  0  0  0  0  0  0  0  0  0
   -2.2200   -0.7030    0.5710 C   0  0  2  0  0  0  0  0  0  0  0  0
   -1.7830   -0.2020    1.8760 C   0  0  0  0  0  0  0  0  0  0  0  0
   -2.4580   -1.0890    2.9430 C   0  0  0  0  0  0  0  0  0  0  0  0
   -3.5660   -1.9290    2.3610 C   0  0  0  0  0  0  0  0  0  0  0  0
   -3.0870   -2.8780    1.2860 C   0  0  0  0  0  0  0  0  0  0  0  0
   -1.9380   -2.2230    0.5810 C   0  0  0  0  0  0  0  0  0  0  0  0
  1  2  2  0
  2  3  1  0
  2  6  1  0
  3  4  1  0
  4  5  1  0
  5  6  2  0
  6  7  1  0
  7  8  2  3
  8  9  1  0
  8 15  1  0
  9 10  2  0
  9 13  1  0
 10 11  1  0
 11 12  1  0
 12 13  1  0
 13 14  2  0
 15 16  1  0
 15 21  1  0
 16 17  1  0
 16 19  2  0
 17 18  1  0
 19 20  1  0
 20 21  2  0
 22 21  1  6
 22 23  1  0
 22 27  1  0
 23 24  1  0
 24 25  1  0
 25 26  1  0
 26 27  1  0
M  END
