
     RDKit          3D

 27 31  0  0  0  0  0  0  0  0999 V2000
    3.1230    2.6830   -0.5590 C   0  0  0  0  0  0  0  0  0  0  0  0
    3.5410    2.8270    0.6880 C   0  0  0  0  0  0  0  0  0  0  0  0
    3.4830    1.6990    1.5930 C   0  0  0  0  0  0  0  0  0  0  0  0
    3.8930    1.8310    2.8280 C   0  0  0  0  0  0  0  0  0  0  0  0
    2.9830    0.4560    1.1490 N   0  0  0  0  0  0  0  0  0  0  0  0
    3.9420   -0.5010    0.6130 C   0  0  0  0  0  0  0  0  0  0  0  0
    3.4610   -1.8950    0.8440 C   0  0  0  0  0  0  0  0  0  0  0  0
    2.1050   -2.0290    0.2050 C   0  0  0  0  0  0  0  0  0  0  0  0
    1.8400   -3.1880   -0.5740 N   0  0  0  0  0  0  0  0  0  0  0  0
    0.5820   -3.3500   -1.1890 C   0  0  0  0  0  0  0  0  0  0  0  0
    0.2750   -4.4400   -1.9440 N   0  0  0  0  0  0  0  0  0  0  0  0
   -0.9240   -4.5970   -2.5300 C   0  0  0  0  0  0  0  0  0  0  0  0
   -1.8380   -3.6290   -2.3510 N   0  0  0  0  0  0  0  0  0  0  0  0
   -1.5890   -2.5300   -1.6140 C   0  0  0  0  0  0  0  0  0  0  0  0
   -2.4970   -1.5590   -1.4290 N   0  0  0  0  0  0  0  0  0  0  0  0
   -2.2810   -0.4500   -0.7000 C   0  0  0  0  0  0  0  0  0  0  0  0
   -3.3890    0.5220   -0.5980 C   0  0  2  0  0  0  0  0  0  0  0  0
   -3.0200    1.9040   -1.0430 C   0  0  0  0  0  0  0  0  0  0  0  0
   -3.8230    2.8770   -0.1780 C   0  0  0  0  0  0  0  0  0  0  0  0
   -5.0950    2.3010   -0.0100 O   0  0  0  0  0  0  0  0  0  0  0  0
   -5.0680    1.3160    0.9800 C   0  0  0  0  0  0  0  0  0  0  0  0
   -3.7400    0.6120    0.8940 C   0  0  0  0  0  0  0  0  0  0  0  0
   -1.0620   -0.2780   -0.0970 C   0  0  0  0  0  0  0  0  0  0  0  0
   -0.0770   -1.2350   -0.2410 C   0  0  0  0  0  0  0  0  0  0  0  0
    1.2400   -1.0530    0.4090 C   0  0  0  0  0  0  0  0  0  0  0  0
    1.5470    0.1390    1.2220 C   0  0  0  0  0  0  0  0  0  0  0  0
   -0.3540   -2.3590   -1.0040 C   0  0  0  0  0  0  0  0  0  0  0  0
  1  2  2  0
  2  3  1  0
  3  4  2  0
  3  5  1  0
  5  6  1  0
  5 26  1  0
  6  7  1  0
  7  8  1  0
  8  9  1  0
  8 25  2  0
  9 10  1  0
 10 11  2  0
 10 27  1  0
 11 12  1  0
 12 13  2  0
 13 14  1  0
 14 15  2  0
 14 27  1  0
 15 16  1  0
 17 16  1  1
 16 23  2  0
 17 18  1  0
 17 22  1  0
 18 19  1  0
 19 20  1  0
 20 21  1  0
 21 22  1  0
 23 24  1  0
 24 25  1  0
 24 27  2  0
 25 26  1  0
M  END
