
     RDKit          3D

 27 30  0  0  0  0  0  0  0  0999 V2000
   -4.9530    4.0590    0.7370 C   0  0  0  0  0  0  0  0  0  0  0  0
   -3.6770    3.7490    0.6670 C   0  0  0  0  0  0  0  0  0  0  0  0
   -3.2070    2.3780    0.4750 C   0  0  0  0  0  0  0  0  0  0  0  0
   -1.9240    2.1000    0.4090 C   0  0  0  0  0  0  0  0  0  0  0  0
   -0.9590    3.2230    0.5350 C   0  0  0  0  0  0  0  0  0  0  0  0
   -1.4800    0.7210    0.2160 C   0  0  0  0  0  0  0  0  0  0  0  0
   -0.1550    0.4140    0.1450 N   0  0  0  0  0  0  0  0  0  0  0  0
    0.2500   -0.8530   -0.0320 C   0  0  0  0  0  0  0  0  0  0  0  0
    1.6090   -1.2510   -0.1160 N   0  0  0  0  0  0  0  0  0  0  0  0
    2.6470   -0.2430   -0.0080 C   0  0  0  0  0  0  0  0  0  0  0  0
    2.4040    0.8970    0.4730 N   0  0  0  0  0  0  0  0  0  0  0  0
    3.3520    1.9410    0.6090 C   0  0  0  0  0  0  0  0  0  0  0  0
    4.5610    1.6670    0.1780 C   0  0  0  0  0  0  0  0  0  0  0  0
    5.8220    2.4620    0.1470 C   0  0  0  0  0  0  0  0  0  0  0  0
    5.8500    3.7190    0.3260 O   0  0  0  0  0  0  0  0  0  0  0  0
    6.9620    1.5490   -0.1180 C   0  0  0  0  0  0  0  0  0  0  0  0
    6.3270    0.1630    0.0620 C   0  0  0  0  0  0  0  0  0  0  0  0
    4.9470    0.4330   -0.5300 C   0  0  1  0  0  0  0  0  0  0  0  0
    3.9810   -0.6660   -0.4080 C   0  0  0  0  0  0  0  0  0  0  0  0
   -0.7270   -1.8180   -0.1360 C   0  0  0  0  0  0  0  0  0  0  0  0
   -2.0710   -1.5310   -0.0670 C   0  0  0  0  0  0  0  0  0  0  0  0
   -3.0920   -2.5370   -0.1770 N   0  0  0  0  0  0  0  0  0  0  0  0
   -4.5110   -2.3020   -0.0970 C   0  0  0  0  0  0  0  0  0  0  0  0
   -5.1240   -3.6330   -0.4370 C   0  0  0  0  0  0  0  0  0  0  0  0
   -4.0310   -4.4490   -1.0920 C   0  0  0  0  0  0  0  0  0  0  0  0
   -2.7980   -3.9310   -0.3850 C   0  0  0  0  0  0  0  0  0  0  0  0
   -2.4080   -0.2420    0.1110 N   0  0  0  0  0  0  0  0  0  0  0  0
  1  2  2  0
  2  3  1  0
  3  4  2  3
  4  5  1  0
  4  6  1  0
  6  7  2  0
  6 27  1  0
  7  8  1  0
  8  9  1  0
  8 20  2  0
  9 10  1  0
 10 11  2  0
 10 19  1  0
 11 12  1  0
 12 13  2  0
 13 14  1  0
 13 18  1  0
 14 15  2  0
 14 16  1  0
 16 17  1  0
 18 17  1  1
 18 19  1  0
 20 21  1  0
 21 22  1  0
 21 27  2  0
 22 23  1  0
 22 26  1  0
 23 24  1  0
 24 25  1  0
 25 26  1  0
M  END
