
     RDKit          3D

 18 20  0  0  0  0  0  0  0  0999 V2000
   -3.7430   -1.3120   -0.3290 C   0  0  0  0  0  0  0  0  0  0  0  0
   -2.4640   -0.5740   -0.1120 C   0  0  0  0  0  0  0  0  0  0  0  0
   -1.2770   -1.2200   -0.3960 C   0  0  0  0  0  0  0  0  0  0  0  0
   -0.0390   -0.6260   -0.2300 C   0  0  0  0  0  0  0  0  0  0  0  0
    1.1070   -1.2890   -0.5180 N   0  0  0  0  0  0  0  0  0  0  0  0
    2.3060   -0.7000   -0.3530 C   0  0  0  0  0  0  0  0  0  0  0  0
    3.4630   -1.3430   -0.6340 N   0  0  0  0  0  0  0  0  0  0  0  0
    4.6620   -0.7560   -0.4700 C   0  0  0  0  0  0  0  0  0  0  0  0
    5.7470   -1.3580   -0.7330 O   0  0  0  0  0  0  0  0  0  0  0  0
    4.6780    0.5060   -0.0110 N   0  0  0  0  0  0  0  0  0  0  0  0
    3.5580    1.1890    0.2840 C   0  0  0  0  0  0  0  0  0  0  0  0
    3.5820    2.3720    0.7130 O   0  0  0  0  0  0  0  0  0  0  0  0
    2.3230    0.5960    0.1180 C   0  0  0  0  0  0  0  0  0  0  0  0
    1.1710    1.2600    0.4070 N   0  0  0  0  0  0  0  0  0  0  0  0
   -0.0270    0.6710    0.2420 C   0  0  0  0  0  0  0  0  0  0  0  0
   -1.2120    1.3160    0.5250 C   0  0  0  0  0  0  0  0  0  0  0  0
   -2.4450    0.7200    0.3580 C   0  0  0  0  0  0  0  0  0  0  0  0
   -3.7210    1.4250    0.6670 C   0  0  0  0  0  0  0  0  0  0  0  0
  1  2  1  0
  2  3  2  0
  2 17  1  0
  3  4  1  0
  4  5  2  0
  4 15  1  0
  5  6  1  0
  6  7  1  0
  6 13  2  0
  7  8  1  0
  8  9  2  0
  8 10  1  0
 10 11  1  0
 11 12  2  0
 11 13  1  0
 13 14  1  0
 14 15  2  0
 15 16  1  0
 16 17  2  0
 17 18  1  0
M  END
