
     RDKit          3D

 27 31  0  0  0  0  0  0  0  0999 V2000
   -8.0270    1.1360    0.8540 C   0  0  0  0  0  0  0  0  0  0  0  0
   -6.8790    0.3620    0.3620 C   0  0  0  0  0  0  0  0  0  0  0  0
   -6.8850   -0.8870   -0.1880 C   0  0  0  0  0  0  0  0  0  0  0  0
   -5.6120   -1.1930   -0.4900 N   0  0  0  0  0  0  0  0  0  0  0  0
   -4.8060   -0.2100   -0.1620 N   0  0  0  0  0  0  0  0  0  0  0  0
   -3.3960   -0.1150   -0.3050 C   0  0  0  0  0  0  0  0  0  0  0  0
   -2.5420   -0.4590    0.7160 C   0  0  0  0  0  0  0  0  0  0  0  0
   -1.1690   -0.3630    0.5680 C   0  0  0  0  0  0  0  0  0  0  0  0
   -0.6150    0.0820   -0.6150 C   0  0  0  0  0  0  0  0  0  0  0  0
    0.8240    0.1880   -0.7870 C   0  0  0  0  0  0  0  0  0  0  0  0
    1.8200   -0.1130    0.1290 C   0  0  0  0  0  0  0  0  0  0  0  0
    3.0570    0.1300   -0.4390 C   0  0  0  0  0  0  0  0  0  0  0  0
    4.3740   -0.0450    0.1560 C   0  0  0  0  0  0  0  0  0  0  0  0
    4.6980   -0.4810    1.3830 N   0  0  0  0  0  0  0  0  0  0  0  0
    6.0320   -0.4860    1.5090 C   0  0  0  0  0  0  0  0  0  0  0  0
    6.9110   -0.8240    2.5150 C   0  0  0  0  0  0  0  0  0  0  0  0
    8.2800   -0.7000    2.2890 C   0  0  0  0  0  0  0  0  0  0  0  0
    8.7570   -0.2420    1.0660 C   0  0  0  0  0  0  0  0  0  0  0  0
    7.8820    0.0930    0.0670 C   0  0  0  0  0  0  0  0  0  0  0  0
    6.5300   -0.0360    0.3120 C   0  0  0  0  0  0  0  0  0  0  0  0
    5.5100    0.2070   -0.4450 O   0  0  0  0  0  0  0  0  0  0  0  0
    2.7860    0.5710   -1.6790 N   0  0  0  0  0  0  0  0  0  0  0  0
    1.4620    0.6030   -1.8770 N   0  0  0  0  0  0  0  0  0  0  0  0
   -1.4580    0.4280   -1.6390 C   0  0  0  0  0  0  0  0  0  0  0  0
   -2.8210    0.3340   -1.4940 C   0  0  0  0  0  0  0  0  0  0  0  0
   -3.7110    0.7110   -2.6080 C   0  0  0  0  0  0  0  0  0  0  0  0
   -5.5560    0.7720    0.3700 C   0  0  0  0  0  0  0  0  0  0  0  0
  1  2  1  0
  2  3  1  0
  2 27  2  0
  3  4  2  0
  4  5  1  0
  5  6  1  0
  5 27  1  0
  6  7  2  0
  6 25  1  0
  7  8  1  0
  8  9  2  0
  9 10  1  0
  9 24  1  0
 10 11  1  0
 10 23  2  0
 11 12  2  0
 12 13  1  0
 12 22  1  0
 13 14  2  0
 13 21  1  0
 14 15  1  0
 15 16  2  0
 15 20  1  0
 16 17  1  0
 17 18  2  0
 18 19  1  0
 19 20  2  0
 20 21  1  0
 22 23  1  0
 24 25  2  0
 25 26  1  0
M  END
