
     RDKit          3D

 26 28  0  0  0  0  0  0  0  0999 V2000
    6.6830    1.4410    0.1370 C   0  0  0  0  0  0  0  0  0  0  0  0
    7.0810    0.0580   -0.2680 C   0  0  0  0  0  0  0  0  0  0  0  0
    8.3700   -0.3370   -0.5210 N   0  0  0  0  0  0  0  0  0  0  0  0
    8.4010   -1.6140   -0.9040 C   0  0  0  0  0  0  0  0  0  0  0  0
    7.0890   -2.0370   -0.8920 C   0  0  0  0  0  0  0  0  0  0  0  0
    6.2450   -0.9930   -0.4920 C   0  0  0  0  0  0  0  0  0  0  0  0
    4.7870   -1.1060   -0.3400 C   0  0  0  0  0  0  0  0  0  0  0  0
    4.1580   -1.9230   -1.0340 O   0  0  0  0  0  0  0  0  0  0  0  0
    4.1340   -0.2800    0.5920 N   0  0  0  0  0  0  0  0  0  0  0  0
    2.7670   -0.2360    0.8280 C   0  0  0  0  0  0  0  0  0  0  0  0
    1.8480   -0.9370    0.1220 C   0  0  0  0  0  0  0  0  0  0  0  0
    0.4890   -0.8110    0.3900 C   0  0  0  0  0  0  0  0  0  0  0  0
    0.0560    0.0330    1.3850 C   0  0  0  0  0  0  0  0  0  0  0  0
   -1.7160    0.2270    1.7040 S   0  0  0  0  0  0  0  0  0  0  0  0
   -2.5530   -0.8260    0.4800 C   0  0  0  0  0  0  0  0  0  0  0  0
   -4.0040   -0.6800    0.6380 C   0  0  0  0  0  0  0  0  0  0  0  0
   -4.7580   -1.4610    1.5010 C   0  0  0  0  0  0  0  0  0  0  0  0
   -6.1060   -1.2630    1.5660 C   0  0  0  0  0  0  0  0  0  0  0  0
   -6.7220   -0.3270    0.8120 N   0  0  0  0  0  0  0  0  0  0  0  0
   -6.0330    0.4680   -0.0530 C   0  0  0  0  0  0  0  0  0  0  0  0
   -6.7270    1.4280   -0.8240 N   0  0  0  0  0  0  0  0  0  0  0  0
   -7.3260    1.0280   -2.0720 C   0  0  0  0  0  0  0  0  0  0  0  0
   -6.8460    2.7960   -0.3920 C   0  0  0  0  0  0  0  0  0  0  0  0
   -4.6700    0.2680   -0.1170 C   0  0  0  0  0  0  0  0  0  0  0  0
    0.9740    0.7160    2.0740 N   0  0  0  0  0  0  0  0  0  0  0  0
    2.2740    0.6060    1.8290 C   0  0  0  0  0  0  0  0  0  0  0  0
  1  2  1  0
  2  3  1  0
  2  6  2  0
  3  4  1  0
  4  5  2  0
  5  6  1  0
  6  7  1  0
  7  8  2  0
  7  9  1  0
  9 10  1  0
 10 11  2  0
 10 26  1  0
 11 12  1  0
 12 13  2  0
 13 14  1  0
 13 25  1  0
 14 15  1  0
 15 16  1  0
 16 17  2  0
 16 24  1  0
 17 18  1  0
 18 19  2  0
 19 20  1  0
 20 21  1  0
 20 24  2  0
 21 22  1  0
 21 23  1  0
 25 26  2  0
M  END
