
     RDKit          3D

 26 28  0  0  0  0  0  0  0  0999 V2000
   -4.6270    3.4720   -0.8790 C   0  0  0  0  0  0  0  0  0  0  0  0
   -4.4140    2.2950   -1.8050 C   0  0  0  0  0  0  0  0  0  0  0  0
   -3.5620    1.2410   -1.2090 C   0  0  0  0  0  0  0  0  0  0  0  0
   -3.9230    0.0390   -0.6940 N   0  0  0  0  0  0  0  0  0  0  0  0
   -2.8200   -0.5980   -0.2630 N   0  0  0  0  0  0  0  0  0  0  0  0
   -2.9000   -1.8880    0.3270 C   0  0  0  0  0  0  0  0  0  0  0  0
   -3.8240   -2.1890    1.3050 C   0  0  0  0  0  0  0  0  0  0  0  0
   -3.9090   -3.4420    1.8840 C   0  0  0  0  0  0  0  0  0  0  0  0
   -3.0330   -4.4160    1.4580 C   0  0  0  0  0  0  0  0  0  0  0  0
   -2.1050   -4.1040    0.4720 C   0  0  0  0  0  0  0  0  0  0  0  0
   -2.0700   -2.8700   -0.0510 N   0  0  0  0  0  0  0  0  0  0  0  0
   -1.7610    0.1950   -0.5020 C   0  0  0  0  0  0  0  0  0  0  0  0
   -0.3680   -0.1840   -0.1530 C   0  0  0  0  0  0  0  0  0  0  0  0
    0.1430    0.4930    1.0640 C   0  0  0  0  0  0  0  0  0  0  0  0
    1.4890    0.0800    1.3530 N   0  0  0  0  0  0  0  0  0  0  0  0
    2.6060    0.2990    0.4610 C   0  0  0  0  0  0  0  0  0  0  0  0
    2.3290    0.8850   -0.5980 O   0  0  0  0  0  0  0  0  0  0  0  0
    3.8970   -0.1370    0.8080 N   0  0  0  0  0  0  0  0  0  0  0  0
    5.0570    0.0610   -0.0580 C   0  0  0  0  0  0  0  0  0  0  0  0
    5.0420    0.6540   -1.2630 C   0  0  0  0  0  0  0  0  0  0  0  0
    6.1520    0.7940   -1.9900 C   0  0  0  0  0  0  0  0  0  0  0  0
    7.4450    0.0290   -0.9410 S   0  0  0  0  0  0  0  0  0  0  0  0
    6.2750   -0.4010    0.4010 C   0  0  0  0  0  0  0  0  0  0  0  0
    6.6730   -1.0880    1.6590 C   0  0  0  0  0  0  0  0  0  0  0  0
   -2.1920    1.3580   -1.0960 C   0  0  0  0  0  0  0  0  0  0  0  0
   -1.3250    2.4660   -1.5050 C   0  0  0  0  0  0  0  0  0  0  0  0
  1  2  1  0
  2  3  1  0
  3  4  2  0
  3 25  1  0
  4  5  1  0
  5  6  1  0
  5 12  1  0
  6  7  2  0
  6 11  1  0
  7  8  1  0
  8  9  2  0
  9 10  1  0
 10 11  2  0
 12 13  1  0
 12 25  2  0
 13 14  1  0
 14 15  1  0
 15 16  1  0
 16 17  2  0
 16 18  1  0
 18 19  1  0
 19 20  1  0
 19 23  2  0
 20 21  2  0
 21 22  1  0
 22 23  1  0
 23 24  1  0
 25 26  1  0
M  END
