
     RDKit          3D

 26 28  0  0  0  0  0  0  0  0999 V2000
   -7.0670   -0.5400    1.7670 C   0  0  0  0  0  0  0  0  0  0  0  0
   -5.7570   -1.0170    1.0930 C   0  0  0  0  0  0  0  0  0  0  0  0
   -5.5630   -0.1760   -0.0650 C   0  0  0  0  0  0  0  0  0  0  0  0
   -4.3040   -0.3530   -0.8590 C   0  0  0  0  0  0  0  0  0  0  0  0
   -3.2420    0.2680   -0.9540 N   0  0  0  0  0  0  0  0  0  0  0  0
   -2.2200   -0.0690   -1.7020 C   0  0  0  0  0  0  0  0  0  0  0  0
   -1.0380    0.8690   -1.7580 C   0  0  1  0  0  0  0  0  0  0  0  0
   -0.3700    0.5920   -3.1330 C   0  0  0  0  0  0  0  0  0  0  0  0
   -1.6830    2.2470   -1.9820 C   0  0  0  0  0  0  0  0  0  0  0  0
   -0.1010    0.8690   -0.8000 O   0  0  0  0  0  0  0  0  0  0  0  0
    0.9660    0.2540   -0.2980 C   0  0  0  0  0  0  0  0  0  0  0  0
    1.5380   -0.7970   -0.8500 C   0  0  0  0  0  0  0  0  0  0  0  0
    2.6820   -1.5260   -0.4680 C   0  0  0  0  0  0  0  0  0  0  0  0
    3.0600   -2.6620   -0.9710 C   0  0  0  0  0  0  0  0  0  0  0  0
    3.4540   -3.8240   -1.5110 N   0  0  0  0  0  0  0  0  0  0  0  0
    3.2470   -0.9530    0.7330 C   0  0  0  0  0  0  0  0  0  0  0  0
    2.6500    0.0930    1.2730 C   0  0  0  0  0  0  0  0  0  0  0  0
    1.5330    0.7820    0.8970 N   0  0  0  0  0  0  0  0  0  0  0  0
    3.1410    0.8380    2.4940 N   0  0  0  0  0  0  0  0  0  0  0  0
    4.4530    1.2560    2.8860 C   0  0  0  0  0  0  0  0  0  0  0  0
    5.4830    1.3350    1.7640 C   0  0  0  0  0  0  0  0  0  0  0  0
    6.1620    0.0890    1.5220 N   0  0  0  0  0  0  0  0  0  0  0  0
    5.7030   -1.2900    1.2650 C   0  0  0  0  0  0  0  0  0  0  0  0
    4.4720   -1.7650    0.9200 C   0  0  0  0  0  0  0  0  0  0  0  0
   -2.3510   -1.2540   -2.4330 C   0  0  0  0  0  0  0  0  0  0  0  0
   -3.9910   -1.7690   -1.9650 S   0  0  0  0  0  0  0  0  0  0  0  0
  1  2  1  0
  2  3  1  0
  3  4  1  0
  4  5  2  0
  4 26  1  0
  5  6  1  0
  6  7  1  0
  6 25  2  0
  7  8  1  6
  7  9  1  0
  7 10  1  0
 10 11  1  0
 11 12  2  0
 11 18  1  0
 12 13  1  0
 13 14  1  0
 13 16  2  0
 14 15  3  0
 16 17  1  0
 16 24  1  0
 17 18  2  0
 17 19  1  0
 19 20  1  0
 20 21  1  0
 21 22  1  0
 22 23  1  0
 23 24  2  0
 25 26  1  0
M  END
