
     RDKit          3D

 26 28  0  0  0  0  0  0  0  0999 V2000
    7.7810   -0.3320    2.1230 C   0  0  0  0  0  0  0  0  0  0  0  0
    6.8000    0.2510    1.1880 C   0  0  0  0  0  0  0  0  0  0  0  0
    7.1750    1.2120    0.2750 C   0  0  0  0  0  0  0  0  0  0  0  0
    6.2640    1.7680   -0.6080 C   0  0  0  0  0  0  0  0  0  0  0  0
    6.8180    3.0090   -1.7640 S   0  0  0  0  0  0  0  0  0  0  0  0
    4.9950    1.3230   -0.5320 N   0  0  0  0  0  0  0  0  0  0  0  0
    4.6050    0.3900    0.3450 C   0  0  0  0  0  0  0  0  0  0  0  0
    3.1980   -0.0510    0.3690 C   0  0  0  0  0  0  0  0  0  0  0  0
    2.9440   -1.2210   -0.5480 C   0  0  0  0  0  0  0  0  0  0  0  0
    1.5670   -1.5830   -0.4840 N   0  0  0  0  0  0  0  0  0  0  0  0
    0.4840   -0.8030   -0.9750 C   0  0  0  0  0  0  0  0  0  0  0  0
    0.7750    0.2690   -1.7890 C   0  0  0  0  0  0  0  0  0  0  0  0
   -0.2980    1.0260   -2.2460 C   0  0  0  0  0  0  0  0  0  0  0  0
   -1.5970    0.7160   -1.8990 C   0  0  0  0  0  0  0  0  0  0  0  0
   -1.8960   -0.3620   -1.0810 C   0  0  0  0  0  0  0  0  0  0  0  0
   -3.2450   -0.6630   -0.7400 N   0  0  0  0  0  0  0  0  0  0  0  0
   -4.0430   -0.0840    0.1750 C   0  0  0  0  0  0  0  0  0  0  0  0
   -5.2870   -0.6760    0.1900 C   0  0  0  0  0  0  0  0  0  0  0  0
   -6.4760   -0.3530    1.0430 C   0  0  1  0  0  0  0  0  0  0  0  0
   -6.0850   -0.5450    2.4720 C   0  0  0  0  0  0  0  0  0  0  0  0
   -6.7390    1.1440    0.8380 C   0  0  0  0  0  0  0  0  0  0  0  0
   -7.5570   -1.1140    0.6570 O   0  0  0  0  0  0  0  0  0  0  0  0
   -5.2110   -1.6700   -0.7840 C   0  0  0  0  0  0  0  0  0  0  0  0
   -3.9780   -1.6300   -1.3150 N   0  0  0  0  0  0  0  0  0  0  0  0
   -0.8370   -1.1140   -0.6260 C   0  0  0  0  0  0  0  0  0  0  0  0
    5.5010   -0.1320    1.1870 N   0  0  0  0  0  0  0  0  0  0  0  0
  1  2  1  0
  2  3  2  0
  2 26  1  0
  3  4  1  0
  4  5  1  0
  4  6  2  0
  6  7  1  0
  7  8  1  0
  7 26  2  0
  8  9  1  0
  9 10  1  0
 10 11  1  0
 11 12  2  0
 11 25  1  0
 12 13  1  0
 13 14  2  0
 14 15  1  0
 15 16  1  0
 15 25  2  0
 16 17  1  0
 16 24  1  0
 17 18  2  0
 18 19  1  0
 18 23  1  0
 19 20  1  1
 19 21  1  0
 19 22  1  0
 23 24  2  0
M  END
