
     RDKit          3D

 26 28  0  0  0  0  0  0  0  0999 V2000
   -5.1220    2.1460   -1.0350 C   0  0  0  0  0  0  0  0  0  0  0  0
   -4.3350    2.2960    0.2160 C   0  0  0  0  0  0  0  0  0  0  0  0
   -4.4120    1.0860    0.9980 N   0  0  0  0  0  0  0  0  0  0  0  0
   -3.2410    0.2490    1.1590 C   0  0  0  0  0  0  0  0  0  0  0  0
   -2.8790   -0.7160    1.6580 N   0  0  0  0  0  0  0  0  0  0  0  0
   -1.6870   -1.2140    1.5970 N   0  0  0  0  0  0  0  0  0  0  0  0
   -0.7760   -0.7390    1.0060 C   0  0  0  0  0  0  0  0  0  0  0  0
    0.6170   -1.0290    0.7480 C   0  0  0  0  0  0  0  0  0  0  0  0
    1.2150   -2.1410    1.3350 C   0  0  0  0  0  0  0  0  0  0  0  0
    0.5290   -3.1280    2.2460 C   0  0  0  0  0  0  0  0  0  0  0  0
    2.4900   -2.1760    0.9510 N   0  0  0  0  0  0  0  0  0  0  0  0
    2.7980   -1.1350    0.1240 C   0  0  0  0  0  0  0  0  0  0  0  0
    4.0950   -0.9020   -0.4650 C   0  0  0  0  0  0  0  0  0  0  0  0
    4.9470   -1.8620   -0.4010 O   0  0  0  0  0  0  0  0  0  0  0  0
    4.5570    0.2500   -1.1040 N   0  0  0  0  0  0  0  0  0  0  0  0
    5.8790    0.3600   -1.6590 C   0  0  0  0  0  0  0  0  0  0  0  0
    6.0920    0.5820   -2.9420 C   0  0  0  0  0  0  0  0  0  0  0  0
    7.5400    0.6360   -3.1720 C   0  0  0  0  0  0  0  0  0  0  0  0
    8.1490    0.4190   -1.8560 C   0  0  0  0  0  0  0  0  0  0  0  0
    7.1710    0.2620   -1.0020 C   0  0  0  0  0  0  0  0  0  0  0  0
    1.6050   -0.4310    0.0110 C   0  0  0  0  0  0  0  0  0  0  0  0
    1.4060    0.7730   -0.8200 C   0  0  0  0  0  0  0  0  0  0  0  0
   -1.6300    0.7820    0.3080 S   0  0  0  0  0  0  0  0  0  0  0  0
   -5.5800    0.6130    1.6560 C   0  0  2  0  0  0  0  0  0  0  0  0
   -5.3750   -0.6940    2.3910 C   0  0  0  0  0  0  0  0  0  0  0  0
   -6.8080    0.4710    0.8250 C   0  0  0  0  0  0  0  0  0  0  0  0
  1  2  1  0
  2  3  1  0
  3  4  1  0
  3 24  1  0
  4  5  2  0
  4 23  1  0
  5  6  1  0
  6  7  2  0
  7  8  1  0
  7 23  1  0
  8  9  2  0
  8 21  1  0
  9 10  1  0
  9 11  1  0
 11 12  1  0
 12 13  1  0
 12 21  2  0
 13 14  2  0
 13 15  1  0
 15 16  1  0
 16 17  2  0
 16 20  1  0
 17 18  1  0
 18 19  1  0
 19 20  2  0
 21 22  1  0
 24 25  1  6
 24 26  1  0
M  END
