
     RDKit          3D

 26 28  0  0  0  0  0  0  0  0999 V2000
   -8.4150    1.7500   -0.7200 C   0  0  0  0  0  0  0  0  0  0  0  0
   -6.9250    1.4880   -0.4570 C   0  0  0  0  0  0  0  0  0  0  0  0
   -6.0130    2.5320   -0.3950 C   0  0  0  0  0  0  0  0  0  0  0  0
   -4.5140    1.5980   -0.1020 S   0  0  0  0  0  0  0  0  0  0  0  0
   -5.1960    0.0300   -0.0940 C   0  0  0  0  0  0  0  0  0  0  0  0
   -4.6270   -1.3190    0.0540 C   0  0  0  0  0  0  0  0  0  0  0  0
   -5.5300   -2.3660    0.1150 C   0  0  0  0  0  0  0  0  0  0  0  0
   -5.0140   -3.6420    0.2030 C   0  0  0  0  0  0  0  0  0  0  0  0
   -3.6650   -3.8970    0.2310 C   0  0  0  0  0  0  0  0  0  0  0  0
   -2.8300   -2.8610    0.1710 N   0  0  0  0  0  0  0  0  0  0  0  0
   -3.3090   -1.5570    0.0820 C   0  0  0  0  0  0  0  0  0  0  0  0
   -2.3310   -0.5290    0.0720 N   0  0  0  0  0  0  0  0  0  0  0  0
   -0.9300   -0.8860    0.0320 C   0  0  0  0  0  0  0  0  0  0  0  0
   -0.6510   -2.1170   -0.0280 O   0  0  0  0  0  0  0  0  0  0  0  0
    0.0970    0.0890    0.0570 N   0  0  0  0  0  0  0  0  0  0  0  0
    1.4500   -0.3930   -0.0060 C   0  0  0  0  0  0  0  0  0  0  0  0
    2.4980    0.6990    0.0940 C   0  0  2  0  0  0  0  0  0  0  0  0
    2.3680    1.3960    1.4040 C   0  0  0  0  0  0  0  0  0  0  0  0
    2.2390    1.7650   -0.9790 C   0  0  0  0  0  0  0  0  0  0  0  0
    3.8210    0.0470   -0.1410 C   0  0  0  0  0  0  0  0  0  0  0  0
    4.9790    0.8750   -0.0790 N   0  0  0  0  0  0  0  0  0  0  0  0
    6.0930    0.1690   -0.7590 C   0  0  0  0  0  0  0  0  0  0  0  0
    6.7760   -0.6720    0.2580 C   0  0  0  0  0  0  0  0  0  0  0  0
    6.1670   -0.3290    1.5950 C   0  0  0  0  0  0  0  0  0  0  0  0
    5.5240    1.0200    1.2720 C   0  0  0  0  0  0  0  0  0  0  0  0
   -6.4880    0.3000   -0.3060 N   0  0  0  0  0  0  0  0  0  0  0  0
  1  2  1  0
  2  3  2  0
  2 26  1  0
  3  4  1  0
  4  5  1  0
  5  6  1  0
  5 26  2  0
  6  7  2  0
  6 11  1  0
  7  8  1  0
  8  9  2  0
  9 10  1  0
 10 11  2  0
 11 12  1  0
 12 13  1  0
 13 14  2  0
 13 15  1  0
 15 16  1  0
 16 17  1  0
 17 18  1  1
 17 19  1  0
 17 20  1  0
 20 21  1  0
 21 22  1  0
 21 25  1  0
 22 23  1  0
 23 24  1  0
 24 25  1  0
M  END
