
     RDKit          3D

 19 21  0  0  0  0  0  0  0  0999 V2000
   -4.2220    0.8180    0.0090 C   0  0  0  0  0  0  0  0  0  0  0  0
   -2.8040    0.3810    0.0340 C   0  0  0  0  0  0  0  0  0  0  0  0
   -1.7900    1.3140    0.0620 C   0  0  0  0  0  0  0  0  0  0  0  0
   -0.4520    0.9690    0.0860 C   0  0  0  0  0  0  0  0  0  0  0  0
    0.4900    1.9360    0.1110 N   0  0  0  0  0  0  0  0  0  0  0  0
    1.7670    1.5620    0.1310 C   0  0  0  0  0  0  0  0  0  0  0  0
    2.7610    2.5220    0.1550 C   0  0  0  0  0  0  0  0  0  0  0  0
    2.4090    3.7270    0.1590 O   0  0  0  0  0  0  0  0  0  0  0  0
    4.0420    2.1730    0.1730 N   0  0  0  0  0  0  0  0  0  0  0  0
    4.3720    0.8760    0.1690 C   0  0  0  0  0  0  0  0  0  0  0  0
    5.5790    0.5210    0.1850 O   0  0  0  0  0  0  0  0  0  0  0  0
    3.4110   -0.0750    0.1450 N   0  0  0  0  0  0  0  0  0  0  0  0
    2.1110    0.2280    0.1270 C   0  0  0  0  0  0  0  0  0  0  0  0
    1.1900   -0.7640    0.1020 N   0  0  0  0  0  0  0  0  0  0  0  0
    1.6730   -2.1010    0.1070 C   0  0  0  0  0  0  0  0  0  0  0  0
   -0.1080   -0.3850    0.0810 C   0  0  0  0  0  0  0  0  0  0  0  0
   -1.0790   -1.3420    0.0530 C   0  0  0  0  0  0  0  0  0  0  0  0
   -2.4150   -0.9300    0.0300 C   0  0  0  0  0  0  0  0  0  0  0  0
   -3.4450   -1.9830    0.0000 C   0  0  0  0  0  0  0  0  0  0  0  0
  1  2  1  0
  2  3  2  0
  2 18  1  0
  3  4  1  0
  4  5  2  0
  4 16  1  0
  5  6  1  0
  6  7  1  0
  6 13  2  0
  7  8  2  0
  7  9  1  0
  9 10  1  0
 10 11  2  0
 10 12  1  0
 12 13  1  0
 13 14  1  0
 14 15  1  0
 14 16  2  0
 16 17  1  0
 17 18  2  0
 18 19  1  0
M  CHG  1  14   1
M  END
