
     RDKit          3D

 23 25  0  0  0  0  0  0  0  0999 V2000
   -3.6140   -3.4480   -1.1190 C   0  0  0  0  0  0  0  0  0  0  0  0
   -3.8040   -2.2410   -0.2130 C   0  0  0  0  0  0  0  0  0  0  0  0
   -2.5650   -1.4150   -0.3150 C   0  0  0  0  0  0  0  0  0  0  0  0
   -2.5410   -0.1780   -0.7290 C   0  0  0  0  0  0  0  0  0  0  0  0
   -3.5060    0.8320   -1.2080 C   0  0  0  0  0  0  0  0  0  0  0  0
   -2.9770    2.1630   -1.0020 O   0  0  0  0  0  0  0  0  0  0  0  0
   -2.1730    2.3550    0.1520 C   0  0  0  0  0  0  0  0  0  0  0  0
   -2.1460    3.2670    1.0960 C   0  0  0  0  0  0  0  0  0  0  0  0
   -1.0650    2.9130    2.0400 C   0  0  0  0  0  0  0  0  0  0  0  0
   -0.5060    1.6720    1.4720 C   0  0  0  0  0  0  0  0  0  0  0  0
   -1.1490    1.3560    0.3810 C   0  0  0  0  0  0  0  0  0  0  0  0
   -1.0960    0.2560   -0.6600 C   0  0  1  0  0  0  0  0  0  0  0  0
   -0.3420   -0.9050   -0.1890 C   0  0  0  0  0  0  0  0  0  0  0  0
    1.0900   -1.0730    0.0230 C   0  0  0  0  0  0  0  0  0  0  0  0
    1.5450   -2.1980    0.4560 O   0  0  0  0  0  0  0  0  0  0  0  0
    2.0940   -0.0480   -0.2230 C   0  0  0  0  0  0  0  0  0  0  0  0
    3.4970   -0.5450    0.1060 C   0  0  0  0  0  0  0  0  0  0  0  0
    4.5040    0.5250   -0.1560 C   0  0  0  0  0  0  0  0  0  0  0  0
    4.1810    1.6620   -0.5880 O   0  0  0  0  0  0  0  0  0  0  0  0
    5.8480    0.2930    0.0740 O   0  0  0  0  0  0  0  0  0  0  0  0
    6.8510    1.2710   -0.1560 C   0  0  0  0  0  0  0  0  0  0  0  0
   -1.2380   -1.8840    0.0170 C   0  0  0  0  0  0  0  0  0  0  0  0
   -0.9470   -3.1690    0.4820 O   0  0  0  0  0  0  0  0  0  0  0  0
  1  2  1  0
  2  3  1  0
  3  4  2  0
  3 22  1  0
  4  5  1  0
  4 12  1  0
  5  6  1  0
  6  7  1  0
  7  8  2  0
  7 11  1  0
  8  9  1  0
  9 10  1  0
 10 11  2  0
 11 12  1  0
 12 13  1  1
 13 14  1  0
 13 22  2  0
 14 15  2  0
 14 16  1  0
 16 17  1  0
 17 18  1  0
 18 19  2  0
 18 20  1  0
 20 21  1  0
 22 23  1  0
M  END
