
     RDKit          3D

 23 26  0  0  0  0  0  0  0  0999 V2000
   -3.9000    1.9880    0.4530 C   0  0  0  0  0  0  0  0  0  0  0  0
   -3.6860    0.5250    0.3300 C   0  0  0  0  0  0  0  0  0  0  0  0
   -4.7270   -0.3410    0.5210 C   0  0  0  0  0  0  0  0  0  0  0  0
   -6.0240    0.0840    0.8360 O   0  0  0  0  0  0  0  0  0  0  0  0
   -4.5230   -1.7090    0.4060 C   0  0  0  0  0  0  0  0  0  0  0  0
   -3.2730   -2.2040    0.0980 C   0  0  0  0  0  0  0  0  0  0  0  0
   -2.2130   -1.3280   -0.0970 C   0  0  0  0  0  0  0  0  0  0  0  0
   -2.4260    0.0250    0.0200 C   0  0  0  0  0  0  0  0  0  0  0  0
   -1.1390    0.6680   -0.2380 C   0  0  0  0  0  0  0  0  0  0  0  0
   -0.1960   -0.2090   -0.4950 C   0  0  0  0  0  0  0  0  0  0  0  0
    1.2430    0.0320   -0.8080 C   0  0  1  0  0  0  0  0  0  0  0  0
    1.4750    1.4000   -0.6170 O   0  0  0  0  0  0  0  0  0  0  0  0
    2.0960   -0.6740    0.2630 C   0  0  2  0  0  0  0  0  0  0  0  0
    1.7370   -0.0950    1.5700 C   0  0  0  0  0  0  0  0  0  0  0  0
    0.5880   -0.1470    2.1460 O   0  0  0  0  0  0  0  0  0  0  0  0
    2.8550    0.5240    2.0850 O   0  0  0  0  0  0  0  0  0  0  0  0
    3.9460    0.4200    1.2450 C   0  0  0  0  0  0  0  0  0  0  0  0
    5.2260    0.7580    1.1330 C   0  0  0  0  0  0  0  0  0  0  0  0
    5.7070    0.2280   -0.1520 C   0  0  0  0  0  0  0  0  0  0  0  0
    4.5300   -0.4440   -0.7330 C   0  0  0  0  0  0  0  0  0  0  0  0
    3.5130   -0.3250    0.0910 C   0  0  0  0  0  0  0  0  0  0  0  0
   -0.8070   -1.5220   -0.4240 C   0  0  0  0  0  0  0  0  0  0  0  0
   -0.2330   -2.6220   -0.6090 O   0  0  0  0  0  0  0  0  0  0  0  0
  1  2  1  0
  2  3  2  0
  2  8  1  0
  3  4  1  0
  3  5  1  0
  5  6  2  0
  6  7  1  0
  7  8  2  0
  7 22  1  0
  8  9  1  0
  9 10  2  0
 10 11  1  0
 10 22  1  0
 11 12  1  1
 11 13  1  0
 13 14  1  1
 13 21  1  0
 14 15  2  0
 14 16  1  0
 16 17  1  0
 17 18  2  0
 17 21  1  0
 18 19  1  0
 19 20  1  0
 20 21  2  0
 22 23  2  0
M  END
