
     RDKit          3D

 23 24  0  0  0  0  0  0  0  0999 V2000
   -2.3050   -2.5890    0.9270 C   0  0  0  0  0  0  0  0  0  0  0  0
   -3.0860   -1.6350    0.4750 C   0  0  0  0  0  0  0  0  0  0  0  0
   -4.4560   -1.8670    0.4830 O   0  0  0  0  0  0  0  0  0  0  0  0
   -2.5610   -0.3420   -0.0350 C   0  0  0  0  0  0  0  0  0  0  0  0
   -3.5350    0.4710   -0.4330 C   0  0  0  0  0  0  0  0  0  0  0  0
   -3.4920    1.7960   -0.9820 C   0  0  0  0  0  0  0  0  0  0  0  0
   -2.4930    2.6570   -0.9610 C   0  0  0  0  0  0  0  0  0  0  0  0
   -1.1840    2.4280   -0.3570 C   0  0  0  0  0  0  0  0  0  0  0  0
   -0.6580    1.2760    0.0430 C   0  0  0  0  0  0  0  0  0  0  0  0
    0.6580    1.6870    0.5600 C   0  0  0  0  0  0  0  0  0  0  0  0
    0.6700    2.7980    1.2440 C   0  0  0  0  0  0  0  0  0  0  0  0
    1.9450    3.3350    1.8200 C   0  0  0  0  0  0  0  0  0  0  0  0
    1.8580    0.9640    0.3600 O   0  0  0  0  0  0  0  0  0  0  0  0
    1.9560   -0.3730   -0.0920 C   0  0  0  0  0  0  0  0  0  0  0  0
    3.2240   -1.0480    0.1770 C   0  0  0  0  0  0  0  0  0  0  0  0
    3.3760   -2.2350   -0.1980 O   0  0  0  0  0  0  0  0  0  0  0  0
    4.2700   -0.4320    0.8320 O   0  0  0  0  0  0  0  0  0  0  0  0
    5.4550   -1.1420    1.0550 C   0  0  0  0  0  0  0  0  0  0  0  0
    1.0360   -1.0810   -0.7290 C   0  0  0  0  0  0  0  0  0  0  0  0
    1.4880   -2.3830   -1.0240 O   0  0  0  0  0  0  0  0  0  0  0  0
   -0.3560   -0.7580   -1.1790 C   0  0  1  0  0  0  0  0  0  0  0  0
   -0.9590   -1.9470   -1.8170 C   0  0  0  0  0  0  0  0  0  0  0  0
   -1.1320   -0.1410   -0.0320 C   0  0  2  0  0  0  0  0  0  0  0  0
  1  2  2  0
  2  3  1  0
  2  4  1  0
  4  5  2  0
 23  4  1  6
  5  6  1  0
  6  7  2  0
  7  8  1  0
  8  9  2  0
  9 10  1  0
  9 23  1  0
 10 11  2  3
 10 13  1  0
 11 12  1  0
 13 14  1  0
 14 15  1  0
 14 19  2  0
 15 16  2  0
 15 17  1  0
 17 18  1  0
 19 20  1  0
 19 21  1  0
 21 22  1  1
 21 23  1  0
M  END
