
     RDKit          3D

 23 26  0  0  0  0  0  0  0  0999 V2000
    0.3710   -0.0520   -2.8290 O   0  0  0  0  0  0  0  0  0  0  0  0
    1.1090   -0.0110   -1.6700 C   0  0  0  0  0  0  0  0  0  0  0  0
    2.1860    0.8560   -1.5200 C   0  0  0  0  0  0  0  0  0  0  0  0
    2.9170    0.8860   -0.3520 C   0  0  0  0  0  0  0  0  0  0  0  0
    2.5870    0.0570    0.6750 C   0  0  0  0  0  0  0  0  0  0  0  0
    1.5010   -0.8110    0.5110 C   0  0  0  0  0  0  0  0  0  0  0  0
    0.7570   -0.8600   -0.6420 C   0  0  0  0  0  0  0  0  0  0  0  0
   -0.3760   -1.8110   -0.7260 C   0  0  2  0  0  0  0  0  0  0  0  0
   -0.2440   -2.6380   -1.8680 O   0  0  0  0  0  0  0  0  0  0  0  0
   -1.6780   -1.1290   -0.7280 C   0  0  0  0  0  0  0  0  0  0  0  0
   -2.4330   -1.1280   -1.8810 C   0  0  0  0  0  0  0  0  0  0  0  0
   -3.6720   -0.4950   -1.9280 C   0  0  0  0  0  0  0  0  0  0  0  0
   -4.1400    0.1410   -0.7910 C   0  0  0  0  0  0  0  0  0  0  0  0
   -3.4050    0.1540    0.3730 C   0  0  0  0  0  0  0  0  0  0  0  0
   -2.1640   -0.4950    0.3790 C   0  0  0  0  0  0  0  0  0  0  0  0
   -1.4600   -0.4540    1.5740 O   0  0  0  0  0  0  0  0  0  0  0  0
   -1.7130    0.6400    2.4430 C   0  0  0  0  0  0  0  0  0  0  0  0
   -3.1880    0.7100    2.7010 C   0  0  0  0  0  0  0  0  0  0  0  0
   -3.9090    0.8020    1.4910 O   0  0  0  0  0  0  0  0  0  0  0  0
    3.2840    0.0830    1.7900 C   0  0  0  0  0  0  0  0  0  0  0  0
    4.4370    0.9530    2.0620 C   0  0  0  0  0  0  0  0  0  0  0  0
    4.6950    1.7610    0.9560 O   0  0  0  0  0  0  0  0  0  0  0  0
    3.9480    1.7100   -0.1980 C   0  0  0  0  0  0  0  0  0  0  0  0
  1  2  1  0
  2  3  2  0
  2  7  1  0
  3  4  1  0
  4  5  1  0
  4 23  2  0
  5  6  1  0
  5 20  2  0
  6  7  2  0
  7  8  1  0
  8  9  1  6
  8 10  1  0
 10 11  2  0
 10 15  1  0
 11 12  1  0
 12 13  2  0
 13 14  1  0
 14 15  2  0
 14 19  1  0
 15 16  1  0
 16 17  1  0
 17 18  1  0
 18 19  1  0
 20 21  1  0
 21 22  1  0
 22 23  1  0
M  END
