
     RDKit          3D

 23 26  0  0  0  0  0  0  0  0999 V2000
   -1.7590    4.0270   -0.6030 C   0  0  0  0  0  0  0  0  0  0  0  0
   -1.6390    2.5780   -0.3490 C   0  0  0  0  0  0  0  0  0  0  0  0
   -0.5950    1.8600   -0.8720 C   0  0  0  0  0  0  0  0  0  0  0  0
   -0.4420    0.4750   -0.6540 C   0  0  0  0  0  0  0  0  0  0  0  0
    0.7250   -0.2390   -1.1640 C   0  0  0  0  0  0  0  0  0  0  0  0
    1.9310   -0.2970   -0.3010 C   0  0  2  0  0  0  0  0  0  0  0  0
    3.0440   -1.1240   -0.9860 C   0  0  0  0  0  0  0  0  0  0  0  0
    3.3370   -0.4850   -2.1830 O   0  0  0  0  0  0  0  0  0  0  0  0
    1.8160   -0.5800    1.1340 C   0  0  0  0  0  0  0  0  0  0  0  0
    2.9320    0.2390    1.7990 C   0  0  0  0  0  0  0  0  0  0  0  0
    2.8660    1.4530    1.0440 O   0  0  0  0  0  0  0  0  0  0  0  0
    2.5940    1.0840   -0.2490 C   0  0  0  0  0  0  0  0  0  0  0  0
    2.8400    1.7580   -1.2780 O   0  0  0  0  0  0  0  0  0  0  0  0
   -1.4010   -0.1270    0.1150 C   0  0  0  0  0  0  0  0  0  0  0  0
   -1.3690   -1.4840    0.3640 C   0  0  0  0  0  0  0  0  0  0  0  0
   -2.3420   -2.0720    1.1070 C   0  0  0  0  0  0  0  0  0  0  0  0
   -3.3870   -1.3340    1.6310 C   0  0  0  0  0  0  0  0  0  0  0  0
   -3.4590    0.0130    1.4060 C   0  0  0  0  0  0  0  0  0  0  0  0
   -2.4750    0.6090    0.6540 C   0  0  0  0  0  0  0  0  0  0  0  0
   -2.5850    1.9550    0.4180 C   0  0  0  0  0  0  0  0  0  0  0  0
   -2.0350   -3.4350    1.1820 O   0  0  0  0  0  0  0  0  0  0  0  0
   -0.8850   -3.6740    0.4220 C   0  0  0  0  0  0  0  0  0  0  0  0
   -0.4350   -2.4240   -0.0520 O   0  0  0  0  0  0  0  0  0  0  0  0
  1  2  1  0
  2  3  2  0
  2 20  1  0
  3  4  1  0
  4  5  1  0
  4 14  2  0
  6  5  1  6
  6  7  1  0
  6  9  1  0
  6 12  1  0
  7  8  1  0
  9 10  1  0
 10 11  1  0
 11 12  1  0
 12 13  2  0
 14 15  1  0
 14 19  1  0
 15 16  2  0
 15 23  1  0
 16 17  1  0
 16 21  1  0
 17 18  2  0
 18 19  1  0
 19 20  2  0
 21 22  1  0
 22 23  1  0
M  END
