
     RDKit          3D

 38 39  0  0  0  0  0  0  0  0999 V2000
   -8.0890   -2.8770    4.0770 C   0  0  0  0  0  0  0  0  0  0  0  0
   -6.9940   -2.6630    4.9140 O   0  0  0  0  0  0  0  0  0  0  0  0
   -6.5960   -1.3210    4.8940 C   0  0  0  0  0  0  0  0  0  0  0  0
   -6.2000   -0.8840    3.5220 C   0  0  0  0  0  0  0  0  0  0  0  0
   -7.0250   -0.3280    2.5740 C   0  0  0  0  0  0  0  0  0  0  0  0
   -6.2220   -0.0840    1.4560 C   0  0  0  0  0  0  0  0  0  0  0  0
   -4.9680   -0.5010    1.7840 C   0  0  0  0  0  0  0  0  0  0  0  0
   -3.7850   -0.4480    0.9430 C   0  0  0  0  0  0  0  0  0  0  0  0
   -3.2660    0.5670    0.3290 C   0  0  0  0  0  0  0  0  0  0  0  0
   -2.1200    0.5100   -0.4680 N   0  0  0  0  0  0  0  0  0  0  0  0
   -1.3040   -0.5760   -0.7590 C   0  0  0  0  0  0  0  0  0  0  0  0
   -1.5610   -1.7010   -0.2760 O   0  0  0  0  0  0  0  0  0  0  0  0
   -0.1280   -0.4630   -1.6240 N   0  0  0  0  0  0  0  0  0  0  0  0
    0.1220    0.8420   -2.1500 C   0  0  0  0  0  0  0  0  0  0  0  0
    0.6220   -1.6620   -1.8870 C   0  0  0  0  0  0  0  0  0  0  0  0
    1.6800   -2.0290   -0.9380 C   0  0  2  0  0  0  0  0  0  0  0  0
    1.0790   -2.1340    0.3430 O   0  0  0  0  0  0  0  0  0  0  0  0
    2.9400   -1.3070   -0.8290 C   0  0  2  0  0  0  0  0  0  0  0  0
    2.8590    0.1810   -0.4600 C   0  0  0  0  0  0  0  0  0  0  0  0
    4.2920    0.4900    0.0150 C   0  0  0  0  0  0  0  0  0  0  0  0
    5.0700   -0.6270   -0.0350 O   0  0  0  0  0  0  0  0  0  0  0  0
    5.3680   -1.1540   -1.2810 C   0  0  2  0  0  0  0  0  0  0  0  0
    5.7550   -2.5670   -1.1180 C   0  0  0  0  0  0  0  0  0  0  0  0
    6.8470   -2.9860   -0.2320 C   0  0  0  0  0  0  0  0  0  0  0  0
    8.1200   -2.5740   -0.4500 O   0  0  0  0  0  0  0  0  0  0  0  0
    6.0300   -0.3250   -2.2560 C   0  0  0  0  0  0  0  0  0  0  0  0
    7.3130    0.3490   -2.1160 C   0  0  0  0  0  0  0  0  0  0  0  0
    8.4730   -0.3080   -1.9530 O   0  0  0  0  0  0  0  0  0  0  0  0
    3.8930   -1.3660   -1.9680 C   0  0  0  0  0  0  0  0  0  0  0  0
   -3.8700    1.9030    0.5380 C   0  0  0  0  0  0  0  0  0  0  0  0
   -4.8260    2.1560    1.2730 O   0  0  0  0  0  0  0  0  0  0  0  0
   -3.3360    3.0040   -0.1440 O   0  0  0  0  0  0  0  0  0  0  0  0
   -3.8260    4.3170   -0.0250 C   0  0  2  0  0  0  0  0  0  0  0  0
   -4.3110    4.8900   -1.3190 C   0  0  0  0  0  0  0  0  0  0  0  0
   -2.7730    5.2070    0.5240 C   0  0  0  0  0  0  0  0  0  0  0  0
   -1.4860    4.7160    0.8540 N   0  0  0  0  0  0  0  0  0  0  0  0
   -3.0060    6.4380    0.7110 O   0  0  0  0  0  0  0  0  0  0  0  0
   -5.0000   -0.9640    3.0070 O   0  0  0  0  0  0  0  0  0  0  0  0
  1  2  1  0
  2  3  1  0
  3  4  1  0
  4  5  2  0
  4 38  1  0
  5  6  1  0
  6  7  2  0
  7  8  1  0
  7 38  1  0
  8  9  2  3
  9 10  1  0
  9 30  1  0
 10 11  1  0
 11 12  2  0
 11 13  1  0
 13 14  1  0
 13 15  1  0
 15 16  1  0
 16 17  1  1
 16 18  1  0
 18 19  1  6
 18 29  1  0
 19 20  1  0
 20 21  1  0
 21 22  1  0
 22 23  1  1
 22 26  1  0
 22 29  1  0
 23 24  1  0
 24 25  1  0
 26 27  1  0
 27 28  1  0
 30 31  2  0
 30 32  1  0
 32 33  1  0
 33 34  1  6
 33 35  1  0
 35 36  1  0
 35 37  2  0
M  END
