
     RDKit          3D

 37 38  0  0  0  0  0  0  0  0999 V2000
   -5.9050   -3.9350   -1.4970 C   0  0  0  0  0  0  0  0  0  0  0  0
   -4.4920   -4.0780   -1.0040 C   0  0  0  0  0  0  0  0  0  0  0  0
   -3.6700   -3.0320   -1.3460 O   0  0  0  0  0  0  0  0  0  0  0  0
   -4.1310   -1.8000   -0.8250 C   0  0  2  0  0  0  0  0  0  0  0  0
   -4.3270   -0.8930   -1.9840 C   0  0  0  0  0  0  0  0  0  0  0  0
   -4.7590    0.3730   -1.6920 O   0  0  0  0  0  0  0  0  0  0  0  0
   -4.2610    0.9130   -0.5330 C   0  0  1  0  0  0  0  0  0  0  0  0
   -5.3260    0.9980    0.5600 C   0  0  0  0  0  0  0  0  0  0  0  0
   -4.8020    1.5440    1.7240 O   0  0  0  0  0  0  0  0  0  0  0  0
   -5.8610    1.5730    2.6550 C   0  0  0  0  0  0  0  0  0  0  0  0
   -3.0150    0.2460   -0.0370 C   0  0  2  0  0  0  0  0  0  0  0  0
   -1.9090    0.5090   -0.9610 N   0  0  0  0  0  0  0  0  0  0  0  0
   -0.6360   -0.0180   -0.7540 C   0  0  0  0  0  0  0  0  0  0  0  0
    0.3930    0.6360   -0.2700 C   0  0  0  0  0  0  0  0  0  0  0  0
    0.3190    2.0100    0.1110 C   0  0  0  0  0  0  0  0  0  0  0  0
    1.4090    2.5340    0.5730 O   0  0  0  0  0  0  0  0  0  0  0  0
   -0.7890    2.9230    0.0650 C   0  0  0  0  0  0  0  0  0  0  0  0
   -0.5950    4.1900    0.4900 C   0  0  0  0  0  0  0  0  0  0  0  0
    0.6630    4.5220    0.9420 O   0  0  0  0  0  0  0  0  0  0  0  0
    0.8260    5.6560    1.7640 C   0  0  0  0  0  0  0  0  0  0  0  0
    0.3640    6.8770    1.0190 C   0  0  0  0  0  0  0  0  0  0  0  0
    1.1610    6.9740   -0.1360 O   0  0  0  0  0  0  0  0  0  0  0  0
    1.6400   -0.1350   -0.1420 C   0  0  0  0  0  0  0  0  0  0  0  0
    1.6240   -1.3750   -0.5110 O   0  0  0  0  0  0  0  0  0  0  0  0
    2.8750    0.3070    0.3380 N   0  0  0  0  0  0  0  0  0  0  0  0
    4.0510   -0.5590    0.4100 C   0  0  0  0  0  0  0  0  0  0  0  0
    4.4560   -1.0380   -0.9500 C   0  0  0  0  0  0  0  0  0  0  0  0
    5.6610   -1.9130   -0.8330 C   0  0  0  0  0  0  0  0  0  0  0  0
    6.9090   -1.4620   -1.1790 C   0  0  0  0  0  0  0  0  0  0  0  0
    8.0110   -2.2880   -1.0650 C   0  0  0  0  0  0  0  0  0  0  0  0
    9.2780   -1.8070   -1.4240 O   0  0  0  0  0  0  0  0  0  0  0  0
    7.8490   -3.5700   -0.6010 C   0  0  0  0  0  0  0  0  0  0  0  0
    8.9450   -4.3970   -0.4860 O   0  0  0  0  0  0  0  0  0  0  0  0
    6.5930   -4.0340   -0.2490 C   0  0  0  0  0  0  0  0  0  0  0  0
    5.4990   -3.2030   -0.3660 C   0  0  0  0  0  0  0  0  0  0  0  0
    4.1950   -3.6880   -0.0000 N   0  0  0  0  0  0  0  0  0  0  0  0
   -3.1280   -1.2340    0.1180 C   0  0  0  0  0  0  0  0  0  0  0  0
  1  2  1  0
  2  3  1  0
  4  3  1  6
  4  5  1  0
  4 37  1  0
  5  6  1  0
  6  7  1  0
  7  8  1  1
  7 11  1  0
  8  9  1  0
  9 10  1  0
 11 12  1  6
 11 37  1  0
 12 13  1  0
 13 14  2  3
 14 15  1  0
 14 23  1  0
 15 16  2  0
 15 17  1  0
 17 18  2  3
 18 19  1  0
 19 20  1  0
 20 21  1  0
 21 22  1  0
 23 24  2  0
 23 25  1  0
 25 26  1  0
 26 27  1  0
 27 28  1  0
 28 29  2  0
 28 35  1  0
 29 30  1  0
 30 31  1  0
 30 32  2  0
 32 33  1  0
 32 34  1  0
 34 35  2  0
 35 36  1  0
M  END
