
     RDKit          3D

 45 48  0  0  0  0  0  0  0  0999 V2000
    4.4460   -4.6730    3.3140 C   0  0  0  0  0  0  0  0  0  0  0  0
    3.9480   -4.2910    2.0220 O   0  0  0  0  0  0  0  0  0  0  0  0
    4.0830   -2.9940    1.5970 C   0  0  0  0  0  0  0  0  0  0  0  0
    4.6460   -2.1750    2.3680 O   0  0  0  0  0  0  0  0  0  0  0  0
    3.6370   -2.4900    0.3470 N   0  0  0  0  0  0  0  0  0  0  0  0
    3.8270   -1.0910   -0.0070 C   0  0  2  0  0  0  0  0  0  0  0  0
    2.5610   -0.4290   -0.3660 C   0  0  0  0  0  0  0  0  0  0  0  0
    1.6730   -1.1760   -0.8280 O   0  0  0  0  0  0  0  0  0  0  0  0
    2.3010    0.9520   -0.2200 N   0  0  0  0  0  0  0  0  0  0  0  0
    1.1260    1.6040   -0.5500 N   0  0  2  0  0  0  0  0  0  0  0  0
    1.2930    3.0040   -0.2720 C   0  0  0  0  0  0  0  0  0  0  0  0
    1.2010    3.4510    1.0960 C   0  0  0  0  0  0  0  0  0  0  0  0
    0.7250    4.7460    1.3240 C   0  0  0  0  0  0  0  0  0  0  0  0
    0.6150    5.2580    2.5970 C   0  0  0  0  0  0  0  0  0  0  0  0
    0.9680    4.5180    3.7050 C   0  0  0  0  0  0  0  0  0  0  0  0
    0.8260    5.2000    5.4790 Br  0  0  0  0  0  0  0  0  0  0  0  0
    1.4360    3.2410    3.4810 C   0  0  0  0  0  0  0  0  0  0  0  0
    1.5520    2.7120    2.1870 C   0  0  0  0  0  0  0  0  0  0  0  0
   -0.0330    1.0180   -0.0090 C   0  0  0  0  0  0  0  0  0  0  0  0
   -1.3220    1.6140   -0.5180 C   0  0  1  0  0  0  0  0  0  0  0  0
   -1.4720    2.9610   -0.2330 O   0  0  0  0  0  0  0  0  0  0  0  0
   -1.5230    1.4760   -2.0020 C   0  0  0  0  0  0  0  0  0  0  0  0
   -2.7920    2.1280   -2.4030 C   0  0  0  0  0  0  0  0  0  0  0  0
   -2.7480    3.4740   -2.7750 C   0  0  0  0  0  0  0  0  0  0  0  0
   -3.8980    4.1290   -3.1540 C   0  0  0  0  0  0  0  0  0  0  0  0
   -5.1310    3.4800   -3.1810 C   0  0  0  0  0  0  0  0  0  0  0  0
   -5.1880    2.1670   -2.8220 C   0  0  0  0  0  0  0  0  0  0  0  0
   -4.0220    1.5190   -2.4410 C   0  0  0  0  0  0  0  0  0  0  0  0
   -2.4190    0.8730    0.1670 C   0  0  0  0  0  0  0  0  0  0  0  0
   -3.3590    1.4800    0.7680 O   0  0  0  0  0  0  0  0  0  0  0  0
   -2.5050   -0.5550    0.2110 N   0  0  0  0  0  0  0  0  0  0  0  0
   -3.5720   -1.2610    0.8900 C   0  0  1  0  0  0  0  0  0  0  0  0
   -4.0700   -2.4290    0.1690 C   0  0  0  0  0  0  0  0  0  0  0  0
   -4.3260   -2.6220   -1.1890 C   0  0  0  0  0  0  0  0  0  0  0  0
   -4.8100   -3.8300   -1.6620 C   0  0  0  0  0  0  0  0  0  0  0  0
   -5.0540   -4.8810   -0.8040 C   0  0  0  0  0  0  0  0  0  0  0  0
   -4.7910   -4.6600    0.5300 C   0  0  0  0  0  0  0  0  0  0  0  0
   -4.3090   -3.4690    1.0360 C   0  0  0  0  0  0  0  0  0  0  0  0
   -3.9560   -3.0280    2.4020 C   0  0  0  0  0  0  0  0  0  0  0  0
   -3.0650   -1.8420    2.2140 C   0  0  1  0  0  0  0  0  0  0  0  0
   -1.7230   -2.1070    2.1970 O   0  0  0  0  0  0  0  0  0  0  0  0
    4.7760   -0.9700   -1.1770 C   0  0  2  0  0  0  0  0  0  0  0  0
    4.9510    0.4800   -1.5360 C   0  0  0  0  0  0  0  0  0  0  0  0
    4.3160   -1.7210   -2.3830 C   0  0  0  0  0  0  0  0  0  0  0  0
    6.1580   -1.4920   -0.8180 C   0  0  0  0  0  0  0  0  0  0  0  0
  1  2  1  0
  2  3  1  0
  3  4  2  0
  3  5  1  0
  6  5  1  6
  6  7  1  0
  6 42  1  0
  7  8  2  0
  7  9  1  0
  9 10  1  0
 10 11  1  1
 10 19  1  0
 11 12  1  0
 12 13  2  0
 12 18  1  0
 13 14  1  0
 14 15  2  0
 15 16  1  0
 15 17  1  0
 17 18  2  0
 19 20  1  0
 20 21  1  6
 20 22  1  0
 20 29  1  0
 22 23  1  0
 23 24  2  0
 23 28  1  0
 24 25  1  0
 25 26  2  0
 26 27  1  0
 27 28  2  0
 29 30  2  0
 29 31  1  0
 32 31  1  6
 32 33  1  0
 32 40  1  0
 33 34  2  0
 33 38  1  0
 34 35  1  0
 35 36  2  0
 36 37  1  0
 37 38  2  0
 38 39  1  0
 39 40  1  0
 40 41  1  6
 42 43  1  6
 42 44  1  0
 42 45  1  0
M  CHG  1  10   1
M  END
