
     RDKit          3D

 38 41  0  0  0  0  0  0  0  0999 V2000
    5.4490    1.1270    2.2430 C   0  0  0  0  0  0  0  0  0  0  0  0
    5.0390    1.5320    0.8350 C   0  0  0  0  0  0  0  0  0  0  0  0
    5.3890    0.4660   -0.1250 C   0  0  0  0  0  0  0  0  0  0  0  0
    4.7090   -0.7160   -0.2950 C   0  0  0  0  0  0  0  0  0  0  0  0
    3.5080   -1.1760    0.4220 C   0  0  0  0  0  0  0  0  0  0  0  0
    3.0450   -0.4000    1.2960 O   0  0  0  0  0  0  0  0  0  0  0  0
    2.9360   -2.3990    0.1340 O   0  0  0  0  0  0  0  0  0  0  0  0
    1.7800   -2.8100    0.8440 C   0  0  0  0  0  0  0  0  0  0  0  0
    0.6840   -1.8350    0.6220 C   0  0  0  0  0  0  0  0  0  0  0  0
    0.7670   -0.8060   -0.0850 O   0  0  0  0  0  0  0  0  0  0  0  0
   -0.5530   -2.0040    1.2030 O   0  0  0  0  0  0  0  0  0  0  0  0
   -1.6010   -1.1280    1.0290 C   0  0  2  0  0  0  0  0  0  0  0  0
   -1.7710   -0.4560    2.4030 C   0  0  0  0  0  0  0  0  0  0  0  0
   -2.7760    0.6200    2.2310 C   0  0  0  0  0  0  0  0  0  0  0  0
   -2.5710    1.9050    2.6740 C   0  0  0  0  0  0  0  0  0  0  0  0
   -3.5650    2.8290    2.4670 C   0  0  0  0  0  0  0  0  0  0  0  0
   -3.3600    4.0940    2.9040 F   0  0  0  0  0  0  0  0  0  0  0  0
   -4.7480    2.4990    1.8320 C   0  0  0  0  0  0  0  0  0  0  0  0
   -4.9290    1.2030    1.3960 C   0  0  0  0  0  0  0  0  0  0  0  0
   -3.9420    0.2780    1.6010 C   0  0  0  0  0  0  0  0  0  0  0  0
   -4.1170   -1.1130    1.1440 C   0  0  2  0  0  0  0  0  0  0  0  0
   -2.8760   -1.6910    0.5060 C   0  0  1  0  0  0  0  0  0  0  0  0
   -2.9170   -1.5030   -0.9920 C   0  0  0  0  0  0  0  0  0  0  0  0
   -3.6910   -0.2720   -1.4240 C   0  0  1  0  0  0  0  0  0  0  0  0
   -3.5690   -0.1540   -2.9260 C   0  0  0  0  0  0  0  0  0  0  0  0
   -4.3190    1.0530   -3.4170 C   0  0  0  0  0  0  0  0  0  0  0  0
   -5.0820   -0.5030   -0.9960 C   0  0  0  0  0  0  0  0  0  0  0  0
   -6.0350   -0.1540   -1.7030 O   0  0  0  0  0  0  0  0  0  0  0  0
   -5.2740   -1.1350    0.2500 N   0  0  0  0  0  0  0  0  0  0  0  0
   -6.7980   -1.8810    0.6630 S   0  0  0  0  0  0  0  0  0  0  0  0
   -8.1840   -0.7370    0.6610 C   0  0  0  0  0  0  0  0  0  0  0  0
    5.3600   -1.4000   -1.2680 N   0  0  0  0  0  0  0  0  0  0  0  0
    6.4170   -0.7040   -1.7170 C   0  0  0  0  0  0  0  0  0  0  0  0
    7.3880   -1.1010   -2.7770 C   0  0  0  0  0  0  0  0  0  0  0  0
    6.4490    0.4780   -1.0050 C   0  0  0  0  0  0  0  0  0  0  0  0
    7.4570    1.5430   -1.1840 C   0  0  0  0  0  0  0  0  0  0  0  0
    7.2570    2.6510   -2.1520 C   0  0  0  0  0  0  0  0  0  0  0  0
    8.5300    1.5510   -0.5170 O   0  0  0  0  0  0  0  0  0  0  0  0
  1  2  1  0
  2  3  1  0
  3  4  2  0
  3 35  1  0
  4  5  1  0
  4 32  1  0
  5  6  2  0
  5  7  1  0
  7  8  1  0
  8  9  1  0
  9 10  2  0
  9 11  1  0
 12 11  1  1
 12 13  1  0
 12 22  1  0
 13 14  1  0
 14 15  2  0
 14 20  1  0
 15 16  1  0
 16 17  1  0
 16 18  2  0
 18 19  1  0
 19 20  2  0
 20 21  1  0
 21 22  1  0
 21 29  1  6
 22 23  1  6
 23 24  1  0
 24 25  1  6
 24 27  1  0
 25 26  1  0
 27 28  2  0
 27 29  1  0
 29 30  1  0
 30 31  1  0
 32 33  1  0
 33 34  1  0
 33 35  2  0
 35 36  1  0
 36 37  1  0
 36 38  2  0
M  END
