
     RDKit          3D

 38 39  0  0  0  0  0  0  0  0999 V2000
   -6.6590    2.6900   -4.0290 C   0  0  0  0  0  0  0  0  0  0  0  0
   -5.9070    1.7660   -3.3250 O   0  0  0  0  0  0  0  0  0  0  0  0
   -6.6460    0.7560   -2.7640 C   0  0  0  0  0  0  0  0  0  0  0  0
   -5.6450   -0.1420   -2.0180 C   0  0  0  0  0  0  0  0  0  0  0  0
   -5.0540    0.7110   -1.0540 O   0  0  0  0  0  0  0  0  0  0  0  0
   -4.0690    0.2840   -0.1580 C   0  0  0  0  0  0  0  0  0  0  0  0
   -3.7220   -0.9260   -0.2610 O   0  0  0  0  0  0  0  0  0  0  0  0
   -3.4740    1.1630    0.8350 C   0  0  0  0  0  0  0  0  0  0  0  0
   -3.8000    2.4780    1.0570 C   0  0  0  0  0  0  0  0  0  0  0  0
   -3.0710    2.9440    2.0470 O   0  0  0  0  0  0  0  0  0  0  0  0
   -2.2590    2.0200    2.5220 C   0  0  0  0  0  0  0  0  0  0  0  0
   -1.3030    2.1700    3.6220 C   0  0  0  0  0  0  0  0  0  0  0  0
   -1.1220    3.3660    4.3150 N   0  0  0  0  0  0  0  0  0  0  0  0
   -0.6160    1.1390    3.9420 O   0  0  0  0  0  0  0  0  0  0  0  0
   -2.5020    0.8910    1.7660 C   0  0  0  0  0  0  0  0  0  0  0  0
   -1.8250   -0.4130    1.8840 C   0  0  0  0  0  0  0  0  0  0  0  0
   -2.3820   -1.2210    2.6200 O   0  0  0  0  0  0  0  0  0  0  0  0
   -0.6530   -0.6440    1.1910 N   0  0  0  0  0  0  0  0  0  0  0  0
   -0.2150    0.5250    0.3570 C   0  0  0  0  0  0  0  0  0  0  0  0
    0.7680    0.0690   -0.7020 C   0  0  0  0  0  0  0  0  0  0  0  0
    2.0270   -0.4600   -0.0750 C   0  0  2  0  0  0  0  0  0  0  0  0
    2.9730    0.6430    0.2830 C   0  0  0  0  0  0  0  0  0  0  0  0
    3.4540    1.5530   -0.7550 C   0  0  0  0  0  0  0  0  0  0  0  0
    4.2350    1.0110   -1.8990 C   0  0  2  0  0  0  0  0  0  0  0  0
    5.4100    0.3760   -1.5200 O   0  0  0  0  0  0  0  0  0  0  0  0
    4.6730    2.2430   -2.7160 C   0  0  0  0  0  0  0  0  0  0  0  0
    5.4700    1.7580   -3.8960 C   0  0  0  0  0  0  0  0  0  0  0  0
    4.7270    0.9180   -4.7080 O   0  0  0  0  0  0  0  0  0  0  0  0
    2.6570   -1.4720   -0.9280 C   0  0  0  0  0  0  0  0  0  0  0  0
    3.8530   -2.1340   -0.5380 N   0  0  0  0  0  0  0  0  0  0  0  0
    2.1710   -1.8170   -2.0620 O   0  0  0  0  0  0  0  0  0  0  0  0
    1.6610   -1.1850    1.2530 C   0  0  2  0  0  0  0  0  0  0  0  0
    2.5820   -2.2050    1.4300 O   0  0  0  0  0  0  0  0  0  0  0  0
    0.2290   -1.7310    1.0670 C   0  0  1  0  0  0  0  0  0  0  0  0
    0.0420   -2.9920    1.7680 C   0  0  0  0  0  0  0  0  0  0  0  0
    0.0310   -3.1680    3.2060 C   0  0  1  0  0  0  0  0  0  0  0  0
   -0.2050   -4.6990    3.4320 C   0  0  0  0  0  0  0  0  0  0  0  0
    1.3460   -2.9370    3.9360 C   0  0  0  0  0  0  0  0  0  0  0  0
  1  2  1  0
  2  3  1  0
  3  4  1  0
  4  5  1  0
  5  6  1  0
  6  7  2  0
  6  8  1  0
  8  9  2  0
  8 15  1  0
  9 10  1  0
 10 11  1  0
 11 12  1  0
 11 15  2  0
 12 13  1  0
 12 14  2  0
 15 16  1  0
 16 17  2  0
 16 18  1  0
 18 19  1  0
 18 34  1  0
 19 20  1  0
 20 21  1  0
 21 22  1  1
 21 29  1  0
 21 32  1  0
 22 23  1  0
 23 24  1  0
 24 25  1  1
 24 26  1  0
 26 27  1  0
 27 28  1  0
 29 30  1  0
 29 31  2  0
 32 33  1  6
 32 34  1  0
 34 35  1  1
 35 36  1  0
 36 37  1  6
 36 38  1  0
M  END
