
     RDKit          3D

 38 39  0  0  0  0  0  0  0  0999 V2000
   -2.3900   -5.8710   -1.5550 C   0  0  0  0  0  0  0  0  0  0  0  0
   -2.4330   -4.4960   -1.2430 O   0  0  0  0  0  0  0  0  0  0  0  0
   -3.5300   -3.7620   -1.6120 C   0  0  0  0  0  0  0  0  0  0  0  0
   -4.6650   -4.2190   -2.2880 C   0  0  0  0  0  0  0  0  0  0  0  0
   -5.4680   -3.1970   -2.4400 O   0  0  0  0  0  0  0  0  0  0  0  0
   -4.9300   -2.1010   -1.9060 C   0  0  0  0  0  0  0  0  0  0  0  0
   -5.5720   -0.7840   -1.9070 C   0  0  0  0  0  0  0  0  0  0  0  0
   -3.7040   -2.4170   -1.3720 C   0  0  0  0  0  0  0  0  0  0  0  0
   -2.8360   -1.5130   -0.7210 N   0  0  0  0  0  0  0  0  0  0  0  0
   -2.8740   -1.2680    0.6800 C   0  0  0  0  0  0  0  0  0  0  0  0
   -3.7340   -1.9040    1.3410 O   0  0  0  0  0  0  0  0  0  0  0  0
   -1.9500   -0.3090    1.3590 C   0  0  2  0  0  0  0  0  0  0  0  0
   -2.7530    0.7240    2.1160 C   0  0  0  0  0  0  0  0  0  0  0  0
   -3.6600    1.5110    1.1910 C   0  0  2  0  0  0  0  0  0  0  0  0
   -2.8720    2.1540    0.2480 O   0  0  0  0  0  0  0  0  0  0  0  0
   -4.4340    2.5450    1.9890 C   0  0  0  0  0  0  0  0  0  0  0  0
   -5.3530    3.3550    1.1070 C   0  0  2  0  0  0  0  0  0  0  0  0
   -4.8370    4.1670   -0.0060 C   0  0  0  0  0  0  0  0  0  0  0  0
   -5.3320    4.8800    1.2410 C   0  0  0  0  0  0  0  0  0  0  0  0
   -1.0710    0.2910    0.4270 O   0  0  0  0  0  0  0  0  0  0  0  0
    0.3020    0.1630    0.4960 C   0  0  0  0  0  0  0  0  0  0  0  0
    0.7990   -0.5130    1.4240 O   0  0  0  0  0  0  0  0  0  0  0  0
    1.1620    0.8040   -0.4930 C   0  0  1  0  0  0  0  0  0  0  0  0
    0.8590    0.3090   -1.9090 C   0  0  0  0  0  0  0  0  0  0  0  0
    0.9650    2.3250   -0.4980 C   0  0  0  0  0  0  0  0  0  0  0  0
    2.5730    0.5620   -0.2630 N   0  0  0  0  0  0  0  0  0  0  0  0
    3.5140    1.1350   -1.1550 C   0  0  0  0  0  0  0  0  0  0  0  0
    3.1080    1.8340   -2.1180 O   0  0  0  0  0  0  0  0  0  0  0  0
    4.9690    0.9500   -1.0110 C   0  0  0  0  0  0  0  0  0  0  0  0
    5.2980    0.1460    0.1060 O   0  0  0  0  0  0  0  0  0  0  0  0
    6.6160   -0.1520    0.4230 C   0  0  0  0  0  0  0  0  0  0  0  0
    6.9970   -1.4130    0.3250 C   0  0  0  0  0  0  0  0  0  0  0  0
    6.0950   -2.4500   -0.0930 C   0  0  0  0  0  0  0  0  0  0  0  0
    6.4590   -3.8130   -0.2130 N   0  0  0  0  0  0  0  0  0  0  0  0
    4.8890   -2.1360   -0.3770 O   0  0  0  0  0  0  0  0  0  0  0  0
    7.5780    0.8970    0.8600 C   0  0  1  0  0  0  0  0  0  0  0  0
    7.0870    1.5720    2.1240 C   0  0  0  0  0  0  0  0  0  0  0  0
    8.7940    0.3090    1.1270 O   0  0  0  0  0  0  0  0  0  0  0  0
  1  2  1  0
  2  3  1  0
  3  4  2  0
  3  8  1  0
  4  5  1  0
  5  6  1  0
  6  7  1  0
  6  8  2  0
  8  9  1  0
  9 10  1  0
 10 11  2  0
 10 12  1  0
 12 13  1  6
 12 20  1  0
 13 14  1  0
 14 15  1  6
 14 16  1  0
 17 16  1  1
 17 18  1  0
 17 19  1  0
 18 19  1  0
 20 21  1  0
 21 22  2  0
 21 23  1  0
 23 24  1  6
 23 25  1  0
 23 26  1  0
 26 27  1  0
 27 28  2  0
 27 29  1  0
 29 30  1  0
 30 31  1  0
 31 32  2  3
 31 36  1  0
 32 33  1  0
 33 34  1  0
 33 35  2  0
 36 37  1  1
 36 38  1  0
M  END
