
     RDKit          3D

 14 15  0  0  0  0  0  0  0  0999 V2000
    0.2270   -1.5620    1.1200 C   0  0  0  0  0  0  0  0  0  0  0  0
    0.1720   -0.5610    0.0040 C   0  0  2  0  0  0  0  0  0  0  0  0
   -0.1260   -1.2390   -1.3060 C   0  0  0  0  0  0  0  0  0  0  0  0
    1.4470    0.2210   -0.1540 C   0  0  2  0  0  0  0  0  0  0  0  0
    2.3240    0.1010    1.0970 C   0  0  0  0  0  0  0  0  0  0  0  0
    3.4800    0.8170    0.8340 O   0  0  0  0  0  0  0  0  0  0  0  0
    1.1310    1.5150   -0.4410 O   0  0  0  0  0  0  0  0  0  0  0  0
   -0.2030    1.7340   -0.2510 C   0  0  1  0  0  0  0  0  0  0  0  0
   -0.9750    1.8920   -1.5100 C   0  0  0  0  0  0  0  0  0  0  0  0
   -0.5690    2.5770   -2.4840 O   0  0  0  0  0  0  0  0  0  0  0  0
   -2.1630    1.1550   -1.3560 N   0  0  0  0  0  0  0  0  0  0  0  0
   -2.1060    0.3790   -0.3270 C   0  0  0  0  0  0  0  0  0  0  0  0
   -3.1670   -0.4820    0.0690 N   0  0  0  0  0  0  0  0  0  0  0  0
   -0.8220    0.5080    0.3570 C   0  0  1  0  0  0  0  0  0  0  0  0
  2  1  1  1
  2  3  1  0
  2  4  1  0
  2 14  1  0
  4  5  1  1
  4  7  1  0
  5  6  1  0
  8  7  1  6
  8  9  1  0
  8 14  1  0
  9 10  2  0
  9 11  1  0
 11 12  2  0
 12 13  1  0
 14 12  1  6
M  END
