
     RDKit          3D

 14 15  0  0  0  0  0  0  0  0999 V2000
   -0.8290   -2.9050    0.7440 O   0  0  0  0  0  0  0  0  0  0  0  0
   -1.0950   -1.5620    0.8290 C   0  0  0  0  0  0  0  0  0  0  0  0
   -0.7710   -0.8130   -0.4420 C   0  0  2  0  0  0  0  0  0  0  0  0
    0.6640   -0.9140   -0.8300 C   0  0  1  0  0  0  0  0  0  0  0  0
    0.7890   -0.3670   -2.1220 O   0  0  0  0  0  0  0  0  0  0  0  0
    1.6020   -0.1790    0.0610 C   0  0  2  0  0  0  0  0  0  0  0  0
    2.1290   -1.0470    1.0420 O   0  0  0  0  0  0  0  0  0  0  0  0
    1.0140    1.0140    0.7350 C   0  0  1  0  0  0  0  0  0  0  0  0
    1.8900    2.0990    0.6740 O   0  0  0  0  0  0  0  0  0  0  0  0
   -0.2910    1.4370    0.2010 C   0  0  0  0  0  0  0  0  0  0  0  0
   -0.8670    2.6630    0.1580 N   0  0  0  0  0  0  0  0  0  0  0  0
   -2.0680    2.5420   -0.4270 C   0  0  0  0  0  0  0  0  0  0  0  0
   -2.2640    1.2280   -0.7640 C   0  0  0  0  0  0  0  0  0  0  0  0
   -1.1590    0.5700   -0.3680 N   0  0  0  0  0  0  0  0  0  0  0  0
  1  2  1  0
  3  2  1  1
  3  4  1  0
  3 14  1  0
  4  5  1  6
  4  6  1  0
  6  7  1  1
  6  8  1  0
  8  9  1  6
  8 10  1  0
 10 11  2  0
 10 14  1  0
 11 12  1  0
 12 13  2  0
 13 14  1  0
M  END
