
     RDKit          3D

 14 15  0  0  0  0  0  0  0  0999 V2000
    2.5070    0.0770   -2.1500 N   0  0  0  0  0  0  0  0  0  0  0  0
    1.9830   -0.0770   -0.9810 C   0  0  0  0  0  0  0  0  0  0  0  0
    2.3170   -1.1440   -0.1380 O   0  0  0  0  0  0  0  0  0  0  0  0
    2.0450   -0.9090    1.2520 C   0  0  0  0  0  0  0  0  0  0  0  0
    0.5870   -0.5960    1.4830 C   0  0  0  0  0  0  0  0  0  0  0  0
   -0.0730    0.0260    0.2690 C   0  0  2  0  0  0  0  0  0  0  0  0
   -1.2700    0.8640    0.6570 C   0  0  0  0  0  0  0  0  0  0  0  0
   -2.2670    0.8370   -0.4820 C   0  0  0  0  0  0  0  0  0  0  0  0
   -2.7880   -0.5370   -0.5290 N   0  0  0  0  0  0  0  0  0  0  0  0
   -1.7680   -1.5570   -0.5750 C   0  0  0  0  0  0  0  0  0  0  0  0
   -2.0700   -2.7590   -0.6150 O   0  0  0  0  0  0  0  0  0  0  0  0
   -0.4580   -1.0740   -0.5700 O   0  0  0  0  0  0  0  0  0  0  0  0
    0.9790    0.8660   -0.4250 C   0  0  2  0  0  0  0  0  0  0  0  0
    0.4580    1.7170   -1.3720 O   0  0  0  0  0  0  0  0  0  0  0  0
  1  2  2  0
  2  3  1  0
  2 13  1  0
  3  4  1  0
  4  5  1  0
  6  5  1  1
  6  7  1  0
  6 12  1  0
  6 13  1  0
  7  8  1  0
  8  9  1  0
  9 10  1  0
 10 11  2  0
 10 12  1  0
 13 14  1  6
M  END
