
     RDKit          3D

 11 11  0  0  0  0  0  0  0  0999 V2000
    3.0940    1.1480   -0.0260 C   0  0  0  0  0  0  0  0  0  0  0  0
    2.3630   -0.0290    0.1800 O   0  0  0  0  0  0  0  0  0  0  0  0
    0.9840   -0.1260    0.1000 C   0  0  0  0  0  0  0  0  0  0  0  0
    0.1690    0.9440   -0.1950 C   0  0  0  0  0  0  0  0  0  0  0  0
   -1.1990    0.7500   -0.2520 C   0  0  0  0  0  0  0  0  0  0  0  0
   -2.0060    1.8340   -0.5490 O   0  0  0  0  0  0  0  0  0  0  0  0
   -1.7800   -0.4760   -0.0240 C   0  0  0  0  0  0  0  0  0  0  0  0
   -3.1930   -0.5700   -0.1070 N   0  0  0  0  0  0  0  0  0  0  0  0
   -0.9680   -1.5590    0.2730 C   0  0  0  0  0  0  0  0  0  0  0  0
    0.4130   -1.3620    0.3300 C   0  0  0  0  0  0  0  0  0  0  0  0
    1.1850   -2.4790    0.6320 O   0  0  0  0  0  0  0  0  0  0  0  0
  1  2  1  0
  2  3  1  0
  3  4  2  0
  3 10  1  0
  4  5  1  0
  5  6  1  0
  5  7  2  0
  7  8  1  0
  7  9  1  0
  9 10  2  0
 10 11  1  0
M  END
