
     RDKit          3D

 18 19  0  0  0  0  0  0  0  0999 V2000
    0.9870   -1.3110    1.5560 C   0  0  0  0  0  0  0  0  0  0  0  0
    0.4140   -1.2610    0.1890 C   0  0  0  0  0  0  0  0  0  0  0  0
    1.1770   -1.0380   -0.8380 C   0  0  0  0  0  0  0  0  0  0  0  0
    2.6290   -0.8070   -0.8270 C   0  0  0  0  0  0  0  0  0  0  0  0
    3.4780   -1.4540   -1.6830 C   0  0  0  0  0  0  0  0  0  0  0  0
    5.0800   -0.7670   -1.3020 S   0  0  0  0  0  0  0  0  0  0  0  0
    4.3130    0.3720    0.0500 C   0  0  0  0  0  0  0  0  0  0  0  0
    5.2580    1.2370    0.7410 N   0  0  0  0  0  0  0  0  0  0  0  0
    3.2280    0.0610   -0.0460 N   0  0  0  0  0  0  0  0  0  0  0  0
   -0.9450   -1.4490   -0.0530 O   0  0  0  0  0  0  0  0  0  0  0  0
   -1.8640   -0.4350   -0.1210 C   0  0  0  0  0  0  0  0  0  0  0  0
   -1.4860    0.8720    0.0620 C   0  0  0  0  0  0  0  0  0  0  0  0
   -2.4450    1.8860   -0.0130 C   0  0  0  0  0  0  0  0  0  0  0  0
   -2.1140    3.2580    0.1680 N   0  0  0  0  0  0  0  0  0  0  0  0
   -3.7710    1.6070   -0.2660 C   0  0  0  0  0  0  0  0  0  0  0  0
   -4.1440    0.2950   -0.4470 C   0  0  0  0  0  0  0  0  0  0  0  0
   -3.1830   -0.7140   -0.3730 C   0  0  0  0  0  0  0  0  0  0  0  0
   -3.5820   -2.0530   -0.5690 N   0  0  0  0  0  0  0  0  0  0  0  0
  1  2  1  0
  2  3  2  3
  2 10  1  0
  3  4  1  0
  4  5  2  0
  4  9  1  0
  5  6  1  0
  6  7  1  0
  7  8  1  0
  7  9  2  0
 10 11  1  0
 11 12  2  0
 11 17  1  0
 12 13  1  0
 13 14  1  0
 13 15  2  0
 15 16  1  0
 16 17  2  0
 17 18  1  0
M  END
