
     RDKit          3D

 19 20  0  0  0  0  0  0  0  0999 V2000
   -3.5500    1.9160   -0.4500 C   0  0  0  0  0  0  0  0  0  0  0  0
   -3.7530    0.7010    0.4600 C   0  0  1  0  0  0  0  0  0  0  0  0
   -2.9400   -0.4260    0.0690 N   0  0  0  0  0  0  0  0  0  0  0  0
   -1.5010   -0.3460    0.0340 C   0  0  0  0  0  0  0  0  0  0  0  0
   -1.0470    0.7530    0.3630 O   0  0  0  0  0  0  0  0  0  0  0  0
   -0.7050   -1.4330   -0.3440 N   0  0  0  0  0  0  0  0  0  0  0  0
    0.6910   -1.3970   -0.4010 C   0  0  0  0  0  0  0  0  0  0  0  0
    1.3120   -2.6440   -0.5500 C   0  0  0  0  0  0  0  0  0  0  0  0
    2.6720   -2.6990   -0.6270 C   0  0  0  0  0  0  0  0  0  0  0  0
    3.4560   -1.5720   -0.5640 C   0  0  0  0  0  0  0  0  0  0  0  0
    4.8620   -1.7660   -0.6560 N   0  0  0  0  0  0  0  0  0  0  0  0
    2.8660   -0.3200   -0.4160 C   0  0  0  0  0  0  0  0  0  0  0  0
    3.7310    0.7780   -0.3610 N   0  0  0  0  0  0  0  0  0  0  0  0
    3.4750    2.1420   -0.2170 C   0  0  0  0  0  0  0  0  0  0  0  0
    4.5400    3.0720   -0.1890 O   0  0  0  0  0  0  0  0  0  0  0  0
    2.0070    2.7770   -0.0750 S   0  0  0  0  0  0  0  0  0  0  0  0
    1.4950   -0.2880   -0.3410 C   0  0  0  0  0  0  0  0  0  0  0  0
   -4.0240    1.0010    1.8820 C   0  0  0  0  0  0  0  0  0  0  0  0
   -5.1200    0.5300    0.9680 C   0  0  0  0  0  0  0  0  0  0  0  0
  2  1  1  6
  2  3  1  0
  2 18  1  0
  2 19  1  0
  3  4  1  0
  4  5  2  0
  4  6  1  0
  6  7  1  0
  7  8  2  0
  7 17  1  0
  8  9  1  0
  9 10  2  0
 10 11  1  0
 10 12  1  0
 12 13  1  0
 12 17  2  0
 13 14  1  0
 14 15  1  0
 14 16  2  0
 18 19  1  0
M  END
