
     RDKit          3D

 19 20  0  0  0  0  0  0  0  0999 V2000
    6.4620    0.1190   -0.3380 N   0  0  0  0  0  0  0  0  0  0  0  0
    5.0570    0.2460   -0.1700 C   0  0  0  0  0  0  0  0  0  0  0  0
    4.1960   -0.7330   -0.6210 C   0  0  0  0  0  0  0  0  0  0  0  0
    2.8410   -0.5640   -0.4340 C   0  0  0  0  0  0  0  0  0  0  0  0
    2.3550    0.5630    0.1910 C   0  0  0  0  0  0  0  0  0  0  0  0
    0.9530    0.6870    0.3570 N   0  0  0  0  0  0  0  0  0  0  0  0
    0.0840   -0.3300   -0.1130 C   0  0  0  0  0  0  0  0  0  0  0  0
   -1.3530   -0.1370    0.0910 C   0  0  0  0  0  0  0  0  0  0  0  0
   -1.8780    0.9560    0.7020 C   0  0  0  0  0  0  0  0  0  0  0  0
   -3.2650    1.0890    0.8720 C   0  0  0  0  0  0  0  0  0  0  0  0
   -3.9260    2.5310    1.6740 S   0  0  0  0  0  0  0  0  0  0  0  0
   -4.1100    0.1100    0.4200 C   0  0  0  0  0  0  0  0  0  0  0  0
   -5.5050    0.2550    0.5960 N   0  0  0  0  0  0  0  0  0  0  0  0
   -3.5820   -1.0190   -0.2100 C   0  0  0  0  0  0  0  0  0  0  0  0
   -4.4990   -1.9500   -0.6320 O   0  0  0  0  0  0  0  0  0  0  0  0
   -2.2310   -1.1200   -0.3600 C   0  0  0  0  0  0  0  0  0  0  0  0
   -1.6730   -2.2140   -0.9730 O   0  0  0  0  0  0  0  0  0  0  0  0
    3.2230    1.4970    0.6180 N   0  0  0  0  0  0  0  0  0  0  0  0
    4.5370    1.3500    0.4460 C   0  0  0  0  0  0  0  0  0  0  0  0
  1  2  1  0
  2  3  2  0
  2 19  1  0
  3  4  1  0
  4  5  2  0
  5  6  1  0
  5 18  1  0
  6  7  1  0
  7  8  1  0
  8  9  2  0
  8 16  1  0
  9 10  1  0
 10 11  1  0
 10 12  2  0
 12 13  1  0
 12 14  1  0
 14 15  1  0
 14 16  2  0
 16 17  1  0
 18 19  2  0
M  END
