
     RDKit          3D

 19 20  0  0  0  0  0  0  0  0999 V2000
   -6.1720    0.4910    0.5560 N   0  0  0  0  0  0  0  0  0  0  0  0
   -5.5540    1.7480    0.3120 C   0  0  0  0  0  0  0  0  0  0  0  0
   -6.2440    2.7800    0.2090 O   0  0  0  0  0  0  0  0  0  0  0  0
   -4.0780    1.8200    0.1810 C   0  0  0  0  0  0  0  0  0  0  0  0
   -3.5010    0.5450    0.3310 O   0  0  0  0  0  0  0  0  0  0  0  0
   -2.1630    0.2790    0.2630 C   0  0  0  0  0  0  0  0  0  0  0  0
   -1.2520    1.2890    0.0330 C   0  0  0  0  0  0  0  0  0  0  0  0
    0.0880    0.9900   -0.0300 C   0  0  0  0  0  0  0  0  0  0  0  0
    0.5780   -0.3230    0.1320 C   0  0  0  0  0  0  0  0  0  0  0  0
    1.9630   -0.5370    0.0780 N   0  0  0  0  0  0  0  0  0  0  0  0
    2.6830   -1.6970   -0.1910 C   0  0  0  0  0  0  0  0  0  0  0  0
    1.9350   -3.1230   -0.5570 S   0  0  0  0  0  0  0  0  0  0  0  0
    4.1170   -1.6560   -0.1760 N   0  0  0  0  0  0  0  0  0  0  0  0
    4.8090   -0.4320    0.1060 C   0  0  2  0  0  0  0  0  0  0  0  0
    4.6940    0.7630   -0.7850 C   0  0  0  0  0  0  0  0  0  0  0  0
    5.9520   -0.0430   -0.8120 C   0  0  0  0  0  0  0  0  0  0  0  0
   -0.3340   -1.3230    0.3610 C   0  0  0  0  0  0  0  0  0  0  0  0
   -1.7040   -1.0090    0.4240 C   0  0  0  0  0  0  0  0  0  0  0  0
   -2.6650   -2.0190    0.6580 N   0  0  0  0  0  0  0  0  0  0  0  0
  1  2  1  0
  2  3  2  0
  2  4  1  0
  4  5  1  0
  5  6  1  0
  6  7  2  0
  6 18  1  0
  7  8  1  0
  8  9  2  0
  9 10  1  0
  9 17  1  0
 10 11  1  0
 11 12  2  0
 11 13  1  0
 14 13  1  6
 14 15  1  0
 14 16  1  0
 15 16  1  0
 17 18  2  0
 18 19  1  0
M  END
