
     RDKit          3D

 14 14  0  0  0  0  0  0  0  0999 V2000
   -2.2680    2.9100    0.4290 N   0  0  0  0  0  0  0  0  0  0  0  0
   -1.0930    2.1110    0.3600 C   0  0  0  0  0  0  0  0  0  0  0  0
   -1.1910    0.8990   -0.1210 C   0  0  0  0  0  0  0  0  0  0  0  0
   -2.4230    0.4000   -0.5570 O   0  0  0  0  0  0  0  0  0  0  0  0
   -2.7930   -0.9590   -0.4350 C   0  0  0  0  0  0  0  0  0  0  0  0
   -1.6620   -1.9020   -0.6150 C   0  0  0  0  0  0  0  0  0  0  0  0
   -0.4160   -1.2700   -0.7940 O   0  0  0  0  0  0  0  0  0  0  0  0
   -0.0770   -0.0250   -0.2520 C   0  0  0  0  0  0  0  0  0  0  0  0
    1.1540    0.2420    0.0960 C   0  0  0  0  0  0  0  0  0  0  0  0
    1.6050    1.4060    0.6300 O   0  0  0  0  0  0  0  0  0  0  0  0
    2.2110   -0.8170   -0.0980 C   0  0  2  0  0  0  0  0  0  0  0  0
    2.7490   -1.0870    1.2200 N   0  0  0  0  0  0  0  0  0  0  0  0
    3.3020   -0.2280   -0.9550 C   0  0  0  0  0  0  0  0  0  0  0  0
    3.0780    0.0810   -2.1120 O   0  0  0  0  0  0  0  0  0  0  0  0
  1  2  1  0
  2  3  2  3
  3  4  1  0
  3  8  1  0
  4  5  1  0
  5  6  1  0
  6  7  1  0
  7  8  1  0
  8  9  2  3
  9 10  1  0
  9 11  1  0
 11 12  1  1
 11 13  1  0
 13 14  2  0
M  END
