
     RDKit          3D

 14 14  0  0  0  0  0  0  0  0999 V2000
    3.0700    1.7080    0.1860 C   0  0  0  0  0  0  0  0  0  0  0  0
    1.6150    1.3230    0.2770 C   0  0  1  0  0  0  0  0  0  0  0  0
    0.8210    2.1060   -0.6000 O   0  0  0  0  0  0  0  0  0  0  0  0
   -0.5350    1.8360   -0.6060 C   0  0  0  0  0  0  0  0  0  0  0  0
   -1.4000    2.7240   -0.8490 O   0  0  0  0  0  0  0  0  0  0  0  0
   -1.0380    0.4540   -0.3190 C   0  0  0  0  0  0  0  0  0  0  0  0
   -2.3030    0.2230   -0.3290 C   0  0  0  0  0  0  0  0  0  0  0  0
   -2.9440   -0.9810   -0.0890 N   0  0  0  0  0  0  0  0  0  0  0  0
   -3.1760    1.3340   -0.6220 N   0  0  0  0  0  0  0  0  0  0  0  0
    0.0440   -0.4730   -0.0570 C   0  0  0  0  0  0  0  0  0  0  0  0
   -0.1840   -1.7360    0.2160 C   0  0  0  0  0  0  0  0  0  0  0  0
    0.9620   -2.6770    0.4830 C   0  0  0  0  0  0  0  0  0  0  0  0
    2.1810   -2.0440    0.4000 O   0  0  0  0  0  0  0  0  0  0  0  0
    1.3910   -0.0120   -0.0950 O   0  0  0  0  0  0  0  0  0  0  0  0
  2  1  1  6
  2  3  1  0
  2 14  1  0
  3  4  1  0
  4  5  2  0
  4  6  1  0
  6  7  2  3
  6 10  1  0
  7  8  1  0
  7  9  1  0
 10 11  2  3
 10 14  1  0
 11 12  1  0
 12 13  1  0
M  END
