
     RDKit          3D

 13 13  0  0  0  0  0  0  0  0999 V2000
   -3.7830   -0.3780    1.3760 C   0  0  0  0  0  0  0  0  0  0  0  0
   -2.9350   -0.9180    0.2640 C   0  0  0  0  0  0  0  0  0  0  0  0
   -1.5600   -1.2590    0.7320 C   0  0  0  0  0  0  0  0  0  0  0  0
   -0.5330   -0.6400    0.1720 C   0  0  0  0  0  0  0  0  0  0  0  0
    0.8140   -0.8610    0.5120 O   0  0  0  0  0  0  0  0  0  0  0  0
    1.5840    0.1960   -0.0280 C   0  0  1  0  0  0  0  0  0  0  0  0
    3.0010   -0.1900   -0.2240 C   0  0  0  0  0  0  0  0  0  0  0  0
    3.3600   -1.3420    0.0870 O   0  0  0  0  0  0  0  0  0  0  0  0
    3.9410    0.6850   -0.7420 O   0  0  0  0  0  0  0  0  0  0  0  0
    5.2590    0.3680   -0.9380 N   0  0  0  0  0  0  0  0  0  0  0  0
    0.8680    0.4190   -1.3530 C   0  0  0  0  0  0  0  0  0  0  0  0
   -0.5800    0.3870   -0.9010 C   0  0  2  0  0  0  0  0  0  0  0  0
   -0.8830    1.6690   -0.3120 N   0  0  0  0  0  0  0  0  0  0  0  0
  1  2  1  0
  2  3  1  0
  3  4  2  3
  4  5  1  0
  4 12  1  0
  5  6  1  0
  6  7  1  6
  6 11  1  0
  7  8  2  0
  7  9  1  0
  9 10  1  0
 11 12  1  0
 12 13  1  1
M  END
