
     RDKit          3D

 14 15  0  0  0  0  0  0  0  0999 V2000
   -2.1250    3.0230   -0.0900 O   0  0  0  0  0  0  0  0  0  0  0  0
   -1.8830    1.8040   -0.2600 C   0  0  0  0  0  0  0  0  0  0  0  0
   -2.8420    0.8330    0.1640 N   0  0  0  0  0  0  0  0  0  0  0  0
   -2.6610   -0.5050   -0.3990 C   0  0  0  0  0  0  0  0  0  0  0  0
   -1.2680   -0.9390   -0.0490 C   0  0  0  0  0  0  0  0  0  0  0  0
   -0.2160    0.0870   -0.3210 C   0  0  1  0  0  0  0  0  0  0  0  0
    0.4360    0.4400    1.0040 C   0  0  0  0  0  0  0  0  0  0  0  0
    1.9280    0.4330    0.9150 C   0  0  2  0  0  0  0  0  0  0  0  0
    2.3130    1.4310    0.0070 O   0  0  0  0  0  0  0  0  0  0  0  0
    2.4470   -0.9100    0.4500 C   0  0  0  0  0  0  0  0  0  0  0  0
    1.8950   -1.1680   -0.8660 N   0  0  0  0  0  0  0  0  0  0  0  0
    0.7610   -0.4260   -1.2910 C   0  0  0  0  0  0  0  0  0  0  0  0
    0.5850   -0.2020   -2.5120 O   0  0  0  0  0  0  0  0  0  0  0  0
   -0.7280    1.3060   -0.8450 O   0  0  0  0  0  0  0  0  0  0  0  0
  1  2  2  0
  2  3  1  0
  2 14  1  0
  3  4  1  0
  4  5  1  0
  6  5  1  1
  6  7  1  0
  6 12  1  0
  6 14  1  0
  7  8  1  0
  8  9  1  6
  8 10  1  0
 10 11  1  0
 11 12  1  0
 12 13  2  0
M  END
