
     RDKit          3D

 14 14  0  0  0  0  0  0  0  0999 V2000
    3.9920    0.9790    0.1370 C   0  0  0  0  0  0  0  0  0  0  0  0
    2.8750    0.2920   -0.3810 O   0  0  0  0  0  0  0  0  0  0  0  0
    2.0650   -0.4380    0.4720 C   0  0  0  0  0  0  0  0  0  0  0  0
    2.3460   -0.4800    1.7110 O   0  0  0  0  0  0  0  0  0  0  0  0
    0.9010   -1.1430   -0.0910 C   0  0  0  0  0  0  0  0  0  0  0  0
   -0.2150   -0.1420   -0.2610 C   0  0  2  0  0  0  0  0  0  0  0  0
    0.2390    0.8510   -1.1440 O   0  0  0  0  0  0  0  0  0  0  0  0
   -0.5630    0.4820    1.0750 C   0  0  0  0  0  0  0  0  0  0  0  0
   -2.0500    0.4510    1.2950 C   0  0  0  0  0  0  0  0  0  0  0  0
   -2.6090    1.5240    0.5920 O   0  0  0  0  0  0  0  0  0  0  0  0
   -2.9600    1.1690   -0.7070 C   0  0  0  0  0  0  0  0  0  0  0  0
   -2.5350   -0.1820   -1.0260 N   0  0  0  0  0  0  0  0  0  0  0  0
   -1.4180   -0.7890   -0.8660 C   0  0  0  0  0  0  0  0  0  0  0  0
   -1.2820   -2.1390   -1.2560 N   0  0  0  0  0  0  0  0  0  0  0  0
  1  2  1  0
  2  3  1  0
  3  4  2  0
  3  5  1  0
  5  6  1  0
  6  7  1  6
  6  8  1  0
  6 13  1  0
  8  9  1  0
  9 10  1  0
 10 11  1  0
 11 12  1  0
 12 13  2  0
 13 14  1  0
M  END
