
     RDKit          3D

 11 11  0  0  0  0  0  0  0  0999 V2000
   -3.2830    0.2750    0.7810 C   0  0  0  0  0  0  0  0  0  0  0  0
   -2.4090   -0.0150   -0.2340 O   0  0  0  0  0  0  0  0  0  0  0  0
   -1.0480   -0.0410   -0.2250 C   0  0  0  0  0  0  0  0  0  0  0  0
   -0.3650    0.2560    0.9350 C   0  0  0  0  0  0  0  0  0  0  0  0
    1.0380    0.2300    0.9480 C   0  0  0  0  0  0  0  0  0  0  0  0
    1.7450    0.5220    2.0920 O   0  0  0  0  0  0  0  0  0  0  0  0
    1.7460   -0.0890   -0.1900 C   0  0  0  0  0  0  0  0  0  0  0  0
    3.1580   -0.1190   -0.1920 N   0  0  0  0  0  0  0  0  0  0  0  0
    1.0530   -0.3840   -1.3440 C   0  0  0  0  0  0  0  0  0  0  0  0
   -0.3320   -0.3610   -1.3630 C   0  0  0  0  0  0  0  0  0  0  0  0
   -1.0760   -0.6500   -2.5000 O   0  0  0  0  0  0  0  0  0  0  0  0
  1  2  1  0
  2  3  1  0
  3  4  2  0
  3 10  1  0
  4  5  1  0
  5  6  1  0
  5  7  2  0
  7  8  1  0
  7  9  1  0
  9 10  2  0
 10 11  1  0
M  END
