
     RDKit          3D

 19 20  0  0  0  0  0  0  0  0999 V2000
    4.4300    1.1480    0.5390 N   0  0  0  0  0  0  0  0  0  0  0  0
    3.4580    0.5030   -0.2470 C   0  0  0  0  0  0  0  0  0  0  0  0
    3.7890    0.1980   -1.4380 O   0  0  0  0  0  0  0  0  0  0  0  0
    2.0940    0.1710    0.2420 C   0  0  0  0  0  0  0  0  0  0  0  0
    1.2850   -0.5180   -0.8330 C   0  0  0  0  0  0  0  0  0  0  0  0
   -0.0780   -0.8600   -0.4110 C   0  0  0  0  0  0  0  0  0  0  0  0
   -0.4130   -2.1660   -0.3720 C   0  0  0  0  0  0  0  0  0  0  0  0
    0.6360   -3.0380   -0.7580 N   0  0  0  0  0  0  0  0  0  0  0  0
   -1.6110   -2.8310   -0.0070 N   0  0  0  0  0  0  0  0  0  0  0  0
   -2.6100   -2.3140    0.8800 C   0  0  0  0  0  0  0  0  0  0  0  0
   -3.3990   -3.1780    1.3270 O   0  0  0  0  0  0  0  0  0  0  0  0
   -2.8000   -0.9640    1.2960 N   0  0  0  0  0  0  0  0  0  0  0  0
   -2.1630    0.1770    0.6750 C   0  0  0  0  0  0  0  0  0  0  0  0
   -2.8960    1.3150    0.8970 C   0  0  0  0  0  0  0  0  0  0  0  0
   -2.4840    2.5190    0.3810 C   0  0  0  0  0  0  0  0  0  0  0  0
   -1.3160    2.5500   -0.3630 C   0  0  0  0  0  0  0  0  0  0  0  0
   -0.7110    4.0740   -1.0690 S   0  0  0  0  0  0  0  0  0  0  0  0
   -0.5660    1.4100   -0.5950 C   0  0  0  0  0  0  0  0  0  0  0  0
   -1.0000    0.2160   -0.0670 C   0  0  0  0  0  0  0  0  0  0  0  0
  1  2  1  0
  2  3  2  0
  2  4  1  0
  4  5  1  0
  5  6  1  0
  6  7  2  0
  6 19  1  0
  7  8  1  0
  7  9  1  0
  9 10  1  0
 10 11  2  0
 10 12  1  0
 12 13  1  0
 13 14  2  0
 13 19  1  0
 14 15  1  0
 15 16  2  0
 16 17  1  0
 16 18  1  0
 18 19  2  0
M  END
