
     RDKit          3D

 15 15  0  0  0  0  0  0  0  0999 V2000
    4.1780    1.2760   -0.8840 N   0  0  0  0  0  0  0  0  0  0  0  0
    3.1450    1.4580    0.0540 C   0  0  0  0  0  0  0  0  0  0  0  0
    2.7250    2.9610    0.5220 S   0  0  0  0  0  0  0  0  0  0  0  0
    2.4380    0.3030    0.6220 C   0  0  0  0  0  0  0  0  0  0  0  0
    1.7620   -0.5580   -0.4380 C   0  0  0  0  0  0  0  0  0  0  0  0
    1.0670   -1.6820    0.3000 C   0  0  0  0  0  0  0  0  0  0  0  0
    0.0660   -1.1820    1.1810 N   0  0  0  0  0  0  0  0  0  0  0  0
   -1.1730   -0.5830    0.7140 C   0  0  0  0  0  0  0  0  0  0  0  0
   -1.2670    0.6730    0.3950 C   0  0  0  0  0  0  0  0  0  0  0  0
   -2.4400    1.4190   -0.0900 C   0  0  0  0  0  0  0  0  0  0  0  0
   -3.8870    0.4570   -0.2390 S   0  0  2  0  0  0  0  0  0  0  0  0
   -4.4240    0.4590   -1.6610 O   0  0  0  0  0  0  0  0  0  0  0  0
   -5.0020    0.9640    0.6250 O   0  0  0  0  0  0  0  0  0  0  0  0
   -3.5170   -1.1760    0.2400 C   0  0  0  0  0  0  0  0  0  0  0  0
   -2.3110   -1.4890    0.6290 C   0  0  0  0  0  0  0  0  0  0  0  0
  1  2  1  0
  2  3  2  0
  2  4  1  0
  4  5  1  0
  5  6  1  0
  6  7  1  0
  7  8  1  0
  8  9  2  0
  8 15  1  0
  9 10  1  0
 11 10  1  6
 11 12  2  0
 11 13  2  0
 11 14  1  0
 14 15  2  0
M  END
