
     RDKit          3D

 19 20  0  0  0  0  0  0  0  0999 V2000
    6.3720   -0.5970    0.0840 N   0  0  0  0  0  0  0  0  0  0  0  0
    4.9570   -0.6460    0.0180 C   0  0  0  0  0  0  0  0  0  0  0  0
    4.2330    0.4920    0.2890 C   0  0  0  0  0  0  0  0  0  0  0  0
    2.8540    0.4180    0.2180 C   0  0  0  0  0  0  0  0  0  0  0  0
    2.2340   -0.7540   -0.1120 C   0  0  0  0  0  0  0  0  0  0  0  0
    0.8050   -0.7850   -0.1750 N   0  0  0  0  0  0  0  0  0  0  0  0
    0.0850    0.4190    0.1080 C   0  0  0  0  0  0  0  0  0  0  0  0
   -1.3820    0.3000    0.0380 C   0  0  0  0  0  0  0  0  0  0  0  0
   -2.0060   -0.8550   -0.2680 C   0  0  0  0  0  0  0  0  0  0  0  0
   -3.4040   -0.9520   -0.3310 C   0  0  0  0  0  0  0  0  0  0  0  0
   -4.1980   -2.5150   -0.7440 S   0  0  0  0  0  0  0  0  0  0  0  0
   -4.1330    0.1680   -0.0700 C   0  0  0  0  0  0  0  0  0  0  0  0
   -5.5450    0.0890   -0.1280 N   0  0  0  0  0  0  0  0  0  0  0  0
   -3.5480    1.3840    0.2510 C   0  0  0  0  0  0  0  0  0  0  0  0
   -4.3240    2.5110    0.5120 O   0  0  0  0  0  0  0  0  0  0  0  0
   -2.1840    1.4100    0.2950 C   0  0  0  0  0  0  0  0  0  0  0  0
   -1.5460    2.5990    0.6100 O   0  0  0  0  0  0  0  0  0  0  0  0
    2.9760   -1.8370   -0.3680 N   0  0  0  0  0  0  0  0  0  0  0  0
    4.3140   -1.8170   -0.3120 C   0  0  0  0  0  0  0  0  0  0  0  0
  1  2  1  0
  2  3  2  0
  2 19  1  0
  3  4  1  0
  4  5  2  0
  5  6  1  0
  5 18  1  0
  6  7  1  0
  7  8  1  0
  8  9  2  0
  8 16  1  0
  9 10  1  0
 10 11  1  0
 10 12  2  0
 12 13  1  0
 12 14  1  0
 14 15  1  0
 14 16  2  0
 16 17  1  0
 18 19  2  0
M  END
