
     RDKit          3D

 19 20  0  0  0  0  0  0  0  0999 V2000
   -4.2790    0.6070   -1.5630 C   0  0  0  0  0  0  0  0  0  0  0  0
   -3.9760    0.8290   -0.0790 C   0  0  1  0  0  0  0  0  0  0  0  0
   -2.6330    1.1530    0.2990 N   0  0  0  0  0  0  0  0  0  0  0  0
   -1.5630    0.2320   -0.0000 C   0  0  0  0  0  0  0  0  0  0  0  0
   -1.8590   -0.8140   -0.5800 O   0  0  0  0  0  0  0  0  0  0  0  0
   -0.2280    0.5220    0.3590 N   0  0  0  0  0  0  0  0  0  0  0  0
    0.8950   -0.2950    0.1350 C   0  0  0  0  0  0  0  0  0  0  0  0
    0.7700   -1.6060   -0.2140 C   0  0  0  0  0  0  0  0  0  0  0  0
    1.9170   -2.3800   -0.4490 C   0  0  0  0  0  0  0  0  0  0  0  0
    3.1550   -1.8060   -0.3240 C   0  0  0  0  0  0  0  0  0  0  0  0
    4.3250   -2.5930   -0.5630 N   0  0  0  0  0  0  0  0  0  0  0  0
    3.3300   -0.4630    0.0330 C   0  0  0  0  0  0  0  0  0  0  0  0
    4.6510    0.0360    0.1350 N   0  0  0  0  0  0  0  0  0  0  0  0
    5.0600    1.3290    0.4730 C   0  0  0  0  0  0  0  0  0  0  0  0
    4.1730    2.3270    0.7640 O   0  0  0  0  0  0  0  0  0  0  0  0
    6.6470    1.6910    0.5310 S   0  0  0  0  0  0  0  0  0  0  0  0
    2.1840    0.2430    0.2500 C   0  0  0  0  0  0  0  0  0  0  0  0
   -5.0670    1.3620    0.8000 C   0  0  0  0  0  0  0  0  0  0  0  0
   -4.7960   -0.0850    0.8180 C   0  0  0  0  0  0  0  0  0  0  0  0
  2  1  1  6
  2  3  1  0
  2 18  1  0
  2 19  1  0
  3  4  1  0
  4  5  2  0
  4  6  1  0
  6  7  1  0
  7  8  2  0
  7 17  1  0
  8  9  1  0
  9 10  2  0
 10 11  1  0
 10 12  1  0
 12 13  1  0
 12 17  2  0
 13 14  1  0
 14 15  1  0
 14 16  2  0
 18 19  1  0
M  END
