
     RDKit          3D

 19 19  0  0  0  0  0  0  0  0999 V2000
    3.8830   -1.5410    0.6100 N   0  0  0  0  0  0  0  0  0  0  0  0
    5.0710   -0.7920    0.2400 C   0  0  0  0  0  0  0  0  0  0  0  0
    4.7940    0.2740   -0.7660 C   0  0  2  0  0  0  0  0  0  0  0  0
    5.9970    0.9300   -1.0680 O   0  0  0  0  0  0  0  0  0  0  0  0
    3.7690    1.2570   -0.2460 C   0  0  0  0  0  0  0  0  0  0  0  0
    2.5600    0.5730    0.0840 O   0  0  0  0  0  0  0  0  0  0  0  0
    1.4450    1.2240    0.5370 C   0  0  0  0  0  0  0  0  0  0  0  0
    1.5450    2.4990    0.6460 O   0  0  0  0  0  0  0  0  0  0  0  0
    0.1820    0.5880    0.8930 C   0  0  0  0  0  0  0  0  0  0  0  0
   -0.6050    0.1250   -0.3170 C   0  0  2  0  0  0  0  0  0  0  0  0
   -0.8670    1.2340   -1.1400 O   0  0  0  0  0  0  0  0  0  0  0  0
   -1.9180   -0.4290    0.2160 C   0  0  1  0  0  0  0  0  0  0  0  0
   -1.6410   -1.4840    1.0420 O   0  0  0  0  0  0  0  0  0  0  0  0
   -2.6620    0.7160    0.8510 C   0  0  0  0  0  0  0  0  0  0  0  0
   -4.0010    0.6310    0.1020 C   0  0  0  0  0  0  0  0  0  0  0  0
   -3.9770   -0.8390   -0.2510 C   0  0  1  0  0  0  0  0  0  0  0  0
   -5.0810   -1.2380   -1.1970 C   0  0  0  0  0  0  0  0  0  0  0  0
   -6.3110   -1.1170   -0.5590 O   0  0  0  0  0  0  0  0  0  0  0  0
   -2.7120   -0.9260   -0.8250 O   0  0  0  0  0  0  0  0  0  0  0  0
  1  2  1  0
  2  3  1  0
  3  4  1  1
  3  5  1  0
  5  6  1  0
  6  7  1  0
  7  8  2  0
  7  9  1  0
  9 10  1  0
 10 11  1  6
 10 12  1  0
 12 13  1  1
 12 14  1  0
 12 19  1  0
 14 15  1  0
 15 16  1  0
 16 17  1  6
 16 19  1  0
 17 18  1  0
M  END
