
     RDKit          3D

 20 20  0  0  0  0  0  0  0  0999 V2000
   -4.3730   -1.5740    0.4430 C   0  0  0  0  0  0  0  0  0  0  0  0
   -2.9720   -1.2910    0.8710 C   0  0  0  0  0  0  0  0  0  0  0  0
   -2.4910   -2.0250    1.7610 O   0  0  0  0  0  0  0  0  0  0  0  0
   -2.2000   -0.2420    0.3070 N   0  0  0  0  0  0  0  0  0  0  0  0
   -0.8580    0.0160    0.7280 C   0  0  2  0  0  0  0  0  0  0  0  0
   -0.7420    1.3710    1.4350 C   0  0  1  0  0  0  0  0  0  0  0  0
    0.4090    1.2950    2.2190 O   0  0  0  0  0  0  0  0  0  0  0  0
   -0.6690    2.4950    0.4780 C   0  0  0  0  0  0  0  0  0  0  0  0
    0.0390    2.3300   -0.6260 C   0  0  0  0  0  0  0  0  0  0  0  0
    0.1310    3.4300   -1.5990 C   0  0  0  0  0  0  0  0  0  0  0  0
    0.7870    3.3210   -2.6540 O   0  0  0  0  0  0  0  0  0  0  0  0
   -0.5140    4.6380   -1.3740 O   0  0  0  0  0  0  0  0  0  0  0  0
    0.6650    1.1200   -0.8180 O   0  0  0  0  0  0  0  0  0  0  0  0
    0.1510   -0.1130   -0.3600 C   0  0  1  0  0  0  0  0  0  0  0  0
    1.3250   -0.9710    0.0620 C   0  0  2  0  0  0  0  0  0  0  0  0
    2.0730   -0.3950    1.0760 O   0  0  0  0  0  0  0  0  0  0  0  0
    2.1910   -1.3360   -1.1320 C   0  0  2  0  0  0  0  0  0  0  0  0
    1.4380   -1.9120   -2.1410 O   0  0  0  0  0  0  0  0  0  0  0  0
    3.2940   -2.2510   -0.6870 C   0  0  0  0  0  0  0  0  0  0  0  0
    4.0420   -1.6730    0.3190 O   0  0  0  0  0  0  0  0  0  0  0  0
  1  2  1  0
  2  3  2  0
  2  4  1  0
  5  4  1  6
  5  6  1  0
  5 14  1  0
  6  7  1  6
  6  8  1  0
  8  9  2  0
  9 10  1  0
  9 13  1  0
 10 11  2  0
 10 12  1  0
 14 13  1  1
 14 15  1  0
 15 16  1  1
 15 17  1  0
 17 18  1  6
 17 19  1  0
 19 20  1  0
M  END
