
     RDKit          3D

 20 20  0  0  0  0  0  0  0  0999 V2000
   -0.0690    4.0730   -0.4490 C   0  0  0  0  0  0  0  0  0  0  0  0
   -0.4280    2.8010    0.0540 O   0  0  0  0  0  0  0  0  0  0  0  0
    0.2270    1.6900   -0.4500 C   0  0  0  0  0  0  0  0  0  0  0  0
    1.1060    1.8750   -1.3280 O   0  0  0  0  0  0  0  0  0  0  0  0
   -0.0870    0.2930    0.0240 C   0  0  2  0  0  0  0  0  0  0  0  0
    1.1630   -0.1500    0.7410 C   0  0  0  0  0  0  0  0  0  0  0  0
    1.1740   -0.3770    1.9800 O   0  0  0  0  0  0  0  0  0  0  0  0
    2.3910   -0.3350    0.0600 N   0  0  0  0  0  0  0  0  0  0  0  0
    3.5900   -0.7660    0.7760 C   0  0  0  0  0  0  0  0  0  0  0  0
    4.7700   -0.8970   -0.1380 C   0  0  0  0  0  0  0  0  0  0  0  0
    5.8650   -1.3080    0.6170 O   0  0  0  0  0  0  0  0  0  0  0  0
   -0.3890   -0.5640   -1.1530 C   0  0  0  0  0  0  0  0  0  0  0  0
   -1.5500   -1.4890   -0.9870 C   0  0  0  0  0  0  0  0  0  0  0  0
   -2.6530   -0.9530   -0.1240 C   0  0  1  0  0  0  0  0  0  0  0  0
   -3.8530   -0.8270   -0.8240 O   0  0  0  0  0  0  0  0  0  0  0  0
   -2.9190   -1.9010    1.0290 C   0  0  0  0  0  0  0  0  0  0  0  0
   -3.8930   -1.4450    1.8790 O   0  0  0  0  0  0  0  0  0  0  0  0
   -2.3380    0.4070    0.4510 C   0  0  2  0  0  0  0  0  0  0  0  0
   -2.5410    1.3430   -0.5330 O   0  0  0  0  0  0  0  0  0  0  0  0
   -1.0770    0.3690    0.9770 O   0  0  0  0  0  0  0  0  0  0  0  0
  1  2  1  0
  2  3  1  0
  3  4  2  0
  5  3  1  6
  5  6  1  0
  5 12  1  0
  5 20  1  0
  6  7  2  0
  6  8  1  0
  8  9  1  0
  9 10  1  0
 10 11  1  0
 12 13  1  0
 13 14  1  0
 14 15  1  6
 14 16  1  0
 14 18  1  0
 16 17  1  0
 18 19  1  6
 18 20  1  0
M  END
