
     RDKit          3D

 20 20  0  0  0  0  0  0  0  0999 V2000
    1.9570   -0.9610    1.3020 O   0  0  0  0  0  0  0  0  0  0  0  0
    2.2730   -0.0320    0.5480 C   0  0  0  0  0  0  0  0  0  0  0  0
    1.3760    1.0470    0.3790 N   0  0  0  0  0  0  0  0  0  0  0  0
    0.1030    1.2250    0.9720 C   0  0  0  0  0  0  0  0  0  0  0  0
   -0.9420    0.1980    0.6550 C   0  0  1  0  0  0  0  0  0  0  0  0
   -0.5810   -1.0880    1.0580 O   0  0  0  0  0  0  0  0  0  0  0  0
   -2.2050    0.5340    1.3890 C   0  0  0  0  0  0  0  0  0  0  0  0
   -3.3890   -0.2890    1.0560 C   0  0  1  0  0  0  0  0  0  0  0  0
   -4.5740    0.4420    1.3330 O   0  0  0  0  0  0  0  0  0  0  0  0
   -3.4380   -0.9500   -0.2610 C   0  0  0  0  0  0  0  0  0  0  0  0
   -2.1790   -1.0070   -1.0460 C   0  0  0  0  0  0  0  0  0  0  0  0
   -1.2570    0.1450   -0.8250 C   0  0  2  0  0  0  0  0  0  0  0  0
   -0.0750   -0.1190   -1.5490 O   0  0  0  0  0  0  0  0  0  0  0  0
   -1.8960    1.3640   -1.3510 C   0  0  0  0  0  0  0  0  0  0  0  0
   -1.2910    1.9920   -2.2870 O   0  0  0  0  0  0  0  0  0  0  0  0
   -3.0810    1.9130   -0.9520 O   0  0  0  0  0  0  0  0  0  0  0  0
    3.5120   -0.0620   -0.1250 O   0  0  0  0  0  0  0  0  0  0  0  0
    4.3840   -1.1840    0.0860 C   0  0  0  0  0  0  0  0  0  0  0  0
    5.6540   -1.0050   -0.7340 C   0  0  0  0  0  0  0  0  0  0  0  0
    6.2970    0.1490   -0.3480 O   0  0  0  0  0  0  0  0  0  0  0  0
  1  2  2  0
  2  3  1  0
  2 17  1  0
  3  4  1  0
  4  5  1  0
  5  6  1  1
  5  7  1  0
  5 12  1  0
  7  8  1  0
  8  9  1  6
  8 10  1  0
 10 11  1  0
 11 12  1  0
 12 13  1  6
 12 14  1  0
 14 15  2  0
 14 16  1  0
 17 18  1  0
 18 19  1  0
 19 20  1  0
M  END
