
     RDKit          3D

 33 36  0  0  0  0  0  0  0  0999 V2000
    6.6400    1.9130    0.4720 C   0  0  0  0  0  0  0  0  0  0  0  0
    6.5530    2.4460   -0.7370 C   0  0  0  0  0  0  0  0  0  0  0  0
    5.3630    2.2570   -1.5480 C   0  0  0  0  0  0  0  0  0  0  0  0
    5.3060    2.7940   -2.7350 C   0  0  0  0  0  0  0  0  0  0  0  0
    4.2950    1.5040   -1.0520 N   0  0  0  0  0  0  0  0  0  0  0  0
    4.3550    0.2280   -0.9660 C   0  0  0  0  0  0  0  0  0  0  0  0
    5.7790   -0.7850   -1.4550 S   0  0  0  0  0  0  0  0  0  0  0  0
    5.2990   -2.2220   -0.5170 C   0  0  0  0  0  0  0  0  0  0  0  0
    5.9280   -3.3070   -0.4600 N   0  0  0  0  0  0  0  0  0  0  0  0
    4.0940   -1.8710    0.1230 N   0  0  0  0  0  0  0  0  0  0  0  0
    3.4670   -2.4580    1.3180 C   0  0  0  0  0  0  0  0  0  0  0  0
    1.9650   -2.4600    1.0040 C   0  0  0  0  0  0  0  0  0  0  0  0
    1.5540   -1.0070    0.8940 C   0  0  1  0  0  0  0  0  0  0  0  0
    1.1260   -0.5670    2.2950 C   0  0  0  0  0  0  0  0  0  0  0  0
    0.7080    0.8770    2.2310 C   0  0  0  0  0  0  0  0  0  0  0  0
   -0.3690    1.0860    1.3430 O   0  0  0  0  0  0  0  0  0  0  0  0
   -1.5980    0.4760    1.5150 C   0  0  0  0  0  0  0  0  0  0  0  0
   -1.7800   -0.2920    2.4870 O   0  0  0  0  0  0  0  0  0  0  0  0
   -2.7150    0.6870    0.5990 C   0  0  0  0  0  0  0  0  0  0  0  0
   -2.5980    1.5230   -0.5040 C   0  0  0  0  0  0  0  0  0  0  0  0
   -3.6450    1.7320   -1.3770 C   0  0  0  0  0  0  0  0  0  0  0  0
   -4.8660    1.0960   -1.1660 C   0  0  0  0  0  0  0  0  0  0  0  0
   -4.9760    0.2700   -0.0730 C   0  0  0  0  0  0  0  0  0  0  0  0
   -3.9320    0.0700    0.7870 C   0  0  0  0  0  0  0  0  0  0  0  0
   -6.1340   -0.4810    0.3350 C   0  0  0  0  0  0  0  0  0  0  0  0
   -5.9110   -1.6210    1.2800 C   0  0  0  0  0  0  0  0  0  0  0  0
   -7.3950   -0.2640   -0.0450 C   0  0  0  0  0  0  0  0  0  0  0  0
   -8.5760   -1.3680    0.6390 Cl  0  0  0  0  0  0  0  0  0  0  0  0
   -7.9220    0.7450   -0.9360 C   0  0  0  0  0  0  0  0  0  0  0  0
   -7.2190    1.4430   -1.8250 C   0  0  0  0  0  0  0  0  0  0  0  0
   -5.8110    1.4730   -2.2160 C   0  0  0  0  0  0  0  0  0  0  0  0
    2.6120   -0.1850    0.5230 O   0  0  0  0  0  0  0  0  0  0  0  0
    3.3910   -0.7890   -0.4890 C   0  0  1  0  0  0  0  0  0  0  0  0
  1  2  2  0
  2  3  1  0
  3  4  2  0
  3  5  1  0
  5  6  2  3
  6  7  1  0
  6 33  1  0
  7  8  1  0
  8  9  2  0
  8 10  1  0
 10 11  1  0
 10 33  1  0
 11 12  1  0
 12 13  1  0
 13 14  1  1
 13 32  1  0
 14 15  1  0
 15 16  1  0
 16 17  1  0
 17 18  2  0
 17 19  1  0
 19 20  2  0
 19 24  1  0
 20 21  1  0
 21 22  2  0
 22 23  1  0
 22 31  1  0
 23 24  2  0
 23 25  1  0
 25 26  1  0
 25 27  2  0
 27 28  1  0
 27 29  1  0
 29 30  2  0
 30 31  1  0
 33 32  1  1
M  CHG  1   9   1
M  END
