
     RDKit          3D

 33 37  0  0  0  0  0  0  0  0999 V2000
   -8.5120   -1.5300   -0.9600 C   0  0  0  0  0  0  0  0  0  0  0  0
   -7.1600   -2.0450   -1.3350 C   0  0  0  0  0  0  0  0  0  0  0  0
   -6.0720   -1.1380   -0.8940 C   0  0  0  0  0  0  0  0  0  0  0  0
   -6.2900   -0.0060   -0.2450 C   0  0  0  0  0  0  0  0  0  0  0  0
   -5.0190    0.6520    0.0450 C   0  0  0  0  0  0  0  0  0  0  0  0
   -4.6990    1.7500    0.6410 N   0  0  0  0  0  0  0  0  0  0  0  0
   -3.3210    2.1470    0.7770 C   0  0  0  0  0  0  0  0  0  0  0  0
   -2.3210    1.4300    0.3110 C   0  0  0  0  0  0  0  0  0  0  0  0
   -0.8930    1.8100    0.4340 C   0  0  1  0  0  0  0  0  0  0  0  0
   -0.7160    3.1490    1.1580 C   0  0  0  0  0  0  0  0  0  0  0  0
   -1.1610    2.5770    2.8510 S   0  0  0  0  0  0  0  0  0  0  0  0
   -0.8080    0.7880    2.5620 C   0  0  0  0  0  0  0  0  0  0  0  0
   -0.1660    0.8900    1.2740 N   0  0  0  0  0  0  0  0  0  0  0  0
    0.9980    0.1950    0.8950 C   0  0  0  0  0  0  0  0  0  0  0  0
    1.5800   -0.6030    1.7050 O   0  0  0  0  0  0  0  0  0  0  0  0
    1.5980    0.3560   -0.4490 C   0  0  0  0  0  0  0  0  0  0  0  0
    2.7980   -0.4690   -0.6020 C   0  0  0  0  0  0  0  0  0  0  0  0
    2.7920   -1.7650   -1.0710 C   0  0  0  0  0  0  0  0  0  0  0  0
    3.9210   -2.5300   -1.2100 C   0  0  0  0  0  0  0  0  0  0  0  0
    5.1520   -1.9940   -0.8670 C   0  0  0  0  0  0  0  0  0  0  0  0
    6.2820   -2.7330   -0.9970 N   0  0  0  0  0  0  0  0  0  0  0  0
    7.4960   -2.2590   -0.6790 C   0  0  0  0  0  0  0  0  0  0  0  0
    7.5770   -0.9710   -0.2040 C   0  0  0  0  0  0  0  0  0  0  0  0
    6.4420   -0.1950   -0.0610 C   0  0  0  0  0  0  0  0  0  0  0  0
    6.5120    1.0870    0.4110 O   0  0  0  0  0  0  0  0  0  0  0  0
    7.7540    1.6390    0.7610 C   0  0  0  0  0  0  0  0  0  0  0  0
    5.1920   -0.7020   -0.3960 C   0  0  0  0  0  0  0  0  0  0  0  0
    4.0450    0.0570   -0.2610 C   0  0  0  0  0  0  0  0  0  0  0  0
   -2.6070    0.1710   -0.3790 C   0  0  0  0  0  0  0  0  0  0  0  0
   -1.7380   -0.5790   -0.8550 O   0  0  0  0  0  0  0  0  0  0  0  0
   -4.0010   -0.2300   -0.5160 C   0  0  0  0  0  0  0  0  0  0  0  0
   -4.6320   -1.2750   -1.0630 C   0  0  0  0  0  0  0  0  0  0  0  0
   -3.8550   -2.6210   -1.8680 Cl  0  0  0  0  0  0  0  0  0  0  0  0
  1  2  1  0
  2  3  1  0
  3  4  2  0
  3 32  1  0
  4  5  1  0
  5  6  2  0
  5 31  1  0
  6  7  1  0
  7  8  2  0
  9  8  1  1
  8 29  1  0
  9 10  1  0
  9 13  1  0
 10 11  1  0
 11 12  1  0
 12 13  1  0
 13 14  1  0
 14 15  2  0
 14 16  1  0
 16 17  1  0
 17 18  2  0
 17 28  1  0
 18 19  1  0
 19 20  2  0
 20 21  1  0
 20 27  1  0
 21 22  2  0
 22 23  1  0
 23 24  2  0
 24 25  1  0
 24 27  1  0
 25 26  1  0
 27 28  2  0
 29 30  2  0
 29 31  1  0
 31 32  2  0
 32 33  1  0
M  CHG  1   6   1
M  END
