
     RDKit          3D

 32 36  0  0  0  0  0  0  0  0999 V2000
   -4.0180   -1.5960   -1.0510 C   0  0  0  0  0  0  0  0  0  0  0  0
   -2.9770   -1.7430    0.0190 C   0  0  1  0  0  0  0  0  0  0  0  0
   -3.0270   -3.2140    0.4520 C   0  0  0  0  0  0  0  0  0  0  0  0
   -1.6180   -1.3390   -0.4170 C   0  0  2  0  0  0  0  0  0  0  0  0
   -0.5940   -1.5560    0.6870 C   0  0  2  0  0  0  0  0  0  0  0  0
    0.0050   -0.1970    0.9700 C   0  0  2  0  0  0  0  0  0  0  0  0
   -0.1810    0.4690   -0.3070 C   0  0  0  0  0  0  0  0  0  0  0  0
    0.5960    1.3030   -0.8400 O   0  0  0  0  0  0  0  0  0  0  0  0
   -1.4270    0.0000   -0.8570 N   0  0  0  0  0  0  0  0  0  0  0  0
   -2.2050    0.8460   -1.7130 C   0  0  0  0  0  0  0  0  0  0  0  0
   -3.1060    1.7850   -0.9930 C   0  0  0  0  0  0  0  0  0  0  0  0
   -3.2010    1.7840    0.3770 C   0  0  0  0  0  0  0  0  0  0  0  0
   -4.0470    2.6670    1.0540 C   0  0  0  0  0  0  0  0  0  0  0  0
   -4.8190    3.5740    0.3630 C   0  0  0  0  0  0  0  0  0  0  0  0
   -5.8910    4.6940    1.2020 Cl  0  0  0  0  0  0  0  0  0  0  0  0
   -4.7280    3.5790   -1.0120 C   0  0  0  0  0  0  0  0  0  0  0  0
   -3.8890    2.7030   -1.6660 C   0  0  0  0  0  0  0  0  0  0  0  0
    1.4060   -0.5180    1.3670 C   0  0  2  0  0  0  0  0  0  0  0  0
    2.4530    0.3740    0.8820 C   0  0  0  0  0  0  0  0  0  0  0  0
    2.9280    1.4420    1.6300 C   0  0  0  0  0  0  0  0  0  0  0  0
    3.9280    2.2690    1.1620 C   0  0  0  0  0  0  0  0  0  0  0  0
    4.5090    2.0770   -0.0810 C   0  0  0  0  0  0  0  0  0  0  0  0
    5.5750    2.9760   -0.5550 C   0  0  0  0  0  0  0  0  0  0  0  0
    5.9840    4.0420    0.3020 N   0  0  0  0  0  0  0  0  0  0  0  0
    6.1400    2.8370   -1.6920 N   0  0  0  0  0  0  0  0  0  0  0  0
    4.0430    1.0210   -0.8270 C   0  0  0  0  0  0  0  0  0  0  0  0
    3.0320    0.1860   -0.3500 C   0  0  0  0  0  0  0  0  0  0  0  0
    1.6410   -1.9240    1.0760 N   0  0  1  0  0  0  0  0  0  0  0  0
    1.4300   -2.7560    2.2220 C   0  0  0  0  0  0  0  0  0  0  0  0
    0.6650   -3.9700    1.8030 C   0  0  0  0  0  0  0  0  0  0  0  0
    0.5210   -3.7890    0.2870 C   0  0  0  0  0  0  0  0  0  0  0  0
    0.5920   -2.3040    0.1590 C   0  0  1  0  0  0  0  0  0  0  0  0
  2  1  1  6
  2  3  1  0
  2  4  1  0
  5  4  1  6
  4  9  1  1
  5  6  1  0
  5 32  1  0
  6  7  1  6
  6 18  1  0
  7  8  2  0
  7  9  1  0
  9 10  1  0
 10 11  1  0
 11 12  2  0
 11 17  1  0
 12 13  1  0
 13 14  2  0
 14 15  1  0
 14 16  1  0
 16 17  2  0
 18 19  1  6
 18 28  1  0
 19 20  2  0
 19 27  1  0
 20 21  1  0
 21 22  2  0
 22 23  1  0
 22 26  1  0
 23 24  1  0
 23 25  2  0
 26 27  2  0
 28 29  1  1
 28 32  1  0
 29 30  1  0
 30 31  1  0
 32 31  1  1
M  CHG  2  25   1  28   1
M  END
