
     RDKit          3D

 33 37  0  0  0  0  0  0  0  0999 V2000
   -7.0580   -0.8310    0.5890 C   0  0  0  0  0  0  0  0  0  0  0  0
   -7.6050   -0.6890   -0.8140 C   0  0  2  0  0  0  0  0  0  0  0  0
   -6.2240   -1.1020   -1.9490 S   0  0  0  0  0  0  0  0  0  0  0  0
   -5.0940    0.2850   -1.8370 C   0  0  0  0  0  0  0  0  0  0  0  0
   -3.7960    0.0790   -2.1930 C   0  0  0  0  0  0  0  0  0  0  0  0
   -2.9270    1.1340   -2.1050 C   0  0  0  0  0  0  0  0  0  0  0  0
   -1.5140    0.8920   -2.4970 C   0  0  0  0  0  0  0  0  0  0  0  0
   -0.7330    0.3760   -1.3900 N   0  0  1  0  0  0  0  0  0  0  0  0
   -1.5570    0.0790   -0.2390 C   0  0  0  0  0  0  0  0  0  0  0  0
   -0.6210   -0.0540    0.9430 C   0  0  0  0  0  0  0  0  0  0  0  0
    0.3870   -1.0280    0.5750 N   0  0  0  0  0  0  0  0  0  0  0  0
    1.5510   -1.2470    1.3680 C   0  0  0  0  0  0  0  0  0  0  0  0
    2.3650   -2.1150    0.9640 O   0  0  0  0  0  0  0  0  0  0  0  0
    1.8330   -0.5210    2.6070 C   0  0  0  0  0  0  0  0  0  0  0  0
    3.0560   -0.8400    3.2140 O   0  0  0  0  0  0  0  0  0  0  0  0
    4.3020   -0.6650    2.6880 C   0  0  0  0  0  0  0  0  0  0  0  0
    4.4870   -0.1150    1.4430 C   0  0  0  0  0  0  0  0  0  0  0  0
    5.7880    0.0520    0.9310 C   0  0  0  0  0  0  0  0  0  0  0  0
    6.8400   -0.3460    1.7040 C   0  0  0  0  0  0  0  0  0  0  0  0
    6.6530   -0.9090    2.9770 C   0  0  0  0  0  0  0  0  0  0  0  0
    5.3790   -1.0690    3.4710 C   0  0  0  0  0  0  0  0  0  0  0  0
    5.0610   -1.7600    5.0440 Cl  0  0  0  0  0  0  0  0  0  0  0  0
    8.1380   -0.1040    1.0150 C   0  0  0  0  0  0  0  0  0  0  0  0
    7.6820    0.0390   -0.4460 C   0  0  0  0  0  0  0  0  0  0  0  0
    6.2880    0.6000   -0.3340 C   0  0  0  0  0  0  0  0  0  0  0  0
    0.1390   -1.7660   -0.6460 C   0  0  0  0  0  0  0  0  0  0  0  0
    0.0620   -0.7650   -1.7750 C   0  0  0  0  0  0  0  0  0  0  0  0
   -3.3370    2.3720   -1.6710 C   0  0  0  0  0  0  0  0  0  0  0  0
   -4.6500    2.5530   -1.3180 C   0  0  0  0  0  0  0  0  0  0  0  0
   -5.5510    1.5070   -1.3960 C   0  0  0  0  0  0  0  0  0  0  0  0
   -6.9150    1.7380   -1.0200 N   0  0  0  0  0  0  0  0  0  0  0  0
   -7.8990    0.7470   -1.0670 C   0  0  0  0  0  0  0  0  0  0  0  0
   -9.0910    1.0810   -1.3350 O   0  0  0  0  0  0  0  0  0  0  0  0
  2  1  1  1
  2  3  1  0
  2 32  1  0
  3  4  1  0
  4  5  2  0
  4 30  1  0
  5  6  1  0
  6  7  1  0
  6 28  2  0
  8  7  1  6
  8  9  1  0
  8 27  1  0
  9 10  1  0
 10 11  1  0
 11 12  1  0
 11 26  1  0
 12 13  2  0
 12 14  1  0
 14 15  1  0
 15 16  1  0
 16 17  2  0
 16 21  1  0
 17 18  1  0
 18 19  2  0
 18 25  1  0
 19 20  1  0
 19 23  1  0
 20 21  2  0
 21 22  1  0
 23 24  1  0
 24 25  1  0
 26 27  1  0
 28 29  1  0
 29 30  2  0
 30 31  1  0
 31 32  1  0
 32 33  2  0
M  CHG  1   8   1
M  END
