
     RDKit          3D

 33 37  0  0  0  0  0  0  0  0999 V2000
    3.0950   -2.5100   -1.5110 C   0  0  0  0  0  0  0  0  0  0  0  0
    3.9120   -1.5420   -0.8280 N   0  0  2  0  0  0  0  0  0  0  0  0
    4.6180   -2.2060    0.2480 C   0  0  0  0  0  0  0  0  0  0  0  0
    5.6710   -1.2990    0.8490 C   0  0  0  0  0  0  0  0  0  0  0  0
    5.1230    0.1230    0.8630 C   0  0  0  0  0  0  0  0  0  0  0  0
    3.5970    0.0420    0.9990 C   0  0  0  0  0  0  0  0  0  0  0  0
    3.0060   -0.5370   -0.2430 C   0  0  1  0  0  0  0  0  0  0  0  0
    2.6260    0.4430   -1.2980 C   0  0  0  0  0  0  0  0  0  0  0  0
    1.7050    1.5280   -0.8690 C   0  0  0  0  0  0  0  0  0  0  0  0
    0.4220    0.9580   -0.3630 N   0  0  0  0  0  0  0  0  0  0  0  0
   -0.5920    1.7650    0.0930 C   0  0  0  0  0  0  0  0  0  0  0  0
   -0.2750    3.0380    0.0180 O   0  0  0  0  0  0  0  0  0  0  0  0
   -1.9200    1.5090    0.6310 C   0  0  0  0  0  0  0  0  0  0  0  0
   -2.5920    0.4440    0.8640 C   0  0  0  0  0  0  0  0  0  0  0  0
   -2.2130   -0.9800    0.6430 C   0  0  0  0  0  0  0  0  0  0  0  0
   -1.1500   -1.3690    0.1730 O   0  0  0  0  0  0  0  0  0  0  0  0
   -3.1790   -2.0230    1.0120 C   0  0  0  0  0  0  0  0  0  0  0  0
   -2.8610   -3.3630    0.8200 C   0  0  0  0  0  0  0  0  0  0  0  0
   -3.7510   -4.3480    1.1590 C   0  0  0  0  0  0  0  0  0  0  0  0
   -5.0000   -4.0460    1.7050 C   0  0  0  0  0  0  0  0  0  0  0  0
   -5.3260   -2.7410    1.8980 C   0  0  0  0  0  0  0  0  0  0  0  0
   -6.8610   -2.2230    2.5750 Cl  0  0  0  0  0  0  0  0  0  0  0  0
   -4.4160   -1.7660    1.5510 C   0  0  0  0  0  0  0  0  0  0  0  0
   -4.7220   -0.3970    1.7380 N   0  0  0  0  0  0  0  0  0  0  0  0
   -3.9220    0.5510    1.4370 C   0  0  0  0  0  0  0  0  0  0  0  0
   -4.2050    2.2880    1.6470 S   0  0  0  0  0  0  0  0  0  0  0  0
   -2.6600    2.8120    0.9670 C   0  0  2  0  0  0  0  0  0  0  0  0
   -2.9220    3.5220   -0.3110 C   0  0  0  0  0  0  0  0  0  0  0  0
   -2.6020    3.1110   -1.5140 C   0  0  0  0  0  0  0  0  0  0  0  0
   -3.0500    4.1250   -2.4800 C   0  0  0  0  0  0  0  0  0  0  0  0
   -3.6330    5.1320   -1.8430 C   0  0  0  0  0  0  0  0  0  0  0  0
   -3.5890    4.8110   -0.4010 C   0  0  0  0  0  0  0  0  0  0  0  0
   -4.0520    5.5440    0.5120 O   0  0  0  0  0  0  0  0  0  0  0  0
  2  1  1  1
  2  3  1  0
  2  7  1  0
  3  4  1  0
  4  5  1  0
  5  6  1  0
  6  7  1  0
  7  8  1  6
  8  9  1  0
  9 10  1  0
 10 11  1  0
 11 12  2  0
 11 13  1  0
 13 14  2  0
 13 27  1  0
 14 15  1  0
 14 25  1  0
 15 16  2  0
 15 17  1  0
 17 18  2  0
 17 23  1  0
 18 19  1  0
 19 20  2  0
 20 21  1  0
 21 22  1  0
 21 23  2  0
 23 24  1  0
 24 25  2  0
 25 26  1  0
 26 27  1  0
 27 28  1  6
 28 29  2  0
 28 32  1  0
 29 30  1  0
 30 31  2  0
 31 32  1  0
 32 33  2  0
M  CHG  1   2   1
M  END
