
     RDKit          3D

 32 34  0  0  0  0  0  0  0  0999 V2000
   -8.1840   -0.7080   -0.0650 C   0  0  0  0  0  0  0  0  0  0  0  0
   -7.1160    0.0340   -0.2720 C   0  0  0  0  0  0  0  0  0  0  0  0
   -5.7320   -0.5030   -0.2810 C   0  0  0  0  0  0  0  0  0  0  0  0
   -5.4250   -1.7710   -0.1370 C   0  0  0  0  0  0  0  0  0  0  0  0
   -4.0630   -2.3020   -0.1480 C   0  0  1  0  0  0  0  0  0  0  0  0
   -3.2440   -1.8240    0.8370 F   0  0  0  0  0  0  0  0  0  0  0  0
   -4.0620   -3.6960    0.0210 F   0  0  0  0  0  0  0  0  0  0  0  0
   -3.5030   -2.1290   -1.4220 F   0  0  0  0  0  0  0  0  0  0  0  0
   -4.8930    0.6190   -0.4650 N   0  0  0  0  0  0  0  0  0  0  0  0
   -3.5680    0.8530   -0.0280 C   0  0  0  0  0  0  0  0  0  0  0  0
   -2.4980    0.7990   -0.8100 C   0  0  0  0  0  0  0  0  0  0  0  0
   -1.3540    1.1010    0.0280 C   0  0  0  0  0  0  0  0  0  0  0  0
   -0.1240    1.1510   -0.3460 N   0  0  0  0  0  0  0  0  0  0  0  0
    0.8620    1.4590    0.5960 N   0  0  0  0  0  0  0  0  0  0  0  0
    1.4510    0.4220    1.4030 C   0  0  0  0  0  0  0  0  0  0  0  0
    1.0170   -0.7370    1.1920 O   0  0  0  0  0  0  0  0  0  0  0  0
    2.4510    0.7070    2.3630 N   0  0  0  0  0  0  0  0  0  0  0  0
    3.0510   -0.3240    3.1760 C   0  0  0  0  0  0  0  0  0  0  0  0
    3.7350   -1.3190    2.2760 C   0  0  0  0  0  0  0  0  0  0  0  0
    4.7930   -0.5470    1.4940 C   0  0  0  0  0  0  0  0  0  0  0  0
    5.5140   -1.4580    0.5820 C   0  0  0  0  0  0  0  0  0  0  0  0
    5.2030   -2.6690    0.5520 O   0  0  0  0  0  0  0  0  0  0  0  0
    6.5350   -0.9750   -0.2420 N   0  0  0  0  0  0  0  0  0  0  0  0
    6.9950    0.4070   -0.3060 C   0  0  0  0  0  0  0  0  0  0  0  0
    7.5100    0.6150   -1.7140 C   0  0  0  0  0  0  0  0  0  0  0  0
    7.2930   -0.7320   -2.4110 C   0  0  0  0  0  0  0  0  0  0  0  0
    7.3720   -1.6710   -1.2060 C   0  0  0  0  0  0  0  0  0  0  0  0
   -1.8830    1.3330    1.3640 C   0  0  0  0  0  0  0  0  0  0  0  0
   -3.1600    1.1870    1.3170 N   0  0  0  0  0  0  0  0  0  0  0  0
   -5.6660    1.6030   -1.2300 C   0  0  0  0  0  0  0  0  0  0  0  0
   -7.0020    1.4840   -0.5310 C   0  0  1  0  0  0  0  0  0  0  0  0
   -8.1230    2.0180   -1.3900 C   0  0  0  0  0  0  0  0  0  0  0  0
  1  2  2  0
  2  3  1  0
  2 31  1  0
  3  4  2  3
  3  9  1  0
  4  5  1  0
  5  6  1  1
  5  7  1  0
  5  8  1  0
  9 10  1  0
  9 30  1  0
 10 11  2  0
 10 29  1  0
 11 12  1  0
 12 13  2  3
 12 28  1  0
 13 14  1  0
 14 15  1  0
 15 16  2  0
 15 17  1  0
 17 18  1  0
 18 19  1  0
 19 20  1  0
 20 21  1  0
 21 22  2  0
 21 23  1  0
 23 24  1  0
 23 27  1  0
 24 25  1  0
 25 26  1  0
 26 27  1  0
 28 29  2  0
 30 31  1  0
 31 32  1  6
M  END
