
     RDKit          3D

 33 37  0  0  0  0  0  0  0  0999 V2000
   -4.3350    4.6700   -0.6650 C   0  0  0  0  0  0  0  0  0  0  0  0
   -4.6740    3.3140   -0.7700 O   0  0  0  0  0  0  0  0  0  0  0  0
   -4.0140    2.3280   -0.0800 C   0  0  0  0  0  0  0  0  0  0  0  0
   -2.9540    2.5640    0.7820 C   0  0  0  0  0  0  0  0  0  0  0  0
   -2.3470    1.5100    1.4360 C   0  0  0  0  0  0  0  0  0  0  0  0
   -2.7550    0.2030    1.2680 C   0  0  0  0  0  0  0  0  0  0  0  0
   -2.0900   -0.9080    1.9780 C   0  0  0  0  0  0  0  0  0  0  0  0
   -0.9750   -1.4520    1.2260 N   0  0  0  0  0  0  0  0  0  0  0  0
    0.3800   -1.0310    1.2920 C   0  0  0  0  0  0  0  0  0  0  0  0
    0.8220   -0.2270    2.1360 O   0  0  0  0  0  0  0  0  0  0  0  0
    1.1310   -1.6840    0.2320 C   0  0  1  0  0  0  0  0  0  0  0  0
    0.0250   -2.2160   -0.6850 C   0  0  2  0  0  0  0  0  0  0  0  0
   -0.2840   -1.0130   -1.5170 C   0  0  2  0  0  0  0  0  0  0  0  0
   -0.8240   -1.4670   -2.8450 C   0  0  0  0  0  0  0  0  0  0  0  0
    0.2160   -1.0940   -3.8690 C   0  0  0  0  0  0  0  0  0  0  0  0
    1.4450   -0.7790   -3.0470 C   0  0  0  0  0  0  0  0  0  0  0  0
    0.9700   -0.3670   -1.7450 N   0  0  2  0  0  0  0  0  0  0  0  0
    1.8770   -0.7880   -0.6990 C   0  0  1  0  0  0  0  0  0  0  0  0
    2.5830    0.3340   -0.0700 C   0  0  0  0  0  0  0  0  0  0  0  0
    1.9200    1.4920    0.2810 C   0  0  0  0  0  0  0  0  0  0  0  0
    2.5840    2.5410    0.8710 C   0  0  0  0  0  0  0  0  0  0  0  0
    3.9630    2.4800    1.1400 C   0  0  0  0  0  0  0  0  0  0  0  0
    4.6000    3.6330    1.7690 C   0  0  0  0  0  0  0  0  0  0  0  0
    3.8420    4.7850    2.0970 N   0  0  0  0  0  0  0  0  0  0  0  0
    5.8500    3.6210    2.0310 N   0  0  0  0  0  0  0  0  0  0  0  0
    4.6340    1.3340    0.7960 C   0  0  0  0  0  0  0  0  0  0  0  0
    3.9340    0.2990    0.2040 C   0  0  0  0  0  0  0  0  0  0  0  0
   -1.1020   -2.5390    0.2730 C   0  0  1  0  0  0  0  0  0  0  0  0
   -0.8160   -3.8780    0.8790 C   0  0  2  0  0  0  0  0  0  0  0  0
   -0.9820   -4.9200   -0.2090 C   0  0  0  0  0  0  0  0  0  0  0  0
   -1.7660   -4.2350    1.9980 C   0  0  0  0  0  0  0  0  0  0  0  0
   -3.8120   -0.0230    0.4070 C   0  0  0  0  0  0  0  0  0  0  0  0
   -4.4350    1.0130   -0.2580 C   0  0  0  0  0  0  0  0  0  0  0  0
  1  2  1  0
  2  3  1  0
  3  4  2  0
  3 33  1  0
  4  5  1  0
  5  6  2  0
  6  7  1  0
  6 32  1  0
  7  8  1  0
  8  9  1  0
 28  8  1  1
  9 10  2  0
 11  9  1  1
 11 12  1  0
 11 18  1  0
 12 13  1  0
 12 28  1  1
 13 14  1  6
 13 17  1  0
 14 15  1  0
 15 16  1  0
 17 16  1  6
 17 18  1  0
 18 19  1  1
 19 20  2  0
 19 27  1  0
 20 21  1  0
 21 22  2  0
 22 23  1  0
 22 26  1  0
 23 24  1  0
 23 25  2  0
 26 27  2  0
 28 29  1  0
 29 30  1  6
 29 31  1  0
 32 33  2  0
M  CHG  2  17   1  25   1
M  END
