
     RDKit          3D

 32 34  0  0  0  0  0  0  0  0999 V2000
    5.4290    5.3130   -2.6670 C   0  0  0  0  0  0  0  0  0  0  0  0
    5.3580    4.6890   -1.4740 C   0  0  0  0  0  0  0  0  0  0  0  0
    4.1420    4.8280   -0.6300 C   0  0  0  0  0  0  0  0  0  0  0  0
    3.4740    3.6660   -0.3310 O   0  0  0  0  0  0  0  0  0  0  0  0
    3.8130    2.5470    0.3500 C   0  0  0  0  0  0  0  0  0  0  0  0
    5.0440    2.3870    0.9410 C   0  0  0  0  0  0  0  0  0  0  0  0
    5.3590    1.2200    1.6360 C   0  0  0  0  0  0  0  0  0  0  0  0
    4.4200    0.2250    1.7270 C   0  0  0  0  0  0  0  0  0  0  0  0
    4.7530   -1.3090    2.6060 S   0  0  0  0  0  0  0  0  0  0  0  0
    3.3220   -2.4080    2.5450 C   0  0  0  0  0  0  0  0  0  0  0  0
    3.6400   -3.6460    3.2750 C   0  0  0  0  0  0  0  0  0  0  0  0
    2.7930   -4.5580    3.3670 O   0  0  0  0  0  0  0  0  0  0  0  0
    4.8730   -3.8090    3.8610 O   0  0  0  0  0  0  0  0  0  0  0  0
    3.1740    0.4170    1.1140 C   0  0  0  0  0  0  0  0  0  0  0  0
    2.8320    1.5470    0.4250 C   0  0  0  0  0  0  0  0  0  0  0  0
    1.5770    1.7280   -0.1870 N   0  0  0  0  0  0  0  0  0  0  0  0
    0.4940    0.8490   -0.2120 C   0  0  0  0  0  0  0  0  0  0  0  0
    0.5660   -0.2500    0.3530 O   0  0  0  0  0  0  0  0  0  0  0  0
   -0.7450    1.1640   -0.8830 N   0  0  0  0  0  0  0  0  0  0  0  0
   -1.7930    0.2170   -0.8590 C   0  0  0  0  0  0  0  0  0  0  0  0
   -2.9420    0.5310   -1.4930 N   0  0  0  0  0  0  0  0  0  0  0  0
   -3.9780   -0.3650   -1.4900 C   0  0  0  0  0  0  0  0  0  0  0  0
   -3.8000   -1.5630   -0.8300 C   0  0  0  0  0  0  0  0  0  0  0  0
   -2.6150   -1.8400   -0.1980 C   0  0  0  0  0  0  0  0  0  0  0  0
   -2.5010   -2.9440    0.3890 O   0  0  0  0  0  0  0  0  0  0  0  0
   -1.6360   -0.9340   -0.2310 O   0  0  0  0  0  0  0  0  0  0  0  0
   -4.9260   -2.5290   -0.8380 C   0  0  1  0  0  0  0  0  0  0  0  0
   -5.9180   -2.2800    0.2730 C   0  0  0  0  0  0  0  0  0  0  0  0
   -5.2580   -2.3880    1.6270 C   0  0  0  0  0  0  0  0  0  0  0  0
   -5.6070   -2.4790   -2.1960 C   0  0  0  0  0  0  0  0  0  0  0  0
   -6.0470   -1.1220   -2.6090 C   0  0  0  0  0  0  0  0  0  0  0  0
   -5.2010   -0.0650   -2.1420 N   0  0  0  0  0  0  0  0  0  0  0  0
  1  2  2  0
  2  3  1  0
  3  4  1  0
  4  5  1  0
  5  6  2  0
  5 15  1  0
  6  7  1  0
  7  8  2  0
  8  9  1  0
  8 14  1  0
  9 10  1  0
 10 11  1  0
 11 12  2  0
 11 13  1  0
 14 15  2  0
 15 16  1  0
 16 17  1  0
 17 18  2  0
 17 19  1  0
 19 20  1  0
 20 21  2  0
 20 26  1  0
 21 22  1  0
 22 23  2  0
 22 32  1  0
 23 24  1  0
 23 27  1  0
 24 25  2  0
 24 26  1  0
 27 28  1  1
 27 30  1  0
 28 29  1  0
 30 31  1  0
 31 32  1  0
M  END
