
     RDKit          3D

 23 24  0  0  0  0  0  0  0  0999 V2000
    0.4230   -1.5050    1.1520 O   0  0  0  0  0  0  0  0  0  0  0  0
    0.0330   -1.4350    0.0190 C   0  0  0  0  0  0  0  0  0  0  0  0
   -1.3070   -1.9650   -0.3550 C   0  0  0  0  0  0  0  0  0  0  0  0
   -2.2360   -1.9910    0.8090 C   0  0  0  0  0  0  0  0  0  0  0  0
   -3.6750   -1.8950    0.4390 C   0  0  0  0  0  0  0  0  0  0  0  0
   -3.9290   -0.8770   -0.6980 C   0  0  0  0  0  0  0  0  0  0  0  0
   -3.3680    0.4630   -0.3050 C   0  0  0  0  0  0  0  0  0  0  0  0
   -2.5520    1.3190   -0.8130 C   0  0  0  0  0  0  0  0  0  0  0  0
   -1.9960    2.6580   -0.4130 C   0  0  0  0  0  0  0  0  0  0  0  0
   -0.4470    2.5480   -0.3670 C   0  0  0  0  0  0  0  0  0  0  0  0
   -0.1180    1.5380    0.5120 O   0  0  0  0  0  0  0  0  0  0  0  0
    1.0300    1.1850    1.1450 C   0  0  0  0  0  0  0  0  0  0  0  0
    1.1780    1.3370    2.4180 O   0  0  0  0  0  0  0  0  0  0  0  0
    2.1800    0.6120    0.4610 C   0  0  0  0  0  0  0  0  0  0  0  0
    3.4460    1.0350    0.8880 C   0  0  0  0  0  0  0  0  0  0  0  0
    3.6130    1.9560    1.9170 O   0  0  0  0  0  0  0  0  0  0  0  0
    4.6030    0.5470    0.2950 C   0  0  0  0  0  0  0  0  0  0  0  0
    4.5460   -0.3650   -0.7270 C   0  0  0  0  0  0  0  0  0  0  0  0
    5.6710   -0.8850   -1.3530 O   0  0  0  0  0  0  0  0  0  0  0  0
    3.3010   -0.7740   -1.1360 C   0  0  0  0  0  0  0  0  0  0  0  0
    3.1850   -1.9330   -2.4330 Cl  0  0  0  0  0  0  0  0  0  0  0  0
    2.1410   -0.3010   -0.5620 C   0  0  0  0  0  0  0  0  0  0  0  0
    0.8610   -0.8170   -1.0710 C   0  0  0  0  0  0  0  0  0  0  0  0
  1  2  2  0
  2  3  1  0
  2 23  1  0
  3  4  1  0
  4  5  1  0
  5  6  1  0
  6  7  1  0
  7  8  2  0
  8  9  1  0
  9 10  1  0
 10 11  1  0
 11 12  1  0
 12 13  2  0
 12 14  1  0
 14 15  2  0
 14 22  1  0
 15 16  1  0
 15 17  1  0
 17 18  2  0
 18 19  1  0
 18 20  1  0
 20 21  1  0
 20 22  2  0
 22 23  1  0
M  END
