
     RDKit          3D

 20 21  0  0  0  0  0  0  0  0999 V2000
    3.0540    3.5560    0.8100 C   0  0  0  0  0  0  0  0  0  0  0  0
    2.4440    2.2410    1.1110 C   0  0  0  0  0  0  0  0  0  0  0  0
    2.1380    1.9750    2.2900 O   0  0  0  0  0  0  0  0  0  0  0  0
    2.1970    1.2820    0.1160 N   0  0  0  0  0  0  0  0  0  0  0  0
    1.6180   -0.0000    0.3140 C   0  0  2  0  0  0  0  0  0  0  0  0
    2.4590   -1.0980   -0.0640 N   0  0  0  0  0  0  0  0  0  0  0  0
    2.2990   -2.4530    0.3350 C   0  0  0  0  0  0  0  0  0  0  0  0
    3.2900   -3.2210    0.1610 O   0  0  0  0  0  0  0  0  0  0  0  0
    1.0600   -3.0580    0.9450 C   0  0  0  0  0  0  0  0  0  0  0  0
   -0.0600   -2.7310   -0.0140 C   0  0  0  0  0  0  0  0  0  0  0  0
   -0.4350   -1.3360   -0.0250 N   0  0  0  0  0  0  0  0  0  0  0  0
   -1.7330   -0.9360    0.3750 C   0  0  0  0  0  0  0  0  0  0  0  0
   -2.6620   -1.6530    0.8750 O   0  0  0  0  0  0  0  0  0  0  0  0
   -1.8870    0.5030    0.1240 C   0  0  2  0  0  0  0  0  0  0  0  0
   -2.6100    0.8200   -1.1590 C   0  0  1  0  0  0  0  0  0  0  0  0
   -1.9420    0.3060   -2.2540 F   0  0  0  0  0  0  0  0  0  0  0  0
   -4.0060    0.2360   -1.1520 C   0  0  0  0  0  0  0  0  0  0  0  0
   -4.6660    0.5240   -2.3210 O   0  0  0  0  0  0  0  0  0  0  0  0
   -0.5170    0.9640    0.0700 N   0  0  0  0  0  0  0  0  0  0  0  0
    0.2810   -0.1420   -0.3910 C   0  0  1  0  0  0  0  0  0  0  0  0
  1  2  1  0
  2  3  2  0
  2  4  1  0
  5  4  1  6
  5  6  1  0
  5 20  1  0
  6  7  1  0
  7  8  2  0
  7  9  1  0
  9 10  1  0
 10 11  1  0
 11 12  1  0
 11 20  1  0
 12 13  2  0
 12 14  1  0
 14 15  1  0
 14 19  1  6
 15 16  1  6
 15 17  1  0
 17 18  1  0
 20 19  1  1
M  END
