
     RDKit          3D

 19 20  0  0  0  0  0  0  0  0999 V2000
   -1.8070   -1.8930    1.7850 O   0  0  0  0  0  0  0  0  0  0  0  0
   -2.1420   -1.6090    0.5780 C   0  0  0  0  0  0  0  0  0  0  0  0
   -1.2390   -2.0660   -0.5260 C   0  0  0  0  0  0  0  0  0  0  0  0
   -0.0190   -2.4170   -0.0140 O   0  0  0  0  0  0  0  0  0  0  0  0
    0.6240   -1.3460    0.5520 C   0  0  0  0  0  0  0  0  0  0  0  0
    1.5310   -0.6840   -0.4610 C   0  0  2  0  0  0  0  0  0  0  0  0
    2.8520   -1.2200   -0.2440 N   0  0  0  0  0  0  0  0  0  0  0  0
    3.9900   -0.4460    0.0950 C   0  0  0  0  0  0  0  0  0  0  0  0
    3.8460    0.8590    0.2140 C   0  0  0  0  0  0  0  0  0  0  0  0
    2.5580    1.4560    0.0030 C   0  0  0  0  0  0  0  0  0  0  0  0
    1.4550    0.7750   -0.3140 C   0  0  0  0  0  0  0  0  0  0  0  0
    0.1540    1.4480   -0.5340 C   0  0  0  0  0  0  0  0  0  0  0  0
   -0.5120    1.6870    0.7210 N   0  0  0  0  0  0  0  0  0  0  0  0
   -1.8890    1.9810    0.8950 C   0  0  0  0  0  0  0  0  0  0  0  0
   -2.1170    2.6960    1.9590 O   0  0  0  0  0  0  0  0  0  0  0  0
   -2.9780    1.6170    0.1020 N   0  0  0  0  0  0  0  0  0  0  0  0
   -3.5380    0.3710   -0.2150 C   0  0  0  0  0  0  0  0  0  0  0  0
   -4.3620    0.3310   -1.2240 O   0  0  0  0  0  0  0  0  0  0  0  0
   -3.3460   -0.8870    0.4090 N   0  0  0  0  0  0  0  0  0  0  0  0
  1  2  2  0
  2  3  1  0
  2 19  1  0
  3  4  1  0
  4  5  1  0
  6  5  1  1
  6  7  1  0
  6 11  1  0
  7  8  1  0
  8  9  2  0
  9 10  1  0
 10 11  2  0
 11 12  1  0
 12 13  1  0
 13 14  1  0
 14 15  2  0
 14 16  1  0
 16 17  1  0
 17 18  2  0
 17 19  1  0
M  END
