
     RDKit          3D

 19 20  0  0  0  0  0  0  0  0999 V2000
   -1.1430    2.1220    0.1840 C   0  0  0  0  0  0  0  0  0  0  0  0
   -2.1160    1.2670   -0.4530 N   0  0  0  0  0  0  0  0  0  0  0  0
   -2.2450   -0.0790    0.0080 C   0  0  0  0  0  0  0  0  0  0  0  0
   -1.4680   -1.0570   -0.3620 C   0  0  0  0  0  0  0  0  0  0  0  0
   -0.3500   -0.9690   -1.2900 C   0  0  2  0  0  0  0  0  0  0  0  0
    0.8590   -1.2730   -0.4850 N   0  0  0  0  0  0  0  0  0  0  0  0
    1.7220   -0.3320   -0.6090 C   0  0  0  0  0  0  0  0  0  0  0  0
    3.0440   -0.3100    0.0620 C   0  0  1  0  0  0  0  0  0  0  0  0
    4.1020   -0.2980   -0.8320 O   0  0  0  0  0  0  0  0  0  0  0  0
    3.1440    0.8940    0.9700 C   0  0  0  0  0  0  0  0  0  0  0  0
    4.4080    0.8250    1.6910 N   0  0  0  0  0  0  0  0  0  0  0  0
    1.2460    0.6860   -1.5120 N   0  0  0  0  0  0  0  0  0  0  0  0
   -0.0400    0.2650   -1.9520 C   0  0  0  0  0  0  0  0  0  0  0  0
   -0.7190    0.9100   -2.7770 O   0  0  0  0  0  0  0  0  0  0  0  0
   -1.7550   -2.3980    0.2120 C   0  0  0  0  0  0  0  0  0  0  0  0
   -1.0490   -3.3670   -0.1000 O   0  0  0  0  0  0  0  0  0  0  0  0
   -2.8130   -2.5660    1.0970 O   0  0  0  0  0  0  0  0  0  0  0  0
   -3.9240   -1.6740    0.8810 C   0  0  0  0  0  0  0  0  0  0  0  0
   -3.3430   -0.2960    1.0010 C   0  0  0  0  0  0  0  0  0  0  0  0
  1  2  1  0
  2  3  1  0
  3  4  2  0
  3 19  1  0
  5  4  1  1
  4 15  1  0
  5  6  1  0
  5 13  1  0
  6  7  2  0
  7  8  1  0
  7 12  1  0
  8  9  1  6
  8 10  1  0
 10 11  1  0
 12 13  1  0
 13 14  2  0
 15 16  2  0
 15 17  1  0
 17 18  1  0
 18 19  1  0
M  END
