
     RDKit          3D

 29 31  0  0  0  0  0  0  0  0999 V2000
   -6.9470   -1.6830    1.2570 C   0  0  0  0  0  0  0  0  0  0  0  0
   -5.8460   -1.0130    0.4730 C   0  0  2  0  0  0  0  0  0  0  0  0
   -5.8330   -1.4170   -0.9540 C   0  0  0  0  0  0  0  0  0  0  0  0
   -4.4550   -1.2860   -1.5700 C   0  0  0  0  0  0  0  0  0  0  0  0
   -3.8230   -0.1620   -0.9230 N   0  0  0  0  0  0  0  0  0  0  0  0
   -3.6130    1.0230   -1.6540 C   0  0  0  0  0  0  0  0  0  0  0  0
   -4.4760    1.7140   -2.3370 N   0  0  0  0  0  0  0  0  0  0  0  0
   -3.8570    2.8500   -2.9290 C   0  0  0  0  0  0  0  0  0  0  0  0
   -4.5070    3.8200   -3.7410 N   0  0  0  0  0  0  0  0  0  0  0  0
   -2.6130    2.8830   -2.6270 N   0  0  0  0  0  0  0  0  0  0  0  0
   -2.3570    1.7530   -1.8110 C   0  0  0  0  0  0  0  0  0  0  0  0
   -1.1750    1.4420   -1.2980 C   0  0  0  0  0  0  0  0  0  0  0  0
   -0.0520    2.2930   -1.5700 C   0  0  0  0  0  0  0  0  0  0  0  0
    1.1980    2.1180   -1.1290 C   0  0  0  0  0  0  0  0  0  0  0  0
    2.4190    3.3160   -1.6060 Cl  0  0  0  0  0  0  0  0  0  0  0  0
    1.5020    0.9870   -0.3000 C   0  0  0  0  0  0  0  0  0  0  0  0
    2.6560    0.6630    0.2150 C   0  0  0  0  0  0  0  0  0  0  0  0
    3.9260    1.2940    0.1280 C   0  0  0  0  0  0  0  0  0  0  0  0
    5.0080    0.8100    0.7310 C   0  0  0  0  0  0  0  0  0  0  0  0
    6.3630    1.4170    0.6810 C   0  0  0  0  0  0  0  0  0  0  0  0
    7.1870    0.7180    1.3590 N   0  0  0  0  0  0  0  0  0  0  0  0
    6.6010   -0.3800    1.9360 N   0  0  0  0  0  0  0  0  0  0  0  0
    7.1650   -1.4230    2.7730 C   0  0  0  0  0  0  0  0  0  0  0  0
    7.6890   -2.5900    1.9940 C   0  0  0  0  0  0  0  0  0  0  0  0
    6.6000   -3.1770    1.2270 N   0  0  0  0  0  0  0  0  0  0  0  0
    5.2030   -0.3650    1.5610 C   0  0  0  0  0  0  0  0  0  0  0  0
    4.3390   -1.2080    1.8960 O   0  0  0  0  0  0  0  0  0  0  0  0
   -3.4610   -0.3680    0.4560 C   0  0  0  0  0  0  0  0  0  0  0  0
   -4.5230   -1.1710    1.1810 C   0  0  0  0  0  0  0  0  0  0  0  0
  2  1  1  1
  2  3  1  0
  2 29  1  0
  3  4  1  0
  4  5  1  0
  5  6  1  0
  5 28  1  0
  6  7  2  0
  6 11  1  0
  7  8  1  0
  8  9  1  0
  8 10  2  0
 10 11  1  0
 11 12  2  3
 12 13  1  0
 13 14  2  3
 14 15  1  0
 14 16  1  0
 16 17  2  3
 17 18  1  0
 18 19  2  3
 19 20  1  0
 19 26  1  0
 20 21  2  0
 21 22  1  0
 22 23  1  0
 22 26  1  0
 23 24  1  0
 24 25  1  0
 26 27  2  0
 28 29  1  0
M  CHG  1  25   1
M  END
