
     RDKit          3D

 29 32  0  0  0  0  0  0  0  0999 V2000
    4.5550    2.7290    1.0250 C   0  0  0  0  0  0  0  0  0  0  0  0
    5.2330    1.4010    1.1040 C   0  0  2  0  0  0  0  0  0  0  0  0
    5.9030    1.1110   -0.2170 C   0  0  0  0  0  0  0  0  0  0  0  0
    4.8240    0.4650   -1.0030 C   0  0  0  0  0  0  0  0  0  0  0  0
    4.3410    0.1190   -2.2130 N   0  0  0  0  0  0  0  0  0  0  0  0
    3.1790   -0.5150   -2.0840 N   0  0  0  0  0  0  0  0  0  0  0  0
    2.8540   -0.6110   -0.7840 C   0  0  0  0  0  0  0  0  0  0  0  0
    1.7010   -1.2120   -0.2080 N   0  0  0  0  0  0  0  0  0  0  0  0
    0.6850   -1.8240   -0.9900 C   0  0  0  0  0  0  0  0  0  0  0  0
    0.8750   -1.8010   -2.2540 O   0  0  0  0  0  0  0  0  0  0  0  0
   -0.5240   -2.4550   -0.4000 C   0  0  1  0  0  0  0  0  0  0  0  0
   -0.1390   -3.5840    0.5290 C   0  0  0  0  0  0  0  0  0  0  0  0
    0.2000   -3.0740    1.8890 C   0  0  0  0  0  0  0  0  0  0  0  0
    1.2260   -3.5010    2.4920 O   0  0  0  0  0  0  0  0  0  0  0  0
   -0.6680   -2.1060    2.4610 N   0  0  0  0  0  0  0  0  0  0  0  0
   -1.4590   -1.3200    1.5810 C   0  0  0  0  0  0  0  0  0  0  0  0
   -1.4080   -1.4640    0.2660 C   0  0  0  0  0  0  0  0  0  0  0  0
   -2.1520   -0.7390   -0.7750 C   0  0  0  0  0  0  0  0  0  0  0  0
   -1.8500   -1.0390   -1.9560 O   0  0  0  0  0  0  0  0  0  0  0  0
   -3.2240    0.3110   -0.6020 C   0  0  2  0  0  0  0  0  0  0  0  0
   -3.4770    0.9310   -1.9330 C   0  0  0  0  0  0  0  0  0  0  0  0
   -4.5260    1.9880   -1.9190 C   0  0  0  0  0  0  0  0  0  0  0  0
   -5.8120    1.4870   -1.4740 N   0  0  0  0  0  0  0  0  0  0  0  0
   -2.6690    1.2470    0.4140 C   0  0  0  0  0  0  0  0  0  0  0  0
   -2.3860    2.4200    0.0930 O   0  0  0  0  0  0  0  0  0  0  0  0
   -2.4240    0.9060    1.7700 N   0  0  0  0  0  0  0  0  0  0  0  0
   -2.2950   -0.3700    2.3990 C   0  0  0  0  0  0  0  0  0  0  0  0
    3.8860    0.0040   -0.1090 C   0  0  0  0  0  0  0  0  0  0  0  0
    4.2950    0.3160    1.1990 O   0  0  0  0  0  0  0  0  0  0  0  0
  2  1  1  6
  2  3  1  0
  2 29  1  0
  3  4  1  0
  4  5  1  0
  4 28  2  0
  5  6  1  0
  6  7  2  0
  7  8  1  0
  7 28  1  0
  8  9  1  0
  9 10  2  0
 11  9  1  1
 11 12  1  0
 11 17  1  0
 12 13  1  0
 13 14  2  0
 13 15  1  0
 15 16  1  0
 16 17  2  0
 16 27  1  0
 17 18  1  0
 18 19  2  0
 18 20  1  0
 20 21  1  6
 20 24  1  0
 21 22  1  0
 22 23  1  0
 24 25  2  0
 24 26  1  0
 26 27  1  0
 28 29  1  0
M  CHG  1  23   1
M  END
