
     RDKit          3D

 29 31  0  0  0  0  0  0  0  0999 V2000
    5.5610    3.8160   -1.5660 C   0  0  0  0  0  0  0  0  0  0  0  0
    4.9470    2.6080   -1.0580 N   0  0  0  0  0  0  0  0  0  0  0  0
    4.6880    2.6880    0.3700 C   0  0  1  0  0  0  0  0  0  0  0  0
    3.3090    2.2310    0.6030 C   0  0  0  0  0  0  0  0  0  0  0  0
    2.9060    1.4170    1.5320 C   0  0  0  0  0  0  0  0  0  0  0  0
    1.5440    1.0610    1.6410 O   0  0  0  0  0  0  0  0  0  0  0  0
    0.6730    1.8520    2.4370 C   0  0  0  0  0  0  0  0  0  0  0  0
   -0.6920    1.3230    2.4230 C   0  0  0  0  0  0  0  0  0  0  0  0
   -1.5870    1.9100    3.0770 O   0  0  0  0  0  0  0  0  0  0  0  0
   -1.0480    0.1320    1.6690 C   0  0  0  0  0  0  0  0  0  0  0  0
   -0.1930   -0.5090    0.9880 O   0  0  0  0  0  0  0  0  0  0  0  0
   -2.3780   -0.3710    1.6630 N   0  0  0  0  0  0  0  0  0  0  0  0
   -2.7500   -1.5270    0.9390 C   0  0  0  0  0  0  0  0  0  0  0  0
   -2.7710   -2.8570    1.3020 C   0  0  0  0  0  0  0  0  0  0  0  0
   -2.3880   -3.3220    2.5770 N   0  0  0  0  0  0  0  0  0  0  0  0
   -3.2130   -3.5820    0.2350 N   0  0  0  0  0  0  0  0  0  0  0  0
   -3.4650   -2.7830   -0.7630 N   0  0  0  0  0  0  0  0  0  0  0  0
   -3.1950   -1.5040   -0.3800 C   0  0  0  0  0  0  0  0  0  0  0  0
   -3.3100   -0.2880   -1.1080 N   0  0  0  0  0  0  0  0  0  0  0  0
   -3.8930   -0.1540   -2.3950 C   0  0  0  0  0  0  0  0  0  0  0  0
   -3.4470    0.8270   -3.0730 O   0  0  0  0  0  0  0  0  0  0  0  0
   -4.9120   -0.9760   -3.0240 C   0  0  0  0  0  0  0  0  0  0  0  0
   -5.1320   -2.3250   -2.5040 C   0  0  0  0  0  0  0  0  0  0  0  0
   -3.9510   -3.1180   -2.0870 C   0  0  2  0  0  0  0  0  0  0  0  0
   -4.3780   -4.5900   -2.0140 C   0  0  0  0  0  0  0  0  0  0  0  0
    3.8810    0.8730    2.4660 C   0  0  0  0  0  0  0  0  0  0  0  0
    3.6370   -0.0950    3.2230 O   0  0  0  0  0  0  0  0  0  0  0  0
    5.2200    1.4990    2.5170 C   0  0  0  0  0  0  0  0  0  0  0  0
    5.7150    1.9810    1.1850 C   0  0  0  0  0  0  0  0  0  0  0  0
  1  2  1  0
  3  2  1  6
  3  4  1  0
  3 29  1  0
  4  5  2  0
  5  6  1  0
  5 26  1  0
  6  7  1  0
  7  8  1  0
  8  9  2  0
  8 10  1  0
 10 11  2  0
 10 12  1  0
 12 13  1  0
 13 14  1  0
 13 18  2  0
 14 15  1  0
 14 16  2  0
 16 17  1  0
 17 18  1  0
 17 24  1  0
 18 19  1  0
 19 20  1  0
 20 21  2  0
 20 22  1  0
 22 23  1  0
 23 24  1  0
 24 25  1  1
 26 27  2  0
 26 28  1  0
 28 29  1  0
M  CHG  1   2   1
M  END
