
     RDKit          3D

 29 31  0  0  0  0  0  0  0  0999 V2000
   -3.5830    2.9030   -1.0020 N   0  0  0  0  0  0  0  0  0  0  0  0
   -3.7140    1.6410   -0.3060 C   0  0  2  0  0  0  0  0  0  0  0  0
   -2.5560    0.7400   -0.4860 C   0  0  0  0  0  0  0  0  0  0  0  0
   -1.1930    1.2690   -0.5260 C   0  0  1  0  0  0  0  0  0  0  0  0
   -0.8140    2.3890    0.3410 C   0  0  0  0  0  0  0  0  0  0  0  0
    0.5990    2.8310    0.1430 C   0  0  0  0  0  0  0  0  0  0  0  0
    1.3650    1.7890   -0.6280 C   0  0  0  0  0  0  0  0  0  0  0  0
    1.0730    0.4370   -0.2390 N   0  0  0  0  0  0  0  0  0  0  0  0
    2.0850   -0.4500    0.0960 C   0  0  0  0  0  0  0  0  0  0  0  0
    1.7940   -1.6250    0.4320 O   0  0  0  0  0  0  0  0  0  0  0  0
    3.5410   -0.1020    0.0880 C   0  0  0  0  0  0  0  0  0  0  0  0
    4.3500   -1.2360    0.4840 N   0  0  0  0  0  0  0  0  0  0  0  0
    5.7580   -1.1220    0.5440 C   0  0  0  0  0  0  0  0  0  0  0  0
    6.6200   -2.0940    0.8940 N   0  0  0  0  0  0  0  0  0  0  0  0
    7.8600   -1.5930    0.8270 C   0  0  0  0  0  0  0  0  0  0  0  0
    7.7680   -0.2860    0.4270 C   0  0  0  0  0  0  0  0  0  0  0  0
    6.4710   -0.0090    0.2560 N   0  0  0  0  0  0  0  0  0  0  0  0
   -0.2840    0.0360   -0.2070 C   0  0  2  0  0  0  0  0  0  0  0  0
   -0.6570   -1.1510   -1.0300 C   0  0  0  0  0  0  0  0  0  0  0  0
   -1.3660   -2.2370   -0.2950 C   0  0  0  0  0  0  0  0  0  0  0  0
   -2.7610   -2.5010   -0.7370 C   0  0  0  0  0  0  0  0  0  0  0  0
   -2.8590   -2.6580   -2.0100 O   0  0  0  0  0  0  0  0  0  0  0  0
   -3.8500   -2.5850    0.0130 O   0  0  0  0  0  0  0  0  0  0  0  0
   -4.5410   -2.0240    1.0070 C   0  0  0  0  0  0  0  0  0  0  0  0
   -4.4490   -2.6990    2.2840 O   0  0  0  0  0  0  0  0  0  0  0  0
   -5.3150   -0.9480    1.0640 C   0  0  0  0  0  0  0  0  0  0  0  0
   -5.6740    0.0010    0.0270 C   0  0  0  0  0  0  0  0  0  0  0  0
   -6.9420    0.0170   -0.2240 O   0  0  0  0  0  0  0  0  0  0  0  0
   -4.9140    0.8920   -0.7420 N   0  0  0  0  0  0  0  0  0  0  0  0
  2  1  1  6
  2  3  1  0
  2 29  1  0
  4  3  1  1
  4  5  1  0
  4 18  1  0
  5  6  1  0
  6  7  1  0
  7  8  1  0
  8  9  1  0
  8 18  1  0
  9 10  2  0
  9 11  1  0
 11 12  1  0
 12 13  1  0
 13 14  1  0
 13 17  2  0
 14 15  1  0
 15 16  2  0
 16 17  1  0
 18 19  1  6
 19 20  1  0
 20 21  1  0
 21 22  2  0
 21 23  1  0
 23 24  1  0
 24 25  1  0
 24 26  2  0
 26 27  1  0
 27 28  2  0
 27 29  1  0
M  CHG  1  17   1
M  END
