
     RDKit          3D

 27 27  0  0  0  0  0  0  0  0999 V2000
    5.7770    1.8230   -1.7140 C   0  0  0  0  0  0  0  0  0  0  0  0
    6.3820    0.8130   -1.0630 C   0  0  0  0  0  0  0  0  0  0  0  0
    7.8700    0.9170   -1.0270 C   0  0  0  0  0  0  0  0  0  0  0  0
    5.5980   -0.2480   -0.4710 C   0  0  0  0  0  0  0  0  0  0  0  0
    6.1940   -1.2560    0.1770 C   0  0  0  0  0  0  0  0  0  0  0  0
    7.5920   -1.5420    0.4390 C   0  0  0  0  0  0  0  0  0  0  0  0
    4.2460   -0.2510   -0.5520 O   0  0  0  0  0  0  0  0  0  0  0  0
    3.1300    0.2740   -0.9730 C   0  0  0  0  0  0  0  0  0  0  0  0
    1.8400   -0.4710   -0.5670 C   0  0  0  0  0  0  0  0  0  0  0  0
    1.7360   -0.4880    0.9140 C   0  0  2  0  0  0  0  0  0  0  0  0
    1.7010    0.9850    1.3670 C   0  0  0  0  0  0  0  0  0  0  0  0
    2.9090   -1.1950    1.5580 C   0  0  0  0  0  0  0  0  0  0  0  0
    0.5240   -1.0680    1.4110 N   0  0  0  0  0  0  0  0  0  0  0  0
   -0.7810   -0.5850    1.1220 C   0  0  0  0  0  0  0  0  0  0  0  0
   -0.8610    0.4190    0.3820 O   0  0  0  0  0  0  0  0  0  0  0  0
   -1.9600   -1.1630    1.6150 N   0  0  0  0  0  0  0  0  0  0  0  0
   -3.2330   -0.6430    1.2960 N   0  0  0  0  0  0  0  0  0  0  0  0
   -3.5940    0.6840    1.4960 C   0  0  0  0  0  0  0  0  0  0  0  0
   -2.6660    1.4270    2.0110 O   0  0  0  0  0  0  0  0  0  0  0  0
   -4.8540    1.3740    1.2210 C   0  0  0  0  0  0  0  0  0  0  0  0
   -5.8720    0.7280    0.6320 O   0  0  0  0  0  0  0  0  0  0  0  0
   -5.7290    0.2120   -0.6240 C   0  0  2  0  0  0  0  0  0  0  0  0
   -6.5830    1.0310   -1.6280 C   0  0  0  0  0  0  0  0  0  0  0  0
   -8.0410    0.8290   -1.3640 C   0  0  0  0  0  0  0  0  0  0  0  0
   -8.3040   -0.5330   -0.7060 C   0  0  0  0  0  0  0  0  0  0  0  0
   -7.3870   -1.4150   -1.2900 O   0  0  0  0  0  0  0  0  0  0  0  0
   -6.1680   -1.2190   -0.6430 C   0  0  0  0  0  0  0  0  0  0  0  0
  1  2  2  0
  2  3  1  0
  2  4  1  0
  4  5  2  3
  4  7  1  0
  5  6  1  0
  7  8  1  0
  8  9  1  0
  9 10  1  0
 10 11  1  1
 10 12  1  0
 10 13  1  0
 13 14  1  0
 14 15  2  0
 14 16  1  0
 16 17  1  0
 17 18  1  0
 18 19  2  0
 18 20  1  0
 20 21  1  0
 22 21  1  1
 22 23  1  0
 22 27  1  0
 23 24  1  0
 24 25  1  0
 25 26  1  0
 26 27  1  0
M  END
