
     RDKit          3D

 27 27  0  0  0  0  0  0  0  0999 V2000
    6.6940    1.0720    2.3240 C   0  0  0  0  0  0  0  0  0  0  0  0
    6.3790   -0.3070    2.8060 C   0  0  0  0  0  0  0  0  0  0  0  0
    5.1440   -0.7950    2.5960 O   0  0  0  0  0  0  0  0  0  0  0  0
    4.0560   -0.2320    3.1760 C   0  0  0  0  0  0  0  0  0  0  0  0
    3.5740    1.0870    2.6930 C   0  0  0  0  0  0  0  0  0  0  0  0
    2.3130    1.6070    3.3500 C   0  0  0  0  0  0  0  0  0  0  0  0
    1.0880    0.7310    3.1060 C   0  0  0  0  0  0  0  0  0  0  0  0
    0.8390    0.6200    1.6720 C   0  0  0  0  0  0  0  0  0  0  0  0
    1.3240    1.5490    0.9340 O   0  0  0  0  0  0  0  0  0  0  0  0
    0.1080   -0.4290    0.9900 N   0  0  0  0  0  0  0  0  0  0  0  0
   -0.5890   -1.4430    1.7420 C   0  0  0  0  0  0  0  0  0  0  0  0
   -1.9450   -1.7490    1.2150 C   0  0  0  0  0  0  0  0  0  0  0  0
   -2.2550   -1.0410   -0.0610 C   0  0  0  0  0  0  0  0  0  0  0  0
   -1.1620   -0.9190   -1.0760 C   0  0  1  0  0  0  0  0  0  0  0  0
   -0.8430   -2.3180   -1.6490 C   0  0  0  0  0  0  0  0  0  0  0  0
   -2.0620   -2.8320   -2.1900 O   0  0  0  0  0  0  0  0  0  0  0  0
   -1.5790    0.0520   -2.1340 C   0  0  0  0  0  0  0  0  0  0  0  0
   -2.5790   -0.0950   -3.1190 C   0  0  1  0  0  0  0  0  0  0  0  0
   -4.0420   -0.4180   -2.9360 C   0  0  0  0  0  0  0  0  0  0  0  0
   -4.5310   -0.6420   -4.4340 C   0  0  0  0  0  0  0  0  0  0  0  0
   -4.2120    0.3890   -5.2090 O   0  0  0  0  0  0  0  0  0  0  0  0
   -2.7250    1.4480   -3.5890 C   0  0  0  0  0  0  0  0  0  0  0  0
   -2.2060    1.8030   -4.6160 O   0  0  0  0  0  0  0  0  0  0  0  0
   -3.5260    2.2470   -2.6780 N   0  0  0  0  0  0  0  0  0  0  0  0
   -3.8490    3.5090   -3.0690 C   0  0  0  0  0  0  0  0  0  0  0  0
   -4.1790    4.7350   -3.4670 N   0  0  0  0  0  0  0  0  0  0  0  0
    0.0990   -0.4320   -0.4460 C   0  0  0  0  0  0  0  0  0  0  0  0
  1  2  1  0
  2  3  1  0
  3  4  1  0
  4  5  1  0
  5  6  1  0
  6  7  1  0
  7  8  1  0
  8  9  2  0
  8 10  1  0
 10 11  1  0
 10 27  1  0
 11 12  1  0
 12 13  1  0
 13 14  1  0
 14 15  1  6
 14 17  1  0
 14 27  1  0
 15 16  1  0
 18 17  1  1
 18 19  1  0
 18 22  1  0
 19 20  1  0
 20 21  1  0
 22 23  2  0
 22 24  1  0
 24 25  1  0
 25 26  3  0
M  END
