
     RDKit          3D

 27 27  0  0  0  0  0  0  0  0999 V2000
    2.8380    1.6270   -6.4240 C   0  0  0  0  0  0  0  0  0  0  0  0
    1.9330    0.4380   -6.6680 C   0  0  0  0  0  0  0  0  0  0  0  0
    0.5330    0.6090   -6.2050 C   0  0  0  0  0  0  0  0  0  0  0  0
    0.2880    0.8080   -4.8340 N   0  0  0  0  0  0  0  0  0  0  0  0
    0.7030    1.9900   -4.1970 C   0  0  0  0  0  0  0  0  0  0  0  0
    0.2530    1.9080   -2.7070 C   0  0  2  0  0  0  0  0  0  0  0  0
   -1.2110    1.7950   -2.6220 C   0  0  0  0  0  0  0  0  0  0  0  0
    0.6570    3.2830   -2.1320 C   0  0  0  0  0  0  0  0  0  0  0  0
    1.1200    0.8920   -2.0850 C   0  0  0  0  0  0  0  0  0  0  0  0
    0.9950    0.5560   -0.6950 N   0  0  0  0  0  0  0  0  0  0  0  0
   -0.1020   -0.0940   -0.1150 C   0  0  0  0  0  0  0  0  0  0  0  0
   -1.0930   -0.4120   -0.8450 O   0  0  0  0  0  0  0  0  0  0  0  0
   -0.1120   -0.4300    1.3490 C   0  0  0  0  0  0  0  0  0  0  0  0
    1.2150   -0.5470    1.9360 C   0  0  0  0  0  0  0  0  0  0  0  0
    2.2400   -0.3770    1.1530 O   0  0  0  0  0  0  0  0  0  0  0  0
    1.6080   -0.8190    3.2010 O   0  0  0  0  0  0  0  0  0  0  0  0
    2.9460   -0.9150    3.6130 C   0  0  0  0  0  0  0  0  0  0  0  0
   -1.1960   -0.8870    1.9100 C   0  0  0  0  0  0  0  0  0  0  0  0
   -2.3960   -1.0570    0.8910 C   0  0  0  0  0  0  0  0  0  0  0  0
   -1.6920   -1.0330    3.1890 N   0  0  0  0  0  0  0  0  0  0  0  0
   -1.2410   -0.6890    4.4330 C   0  0  0  0  0  0  0  0  0  0  0  0
   -0.1940   -0.0700    4.6140 O   0  0  0  0  0  0  0  0  0  0  0  0
   -2.0240   -1.0580    5.7050 C   0  0  2  0  0  0  0  0  0  0  0  0
   -1.1130   -1.9810    6.4790 C   0  0  0  0  0  0  0  0  0  0  0  0
   -2.0170   -3.1880    6.6890 C   0  0  0  0  0  0  0  0  0  0  0  0
   -2.8770   -3.1190    5.4300 C   0  0  0  0  0  0  0  0  0  0  0  0
   -3.1510   -1.7510    5.3670 O   0  0  0  0  0  0  0  0  0  0  0  0
  1  2  1  0
  2  3  1  0
  3  4  1  0
  4  5  1  0
  5  6  1  0
  6  7  1  6
  6  8  1  0
  6  9  1  0
  9 10  1  0
 10 11  1  0
 11 12  2  0
 11 13  1  0
 13 14  1  0
 13 18  2  3
 14 15  2  0
 14 16  1  0
 16 17  1  0
 18 19  1  0
 18 20  1  0
 20 21  1  0
 21 22  2  0
 23 21  1  6
 23 24  1  0
 23 27  1  0
 24 25  1  0
 25 26  1  0
 26 27  1  0
M  END
