
     RDKit          3D

 16 17  0  0  0  0  0  0  0  0999 V2000
   -2.9490   -1.6030   -1.6440 O   0  0  0  0  0  0  0  0  0  0  0  0
   -2.7550   -0.6570   -0.8570 C   0  0  0  0  0  0  0  0  0  0  0  0
   -3.7840    0.2490   -0.6360 O   0  0  0  0  0  0  0  0  0  0  0  0
   -1.4440   -0.5080   -0.1720 C   0  0  2  0  0  0  0  0  0  0  0  0
   -0.7850    0.8060   -0.4980 C   0  0  0  0  0  0  0  0  0  0  0  0
    0.4380    0.9420    0.4070 C   0  0  2  0  0  0  0  0  0  0  0  0
    0.2100    2.0450    1.3380 C   0  0  0  0  0  0  0  0  0  0  0  0
    0.9580    3.0510    1.3840 O   0  0  0  0  0  0  0  0  0  0  0  0
   -0.8690    1.9880    2.2040 O   0  0  0  0  0  0  0  0  0  0  0  0
    1.6160    1.1430   -0.4690 C   0  0  0  0  0  0  0  0  0  0  0  0
    2.3460    0.0920   -0.7920 C   0  0  0  0  0  0  0  0  0  0  0  0
    1.7090   -1.2600   -0.9050 C   0  0  1  0  0  0  0  0  0  0  0  0
    2.6900   -2.2550   -0.8320 O   0  0  0  0  0  0  0  0  0  0  0  0
    0.6120   -1.4640    0.1130 C   0  0  1  0  0  0  0  0  0  0  0  0
    0.6850   -0.3820    1.1330 C   0  0  0  0  0  0  0  0  0  0  0  0
   -0.5940   -1.5260   -0.5540 O   0  0  0  0  0  0  0  0  0  0  0  0
  1  2  2  0
  2  3  1  0
  4  2  1  6
  4  5  1  0
  4 16  1  0
  5  6  1  0
  6  7  1  1
  6 10  1  0
  6 15  1  0
  7  8  2  0
  7  9  1  0
 10 11  2  0
 11 12  1  0
 12 13  1  1
 12 14  1  0
 14 15  1  0
 14 16  1  6
M  END
