
     RDKit          3D

 16 16  0  0  0  0  0  0  0  0999 V2000
    2.5730    2.2030   -0.7720 C   0  0  0  0  0  0  0  0  0  0  0  0
    2.6090    0.7960   -1.0360 O   0  0  0  0  0  0  0  0  0  0  0  0
    2.2130   -0.1060   -0.0570 C   0  0  0  0  0  0  0  0  0  0  0  0
    1.8330    0.3920    1.0450 O   0  0  0  0  0  0  0  0  0  0  0  0
    2.2400   -1.5740   -0.3050 C   0  0  1  0  0  0  0  0  0  0  0  0
    1.7820   -2.2010    0.8800 O   0  0  0  0  0  0  0  0  0  0  0  0
    0.4490   -1.8200    0.9660 C   0  0  0  0  0  0  0  0  0  0  0  0
   -0.3040   -1.8140    1.9690 O   0  0  0  0  0  0  0  0  0  0  0  0
    0.1080   -1.4070   -0.4490 C   0  0  2  0  0  0  0  0  0  0  0  0
   -1.0820   -1.9070   -0.8430 O   0  0  0  0  0  0  0  0  0  0  0  0
   -2.0290   -1.0520   -1.2810 C   0  0  0  0  0  0  0  0  0  0  0  0
   -2.5000   -0.1240   -0.2140 C   0  0  0  0  0  0  0  0  0  0  0  0
   -1.5490    0.6870    0.3370 O   0  0  0  0  0  0  0  0  0  0  0  0
   -2.0550    1.4570    1.2550 O   0  0  0  0  0  0  0  0  0  0  0  0
   -2.6360    2.4780    0.6680 O   0  0  0  0  0  0  0  0  0  0  0  0
    1.1980   -1.9420   -1.1890 O   0  0  0  0  0  0  0  0  0  0  0  0
  1  2  1  0
  2  3  1  0
  3  4  2  0
  5  3  1  1
  5  6  1  0
  5 16  1  0
  6  7  1  0
  7  8  2  0
  7  9  1  0
  9 10  1  6
  9 16  1  0
 10 11  1  0
 11 12  1  0
 12 13  1  0
 13 14  1  0
 14 15  1  0
M  END
