
     RDKit          3D

 16 17  0  0  0  0  0  0  0  0999 V2000
   -1.6650    3.0780    1.2250 O   0  0  0  0  0  0  0  0  0  0  0  0
   -1.3430    2.2940    0.3180 C   0  0  0  0  0  0  0  0  0  0  0  0
   -0.5480    2.6300   -0.7780 O   0  0  0  0  0  0  0  0  0  0  0  0
   -0.3600    1.5620   -1.5600 O   0  0  0  0  0  0  0  0  0  0  0  0
   -0.4720    0.4460   -0.7240 C   0  0  1  0  0  0  0  0  0  0  0  0
    0.7020    0.3590    0.0250 O   0  0  0  0  0  0  0  0  0  0  0  0
    1.2670   -0.8810   -0.2670 C   0  0  0  0  0  0  0  0  0  0  0  0
    2.5580   -1.1040    0.4850 C   0  0  0  0  0  0  0  0  0  0  0  0
    3.5090   -0.1300    0.1640 O   0  0  0  0  0  0  0  0  0  0  0  0
    4.6100   -0.3390    0.8200 O   0  0  0  0  0  0  0  0  0  0  0  0
    5.3600    0.7480    0.9040 O   0  0  0  0  0  0  0  0  0  0  0  0
   -1.6670    0.8530    0.1060 C   0  0  2  0  0  0  0  0  0  0  0  0
   -2.8120    0.6950   -0.6420 O   0  0  0  0  0  0  0  0  0  0  0  0
   -3.5020   -0.3820   -0.1040 C   0  0  0  0  0  0  0  0  0  0  0  0
   -2.5050   -0.9820    0.8870 C   0  0  0  0  0  0  0  0  0  0  0  0
   -1.8140    0.1610    1.2780 O   0  0  0  0  0  0  0  0  0  0  0  0
  1  2  2  0
  2  3  1  0
  2 12  1  0
  3  4  1  0
  4  5  1  0
  5  6  1  1
  5 12  1  0
  6  7  1  0
  7  8  1  0
  8  9  1  0
  9 10  1  0
 10 11  1  0
 12 13  1  6
 12 16  1  0
 13 14  1  0
 14 15  1  0
 15 16  1  0
M  END
