
     RDKit          3D

 10  9  0  0  0  0  0  0  0  0999 V2000
    1.6890   -0.8190    2.6320 C   0  0  0  0  0  0  0  0  0  0  0  0
    2.4610   -0.2340    1.7420 C   0  0  0  0  0  0  0  0  0  0  0  0
    1.9630    0.5270    0.5970 C   0  0  0  0  0  0  0  0  0  0  0  0
    2.8060    1.0800   -0.2410 C   0  0  0  0  0  0  0  0  0  0  0  0
    0.5420    0.6660    0.3820 N   0  0  0  0  0  0  0  0  0  0  0  0
    0.0090    0.0220   -0.7760 C   0  0  0  0  0  0  0  0  0  0  0  0
   -1.4920    0.1520   -0.8910 C   0  0  2  0  0  0  0  0  0  0  0  0
   -2.1750   -0.5020    0.3060 C   0  0  0  0  0  0  0  0  0  0  0  0
   -1.8980   -0.5840   -2.1660 C   0  0  0  0  0  0  0  0  0  0  0  0
   -1.8840    1.4700   -0.9690 O   0  0  0  0  0  0  0  0  0  0  0  0
  1  2  2  0
  2  3  1  0
  3  4  2  0
  3  5  1  0
  5  6  1  0
  6  7  1  0
  7  8  1  1
  7  9  1  0
  7 10  1  0
M  END
