
     RDKit          3D

 10  9  0  0  0  0  0  0  0  0999 V2000
   -2.8950    0.6270   -1.2810 C   0  0  0  0  0  0  0  0  0  0  0  0
   -3.2800   -0.0010   -0.1970 C   0  0  0  0  0  0  0  0  0  0  0  0
   -2.3960   -0.2410    0.9150 C   0  0  0  0  0  0  0  0  0  0  0  0
   -2.9220   -0.8750    1.9790 C   0  0  0  0  0  0  0  0  0  0  0  0
   -1.0110    0.1840    0.9160 C   0  0  0  0  0  0  0  0  0  0  0  0
   -0.0540   -0.5440    0.0480 C   0  0  0  0  0  0  0  0  0  0  0  0
    1.2030    0.0820    0.2390 O   0  0  0  0  0  0  0  0  0  0  0  0
    2.1760   -0.5360   -0.5410 C   0  0  0  0  0  0  0  0  0  0  0  0
    3.5310    0.1220   -0.3490 C   0  0  0  0  0  0  0  0  0  0  0  0
    3.4920    1.5240   -0.7210 N   0  0  0  0  0  0  0  0  0  0  0  0
  1  2  2  0
  2  3  1  0
  3  4  2  0
  3  5  1  0
  5  6  1  0
  6  7  1  0
  7  8  1  0
  8  9  1  0
  9 10  1  0
M  END
