
     RDKit          3D

 10  9  0  0  0  0  0  0  0  0999 V2000
    2.6820   -0.5790    2.3520 C   0  0  0  0  0  0  0  0  0  0  0  0
    2.2170    0.3120    1.5090 C   0  0  0  0  0  0  0  0  0  0  0  0
    1.0520    0.0620    0.6910 C   0  0  0  0  0  0  0  0  0  0  0  0
    0.6040    0.9590   -0.1410 C   0  0  0  0  0  0  0  0  0  0  0  0
    1.2880    2.1950   -0.2280 N   0  0  0  0  0  0  0  0  0  0  0  0
   -0.5720    0.6660   -0.9450 C   0  0  0  0  0  0  0  0  0  0  0  0
   -1.0240    1.5830   -1.7920 C   0  0  0  0  0  0  0  0  0  0  0  0
   -1.2780   -0.6350   -0.8410 C   0  0  0  0  0  0  0  0  0  0  0  0
   -1.7550   -0.8640    0.4460 O   0  0  0  0  0  0  0  0  0  0  0  0
   -2.4060   -2.0780    0.5140 C   0  0  0  0  0  0  0  0  0  0  0  0
  1  2  2  0
  2  3  1  0
  3  4  2  3
  4  5  1  0
  4  6  1  0
  6  7  2  0
  6  8  1  0
  8  9  1  0
  9 10  1  0
M  END
