
     RDKit          3D

 36 39  0  0  0  0  0  0  0  0999 V2000
    4.7950    1.6260   -2.4340 C   0  0  0  0  0  0  0  0  0  0  0  0
    5.1310    1.1050   -1.0360 C   0  0  2  0  0  0  0  0  0  0  0  0
    5.7310    2.4690   -0.0250 Cl  0  0  0  0  0  0  0  0  0  0  0  0
    6.2270    0.0920   -1.0930 C   0  0  0  0  0  0  0  0  0  0  0  0
    7.4540    0.7730   -1.6970 C   0  0  0  0  0  0  0  0  0  0  0  0
    8.6120   -0.1440   -1.8020 C   0  0  0  0  0  0  0  0  0  0  0  0
    9.2800   -0.4820   -0.7950 O   0  0  0  0  0  0  0  0  0  0  0  0
    8.9880   -0.6560   -3.0290 O   0  0  0  0  0  0  0  0  0  0  0  0
   10.3520   -1.7250   -3.1000 S   0  0  0  0  0  0  0  0  0  0  0  0
    3.8600    0.6390   -0.4080 C   0  0  0  0  0  0  0  0  0  0  0  0
    4.0050    0.1170    0.9140 N   0  0  0  0  0  0  0  0  0  0  0  0
    2.8040   -0.3060    1.5980 C   0  0  0  0  0  0  0  0  0  0  0  0
    1.5750   -0.1970    1.0120 C   0  0  0  0  0  0  0  0  0  0  0  0
    0.3910   -0.5920    1.6590 C   0  0  0  0  0  0  0  0  0  0  0  0
   -0.8320   -0.4490    0.9570 N   0  0  0  0  0  0  0  0  0  0  0  0
   -2.1240   -0.4710    1.5100 C   0  0  0  0  0  0  0  0  0  0  0  0
   -2.2980   -0.6190    2.7350 O   0  0  0  0  0  0  0  0  0  0  0  0
   -3.3020   -0.3260    0.7230 N   0  0  0  0  0  0  0  0  0  0  0  0
   -4.6170   -0.3350    1.2600 C   0  0  0  0  0  0  0  0  0  0  0  0
   -4.8110   -0.4790    2.5920 N   0  0  0  0  0  0  0  0  0  0  0  0
   -6.0350   -0.4860    3.1170 C   0  0  0  0  0  0  0  0  0  0  0  0
   -7.0910   -0.3490    2.3290 N   0  0  0  0  0  0  0  0  0  0  0  0
   -6.9400   -0.2050    1.0200 N   0  0  0  0  0  0  0  0  0  0  0  0
   -5.7310   -0.1950    0.4710 C   0  0  0  0  0  0  0  0  0  0  0  0
   -5.8460   -0.0340   -0.8970 C   0  0  0  0  0  0  0  0  0  0  0  0
   -7.1970    0.0530   -1.1360 C   0  0  0  0  0  0  0  0  0  0  0  0
   -7.9580    0.2170   -2.2750 C   0  0  0  0  0  0  0  0  0  0  0  0
   -9.3250    0.2710   -2.2190 C   0  0  0  0  0  0  0  0  0  0  0  0
  -10.2920    0.4780   -3.6620 Cl  0  0  0  0  0  0  0  0  0  0  0  0
   -9.9980    0.1630   -1.0220 C   0  0  0  0  0  0  0  0  0  0  0  0
   -9.2420   -0.0020    0.1230 C   0  0  0  0  0  0  0  0  0  0  0  0
   -7.8680   -0.0550    0.0640 C   0  0  0  0  0  0  0  0  0  0  0  0
    0.4660   -1.1090    2.9270 C   0  0  0  0  0  0  0  0  0  0  0  0
    1.7300   -1.2200    3.5260 C   0  0  0  0  0  0  0  0  0  0  0  0
    2.8690   -0.8270    2.8720 C   0  0  0  0  0  0  0  0  0  0  0  0
    4.4300   -0.9730    3.6310 Cl  0  0  0  0  0  0  0  0  0  0  0  0
  2  1  1  6
  2  3  1  0
  2  4  1  0
  2 10  1  0
  4  5  1  0
  5  6  1  0
  6  7  2  0
  6  8  1  0
  8  9  1  0
 10 11  1  0
 11 12  1  0
 12 13  2  0
 12 35  1  0
 13 14  1  0
 14 15  1  0
 14 33  2  0
 15 16  1  0
 16 17  2  0
 16 18  1  0
 18 19  1  0
 19 20  2  0
 19 24  1  0
 20 21  1  0
 21 22  2  0
 22 23  1  0
 23 24  1  0
 23 32  1  0
 24 25  2  0
 25 26  1  0
 26 27  2  0
 26 32  1  0
 27 28  1  0
 28 29  1  0
 28 30  2  0
 30 31  1  0
 31 32  2  0
 33 34  1  0
 34 35  2  0
 35 36  1  0
M  END
