
     RDKit          3D

 36 39  0  0  0  0  0  0  0  0999 V2000
   -0.1050   -1.8580   -2.5550 C   0  0  0  0  0  0  0  0  0  0  0  0
    0.4690   -0.8870   -1.7000 O   0  0  0  0  0  0  0  0  0  0  0  0
   -0.2760   -0.4750   -0.6040 C   0  0  0  0  0  0  0  0  0  0  0  0
   -1.5510   -0.9910   -0.3370 C   0  0  0  0  0  0  0  0  0  0  0  0
   -2.2950   -0.6030    0.7280 C   0  0  0  0  0  0  0  0  0  0  0  0
   -3.6170   -1.1240    1.0260 C   0  0  0  0  0  0  0  0  0  0  0  0
   -4.1890   -2.0340    0.2600 C   0  0  0  0  0  0  0  0  0  0  0  0
   -5.5010   -2.5240    0.5930 N   0  0  0  0  0  0  0  0  0  0  0  0
   -6.6090   -1.6490    0.4740 C   0  0  0  0  0  0  0  0  0  0  0  0
   -6.4680   -0.3440    0.0490 C   0  0  0  0  0  0  0  0  0  0  0  0
   -7.5410    0.5150   -0.0700 C   0  0  0  0  0  0  0  0  0  0  0  0
   -7.3210    2.1610   -0.6120 Cl  0  0  0  0  0  0  0  0  0  0  0  0
   -8.8160    0.0980    0.2360 C   0  0  0  0  0  0  0  0  0  0  0  0
  -10.2070    1.1940    0.0880 S   0  0  0  0  0  0  0  0  0  0  0  0
  -10.3340    1.9630    1.3950 O   0  0  0  0  0  0  0  0  0  0  0  0
   -8.9690   -1.2110    0.6640 C   0  0  0  0  0  0  0  0  0  0  0  0
   -7.8850   -2.0700    0.7810 C   0  0  0  0  0  0  0  0  0  0  0  0
   -8.1470   -3.7080    1.3260 Cl  0  0  0  0  0  0  0  0  0  0  0  0
   -1.7580    0.3580    1.5950 C   0  0  0  0  0  0  0  0  0  0  0  0
   -2.7040    0.8770    2.9820 Cl  0  0  0  0  0  0  0  0  0  0  0  0
   -0.5030    0.8710    1.3380 C   0  0  0  0  0  0  0  0  0  0  0  0
    0.2450    0.4690    0.2520 C   0  0  0  0  0  0  0  0  0  0  0  0
    1.5730    1.0330    0.0080 C   0  0  0  0  0  0  0  0  0  0  0  0
    2.4000    0.7320   -1.0090 N   0  0  0  0  0  0  0  0  0  0  0  0
    3.5180    1.4180   -0.9340 N   0  0  0  0  0  0  0  0  0  0  0  0
    3.4200    2.1890    0.1620 C   0  0  0  0  0  0  0  0  0  0  0  0
    4.4310    3.0870    0.5930 N   0  0  0  0  0  0  0  0  0  0  0  0
    5.6470    3.2090   -0.1490 C   0  0  0  0  0  0  0  0  0  0  0  0
    6.4090    1.9320   -0.2070 C   0  0  0  0  0  0  0  0  0  0  0  0
    7.5630    1.7810   -0.8930 N   0  0  0  0  0  0  0  0  0  0  0  0
    8.0030    0.5240   -0.7530 C   0  0  0  0  0  0  0  0  0  0  0  0
    9.2480   -0.0140   -1.3680 C   0  0  0  0  0  0  0  0  0  0  0  0
    7.0800   -0.1070    0.0470 C   0  0  0  0  0  0  0  0  0  0  0  0
    7.1900   -1.5330    0.4550 C   0  0  0  0  0  0  0  0  0  0  0  0
    6.1670    0.7720    0.3350 O   0  0  0  0  0  0  0  0  0  0  0  0
    2.2210    1.9430    0.7320 N   0  0  0  0  0  0  0  0  0  0  0  0
  1  2  1  0
  2  3  1  0
  3  4  2  0
  3 22  1  0
  4  5  1  0
  5  6  1  0
  5 19  2  0
  6  7  2  3
  7  8  1  0
  8  9  1  0
  9 10  2  0
  9 17  1  0
 10 11  1  0
 11 12  1  0
 11 13  2  0
 13 14  1  0
 13 16  1  0
 14 15  2  0
 16 17  2  0
 17 18  1  0
 19 20  1  0
 19 21  1  0
 21 22  2  0
 22 23  1  0
 23 24  2  0
 23 36  1  0
 24 25  1  0
 25 26  1  0
 26 27  1  0
 26 36  2  0
 27 28  1  0
 28 29  1  0
 29 30  2  0
 29 35  1  0
 30 31  1  0
 31 32  1  0
 31 33  2  0
 33 34  1  0
 33 35  1  0
M  END
