
     RDKit          3D

 36 39  0  0  0  0  0  0  0  0999 V2000
   -8.0890    3.1210   -0.3500 C   0  0  0  0  0  0  0  0  0  0  0  0
   -7.8570    1.7100   -0.8920 C   0  0  1  0  0  0  0  0  0  0  0  0
   -8.2240    1.7000   -2.3650 C   0  0  0  0  0  0  0  0  0  0  0  0
   -6.5220    1.3750   -0.6920 O   0  0  0  0  0  0  0  0  0  0  0  0
   -6.0190    0.3400    0.0600 C   0  0  0  0  0  0  0  0  0  0  0  0
   -6.7790   -0.5650    0.7650 C   0  0  0  0  0  0  0  0  0  0  0  0
   -6.1930   -1.5750    1.4960 C   0  0  0  0  0  0  0  0  0  0  0  0
   -6.7050   -2.5920    2.2750 C   0  0  0  0  0  0  0  0  0  0  0  0
   -5.6440   -3.2570    2.7300 N   0  0  0  0  0  0  0  0  0  0  0  0
   -4.5240   -2.7290    2.2930 N   0  0  0  0  0  0  0  0  0  0  0  0
   -4.8130   -1.6660    1.5110 C   0  0  0  0  0  0  0  0  0  0  0  0
   -4.0950   -0.7340    0.7880 C   0  0  0  0  0  0  0  0  0  0  0  0
   -2.6490   -0.8110    0.7900 C   0  0  0  0  0  0  0  0  0  0  0  0
   -2.0870   -1.7250    1.4490 O   0  0  0  0  0  0  0  0  0  0  0  0
   -1.9040    0.1430    0.0500 N   0  0  0  0  0  0  0  0  0  0  0  0
   -0.4650    0.1030    0.0220 C   0  0  0  0  0  0  0  0  0  0  0  0
    0.0710   -1.1910   -0.5500 C   0  0  0  0  0  0  0  0  0  0  0  0
    1.5940   -1.1330   -0.5380 C   0  0  0  0  0  0  0  0  0  0  0  0
    2.3180   -0.2050   -0.1380 N   0  0  0  0  0  0  0  0  0  0  0  0
    3.7120   -0.2830   -0.1850 C   0  0  0  0  0  0  0  0  0  0  0  0
    4.4440    0.6610    0.3700 C   0  0  0  0  0  0  0  0  0  0  0  0
    3.5990    2.0310    1.1810 Cl  0  0  0  0  0  0  0  0  0  0  0  0
    5.8610    0.7570    0.3880 C   0  0  0  0  0  0  0  0  0  0  0  0
    6.3600    1.7930    1.0300 O   0  0  0  0  0  0  0  0  0  0  0  0
    6.8480   -0.0710   -0.1690 N   0  0  0  0  0  0  0  0  0  0  0  0
    8.2530    0.1330   -0.0630 C   0  0  0  0  0  0  0  0  0  0  0  0
    9.0970   -0.4140   -1.0400 C   0  0  0  0  0  0  0  0  0  0  0  0
   10.4540   -0.2780   -0.9810 C   0  0  0  0  0  0  0  0  0  0  0  0
   11.0360    0.4150    0.0640 C   0  0  0  0  0  0  0  0  0  0  0  0
   12.7690    0.6110    0.1770 Cl  0  0  0  0  0  0  0  0  0  0  0  0
   10.2490    0.9660    1.0420 C   0  0  0  0  0  0  0  0  0  0  0  0
   10.9540    1.8360    2.3590 Cl  0  0  0  0  0  0  0  0  0  0  0  0
    8.8600    0.8060    0.9490 C   0  0  0  0  0  0  0  0  0  0  0  0
    4.2390   -1.4740   -0.8690 C   0  0  0  0  0  0  0  0  0  0  0  0
    2.6730   -2.4260   -1.1150 S   0  0  0  0  0  0  0  0  0  0  0  0
   -4.6610    0.2430    0.0810 N   0  0  0  0  0  0  0  0  0  0  0  0
  2  1  1  6
  2  3  1  0
  2  4  1  0
  4  5  1  0
  5  6  2  0
  5 36  1  0
  6  7  1  0
  7  8  1  0
  7 11  2  0
  8  9  2  0
  9 10  1  0
 10 11  1  0
 11 12  1  0
 12 13  1  0
 12 36  2  0
 13 14  2  0
 13 15  1  0
 15 16  1  0
 16 17  1  0
 17 18  1  0
 18 19  2  0
 18 35  1  0
 19 20  1  0
 20 21  2  3
 20 34  1  0
 21 22  1  0
 21 23  1  0
 23 24  2  0
 23 25  1  0
 25 26  1  0
 26 27  2  0
 26 33  1  0
 27 28  1  0
 28 29  2  0
 29 30  1  0
 29 31  1  0
 31 32  1  0
 31 33  2  0
 34 35  1  0
M  END
