
     RDKit          3D

 21 21  0  0  0  0  0  0  0  0999 V2000
    5.1630    1.5480    1.0780 C   0  0  0  0  0  0  0  0  0  0  0  0
    5.6510    0.3990    0.2030 C   0  0  0  0  0  0  0  0  0  0  0  0
    4.7610   -0.6880    0.2730 O   0  0  0  0  0  0  0  0  0  0  0  0
    3.4380   -0.6190   -0.0920 C   0  0  0  0  0  0  0  0  0  0  0  0
    2.9620    0.4460   -0.5150 O   0  0  0  0  0  0  0  0  0  0  0  0
    2.6280   -1.8710    0.0450 C   0  0  0  0  0  0  0  0  0  0  0  0
    1.3130   -1.6480   -0.3610 O   0  0  0  0  0  0  0  0  0  0  0  0
    0.4620   -0.7170    0.2210 C   0  0  0  0  0  0  0  0  0  0  0  0
    0.9300   -0.0490    1.1690 O   0  0  0  0  0  0  0  0  0  0  0  0
   -0.8870   -0.6160   -0.3320 C   0  0  1  0  0  0  0  0  0  0  0  0
   -1.5500   -1.9910   -0.1700 C   0  0  2  0  0  0  0  0  0  0  0  0
   -2.9210   -1.8420   -0.5760 N   0  0  0  0  0  0  0  0  0  0  0  0
   -1.5390   -2.2800    1.3230 C   0  0  0  0  0  0  0  0  0  0  0  0
   -1.9370   -1.1370    1.9720 O   0  0  0  0  0  0  0  0  0  0  0  0
   -2.5920   -0.2890    1.2430 O   0  0  0  0  0  0  0  0  0  0  0  0
   -1.7720    0.3810    0.3270 C   0  0  1  0  0  0  0  0  0  0  0  0
   -1.0640    1.5150    0.9870 C   0  0  0  0  0  0  0  0  0  0  0  0
   -2.5760    0.9330   -0.6970 O   0  0  0  0  0  0  0  0  0  0  0  0
   -3.4250    1.8520   -0.2390 N   0  0  0  0  0  0  0  0  0  0  0  0
   -4.7500    1.5110   -0.7810 C   0  0  0  0  0  0  0  0  0  0  0  0
   -3.0860    3.0460   -0.7870 O   0  0  0  0  0  0  0  0  0  0  0  0
  1  2  1  0
  2  3  1  0
  3  4  1  0
  4  5  2  0
  4  6  1  0
  6  7  1  0
  7  8  1  0
  8  9  2  0
 10  8  1  1
 10 11  1  0
 10 16  1  0
 11 12  1  1
 11 13  1  0
 13 14  1  0
 14 15  1  0
 15 16  1  0
 16 17  1  1
 16 18  1  0
 18 19  1  0
 19 20  1  0
 19 21  1  0
M  END
