
     RDKit          3D

 21 22  0  0  0  0  0  0  0  0999 V2000
    5.5690    0.4280   -0.1290 C   0  0  0  0  0  0  0  0  0  0  0  0
    4.7580    0.8560    0.9460 O   0  0  0  0  0  0  0  0  0  0  0  0
    3.5190    0.6640    0.5560 O   0  0  0  0  0  0  0  0  0  0  0  0
    3.0740   -0.4710    1.0300 O   0  0  0  0  0  0  0  0  0  0  0  0
    2.1160   -1.0430    0.1950 C   0  0  0  0  0  0  0  0  0  0  0  0
    0.9720   -0.2170    0.0030 N   0  0  0  0  0  0  0  0  0  0  0  0
    0.8180    1.1100   -0.5480 C   0  0  0  0  0  0  0  0  0  0  0  0
   -0.4620    0.9100   -1.3190 C   0  0  2  0  0  0  0  0  0  0  0  0
   -0.2090    0.1630   -2.4620 O   0  0  0  0  0  0  0  0  0  0  0  0
   -1.1610    2.2010   -1.6320 C   0  0  0  0  0  0  0  0  0  0  0  0
   -1.4280    2.9650   -0.5270 O   0  0  0  0  0  0  0  0  0  0  0  0
   -1.2330    0.0450   -0.3970 C   0  0  0  0  0  0  0  0  0  0  0  0
   -0.3770   -0.6030    0.3630 C   0  0  0  0  0  0  0  0  0  0  0  0
   -0.8690   -1.5370    1.3690 C   0  0  0  0  0  0  0  0  0  0  0  0
   -0.0270   -2.1620    2.1030 O   0  0  0  0  0  0  0  0  0  0  0  0
   -2.2280   -1.7320    1.5140 O   0  0  0  0  0  0  0  0  0  0  0  0
   -3.0910   -0.7420    1.0040 C   0  0  2  0  0  0  0  0  0  0  0  0
   -4.4670   -1.3100    0.7000 C   0  0  0  0  0  0  0  0  0  0  0  0
   -4.4200   -2.3510   -0.2570 N   0  0  0  0  0  0  0  0  0  0  0  0
   -4.1420   -3.4770   -0.0470 O   0  0  0  0  0  0  0  0  0  0  0  0
   -2.5940   -0.1900   -0.2010 O   0  0  0  0  0  0  0  0  0  0  0  0
  1  2  1  0
  2  3  1  0
  3  4  1  0
  4  5  1  0
  5  6  1  0
  6  7  1  0
  6 13  1  0
  7  8  1  0
  8  9  1  6
  8 10  1  0
  8 12  1  0
 10 11  1  0
 12 13  2  0
 12 21  1  0
 13 14  1  0
 14 15  2  0
 14 16  1  0
 16 17  1  0
 17 18  1  6
 17 21  1  0
 18 19  1  0
 19 20  2  0
M  END
