
     RDKit          3D

 21 21  0  0  0  0  0  0  0  0999 V2000
   -1.4190    3.9110    1.7590 C   0  0  0  0  0  0  0  0  0  0  0  0
   -1.3450    2.5460    1.3800 O   0  0  0  0  0  0  0  0  0  0  0  0
   -1.9710    2.0510    0.2510 C   0  0  0  0  0  0  0  0  0  0  0  0
   -1.7940    0.7910   -0.0800 C   0  0  0  0  0  0  0  0  0  0  0  0
   -0.9310   -0.0650    0.7620 C   0  0  0  0  0  0  0  0  0  0  0  0
   -0.3620   -1.2440    0.0300 C   0  0  2  0  0  0  0  0  0  0  0  0
    1.1110   -1.3300    0.2120 C   0  0  0  0  0  0  0  0  0  0  0  0
    1.6540   -2.3250    0.7360 O   0  0  0  0  0  0  0  0  0  0  0  0
    1.9550   -0.2970   -0.1970 O   0  0  0  0  0  0  0  0  0  0  0  0
    3.3250   -0.3880   -0.0220 C   0  0  0  0  0  0  0  0  0  0  0  0
    3.7870   -1.4220    0.5120 O   0  0  0  0  0  0  0  0  0  0  0  0
    4.2230    0.6600   -0.4330 C   0  0  0  0  0  0  0  0  0  0  0  0
    3.7710    1.6940   -0.9670 O   0  0  0  0  0  0  0  0  0  0  0  0
    5.6130    0.5300   -0.2380 N   0  0  0  0  0  0  0  0  0  0  0  0
    6.4480    1.5380   -0.6360 O   0  0  0  0  0  0  0  0  0  0  0  0
   -0.6240   -1.1890   -1.4550 C   0  0  0  0  0  0  0  0  0  0  0  0
   -1.9680   -0.8420   -1.7850 N   0  0  0  0  0  0  0  0  0  0  0  0
   -2.8130   -1.8680   -1.7780 O   0  0  0  0  0  0  0  0  0  0  0  0
   -3.6160   -1.8100   -0.7450 O   0  0  0  0  0  0  0  0  0  0  0  0
   -3.8920   -3.1240   -0.3560 C   0  0  0  0  0  0  0  0  0  0  0  0
   -2.4240    0.2930   -1.2160 O   0  0  0  0  0  0  0  0  0  0  0  0
  1  2  1  0
  2  3  1  0
  3  4  2  3
  4  5  1  0
  4 21  1  0
  5  6  1  0
  6  7  1  6
  6 16  1  0
  7  8  2  0
  7  9  1  0
  9 10  1  0
 10 11  2  0
 10 12  1  0
 12 13  2  0
 12 14  1  0
 14 15  1  0
 16 17  1  0
 17 18  1  0
 17 21  1  0
 18 19  1  0
 19 20  1  0
M  END
