
     RDKit          3D

 21 20  0  0  0  0  0  0  0  0999 V2000
   -3.0520   -1.4460    4.1600 C   0  0  0  0  0  0  0  0  0  0  0  0
   -2.0250   -2.2100    3.3710 C   0  0  0  0  0  0  0  0  0  0  0  0
   -2.0870   -3.4660    3.3600 O   0  0  0  0  0  0  0  0  0  0  0  0
   -1.0090   -1.4920    2.6550 C   0  0  0  0  0  0  0  0  0  0  0  0
    0.0020   -2.2510    1.8780 C   0  0  0  0  0  0  0  0  0  0  0  0
   -0.9520   -0.1730    2.6720 C   0  0  0  0  0  0  0  0  0  0  0  0
   -0.0000    0.5600    2.0050 O   0  0  0  0  0  0  0  0  0  0  0  0
   -0.2240    1.1890    0.7850 C   0  0  0  0  0  0  0  0  0  0  0  0
   -0.2460    2.4890    0.7350 C   0  0  0  0  0  0  0  0  0  0  0  0
   -0.4760    3.1980   -0.5150 C   0  0  0  0  0  0  0  0  0  0  0  0
   -0.5020    4.4520   -0.5890 O   0  0  0  0  0  0  0  0  0  0  0  0
   -0.6840    2.5140   -1.7210 O   0  0  0  0  0  0  0  0  0  0  0  0
   -0.8950    3.1870   -2.8670 O   0  0  0  0  0  0  0  0  0  0  0  0
   -0.4260    0.4670   -0.3880 O   0  0  0  0  0  0  0  0  0  0  0  0
    0.7110    0.1540   -1.1350 C   0  0  0  0  0  0  0  0  0  0  0  0
    1.8660    0.5020   -0.7780 O   0  0  0  0  0  0  0  0  0  0  0  0
    0.6240   -0.5840   -2.3570 N   0  0  0  0  0  0  0  0  0  0  0  0
    1.8020   -0.9100   -3.1340 C   0  0  0  0  0  0  0  0  0  0  0  0
    2.5330    0.2860   -3.5790 C   0  0  0  0  0  0  0  0  0  0  0  0
    3.7130    0.1260   -4.3530 N   0  0  0  0  0  0  0  0  0  0  0  0
    2.1180    1.4120   -3.2790 O   0  0  0  0  0  0  0  0  0  0  0  0
  1  2  1  0
  2  3  2  0
  2  4  1  0
  4  5  1  0
  4  6  2  3
  6  7  1  0
  7  8  1  0
  8  9  2  3
  8 14  1  0
  9 10  1  0
 10 11  2  0
 10 12  1  0
 12 13  1  0
 14 15  1  0
 15 16  2  0
 15 17  1  0
 17 18  1  0
 18 19  1  0
 19 20  1  0
 19 21  2  0
M  END
