
     RDKit          3D

 14 14  0  0  0  0  0  0  0  0999 V2000
   -3.1740    2.3970   -1.8670 O   0  0  0  0  0  0  0  0  0  0  0  0
   -2.6280    1.6340   -0.9960 C   0  0  0  0  0  0  0  0  0  0  0  0
   -3.2110    1.4480    0.2440 O   0  0  0  0  0  0  0  0  0  0  0  0
   -2.8820    0.3110    1.0480 C   0  0  0  0  0  0  0  0  0  0  0  0
   -1.4740    0.0110    0.8670 O   0  0  0  0  0  0  0  0  0  0  0  0
   -0.9040    0.1900   -0.3410 C   0  0  0  0  0  0  0  0  0  0  0  0
    0.4460   -0.5690   -0.6640 S   0  0  2  0  0  0  0  0  0  0  0  0
   -0.1440   -1.8360   -1.2680 O   0  0  0  0  0  0  0  0  0  0  0  0
    1.6180   -0.9480    1.0180 P   0  0  0  0  0  0  0  0  0  0  0  0
    1.8660   -2.6310    1.3230 O   0  0  0  0  0  0  0  0  0  0  0  0
    3.2240   -0.1080    0.8140 C   0  0  0  0  0  0  0  0  0  0  0  0
    4.1480   -0.7350    0.2500 O   0  0  0  0  0  0  0  0  0  0  0  0
    3.4820    1.1780    1.2450 O   0  0  0  0  0  0  0  0  0  0  0  0
   -1.4370    0.9780   -1.2830 O   0  0  0  0  0  0  0  0  0  0  0  0
  1  2  2  0
  2  3  1  0
  2 14  1  0
  3  4  1  0
  4  5  1  0
  5  6  1  0
  6  7  2  0
  6 14  1  0
  7  8  2  0
  7  9  1  1
  9 10  1  0
  9 11  1  0
 11 12  2  0
 11 13  1  0
M  END
