
     RDKit          3D

 14 14  0  0  0  0  0  0  0  0999 V2000
   -5.4050    0.4350   -0.2720 O   0  0  0  0  0  0  0  0  0  0  0  0
   -4.1400    0.2460   -0.1590 C   0  0  0  0  0  0  0  0  0  0  0  0
   -3.3070    1.0150   -0.9240 O   0  0  0  0  0  0  0  0  0  0  0  0
   -1.9830    1.0280   -1.0040 O   0  0  0  0  0  0  0  0  0  0  0  0
   -1.1130    0.2250   -0.2950 C   0  0  0  0  0  0  0  0  0  0  0  0
    0.3510    0.3120   -0.4520 C   0  0  0  0  0  0  0  0  0  0  0  0
    0.8710    1.1320   -1.2480 O   0  0  0  0  0  0  0  0  0  0  0  0
    1.2050   -0.5010    0.2660 O   0  0  0  0  0  0  0  0  0  0  0  0
    2.5870   -0.3920    0.0940 C   0  0  0  0  0  0  0  0  0  0  0  0
    3.0970    0.4420   -0.7160 O   0  0  0  0  0  0  0  0  0  0  0  0
    3.4830   -1.1900    0.7960 O   0  0  0  0  0  0  0  0  0  0  0  0
    4.8080   -1.0890    0.6330 O   0  0  0  0  0  0  0  0  0  0  0  0
   -1.8850   -0.8260    0.7300 P   0  0  0  0  0  0  0  0  0  0  0  0
   -3.6330   -0.7000    0.7020 O   0  0  0  0  0  0  0  0  0  0  0  0
  1  2  2  0
  2  3  1  0
  2 14  1  0
  3  4  1  0
  4  5  1  0
  5  6  1  0
  5 13  2  0
  6  7  2  0
  6  8  1  0
  8  9  1  0
  9 10  2  0
  9 11  1  0
 11 12  1  0
 13 14  1  0
M  END
