
     RDKit          3D

 15 14  0  0  0  0  0  0  0  0999 V2000
   -3.7460   -1.0540   -0.2600 C   0  0  0  0  0  0  0  0  0  0  0  0
   -2.4670   -0.9810    0.3310 O   0  0  0  0  0  0  0  0  0  0  0  0
   -1.8290    0.2360    0.5010 C   0  0  0  0  0  0  0  0  0  0  0  0
   -2.4130    1.2740    0.1180 O   0  0  0  0  0  0  0  0  0  0  0  0
   -0.2490    0.2210    1.2430 S   0  0  1  0  0  0  0  0  0  0  0  0
   -0.0860    1.5210    1.9720 O   0  0  0  0  0  0  0  0  0  0  0  0
   -0.1640   -0.9470    2.1720 O   0  0  0  0  0  0  0  0  0  0  0  0
    1.1960    0.0240   -0.2780 P   0  0  0  0  0  0  0  0  0  0  0  0
    1.5570    1.5840   -1.1200 C   0  0  0  0  0  0  0  0  0  0  0  0
    2.8320    2.1030   -1.1330 O   0  0  0  0  0  0  0  0  0  0  0  0
    0.5660    2.2050   -1.7160 C   0  0  0  0  0  0  0  0  0  0  0  0
   -0.4190    2.8280   -2.1690 O   0  0  0  0  0  0  0  0  0  0  0  0
    2.9350   -1.0950    0.3120 P   0  0  0  0  0  0  0  0  0  0  0  0
    3.2360   -1.1660    1.9800 O   0  0  0  0  0  0  0  0  0  0  0  0
    2.9370   -2.6510   -0.4620 O   0  0  0  0  0  0  0  0  0  0  0  0
  1  2  1  0
  2  3  1  0
  3  4  2  0
  3  5  1  0
  5  6  2  0
  5  7  2  0
  5  8  1  6
  8  9  1  0
  8 13  1  0
  9 10  1  0
  9 11  2  0
 11 12  2  0
 13 14  1  0
 13 15  1  0
M  END
