
     RDKit          3D

 21 22  0  0  0  0  0  0  0  0999 V2000
    0.2230   -3.4290    0.5330 O   0  0  0  0  0  0  0  0  0  0  0  0
    0.0330   -2.1630   -0.2680 S   0  0  2  0  0  0  0  0  0  0  0  0
   -0.1350   -2.4990   -1.7190 O   0  0  0  0  0  0  0  0  0  0  0  0
    1.4540   -1.2190   -0.0690 N   0  0  0  0  0  0  0  0  0  0  0  0
    1.3940    0.0140   -0.8420 C   0  0  0  0  0  0  0  0  0  0  0  0
    2.6520    0.7650   -0.6160 C   0  0  0  0  0  0  0  0  0  0  0  0
    3.6760   -0.1010   -1.0680 O   0  0  0  0  0  0  0  0  0  0  0  0
    5.0970    0.4720   -0.9290 P   0  0  0  0  0  0  0  0  0  0  0  0
    4.8500    0.4590    0.7100 O   0  0  0  0  0  0  0  0  0  0  0  0
    4.7130    1.8420   -1.7460 O   0  0  0  0  0  0  0  0  0  0  0  0
    6.5410    0.9370   -0.6970 O   0  0  0  0  0  0  0  0  0  0  0  0
   -1.4000   -1.3490    0.2790 C   0  0  0  0  0  0  0  0  0  0  0  0
   -1.7970   -1.4980    1.5820 C   0  0  0  0  0  0  0  0  0  0  0  0
   -2.9230   -0.8830    2.0840 C   0  0  0  0  0  0  0  0  0  0  0  0
   -3.6910   -0.0810    1.2550 C   0  0  0  0  0  0  0  0  0  0  0  0
   -4.8130    0.5240    1.7810 C   0  0  0  0  0  0  0  0  0  0  0  0
   -5.5750    1.3210    0.9540 C   0  0  0  0  0  0  0  0  0  0  0  0
   -5.1830    1.4770   -0.3610 C   0  0  0  0  0  0  0  0  0  0  0  0
   -4.0610    0.8690   -0.8780 C   0  0  0  0  0  0  0  0  0  0  0  0
   -3.3020    0.0770   -0.0570 C   0  0  0  0  0  0  0  0  0  0  0  0
   -2.1550   -0.5550   -0.5560 C   0  0  0  0  0  0  0  0  0  0  0  0
  1  2  2  0
  2  3  2  0
  2  4  1  6
  2 12  1  0
  4  5  1  0
  5  6  1  0
  6  7  1  0
  7  8  1  0
  8  9  1  0
  8 10  1  0
  8 11  1  0
 12 13  2  0
 12 21  1  0
 13 14  1  0
 14 15  2  0
 15 16  1  0
 15 20  1  0
 16 17  2  0
 17 18  1  0
 18 19  2  0
 19 20  1  0
 20 21  2  0
M  END
