
     RDKit          3D

 13 13  0  0  0  0  0  0  0  0999 V2000
    1.3080   -1.4550    0.9260 O   0  0  0  0  0  0  0  0  0  0  0  0
    1.2480   -0.5180    0.0910 C   0  0  0  0  0  0  0  0  0  0  0  0
    2.3650    0.2760   -0.0720 O   0  0  0  0  0  0  0  0  0  0  0  0
    3.4470    0.0080    0.6660 O   0  0  0  0  0  0  0  0  0  0  0  0
    0.0020   -0.3150   -0.6690 C   0  0  2  0  0  0  0  0  0  0  0  0
    0.0660    0.7610   -1.5250 O   0  0  0  0  0  0  0  0  0  0  0  0
    0.0950    1.9890   -0.8870 C   0  0  0  0  0  0  0  0  0  0  0  0
   -1.0740    2.0910   -0.1400 O   0  0  0  0  0  0  0  0  0  0  0  0
   -1.1460    3.2180    0.5030 O   0  0  0  0  0  0  0  0  0  0  0  0
   -1.1420   -0.2320    0.1120 O   0  0  0  0  0  0  0  0  0  0  0  0
   -1.4610   -1.5320    0.4420 C   0  0  0  0  0  0  0  0  0  0  0  0
   -0.9950   -2.3150   -0.7750 C   0  0  0  0  0  0  0  0  0  0  0  0
   -0.1860   -1.4400   -1.4870 O   0  0  0  0  0  0  0  0  0  0  0  0
  1  2  2  0
  2  3  1  0
  2  5  1  0
  3  4  1  0
  5  6  1  6
  5 10  1  0
  5 13  1  0
  6  7  1  0
  7  8  1  0
  8  9  1  0
 10 11  1  0
 11 12  1  0
 12 13  1  0
M  END
