
     RDKit          3D

 10  9  0  0  0  0  0  0  0  0999 V2000
   -3.7500    1.3200    0.6890 O   0  0  0  0  0  0  0  0  0  0  0  0
   -2.9070    0.9410   -0.5470 P   0  0  0  0  0  0  0  0  0  0  0  0
   -2.4410   -0.6990   -0.9090 O   0  0  0  0  0  0  0  0  0  0  0  0
   -1.3270   -1.0660   -0.1580 C   0  0  0  0  0  0  0  0  0  0  0  0
   -0.2760   -0.1750   -0.4990 O   0  0  0  0  0  0  0  0  0  0  0  0
    0.9870   -0.2510    0.0640 C   0  0  0  0  0  0  0  0  0  0  0  0
    1.1740   -1.1650    0.9130 O   0  0  0  0  0  0  0  0  0  0  0  0
    2.0730    0.6500   -0.2720 C   0  0  0  0  0  0  0  0  0  0  0  0
    1.9090    1.5660   -1.1130 O   0  0  0  0  0  0  0  0  0  0  0  0
    3.3250    0.5440    0.3120 O   0  0  0  0  0  0  0  0  0  0  0  0
  1  2  2  0
  2  3  1  0
  3  4  1  0
  4  5  1  0
  5  6  1  0
  6  7  2  0
  6  8  1  0
  8  9  2  0
  8 10  1  0
M  END
