
     RDKit          3D

 10  9  0  0  0  0  0  0  0  0999 V2000
   -3.1210    0.9330   -0.7530 C   0  0  0  0  0  0  0  0  0  0  0  0
   -2.6860   -0.2540   -0.1750 O   0  0  0  0  0  0  0  0  0  0  0  0
   -1.6330   -0.7490   -0.8260 O   0  0  0  0  0  0  0  0  0  0  0  0
   -0.2430   -0.3810    0.1040 P   0  0  0  0  0  0  0  0  0  0  0  0
   -0.6190   -0.3940    1.7780 O   0  0  0  0  0  0  0  0  0  0  0  0
    1.2240   -1.3920   -0.3230 C   0  0  0  0  0  0  0  0  0  0  0  0
    2.3030   -0.4940   -0.6160 O   0  0  0  0  0  0  0  0  0  0  0  0
    2.7480    0.4010    0.3540 C   0  0  0  0  0  0  0  0  0  0  0  0
    2.1700    0.3730    1.4580 O   0  0  0  0  0  0  0  0  0  0  0  0
    3.7800    1.2960    0.1490 O   0  0  0  0  0  0  0  0  0  0  0  0
  1  2  1  0
  2  3  1  0
  3  4  1  0
  4  5  1  0
  4  6  1  0
  6  7  1  0
  7  8  1  0
  8  9  2  0
  8 10  1  0
M  END
