
     RDKit          3D

 10  9  0  0  0  0  0  0  0  0999 V2000
   -2.1800   -0.1440   -1.2190 O   0  0  0  0  0  0  0  0  0  0  0  0
   -2.2030    0.2800   -0.0300 C   0  0  0  0  0  0  0  0  0  0  0  0
   -2.9250    1.4270    0.2470 O   0  0  0  0  0  0  0  0  0  0  0  0
   -1.4970   -0.4410    0.9130 O   0  0  0  0  0  0  0  0  0  0  0  0
   -0.7880   -1.6060    0.5270 C   0  0  0  0  0  0  0  0  0  0  0  0
    0.1710   -1.1800   -0.4490 O   0  0  0  0  0  0  0  0  0  0  0  0
    1.1420   -0.2430   -0.1500 C   0  0  0  0  0  0  0  0  0  0  0  0
    1.1480    0.2220    1.0180 O   0  0  0  0  0  0  0  0  0  0  0  0
    2.0840    0.1760   -1.1100 O   0  0  0  0  0  0  0  0  0  0  0  0
    3.2970    1.3730   -0.6720 P   0  0  0  0  0  0  0  0  0  0  0  0
  1  2  2  0
  2  3  1  0
  2  4  1  0
  4  5  1  0
  5  6  1  0
  6  7  1  0
  7  8  2  0
  7  9  1  0
  9 10  1  0
M  END
