
     RDKit          3D

 22 22  0  0  0  0  0  0  0  0999 V2000
    0.4480    2.7780   -0.7780 O   0  0  0  0  0  0  0  0  0  0  0  0
    0.4270    1.3930   -1.3710 S   0  0  2  0  0  0  0  0  0  0  0  0
    0.5950    1.5580   -2.8560 O   0  0  0  0  0  0  0  0  0  0  0  0
   -1.0560    0.6290   -1.0790 N   0  0  0  0  0  0  0  0  0  0  0  0
   -1.3540    0.4570    0.3280 C   0  0  0  0  0  0  0  0  0  0  0  0
   -2.7150   -0.2430    0.5010 C   0  0  0  0  0  0  0  0  0  0  0  0
   -3.6990    0.5120   -0.0720 O   0  0  0  0  0  0  0  0  0  0  0  0
   -5.1620   -0.2390    0.1010 P   0  0  0  0  0  0  0  0  0  0  0  0
   -5.3030   -1.8490    0.0350 O   0  0  0  0  0  0  0  0  0  0  0  0
   -5.0720   -0.1080    1.6110 O   0  0  0  0  0  0  0  0  0  0  0  0
   -6.5340    0.7320    0.1190 O   0  0  0  0  0  0  0  0  0  0  0  0
    1.8010    0.5320   -0.7710 C   0  0  0  0  0  0  0  0  0  0  0  0
    2.5010   -0.4040   -1.5000 C   0  0  0  0  0  0  0  0  0  0  0  0
    3.6020   -1.0640   -0.9550 C   0  0  0  0  0  0  0  0  0  0  0  0
    4.0130   -0.7920    0.3280 C   0  0  0  0  0  0  0  0  0  0  0  0
    5.1190   -1.4500    0.8840 O   0  0  0  0  0  0  0  0  0  0  0  0
    6.3870   -0.8200    0.6880 C   0  0  1  0  0  0  0  0  0  0  0  0
    7.3820   -1.5700    1.2830 F   0  0  0  0  0  0  0  0  0  0  0  0
    6.6530   -0.7850   -0.6610 F   0  0  0  0  0  0  0  0  0  0  0  0
    6.3850    0.4710    1.1710 F   0  0  0  0  0  0  0  0  0  0  0  0
    3.3290    0.1330    1.0620 C   0  0  0  0  0  0  0  0  0  0  0  0
    2.2360    0.7840    0.5130 C   0  0  0  0  0  0  0  0  0  0  0  0
  1  2  2  0
  2  3  2  0
  2  4  1  6
  2 12  1  0
  4  5  1  0
  5  6  1  0
  6  7  1  0
  7  8  1  0
  8  9  1  0
  8 10  1  0
  8 11  1  0
 12 13  2  0
 12 22  1  0
 13 14  1  0
 14 15  2  0
 15 16  1  0
 15 21  1  0
 16 17  1  0
 17 18  1  1
 17 19  1  0
 17 20  1  0
 21 22  2  0
M  END
