
     RDKit          3D

 21 21  0  0  0  0  0  0  0  0999 V2000
    1.5910   -2.1230   -1.4720 C   0  0  0  0  0  0  0  0  0  0  0  0
    0.5760   -1.1130   -1.9510 C   0  0  1  0  0  0  0  0  0  0  0  0
    1.0760   -0.4380   -3.0520 F   0  0  0  0  0  0  0  0  0  0  0  0
   -0.5420   -1.8210   -2.3810 F   0  0  0  0  0  0  0  0  0  0  0  0
    0.1720   -0.1340   -0.9250 C   0  0  0  0  0  0  0  0  0  0  0  0
   -1.1340   -0.0560   -0.5560 N   0  0  0  0  0  0  0  0  0  0  0  0
   -1.6010    0.8040    0.3630 C   0  0  0  0  0  0  0  0  0  0  0  0
   -2.9380    0.8540    0.7120 O   0  0  0  0  0  0  0  0  0  0  0  0
   -3.8570   -0.0220    0.0910 C   0  0  0  0  0  0  0  0  0  0  0  0
   -5.2680    0.2150    0.6340 C   0  0  0  0  0  0  0  0  0  0  0  0
   -5.5850    1.5500    0.3420 O   0  0  0  0  0  0  0  0  0  0  0  0
   -0.7210    1.6670    0.9800 C   0  0  0  0  0  0  0  0  0  0  0  0
   -1.1100    2.5850    1.9360 O   0  0  0  0  0  0  0  0  0  0  0  0
    0.6050    1.6040    0.6210 C   0  0  0  0  0  0  0  0  0  0  0  0
    1.0910    0.7050   -0.3390 C   0  0  0  0  0  0  0  0  0  0  0  0
    2.4150    0.6720   -0.6700 O   0  0  0  0  0  0  0  0  0  0  0  0
    3.3540    0.0450    0.1190 C   0  0  0  0  0  0  0  0  0  0  0  0
    2.9810   -0.5120    1.1800 O   0  0  0  0  0  0  0  0  0  0  0  0
    4.7110    0.0300   -0.2580 O   0  0  0  0  0  0  0  0  0  0  0  0
    5.5910   -0.6410    0.6260 C   0  0  0  0  0  0  0  0  0  0  0  0
    5.5820   -0.0830    1.8760 F   0  0  0  0  0  0  0  0  0  0  0  0
  2  1  1  1
  2  3  1  0
  2  4  1  0
  2  5  1  0
  5  6  2  0
  5 15  1  0
  6  7  1  0
  7  8  1  0
  7 12  2  0
  8  9  1  0
  9 10  1  0
 10 11  1  0
 12 13  1  0
 12 14  1  0
 14 15  2  0
 15 16  1  0
 16 17  1  0
 17 18  2  0
 17 19  1  0
 19 20  1  0
 20 21  1  0
M  END
