
     RDKit          3D

 21 21  0  0  0  0  0  0  0  0999 V2000
    4.7070    2.3010    0.7760 O   0  0  0  0  0  0  0  0  0  0  0  0
    5.4480    2.0250   -0.1930 C   0  0  0  0  0  0  0  0  0  0  0  0
    6.2250    2.9700   -0.8040 F   0  0  0  0  0  0  0  0  0  0  0  0
    5.5030    0.7310   -0.6840 O   0  0  0  0  0  0  0  0  0  0  0  0
    4.7460   -0.2080   -0.0950 O   0  0  0  0  0  0  0  0  0  0  0  0
    3.4090   -0.0700   -0.5590 C   0  0  0  0  0  0  0  0  0  0  0  0
    2.6220   -1.1270    0.1220 C   0  0  0  0  0  0  0  0  0  0  0  0
    1.1340   -1.1590   -0.2800 C   0  0  2  0  0  0  0  0  0  0  0  0
    1.0690   -1.3860   -1.6720 F   0  0  0  0  0  0  0  0  0  0  0  0
    0.5860    0.1750    0.0410 C   0  0  0  0  0  0  0  0  0  0  0  0
   -0.7900    0.4400   -0.1930 N   0  0  0  0  0  0  0  0  0  0  0  0
   -1.8660   -0.1570    0.4710 C   0  0  0  0  0  0  0  0  0  0  0  0
   -1.6660   -0.9940    1.3760 O   0  0  0  0  0  0  0  0  0  0  0  0
   -3.2640    0.1530    0.1570 C   0  0  0  0  0  0  0  0  0  0  0  0
   -3.6840    1.0040   -0.7580 C   0  0  0  0  0  0  0  0  0  0  0  0
   -5.1600    0.9860   -0.7170 C   0  0  0  0  0  0  0  0  0  0  0  0
   -5.4460    0.6250    0.5920 O   0  0  0  0  0  0  0  0  0  0  0  0
   -4.4860   -0.4020    0.7950 C   0  0  0  0  0  0  0  0  0  0  0  0
    0.5690   -2.3110    0.4340 C   0  0  0  0  0  0  0  0  0  0  0  0
    0.9540   -2.5940    1.5490 O   0  0  0  0  0  0  0  0  0  0  0  0
   -0.3910   -3.0790   -0.1360 F   0  0  0  0  0  0  0  0  0  0  0  0
  1  2  2  0
  2  3  1  0
  2  4  1  0
  4  5  1  0
  5  6  1  0
  6  7  1  0
  7  8  1  0
  8  9  1  6
  8 10  1  0
  8 19  1  0
 10 11  1  0
 11 12  1  0
 12 13  2  0
 12 14  1  0
 14 15  2  0
 14 18  1  0
 15 16  1  0
 16 17  1  0
 17 18  1  0
 19 20  2  0
 19 21  1  0
M  END
