
     RDKit          3D

 21 20  0  0  0  0  0  0  0  0999 V2000
   -0.2590   -1.3800    0.7270 C   0  0  0  0  0  0  0  0  0  0  0  0
   -0.3500    0.0450    0.3990 N   0  0  0  0  0  0  0  0  0  0  0  0
    0.6730    0.7280   -0.2770 C   0  0  0  0  0  0  0  0  0  0  0  0
    0.5070    1.9860   -0.4480 O   0  0  0  0  0  0  0  0  0  0  0  0
    1.9000    0.1150   -0.7980 C   0  0  2  0  0  0  0  0  0  0  0  0
    2.5730    1.0800   -1.5660 F   0  0  0  0  0  0  0  0  0  0  0  0
    1.6030   -0.9700   -1.6050 F   0  0  0  0  0  0  0  0  0  0  0  0
    2.8200   -0.2280    0.3190 C   0  0  0  0  0  0  0  0  0  0  0  0
    4.0860   -0.8720   -0.1520 C   0  0  0  0  0  0  0  0  0  0  0  0
    4.3150   -1.0880   -1.3080 O   0  0  0  0  0  0  0  0  0  0  0  0
    4.9650   -1.1940    0.8630 F   0  0  0  0  0  0  0  0  0  0  0  0
   -1.4940    0.7270    0.8370 C   0  0  0  0  0  0  0  0  0  0  0  0
   -2.7660    0.5860    0.1750 C   0  0  0  0  0  0  0  0  0  0  0  0
   -3.1690   -0.0090   -0.8660 C   0  0  0  0  0  0  0  0  0  0  0  0
   -2.5970   -0.8140   -1.8950 C   0  0  0  0  0  0  0  0  0  0  0  0
   -1.4020   -1.1050   -1.9760 O   0  0  0  0  0  0  0  0  0  0  0  0
   -3.4360   -1.3240   -2.9070 O   0  0  0  0  0  0  0  0  0  0  0  0
   -1.3980    1.5070    1.9240 C   0  0  0  0  0  0  0  0  0  0  0  0
   -0.2200    1.7240    2.7150 C   0  0  0  0  0  0  0  0  0  0  0  0
   -0.2890    2.5110    3.7170 O   0  0  0  0  0  0  0  0  0  0  0  0
    1.0090    1.1400    2.4800 O   0  0  0  0  0  0  0  0  0  0  0  0
  1  2  1  0
  2  3  1  0
  2 12  1  0
  3  4  2  0
  3  5  1  0
  5  6  1  6
  5  7  1  0
  5  8  1  0
  8  9  1  0
  9 10  2  0
  9 11  1  0
 12 13  1  0
 12 18  2  3
 13 14  2  3
 14 15  1  0
 15 16  2  0
 15 17  1  0
 18 19  1  0
 19 20  2  0
 19 21  1  0
M  END
