
     RDKit          3D

 21 21  0  0  0  0  0  0  0  0999 V2000
    0.2030    1.4460   -1.9760 O   0  0  0  0  0  0  0  0  0  0  0  0
    1.2660    1.0350   -1.5400 C   0  0  0  0  0  0  0  0  0  0  0  0
    1.5610    0.2710   -0.3860 N   0  0  0  0  0  0  0  0  0  0  0  0
    0.5730   -0.1280    0.5080 C   0  0  0  0  0  0  0  0  0  0  0  0
    0.9480   -0.5030    1.6980 O   0  0  0  0  0  0  0  0  0  0  0  0
   -0.8560   -0.1900    0.2990 C   0  0  0  0  0  0  0  0  0  0  0  0
   -1.5130   -0.3410   -0.8790 C   0  0  0  0  0  0  0  0  0  0  0  0
   -2.8960   -0.2930   -1.0260 C   0  0  0  0  0  0  0  0  0  0  0  0
   -3.6470   -0.0820    0.0990 C   0  0  0  0  0  0  0  0  0  0  0  0
   -5.0350   -0.0240    0.0130 O   0  0  0  0  0  0  0  0  0  0  0  0
   -5.7070    0.8030    0.8250 O   0  0  0  0  0  0  0  0  0  0  0  0
   -3.0570    0.0790    1.3390 C   0  0  0  0  0  0  0  0  0  0  0  0
   -1.6980    0.0240    1.4200 C   0  0  0  0  0  0  0  0  0  0  0  0
    2.9770    0.0270   -0.1010 C   0  0  0  0  0  0  0  0  0  0  0  0
    3.8250    0.4210   -0.9750 O   0  0  0  0  0  0  0  0  0  0  0  0
    3.4920   -0.6250    1.0910 C   0  0  1  0  0  0  0  0  0  0  0  0
    3.2770    0.0560    2.2740 F   0  0  0  0  0  0  0  0  0  0  0  0
    2.9560   -1.9160    1.2150 F   0  0  0  0  0  0  0  0  0  0  0  0
    4.9820   -0.8200    0.9040 C   0  0  0  0  0  0  0  0  0  0  0  0
    5.4460   -1.9360    0.9280 O   0  0  0  0  0  0  0  0  0  0  0  0
    5.7640    0.2740    0.7130 F   0  0  0  0  0  0  0  0  0  0  0  0
  1  2  2  0
  2  3  1  0
  3  4  1  0
  3 14  1  0
  4  5  2  0
  4  6  1  0
  6  7  2  0
  6 13  1  0
  7  8  1  0
  8  9  2  0
  9 10  1  0
  9 12  1  0
 10 11  1  0
 12 13  2  0
 14 15  2  0
 14 16  1  0
 16 17  1  1
 16 18  1  0
 16 19  1  0
 19 20  2  0
 19 21  1  0
M  END
