
     RDKit          3D

 20 19  0  0  0  0  0  0  0  0999 V2000
   -5.6430   -0.4230    0.5990 C   0  0  0  0  0  0  0  0  0  0  0  0
   -4.9240    0.8650    0.2910 C   0  0  2  0  0  0  0  0  0  0  0  0
   -5.4860    1.8200    1.1570 F   0  0  0  0  0  0  0  0  0  0  0  0
   -5.1770    1.2570   -1.0010 F   0  0  0  0  0  0  0  0  0  0  0  0
   -3.4940    0.8410    0.5700 C   0  0  0  0  0  0  0  0  0  0  0  0
   -2.5770    0.1770   -0.0870 C   0  0  0  0  0  0  0  0  0  0  0  0
   -2.7580   -0.6980   -1.2540 C   0  0  0  0  0  0  0  0  0  0  0  0
   -4.0480   -0.7780   -1.6350 F   0  0  0  0  0  0  0  0  0  0  0  0
   -1.1710    0.3120    0.3920 C   0  0  0  0  0  0  0  0  0  0  0  0
   -0.9350    1.1100    1.4720 O   0  0  0  0  0  0  0  0  0  0  0  0
   -0.2640   -0.3230   -0.2300 N   0  0  0  0  0  0  0  0  0  0  0  0
    1.1040   -0.3140    0.0780 C   0  0  0  0  0  0  0  0  0  0  0  0
    1.7120   -1.4270    0.2080 O   0  0  0  0  0  0  0  0  0  0  0  0
    1.8650    0.8220    0.2560 O   0  0  0  0  0  0  0  0  0  0  0  0
    3.2250    0.8490    0.5630 C   0  0  0  0  0  0  0  0  0  0  0  0
    4.1060    0.1900   -0.4470 C   0  0  0  0  0  0  0  0  0  0  0  0
    5.4510    0.3110    0.0220 O   0  0  0  0  0  0  0  0  0  0  0  0
    6.5040   -0.1990   -0.6890 C   0  0  0  0  0  0  0  0  0  0  0  0
    6.2680   -0.7810   -1.7730 O   0  0  0  0  0  0  0  0  0  0  0  0
    7.7790   -0.0530   -0.1860 O   0  0  0  0  0  0  0  0  0  0  0  0
  2  1  1  1
  2  3  1  0
  2  4  1  0
  2  5  1  0
  5  6  2  3
  6  7  1  0
  6  9  1  0
  7  8  1  0
  9 10  1  0
  9 11  2  3
 11 12  1  0
 12 13  2  0
 12 14  1  0
 14 15  1  0
 15 16  1  0
 16 17  1  0
 17 18  1  0
 18 19  2  0
 18 20  1  0
M  END
