
     RDKit          3D

 21 21  0  0  0  0  0  0  0  0999 V2000
   -4.9540    1.8180   -0.8580 C   0  0  0  0  0  0  0  0  0  0  0  0
   -4.2190    0.9770    0.1720 C   0  0  2  0  0  0  0  0  0  0  0  0
   -5.1190    0.0780    0.7050 F   0  0  0  0  0  0  0  0  0  0  0  0
   -3.7720    1.7790    1.2000 F   0  0  0  0  0  0  0  0  0  0  0  0
   -3.0570    0.2330   -0.5000 C   0  0  0  0  0  0  0  0  0  0  0  0
   -2.4150   -0.5250    0.4980 O   0  0  0  0  0  0  0  0  0  0  0  0
   -1.3240   -1.3330    0.2990 C   0  0  0  0  0  0  0  0  0  0  0  0
   -0.8500   -1.4140   -0.8570 O   0  0  0  0  0  0  0  0  0  0  0  0
   -0.7100   -2.0700    1.2990 O   0  0  0  0  0  0  0  0  0  0  0  0
    0.4000   -2.8630    1.0210 C   0  0  0  0  0  0  0  0  0  0  0  0
    1.6030   -2.0870    0.5610 C   0  0  0  0  0  0  0  0  0  0  0  0
    2.5860   -2.7540    0.1840 O   0  0  0  0  0  0  0  0  0  0  0  0
    1.6630   -0.6800    0.5390 N   0  0  0  0  0  0  0  0  0  0  0  0
    2.7580    0.1130    0.1140 C   0  0  0  0  0  0  0  0  0  0  0  0
    3.9540   -0.3580   -0.3510 C   0  0  0  0  0  0  0  0  0  0  0  0
    4.9720    0.5280   -0.7460 C   0  0  0  0  0  0  0  0  0  0  0  0
    4.7480    1.8810   -0.6570 C   0  0  0  0  0  0  0  0  0  0  0  0
    5.6900    2.7770   -1.0220 F   0  0  0  0  0  0  0  0  0  0  0  0
    3.5890    2.3080   -0.2060 O   0  0  0  0  0  0  0  0  0  0  0  0
    2.6270    1.5050    0.1670 C   0  0  0  0  0  0  0  0  0  0  0  0
    1.5180    1.9560    0.5990 O   0  0  0  0  0  0  0  0  0  0  0  0
  2  1  1  6
  2  3  1  0
  2  4  1  0
  2  5  1  0
  5  6  1  0
  6  7  1  0
  7  8  2  0
  7  9  1  0
  9 10  1  0
 10 11  1  0
 11 12  2  0
 11 13  1  0
 13 14  1  0
 14 15  2  0
 14 20  1  0
 15 16  1  0
 16 17  2  0
 17 18  1  0
 17 19  1  0
 19 20  1  0
 20 21  2  0
M  END
