
     RDKit          3D

 21 21  0  0  0  0  0  0  0  0999 V2000
   -4.9740    0.9520   -1.7970 O   0  0  0  0  0  0  0  0  0  0  0  0
   -5.8510    0.2490   -1.1510 C   0  0  0  0  0  0  0  0  0  0  0  0
   -7.0980    0.0300   -1.7530 O   0  0  0  0  0  0  0  0  0  0  0  0
   -5.4680   -0.2120    0.0790 O   0  0  0  0  0  0  0  0  0  0  0  0
   -4.2230    0.0360    0.6490 C   0  0  0  0  0  0  0  0  0  0  0  0
   -3.1460   -0.4170   -0.1480 O   0  0  0  0  0  0  0  0  0  0  0  0
   -1.8560   -0.2440    0.3760 C   0  0  0  0  0  0  0  0  0  0  0  0
   -1.5980    0.3310    1.6040 C   0  0  0  0  0  0  0  0  0  0  0  0
   -0.3090    0.4650    2.0620 C   0  0  0  0  0  0  0  0  0  0  0  0
    0.7820    0.0270    1.3070 C   0  0  0  0  0  0  0  0  0  0  0  0
    2.0260    0.1810    1.7950 F   0  0  0  0  0  0  0  0  0  0  0  0
    0.5730   -0.5450    0.0910 C   0  0  0  0  0  0  0  0  0  0  0  0
    1.5790   -1.1080   -0.7960 C   0  0  0  0  0  0  0  0  0  0  0  0
    2.7240   -0.5320   -1.1340 O   0  0  0  0  0  0  0  0  0  0  0  0
    3.9190   -0.1980   -0.6650 C   0  0  0  0  0  0  0  0  0  0  0  0
    4.2350   -0.5010    0.4950 O   0  0  0  0  0  0  0  0  0  0  0  0
    4.9270    0.5080   -1.4150 N   0  0  0  0  0  0  0  0  0  0  0  0
    6.2020    0.8090   -0.8120 C   0  0  2  0  0  0  0  0  0  0  0  0
    6.3280    2.1960   -0.6570 F   0  0  0  0  0  0  0  0  0  0  0  0
    7.2560    0.3000   -1.5600 F   0  0  0  0  0  0  0  0  0  0  0  0
   -0.7860   -0.6680   -0.3540 C   0  0  0  0  0  0  0  0  0  0  0  0
  1  2  2  0
  2  3  1  0
  2  4  1  0
  4  5  1  0
  5  6  1  0
  6  7  1  0
  7  8  2  0
  7 21  1  0
  8  9  1  0
  9 10  2  0
 10 11  1  0
 10 12  1  0
 12 13  1  0
 12 21  2  0
 13 14  1  0
 14 15  1  0
 15 16  2  0
 15 17  1  0
 17 18  1  0
 18 19  1  6
 18 20  1  0
M  END
