
     RDKit          3D

 33 36  0  0  0  0  0  0  0  0999 V2000
   -5.3120    4.4400    0.3240 C   0  0  0  0  0  0  0  0  0  0  0  0
   -4.9580    2.9990    0.3670 C   0  0  0  0  0  0  0  0  0  0  0  0
   -4.0560    2.4890   -0.5320 C   0  0  0  0  0  0  0  0  0  0  0  0
   -3.7170    1.1630   -0.4980 C   0  0  0  0  0  0  0  0  0  0  0  0
   -4.2430    0.2720    0.4160 C   0  0  0  0  0  0  0  0  0  0  0  0
   -3.8500   -1.1530    0.4400 C   0  0  1  0  0  0  0  0  0  0  0  0
   -4.4420   -1.8770   -0.7320 C   0  0  0  0  0  0  0  0  0  0  0  0
   -5.9140   -1.8360   -0.7580 C   0  0  0  0  0  0  0  0  0  0  0  0
   -6.7080   -3.0200   -0.8000 N   0  0  0  0  0  0  0  0  0  0  0  0
   -6.4620   -0.7460   -0.7390 O   0  0  0  0  0  0  0  0  0  0  0  0
   -2.3930   -1.1950    0.3090 N   0  0  0  0  0  0  0  0  0  0  0  0
   -1.9140   -2.4550    0.7770 C   0  0  0  0  0  0  0  0  0  0  0  0
   -0.4130   -2.5160    0.7250 C   0  0  0  0  0  0  0  0  0  0  0  0
    0.1600   -3.5630    1.1100 O   0  0  0  0  0  0  0  0  0  0  0  0
    0.3010   -1.4040    0.2500 N   0  0  0  0  0  0  0  0  0  0  0  0
    1.7230   -1.3130    0.1450 C   0  0  0  0  0  0  0  0  0  0  0  0
    2.6060   -2.3310    0.3310 C   0  0  0  0  0  0  0  0  0  0  0  0
    3.9930   -2.2220    0.2440 C   0  0  0  0  0  0  0  0  0  0  0  0
    4.8660   -3.4140    0.4650 C   0  0  0  0  0  0  0  0  0  0  0  0
    4.5070   -0.9810   -0.0550 C   0  0  0  0  0  0  0  0  0  0  0  0
    5.8280   -0.7910   -0.1550 N   0  0  0  0  0  0  0  0  0  0  0  0
    6.2920    0.4320   -0.4470 C   0  0  0  0  0  0  0  0  0  0  0  0
    5.5050    1.5010   -0.6480 N   0  0  0  0  0  0  0  0  0  0  0  0
    4.1860    1.3210   -0.5500 C   0  0  0  0  0  0  0  0  0  0  0  0
    3.4470    2.3240   -0.7400 O   0  0  0  0  0  0  0  0  0  0  0  0
    3.6450    0.0930   -0.2550 C   0  0  0  0  0  0  0  0  0  0  0  0
    2.2890   -0.0650   -0.1580 C   0  0  0  0  0  0  0  0  0  0  0  0
    6.0410    2.8230   -0.9680 C   0  0  0  0  0  0  0  0  0  0  0  0
    7.1830    3.1200   -0.0510 C   0  0  0  0  0  0  0  0  0  0  0  0
    8.4070    2.4070   -0.5780 C   0  0  0  0  0  0  0  0  0  0  0  0
    8.0620    0.6270   -0.5610 S   0  0  0  0  0  0  0  0  0  0  0  0
   -5.1560    0.7930    1.3240 C   0  0  0  0  0  0  0  0  0  0  0  0
   -5.5120    2.1430    1.3020 C   0  0  0  0  0  0  0  0  0  0  0  0
  1  2  1  0
  2  3  2  0
  2 33  1  0
  3  4  1  0
  4  5  2  0
  5  6  1  0
  5 32  1  0
  6  7  1  6
  6 11  1  0
  7  8  1  0
  8  9  1  0
  8 10  2  0
 11 12  1  0
 12 13  1  0
 13 14  2  0
 13 15  1  0
 15 16  1  0
 16 17  2  0
 16 27  1  0
 17 18  1  0
 18 19  1  0
 18 20  2  0
 20 21  1  0
 20 26  1  0
 21 22  2  0
 22 23  1  0
 22 31  1  0
 23 24  1  0
 23 28  1  0
 24 25  2  0
 24 26  1  0
 26 27  2  0
 28 29  1  0
 29 30  1  0
 30 31  1  0
 32 33  2  0
M  CHG  2   9   1  11   1
M  END
