
     RDKit          3D

 32 33  0  0  0  0  0  0  0  0999 V2000
   -3.4980   -2.9040   -1.0840 C   0  0  0  0  0  0  0  0  0  0  0  0
   -3.5760   -1.7260   -0.1450 C   0  0  0  0  0  0  0  0  0  0  0  0
   -4.4640   -1.5500    0.7960 O   0  0  0  0  0  0  0  0  0  0  0  0
   -4.2840   -0.4330    1.4540 C   0  0  0  0  0  0  0  0  0  0  0  0
   -5.1020    0.1010    2.5950 C   0  0  2  0  0  0  0  0  0  0  0  0
   -4.3360    0.2640    3.7260 F   0  0  0  0  0  0  0  0  0  0  0  0
   -6.0690   -0.8430    2.8860 F   0  0  0  0  0  0  0  0  0  0  0  0
   -5.7640    1.2530    2.2270 F   0  0  0  0  0  0  0  0  0  0  0  0
   -3.1740    0.1630    0.8780 C   0  0  0  0  0  0  0  0  0  0  0  0
   -2.5990    1.4590    1.2990 C   0  0  2  0  0  0  0  0  0  0  0  0
   -2.5610    2.3410    0.2530 F   0  0  0  0  0  0  0  0  0  0  0  0
   -1.3070    1.1910    1.7470 F   0  0  0  0  0  0  0  0  0  0  0  0
   -2.7190   -0.6470   -0.1350 C   0  0  0  0  0  0  0  0  0  0  0  0
   -1.6010   -0.4580   -1.0270 C   0  0  0  0  0  0  0  0  0  0  0  0
   -1.3640   -1.3490   -1.9150 O   0  0  0  0  0  0  0  0  0  0  0  0
   -0.7580    0.6410   -0.9810 O   0  0  0  0  0  0  0  0  0  0  0  0
    0.2920    0.7450   -1.8800 C   0  0  1  0  0  0  0  0  0  0  0  0
    0.0230    1.9340   -2.7900 C   0  0  0  0  0  0  0  0  0  0  0  0
    1.6380    0.8140   -1.2990 C   0  0  0  0  0  0  0  0  0  0  0  0
    2.6110    0.9160   -2.0880 O   0  0  0  0  0  0  0  0  0  0  0  0
    1.9410    0.7740    0.0950 N   0  0  0  0  0  0  0  0  0  0  0  0
    3.2500    0.8350    0.6340 C   0  0  0  0  0  0  0  0  0  0  0  0
    3.6550    1.9440    1.3060 C   0  0  0  0  0  0  0  0  0  0  0  0
    5.0220    1.7040    1.7250 C   0  0  0  0  0  0  0  0  0  0  0  0
    5.4320    0.5580    1.3540 N   0  0  0  0  0  0  0  0  0  0  0  0
    6.6620   -0.0110    1.5680 O   0  0  0  0  0  0  0  0  0  0  0  0
    4.3460   -0.0970    0.6330 C   0  0  0  0  0  0  0  0  0  0  0  0
    4.3830   -1.3140    0.1880 C   0  0  0  0  0  0  0  0  0  0  0  0
    5.5790   -1.9960    0.3000 F   0  0  0  0  0  0  0  0  0  0  0  0
    3.2760   -2.0630   -0.3750 C   0  0  1  0  0  0  0  0  0  0  0  0
    2.0380   -1.8040    0.1700 F   0  0  0  0  0  0  0  0  0  0  0  0
    3.1860   -1.9990   -1.7670 F   0  0  0  0  0  0  0  0  0  0  0  0
  1  2  1  0
  2  3  1  0
  2 13  2  0
  3  4  1  0
  4  5  1  0
  4  9  2  0
  5  6  1  1
  5  7  1  0
  5  8  1  0
  9 10  1  0
  9 13  1  0
 10 11  1  6
 10 12  1  0
 13 14  1  0
 14 15  2  0
 14 16  1  0
 16 17  1  0
 17 18  1  1
 17 19  1  0
 19 20  2  0
 19 21  1  0
 21 22  1  0
 22 23  2  0
 22 27  1  0
 23 24  1  0
 24 25  2  0
 25 26  1  0
 25 27  1  0
 27 28  2  3
 28 29  1  0
 28 30  1  0
 30 31  1  1
 30 32  1  0
M  CHG  2  25   1  26  -1
M  END
