
     RDKit          3D

 32 35  0  0  0  0  0  0  0  0999 V2000
   -4.0550   -0.4410    1.7280 C   0  0  0  0  0  0  0  0  0  0  0  0
   -3.7100   -0.4490    0.2750 C   0  0  1  0  0  0  0  0  0  0  0  0
   -2.3130    0.0110    0.1980 N   0  0  0  0  0  0  0  0  0  0  0  0
   -1.3480   -0.9410    0.6180 C   0  0  0  0  0  0  0  0  0  0  0  0
   -0.2900   -1.1170   -0.4500 C   0  0  0  0  0  0  0  0  0  0  0  0
   -0.5590   -0.8790   -1.7760 C   0  0  0  0  0  0  0  0  0  0  0  0
    1.1310   -1.1410   -2.5620 S   0  0  0  0  0  0  0  0  0  0  0  0
    1.8820   -1.5230   -0.9510 C   0  0  0  0  0  0  0  0  0  0  0  0
    3.3140   -1.6920   -0.6320 C   0  0  0  0  0  0  0  0  0  0  0  0
    3.6820   -2.7750    0.1740 C   0  0  0  0  0  0  0  0  0  0  0  0
    4.9420   -2.7740    0.7070 C   0  0  0  0  0  0  0  0  0  0  0  0
    5.8140   -1.7270    0.4490 C   0  0  0  0  0  0  0  0  0  0  0  0
    7.1530   -1.8020    0.9110 N   0  0  0  0  0  0  0  0  0  0  0  0
    5.4950   -0.6440   -0.3340 C   0  0  0  0  0  0  0  0  0  0  0  0
    6.2840    0.5740   -0.2900 C   0  0  2  0  0  0  0  0  0  0  0  0
    7.1890    0.9810   -1.3680 C   0  0  0  0  0  0  0  0  0  0  0  0
    8.5150    1.4210   -0.6370 C   0  0  0  0  0  0  0  0  0  0  0  0
    8.3030    2.5380    0.1360 O   0  0  0  0  0  0  0  0  0  0  0  0
    7.1080    2.5410    0.8440 C   0  0  0  0  0  0  0  0  0  0  0  0
    6.6560    1.0830    1.0840 C   0  0  0  0  0  0  0  0  0  0  0  0
    4.2140   -0.6550   -0.8830 C   0  0  0  0  0  0  0  0  0  0  0  0
    0.9480   -1.4300   -0.1560 N   0  0  0  0  0  0  0  0  0  0  0  0
   -3.8640   -1.8150   -0.3570 C   0  0  0  0  0  0  0  0  0  0  0  0
   -5.2860   -2.2450   -0.1980 C   0  0  0  0  0  0  0  0  0  0  0  0
   -6.1620   -1.5010   -1.1670 C   0  0  0  0  0  0  0  0  0  0  0  0
   -6.7520   -0.2550   -0.5860 C   0  0  0  0  0  0  0  0  0  0  0  0
   -5.8400    0.7360   -0.1720 N   0  0  2  0  0  0  0  0  0  0  0  0
   -6.2620    1.9950   -0.7850 C   0  0  0  0  0  0  0  0  0  0  0  0
   -5.8990    3.1840    0.0100 C   0  0  0  0  0  0  0  0  0  0  0  0
   -6.2770    4.5070   -0.4230 N   0  0  0  0  0  0  0  0  0  0  0  0
   -5.2630    3.1210    1.0680 O   0  0  0  0  0  0  0  0  0  0  0  0
   -4.4770    0.5320   -0.5510 C   0  0  0  0  0  0  0  0  0  0  0  0
  2  1  1  1
  2  3  1  0
  2 23  1  0
  2 32  1  0
  3  4  1  0
  4  5  1  0
  5  6  2  0
  5 22  1  0
  6  7  1  0
  7  8  1  0
  8  9  1  0
  8 22  2  0
  9 10  2  0
  9 21  1  0
 10 11  1  0
 11 12  2  0
 12 13  1  0
 12 14  1  0
 15 14  1  1
 14 21  2  0
 15 16  1  0
 15 20  1  0
 16 17  1  0
 17 18  1  0
 18 19  1  0
 19 20  1  0
 23 24  1  0
 24 25  1  0
 25 26  1  0
 26 27  1  0
 27 28  1  6
 27 32  1  0
 28 29  1  0
 29 30  1  0
 29 31  2  0
M  CHG  2   3   1  27   1
M  END
