
     RDKit          3D

 33 36  0  0  0  0  0  0  0  0999 V2000
   10.6480    1.3290    0.1350 C   0  0  0  0  0  0  0  0  0  0  0  0
    8.8570    1.4610   -0.1030 S   0  0  0  0  0  0  0  0  0  0  0  0
    8.3490    0.5070   -1.5580 C   0  0  0  0  0  0  0  0  0  0  0  0
    6.8720    0.5890   -1.7930 C   0  0  0  0  0  0  0  0  0  0  0  0
    6.0480    0.0450   -0.6920 C   0  0  0  0  0  0  0  0  0  0  0  0
    6.6570   -0.5520    0.3870 C   0  0  0  0  0  0  0  0  0  0  0  0
    5.8340   -1.0370    1.4030 C   0  0  0  0  0  0  0  0  0  0  0  0
    4.4730   -0.9250    1.3290 C   0  0  0  0  0  0  0  0  0  0  0  0
    3.6670   -1.3900    2.3030 N   0  0  0  0  0  0  0  0  0  0  0  0
    2.3210   -1.2900    2.2480 C   0  0  0  0  0  0  0  0  0  0  0  0
    1.5750   -1.7230    3.1560 O   0  0  0  0  0  0  0  0  0  0  0  0
    1.7370   -0.6830    1.1470 C   0  0  0  0  0  0  0  0  0  0  0  0
    0.3500   -0.5550    1.0440 C   0  0  0  0  0  0  0  0  0  0  0  0
   -0.2080    0.0440   -0.0480 C   0  0  0  0  0  0  0  0  0  0  0  0
   -1.5970    0.1750   -0.2000 N   0  0  0  0  0  0  0  0  0  0  0  0
   -2.5730   -0.5090    0.5170 C   0  0  0  0  0  0  0  0  0  0  0  0
   -2.2490   -1.3410    1.3950 O   0  0  0  0  0  0  0  0  0  0  0  0
   -4.0440   -0.3210    0.3090 C   0  0  1  0  0  0  0  0  0  0  0  0
   -4.5000    1.0790    0.3980 C   0  0  2  0  0  0  0  0  0  0  0  0
   -5.6130    1.2110    1.4000 C   0  0  0  0  0  0  0  0  0  0  0  0
   -6.8440    0.4460    1.1950 C   0  0  0  0  0  0  0  0  0  0  0  0
   -7.5050    0.7980   -0.0340 N   0  0  0  0  0  0  0  0  0  0  0  0
   -4.6950    1.7620   -0.8880 C   0  0  0  0  0  0  0  0  0  0  0  0
   -4.4980    1.0060   -2.1460 C   0  0  0  0  0  0  0  0  0  0  0  0
   -4.6340   -0.4000   -2.1100 N   0  0  0  0  0  0  0  0  0  0  0  0
   -4.5800   -1.0520   -0.8540 C   0  0  1  0  0  0  0  0  0  0  0  0
   -3.7900   -2.3780   -0.9560 C   0  0  0  0  0  0  0  0  0  0  0  0
   -4.4610   -3.1750   -1.8830 O   0  0  0  0  0  0  0  0  0  0  0  0
    0.6060    0.5410   -1.0840 C   0  0  0  0  0  0  0  0  0  0  0  0
    1.9560    0.4180   -0.9870 C   0  0  0  0  0  0  0  0  0  0  0  0
    2.5120   -0.1930    0.1270 C   0  0  0  0  0  0  0  0  0  0  0  0
    3.8990   -0.3270    0.2410 C   0  0  0  0  0  0  0  0  0  0  0  0
    4.6880    0.1390   -0.7330 N   0  0  0  0  0  0  0  0  0  0  0  0
  1  2  1  0
  2  3  1  0
  3  4  1  0
  4  5  1  0
  5  6  2  0
  5 33  1  0
  6  7  1  0
  7  8  2  0
  8  9  1  0
  8 32  1  0
  9 10  1  0
 10 11  2  0
 10 12  1  0
 12 13  2  0
 12 31  1  0
 13 14  1  0
 14 15  1  0
 14 29  2  0
 15 16  1  0
 16 17  2  0
 18 16  1  6
 18 19  1  0
 18 26  1  0
 19 20  1  6
 19 23  1  0
 20 21  1  0
 21 22  1  0
 23 24  1  0
 24 25  1  0
 25 26  1  0
 26 27  1  6
 27 28  1  0
 29 30  1  0
 30 31  2  0
 31 32  1  0
 32 33  2  0
M  CHG  2  22   1  25   1
M  END
