
     RDKit          3D

 32 32  0  0  0  0  0  0  0  0999 V2000
    2.0120    0.4700   -1.8580 O   0  0  0  0  0  0  0  0  0  0  0  0
    1.7090    0.1000   -0.7230 C   0  0  0  0  0  0  0  0  0  0  0  0
    2.6880   -0.0510    0.2750 N   0  0  0  0  0  0  0  0  0  0  0  0
    4.0860    0.1760    0.1590 C   0  0  0  0  0  0  0  0  0  0  0  0
    4.9010   -0.0210    1.2130 C   0  0  0  0  0  0  0  0  0  0  0  0
    4.4270   -0.4940    2.5090 C   0  0  2  0  0  0  0  0  0  0  0  0
    3.4620   -1.4950    2.3780 F   0  0  0  0  0  0  0  0  0  0  0  0
    3.9000    0.4630    3.3310 F   0  0  0  0  0  0  0  0  0  0  0  0
    5.4680   -1.1140    3.2380 F   0  0  0  0  0  0  0  0  0  0  0  0
    6.3010    0.4480    1.0480 C   0  0  0  0  0  0  0  0  0  0  0  0
    6.8990    0.9960    2.0800 C   0  0  0  0  0  0  0  0  0  0  0  0
    6.3270    1.1620    3.2710 F   0  0  0  0  0  0  0  0  0  0  0  0
    8.1870    1.4280    1.9430 F   0  0  0  0  0  0  0  0  0  0  0  0
    6.9990    0.3420   -0.2750 C   0  0  0  0  0  0  0  0  0  0  0  0
    6.0250    0.5600   -1.3360 C   0  0  0  0  0  0  0  0  0  0  0  0
    4.7220    0.4760   -1.1160 C   0  0  0  0  0  0  0  0  0  0  0  0
    0.2760   -0.1790   -0.4520 C   0  0  0  0  0  0  0  0  0  0  0  0
   -0.0550   -0.5550    0.6880 O   0  0  0  0  0  0  0  0  0  0  0  0
   -0.6810   -0.0330   -1.4220 O   0  0  0  0  0  0  0  0  0  0  0  0
   -2.0600   -0.2680   -1.2660 C   0  0  0  0  0  0  0  0  0  0  0  0
   -2.6160    0.6600   -0.2190 C   0  0  0  0  0  0  0  0  0  0  0  0
   -4.0050    0.4650   -0.0270 O   0  0  0  0  0  0  0  0  0  0  0  0
   -4.9640    0.6160   -1.0200 C   0  0  0  0  0  0  0  0  0  0  0  0
   -5.9850   -0.4000   -1.1380 C   0  0  0  0  0  0  0  0  0  0  0  0
   -6.0210   -1.4430   -0.3350 C   0  0  0  0  0  0  0  0  0  0  0  0
   -5.0850   -1.6800    0.7090 N   0  0  0  0  0  0  0  0  0  0  0  0
   -5.4130   -2.8130    1.4020 O   0  0  0  0  0  0  0  0  0  0  0  0
   -7.0210   -0.2660   -2.1910 C   0  0  0  0  0  0  0  0  0  0  0  0
   -7.9010   -1.3450   -2.1230 F   0  0  0  0  0  0  0  0  0  0  0  0
   -4.9690    1.6450   -1.8440 C   0  0  0  0  0  0  0  0  0  0  0  0
   -5.8710    1.8500   -2.8270 F   0  0  0  0  0  0  0  0  0  0  0  0
   -4.0050    2.6290   -1.7500 F   0  0  0  0  0  0  0  0  0  0  0  0
  1  2  2  0
  2  3  1  0
  2 17  1  0
  3  4  1  0
  4  5  2  0
  4 16  1  0
  5  6  1  0
  5 10  1  0
  6  7  1  6
  6  8  1  0
  6  9  1  0
 10 11  2  3
 10 14  1  0
 11 12  1  0
 11 13  1  0
 14 15  1  0
 15 16  2  0
 17 18  2  0
 17 19  1  0
 19 20  1  0
 20 21  1  0
 21 22  1  0
 22 23  1  0
 23 24  1  0
 23 30  2  3
 24 25  2  3
 24 28  1  0
 25 26  1  0
 26 27  1  0
 28 29  1  0
 30 31  1  0
 30 32  1  0
M  CHG  2  26   1  27  -1
M  END
