
     RDKit          3D

 18 19  0  0  0  0  0  0  0  0999 V2000
    3.0390    1.1310    1.4350 N   0  0  0  0  0  0  0  0  0  0  0  0
    3.5160    0.3130    0.3360 C   0  0  0  0  0  0  0  0  0  0  0  0
    2.3610   -0.4330   -0.2940 C   0  0  0  0  0  0  0  0  0  0  0  0
    1.7120   -1.3090    0.7000 N   0  0  0  0  0  0  0  0  0  0  0  0
    0.4300   -2.0860   -0.1510 S   0  0  2  0  0  0  0  0  0  0  0  0
   -0.1760   -3.1960    0.6680 O   0  0  0  0  0  0  0  0  0  0  0  0
    1.0990   -2.7850   -1.3230 O   0  0  0  0  0  0  0  0  0  0  0  0
   -0.7520   -0.9990   -0.7680 C   0  0  0  0  0  0  0  0  0  0  0  0
   -0.8530   -0.7920   -2.1330 C   0  0  0  0  0  0  0  0  0  0  0  0
   -1.7360    0.0980   -2.6990 C   0  0  0  0  0  0  0  0  0  0  0  0
   -2.5710    0.8320   -1.8940 C   0  0  0  0  0  0  0  0  0  0  0  0
   -3.7200    1.9830   -2.5330 Cl  0  0  0  0  0  0  0  0  0  0  0  0
   -2.4880    0.6390   -0.5100 C   0  0  0  0  0  0  0  0  0  0  0  0
   -3.3110    1.3390    0.3210 C   0  0  0  0  0  0  0  0  0  0  0  0
   -3.2400    1.1400    1.6830 C   0  0  0  0  0  0  0  0  0  0  0  0
   -2.3600    0.2550    2.1820 N   0  0  0  0  0  0  0  0  0  0  0  0
   -1.5190   -0.4680    1.4120 C   0  0  0  0  0  0  0  0  0  0  0  0
   -1.5890   -0.2670    0.0490 C   0  0  0  0  0  0  0  0  0  0  0  0
  1  2  1  0
  2  3  1  0
  3  4  1  0
  5  4  1  1
  5  6  2  0
  5  7  2  0
  5  8  1  0
  8  9  2  0
  8 18  1  0
  9 10  1  0
 10 11  2  0
 11 12  1  0
 11 13  1  0
 13 14  2  0
 13 18  1  0
 14 15  1  0
 15 16  2  0
 16 17  1  0
 17 18  2  0
M  CHG  1   1   1
M  END
