
     RDKit          3D

 26 28  0  0  0  0  0  0  0  0999 V2000
   -7.8140    0.1520   -0.5500 C   0  0  0  0  0  0  0  0  0  0  0  0
   -6.6850    0.6660    0.1040 O   0  0  0  0  0  0  0  0  0  0  0  0
   -5.4010    0.2800   -0.2340 C   0  0  0  0  0  0  0  0  0  0  0  0
   -5.1500   -0.6370   -1.2400 C   0  0  0  0  0  0  0  0  0  0  0  0
   -3.8790   -1.0190   -1.5760 C   0  0  0  0  0  0  0  0  0  0  0  0
   -2.7950   -0.4870   -0.9050 C   0  0  0  0  0  0  0  0  0  0  0  0
   -1.4590   -0.8400   -1.2290 N   0  0  0  0  0  0  0  0  0  0  0  0
   -0.3710   -0.4820   -0.3760 C   0  0  1  0  0  0  0  0  0  0  0  0
   -0.4650   -1.2490    0.9250 C   0  0  0  0  0  0  0  0  0  0  0  0
    0.6660   -0.7250    1.7890 C   0  0  0  0  0  0  0  0  0  0  0  0
    2.0150   -1.0170    1.1570 C   0  0  0  0  0  0  0  0  0  0  0  0
    2.1290   -0.4790   -0.2530 C   0  0  2  0  0  0  0  0  0  0  0  0
    2.2570    0.9310   -0.1890 N   0  0  0  0  0  0  0  0  0  0  0  0
    3.7140    1.5670   -0.8020 S   0  0  1  0  0  0  0  0  0  0  0  0
    3.9180    1.2660   -2.2550 O   0  0  0  0  0  0  0  0  0  0  0  0
    3.6640    3.0640   -0.6720 O   0  0  0  0  0  0  0  0  0  0  0  0
    5.1230    1.0070    0.0550 C   0  0  0  0  0  0  0  0  0  0  0  0
    5.6440    1.6090    1.1070 C   0  0  0  0  0  0  0  0  0  0  0  0
    6.8240    0.8630    1.5720 C   0  0  0  0  0  0  0  0  0  0  0  0
    6.9030   -0.2420    0.6440 N   0  0  0  0  0  0  0  0  0  0  0  0
    5.9440   -0.1610   -0.2130 C   0  0  0  0  0  0  0  0  0  0  0  0
    5.7100   -1.0500   -1.2480 O   0  0  0  0  0  0  0  0  0  0  0  0
    0.9270   -0.9630   -1.0230 C   0  0  0  0  0  0  0  0  0  0  0  0
   -3.0280    0.4220    0.0930 C   0  0  0  0  0  0  0  0  0  0  0  0
   -4.3190    0.8070    0.4310 C   0  0  0  0  0  0  0  0  0  0  0  0
   -4.5450    1.7590    1.4780 N   0  0  0  0  0  0  0  0  0  0  0  0
  1  2  1  0
  2  3  1  0
  3  4  2  0
  3 25  1  0
  4  5  1  0
  5  6  2  0
  6  7  1  0
  6 24  1  0
  8  7  1  6
  8  9  1  0
  8 23  1  0
  9 10  1  0
 10 11  1  0
 11 12  1  0
 12 13  1  1
 12 23  1  0
 14 13  1  1
 14 15  2  0
 14 16  2  0
 14 17  1  0
 17 18  2  0
 17 21  1  0
 18 19  1  0
 19 20  1  0
 20 21  2  0
 21 22  1  0
 24 25  2  0
 25 26  1  0
M  END
