
     RDKit          3D

 26 28  0  0  0  0  0  0  0  0999 V2000
    7.4240    0.4330    0.3640 C   0  0  0  0  0  0  0  0  0  0  0  0
    6.6270   -0.3100   -0.6450 C   0  0  0  0  0  0  0  0  0  0  0  0
    5.3090   -0.3080   -0.5850 C   0  0  0  0  0  0  0  0  0  0  0  0
    4.6390    0.4360    0.4910 C   0  0  0  0  0  0  0  0  0  0  0  0
    3.3190    0.4030    0.5060 C   0  0  0  0  0  0  0  0  0  0  0  0
    2.4730    1.0960    1.5150 C   0  0  0  0  0  0  0  0  0  0  0  0
    1.3460    0.2740    2.0180 C   0  0  0  0  0  0  0  0  0  0  0  0
    0.5000   -0.4040    0.9760 C   0  0  1  0  0  0  0  0  0  0  0  0
   -1.2180    0.0790    1.0550 S   0  0  0  0  0  0  0  0  0  0  0  0
   -2.1670   -0.8900   -0.1340 C   0  0  0  0  0  0  0  0  0  0  0  0
   -1.6050   -1.7630   -0.8890 N   0  0  0  0  0  0  0  0  0  0  0  0
   -2.3870   -2.4810   -1.7890 N   0  0  0  0  0  0  0  0  0  0  0  0
   -3.7730   -2.2370   -1.8520 C   0  0  0  0  0  0  0  0  0  0  0  0
   -4.5570   -3.1070   -2.2780 O   0  0  0  0  0  0  0  0  0  0  0  0
   -4.2770   -0.8920   -1.3870 C   0  0  0  0  0  0  0  0  0  0  0  0
   -3.5820   -0.6110   -0.1570 N   0  0  0  0  0  0  0  0  0  0  0  0
   -4.1660   -0.0820    1.0240 C   0  0  0  0  0  0  0  0  0  0  0  0
   -4.6120    1.3260    1.0160 C   0  0  1  0  0  0  0  0  0  0  0  0
   -3.6180    2.2700    0.7590 O   0  0  0  0  0  0  0  0  0  0  0  0
   -5.8830    1.6270    0.2680 C   0  0  0  0  0  0  0  0  0  0  0  0
   -5.7560    1.7050   -1.0950 O   0  0  0  0  0  0  0  0  0  0  0  0
    1.1040   -0.3230   -0.3770 C   0  0  0  0  0  0  0  0  0  0  0  0
    0.4390   -0.2410   -1.4170 O   0  0  0  0  0  0  0  0  0  0  0  0
    2.5760   -0.3420   -0.5070 C   0  0  0  0  0  0  0  0  0  0  0  0
    3.1600   -1.0220   -1.4910 C   0  0  0  0  0  0  0  0  0  0  0  0
    4.5780   -1.0290   -1.5650 N   0  0  0  0  0  0  0  0  0  0  0  0
  1  2  1  0
  2  3  2  3
  3  4  1  0
  3 26  1  0
  4  5  2  0
  5  6  1  0
  5 24  1  0
  6  7  1  0
  7  8  1  0
  8  9  1  6
  8 22  1  0
  9 10  1  0
 10 11  2  0
 10 16  1  0
 11 12  1  0
 12 13  1  0
 13 14  2  0
 13 15  1  0
 15 16  1  0
 16 17  1  0
 17 18  1  0
 18 19  1  6
 18 20  1  0
 20 21  1  0
 22 23  2  0
 22 24  1  0
 24 25  2  0
 25 26  1  0
M  END
