
     RDKit          3D

 26 28  0  0  0  0  0  0  0  0999 V2000
   -0.6480   -0.4500   -1.8960 C   0  0  0  0  0  0  0  0  0  0  0  0
   -0.1050    0.5900   -0.9490 C   0  0  1  0  0  0  0  0  0  0  0  0
   -1.3020    0.9850    0.2910 S   0  0  0  0  0  0  0  0  0  0  0  0
   -2.7480    1.8620   -0.1660 C   0  0  0  0  0  0  0  0  0  0  0  0
   -3.7870    1.2150   -0.9930 C   0  0  1  0  0  0  0  0  0  0  0  0
   -3.4450    0.7630   -2.2300 O   0  0  0  0  0  0  0  0  0  0  0  0
   -4.5790    0.1910   -0.2660 C   0  0  0  0  0  0  0  0  0  0  0  0
   -4.4070   -1.1730   -0.1850 C   0  0  0  0  0  0  0  0  0  0  0  0
   -5.3960   -1.6980    0.6110 C   0  0  0  0  0  0  0  0  0  0  0  0
   -6.1530   -0.6180    0.9970 C   0  0  0  0  0  0  0  0  0  0  0  0
   -7.3440   -0.6920    1.8710 C   0  0  0  0  0  0  0  0  0  0  0  0
   -7.8620    0.5820    2.0690 O   0  0  0  0  0  0  0  0  0  0  0  0
   -5.6500    0.4630    0.4700 O   0  0  0  0  0  0  0  0  0  0  0  0
    1.1620    0.0220   -0.3570 C   0  0  0  0  0  0  0  0  0  0  0  0
    2.4260    0.4600   -0.4910 N   0  0  0  0  0  0  0  0  0  0  0  0
    3.2600   -0.2870    0.1690 N   0  0  0  0  0  0  0  0  0  0  0  0
    4.6630   -0.1030    0.2380 C   0  0  0  0  0  0  0  0  0  0  0  0
    5.1950    1.0240    0.8400 C   0  0  0  0  0  0  0  0  0  0  0  0
    6.5580    1.2060    0.9090 C   0  0  0  0  0  0  0  0  0  0  0  0
    7.4430    0.2850    0.3860 C   0  0  0  0  0  0  0  0  0  0  0  0
    8.8320    0.5300    0.4890 N   0  0  0  0  0  0  0  0  0  0  0  0
    6.9260   -0.8530   -0.2220 C   0  0  0  0  0  0  0  0  0  0  0  0
    5.5600   -1.0140   -0.2800 C   0  0  0  0  0  0  0  0  0  0  0  0
    2.5350   -1.2490    0.7590 C   0  0  0  0  0  0  0  0  0  0  0  0
    3.0400   -2.1440    1.4780 O   0  0  0  0  0  0  0  0  0  0  0  0
    1.2410   -1.0600    0.4360 N   0  0  0  0  0  0  0  0  0  0  0  0
  2  1  1  6
  2  3  1  0
  2 14  1  0
  3  4  1  0
  4  5  1  0
  5  6  1  6
  5  7  1  0
  7  8  2  0
  7 13  1  0
  8  9  1  0
  9 10  2  0
 10 11  1  0
 10 13  1  0
 11 12  1  0
 14 15  2  0
 14 26  1  0
 15 16  1  0
 16 17  1  0
 16 24  1  0
 17 18  2  0
 17 23  1  0
 18 19  1  0
 19 20  2  0
 20 21  1  0
 20 22  1  0
 22 23  2  0
 24 25  2  0
 24 26  1  0
M  END
