
     RDKit          3D

 18 18  0  0  0  0  0  0  0  0999 V2000
   -1.2020   -3.5460   -0.0100 N   0  0  0  0  0  0  0  0  0  0  0  0
    0.0390   -2.9210    0.2500 C   0  0  0  0  0  0  0  0  0  0  0  0
    1.0030   -3.5800    0.6770 O   0  0  0  0  0  0  0  0  0  0  0  0
    0.1680   -1.4760    0.0050 C   0  0  0  0  0  0  0  0  0  0  0  0
    1.3300   -0.9310    0.2560 C   0  0  0  0  0  0  0  0  0  0  0  0
    1.7050    0.4580    0.0980 C   0  0  0  0  0  0  0  0  0  0  0  0
    2.9500    0.8930    0.3970 C   0  0  0  0  0  0  0  0  0  0  0  0
    3.9380    0.0820    0.8610 O   0  0  0  0  0  0  0  0  0  0  0  0
    5.2340    0.3750    0.3770 C   0  0  0  0  0  0  0  0  0  0  0  0
    5.1370    2.2150    0.2940 S   0  0  0  0  0  0  0  0  0  0  0  0
    3.3530    2.2830    0.2490 C   0  0  0  0  0  0  0  0  0  0  0  0
    2.6180    3.2710    0.1220 O   0  0  0  0  0  0  0  0  0  0  0  0
   -1.0120   -0.7650   -0.4980 C   0  0  0  0  0  0  0  0  0  0  0  0
   -2.0590   -1.4780   -0.6810 O   0  0  0  0  0  0  0  0  0  0  0  0
   -1.1150    0.5380   -0.7860 O   0  0  0  0  0  0  0  0  0  0  0  0
   -2.0840    1.3840   -1.2370 C   0  0  0  0  0  0  0  0  0  0  0  0
   -3.2580    1.6720   -0.3550 C   0  0  0  0  0  0  0  0  0  0  0  0
   -4.0360    0.5320   -0.0100 N   0  0  0  0  0  0  0  0  0  0  0  0
  1  2  1  0
  2  3  2  0
  2  4  1  0
  4  5  2  3
  4 13  1  0
  5  6  1  0
  6  7  2  3
  7  8  1  0
  7 11  1  0
  8  9  1  0
  9 10  1  0
 10 11  1  0
 11 12  2  0
 13 14  2  0
 13 15  1  0
 15 16  1  0
 16 17  1  0
 17 18  1  0
M  CHG  1  18   1
M  END
