
     RDKit          3D

  9  8  0  0  0  0  0  0  0  0999 V2000
   -1.7630   -0.7310   -0.5870 C   0  0  0  0  0  0  0  0  0  0  0  0
   -0.4810   -0.3970    0.1790 C   0  0  2  0  0  0  0  0  0  0  0  0
   -0.1120   -1.5450    0.8530 O   0  0  0  0  0  0  0  0  0  0  0  0
   -0.8370    0.6760    1.1650 C   0  0  0  0  0  0  0  0  0  0  0  0
   -1.1830    1.8630    0.4780 O   0  0  0  0  0  0  0  0  0  0  0  0
    0.6070    0.0260   -0.7410 C   0  0  2  0  0  0  0  0  0  0  0  0
    0.8690   -0.9730   -1.7120 O   0  0  0  0  0  0  0  0  0  0  0  0
    1.9380    0.2330   -0.0590 C   0  0  0  0  0  0  0  0  0  0  0  0
    1.9250    1.2050    0.9190 O   0  0  0  0  0  0  0  0  0  0  0  0
  2  1  1  6
  2  3  1  0
  2  4  1  0
  2  6  1  0
  4  5  1  0
  6  7  1  6
  6  8  1  0
  8  9  1  0
M  END
