
     RDKit          3D

 18 19  0  0  0  0  0  0  0  0999 V2000
    5.8510   -0.4230   -0.5930 O   0  0  0  0  0  0  0  0  0  0  0  0
    4.8800    0.1420    0.4100 S   0  0  2  0  0  0  0  0  0  0  0  0
    5.3170    1.5380    0.7840 O   0  0  0  0  0  0  0  0  0  0  0  0
    4.8740   -0.8660    1.7710 O   0  0  0  0  0  0  0  0  0  0  0  0
    3.2810    0.2530   -0.2890 C   0  0  0  0  0  0  0  0  0  0  0  0
    2.7850   -0.5810   -1.2580 C   0  0  0  0  0  0  0  0  0  0  0  0
    1.5390   -0.1480   -1.5030 N   0  0  0  0  0  0  0  0  0  0  0  0
    1.2260    0.8970   -0.7530 C   0  0  0  0  0  0  0  0  0  0  0  0
   -0.0390    1.6730   -0.7090 C   0  0  0  0  0  0  0  0  0  0  0  0
   -0.9710    1.0670    0.3210 C   0  0  1  0  0  0  0  0  0  0  0  0
   -2.1690    1.7640    0.3980 O   0  0  0  0  0  0  0  0  0  0  0  0
   -1.1930   -0.4100    0.1010 C   0  0  2  0  0  0  0  0  0  0  0  0
   -1.7940   -0.7480   -1.2160 C   0  0  0  0  0  0  0  0  0  0  0  0
   -3.2490   -1.1130   -1.0100 C   0  0  0  0  0  0  0  0  0  0  0  0
   -3.8650   -0.1720   -0.1640 O   0  0  0  0  0  0  0  0  0  0  0  0
   -3.4800   -0.3980    1.1600 C   0  0  0  0  0  0  0  0  0  0  0  0
   -2.0700   -0.9270    1.2130 C   0  0  0  0  0  0  0  0  0  0  0  0
    2.3150    1.1590    0.0160 N   0  0  0  0  0  0  0  0  0  0  0  0
  1  2  2  0
  2  3  2  0
  2  4  1  1
  2  5  1  0
  5  6  2  0
  5 18  1  0
  6  7  1  0
  7  8  1  0
  8  9  1  0
  8 18  2  0
  9 10  1  0
 10 11  1  6
 10 12  1  0
 12 13  1  6
 12 17  1  0
 13 14  1  0
 14 15  1  0
 15 16  1  0
 16 17  1  0
M  CHG  1  18   1
M  END
