
     RDKit          3D

 18 18  0  0  0  0  0  0  0  0999 V2000
    2.7620    2.6060    0.4250 C   0  0  0  0  0  0  0  0  0  0  0  0
    2.1800    1.2270    0.1900 C   0  0  1  0  0  0  0  0  0  0  0  0
    3.1630    0.3550   -0.4570 C   0  0  0  0  0  0  0  0  0  0  0  0
    3.7310    0.7780   -1.4970 O   0  0  0  0  0  0  0  0  0  0  0  0
    3.5200   -0.9320    0.0060 N   0  0  0  0  0  0  0  0  0  0  0  0
    4.5100   -1.7640   -0.6780 C   0  0  0  0  0  0  0  0  0  0  0  0
    5.7340   -1.0710   -0.6950 O   0  0  0  0  0  0  0  0  0  0  0  0
    1.5850    0.6920    1.3340 O   0  0  0  0  0  0  0  0  0  0  0  0
    0.5090   -0.1460    1.0630 C   0  0  0  0  0  0  0  0  0  0  0  0
    0.3980   -1.2860    1.5760 O   0  0  0  0  0  0  0  0  0  0  0  0
   -0.4040    0.4660    0.1520 C   0  0  0  0  0  0  0  0  0  0  0  0
   -1.6680    0.4070    0.0150 C   0  0  0  0  0  0  0  0  0  0  0  0
   -2.5680   -0.3560    0.8190 C   0  0  0  0  0  0  0  0  0  0  0  0
   -2.0490   -1.1340    1.8870 O   0  0  0  0  0  0  0  0  0  0  0  0
   -3.8730   -0.4320    0.6890 C   0  0  0  0  0  0  0  0  0  0  0  0
   -4.6080    0.2990   -0.3530 C   0  0  0  0  0  0  0  0  0  0  0  0
   -5.2940   -0.7010   -1.1820 N   0  0  0  0  0  0  0  0  0  0  0  0
    0.7090    1.4860   -0.8710 S   0  0  0  0  0  0  0  0  0  0  0  0
  2  1  1  1
  2  3  1  0
  2  8  1  0
  2 18  1  0
  3  4  2  0
  3  5  1  0
  5  6  1  0
  6  7  1  0
  8  9  1  0
  9 10  2  0
  9 11  1  0
 11 12  2  3
 11 18  1  0
 12 13  1  0
 13 14  1  0
 13 15  2  3
 15 16  1  0
 16 17  1  0
M  CHG  1  17   1
M  END
