
     RDKit          3D

  9  8  0  0  0  0  0  0  0  0999 V2000
    3.5930   -0.5210   -0.5520 O   0  0  0  0  0  0  0  0  0  0  0  0
    2.2590   -0.8500   -0.7020 C   0  0  0  0  0  0  0  0  0  0  0  0
    1.3580   -0.1500   -0.0470 C   0  0  0  0  0  0  0  0  0  0  0  0
    1.7420    0.9120    0.7900 O   0  0  0  0  0  0  0  0  0  0  0  0
   -0.0570   -0.4480   -0.1650 C   0  0  0  0  0  0  0  0  0  0  0  0
   -0.9620    0.2510    0.4900 C   0  0  0  0  0  0  0  0  0  0  0  0
   -0.5400    1.2950    1.3090 O   0  0  0  0  0  0  0  0  0  0  0  0
   -2.4220   -0.0650    0.3620 C   0  0  0  0  0  0  0  0  0  0  0  0
   -3.1470    1.0020   -0.1340 O   0  0  0  0  0  0  0  0  0  0  0  0
  1  2  1  0
  2  3  2  3
  3  4  1  0
  3  5  1  0
  5  6  2  3
  6  7  1  0
  6  8  1  0
  8  9  1  0
M  END
