
     RDKit          3D

 32 36  0  0  0  0  0  0  0  0999 V2000
    3.9790    4.5570   -0.8260 C   0  0  0  0  0  0  0  0  0  0  0  0
    4.1740    3.1130   -0.7480 N   0  0  0  0  0  0  0  0  0  0  0  0
    2.9400    2.4090   -0.5860 C   0  0  0  0  0  0  0  0  0  0  0  0
    3.2480    1.0550   -0.5250 O   0  0  0  0  0  0  0  0  0  0  0  0
    2.0380    0.2940   -0.3560 C   0  0  0  0  0  0  0  0  0  0  0  0
    2.5310   -1.0850   -0.3070 C   0  0  0  0  0  0  0  0  0  0  0  0
    3.8780   -1.4450   -0.4310 C   0  0  0  0  0  0  0  0  0  0  0  0
    4.3070   -2.7510   -0.4420 C   0  0  0  0  0  0  0  0  0  0  0  0
    3.3780   -3.7720   -0.3270 C   0  0  0  0  0  0  0  0  0  0  0  0
    2.0480   -3.4850   -0.2030 C   0  0  0  0  0  0  0  0  0  0  0  0
    1.6470   -2.1320   -0.1930 C   0  0  0  0  0  0  0  0  0  0  0  0
    0.2800   -1.8310   -0.0500 N   0  0  0  0  0  0  0  0  0  0  0  0
   -0.1890   -0.8560    0.8500 C   0  0  0  0  0  0  0  0  0  0  0  0
    0.5090   -0.6280    1.8230 O   0  0  0  0  0  0  0  0  0  0  0  0
   -1.4370   -0.1390    0.6560 C   0  0  0  0  0  0  0  0  0  0  0  0
   -2.2200   -0.3910   -0.4510 N   0  0  0  0  0  0  0  0  0  0  0  0
   -3.3460    0.1950   -0.7120 N   0  0  0  0  0  0  0  0  0  0  0  0
   -4.0130   -0.1580   -1.8500 C   0  0  0  0  0  0  0  0  0  0  0  0
   -3.5370   -1.0260   -2.6120 O   0  0  0  0  0  0  0  0  0  0  0  0
   -5.2180    0.4580   -2.1440 C   0  0  0  0  0  0  0  0  0  0  0  0
   -5.6950    1.4060   -1.2730 C   0  0  0  0  0  0  0  0  0  0  0  0
   -5.0230    1.7350   -0.1630 N   0  0  0  0  0  0  0  0  0  0  0  0
   -3.8540    1.1210    0.0990 C   0  0  0  0  0  0  0  0  0  0  0  0
   -3.1670    1.4650    1.2430 C   0  0  0  0  0  0  0  0  0  0  0  0
   -3.6700    2.4280    2.1120 C   0  0  0  0  0  0  0  0  0  0  0  0
   -2.9810    2.7710    3.2570 C   0  0  0  0  0  0  0  0  0  0  0  0
   -1.7930    2.1380    3.5130 C   0  0  0  0  0  0  0  0  0  0  0  0
   -1.3050    1.1720    2.6250 C   0  0  0  0  0  0  0  0  0  0  0  0
   -1.9570    0.8140    1.4930 C   0  0  0  0  0  0  0  0  0  0  0  0
   -0.6940   -2.6370   -0.7840 C   0  0  0  0  0  0  0  0  0  0  0  0
   -0.2520   -4.0540   -0.9420 C   0  0  0  0  0  0  0  0  0  0  0  0
    0.9350   -4.4510   -0.1130 C   0  0  0  0  0  0  0  0  0  0  0  0
  1  2  1  0
  2  3  1  0
  3  4  1  0
  4  5  1  0
  5  6  1  0
  6  7  2  0
  6 11  1  0
  7  8  1  0
  8  9  2  0
  9 10  1  0
 10 11  2  0
 10 32  1  0
 11 12  1  0
 12 13  1  0
 12 30  1  0
 13 14  2  0
 13 15  1  0
 15 16  2  0
 15 29  1  0
 16 17  1  0
 17 18  1  0
 17 23  1  0
 18 19  2  0
 18 20  1  0
 20 21  2  0
 21 22  1  0
 22 23  2  0
 23 24  1  0
 24 25  2  0
 24 29  1  0
 25 26  1  0
 26 27  2  0
 27 28  1  0
 28 29  2  0
 30 31  1  0
 31 32  1  0
M  END
