
     RDKit          3D

 32 36  0  0  0  0  0  0  0  0999 V2000
    0.9620   -1.9740   -2.8380 C   0  0  0  0  0  0  0  0  0  0  0  0
    1.6170   -1.5070   -1.6810 O   0  0  0  0  0  0  0  0  0  0  0  0
    0.8960   -1.3290   -0.4980 C   0  0  0  0  0  0  0  0  0  0  0  0
   -0.4240   -1.6030   -0.4580 N   0  0  0  0  0  0  0  0  0  0  0  0
   -1.1870   -1.4570    0.6440 C   0  0  0  0  0  0  0  0  0  0  0  0
   -2.5700   -1.7700    0.5680 N   0  0  0  0  0  0  0  0  0  0  0  0
   -3.4020   -1.7790    1.7310 C   0  0  0  0  0  0  0  0  0  0  0  0
   -4.3310   -0.5940    1.6100 C   0  0  0  0  0  0  0  0  0  0  0  0
   -4.6630   -0.2950    0.2340 N   0  0  0  0  0  0  0  0  0  0  0  0
   -5.4450    0.8780    0.0150 C   0  0  0  0  0  0  0  0  0  0  0  0
   -5.0660    2.0810    0.4190 C   0  0  0  0  0  0  0  0  0  0  0  0
   -6.0790    3.1030    0.0520 C   0  0  0  0  0  0  0  0  0  0  0  0
   -7.1100    2.2890   -0.6350 C   0  0  0  0  0  0  0  0  0  0  0  0
   -6.7340    1.0210   -0.6480 C   0  0  0  0  0  0  0  0  0  0  0  0
   -4.2880   -1.0540   -0.9120 C   0  0  0  0  0  0  0  0  0  0  0  0
   -3.2270   -2.0880   -0.6860 C   0  0  0  0  0  0  0  0  0  0  0  0
   -0.5550   -1.0020    1.7750 C   0  0  0  0  0  0  0  0  0  0  0  0
    0.7960   -0.7180    1.7490 C   0  0  0  0  0  0  0  0  0  0  0  0
    1.5770   -0.8750    0.5940 C   0  0  0  0  0  0  0  0  0  0  0  0
    2.9750   -0.5440    0.6960 C   0  0  0  0  0  0  0  0  0  0  0  0
    3.4760   -0.1250    1.8010 O   0  0  0  0  0  0  0  0  0  0  0  0
    3.8870   -0.6440   -0.3640 N   0  0  0  0  0  0  0  0  0  0  0  0
    5.2690   -0.2800   -0.1310 C   0  0  0  0  0  0  0  0  0  0  0  0
    6.2960   -1.1010   -0.2790 C   0  0  0  0  0  0  0  0  0  0  0  0
    7.5390   -0.4370    0.0290 C   0  0  0  0  0  0  0  0  0  0  0  0
    8.7010   -0.8910    0.0020 O   0  0  0  0  0  0  0  0  0  0  0  0
    7.1750    0.9400    0.4010 C   0  0  0  0  0  0  0  0  0  0  0  0
    7.9370    2.0260    0.7900 C   0  0  0  0  0  0  0  0  0  0  0  0
    7.3060    3.2200    1.0840 C   0  0  0  0  0  0  0  0  0  0  0  0
    5.9400    3.2540    0.9690 C   0  0  0  0  0  0  0  0  0  0  0  0
    5.2090    2.1750    0.5850 N   0  0  0  0  0  0  0  0  0  0  0  0
    5.7930    1.0010    0.2930 C   0  0  0  0  0  0  0  0  0  0  0  0
  1  2  1  0
  2  3  1  0
  3  4  2  0
  3 19  1  0
  4  5  1  0
  5  6  1  0
  5 17  2  0
  6  7  1  0
  6 16  1  0
  7  8  1  0
  8  9  1  0
  9 10  1  0
  9 15  1  0
 10 11  2  0
 10 14  1  0
 11 12  1  0
 12 13  1  0
 13 14  2  0
 15 16  1  0
 17 18  1  0
 18 19  2  0
 19 20  1  0
 20 21  2  0
 20 22  1  0
 22 23  1  0
 23 24  2  0
 23 32  1  0
 24 25  1  0
 25 26  2  0
 25 27  1  0
 27 28  2  0
 27 32  1  0
 28 29  1  0
 29 30  2  0
 30 31  1  0
 31 32  2  0
M  END
