
     RDKit          3D

 33 34  0  0  0  0  0  0  0  0999 V2000
   -3.7220   -3.2730    2.4800 C   0  0  0  0  0  0  0  0  0  0  0  0
   -4.1560   -2.5400    1.2520 C   0  0  0  0  0  0  0  0  0  0  0  0
   -3.2420   -1.4500    0.7990 C   0  0  2  0  0  0  0  0  0  0  0  0
   -3.7770   -0.8650   -0.3310 O   0  0  0  0  0  0  0  0  0  0  0  0
   -4.3440    0.3690   -0.1860 C   0  0  2  0  0  0  0  0  0  0  0  0
   -5.3670    0.4100    0.9670 C   0  0  0  0  0  0  0  0  0  0  0  0
   -5.2210    0.5710   -1.4320 C   0  0  0  0  0  0  0  0  0  0  0  0
   -3.4220    1.5080    0.0700 C   0  0  0  0  0  0  0  0  0  0  0  0
   -2.5250    1.9320   -1.0410 C   0  0  1  0  0  0  0  0  0  0  0  0
   -2.1750    0.7340   -1.7270 O   0  0  0  0  0  0  0  0  0  0  0  0
   -3.0880    2.8360   -2.0650 C   0  0  0  0  0  0  0  0  0  0  0  0
   -3.6090    4.1560   -1.6380 C   0  0  0  0  0  0  0  0  0  0  0  0
   -4.6480    4.1240   -0.7180 O   0  0  0  0  0  0  0  0  0  0  0  0
   -1.2450    2.4750   -0.5270 C   0  0  0  0  0  0  0  0  0  0  0  0
   -1.1340    3.7250   -0.4440 O   0  0  0  0  0  0  0  0  0  0  0  0
   -0.2320    1.6740   -0.1580 O   0  0  0  0  0  0  0  0  0  0  0  0
    0.5570    0.7610   -0.8460 C   0  0  0  0  0  0  0  0  0  0  0  0
    1.6280    0.2770    0.1000 C   0  0  2  0  0  0  0  0  0  0  0  0
    3.0180    0.5090   -0.4480 C   0  0  0  0  0  0  0  0  0  0  0  0
    3.9900    0.0560    0.4400 O   0  0  0  0  0  0  0  0  0  0  0  0
    5.2700    0.2480   -0.0170 C   0  0  2  0  0  0  0  0  0  0  0  0
    5.9800   -1.0880   -0.0440 C   0  0  0  0  0  0  0  0  0  0  0  0
    7.3730   -0.8640   -0.5860 C   0  0  0  0  0  0  0  0  0  0  0  0
    8.1420   -0.0080    0.3960 C   0  0  0  0  0  0  0  0  0  0  0  0
    7.4380    1.2880    0.7080 C   0  0  0  0  0  0  0  0  0  0  0  0
    5.9870    1.1100    1.0220 C   0  0  0  0  0  0  0  0  0  0  0  0
    1.5010   -1.1780    0.4780 C   0  0  2  0  0  0  0  0  0  0  0  0
    1.4320   -2.0890   -0.7080 C   0  0  0  0  0  0  0  0  0  0  0  0
    0.3870   -1.2980    1.4380 C   0  0  0  0  0  0  0  0  0  0  0  0
    0.7420   -1.5020    2.6360 O   0  0  0  0  0  0  0  0  0  0  0  0
   -0.8910   -1.2020    1.0920 O   0  0  0  0  0  0  0  0  0  0  0  0
   -1.8370   -1.9480    0.4270 C   0  0  1  0  0  0  0  0  0  0  0  0
   -1.7040   -3.4450    0.5510 C   0  0  0  0  0  0  0  0  0  0  0  0
  1  2  1  0
  3  2  1  6
  3  4  1  0
  3 32  1  0
  4  5  1  0
  5  6  1  1
  5  7  1  0
  5  8  1  0
  8  9  1  0
  9 10  1  6
  9 11  1  0
  9 14  1  0
 11 12  1  0
 12 13  1  0
 14 15  2  0
 14 16  1  0
 16 17  1  0
 17 18  1  0
 18 19  1  6
 18 27  1  0
 19 20  1  0
 21 20  1  1
 21 22  1  0
 21 26  1  0
 22 23  1  0
 23 24  1  0
 24 25  1  0
 25 26  1  0
 27 28  1  6
 27 29  1  0
 29 30  2  0
 29 31  1  0
 31 32  1  0
 32 33  1  1
M  END
