
     RDKit          3D

 32 34  0  0  0  0  0  0  0  0999 V2000
   10.2190    0.8490   -0.7520 N   0  0  0  0  0  0  0  0  0  0  0  0
    8.8090    0.9120   -0.5610 C   0  0  0  0  0  0  0  0  0  0  0  0
    8.2030   -0.0010    0.2030 N   0  0  0  0  0  0  0  0  0  0  0  0
    6.8670    0.0010    0.4190 C   0  0  0  0  0  0  0  0  0  0  0  0
    6.2870   -0.9300    1.1880 N   0  0  0  0  0  0  0  0  0  0  0  0
    4.9710   -0.8960    1.3750 C   0  0  0  0  0  0  0  0  0  0  0  0
    4.2150    0.0800    0.7860 C   0  0  0  0  0  0  0  0  0  0  0  0
    2.7360    0.0550    1.0210 C   0  0  0  0  0  0  0  0  0  0  0  0
    2.1580   -0.8370    0.0390 N   0  0  0  0  0  0  0  0  0  0  0  0
    0.7670   -1.0930   -0.0840 C   0  0  0  0  0  0  0  0  0  0  0  0
    0.2690   -2.0190   -0.9860 C   0  0  0  0  0  0  0  0  0  0  0  0
   -1.0880   -2.2280   -1.0890 C   0  0  0  0  0  0  0  0  0  0  0  0
   -1.9980   -1.5240   -0.2970 C   0  0  0  0  0  0  0  0  0  0  0  0
   -3.4330   -1.7650   -0.4290 C   0  0  0  0  0  0  0  0  0  0  0  0
   -3.8320   -2.8900   -0.7940 O   0  0  0  0  0  0  0  0  0  0  0  0
   -4.3680   -0.7560   -0.1540 N   0  0  0  0  0  0  0  0  0  0  0  0
   -5.8030   -0.9280   -0.2680 C   0  0  1  0  0  0  0  0  0  0  0  0
   -6.5790   -0.3460    0.8750 C   0  0  0  0  0  0  0  0  0  0  0  0
   -6.3160    1.1410    0.9420 C   0  0  0  0  0  0  0  0  0  0  0  0
   -7.0660    1.7510    2.0550 C   0  0  0  0  0  0  0  0  0  0  0  0
   -7.7900    1.0100    2.7870 O   0  0  0  0  0  0  0  0  0  0  0  0
   -6.9770    3.1230    2.2960 O   0  0  0  0  0  0  0  0  0  0  0  0
   -6.2830   -0.2990   -1.5680 C   0  0  0  0  0  0  0  0  0  0  0  0
   -5.4280    0.2590   -2.2940 O   0  0  0  0  0  0  0  0  0  0  0  0
   -7.6060   -0.3340   -1.9430 O   0  0  0  0  0  0  0  0  0  0  0  0
   -1.4610   -0.6180    0.5830 C   0  0  0  0  0  0  0  0  0  0  0  0
   -0.0980   -0.3800    0.7150 C   0  0  0  0  0  0  0  0  0  0  0  0
    4.7890    1.0130    0.0170 N   0  0  0  0  0  0  0  0  0  0  0  0
    6.1140    1.0010   -0.1850 C   0  0  0  0  0  0  0  0  0  0  0  0
    6.7530    1.9470   -0.9800 C   0  0  0  0  0  0  0  0  0  0  0  0
    6.0780    2.8510   -1.5250 O   0  0  0  0  0  0  0  0  0  0  0  0
    8.0790    1.8960   -1.1590 N   0  0  0  0  0  0  0  0  0  0  0  0
  1  2  1  0
  2  3  2  0
  2 32  1  0
  3  4  1  0
  4  5  2  0
  4 29  1  0
  5  6  1  0
  6  7  2  0
  7  8  1  0
  7 28  1  0
  8  9  1  0
  9 10  1  0
 10 11  2  0
 10 27  1  0
 11 12  1  0
 12 13  2  0
 13 14  1  0
 13 26  1  0
 14 15  2  0
 14 16  1  0
 16 17  1  0
 17 18  1  1
 17 23  1  0
 18 19  1  0
 19 20  1  0
 20 21  2  0
 20 22  1  0
 23 24  2  0
 23 25  1  0
 26 27  2  0
 28 29  2  0
 29 30  1  0
 30 31  2  0
 30 32  1  0
M  END
