
     RDKit          3D

 32 34  0  0  0  0  0  0  0  0999 V2000
   -5.1660    3.0500   -1.6960 C   0  0  0  0  0  0  0  0  0  0  0  0
   -5.8400    1.7640   -1.6960 C   0  0  0  0  0  0  0  0  0  0  0  0
   -5.1420    0.6170   -1.2550 C   0  0  0  0  0  0  0  0  0  0  0  0
   -5.9600   -0.5600   -1.3230 C   0  0  0  0  0  0  0  0  0  0  0  0
   -5.6950   -1.7840   -1.0940 C   0  0  0  0  0  0  0  0  0  0  0  0
   -6.7210   -2.7230   -1.2420 F   0  0  0  0  0  0  0  0  0  0  0  0
   -3.7660    0.7830   -1.0110 C   0  0  0  0  0  0  0  0  0  0  0  0
   -2.7540    0.1740   -0.5170 C   0  0  0  0  0  0  0  0  0  0  0  0
   -1.4540    1.0490   -0.6540 C   0  0  0  0  0  0  0  0  0  0  0  0
   -0.9800    1.5130    0.6250 N   0  0  0  0  0  0  0  0  0  0  0  0
   -1.5290    2.7340    1.2150 C   0  0  0  0  0  0  0  0  0  0  0  0
   -1.7550    3.8400    0.6110 O   0  0  0  0  0  0  0  0  0  0  0  0
   -1.8190    2.5760    2.6510 C   0  0  0  0  0  0  0  0  0  0  0  0
   -0.6560    1.2820    3.1450 S   0  0  0  0  0  0  0  0  0  0  0  0
    0.0600    1.0070    1.4510 C   0  0  0  0  0  0  0  0  0  0  0  0
    1.1830    0.5050    1.2770 N   0  0  0  0  0  0  0  0  0  0  0  0
    2.0090    0.1730    0.2570 C   0  0  0  0  0  0  0  0  0  0  0  0
    1.7240   -0.4040   -0.8500 O   0  0  0  0  0  0  0  0  0  0  0  0
    3.5010    0.5260    0.4240 C   0  0  1  0  0  0  0  0  0  0  0  0
    3.8630   -0.0910    1.7450 C   0  0  0  0  0  0  0  0  0  0  0  0
    4.5700   -1.4130    1.5470 C   0  0  0  0  0  0  0  0  0  0  0  0
    4.1460   -2.4440    1.9740 O   0  0  0  0  0  0  0  0  0  0  0  0
    5.8340   -1.2400    0.7640 C   0  0  0  0  0  0  0  0  0  0  0  0
    5.4470   -0.7760   -0.6050 C   0  0  1  0  0  0  0  0  0  0  0  0
    6.7180   -0.1180   -1.1770 C   0  0  0  0  0  0  0  0  0  0  0  0
    5.2810   -2.0420   -1.4590 C   0  0  0  0  0  0  0  0  0  0  0  0
    4.2870    0.1190   -0.7320 C   0  0  0  0  0  0  0  0  0  0  0  0
   -2.6330   -0.9120    0.4330 C   0  0  0  0  0  0  0  0  0  0  0  0
   -1.4740   -1.5460    0.7430 C   0  0  0  0  0  0  0  0  0  0  0  0
   -1.7290   -2.5790    1.7660 C   0  0  0  0  0  0  0  0  0  0  0  0
   -3.1630   -2.3980    2.0420 C   0  0  0  0  0  0  0  0  0  0  0  0
   -3.6240   -1.4730    1.2770 N   0  0  0  0  0  0  0  0  0  0  0  0
  1  2  1  0
  2  3  2  3
  3  4  1  0
  3  7  1  0
  4  5  2  3
  5  6  1  0
  7  8  2  3
  8  9  1  0
  8 28  1  0
  9 10  1  0
 10 11  1  0
 10 15  1  0
 11 12  2  0
 11 13  1  0
 13 14  1  0
 14 15  1  0
 15 16  2  3
 16 17  1  0
 17 18  2  0
 19 17  1  6
 19 20  1  0
 19 27  1  0
 20 21  1  0
 21 22  2  0
 21 23  1  0
 23 24  1  0
 24 25  1  6
 24 26  1  0
 24 27  1  0
 28 29  2  0
 28 32  1  0
 29 30  1  0
 30 31  1  0
 31 32  2  0
M  CHG  1  32   1
M  END
