
     RDKit          3D

 32 35  0  0  0  0  0  0  0  0999 V2000
   -6.0350    1.4230   -2.3390 C   0  0  0  0  0  0  0  0  0  0  0  0
   -4.9160    0.7510   -3.0880 C   0  0  0  0  0  0  0  0  0  0  0  0
   -3.7100    0.7380   -2.2860 N   0  0  0  0  0  0  0  0  0  0  0  0
   -3.3870   -0.2490   -1.4330 C   0  0  0  0  0  0  0  0  0  0  0  0
   -4.0380   -1.4110   -1.1060 C   0  0  0  0  0  0  0  0  0  0  0  0
   -3.4800   -2.2630   -0.1860 C   0  0  0  0  0  0  0  0  0  0  0  0
   -2.2720   -1.9820    0.4270 C   0  0  0  0  0  0  0  0  0  0  0  0
   -1.6960   -2.9100    1.4200 C   0  0  0  0  0  0  0  0  0  0  0  0
   -0.8620   -3.9290    0.7130 C   0  0  0  0  0  0  0  0  0  0  0  0
    0.2940   -3.3760   -0.0720 C   0  0  0  0  0  0  0  0  0  0  0  0
    1.2740   -2.6590    0.7700 C   0  0  0  0  0  0  0  0  0  0  0  0
    1.2000   -2.5260    2.0200 O   0  0  0  0  0  0  0  0  0  0  0  0
    2.4330   -2.0370    0.1900 N   0  0  0  0  0  0  0  0  0  0  0  0
    3.4210   -1.3270    0.9620 C   0  0  1  0  0  0  0  0  0  0  0  0
    4.8090   -1.8910    0.8080 C   0  0  0  0  0  0  0  0  0  0  0  0
    3.4440    0.0920    0.4560 C   0  0  0  0  0  0  0  0  0  0  0  0
    4.4070    1.0000    1.1260 C   0  0  0  0  0  0  0  0  0  0  0  0
    4.2090    1.1850    2.5690 C   0  0  0  0  0  0  0  0  0  0  0  0
    3.2620    0.6410    3.3550 N   0  0  0  0  0  0  0  0  0  0  0  0
    3.4120    1.0480    4.6070 C   0  0  0  0  0  0  0  0  0  0  0  0
    4.5190    1.9000    4.6190 C   0  0  0  0  0  0  0  0  0  0  0  0
    4.9740    1.9560    3.3590 N   0  0  0  0  0  0  0  0  0  0  0  0
   -1.6270   -0.8200    0.0950 C   0  0  0  0  0  0  0  0  0  0  0  0
   -2.1660    0.0590   -0.8300 C   0  0  0  0  0  0  0  0  0  0  0  0
   -1.7430    1.2610   -1.3320 C   0  0  0  0  0  0  0  0  0  0  0  0
   -0.6320    2.0500   -1.1100 C   0  0  0  0  0  0  0  0  0  0  0  0
   -0.4600    3.2440   -1.7690 C   0  0  0  0  0  0  0  0  0  0  0  0
    0.6740    4.0440   -1.5390 O   0  0  0  0  0  0  0  0  0  0  0  0
   -1.4290    3.6420   -2.6640 C   0  0  0  0  0  0  0  0  0  0  0  0
   -1.2640    4.8360   -3.3270 O   0  0  0  0  0  0  0  0  0  0  0  0
   -2.5450    2.8520   -2.8880 C   0  0  0  0  0  0  0  0  0  0  0  0
   -2.7330    1.6550   -2.2380 C   0  0  0  0  0  0  0  0  0  0  0  0
  1  2  1  0
  2  3  1  0
  3  4  1  0
  3 32  1  0
  4  5  2  0
  4 24  1  0
  5  6  1  0
  6  7  2  0
  7  8  1  0
  7 23  1  0
  8  9  1  0
  9 10  1  0
 10 11  1  0
 11 12  2  0
 11 13  1  0
 13 14  1  0
 14 15  1  6
 14 16  1  0
 16 17  1  0
 17 18  1  0
 18 19  2  0
 18 22  1  0
 19 20  1  0
 20 21  2  0
 21 22  1  0
 23 24  2  0
 24 25  1  0
 25 26  2  0
 25 32  1  0
 26 27  1  0
 27 28  1  0
 27 29  2  0
 29 30  1  0
 29 31  1  0
 31 32  2  0
M  END
