
     RDKit          3D

 32 34  0  0  0  0  0  0  0  0999 V2000
    3.9090    3.2300   -2.3950 C   0  0  0  0  0  0  0  0  0  0  0  0
    3.7350    2.1160   -1.7000 C   0  0  0  0  0  0  0  0  0  0  0  0
    3.1800    0.9800   -2.3200 O   0  0  0  0  0  0  0  0  0  0  0  0
    3.3100   -0.2900   -1.7100 C   0  0  0  0  0  0  0  0  0  0  0  0
    3.0770   -0.2280   -0.2410 C   0  0  2  0  0  0  0  0  0  0  0  0
    1.6630   -0.0970    0.2050 C   0  0  0  0  0  0  0  0  0  0  0  0
    0.7020   -0.9960   -0.3210 N   0  0  0  0  0  0  0  0  0  0  0  0
   -0.0640   -0.5870   -1.5110 C   0  0  0  0  0  0  0  0  0  0  0  0
   -1.3040    0.1260   -1.0940 C   0  0  0  0  0  0  0  0  0  0  0  0
   -1.5400    0.2900    0.1990 C   0  0  0  0  0  0  0  0  0  0  0  0
   -2.7480    0.9880    0.6450 C   0  0  0  0  0  0  0  0  0  0  0  0
   -3.0420    1.1760    1.9060 C   0  0  0  0  0  0  0  0  0  0  0  0
   -2.2520    0.7450    3.0710 C   0  0  0  0  0  0  0  0  0  0  0  0
   -1.9070    1.8840    3.7920 F   0  0  0  0  0  0  0  0  0  0  0  0
   -3.6170    1.4630   -0.4270 C   0  0  0  0  0  0  0  0  0  0  0  0
   -4.3240    2.4940   -0.3810 N   0  0  0  0  0  0  0  0  0  0  0  0
   -4.5740    3.5040    0.5520 C   0  0  0  0  0  0  0  0  0  0  0  0
   -3.6230    0.6780   -1.6470 N   0  0  2  0  0  0  0  0  0  0  0  0
   -4.1710   -0.6080   -1.3230 C   0  0  0  0  0  0  0  0  0  0  0  0
   -5.0380   -1.0800   -2.4650 C   0  0  0  0  0  0  0  0  0  0  0  0
   -2.2330    0.6200   -2.0980 C   0  0  0  0  0  0  0  0  0  0  0  0
    0.4010   -2.2460    0.2370 C   0  0  0  0  0  0  0  0  0  0  0  0
   -0.5090   -2.9490   -0.3230 O   0  0  0  0  0  0  0  0  0  0  0  0
    1.0330   -2.8630    1.4310 C   0  0  2  0  0  0  0  0  0  0  0  0
    2.2610   -3.5830    1.0920 C   0  0  0  0  0  0  0  0  0  0  0  0
    2.1330   -5.0580    1.1060 C   0  0  0  0  0  0  0  0  0  0  0  0
    0.3530   -5.3360    1.4580 S   0  0  0  0  0  0  0  0  0  0  0  0
    0.0450   -3.6880    2.1850 C   0  0  0  0  0  0  0  0  0  0  0  0
    3.8810    0.8020    0.3580 O   0  0  0  0  0  0  0  0  0  0  0  0
    4.0980    2.0180   -0.3040 C   0  0  0  0  0  0  0  0  0  0  0  0
    4.6300    3.0330    0.3780 C   0  0  0  0  0  0  0  0  0  0  0  0
    4.9840    2.8820    1.8020 C   0  0  0  0  0  0  0  0  0  0  0  0
  1  2  2  0
  2  3  1  0
  2 30  1  0
  3  4  1  0
  4  5  1  0
  5  6  1  6
  5 29  1  0
  6  7  1  0
  7  8  1  0
  7 22  1  0
  8  9  1  0
  9 10  2  0
  9 21  1  0
 10 11  1  0
 11 12  2  3
 11 15  1  0
 12 13  1  0
 13 14  1  0
 15 16  2  3
 15 18  1  0
 16 17  1  0
 18 19  1  1
 18 21  1  0
 19 20  1  0
 22 23  2  0
 24 22  1  6
 24 25  1  0
 24 28  1  0
 25 26  1  0
 26 27  1  0
 27 28  1  0
 29 30  1  0
 30 31  2  3
 31 32  1  0
M  CHG  1  18   1
M  END
