
     RDKit          3D

 32 35  0  0  0  0  0  0  0  0999 V2000
    7.6070   -3.3020   -0.5960 C   0  0  0  0  0  0  0  0  0  0  0  0
    6.6650   -2.2930   -0.0280 C   0  0  0  0  0  0  0  0  0  0  0  0
    5.5040   -2.0330   -0.7130 C   0  0  0  0  0  0  0  0  0  0  0  0
    4.6390   -1.0960   -0.1810 C   0  0  0  0  0  0  0  0  0  0  0  0
    4.8610   -0.4110    0.9820 C   0  0  0  0  0  0  0  0  0  0  0  0
    3.9830    0.5790    1.5790 C   0  0  0  0  0  0  0  0  0  0  0  0
    2.9640    0.0850    2.5400 C   0  0  0  0  0  0  0  0  0  0  0  0
    2.1800    1.3180    3.0210 C   0  0  0  0  0  0  0  0  0  0  0  0
    1.5520    1.9460    1.8830 N   0  0  0  0  0  0  0  0  0  0  0  0
    2.0010    3.2050    1.4320 C   0  0  0  0  0  0  0  0  0  0  0  0
    1.4610    3.7960    0.3710 C   0  0  0  0  0  0  0  0  0  0  0  0
    0.3780    3.1330   -0.3430 C   0  0  0  0  0  0  0  0  0  0  0  0
   -0.0700    1.9730    0.0430 C   0  0  0  0  0  0  0  0  0  0  0  0
   -1.1760    1.2810   -0.6780 C   0  0  0  0  0  0  0  0  0  0  0  0
   -1.6340    0.1120   -0.2270 N   0  0  0  0  0  0  0  0  0  0  0  0
   -2.6410   -0.5700   -0.8620 C   0  0  0  0  0  0  0  0  0  0  0  0
   -2.9870   -1.6600   -0.3490 O   0  0  0  0  0  0  0  0  0  0  0  0
   -3.1610   -0.0430   -1.9440 N   0  0  0  0  0  0  0  0  0  0  0  0
   -4.2360   -0.6200   -2.6910 C   0  0  0  0  0  0  0  0  0  0  0  0
   -5.5650   -0.0520   -2.3480 C   0  0  2  0  0  0  0  0  0  0  0  0
   -5.6930    1.3150   -2.4700 O   0  0  0  0  0  0  0  0  0  0  0  0
   -6.2930   -0.6310   -1.2290 C   0  0  0  0  0  0  0  0  0  0  0  0
   -6.1110   -1.7940   -0.6450 C   0  0  0  0  0  0  0  0  0  0  0  0
   -7.0800   -2.0020    0.4660 C   0  0  0  0  0  0  0  0  0  0  0  0
   -7.8920   -0.7750    0.4150 C   0  0  0  0  0  0  0  0  0  0  0  0
   -7.4480    0.0080   -0.5400 C   0  0  0  0  0  0  0  0  0  0  0  0
   -2.6810    1.1550   -2.3950 C   0  0  0  0  0  0  0  0  0  0  0  0
   -3.1790    1.6420   -3.4190 O   0  0  0  0  0  0  0  0  0  0  0  0
   -1.6930    1.8260   -1.7750 N   0  0  0  0  0  0  0  0  0  0  0  0
    0.4830    1.2750    1.2160 C   0  0  0  0  0  0  0  0  0  0  0  0
    6.0500   -0.7010    1.6500 C   0  0  0  0  0  0  0  0  0  0  0  0
    6.9350   -1.6320    1.1440 C   0  0  0  0  0  0  0  0  0  0  0  0
  1  2  1  0
  2  3  2  0
  2 32  1  0
  3  4  1  0
  4  5  2  0
  5  6  1  0
  5 31  1  0
  6  7  1  0
  7  8  1  0
  8  9  1  0
  9 10  1  0
  9 30  1  0
 10 11  2  0
 11 12  1  0
 12 13  2  0
 13 14  1  0
 13 30  1  0
 14 15  2  0
 14 29  1  0
 15 16  1  0
 16 17  2  0
 16 18  1  0
 18 19  1  0
 18 27  1  0
 19 20  1  0
 20 21  1  1
 20 22  1  0
 22 23  2  0
 22 26  1  0
 23 24  1  0
 24 25  1  0
 25 26  2  0
 27 28  2  0
 27 29  1  0
 31 32  2  0
M  END
