
     RDKit          3D

 32 34  0  0  0  0  0  0  0  0999 V2000
   -3.0750   -2.8950    2.9890 C   0  0  0  0  0  0  0  0  0  0  0  0
   -2.8740   -2.3210    1.8300 C   0  0  0  0  0  0  0  0  0  0  0  0
   -1.5240   -2.0400    1.4460 O   0  0  0  0  0  0  0  0  0  0  0  0
   -1.2840   -1.8780    0.0730 C   0  0  0  0  0  0  0  0  0  0  0  0
   -2.2290   -0.7220   -0.3470 C   0  0  2  0  0  0  0  0  0  0  0  0
   -2.1190    0.3660    0.6570 C   0  0  0  0  0  0  0  0  0  0  0  0
   -0.9450    1.1800    0.5280 N   0  0  0  0  0  0  0  0  0  0  0  0
    0.2510    0.9630    1.2480 C   0  0  0  0  0  0  0  0  0  0  0  0
    1.4180    0.4410    0.4720 C   0  0  0  0  0  0  0  0  0  0  0  0
    1.3570    0.2710   -0.8260 C   0  0  0  0  0  0  0  0  0  0  0  0
    2.4950   -0.2380   -1.5720 C   0  0  0  0  0  0  0  0  0  0  0  0
    2.4290   -0.4090   -2.8710 C   0  0  0  0  0  0  0  0  0  0  0  0
    3.4110   -0.8930   -3.8180 C   0  0  0  0  0  0  0  0  0  0  0  0
    3.6780    0.0940   -4.7890 F   0  0  0  0  0  0  0  0  0  0  0  0
    3.7220   -0.5500   -0.7670 C   0  0  0  0  0  0  0  0  0  0  0  0
    4.4480   -1.4560   -1.2220 N   0  0  0  0  0  0  0  0  0  0  0  0
    5.6510   -2.0600   -0.8180 C   0  0  0  0  0  0  0  0  0  0  0  0
    3.8410    0.2370    0.3910 N   0  0  2  0  0  0  0  0  0  0  0  0
    5.0200    0.0710    1.1840 C   0  0  0  0  0  0  0  0  0  0  0  0
    4.7870   -0.8430    2.3770 C   0  0  0  0  0  0  0  0  0  0  0  0
    2.6580    0.1280    1.2300 C   0  0  0  0  0  0  0  0  0  0  0  0
   -1.0870    2.3570   -0.2860 C   0  0  0  0  0  0  0  0  0  0  0  0
   -0.0290    3.0600   -0.4240 O   0  0  0  0  0  0  0  0  0  0  0  0
   -2.2930    2.8190   -0.9510 C   0  0  2  0  0  0  0  0  0  0  0  0
   -1.8770    3.7720   -2.0980 C   0  0  0  0  0  0  0  0  0  0  0  0
   -3.2050    4.0760   -2.8080 C   0  0  0  0  0  0  0  0  0  0  0  0
   -4.1920    4.5350   -1.3280 S   0  0  0  0  0  0  0  0  0  0  0  0
   -3.1440    3.7220   -0.0520 C   0  0  0  0  0  0  0  0  0  0  0  0
   -3.5220   -1.3460   -0.2810 O   0  0  0  0  0  0  0  0  0  0  0  0
   -3.9340   -1.9640    0.9370 C   0  0  0  0  0  0  0  0  0  0  0  0
   -5.2260   -2.1330    1.1020 C   0  0  0  0  0  0  0  0  0  0  0  0
   -5.9950   -2.7110    2.1860 C   0  0  0  0  0  0  0  0  0  0  0  0
  1  2  2  0
  2  3  1  0
  2 30  1  0
  3  4  1  0
  4  5  1  0
  5  6  1  1
  5 29  1  0
  6  7  1  0
  7  8  1  0
  7 22  1  0
  8  9  1  0
  9 10  2  0
  9 21  1  0
 10 11  1  0
 11 12  2  3
 11 15  1  0
 12 13  1  0
 13 14  1  0
 15 16  2  3
 15 18  1  0
 16 17  1  0
 18 19  1  1
 18 21  1  0
 19 20  1  0
 22 23  2  0
 24 22  1  1
 24 25  1  0
 24 28  1  0
 25 26  1  0
 26 27  1  0
 27 28  1  0
 29 30  1  0
 30 31  2  3
 31 32  1  0
M  CHG  1  18   1
M  END
