
     RDKit          3D

 32 35  0  0  0  0  0  0  0  0999 V2000
   -4.3330    3.1460    1.5020 C   0  0  0  0  0  0  0  0  0  0  0  0
   -5.0010    1.8720    1.9740 C   0  0  0  0  0  0  0  0  0  0  0  0
   -4.7260    0.7570    1.0870 N   0  0  0  0  0  0  0  0  0  0  0  0
   -3.6690   -0.0860    1.2220 C   0  0  0  0  0  0  0  0  0  0  0  0
   -2.6280   -0.1620    2.1310 C   0  0  0  0  0  0  0  0  0  0  0  0
   -1.6690   -1.1700    2.0030 C   0  0  0  0  0  0  0  0  0  0  0  0
   -1.7440   -2.0930    0.9830 C   0  0  0  0  0  0  0  0  0  0  0  0
   -0.7760   -3.1910    0.7700 C   0  0  0  0  0  0  0  0  0  0  0  0
    0.3030   -2.6990   -0.1560 C   0  0  0  0  0  0  0  0  0  0  0  0
    0.9900   -1.5280    0.4590 C   0  0  0  0  0  0  0  0  0  0  0  0
    2.0590   -1.0980   -0.5110 C   0  0  0  0  0  0  0  0  0  0  0  0
    2.2550   -1.6800   -1.6060 O   0  0  0  0  0  0  0  0  0  0  0  0
    2.8990    0.0170   -0.1960 N   0  0  0  0  0  0  0  0  0  0  0  0
    3.9460    0.4840   -1.0840 C   0  0  1  0  0  0  0  0  0  0  0  0
    3.6240    1.8830   -1.5090 C   0  0  0  0  0  0  0  0  0  0  0  0
    5.2480    0.3780   -0.3220 C   0  0  0  0  0  0  0  0  0  0  0  0
    6.4310    0.8400   -1.1470 C   0  0  0  0  0  0  0  0  0  0  0  0
    7.6450    0.6960   -0.3130 C   0  0  0  0  0  0  0  0  0  0  0  0
    8.4160   -0.3880   -0.2470 N   0  0  0  0  0  0  0  0  0  0  0  0
    9.4140   -0.1360    0.6110 C   0  0  0  0  0  0  0  0  0  0  0  0
    9.2470    1.1450    1.0850 C   0  0  0  0  0  0  0  0  0  0  0  0
    8.1460    1.6260    0.4930 N   0  0  0  0  0  0  0  0  0  0  0  0
   -2.7980   -1.9840    0.0960 C   0  0  0  0  0  0  0  0  0  0  0  0
   -3.7570   -1.0020    0.1960 C   0  0  0  0  0  0  0  0  0  0  0  0
   -4.8760   -0.7090   -0.5630 C   0  0  0  0  0  0  0  0  0  0  0  0
   -5.4630   -1.2570   -1.6850 C   0  0  0  0  0  0  0  0  0  0  0  0
   -6.6120   -0.7620   -2.2650 C   0  0  0  0  0  0  0  0  0  0  0  0
   -7.1690   -1.3620   -3.4110 O   0  0  0  0  0  0  0  0  0  0  0  0
   -7.1950    0.3410   -1.6830 C   0  0  0  0  0  0  0  0  0  0  0  0
   -8.3440    0.8630   -2.2360 O   0  0  0  0  0  0  0  0  0  0  0  0
   -6.6170    0.9140   -0.5450 C   0  0  0  0  0  0  0  0  0  0  0  0
   -5.4670    0.4030    0.0200 C   0  0  0  0  0  0  0  0  0  0  0  0
  1  2  1  0
  2  3  1  0
  3  4  1  0
  3 32  1  0
  4  5  2  0
  4 24  1  0
  5  6  1  0
  6  7  2  0
  7  8  1  0
  7 23  1  0
  8  9  1  0
  9 10  1  0
 10 11  1  0
 11 12  2  0
 11 13  1  0
 13 14  1  0
 14 15  1  1
 14 16  1  0
 16 17  1  0
 17 18  1  0
 18 19  2  0
 18 22  1  0
 19 20  1  0
 20 21  2  0
 21 22  1  0
 23 24  2  0
 24 25  1  0
 25 26  2  0
 25 32  1  0
 26 27  1  0
 27 28  1  0
 27 29  2  0
 29 30  1  0
 29 31  1  0
 31 32  2  0
M  END
