
     RDKit          3D

 32 34  0  0  0  0  0  0  0  0999 V2000
   -4.5970    1.9700    1.3830 C   0  0  0  0  0  0  0  0  0  0  0  0
   -3.4340    2.4670    2.2020 C   0  0  0  0  0  0  0  0  0  0  0  0
   -2.3310    3.0340    1.4020 C   0  0  0  0  0  0  0  0  0  0  0  0
   -1.6790    2.1040    0.4500 N   0  0  0  0  0  0  0  0  0  0  0  0
   -2.1660    2.0500   -0.8640 C   0  0  0  0  0  0  0  0  0  0  0  0
   -2.9260    1.1890   -1.5420 C   0  0  0  0  0  0  0  0  0  0  0  0
   -3.5910   -0.0350   -1.2900 C   0  0  0  0  0  0  0  0  0  0  0  0
   -3.2930   -1.3130   -1.3190 C   0  0  0  0  0  0  0  0  0  0  0  0
   -4.3550   -2.1920   -0.9630 O   0  0  0  0  0  0  0  0  0  0  0  0
   -4.2900   -3.5480   -0.9230 C   0  0  0  0  0  0  0  0  0  0  0  0
   -3.1610   -4.1520   -1.2340 C   0  0  0  0  0  0  0  0  0  0  0  0
   -3.0610   -5.4980   -1.2050 F   0  0  0  0  0  0  0  0  0  0  0  0
   -2.0230   -3.3430   -1.6100 C   0  0  0  0  0  0  0  0  0  0  0  0
   -2.0700   -2.0180   -1.6540 C   0  0  0  0  0  0  0  0  0  0  0  0
   -0.7930   -1.3540   -2.0360 C   0  0  0  0  0  0  0  0  0  0  0  0
   -0.2940   -0.6040   -0.8280 C   0  0  0  0  0  0  0  0  0  0  0  0
    0.7200   -1.1850   -0.0380 N   0  0  2  0  0  0  0  0  0  0  0  0
    0.2100   -2.0580    1.0130 C   0  0  0  0  0  0  0  0  0  0  0  0
    0.8640   -3.4230    0.9660 C   0  0  0  0  0  0  0  0  0  0  0  0
    2.3740   -3.2970    1.1550 C   0  0  0  0  0  0  0  0  0  0  0  0
    1.4960   -0.0780    0.5400 C   0  0  1  0  0  0  0  0  0  0  0  0
    2.6370    0.0810   -0.4140 C   0  0  0  0  0  0  0  0  0  0  0  0
    2.5900   -0.5070   -1.5660 O   0  0  0  0  0  0  0  0  0  0  0  0
    3.8120    0.8140   -0.2260 N   0  0  0  0  0  0  0  0  0  0  0  0
    4.8400    0.9440   -1.2550 C   0  0  0  0  0  0  0  0  0  0  0  0
    5.0790    2.3570   -1.6940 C   0  0  0  0  0  0  0  0  0  0  0  0
    5.3010    3.4620   -0.2490 S   0  0  0  0  0  0  0  0  0  0  0  0
    3.9680    2.9480    0.9080 C   0  0  0  0  0  0  0  0  0  0  0  0
    4.1010    1.4480    1.0300 C   0  0  0  0  0  0  0  0  0  0  0  0
    0.7980    1.2080    0.5870 C   0  0  0  0  0  0  0  0  0  0  0  0
   -0.5730    1.3730    1.0390 C   0  0  0  0  0  0  0  0  0  0  0  0
   -0.8600    0.7780    2.1460 O   0  0  0  0  0  0  0  0  0  0  0  0
  1  2  1  0
  2  3  1  0
  3  4  1  0
  4  5  1  0
  4 31  1  0
  5  6  2  0
  6  7  1  0
  7  8  2  0
  8  9  1  0
  8 14  1  0
  9 10  1  0
 10 11  2  0
 11 12  1  0
 11 13  1  0
 13 14  2  0
 14 15  1  0
 15 16  1  0
 16 17  1  0
 17 18  1  1
 17 21  1  0
 18 19  1  0
 19 20  1  0
 21 22  1  6
 21 30  1  0
 22 23  2  0
 22 24  1  0
 24 25  1  0
 24 29  1  0
 25 26  1  0
 26 27  1  0
 27 28  1  0
 28 29  1  0
 30 31  1  0
 31 32  2  0
M  CHG  1  17   1
M  END
