
     RDKit          3D

 32 34  0  0  0  0  0  0  0  0999 V2000
   -5.4250   -3.3810   -0.0290 C   0  0  0  0  0  0  0  0  0  0  0  0
   -6.0720   -2.2250    0.6020 C   0  0  0  0  0  0  0  0  0  0  0  0
   -5.3900   -0.9990    0.6330 C   0  0  0  0  0  0  0  0  0  0  0  0
   -6.1940   -0.0130    1.2870 C   0  0  0  0  0  0  0  0  0  0  0  0
   -5.9490    1.2180    1.6050 C   0  0  0  0  0  0  0  0  0  0  0  0
   -6.8880    2.0100    2.2400 F   0  0  0  0  0  0  0  0  0  0  0  0
   -4.0510   -1.0570    0.2000 C   0  0  0  0  0  0  0  0  0  0  0  0
   -3.0480   -0.2920   -0.0930 C   0  0  0  0  0  0  0  0  0  0  0  0
   -1.7440   -0.9880   -0.4800 C   0  0  0  0  0  0  0  0  0  0  0  0
   -0.6770   -0.8340    0.4730 N   0  0  0  0  0  0  0  0  0  0  0  0
   -0.6240   -1.7060    1.6320 C   0  0  0  0  0  0  0  0  0  0  0  0
   -0.9170   -2.9420    1.6330 O   0  0  0  0  0  0  0  0  0  0  0  0
   -0.1840   -1.0010    2.8510 C   0  0  0  0  0  0  0  0  0  0  0  0
    0.7410    0.4220    2.1690 S   0  0  0  0  0  0  0  0  0  0  0  0
    0.4590    0.0100    0.4380 C   0  0  0  0  0  0  0  0  0  0  0  0
    1.1140    0.3680   -0.6110 N   0  0  0  0  0  0  0  0  0  0  0  0
    2.2320    1.2020   -0.6120 C   0  0  0  0  0  0  0  0  0  0  0  0
    2.1310    2.3360   -0.0870 O   0  0  0  0  0  0  0  0  0  0  0  0
    3.5320    0.8120   -1.2050 C   0  0  1  0  0  0  0  0  0  0  0  0
    4.5170    1.9260   -1.0480 C   0  0  0  0  0  0  0  0  0  0  0  0
    5.8700    1.5900   -1.5040 C   0  0  0  0  0  0  0  0  0  0  0  0
    6.6790    2.3970   -1.9300 O   0  0  0  0  0  0  0  0  0  0  0  0
    6.3020    0.1630   -1.4490 C   0  0  0  0  0  0  0  0  0  0  0  0
    5.5010   -0.4950   -0.3490 C   0  0  1  0  0  0  0  0  0  0  0  0
    5.9310   -1.9430   -0.1540 C   0  0  0  0  0  0  0  0  0  0  0  0
    5.7300    0.2140    0.9730 C   0  0  0  0  0  0  0  0  0  0  0  0
    4.0370   -0.5000   -0.6490 C   0  0  0  0  0  0  0  0  0  0  0  0
   -3.1670    1.0980   -0.5910 C   0  0  0  0  0  0  0  0  0  0  0  0
   -2.1990    1.9550   -0.8050 C   0  0  0  0  0  0  0  0  0  0  0  0
   -2.7670    3.2540   -1.3340 C   0  0  0  0  0  0  0  0  0  0  0  0
   -4.1910    2.9140   -1.4510 C   0  0  0  0  0  0  0  0  0  0  0  0
   -4.4010    1.7200   -1.0260 N   0  0  0  0  0  0  0  0  0  0  0  0
  1  2  1  0
  2  3  2  3
  3  4  1  0
  3  7  1  0
  4  5  2  3
  5  6  1  0
  7  8  2  3
  8  9  1  0
  8 28  1  0
  9 10  1  0
 10 11  1  0
 10 15  1  0
 11 12  2  0
 11 13  1  0
 13 14  1  0
 14 15  1  0
 15 16  2  3
 16 17  1  0
 17 18  2  0
 19 17  1  1
 19 20  1  0
 19 27  1  0
 20 21  1  0
 21 22  2  0
 21 23  1  0
 23 24  1  0
 24 25  1  1
 24 26  1  0
 24 27  1  0
 28 29  2  0
 28 32  1  0
 29 30  1  0
 30 31  1  0
 31 32  2  0
M  CHG  1  32   1
M  END
