
     RDKit          3D

 23 23  0  0  0  0  0  0  0  0999 V2000
   -5.9080    0.3220    1.1000 C   0  0  0  0  0  0  0  0  0  0  0  0
   -5.4270   -0.8560    0.3380 C   0  0  0  0  0  0  0  0  0  0  0  0
   -4.3360   -0.6180   -0.6600 C   0  0  1  0  0  0  0  0  0  0  0  0
   -4.7870    0.3600   -1.7160 C   0  0  0  0  0  0  0  0  0  0  0  0
   -5.1400    1.6030   -1.2670 O   0  0  0  0  0  0  0  0  0  0  0  0
   -2.9910   -0.2790   -0.0680 C   0  0  1  0  0  0  0  0  0  0  0  0
   -3.0720    0.8970    0.7110 O   0  0  0  0  0  0  0  0  0  0  0  0
   -2.4550   -1.3320    0.8700 C   0  0  0  0  0  0  0  0  0  0  0  0
   -1.7350   -2.3460    0.0180 C   0  0  0  0  0  0  0  0  0  0  0  0
   -1.1860   -1.5170   -1.0920 C   0  0  0  0  0  0  0  0  0  0  0  0
   -1.8980   -0.1760   -1.0720 C   0  0  2  0  0  0  0  0  0  0  0  0
   -0.9440    0.9630   -0.8950 C   0  0  0  0  0  0  0  0  0  0  0  0
   -0.1690    1.0060    0.3720 C   0  0  0  0  0  0  0  0  0  0  0  0
    0.7670    2.2260    0.3650 C   0  0  0  0  0  0  0  0  0  0  0  0
    1.5690    2.3090    1.6380 C   0  0  0  0  0  0  0  0  0  0  0  0
    2.4430    1.0960    1.8600 C   0  0  0  0  0  0  0  0  0  0  0  0
    3.4290    0.9070    0.7350 C   0  0  0  0  0  0  0  0  0  0  0  0
    4.2910   -0.2780    0.9420 C   0  0  0  0  0  0  0  0  0  0  0  0
    4.1500   -0.9600    1.9320 O   0  0  0  0  0  0  0  0  0  0  0  0
    5.3250   -0.6370   -0.0510 C   0  0  2  0  0  0  0  0  0  0  0  0
    4.6270   -0.8910   -1.3720 C   0  0  0  0  0  0  0  0  0  0  0  0
    6.0390   -1.9100    0.3260 C   0  0  0  0  0  0  0  0  0  0  0  0
    6.3710    0.4400   -0.2080 C   0  0  0  0  0  0  0  0  0  0  0  0
  1  2  1  0
  3  2  1  1
  3  4  1  0
  3  6  1  0
  4  5  1  0
  6  7  1  1
  6  8  1  0
  6 11  1  0
  8  9  1  0
  9 10  1  0
 10 11  1  0
 11 12  1  1
 12 13  1  0
 13 14  1  0
 14 15  1  0
 15 16  1  0
 16 17  1  0
 17 18  1  0
 18 19  2  0
 18 20  1  0
 20 21  1  6
 20 22  1  0
 20 23  1  0
M  END
