
     RDKit          3D

 23 23  0  0  0  0  0  0  0  0999 V2000
   -3.1600   -4.1930    0.6960 C   0  0  0  0  0  0  0  0  0  0  0  0
   -2.8720   -3.7400   -0.6970 C   0  0  0  0  0  0  0  0  0  0  0  0
   -2.5820   -2.2220   -0.7760 C   0  0  0  0  0  0  0  0  0  0  0  0
   -1.4340   -1.8610    0.0370 C   0  0  0  0  0  0  0  0  0  0  0  0
   -0.8460   -0.5100    0.0560 C   0  0  0  0  0  0  0  0  0  0  0  0
    0.4320   -0.3810   -0.5460 C   0  0  0  0  0  0  0  0  0  0  0  0
    1.2050    0.7370   -0.4750 C   0  0  0  0  0  0  0  0  0  0  0  0
    2.4500    0.8610   -1.0650 O   0  0  0  0  0  0  0  0  0  0  0  0
    3.1160   -0.1040   -1.8160 C   0  0  0  0  0  0  0  0  0  0  0  0
    4.4410    0.4900   -2.2460 C   0  0  0  0  0  0  0  0  0  0  0  0
    5.2890    0.8750   -1.0530 C   0  0  0  0  0  0  0  0  0  0  0  0
    5.5950   -0.3310   -0.1850 C   0  0  0  0  0  0  0  0  0  0  0  0
    6.4420    0.1380    0.9780 C   0  0  0  0  0  0  0  0  0  0  0  0
    5.8150    1.0840    1.7490 O   0  0  0  0  0  0  0  0  0  0  0  0
    0.7020    1.7990    0.2310 C   0  0  0  0  0  0  0  0  0  0  0  0
   -0.5380    1.7470    0.8430 C   0  0  0  0  0  0  0  0  0  0  0  0
   -0.9090    2.9400    1.6550 C   0  0  0  0  0  0  0  0  0  0  0  0
   -1.3220    0.5880    0.7500 C   0  0  0  0  0  0  0  0  0  0  0  0
   -2.6800    0.6400    1.2770 C   0  0  0  0  0  0  0  0  0  0  0  0
   -3.7730    1.2630    0.5270 C   0  0  1  0  0  0  0  0  0  0  0  0
   -3.5750    2.7770    0.2540 C   0  0  0  0  0  0  0  0  0  0  0  0
   -4.2400    0.7090   -0.7660 C   0  0  0  0  0  0  0  0  0  0  0  0
   -4.9410    1.2740    1.3670 O   0  0  0  0  0  0  0  0  0  0  0  0
  1  2  1  0
  2  3  1  0
  3  4  1  0
  4  5  1  0
  5  6  2  0
  5 18  1  0
  6  7  1  0
  7  8  1  0
  7 15  2  0
  8  9  1  0
  9 10  1  0
 10 11  1  0
 11 12  1  0
 12 13  1  0
 13 14  1  0
 15 16  1  0
 16 17  1  0
 16 18  2  0
 18 19  1  0
 19 20  1  0
 20 21  1  6
 20 22  1  0
 20 23  1  0
M  END
