
     RDKit          3D

 23 22  0  0  0  0  0  0  0  0999 V2000
   -0.3940   -3.0610   -0.0410 C   0  0  0  0  0  0  0  0  0  0  0  0
   -0.4750   -2.2820    1.2600 C   0  0  0  0  0  0  0  0  0  0  0  0
   -0.5160   -0.8030    1.0250 C   0  0  1  0  0  0  0  0  0  0  0  0
   -0.5640   -0.2080    2.2970 O   0  0  0  0  0  0  0  0  0  0  0  0
    0.7360   -0.4390    0.2730 C   0  0  0  0  0  0  0  0  0  0  0  0
    0.9170    0.9770   -0.0720 C   0  0  1  0  0  0  0  0  0  0  0  0
    0.9700    1.9390    1.0690 C   0  0  0  0  0  0  0  0  0  0  0  0
    2.1460    1.1530   -0.9310 C   0  0  0  0  0  0  0  0  0  0  0  0
    3.4230    0.7040   -0.2730 C   0  0  0  0  0  0  0  0  0  0  0  0
    4.4650    0.9350   -1.1750 O   0  0  0  0  0  0  0  0  0  0  0  0
    5.6930    0.5460   -0.6440 C   0  0  2  0  0  0  0  0  0  0  0  0
    5.9140    1.3590    0.6090 C   0  0  0  0  0  0  0  0  0  0  0  0
    6.7810    0.8920   -1.6150 C   0  0  0  0  0  0  0  0  0  0  0  0
    5.7660   -0.9300   -0.3610 C   0  0  0  0  0  0  0  0  0  0  0  0
   -1.7390   -0.3830    0.2880 C   0  0  0  0  0  0  0  0  0  0  0  0
   -3.0650   -0.5900    0.8780 C   0  0  2  0  0  0  0  0  0  0  0  0
   -3.4710   -1.9780    1.2300 C   0  0  0  0  0  0  0  0  0  0  0  0
   -4.1340   -0.1300   -0.1610 C   0  0  1  0  0  0  0  0  0  0  0  0
   -4.0070   -0.9990   -1.4030 C   0  0  0  0  0  0  0  0  0  0  0  0
   -5.4990   -0.3340    0.4270 C   0  0  0  0  0  0  0  0  0  0  0  0
   -3.8180    1.2920   -0.5140 C   0  0  0  0  0  0  0  0  0  0  0  0
   -4.7110    1.9560   -1.5050 C   0  0  0  0  0  0  0  0  0  0  0  0
   -6.0250    2.0750   -1.1380 O   0  0  0  0  0  0  0  0  0  0  0  0
  1  2  1  0
  2  3  1  0
  3  4  1  1
  3  5  1  0
  3 15  1  0
  5  6  1  0
  6  7  1  1
  6  8  1  0
  8  9  1  0
  9 10  1  0
 10 11  1  0
 11 12  1  1
 11 13  1  0
 11 14  1  0
 15 16  1  0
 16 17  1  6
 16 18  1  0
 18 19  1  6
 18 20  1  0
 18 21  1  0
 21 22  1  0
 22 23  1  0
M  END
