
     RDKit          3D

 27 29  0  0  0  0  0  0  0  0999 V2000
   -4.5740   -1.2820    0.0210 C   0  0  0  0  0  0  0  0  0  0  0  0
   -3.8590   -0.1150    0.5630 C   0  0  0  0  0  0  0  0  0  0  0  0
   -4.4480    1.1160    0.5020 C   0  0  0  0  0  0  0  0  0  0  0  0
   -3.7830    2.2030    1.0070 C   0  0  0  0  0  0  0  0  0  0  0  0
   -2.5540    2.0560    1.5640 C   0  0  0  0  0  0  0  0  0  0  0  0
   -1.9750    0.7950    1.6160 C   0  0  0  0  0  0  0  0  0  0  0  0
   -2.5960   -0.3150    1.1260 C   0  0  0  0  0  0  0  0  0  0  0  0
   -1.9880   -1.9110    1.2170 S   0  0  2  0  0  0  0  0  0  0  0  0
   -2.2700   -2.5520   -0.1620 O   0  0  0  0  0  0  0  0  0  0  0  0
   -2.8300   -2.7660    2.1690 O   0  0  0  0  0  0  0  0  0  0  0  0
   -0.3560   -2.1480    1.5210 N   0  0  0  0  0  0  0  0  0  0  0  0
    0.6990   -1.7180    0.6270 C   0  0  0  0  0  0  0  0  0  0  0  0
    1.1700   -0.4960    0.4300 C   0  0  0  0  0  0  0  0  0  0  0  0
    2.1990   -0.2760   -0.4410 C   0  0  0  0  0  0  0  0  0  0  0  0
    2.9090    0.9420   -0.8330 C   0  0  0  0  0  0  0  0  0  0  0  0
    2.5950    2.1700   -0.3310 C   0  0  0  0  0  0  0  0  0  0  0  0
    3.3030    3.2930   -0.7230 C   0  0  0  0  0  0  0  0  0  0  0  0
    4.3440    3.2230   -1.6260 C   0  0  0  0  0  0  0  0  0  0  0  0
    5.0790    4.4060   -2.0170 C   0  0  0  0  0  0  0  0  0  0  0  0
    5.6770    5.3590   -2.3130 N   0  0  0  0  0  0  0  0  0  0  0  0
    4.6430    1.9630   -2.1230 C   0  0  0  0  0  0  0  0  0  0  0  0
    3.9320    0.8460   -1.7270 C   0  0  0  0  0  0  0  0  0  0  0  0
    2.5690   -1.9220   -1.0620 S   0  0  0  0  0  0  0  0  0  0  0  0
    1.3190   -2.7500   -0.1050 C   0  0  0  0  0  0  0  0  0  0  0  0
    1.0440   -4.1770   -0.1120 C   0  0  0  0  0  0  0  0  0  0  0  0
    1.7050   -4.9720   -0.8400 O   0  0  0  0  0  0  0  0  0  0  0  0
    0.0530   -4.6810    0.6790 O   0  0  0  0  0  0  0  0  0  0  0  0
  1  2  1  0
  2  3  2  0
  2  7  1  0
  3  4  1  0
  4  5  2  0
  5  6  1  0
  6  7  2  0
  7  8  1  0
  8  9  2  0
  8 10  2  0
  8 11  1  1
 11 12  1  0
 12 13  1  0
 12 24  2  0
 13 14  2  0
 14 15  1  0
 14 23  1  0
 15 16  2  0
 15 22  1  0
 16 17  1  0
 17 18  2  0
 18 19  1  0
 18 21  1  0
 19 20  3  0
 21 22  2  0
 23 24  1  0
 24 25  1  0
 25 26  2  0
 25 27  1  0
M  END
