
     RDKit          3D

 23 23  0  0  0  0  0  0  0  0999 V2000
   -2.6740   -1.1820   -1.6760 C   0  0  0  0  0  0  0  0  0  0  0  0
   -2.3660   -1.6930   -0.4700 C   0  0  0  0  0  0  0  0  0  0  0  0
   -2.2440   -3.1660   -0.4020 C   0  0  0  0  0  0  0  0  0  0  0  0
   -2.1310   -0.8220    0.6460 C   0  0  0  0  0  0  0  0  0  0  0  0
   -1.8820   -1.2430    1.8490 C   0  0  0  0  0  0  0  0  0  0  0  0
   -1.7710   -2.5770    2.4010 C   0  0  0  0  0  0  0  0  0  0  0  0
   -2.2210    0.6880    0.4110 C   0  0  0  0  0  0  0  0  0  0  0  0
   -1.1400    1.2580   -0.3980 C   0  0  1  0  0  0  0  0  0  0  0  0
   -1.3000    2.7090   -0.6390 C   0  0  2  0  0  0  0  0  0  0  0  0
   -0.2660    3.2640   -1.4370 O   0  0  0  0  0  0  0  0  0  0  0  0
   -1.7410    3.6240    0.4190 C   0  0  2  0  0  0  0  0  0  0  0  0
   -3.0790    3.5360    1.1060 C   0  0  0  0  0  0  0  0  0  0  0  0
   -2.8840    4.5950    0.0720 C   0  0  0  0  0  0  0  0  0  0  0  0
    0.2350    0.9230    0.2880 C   0  0  2  0  0  0  0  0  0  0  0  0
    0.2340    1.5130    1.6590 C   0  0  0  0  0  0  0  0  0  0  0  0
    1.3400    1.5750   -0.4950 C   0  0  0  0  0  0  0  0  0  0  0  0
    0.3580   -0.3810    0.1620 O   0  0  0  0  0  0  0  0  0  0  0  0
    1.2080   -1.2740    0.5340 C   0  0  0  0  0  0  0  0  0  0  0  0
    2.6290   -1.3630    0.1700 C   0  0  0  0  0  0  0  0  0  0  0  0
    2.9370   -1.4820   -1.3040 C   0  0  0  0  0  0  0  0  0  0  0  0
    4.4170   -1.5630   -1.5320 C   0  0  1  0  0  0  0  0  0  0  0  0
    5.0590   -2.7470   -0.8550 C   0  0  0  0  0  0  0  0  0  0  0  0
    4.6860   -1.6740   -2.8960 O   0  0  0  0  0  0  0  0  0  0  0  0
  1  2  2  0
  2  3  1  0
  2  4  1  0
  4  5  2  3
  4  7  1  0
  5  6  1  0
  8  7  1  1
  8  9  1  0
  8 14  1  0
  9 10  1  1
  9 11  1  0
 11 12  1  1
 11 13  1  0
 12 13  1  0
 14 15  1  1
 14 16  1  0
 14 17  1  0
 17 18  1  0
 18 19  1  0
 19 20  1  0
 20 21  1  0
 21 22  1  1
 21 23  1  0
M  END
