
     RDKit          3D

 23 22  0  0  0  0  0  0  0  0999 V2000
    4.1660    3.3370    1.1540 C   0  0  0  0  0  0  0  0  0  0  0  0
    4.8990    2.1200    1.6600 C   0  0  0  0  0  0  0  0  0  0  0  0
    4.4000    0.9180    0.8180 C   0  0  0  0  0  0  0  0  0  0  0  0
    2.9210    0.7860    1.0150 C   0  0  0  0  0  0  0  0  0  0  0  0
    2.2500   -0.3180    0.2810 C   0  0  2  0  0  0  0  0  0  0  0  0
    0.8510   -0.3530    0.5190 O   0  0  0  0  0  0  0  0  0  0  0  0
   -0.1220   -0.0250   -0.3900 C   0  0  0  0  0  0  0  0  0  0  0  0
    0.3770    0.3270   -1.5260 O   0  0  0  0  0  0  0  0  0  0  0  0
   -1.5710   -0.0260   -0.2140 C   0  0  2  0  0  0  0  0  0  0  0  0
   -2.1830   -1.2990    0.3040 C   0  0  0  0  0  0  0  0  0  0  0  0
   -1.7590   -1.7660    1.6510 C   0  0  0  0  0  0  0  0  0  0  0  0
   -0.4220   -2.0690    1.7700 O   0  0  0  0  0  0  0  0  0  0  0  0
   -2.3260    0.4050   -1.4480 C   0  0  1  0  0  0  0  0  0  0  0  0
   -2.0530   -0.5730   -2.5560 C   0  0  0  0  0  0  0  0  0  0  0  0
   -2.7880   -0.2040   -3.8330 C   0  0  0  0  0  0  0  0  0  0  0  0
   -3.7540    0.7020   -1.2660 C   0  0  0  0  0  0  0  0  0  0  0  0
   -4.2150    1.7700   -0.3680 C   0  0  1  0  0  0  0  0  0  0  0  0
   -5.7720    1.7510   -0.5150 C   0  0  0  0  0  0  0  0  0  0  0  0
   -3.9850    1.6590    1.0910 C   0  0  0  0  0  0  0  0  0  0  0  0
    2.8340   -1.6740    0.3580 C   0  0  2  0  0  0  0  0  0  0  0  0
    4.2160   -1.8680   -0.1640 C   0  0  0  0  0  0  0  0  0  0  0  0
    1.9130   -2.6260   -0.4090 C   0  0  0  0  0  0  0  0  0  0  0  0
    2.8500   -2.2280    1.7780 C   0  0  0  0  0  0  0  0  0  0  0  0
  1  2  1  0
  2  3  1  0
  3  4  1  0
  5  4  1  1
  5  6  1  0
  5 20  1  0
  6  7  1  0
  7  8  2  0
  7  9  1  0
  9 10  1  6
  9 13  1  0
 10 11  1  0
 11 12  1  0
 13 14  1  6
 13 16  1  0
 14 15  1  0
 16 17  1  0
 17 18  1  1
 17 19  1  0
 20 21  1  6
 20 22  1  0
 20 23  1  0
M  END
