
     RDKit          3D

 22 21  0  0  0  0  0  0  0  0999 V2000
   -2.5650    4.4140   -1.1850 C   0  0  0  0  0  0  0  0  0  0  0  0
   -1.1100    4.1180   -0.8050 C   0  0  0  0  0  0  0  0  0  0  0  0
   -1.0480    3.5130    0.5850 C   0  0  0  0  0  0  0  0  0  0  0  0
   -1.7860    2.2600    0.6990 C   0  0  0  0  0  0  0  0  0  0  0  0
   -2.9960    2.3080    1.0230 O   0  0  0  0  0  0  0  0  0  0  0  0
   -1.2160    0.9010    0.4590 C   0  0  0  0  0  0  0  0  0  0  0  0
    0.0360    0.9090    0.1150 C   0  0  0  0  0  0  0  0  0  0  0  0
    0.9380   -0.2490   -0.2020 C   0  0  1  0  0  0  0  0  0  0  0  0
    1.2740   -0.0300   -1.6640 C   0  0  0  0  0  0  0  0  0  0  0  0
    1.9200    1.2720   -1.9400 C   0  0  0  0  0  0  0  0  0  0  0  0
    2.2010    1.2910   -3.3330 O   0  0  0  0  0  0  0  0  0  0  0  0
    2.0650   -0.1920    0.7450 C   0  0  0  0  0  0  0  0  0  0  0  0
    3.1080   -1.2010    0.7850 C   0  0  1  0  0  0  0  0  0  0  0  0
    3.8840   -1.3660   -0.4770 C   0  0  0  0  0  0  0  0  0  0  0  0
    4.1700   -0.8100    1.8470 C   0  0  0  0  0  0  0  0  0  0  0  0
    2.6650   -2.5870    1.1990 C   0  0  0  0  0  0  0  0  0  0  0  0
   -2.1370   -0.1850    0.6430 C   0  0  0  0  0  0  0  0  0  0  0  0
   -3.3420    0.1850    1.0010 O   0  0  0  0  0  0  0  0  0  0  0  0
   -1.9890   -1.6190    0.5070 C   0  0  0  0  0  0  0  0  0  0  0  0
   -3.2830   -2.3780    0.8270 C   0  0  1  0  0  0  0  0  0  0  0  0
   -4.4070   -1.9950   -0.0610 C   0  0  0  0  0  0  0  0  0  0  0  0
   -2.9740   -3.8470    0.6320 C   0  0  0  0  0  0  0  0  0  0  0  0
  1  2  1  0
  2  3  1  0
  3  4  1  0
  4  5  2  0
  4  6  1  0
  6  7  2  3
  6 17  1  0
  7  8  1  0
  8  9  1  6
  8 12  1  0
  9 10  1  0
 10 11  1  0
 12 13  1  0
 13 14  1  6
 13 15  1  0
 13 16  1  0
 17 18  2  0
 17 19  1  0
 19 20  1  0
 20 21  1  6
 20 22  1  0
M  END
