
     RDKit          3D

 23 22  0  0  0  0  0  0  0  0999 V2000
   -1.0110    3.5950    1.0300 C   0  0  0  0  0  0  0  0  0  0  0  0
   -1.9440    2.9490    0.4100 C   0  0  0  0  0  0  0  0  0  0  0  0
   -3.0890    3.9470   -0.0350 C   0  0  0  0  0  0  0  0  0  0  0  0
   -2.1810    1.5630    0.0510 C   0  0  0  0  0  0  0  0  0  0  0  0
   -1.3880    0.4050    0.4300 C   0  0  2  0  0  0  0  0  0  0  0  0
   -1.3390    0.2140    1.9200 C   0  0  0  0  0  0  0  0  0  0  0  0
   -0.7920    1.2200    2.6720 O   0  0  0  0  0  0  0  0  0  0  0  0
    0.0340    0.5940   -0.0440 C   0  0  0  0  0  0  0  0  0  0  0  0
    1.0090   -0.4730    0.2600 C   0  0  0  0  0  0  0  0  0  0  0  0
    2.4050   -0.0620   -0.2770 C   0  0  0  0  0  0  0  0  0  0  0  0
    3.4010   -1.1610    0.0370 C   0  0  0  0  0  0  0  0  0  0  0  0
    4.7390   -0.7200   -0.5010 C   0  0  1  0  0  0  0  0  0  0  0  0
    5.7740   -1.7870   -0.2110 C   0  0  0  0  0  0  0  0  0  0  0  0
    4.6680   -0.5080   -1.9770 C   0  0  0  0  0  0  0  0  0  0  0  0
    5.1610    0.5470    0.2150 C   0  0  0  0  0  0  0  0  0  0  0  0
   -1.8920   -0.9090   -0.1720 C   0  0  2  0  0  0  0  0  0  0  0  0
   -1.9040   -0.9880   -1.6220 C   0  0  0  0  0  0  0  0  0  0  0  0
   -2.6260   -0.2600   -2.6500 C   0  0  0  0  0  0  0  0  0  0  0  0
   -1.1380   -1.8620   -2.1290 O   0  0  0  0  0  0  0  0  0  0  0  0
   -3.0560   -1.5830    0.3920 C   0  0  2  0  0  0  0  0  0  0  0  0
   -4.3820   -0.8980    0.4520 C   0  0  0  0  0  0  0  0  0  0  0  0
   -2.8780   -2.3810    1.6530 C   0  0  0  0  0  0  0  0  0  0  0  0
   -3.3320   -2.6320   -0.5870 O   0  0  0  0  0  0  0  0  0  0  0  0
  1  2  2  0
  2  3  1  0
  2  4  1  0
  5  4  1  1
  5  6  1  0
  5  8  1  0
  5 16  1  0
  6  7  1  0
  8  9  1  0
  9 10  1  0
 10 11  1  0
 11 12  1  0
 12 13  1  6
 12 14  1  0
 12 15  1  0
 16 17  1  6
 16 20  1  0
 17 18  1  0
 17 19  2  0
 20 21  1  1
 20 22  1  0
 20 23  1  0
M  END
