
     RDKit          3D

 23 23  0  0  0  0  0  0  0  0999 V2000
    7.6400   -1.3810    0.1940 C   0  0  0  0  0  0  0  0  0  0  0  0
    7.5750   -0.9630   -1.1030 O   0  0  0  0  0  0  0  0  0  0  0  0
    6.2980   -0.6420   -1.5330 C   0  0  0  0  0  0  0  0  0  0  0  0
    5.7670    0.4010   -0.6910 C   0  0  0  0  0  0  0  0  0  0  0  0
    4.6740    0.4050    0.0360 C   0  0  0  0  0  0  0  0  0  0  0  0
    4.3050    1.5530    0.8670 C   0  0  0  0  0  0  0  0  0  0  0  0
    3.6820   -0.5880   -0.3330 C   0  0  0  0  0  0  0  0  0  0  0  0
    2.5470   -0.9230    0.2020 C   0  0  0  0  0  0  0  0  0  0  0  0
    1.8020   -2.0400   -0.5720 C   0  0  0  0  0  0  0  0  0  0  0  0
    2.0330   -0.4570    1.4550 C   0  0  0  0  0  0  0  0  0  0  0  0
    0.8050    0.3300    1.6750 C   0  0  0  0  0  0  0  0  0  0  0  0
   -0.5100   -0.1390    1.1550 C   0  0  0  0  0  0  0  0  0  0  0  0
   -0.6750    0.1110   -0.2840 C   0  0  0  0  0  0  0  0  0  0  0  0
   -1.8290   -0.4310   -0.9940 C   0  0  2  0  0  0  0  0  0  0  0  0
   -1.7150   -0.0280   -2.3490 O   0  0  0  0  0  0  0  0  0  0  0  0
   -3.2030   -0.2760   -0.5680 C   0  0  2  0  0  0  0  0  0  0  0  0
   -3.7890    1.1190   -0.6970 C   0  0  0  0  0  0  0  0  0  0  0  0
   -5.2110    1.0280   -0.2060 C   0  0  1  0  0  0  0  0  0  0  0  0
   -5.4060    1.5830    1.1920 C   0  0  0  0  0  0  0  0  0  0  0  0
   -6.1620    1.7510   -1.1540 C   0  0  0  0  0  0  0  0  0  0  0  0
   -5.7260   -0.4040   -0.1360 C   0  0  0  0  0  0  0  0  0  0  0  0
   -4.8430   -1.1970    0.7600 C   0  0  0  0  0  0  0  0  0  0  0  0
   -3.5560   -0.6660    0.7160 O   0  0  0  0  0  0  0  0  0  0  0  0
  1  2  1  0
  2  3  1  0
  3  4  1  0
  4  5  2  3
  5  6  1  0
  5  7  1  0
  7  8  2  3
  8  9  1  0
  8 10  1  0
 10 11  1  0
 11 12  1  0
 12 13  1  0
 13 14  1  0
 14 15  1  6
 14 16  1  0
 16 17  1  1
 16 23  1  0
 17 18  1  0
 18 19  1  1
 18 20  1  0
 18 21  1  0
 21 22  1  0
 22 23  1  0
M  END
