
     RDKit          3D

 26 28  0  0  0  0  0  0  0  0999 V2000
    4.5690   -1.8680    1.9350 C   0  0  0  0  0  0  0  0  0  0  0  0
    3.6630   -0.7150    1.6690 C   0  0  0  0  0  0  0  0  0  0  0  0
    4.1410    0.4450    1.1160 C   0  0  0  0  0  0  0  0  0  0  0  0
    3.2980    1.5140    0.8690 C   0  0  0  0  0  0  0  0  0  0  0  0
    1.9480    1.4140    1.1860 C   0  0  0  0  0  0  0  0  0  0  0  0
    0.8800    2.7640    0.8820 S   0  0  1  0  0  0  0  0  0  0  0  0
   -0.2520    2.6730    1.8940 O   0  0  0  0  0  0  0  0  0  0  0  0
    1.6090    4.0540    1.1410 O   0  0  0  0  0  0  0  0  0  0  0  0
    0.2440    2.7250   -0.7200 N   0  0  0  0  0  0  0  0  0  0  0  0
   -0.5820    1.6280   -1.1910 C   0  0  0  0  0  0  0  0  0  0  0  0
   -1.3260    0.8460   -0.4010 C   0  0  0  0  0  0  0  0  0  0  0  0
   -2.0710   -0.1400   -0.9330 C   0  0  0  0  0  0  0  0  0  0  0  0
   -2.9540   -1.1130   -0.2800 C   0  0  0  0  0  0  0  0  0  0  0  0
   -3.0870   -1.0680    1.0740 C   0  0  0  0  0  0  0  0  0  0  0  0
   -3.9220   -1.9810    1.7300 C   0  0  0  0  0  0  0  0  0  0  0  0
   -4.6030   -2.9210    0.9780 C   0  0  0  0  0  0  0  0  0  0  0  0
   -5.4180   -3.8160    1.5870 F   0  0  0  0  0  0  0  0  0  0  0  0
   -4.4770   -2.9790   -0.4000 C   0  0  0  0  0  0  0  0  0  0  0  0
   -3.6420   -2.0570   -1.0000 C   0  0  0  0  0  0  0  0  0  0  0  0
   -1.7510   -0.0120   -2.6510 S   0  0  0  0  0  0  0  0  0  0  0  0
   -0.6300    1.3650   -2.5470 C   0  0  0  0  0  0  0  0  0  0  0  0
    0.0580    2.0200   -3.6800 C   0  0  0  0  0  0  0  0  0  0  0  0
    0.8330    2.9720   -3.5370 O   0  0  0  0  0  0  0  0  0  0  0  0
   -0.2010    1.5170   -4.9540 O   0  0  0  0  0  0  0  0  0  0  0  0
    1.4540    0.2620    1.7400 C   0  0  0  0  0  0  0  0  0  0  0  0
    2.3370   -0.7970    1.9740 C   0  0  0  0  0  0  0  0  0  0  0  0
  1  2  1  0
  2  3  2  0
  2 26  1  0
  3  4  1  0
  4  5  2  0
  5  6  1  0
  5 25  1  0
  6  7  2  0
  6  8  2  0
  6  9  1  6
  9 10  1  0
 10 11  1  0
 10 21  2  0
 11 12  2  0
 12 13  1  0
 12 20  1  0
 13 14  2  0
 13 19  1  0
 14 15  1  0
 15 16  2  0
 16 17  1  0
 16 18  1  0
 18 19  2  0
 20 21  1  0
 21 22  1  0
 22 23  2  0
 22 24  1  0
 25 26  2  0
M  END
