
     RDKit          3D

 16 17  0  0  0  0  0  0  0  0999 V2000
    5.0480    0.4390    0.1820 C   0  0  0  0  0  0  0  0  0  0  0  0
    3.8820    0.9910   -0.5990 C   0  0  0  0  0  0  0  0  0  0  0  0
    2.6710    0.0680   -0.5410 C   0  0  0  0  0  0  0  0  0  0  0  0
    2.2860   -0.0710    0.8910 C   0  0  0  0  0  0  0  0  0  0  0  0
    1.1550   -0.9050    1.1640 N   0  0  0  0  0  0  0  0  0  0  0  0
   -0.1900   -0.6460    0.8540 C   0  0  0  0  0  0  0  0  0  0  0  0
   -0.6460    0.5080    0.2730 C   0  0  0  0  0  0  0  0  0  0  0  0
   -1.9930    0.7120   -0.0300 C   0  0  0  0  0  0  0  0  0  0  0  0
   -2.8900   -0.2910    0.2720 C   0  0  0  0  0  0  0  0  0  0  0  0
   -2.4150   -1.4500    0.8590 C   0  0  0  0  0  0  0  0  0  0  0  0
   -3.3920   -2.5190    1.1780 C   0  0  0  0  0  0  0  0  0  0  0  0
   -1.1160   -1.5790    1.1210 N   0  0  0  0  0  0  0  0  0  0  0  0
   -4.1210    0.0400   -0.0680 C   0  0  0  0  0  0  0  0  0  0  0  0
   -4.0700    1.3930   -0.6580 C   0  0  0  0  0  0  0  0  0  0  0  0
   -2.6330    1.7290   -0.5800 C   0  0  0  0  0  0  0  0  0  0  0  0
   -1.8910    3.2070   -1.1160 Cl  0  0  0  0  0  0  0  0  0  0  0  0
  1  2  1  0
  2  3  1  0
  3  4  1  0
  4  5  1  0
  5  6  1  0
  6  7  2  0
  6 12  1  0
  7  8  1  0
  8  9  1  0
  8 15  2  0
  9 10  1  0
  9 13  2  0
 10 11  1  0
 10 12  2  0
 13 14  1  0
 14 15  1  0
 15 16  1  0
M  END
