
     RDKit          3D

 15 16  0  0  0  0  0  0  0  0999 V2000
   -3.4190    0.6900   -2.3740 C   0  0  0  0  0  0  0  0  0  0  0  0
   -2.6610    1.2260   -1.2060 N   0  0  0  0  0  0  0  0  0  0  0  0
   -2.8210    0.3050   -0.0720 C   0  0  0  0  0  0  0  0  0  0  0  0
   -1.4720    0.0370    0.4910 C   0  0  0  0  0  0  0  0  0  0  0  0
   -0.4190    0.4780   -0.2940 C   0  0  0  0  0  0  0  0  0  0  0  0
    0.9130    0.1280    0.0280 C   0  0  0  0  0  0  0  0  0  0  0  0
    1.1570   -0.6550    1.1320 C   0  0  0  0  0  0  0  0  0  0  0  0
    0.0780   -1.0570    1.8870 C   0  0  0  0  0  0  0  0  0  0  0  0
   -1.2490   -0.7260    1.5920 C   0  0  0  0  0  0  0  0  0  0  0  0
   -2.3530   -1.1840    2.4660 C   0  0  0  0  0  0  0  0  0  0  0  0
    2.4810   -1.0460    1.4530 N   0  0  0  0  0  0  0  0  0  0  0  0
    3.5630   -0.5940    0.5950 C   0  0  0  0  0  0  0  0  0  0  0  0
    3.3410    0.1540   -0.4520 C   0  0  0  0  0  0  0  0  0  0  0  0
    4.5120    0.5940   -1.2990 C   0  0  0  0  0  0  0  0  0  0  0  0
    1.9850    0.5850   -0.8550 C   0  0  0  0  0  0  0  0  0  0  0  0
  1  2  1  0
  2  3  1  0
  3  4  1  0
  4  5  2  0
  4  9  1  0
  5  6  1  0
  6  7  2  0
  6 15  1  0
  7  8  1  0
  7 11  1  0
  8  9  2  0
  9 10  1  0
 11 12  1  0
 12 13  2  0
 13 14  1  0
 13 15  1  0
M  END
