
     RDKit          3D

 16 17  0  0  0  0  0  0  0  0999 V2000
   -3.5980    1.5020    0.8850 C   0  0  0  0  0  0  0  0  0  0  0  0
   -3.6870    0.0260    0.5310 C   0  0  0  0  0  0  0  0  0  0  0  0
   -3.2920   -0.1960   -0.9220 C   0  0  0  0  0  0  0  0  0  0  0  0
   -1.9370    0.2430   -1.1300 N   0  0  0  0  0  0  0  0  0  0  0  0
   -0.8370   -0.4570   -0.5590 C   0  0  0  0  0  0  0  0  0  0  0  0
   -1.0100   -1.7150   -0.0390 C   0  0  0  0  0  0  0  0  0  0  0  0
    0.1110   -2.3380    0.5220 C   0  0  0  0  0  0  0  0  0  0  0  0
    1.3490   -1.7390    0.5640 C   0  0  0  0  0  0  0  0  0  0  0  0
    2.7320   -2.5460    1.2740 Cl  0  0  0  0  0  0  0  0  0  0  0  0
    1.5270   -0.4750    0.0430 C   0  0  0  0  0  0  0  0  0  0  0  0
    2.8390    0.1660    0.0850 C   0  0  0  0  0  0  0  0  0  0  0  0
    4.0490   -0.4420   -0.2390 C   0  0  0  0  0  0  0  0  0  0  0  0
    5.0270    0.5140   -0.0630 C   0  0  0  0  0  0  0  0  0  0  0  0
    4.4880    1.6650    0.3470 N   0  0  0  0  0  0  0  0  0  0  0  0
    3.1710    1.4580    0.4370 C   0  0  0  0  0  0  0  0  0  0  0  0
    0.4230    0.1340   -0.5070 C   0  0  0  0  0  0  0  0  0  0  0  0
  1  2  1  0
  2  3  1  0
  3  4  1  0
  4  5  1  0
  5  6  2  0
  5 16  1  0
  6  7  1  0
  7  8  2  0
  8  9  1  0
  8 10  1  0
 10 11  1  0
 10 16  2  0
 11 12  1  0
 11 15  2  0
 12 13  2  0
 13 14  1  0
 14 15  1  0
M  END
