
     RDKit          3D

 16 17  0  0  0  0  0  0  0  0999 V2000
    0.1300    1.2260    1.1660 C   0  0  0  0  0  0  0  0  0  0  0  0
   -0.2370    0.3890   -0.0520 C   0  0  1  0  0  0  0  0  0  0  0  0
    0.5320   -0.7970   -0.0360 N   0  0  0  0  0  0  0  0  0  0  0  0
    1.9700   -0.7140   -0.1520 C   0  0  0  0  0  0  0  0  0  0  0  0
    2.7510   -1.8370   -0.0400 C   0  0  0  0  0  0  0  0  0  0  0  0
    4.1130   -1.7020   -0.1660 C   0  0  0  0  0  0  0  0  0  0  0  0
    4.6770   -0.4760   -0.3980 C   0  0  0  0  0  0  0  0  0  0  0  0
    3.9200    0.6640   -0.5150 C   0  0  0  0  0  0  0  0  0  0  0  0
    4.6290    2.2280   -0.8100 Cl  0  0  0  0  0  0  0  0  0  0  0  0
    2.5320    0.5100   -0.3840 C   0  0  0  0  0  0  0  0  0  0  0  0
   -1.7060    0.2320   -0.0130 C   0  0  0  0  0  0  0  0  0  0  0  0
   -2.3210   -0.9060    0.0570 C   0  0  0  0  0  0  0  0  0  0  0  0
   -3.8050   -1.0660    0.0970 C   0  0  0  0  0  0  0  0  0  0  0  0
   -4.4720    0.1980    0.0470 N   0  0  0  0  0  0  0  0  0  0  0  0
   -3.8210    1.4430   -0.0290 C   0  0  0  0  0  0  0  0  0  0  0  0
   -2.5130    1.4700   -0.0580 C   0  0  0  0  0  0  0  0  0  0  0  0
  2  1  1  1
  2  3  1  0
  2 11  1  0
  3  4  1  0
  4  5  2  0
  4 10  1  0
  5  6  1  0
  6  7  2  0
  7  8  1  0
  8  9  1  0
  8 10  2  0
 11 12  2  0
 11 16  1  0
 12 13  1  0
 13 14  1  0
 14 15  1  0
 15 16  2  0
M  END
