
     RDKit          3D

 16 17  0  0  0  0  0  0  0  0999 V2000
   -3.8950   -1.5780   -0.7560 C   0  0  0  0  0  0  0  0  0  0  0  0
   -3.2520   -0.9440    0.4450 C   0  0  0  0  0  0  0  0  0  0  0  0
   -2.2380    0.0630    0.1210 C   0  0  0  0  0  0  0  0  0  0  0  0
   -2.4650    1.3420   -0.3170 C   0  0  0  0  0  0  0  0  0  0  0  0
   -3.7650    2.0300   -0.5730 C   0  0  0  0  0  0  0  0  0  0  0  0
   -1.2700    1.9290   -0.4960 N   0  0  0  0  0  0  0  0  0  0  0  0
   -0.2530    1.0940   -0.1950 C   0  0  0  0  0  0  0  0  0  0  0  0
    1.1240    1.1900   -0.2040 C   0  0  0  0  0  0  0  0  0  0  0  0
    1.9400    0.1470    0.1650 C   0  0  0  0  0  0  0  0  0  0  0  0
    3.3770    0.2830    0.1440 N   0  0  0  0  0  0  0  0  0  0  0  0
    4.2000   -0.8160    0.5280 C   0  0  0  0  0  0  0  0  0  0  0  0
    5.6510   -0.4040    0.4190 C   0  0  0  0  0  0  0  0  0  0  0  0
    5.9920    0.0580   -1.2750 Cl  0  0  0  0  0  0  0  0  0  0  0  0
    1.3390   -1.0280    0.5530 C   0  0  0  0  0  0  0  0  0  0  0  0
   -0.0350   -1.1320    0.5640 C   0  0  0  0  0  0  0  0  0  0  0  0
   -0.8780   -0.0930    0.1970 C   0  0  0  0  0  0  0  0  0  0  0  0
  1  2  1  0
  2  3  1  0
  3  4  2  0
  3 16  1  0
  4  5  1  0
  4  6  1  0
  6  7  1  0
  7  8  2  0
  7 16  1  0
  8  9  1  0
  9 10  1  0
  9 14  2  0
 10 11  1  0
 11 12  1  0
 12 13  1  0
 14 15  1  0
 15 16  2  0
M  END
