
     RDKit          3D

 43 45  0  0  0  0  0  0  0  0999 V2000
   -6.2900    1.0910    1.8210 C   0  0  0  0  0  0  0  0  0  0  0  0
   -5.5410    1.9990    0.9040 C   0  0  1  0  0  0  0  0  0  0  0  0
   -6.4410    2.5160   -0.1820 C   0  0  0  0  0  0  0  0  0  0  0  0
   -5.0370    3.1650    1.7440 C   0  0  0  0  0  0  0  0  0  0  0  0
   -4.3690    1.4010    0.3620 O   0  0  0  0  0  0  0  0  0  0  0  0
   -4.3770    0.2640   -0.3870 C   0  0  0  0  0  0  0  0  0  0  0  0
   -5.4870   -0.2780   -0.6000 O   0  0  0  0  0  0  0  0  0  0  0  0
   -3.1230   -0.2980   -0.9210 N   0  0  0  0  0  0  0  0  0  0  0  0
   -3.2000   -1.4720   -1.6980 C   0  0  0  0  0  0  0  0  0  0  0  0
   -4.0160   -1.3790   -2.7200 O   0  0  0  0  0  0  0  0  0  0  0  0
   -2.5790   -2.7350   -1.6050 N   0  0  0  0  0  0  0  0  0  0  0  0
   -1.3230   -3.1020   -1.0580 C   0  0  0  0  0  0  0  0  0  0  0  0
   -1.4410   -3.7880    0.0560 O   0  0  0  0  0  0  0  0  0  0  0  0
   -0.0280   -2.8540   -1.5070 N   0  0  0  0  0  0  0  0  0  0  0  0
    0.7920   -3.5390   -2.4830 C   0  0  0  0  0  0  0  0  0  0  0  0
    1.8260   -4.3460   -1.7460 C   0  0  0  0  0  0  0  0  0  0  0  0
    2.8540   -3.5850   -1.1700 O   0  0  0  0  0  0  0  0  0  0  0  0
    3.2610   -4.1610    0.0340 C   0  0  0  0  0  0  0  0  0  0  0  0
    4.4390   -3.5200    0.6700 C   0  0  0  0  0  0  0  0  0  0  0  0
    5.2630   -4.5130    1.3100 O   0  0  0  0  0  0  0  0  0  0  0  0
    4.7940   -2.3690    0.7360 N   0  0  0  0  0  0  0  0  0  0  0  0
    4.7450   -1.0320    0.5300 C   0  0  0  0  0  0  0  0  0  0  0  0
    5.2760   -0.4970   -0.5230 O   0  0  0  0  0  0  0  0  0  0  0  0
    4.1490   -0.1430    1.3930 O   0  0  0  0  0  0  0  0  0  0  0  0
    2.7750    0.0180    1.7130 C   0  0  2  0  0  0  0  0  0  0  0  0
    1.9790   -1.1550    1.2060 C   0  0  0  0  0  0  0  0  0  0  0  0
    0.5420   -0.9520    1.6100 C   0  0  0  0  0  0  0  0  0  0  0  0
   -0.0820    0.2370    1.1150 N   0  0  0  0  0  0  0  0  0  0  0  0
   -1.4600    0.3120    0.8300 C   0  0  0  0  0  0  0  0  0  0  0  0
   -2.4850    0.2630    1.6120 O   0  0  0  0  0  0  0  0  0  0  0  0
   -1.9760    0.4850   -0.5680 C   0  0  1  0  0  0  0  0  0  0  0  0
   -0.9880    0.5440   -1.6380 C   0  0  0  0  0  0  0  0  0  0  0  0
    0.2860    0.9290   -1.3260 O   0  0  0  0  0  0  0  0  0  0  0  0
    0.3740    2.0200   -0.4810 C   0  0  0  0  0  0  0  0  0  0  0  0
    0.7940    1.4040    0.8800 C   0  0  2  0  0  0  0  0  0  0  0  0
    2.2300    1.1330    0.8040 C   0  0  1  0  0  0  0  0  0  0  0  0
    3.0540    2.2690    0.9530 N   0  0  0  0  0  0  0  0  0  0  0  0
    3.8470    2.8760   -0.1390 C   0  0  0  0  0  0  0  0  0  0  0  0
    3.7580    2.3830   -1.2190 O   0  0  0  0  0  0  0  0  0  0  0  0
    4.5810    3.9900    0.4300 N   0  0  0  0  0  0  0  0  0  0  0  0
    5.3010    4.4940   -1.0620 C   0  0  0  0  0  0  0  0  0  0  0  0
    5.0260    3.8600   -1.9800 O   0  0  0  0  0  0  0  0  0  0  0  0
    6.0870    5.5770   -0.9220 O   0  0  0  0  0  0  0  0  0  0  0  0
  2  1  1  1
  2  3  1  0
  2  4  1  0
  2  5  1  0
  5  6  1  0
  6  7  2  0
  6  8  1  0
  8  9  1  0
  8 31  1  0
  9 10  2  0
  9 11  1  0
 11 12  1  0
 12 13  2  0
 12 14  1  0
 14 15  1  0
 15 16  1  0
 16 17  1  0
 17 18  1  0
 18 19  1  0
 19 20  1  0
 19 21  2  0
 21 22  1  0
 22 23  2  0
 22 24  1  0
 25 24  1  6
 25 26  1  0
 25 36  1  0
 26 27  1  0
 27 28  1  0
 28 29  1  0
 28 35  1  0
 29 30  2  0
 29 31  1  0
 31 32  1  6
 32 33  1  0
 33 34  1  0
 35 34  1  6
 35 36  1  0
 36 37  1  1
 37 38  1  0
 38 39  2  0
 38 40  1  0
 40 41  1  0
 41 42  2  0
 41 43  1  0
M  END
