
     RDKit          3D

 44 48  0  0  0  0  0  0  0  0999 V2000
   -9.4210    3.4250    0.0220 N   0  0  0  0  0  0  0  0  0  0  0  0
   -8.3360    2.5760   -0.2800 C   0  0  0  0  0  0  0  0  0  0  0  0
   -7.3140    3.0160   -0.8540 O   0  0  0  0  0  0  0  0  0  0  0  0
   -8.4340    1.1600    0.0960 C   0  0  0  0  0  0  0  0  0  0  0  0
   -7.4360    0.3280   -0.1700 C   0  0  0  0  0  0  0  0  0  0  0  0
   -7.4470   -1.0460    0.1560 N   0  0  0  0  0  0  0  0  0  0  0  0
   -6.3420   -1.9400   -0.1450 C   0  0  2  0  0  0  0  0  0  0  0  0
   -5.1840   -1.5260    0.4990 O   0  0  0  0  0  0  0  0  0  0  0  0
   -4.1200   -1.8540   -0.3340 C   0  0  2  0  0  0  0  0  0  0  0  0
   -2.8710   -1.1050    0.0190 C   0  0  0  0  0  0  0  0  0  0  0  0
   -1.8600   -1.4700   -0.8350 O   0  0  0  0  0  0  0  0  0  0  0  0
   -0.4080   -0.6720   -0.5100 P   0  0  2  0  0  0  0  0  0  0  0  0
   -0.7130    0.8240   -0.5950 O   0  0  0  0  0  0  0  0  0  0  0  0
    0.7760   -1.0310   -1.6370 O   0  0  0  0  0  0  0  0  0  0  0  0
    0.1750   -0.9720    1.0260 O   0  0  0  0  0  0  0  0  0  0  0  0
    1.8310   -1.1850    1.0300 P   0  0  1  0  0  0  0  0  0  0  0  0
    2.1680   -2.2120    2.1150 O   0  0  0  0  0  0  0  0  0  0  0  0
    2.4450   -1.7740   -0.4100 O   0  0  0  0  0  0  0  0  0  0  0  0
    2.6570    0.2380    1.4240 O   0  0  0  0  0  0  0  0  0  0  0  0
    4.0360    0.0610    1.3650 C   0  0  0  0  0  0  0  0  0  0  0  0
    4.6790    1.3790    1.7310 C   0  0  1  0  0  0  0  0  0  0  0  0
    6.0470    1.3600    1.7160 O   0  0  0  0  0  0  0  0  0  0  0  0
    6.5350    1.9920    0.6110 C   0  0  1  0  0  0  0  0  0  0  0  0
    7.5340    1.2580   -0.1010 N   0  0  0  0  0  0  0  0  0  0  0  0
    7.9080    1.3500   -1.3860 C   0  0  0  0  0  0  0  0  0  0  0  0
    8.8900    0.4770   -1.6630 N   0  0  0  0  0  0  0  0  0  0  0  0
    9.1660   -0.1990   -0.5410 C   0  0  0  0  0  0  0  0  0  0  0  0
   10.0620   -1.1940   -0.2440 C   0  0  0  0  0  0  0  0  0  0  0  0
   10.9500   -1.7230   -1.2150 N   0  0  0  0  0  0  0  0  0  0  0  0
   10.0970   -1.6760    1.0000 N   0  0  0  0  0  0  0  0  0  0  0  0
    9.2790   -1.2110    1.9570 C   0  0  0  0  0  0  0  0  0  0  0  0
    8.3990   -0.2360    1.6690 N   0  0  0  0  0  0  0  0  0  0  0  0
    8.3040    0.3010    0.4400 C   0  0  0  0  0  0  0  0  0  0  0  0
    5.3720    2.4270   -0.2410 C   0  0  2  0  0  0  0  0  0  0  0  0
    5.5060    3.6930   -0.7660 O   0  0  0  0  0  0  0  0  0  0  0  0
    4.2630    2.4910    0.8160 C   0  0  2  0  0  0  0  0  0  0  0  0
    4.2910    3.6840    1.5050 O   0  0  0  0  0  0  0  0  0  0  0  0
   -4.6700   -1.4060   -1.6880 C   0  0  1  0  0  0  0  0  0  0  0  0
   -3.9190   -1.9280   -2.7380 O   0  0  0  0  0  0  0  0  0  0  0  0
   -6.0570   -2.0100   -1.6170 C   0  0  1  0  0  0  0  0  0  0  0  0
   -5.9470   -3.3390   -2.0210 O   0  0  0  0  0  0  0  0  0  0  0  0
   -8.6100   -1.5360    0.8070 C   0  0  0  0  0  0  0  0  0  0  0  0
   -9.6360   -0.7660    1.1000 C   0  0  0  0  0  0  0  0  0  0  0  0
   -9.6470    0.6540    0.7740 C   0  0  0  0  0  0  0  0  0  0  0  0
  1  2  1  0
  2  3  2  0
  2  4  1  0
  4  5  2  0
  4 44  1  0
  5  6  1  0
  7  6  1  6
  6 42  1  0
  7  8  1  0
  7 40  1  0
  8  9  1  0
  9 10  1  1
  9 38  1  0
 10 11  1  0
 11 12  1  0
 12 13  2  0
 12 14  1  6
 12 15  1  0
 15 16  1  0
 16 17  2  0
 16 18  1  6
 16 19  1  0
 19 20  1  0
 21 20  1  6
 21 22  1  0
 21 36  1  0
 22 23  1  0
 23 24  1  6
 23 34  1  0
 24 25  1  0
 24 33  1  0
 25 26  2  0
 26 27  1  0
 27 28  2  0
 27 33  1  0
 28 29  1  0
 28 30  1  0
 30 31  2  0
 31 32  1  0
 32 33  2  0
 34 35  1  1
 34 36  1  0
 36 37  1  1
 38 39  1  6
 38 40  1  0
 40 41  1  1
 42 43  2  0
 43 44  1  0
M  END
