
     RDKit          3D

 44 46  0  0  0  0  0  0  0  0999 V2000
    6.7320   -3.3180    1.2760 C   0  0  0  0  0  0  0  0  0  0  0  0
    5.5990   -2.6930    0.7460 O   0  0  0  0  0  0  0  0  0  0  0  0
    5.6130   -1.3030    0.5310 C   0  0  0  0  0  0  0  0  0  0  0  0
    6.7350   -0.7780    0.8730 O   0  0  0  0  0  0  0  0  0  0  0  0
    4.5660   -0.5650    0.0170 N   0  0  0  0  0  0  0  0  0  0  0  0
    4.8840    0.9200    0.0050 C   0  0  0  0  0  0  0  0  0  0  0  0
    4.2760    1.5680   -1.1640 C   0  0  0  0  0  0  0  0  0  0  0  0
    3.2920    2.5830   -0.9180 N   0  0  0  0  0  0  0  0  0  0  0  0
    3.1990    3.5750    0.0740 C   0  0  0  0  0  0  0  0  0  0  0  0
    3.5430    4.8100   -0.2810 O   0  0  0  0  0  0  0  0  0  0  0  0
    2.7840    3.5000    1.4570 C   0  0  0  0  0  0  0  0  0  0  0  0
    1.5970    3.4520    2.0230 C   0  0  0  0  0  0  0  0  0  0  0  0
    0.2670    3.4600    1.3840 C   0  0  0  0  0  0  0  0  0  0  0  0
   -0.5590    4.4690    0.9400 N   0  0  0  0  0  0  0  0  0  0  0  0
   -1.6160    3.9040    0.4820 O   0  0  0  0  0  0  0  0  0  0  0  0
   -1.5730    2.5920    0.5810 C   0  0  0  0  0  0  0  0  0  0  0  0
   -0.4120    2.3390    1.1360 N   0  0  0  0  0  0  0  0  0  0  0  0
   -2.5750    1.5820    0.1750 C   0  0  0  0  0  0  0  0  0  0  0  0
   -3.2540    1.8630   -0.9300 C   0  0  0  0  0  0  0  0  0  0  0  0
   -4.2970    1.0340   -1.5490 C   0  0  0  0  0  0  0  0  0  0  0  0
   -5.4740    1.8250   -1.5550 O   0  0  0  0  0  0  0  0  0  0  0  0
   -6.4530    1.1180   -2.1080 O   0  0  0  0  0  0  0  0  0  0  0  0
   -2.8860    0.3460    0.9610 C   0  0  1  0  0  0  0  0  0  0  0  0
   -2.3300    0.5920    2.3540 C   0  0  0  0  0  0  0  0  0  0  0  0
   -2.7600   -0.2740    3.3210 O   0  0  0  0  0  0  0  0  0  0  0  0
   -4.3200    0.4390    1.0130 O   0  0  0  0  0  0  0  0  0  0  0  0
   -5.1580   -0.4250    1.5860 C   0  0  0  0  0  0  0  0  0  0  0  0
   -4.6910   -1.4250    2.1360 O   0  0  0  0  0  0  0  0  0  0  0  0
   -6.5630   -0.2540    1.5970 O   0  0  0  0  0  0  0  0  0  0  0  0
   -2.4050   -0.9200    0.3870 C   0  0  0  0  0  0  0  0  0  0  0  0
   -2.3030   -1.8510    1.3170 O   0  0  0  0  0  0  0  0  0  0  0  0
   -2.0420   -1.3070   -0.9470 N   0  0  0  0  0  0  0  0  0  0  0  0
   -2.8110   -2.3690   -1.6090 C   0  0  0  0  0  0  0  0  0  0  0  0
   -2.2390   -3.7440   -1.3430 C   0  0  0  0  0  0  0  0  0  0  0  0
   -0.9120   -3.8090   -1.8180 O   0  0  0  0  0  0  0  0  0  0  0  0
   -0.3950   -4.9850   -1.6010 O   0  0  0  0  0  0  0  0  0  0  0  0
   -0.9330   -0.7010   -1.6820 C   0  0  0  0  0  0  0  0  0  0  0  0
   -1.4650   -0.0500   -2.7040 O   0  0  0  0  0  0  0  0  0  0  0  0
    0.5130   -0.8360   -1.2850 C   0  0  0  0  0  0  0  0  0  0  0  0
    0.9460   -0.3210   -0.0540 C   0  0  0  0  0  0  0  0  0  0  0  0
    2.2410   -0.3230    0.2730 N   0  0  0  0  0  0  0  0  0  0  0  0
    3.2680   -0.7920   -0.4780 C   0  0  0  0  0  0  0  0  0  0  0  0
    2.8110   -1.2750   -1.6140 N   0  0  0  0  0  0  0  0  0  0  0  0
    1.5450   -1.3340   -2.0640 C   0  0  0  0  0  0  0  0  0  0  0  0
  1  2  1  0
  2  3  1  0
  3  4  2  0
  3  5  1  0
  5  6  1  0
  5 42  1  0
  6  7  1  0
  7  8  1  0
  8  9  1  0
  9 10  2  0
  9 11  1  0
 11 12  2  0
 12 13  1  0
 13 14  2  0
 13 17  1  0
 14 15  1  0
 15 16  1  0
 16 17  2  0
 16 18  1  0
 18 19  2  3
 18 23  1  0
 19 20  1  0
 20 21  1  0
 21 22  1  0
 23 24  1  1
 23 26  1  0
 23 30  1  0
 24 25  1  0
 26 27  1  0
 27 28  2  0
 27 29  1  0
 30 31  2  0
 30 32  1  0
 32 33  1  0
 32 37  1  0
 33 34  1  0
 34 35  1  0
 35 36  1  0
 37 38  2  0
 37 39  1  0
 39 40  2  0
 39 44  1  0
 40 41  1  0
 41 42  2  0
 42 43  1  0
 43 44  2  0
M  END
