
     RDKit          3D

 43 46  0  0  0  0  0  0  0  0999 V2000
   -2.4400   -0.8730   -4.5490 C   0  0  0  0  0  0  0  0  0  0  0  0
   -1.5570   -1.1990   -3.4890 O   0  0  0  0  0  0  0  0  0  0  0  0
   -1.6980   -0.7530   -2.2130 N   0  0  0  0  0  0  0  0  0  0  0  0
   -0.7360   -0.6680   -1.3930 C   0  0  0  0  0  0  0  0  0  0  0  0
   -0.7190   -0.2190   -0.0160 C   0  0  0  0  0  0  0  0  0  0  0  0
   -1.6400    0.2280    0.8350 C   0  0  0  0  0  0  0  0  0  0  0  0
   -3.0190    0.3620    0.4160 C   0  0  0  0  0  0  0  0  0  0  0  0
   -4.0050    0.8030    1.1940 C   0  0  0  0  0  0  0  0  0  0  0  0
   -3.8490    1.2120    2.5590 C   0  0  0  0  0  0  0  0  0  0  0  0
   -4.9140    1.6320    3.2300 C   0  0  0  0  0  0  0  0  0  0  0  0
   -4.7690    2.0400    4.5840 N   0  0  0  0  0  0  0  0  0  0  0  0
   -3.4470    0.0350   -0.8660 O   0  0  0  0  0  0  0  0  0  0  0  0
   -4.5680    0.6070   -1.4500 C   0  0  0  0  0  0  0  0  0  0  0  0
   -4.5010    2.1170   -1.5800 C   0  0  0  0  0  0  0  0  0  0  0  0
   -5.6350    2.6360   -2.1600 O   0  0  0  0  0  0  0  0  0  0  0  0
   -5.5920    3.9290   -2.2730 O   0  0  0  0  0  0  0  0  0  0  0  0
   -1.2030    0.5410    2.1400 O   0  0  0  0  0  0  0  0  0  0  0  0
   -0.4200   -0.4050    2.9040 C   0  0  0  0  0  0  0  0  0  0  0  0
   -1.0390   -1.7420    2.9280 C   0  0  0  0  0  0  0  0  0  0  0  0
   -2.2670   -1.6850    3.3610 O   0  0  0  0  0  0  0  0  0  0  0  0
   -0.4780   -2.9860    2.5600 N   0  0  0  0  0  0  0  0  0  0  0  0
    0.2190   -3.3250    1.3810 C   0  0  0  0  0  0  0  0  0  0  0  0
    0.0600   -4.3920    0.5090 N   0  0  0  0  0  0  0  0  0  0  0  0
    0.9250   -4.2920   -0.4480 N   0  0  0  0  0  0  0  0  0  0  0  0
    1.6470   -3.1930   -0.2310 C   0  0  0  0  0  0  0  0  0  0  0  0
    1.1940   -2.6590    0.8610 O   0  0  0  0  0  0  0  0  0  0  0  0
    2.7820   -2.5590   -0.9950 C   0  0  1  0  0  0  0  0  0  0  0  0
    2.4740   -2.5320   -2.4910 C   0  0  0  0  0  0  0  0  0  0  0  0
    1.3480   -1.5660   -2.7430 C   0  0  0  0  0  0  0  0  0  0  0  0
    1.0210   -1.2220   -3.9000 O   0  0  0  0  0  0  0  0  0  0  0  0
    0.6130   -1.0100   -1.6730 N   0  0  0  0  0  0  0  0  0  0  0  0
    1.3510   -0.7480   -0.4790 C   0  0  0  0  0  0  0  0  0  0  0  0
    0.6550   -0.3150    0.4410 N   0  0  0  0  0  0  0  0  0  0  0  0
    2.7840   -1.0680   -0.5670 C   0  0  1  0  0  0  0  0  0  0  0  0
    3.5420   -0.8980    0.5800 O   0  0  0  0  0  0  0  0  0  0  0  0
    4.6960   -0.1190    0.4970 C   0  0  0  0  0  0  0  0  0  0  0  0
    4.9670    0.3750   -0.6190 O   0  0  0  0  0  0  0  0  0  0  0  0
    5.5380    0.1400    1.5260 O   0  0  0  0  0  0  0  0  0  0  0  0
    6.6990    0.9010    1.5620 C   0  0  0  0  0  0  0  0  0  0  0  0
    6.5970    2.3590    1.3390 C   0  0  0  0  0  0  0  0  0  0  0  0
    6.0420    2.8300    0.0730 C   0  0  0  0  0  0  0  0  0  0  0  0
    4.8400    3.2730    0.0710 O   0  0  0  0  0  0  0  0  0  0  0  0
    6.7630    2.8130   -1.1040 O   0  0  0  0  0  0  0  0  0  0  0  0
  1  2  1  0
  2  3  1  0
  3  4  2  3
  4  5  1  0
  4 31  1  0
  5  6  2  0
  5 33  1  0
  6  7  1  0
  6 17  1  0
  7  8  2  3
  7 12  1  0
  8  9  1  0
  9 10  2  3
 10 11  1  0
 12 13  1  0
 13 14  1  0
 14 15  1  0
 15 16  1  0
 17 18  1  0
 18 19  1  0
 19 20  2  0
 19 21  1  0
 21 22  1  0
 22 23  2  0
 22 26  1  0
 23 24  1  0
 24 25  2  0
 25 26  1  0
 25 27  1  0
 27 28  1  6
 27 34  1  0
 28 29  1  0
 29 30  2  0
 29 31  1  0
 31 32  1  0
 32 33  2  0
 32 34  1  0
 34 35  1  1
 35 36  1  0
 36 37  2  0
 36 38  1  0
 38 39  1  0
 39 40  1  0
 40 41  1  0
 41 42  2  0
 41 43  1  0
M  END
