
     RDKit          3D

 27 28  0  0  0  0  0  0  0  0999 V2000
   -5.7380   -0.2010    2.2220 C   0  0  0  0  0  0  0  0  0  0  0  0
   -4.7270   -1.0210    1.6100 N   0  0  0  0  0  0  0  0  0  0  0  0
   -4.3940   -2.2880    2.2050 C   0  0  0  0  0  0  0  0  0  0  0  0
   -4.0700   -0.5900    0.4460 C   0  0  0  0  0  0  0  0  0  0  0  0
   -4.2320   -1.2990   -0.7490 C   0  0  0  0  0  0  0  0  0  0  0  0
   -3.6050   -0.8790   -1.8940 C   0  0  0  0  0  0  0  0  0  0  0  0
   -2.7990    0.2320   -1.9440 C   0  0  0  0  0  0  0  0  0  0  0  0
   -2.6320    0.9350   -0.7790 C   0  0  0  0  0  0  0  0  0  0  0  0
   -1.8250    2.0530   -0.8020 C   0  0  0  0  0  0  0  0  0  0  0  0
   -1.0100    2.6120   -2.2410 S   0  0  1  0  0  0  0  0  0  0  0  0
   -1.9810    3.0910   -3.2810 O   0  0  0  0  0  0  0  0  0  0  0  0
   -0.1920    3.8450   -1.8730 O   0  0  0  0  0  0  0  0  0  0  0  0
    0.0400    1.4180   -2.7990 N   0  0  0  0  0  0  0  0  0  0  0  0
    1.0930    1.0190   -1.9380 C   0  0  0  0  0  0  0  0  0  0  0  0
    1.8890   -0.0460   -2.6450 C   0  0  0  0  0  0  0  0  0  0  0  0
    3.0390   -0.5090   -1.8140 C   0  0  0  0  0  0  0  0  0  0  0  0
    2.5600   -1.0910   -0.5280 C   0  0  0  0  0  0  0  0  0  0  0  0
    3.6460   -1.5740    0.2890 N   0  0  0  0  0  0  0  0  0  0  0  0
    4.6390   -0.6810    0.7350 C   0  0  0  0  0  0  0  0  0  0  0  0
    4.6340    0.5410    0.4620 O   0  0  0  0  0  0  0  0  0  0  0  0
    5.7350   -1.2560    1.5740 C   0  0  0  0  0  0  0  0  0  0  0  0
    6.6730   -0.1490    1.9390 C   0  0  0  0  0  0  0  0  0  0  0  0
    8.0410   -0.7720    2.9620 S   0  0  0  0  0  0  0  0  0  0  0  0
   -1.6740    2.7380    0.3830 C   0  0  0  0  0  0  0  0  0  0  0  0
   -2.2860    2.3490    1.5530 C   0  0  0  0  0  0  0  0  0  0  0  0
   -3.0930    1.2270    1.5690 C   0  0  0  0  0  0  0  0  0  0  0  0
   -3.2600    0.5260    0.3960 C   0  0  0  0  0  0  0  0  0  0  0  0
  1  2  1  0
  2  3  1  0
  2  4  1  0
  4  5  2  0
  4 27  1  0
  5  6  1  0
  6  7  2  0
  7  8  1  0
  8  9  2  0
  8 27  1  0
  9 10  1  0
  9 24  1  0
 10 11  2  0
 10 12  2  0
 10 13  1  6
 13 14  1  0
 14 15  1  0
 15 16  1  0
 16 17  1  0
 17 18  1  0
 18 19  1  0
 19 20  2  0
 19 21  1  0
 21 22  1  0
 22 23  1  0
 24 25  2  0
 25 26  1  0
 26 27  2  0
M  END
