
     RDKit          3D

 17 18  0  0  0  0  0  0  0  0999 V2000
   -0.6780   -0.5910    2.3320 N   0  0  0  0  0  0  0  0  0  0  0  0
    0.1430    0.0880    1.3940 C   0  0  0  0  0  0  0  0  0  0  0  0
   -0.3630    0.6070    0.3010 N   0  0  0  0  0  0  0  0  0  0  0  0
   -1.7610    0.4670    0.0850 C   0  0  0  0  0  0  0  0  0  0  0  0
   -2.3260   -0.7320   -0.0650 C   0  0  0  0  0  0  0  0  0  0  0  0
   -3.7520   -0.9540   -0.2900 C   0  0  0  0  0  0  0  0  0  0  0  0
   -4.5340    0.2380   -0.3420 N   0  0  0  0  0  0  0  0  0  0  0  0
   -3.9360    1.5050   -0.1830 C   0  0  0  0  0  0  0  0  0  0  0  0
   -2.6480    1.6220    0.0160 C   0  0  0  0  0  0  0  0  0  0  0  0
    1.5220    0.2370    1.6050 N   0  0  0  0  0  0  0  0  0  0  0  0
    2.4590    0.0310    0.5560 C   0  0  0  0  0  0  0  0  0  0  0  0
    2.1590   -0.4280   -0.6990 C   0  0  0  0  0  0  0  0  0  0  0  0
    3.1240   -0.6030   -1.6920 C   0  0  0  0  0  0  0  0  0  0  0  0
    4.4490   -0.3160   -1.4470 C   0  0  0  0  0  0  0  0  0  0  0  0
    4.7770    0.1480   -0.1910 C   0  0  0  0  0  0  0  0  0  0  0  0
    6.4570    0.5240    0.1540 Cl  0  0  0  0  0  0  0  0  0  0  0  0
    3.8140    0.3160    0.7770 C   0  0  0  0  0  0  0  0  0  0  0  0
  1  2  1  0
  2  3  2  3
  2 10  1  0
  3  4  1  0
  4  5  2  0
  4  9  1  0
  5  6  1  0
  6  7  1  0
  7  8  1  0
  8  9  2  0
 10 11  1  0
 11 12  2  0
 11 17  1  0
 12 13  1  0
 13 14  2  0
 14 15  1  0
 15 16  1  0
 15 17  2  0
M  END
