
     RDKit          3D

 17 18  0  0  0  0  0  0  0  0999 V2000
   -4.4640    0.5780   -0.9220 C   0  0  0  0  0  0  0  0  0  0  0  0
   -3.0080    0.4310   -0.6820 C   0  0  0  0  0  0  0  0  0  0  0  0
   -2.5620   -0.0830    0.4980 C   0  0  0  0  0  0  0  0  0  0  0  0
   -1.2110   -0.2550    0.8060 C   0  0  0  0  0  0  0  0  0  0  0  0
   -0.8030   -0.8150    2.1320 C   0  0  0  0  0  0  0  0  0  0  0  0
   -0.3060    0.1250   -0.1590 C   0  0  0  0  0  0  0  0  0  0  0  0
    1.1280   -0.0270    0.0590 C   0  0  0  0  0  0  0  0  0  0  0  0
    1.9970    0.8590   -0.2940 N   0  0  0  0  0  0  0  0  0  0  0  0
    3.3120    0.4240    0.0500 C   0  0  0  0  0  0  0  0  0  0  0  0
    4.3570    1.1250   -0.1930 N   0  0  0  0  0  0  0  0  0  0  0  0
    3.1830   -0.8810    0.6800 C   0  0  0  0  0  0  0  0  0  0  0  0
    4.1140   -1.6560    1.1540 C   0  0  0  0  0  0  0  0  0  0  0  0
    5.8260   -1.3240    1.1580 Cl  0  0  0  0  0  0  0  0  0  0  0  0
    1.7600   -1.1330    0.6650 N   0  0  0  0  0  0  0  0  0  0  0  0
   -0.7560    0.6570   -1.3810 C   0  0  0  0  0  0  0  0  0  0  0  0
    0.1990    1.0430   -2.3610 N   0  0  0  0  0  0  0  0  0  0  0  0
   -2.0900    0.8030   -1.6270 C   0  0  0  0  0  0  0  0  0  0  0  0
  1  2  1  0
  2  3  2  0
  2 17  1  0
  3  4  1  0
  4  5  1  0
  4  6  2  0
  6  7  1  0
  6 15  1  0
  7  8  2  0
  7 14  1  0
  8  9  1  0
  9 10  2  0
  9 11  1  0
 11 12  2  3
 11 14  1  0
 12 13  1  0
 15 16  1  0
 15 17  2  0
M  END
