
     RDKit          3D

 17 18  0  0  0  0  0  0  0  0999 V2000
    4.4580    0.5350    1.2960 N   0  0  0  0  0  0  0  0  0  0  0  0
    4.3870    0.2590   -0.1190 C   0  0  0  0  0  0  0  0  0  0  0  0
    5.6370    0.1350   -0.8180 N   0  0  0  0  0  0  0  0  0  0  0  0
    3.3370    0.0770   -0.7140 N   0  0  0  0  0  0  0  0  0  0  0  0
    1.9960    0.0150   -0.5670 C   0  0  0  0  0  0  0  0  0  0  0  0
    1.3090   -1.1870   -0.8230 C   0  0  0  0  0  0  0  0  0  0  0  0
   -0.0480   -1.2860   -0.6330 C   0  0  0  0  0  0  0  0  0  0  0  0
   -0.8220   -0.2120   -0.1740 C   0  0  0  0  0  0  0  0  0  0  0  0
   -2.2080   -0.4050   -0.0610 N   0  0  0  0  0  0  0  0  0  0  0  0
   -2.8510   -1.7070   -0.1830 C   0  0  0  0  0  0  0  0  0  0  0  0
   -4.1480   -1.6100   -0.0520 C   0  0  0  0  0  0  0  0  0  0  0  0
   -4.5220   -0.2490    0.1760 C   0  0  0  0  0  0  0  0  0  0  0  0
   -3.2340    0.5300    0.1640 C   0  0  0  0  0  0  0  0  0  0  0  0
   -3.2230    1.8430    0.2890 C   0  0  0  0  0  0  0  0  0  0  0  0
   -4.8160    2.6250    0.5840 Cl  0  0  0  0  0  0  0  0  0  0  0  0
   -0.1480    0.9390    0.0750 C   0  0  0  0  0  0  0  0  0  0  0  0
    1.2360    1.0720   -0.1150 C   0  0  0  0  0  0  0  0  0  0  0  0
  1  2  1  0
  2  3  1  0
  2  4  2  3
  4  5  1  0
  5  6  2  0
  5 17  1  0
  6  7  1  0
  7  8  2  0
  8  9  1  0
  8 16  1  0
  9 10  1  0
  9 13  1  0
 10 11  2  0
 11 12  1  0
 12 13  1  0
 13 14  2  3
 14 15  1  0
 16 17  2  0
M  END
