
     RDKit          3D

 33 36  0  0  0  0  0  0  0  0999 V2000
   10.7590    0.3370    0.0920 C   0  0  0  0  0  0  0  0  0  0  0  0
    9.4130   -0.1600   -0.2020 N   0  0  0  0  0  0  0  0  0  0  0  0
    9.0680   -1.4470   -0.0770 C   0  0  0  0  0  0  0  0  0  0  0  0
    7.8120   -1.9190   -0.3900 C   0  0  0  0  0  0  0  0  0  0  0  0
    6.8700   -1.0480   -0.8470 C   0  0  0  0  0  0  0  0  0  0  0  0
    5.4940   -1.4690   -1.1920 C   0  0  0  0  0  0  0  0  0  0  0  0
    5.0890   -2.5550   -0.7570 O   0  0  0  0  0  0  0  0  0  0  0  0
    4.7010   -0.6340   -1.9830 N   0  0  0  0  0  0  0  0  0  0  0  0
    3.3210   -0.9690   -2.3360 C   0  0  0  0  0  0  0  0  0  0  0  0
    2.6520   -1.2810   -1.0180 C   0  0  0  0  0  0  0  0  0  0  0  0
    2.0750   -2.3690   -0.8800 O   0  0  0  0  0  0  0  0  0  0  0  0
    2.7540   -0.3320   -0.0530 O   0  0  0  0  0  0  0  0  0  0  0  0
    2.2160   -0.4230    1.2140 C   0  0  0  0  0  0  0  0  0  0  0  0
    0.7600   -0.2580    1.3160 C   0  0  0  0  0  0  0  0  0  0  0  0
    0.0490    0.7850    1.3190 N   0  0  0  0  0  0  0  0  0  0  0  0
   -1.2210    0.8300    1.4530 C   0  0  0  0  0  0  0  0  0  0  0  0
   -1.8810   -0.3960    1.6050 C   0  0  0  0  0  0  0  0  0  0  0  0
   -0.5570   -1.5260    1.5410 S   0  0  0  0  0  0  0  0  0  0  0  0
   -3.3480   -0.4390    1.7730 C   0  0  0  0  0  0  0  0  0  0  0  0
   -4.0630    0.6650    1.0300 C   0  0  2  0  0  0  0  0  0  0  0  0
   -4.8740    1.4360    2.0960 C   0  0  0  0  0  0  0  0  0  0  0  0
   -5.0590    0.1080    0.1510 N   0  0  0  0  0  0  0  0  0  0  0  0
   -4.5290   -0.8320   -0.8220 C   0  0  0  0  0  0  0  0  0  0  0  0
   -5.3970   -2.0880   -0.6790 C   0  0  0  0  0  0  0  0  0  0  0  0
   -6.7180   -1.6380   -0.0370 C   0  0  0  0  0  0  0  0  0  0  0  0
   -7.3760   -0.6900   -0.9790 C   0  0  0  0  0  0  0  0  0  0  0  0
   -7.2290    0.7710   -0.6040 C   0  0  0  0  0  0  0  0  0  0  0  0
   -5.7750    1.1820   -0.5460 C   0  0  0  0  0  0  0  0  0  0  0  0
   -3.1830    1.6850    0.4060 C   0  0  0  0  0  0  0  0  0  0  0  0
   -2.1440    2.0440    1.4690 C   0  0  0  0  0  0  0  0  0  0  0  0
    7.1940    0.2900   -0.9850 C   0  0  0  0  0  0  0  0  0  0  0  0
    8.4730    0.7090   -0.6560 C   0  0  0  0  0  0  0  0  0  0  0  0
    8.7950    1.9120   -0.7740 O   0  0  0  0  0  0  0  0  0  0  0  0
  1  2  1  0
  2  3  1  0
  2 32  1  0
  3  4  2  0
  4  5  1  0
  5  6  1  0
  5 31  2  0
  6  7  2  0
  6  8  1  0
  8  9  1  0
  9 10  1  0
 10 11  2  0
 10 12  1  0
 12 13  1  0
 13 14  1  0
 14 15  2  0
 14 18  1  0
 15 16  1  0
 16 17  2  0
 16 30  1  0
 17 18  1  0
 17 19  1  0
 19 20  1  0
 20 21  1  1
 20 22  1  0
 20 29  1  0
 22 23  1  0
 22 28  1  0
 23 24  1  0
 24 25  1  0
 25 26  1  0
 26 27  1  0
 27 28  1  0
 29 30  1  0
 31 32  1  0
 32 33  2  0
M  END
