
     RDKit          3D

 33 35  0  0  0  0  0  0  0  0999 V2000
   -2.3170   -2.1480    1.5240 C   0  0  0  0  0  0  0  0  0  0  0  0
   -2.0370   -1.5840    0.1990 N   0  0  0  0  0  0  0  0  0  0  0  0
   -3.1620   -1.4300   -0.6670 C   0  0  0  0  0  0  0  0  0  0  0  0
   -4.1950   -0.4900   -0.1330 C   0  0  0  0  0  0  0  0  0  0  0  0
   -3.8430    0.3920    0.8650 C   0  0  0  0  0  0  0  0  0  0  0  0
   -4.7560    1.2640    1.3830 N   0  0  0  0  0  0  0  0  0  0  0  0
   -6.0190    1.2830    0.9320 C   0  0  0  0  0  0  0  0  0  0  0  0
   -6.9460    2.1310    1.4230 N   0  0  0  0  0  0  0  0  0  0  0  0
   -8.1870    2.1060    0.9380 C   0  0  0  0  0  0  0  0  0  0  0  0
   -9.2140    2.9840    1.4210 N   0  0  0  0  0  0  0  0  0  0  0  0
   -8.5350    1.2400   -0.0440 N   0  0  0  0  0  0  0  0  0  0  0  0
   -7.6200    0.3750   -0.5560 C   0  0  0  0  0  0  0  0  0  0  0  0
   -7.9580   -0.5410   -1.5840 N   0  0  0  0  0  0  0  0  0  0  0  0
   -6.3380    0.3830   -0.0720 C   0  0  0  0  0  0  0  0  0  0  0  0
   -5.4520   -0.4810   -0.5930 N   0  0  0  0  0  0  0  0  0  0  0  0
   -0.6940   -1.2490   -0.1080 C   0  0  0  0  0  0  0  0  0  0  0  0
    0.3120   -1.4690    0.8090 C   0  0  0  0  0  0  0  0  0  0  0  0
    1.6300   -1.1680    0.5820 C   0  0  0  0  0  0  0  0  0  0  0  0
    1.9960   -0.6170   -0.6140 C   0  0  0  0  0  0  0  0  0  0  0  0
    3.3810   -0.2670   -0.9360 C   0  0  0  0  0  0  0  0  0  0  0  0
    3.6240    0.2610   -2.0730 O   0  0  0  0  0  0  0  0  0  0  0  0
    4.4640   -0.4850   -0.0470 N   0  0  0  0  0  0  0  0  0  0  0  0
    5.8200   -0.1010   -0.4570 C   0  0  1  0  0  0  0  0  0  0  0  0
    6.3090    0.8930    0.5580 C   0  0  0  0  0  0  0  0  0  0  0  0
    7.6850    1.4010    0.3070 C   0  0  0  0  0  0  0  0  0  0  0  0
    7.8570    2.1060   -0.9800 C   0  0  0  0  0  0  0  0  0  0  0  0
    6.9040    2.2780   -1.7730 O   0  0  0  0  0  0  0  0  0  0  0  0
    9.0930    2.6080   -1.3600 O   0  0  0  0  0  0  0  0  0  0  0  0
    6.6300   -1.3460   -0.4880 C   0  0  0  0  0  0  0  0  0  0  0  0
    6.0940   -2.4270   -0.1780 O   0  0  0  0  0  0  0  0  0  0  0  0
    7.9680   -1.3840   -0.8480 O   0  0  0  0  0  0  0  0  0  0  0  0
    1.0320   -0.3740   -1.5690 C   0  0  0  0  0  0  0  0  0  0  0  0
   -0.2980   -0.6910   -1.3090 C   0  0  0  0  0  0  0  0  0  0  0  0
  1  2  1  0
  2  3  1  0
  2 16  1  0
  3  4  1  0
  4  5  2  0
  4 15  1  0
  5  6  1  0
  6  7  2  0
  7  8  1  0
  7 14  1  0
  8  9  2  0
  9 10  1  0
  9 11  1  0
 11 12  2  0
 12 13  1  0
 12 14  1  0
 14 15  2  0
 16 17  2  0
 16 33  1  0
 17 18  1  0
 18 19  2  0
 19 20  1  0
 19 32  1  0
 20 21  2  0
 20 22  1  0
 22 23  1  0
 23 24  1  1
 23 29  1  0
 24 25  1  0
 25 26  1  0
 26 27  2  0
 26 28  1  0
 29 30  2  0
 29 31  1  0
 32 33  2  0
M  END
