
     RDKit          3D

 33 35  0  0  0  0  0  0  0  0999 V2000
   -6.7230   -1.1690   -4.3430 C   0  0  0  0  0  0  0  0  0  0  0  0
   -6.1590   -0.5370   -3.3250 C   0  0  0  0  0  0  0  0  0  0  0  0
   -6.8930   -0.2550   -2.1140 C   0  0  0  0  0  0  0  0  0  0  0  0
   -6.4160    0.3560   -1.0710 C   0  0  0  0  0  0  0  0  0  0  0  0
   -5.0300    0.8480   -0.9970 C   0  0  0  0  0  0  0  0  0  0  0  0
   -4.4710    0.2900    0.2150 N   0  0  0  0  0  0  0  0  0  0  0  0
   -3.0490    0.4270    0.3110 C   0  0  2  0  0  0  0  0  0  0  0  0
   -2.6190   -0.1960    1.6230 C   0  0  0  0  0  0  0  0  0  0  0  0
   -1.1360   -0.5270    1.4220 C   0  0  0  0  0  0  0  0  0  0  0  0
   -0.4880    0.5270    0.6770 N   0  0  0  0  0  0  0  0  0  0  0  0
    0.7600    0.2580    0.0650 C   0  0  0  0  0  0  0  0  0  0  0  0
    1.3860    1.1400   -0.5960 O   0  0  0  0  0  0  0  0  0  0  0  0
    1.3310   -1.0330    0.1890 N   0  0  0  0  0  0  0  0  0  0  0  0
    2.5990   -1.2670   -0.4340 C   0  0  0  0  0  0  0  0  0  0  0  0
    3.1830   -0.3460   -1.0530 O   0  0  0  0  0  0  0  0  0  0  0  0
    3.1730   -2.6500   -0.3030 C   0  0  0  0  0  0  0  0  0  0  0  0
    4.4370   -2.7400   -0.9080 O   0  0  0  0  0  0  0  0  0  0  0  0
    5.4680   -1.9630   -0.4170 C   0  0  0  0  0  0  0  0  0  0  0  0
    5.3020   -1.1720    0.5650 O   0  0  0  0  0  0  0  0  0  0  0  0
    6.8050   -2.0560   -1.0550 C   0  0  0  0  0  0  0  0  0  0  0  0
    7.8530   -2.4280    0.0010 C   0  0  0  0  0  0  0  0  0  0  0  0
    7.9020   -1.1880    1.2850 S   0  0  0  0  0  0  0  0  0  0  0  0
    8.5630    0.3660    0.7310 C   0  0  0  0  0  0  0  0  0  0  0  0
    9.0440    0.6530   -0.4490 C   0  0  0  0  0  0  0  0  0  0  0  0
    9.4830    2.0760   -0.4570 C   0  0  0  0  0  0  0  0  0  0  0  0
    9.1820    2.5630    0.9100 C   0  0  0  0  0  0  0  0  0  0  0  0
    8.6490    1.5660    1.5930 C   0  0  0  0  0  0  0  0  0  0  0  0
   -1.0640    1.8400    0.5400 C   0  0  0  0  0  0  0  0  0  0  0  0
   -2.5480    1.8220    0.2860 C   0  0  0  0  0  0  0  0  0  0  0  0
   -5.1660    0.5970    1.4110 C   0  0  0  0  0  0  0  0  0  0  0  0
   -6.5260    1.2130    1.2330 C   0  0  0  0  0  0  0  0  0  0  0  0
   -7.2120    0.6020    0.0870 N   0  0  0  0  0  0  0  0  0  0  0  0
   -8.5970    0.2600    0.1060 C   0  0  0  0  0  0  0  0  0  0  0  0
  1  2  2  0
  2  3  1  0
  3  4  2  3
  4  5  1  0
  4 32  1  0
  5  6  1  0
  7  6  1  1
  6 30  1  0
  7  8  1  0
  7 29  1  0
  8  9  1  0
  9 10  1  0
 10 11  1  0
 10 28  1  0
 11 12  2  0
 11 13  1  0
 13 14  1  0
 14 15  2  0
 14 16  1  0
 16 17  1  0
 17 18  1  0
 18 19  2  0
 18 20  1  0
 20 21  1  0
 21 22  1  0
 22 23  1  0
 23 24  2  0
 23 27  1  0
 24 25  1  0
 25 26  1  0
 26 27  2  0
 28 29  1  0
 30 31  1  0
 31 32  1  0
 32 33  1  0
M  END
