
     RDKit          3D

 33 36  0  0  0  0  0  0  0  0999 V2000
   -5.5280   -3.9050   -4.3220 C   0  0  0  0  0  0  0  0  0  0  0  0
   -4.6050   -3.3750   -3.2900 C   0  0  0  0  0  0  0  0  0  0  0  0
   -4.0990   -2.1720   -3.2780 C   0  0  0  0  0  0  0  0  0  0  0  0
   -4.4520   -1.2460   -4.3580 C   0  0  0  0  0  0  0  0  0  0  0  0
   -5.2250   -1.6110   -5.2980 N   0  0  0  0  0  0  0  0  0  0  0  0
   -3.9170    0.1320   -4.3830 C   0  0  0  0  0  0  0  0  0  0  0  0
   -3.1110    0.5170   -3.4110 C   0  0  0  0  0  0  0  0  0  0  0  0
   -2.7530   -0.3810   -2.3430 C   0  0  0  0  0  0  0  0  0  0  0  0
   -3.2010   -1.6460   -2.2540 C   0  0  0  0  0  0  0  0  0  0  0  0
   -2.7930   -2.4850   -1.1400 C   0  0  0  0  0  0  0  0  0  0  0  0
   -1.9670   -2.0200   -0.1500 N   0  0  0  0  0  0  0  0  0  0  0  0
   -1.7580   -2.9860    0.7350 C   0  0  0  0  0  0  0  0  0  0  0  0
   -0.9450   -2.9000    1.9390 C   0  0  0  0  0  0  0  0  0  0  0  0
   -0.8350   -3.9170    2.7060 O   0  0  0  0  0  0  0  0  0  0  0  0
   -0.2810   -1.6980    2.2550 N   0  0  0  0  0  0  0  0  0  0  0  0
    0.5140   -1.6580    3.4670 C   0  0  0  0  0  0  0  0  0  0  0  0
    1.7920   -0.9390    3.1350 C   0  0  0  0  0  0  0  0  0  0  0  0
    1.5480    0.4050    2.6620 N   0  0  0  0  0  0  0  0  0  0  0  0
    2.5070    1.4100    2.9270 C   0  0  0  0  0  0  0  0  0  0  0  0
    3.5290    1.1040    3.5870 O   0  0  0  0  0  0  0  0  0  0  0  0
    2.3470    2.7990    2.4570 C   0  0  0  0  0  0  0  0  0  0  0  0
    3.3800    3.7590    2.9320 C   0  0  0  0  0  0  0  0  0  0  0  0
    4.7630    3.4500    2.5710 C   0  0  0  0  0  0  0  0  0  0  0  0
    5.4960    2.8010    3.3370 O   0  0  0  0  0  0  0  0  0  0  0  0
    5.3030    3.8990    1.2990 C   0  0  0  0  0  0  0  0  0  0  0  0
    6.5460    3.7310    0.7630 C   0  0  0  0  0  0  0  0  0  0  0  0
    6.8130    4.2360   -0.4460 C   0  0  0  0  0  0  0  0  0  0  0  0
    5.7950    4.9140   -1.0970 C   0  0  0  0  0  0  0  0  0  0  0  0
    4.4500    4.8130    0.0560 S   0  0  0  0  0  0  0  0  0  0  0  0
    0.3270    0.6830    1.9450 C   0  0  0  0  0  0  0  0  0  0  0  0
   -0.3720   -0.5480    1.4270 C   0  0  0  0  0  0  0  0  0  0  0  0
   -2.4740   -4.0760    0.2770 C   0  0  0  0  0  0  0  0  0  0  0  0
   -3.0610   -3.7130   -0.8310 O   0  0  0  0  0  0  0  0  0  0  0  0
  1  2  1  0
  2  3  2  3
  3  4  1  0
  3  9  1  0
  4  5  2  0
  4  6  1  0
  6  7  2  0
  7  8  1  0
  8  9  2  0
  9 10  1  0
 10 11  2  0
 10 33  1  0
 11 12  1  0
 12 13  1  0
 12 32  2  0
 13 14  2  0
 13 15  1  0
 15 16  1  0
 15 31  1  0
 16 17  1  0
 17 18  1  0
 18 19  1  0
 18 30  1  0
 19 20  2  0
 19 21  1  0
 21 22  1  0
 22 23  1  0
 23 24  2  0
 23 25  1  0
 25 26  2  0
 25 29  1  0
 26 27  1  0
 27 28  2  0
 28 29  1  0
 30 31  1  0
 32 33  1  0
M  END
