
     RDKit          3D

 33 35  0  0  0  0  0  0  0  0999 V2000
    9.8350   -2.3740   -1.2710 C   0  0  0  0  0  0  0  0  0  0  0  0
    8.3940   -1.9690   -1.2470 C   0  0  0  0  0  0  0  0  0  0  0  0
    8.1190   -1.1170   -0.1460 O   0  0  0  0  0  0  0  0  0  0  0  0
    6.8350   -0.6330    0.0610 C   0  0  0  0  0  0  0  0  0  0  0  0
    5.9610   -0.9830   -0.7590 O   0  0  0  0  0  0  0  0  0  0  0  0
    6.5760    0.2470    1.2080 C   0  0  0  0  0  0  0  0  0  0  0  0
    5.1680    0.7220    1.3580 C   0  0  1  0  0  0  0  0  0  0  0  0
    4.6870    1.5070    0.1880 C   0  0  0  0  0  0  0  0  0  0  0  0
    3.2370    1.9200    0.3350 C   0  0  0  0  0  0  0  0  0  0  0  0
    2.3630    0.7250    0.4980 C   0  0  2  0  0  0  0  0  0  0  0  0
    2.3320   -0.0740   -0.6810 N   0  0  0  0  0  0  0  0  0  0  0  0
    2.0770    0.7560   -1.8300 C   0  0  0  0  0  0  0  0  0  0  0  0
    0.9710    1.1760    0.8630 C   0  0  0  0  0  0  0  0  0  0  0  0
    0.8450    1.9470    1.8480 O   0  0  0  0  0  0  0  0  0  0  0  0
   -0.1620    0.7660    0.1480 N   0  0  0  0  0  0  0  0  0  0  0  0
   -1.5080    1.1280    0.4030 C   0  0  0  0  0  0  0  0  0  0  0  0
   -1.9700    1.8760    1.4470 C   0  0  0  0  0  0  0  0  0  0  0  0
   -3.3080    2.2050    1.6380 C   0  0  0  0  0  0  0  0  0  0  0  0
   -4.2200    1.7490    0.7190 C   0  0  0  0  0  0  0  0  0  0  0  0
   -3.8230    0.9930   -0.3530 C   0  0  0  0  0  0  0  0  0  0  0  0
   -2.4810    0.6940   -0.4970 C   0  0  0  0  0  0  0  0  0  0  0  0
   -4.9570    0.6670   -1.1330 N   0  0  0  0  0  0  0  0  0  0  0  0
   -6.1240    0.9270   -0.3360 C   0  0  1  0  0  0  0  0  0  0  0  0
   -6.6250   -0.2590    0.4320 C   0  0  0  0  0  0  0  0  0  0  0  0
   -7.0070   -1.3880   -0.3490 N   0  0  1  0  0  0  0  0  0  0  0  0
   -7.7130   -1.0880   -1.5700 C   0  0  0  0  0  0  0  0  0  0  0  0
   -8.8890   -0.1730   -1.3640 C   0  0  0  0  0  0  0  0  0  0  0  0
   -5.9500   -2.3220   -0.6330 C   0  0  0  0  0  0  0  0  0  0  0  0
   -5.5490   -3.0490    0.5730 C   0  0  0  0  0  0  0  0  0  0  0  0
   -5.2290   -3.6350    1.5090 N   0  0  0  0  0  0  0  0  0  0  0  0
   -5.6470    1.9040    0.6230 N   0  0  0  0  0  0  0  0  0  0  0  0
    2.8200   -0.0560    1.7170 C   0  0  0  0  0  0  0  0  0  0  0  0
    4.2730   -0.4390    1.6950 C   0  0  0  0  0  0  0  0  0  0  0  0
  1  2  1  0
  2  3  1  0
  3  4  1  0
  4  5  2  0
  4  6  1  0
  7  6  1  6
  7  8  1  0
  7 33  1  0
  8  9  1  0
  9 10  1  0
 10 11  1  6
 10 13  1  0
 10 32  1  0
 11 12  1  0
 13 14  2  0
 13 15  1  0
 15 16  1  0
 16 17  2  0
 16 21  1  0
 17 18  1  0
 18 19  2  0
 19 20  1  0
 19 31  1  0
 20 21  2  0
 20 22  1  0
 22 23  1  0
 23 24  1  1
 23 31  1  0
 25 24  1  6
 25 26  1  0
 25 28  1  0
 26 27  1  0
 28 29  1  0
 29 30  3  0
 32 33  1  0
M  CHG  2  11   1  25   1
M  END
