
     RDKit          3D

 33 35  0  0  0  0  0  0  0  0999 V2000
   -5.8280    2.0100    1.8110 C   0  0  0  0  0  0  0  0  0  0  0  0
   -4.7970    1.7700    0.7100 C   0  0  0  0  0  0  0  0  0  0  0  0
   -3.9130    0.6700    1.0060 N   0  0  0  0  0  0  0  0  0  0  0  0
   -3.7320   -0.2360   -0.1500 C   0  0  1  0  0  0  0  0  0  0  0  0
   -2.2980   -0.1820   -0.5870 C   0  0  2  0  0  0  0  0  0  0  0  0
   -1.8910    1.2420   -0.9700 C   0  0  0  0  0  0  0  0  0  0  0  0
   -0.3540    1.2330   -0.9190 C   0  0  0  0  0  0  0  0  0  0  0  0
    0.0580    0.3360   -1.9970 N   0  0  0  0  0  0  0  0  0  0  0  0
    1.4220    0.1720   -2.3070 C   0  0  0  0  0  0  0  0  0  0  0  0
    1.7410   -0.6140   -3.2450 O   0  0  0  0  0  0  0  0  0  0  0  0
    2.4320    0.9230   -1.5270 C   0  0  0  0  0  0  0  0  0  0  0  0
    3.7880    0.5850   -2.1040 C   0  0  0  0  0  0  0  0  0  0  0  0
    4.7850    1.2910   -1.3770 N   0  0  0  0  0  0  0  0  0  0  0  0
    5.1750    2.5120   -1.7670 C   0  0  0  0  0  0  0  0  0  0  0  0
    4.6910    3.0870   -2.7750 O   0  0  0  0  0  0  0  0  0  0  0  0
    6.1290    3.2030   -1.0830 N   0  0  0  0  0  0  0  0  0  0  0  0
    6.7130    2.6880    0.0050 C   0  0  0  0  0  0  0  0  0  0  0  0
    7.5890    3.3240    0.6310 O   0  0  0  0  0  0  0  0  0  0  0  0
    6.3310    1.4330    0.4300 C   0  0  0  0  0  0  0  0  0  0  0  0
    6.8920    0.8800    1.5210 N   0  0  0  0  0  0  0  0  0  0  0  0
    6.5500   -0.3350    1.9720 C   0  0  0  0  0  0  0  0  0  0  0  0
    7.2230   -0.8710    3.1930 C   0  0  0  0  0  0  0  0  0  0  0  0
    6.7140   -2.1740    3.5460 N   0  0  0  0  0  0  0  0  0  0  0  0
    5.5970   -1.0240    1.2890 C   0  0  0  0  0  0  0  0  0  0  0  0
    5.0040   -0.5040    0.1810 C   0  0  0  0  0  0  0  0  0  0  0  0
    5.3540    0.7530   -0.2910 C   0  0  0  0  0  0  0  0  0  0  0  0
   -0.9700   -0.3460   -2.7050 C   0  0  0  0  0  0  0  0  0  0  0  0
   -1.9300   -1.0820   -1.7380 C   0  0  0  0  0  0  0  0  0  0  0  0
   -4.2880   -1.5800    0.1780 C   0  0  2  0  0  0  0  0  0  0  0  0
   -3.5900   -2.2010    1.3980 C   0  0  0  0  0  0  0  0  0  0  0  0
   -4.2200   -2.6290   -0.8950 C   0  0  0  0  0  0  0  0  0  0  0  0
   -5.7720   -1.4510    0.6140 C   0  0  0  0  0  0  0  0  0  0  0  0
   -6.6290   -0.8640   -0.4470 C   0  0  0  0  0  0  0  0  0  0  0  0
  1  2  1  0
  2  3  1  0
  4  3  1  1
  4  5  1  0
  4 29  1  0
  5  6  1  6
  5 28  1  0
  6  7  1  0
  7  8  1  0
  8  9  1  0
  8 27  1  0
  9 10  2  0
  9 11  1  0
 11 12  1  0
 12 13  1  0
 13 14  1  0
 13 26  1  0
 14 15  2  0
 14 16  1  0
 16 17  1  0
 17 18  2  0
 17 19  1  0
 19 20  2  0
 19 26  1  0
 20 21  1  0
 21 22  1  0
 21 24  2  0
 22 23  1  0
 24 25  1  0
 25 26  2  0
 27 28  1  0
 29 30  1  1
 29 31  1  0
 29 32  1  0
 32 33  1  0
M  CHG  2   3   1  23   1
M  END
