
     RDKit          3D

 33 36  0  0  0  0  0  0  0  0999 V2000
    4.7400    2.5810   -1.3080 C   0  0  0  0  0  0  0  0  0  0  0  0
    5.8450    2.2220   -0.3800 C   0  0  0  0  0  0  0  0  0  0  0  0
    6.6260    3.1730    0.2380 C   0  0  0  0  0  0  0  0  0  0  0  0
    7.6460    2.7970    1.1040 C   0  0  0  0  0  0  0  0  0  0  0  0
    7.8600    1.4870    1.3300 N   0  0  0  0  0  0  0  0  0  0  0  0
    7.1090    0.5240    0.7390 C   0  0  0  0  0  0  0  0  0  0  0  0
    7.3120   -0.7000    0.9500 O   0  0  0  0  0  0  0  0  0  0  0  0
    6.0910    0.8710   -0.1240 C   0  0  0  0  0  0  0  0  0  0  0  0
    5.2540   -0.1060   -0.7980 C   0  0  0  0  0  0  0  0  0  0  0  0
    5.7600   -0.6060   -1.8620 O   0  0  0  0  0  0  0  0  0  0  0  0
    3.9380   -0.5220   -0.3460 C   0  0  0  0  0  0  0  0  0  0  0  0
    2.7030   -1.3030   -1.4190 S   0  0  0  0  0  0  0  0  0  0  0  0
    1.4540   -1.4390    0.0360 C   0  0  0  0  0  0  0  0  0  0  0  0
    0.1320   -2.0760   -0.3280 C   0  0  0  0  0  0  0  0  0  0  0  0
   -0.7150   -2.0820    0.9080 C   0  0  0  0  0  0  0  0  0  0  0  0
   -2.0390   -2.7060    0.6450 C   0  0  0  0  0  0  0  0  0  0  0  0
   -2.2170   -4.0440    0.8340 C   0  0  0  0  0  0  0  0  0  0  0  0
   -3.4210   -4.5790    0.5620 N   0  0  0  0  0  0  0  0  0  0  0  0
   -4.4310   -3.8210    0.1160 C   0  0  0  0  0  0  0  0  0  0  0  0
   -4.3100   -2.4390   -0.0980 C   0  0  0  0  0  0  0  0  0  0  0  0
   -5.4520   -1.6970   -0.5460 C   0  0  0  0  0  0  0  0  0  0  0  0
   -6.6050   -2.3360   -0.5460 O   0  0  0  0  0  0  0  0  0  0  0  0
   -5.5690   -0.3840   -0.9950 N   0  0  0  0  0  0  0  0  0  0  0  0
   -6.9320    0.1370   -1.2780 C   0  0  0  0  0  0  0  0  0  0  0  0
   -6.8060    1.4840   -1.9590 C   0  0  0  0  0  0  0  0  0  0  0  0
   -5.9660    2.4780   -1.2120 C   0  0  0  0  0  0  0  0  0  0  0  0
   -4.6370    1.9200   -0.7420 C   0  0  0  0  0  0  0  0  0  0  0  0
   -4.5520    0.5500   -1.3090 C   0  0  0  0  0  0  0  0  0  0  0  0
   -3.6150    0.1950   -2.0590 O   0  0  0  0  0  0  0  0  0  0  0  0
   -3.0930   -1.9040    0.1800 C   0  0  0  0  0  0  0  0  0  0  0  0
    2.0850   -0.9630    0.8790 N   0  0  0  0  0  0  0  0  0  0  0  0
    3.3000   -0.4660    0.8780 C   0  0  0  0  0  0  0  0  0  0  0  0
    4.0440    0.1330    2.0560 C   0  0  0  0  0  0  0  0  0  0  0  0
  1  2  1  0
  2  3  1  0
  2  8  2  0
  3  4  2  0
  4  5  1  0
  5  6  1  0
  6  7  2  0
  6  8  1  0
  8  9  1  0
  9 10  2  0
  9 11  1  0
 11 12  1  0
 11 32  2  0
 12 13  1  0
 13 14  1  0
 13 31  2  0
 14 15  1  0
 15 16  1  0
 16 17  2  0
 16 30  1  0
 17 18  1  0
 18 19  2  0
 19 20  1  0
 20 21  1  0
 20 30  2  0
 21 22  2  0
 21 23  1  0
 23 24  1  0
 23 28  1  0
 24 25  1  0
 25 26  1  0
 26 27  1  0
 27 28  1  0
 28 29  2  0
 31 32  1  0
 32 33  1  0
M  END
