
     RDKit          3D

 32 33  0  0  0  0  0  0  0  0999 V2000
   -1.4620    2.8980    3.7380 C   0  0  0  0  0  0  0  0  0  0  0  0
   -1.5650    2.4860    2.2480 C   0  0  0  0  0  0  0  0  0  0  0  0
   -0.1300    2.6370    1.7530 C   0  0  0  0  0  0  0  0  0  0  0  0
    0.3250    4.0490    1.7940 C   0  0  0  0  0  0  0  0  0  0  0  0
   -0.6910    4.9520    1.1650 N   0  0  0  0  0  0  0  0  0  0  0  0
   -0.9520    6.1070    1.9830 C   0  0  0  0  0  0  0  0  0  0  0  0
    0.4680    1.6200    1.1760 C   0  0  0  0  0  0  0  0  0  0  0  0
   -0.4170    0.4530    1.0530 N   0  0  0  0  0  0  0  0  0  0  0  0
   -1.5050    0.4690    0.0770 C   0  0  0  0  0  0  0  0  0  0  0  0
   -2.2640   -0.8030    0.2030 C   0  0  0  0  0  0  0  0  0  0  0  0
   -3.3820   -0.9660   -0.6790 N   0  0  2  0  0  0  0  0  0  0  0  0
   -3.5840   -2.3710   -0.9670 C   0  0  0  0  0  0  0  0  0  0  0  0
   -5.0340   -2.7090   -0.8930 C   0  0  0  0  0  0  0  0  0  0  0  0
   -5.7620   -2.4910   -2.2010 C   0  0  0  0  0  0  0  0  0  0  0  0
   -5.6710   -1.0100   -2.5080 C   0  0  0  0  0  0  0  0  0  0  0  0
   -4.2810   -0.6260   -2.9480 C   0  0  0  0  0  0  0  0  0  0  0  0
   -3.4060   -0.1280   -1.8250 C   0  0  0  0  0  0  0  0  0  0  0  0
    1.8590    1.4210    0.9650 C   0  0  0  0  0  0  0  0  0  0  0  0
    2.5150    0.4840    0.3140 C   0  0  0  0  0  0  0  0  0  0  0  0
    2.1630   -0.6700   -0.4140 C   0  0  0  0  0  0  0  0  0  0  0  0
    1.0000   -1.0610   -0.5810 O   0  0  0  0  0  0  0  0  0  0  0  0
    3.1450   -1.5350   -1.0530 N   0  0  0  0  0  0  0  0  0  0  0  0
    2.7030   -2.7400   -1.7810 C   0  0  0  0  0  0  0  0  0  0  0  0
    3.5290   -3.8850   -1.1880 C   0  0  1  0  0  0  0  0  0  0  0  0
    4.4000   -4.5580   -2.2030 C   0  0  0  0  0  0  0  0  0  0  0  0
    4.2220   -3.4850   -0.0420 O   0  0  0  0  0  0  0  0  0  0  0  0
    5.1700   -2.5000   -0.2930 C   0  0  2  0  0  0  0  0  0  0  0  0
    5.6780   -1.9770    1.0290 C   0  0  0  0  0  0  0  0  0  0  0  0
    4.5620   -1.3270   -1.0460 C   0  0  0  0  0  0  0  0  0  0  0  0
    2.8460    2.2330    1.7810 C   0  0  0  0  0  0  0  0  0  0  0  0
    4.2450    1.8490    1.5770 N   0  0  0  0  0  0  0  0  0  0  0  0
    2.6640    3.1200    2.5630 O   0  0  0  0  0  0  0  0  0  0  0  0
  1  2  1  0
  2  3  1  0
  3  4  1  0
  3  7  2  3
  4  5  1  0
  5  6  1  0
  7  8  1  0
  7 18  1  0
  8  9  1  0
  9 10  1  0
 11 10  1  6
 11 12  1  0
 11 17  1  0
 12 13  1  0
 13 14  1  0
 14 15  1  0
 15 16  1  0
 16 17  1  0
 18 19  2  3
 18 30  1  0
 19 20  1  0
 20 21  2  0
 20 22  1  0
 22 23  1  0
 22 29  1  0
 23 24  1  0
 24 25  1  6
 24 26  1  0
 26 27  1  0
 27 28  1  1
 27 29  1  0
 30 31  1  0
 30 32  2  0
M  CHG  2   5   1  11   1
M  END
