
     RDKit          3D

 26 29  0  0  0  0  0  0  0  0999 V2000
   -3.2410   -2.5320   -0.8780 C   0  0  0  0  0  0  0  0  0  0  0  0
   -2.6860   -1.2630   -0.4850 C   0  0  0  0  0  0  0  0  0  0  0  0
   -1.2950   -1.1610   -0.3230 C   0  0  0  0  0  0  0  0  0  0  0  0
   -0.6700   -0.0030    0.0470 C   0  0  0  0  0  0  0  0  0  0  0  0
    0.7400    0.1780    0.2080 N   0  0  0  0  0  0  0  0  0  0  0  0
    1.7680   -0.6520   -0.2470 C   0  0  0  0  0  0  0  0  0  0  0  0
    1.3760   -1.7040   -0.8790 O   0  0  0  0  0  0  0  0  0  0  0  0
    3.2110   -0.4520   -0.0770 C   0  0  0  0  0  0  0  0  0  0  0  0
    4.0450   -1.5810   -0.1260 C   0  0  0  0  0  0  0  0  0  0  0  0
    3.4790   -2.9460   -0.2890 C   0  0  0  0  0  0  0  0  0  0  0  0
    5.4080   -1.4150   -0.0100 C   0  0  0  0  0  0  0  0  0  0  0  0
    5.9940   -0.1790    0.1540 C   0  0  0  0  0  0  0  0  0  0  0  0
    5.2000    0.9380    0.2050 C   0  0  0  0  0  0  0  0  0  0  0  0
    3.8170    0.7620    0.0850 C   0  0  0  0  0  0  0  0  0  0  0  0
    2.8770    2.2400    0.1010 Cl  0  0  0  0  0  0  0  0  0  0  0  0
    6.0730    2.1350    0.3870 C   0  0  0  0  0  0  0  0  0  0  0  0
    7.3870    1.5350    0.8610 C   0  0  0  0  0  0  0  0  0  0  0  0
    7.3230    0.2420    0.2930 O   0  0  0  0  0  0  0  0  0  0  0  0
   -1.4790    1.1300    0.2710 C   0  0  0  0  0  0  0  0  0  0  0  0
   -2.8330    1.0630    0.1220 C   0  0  0  0  0  0  0  0  0  0  0  0
   -3.4170   -0.1520   -0.2590 C   0  0  0  0  0  0  0  0  0  0  0  0
   -4.8660   -0.1590   -0.4020 C   0  0  0  0  0  0  0  0  0  0  0  0
   -5.4370    0.4010    0.8100 N   0  0  0  0  0  0  0  0  0  0  0  0
   -6.8950    0.4430    0.7150 C   0  0  0  0  0  0  0  0  0  0  0  0
   -4.8870    1.6480    1.2130 C   0  0  0  0  0  0  0  0  0  0  0  0
   -3.7830    2.1840    0.3300 C   0  0  0  0  0  0  0  0  0  0  0  0
  1  2  1  0
  2  3  2  0
  2 21  1  0
  3  4  1  0
  4  5  1  0
  4 19  2  0
  5  6  1  0
  6  7  2  0
  6  8  1  0
  8  9  2  0
  8 14  1  0
  9 10  1  0
  9 11  1  0
 11 12  2  0
 12 13  1  0
 12 18  1  0
 13 14  2  0
 13 16  1  0
 14 15  1  0
 16 17  1  0
 17 18  1  0
 19 20  1  0
 20 21  2  0
 20 26  1  0
 21 22  1  0
 22 23  1  0
 23 24  1  0
 23 25  1  0
 25 26  1  0
M  END
