
     RDKit          3D

 10 10  0  0  0  0  0  0  0  0999 V2000
    2.1120    1.5830    0.2380 O   0  0  0  0  0  0  0  0  0  0  0  0
    0.9340    1.0360   -0.2810 C   0  0  2  0  0  0  0  0  0  0  0  0
   -0.2260    1.6840    0.4110 C   0  0  0  0  0  0  0  0  0  0  0  0
   -1.4410    1.0770    0.1610 O   0  0  0  0  0  0  0  0  0  0  0  0
   -1.4690   -0.2650    0.4770 C   0  0  1  0  0  0  0  0  0  0  0  0
   -2.7290   -0.7500    0.0650 O   0  0  0  0  0  0  0  0  0  0  0  0
   -0.4560   -0.9550   -0.4350 C   0  0  2  0  0  0  0  0  0  0  0  0
   -0.5860   -2.3190   -0.4400 O   0  0  0  0  0  0  0  0  0  0  0  0
    0.9410   -0.4710   -0.1460 C   0  0  2  0  0  0  0  0  0  0  0  0
    1.3930   -0.7880    1.1100 O   0  0  0  0  0  0  0  0  0  0  0  0
  2  1  1  1
  2  3  1  0
  2  9  1  0
  3  4  1  0
  4  5  1  0
  5  6  1  6
  5  7  1  0
  7  8  1  1
  7  9  1  0
  9 10  1  1
M  END
