
     RDKit          3D

 23 23  0  0  0  0  0  0  0  0999 V2000
    7.0390    0.4620    0.0020 C   0  0  0  0  0  0  0  0  0  0  0  0
    5.6870    0.3110    0.5610 C   0  0  0  0  0  0  0  0  0  0  0  0
    4.6350    0.1530   -0.2910 C   0  0  0  0  0  0  0  0  0  0  0  0
    3.3070    0.0040    0.2320 C   0  0  0  0  0  0  0  0  0  0  0  0
    3.1900    0.0340    1.6480 O   0  0  0  0  0  0  0  0  0  0  0  0
    2.2270   -0.1510   -0.4390 C   0  0  0  0  0  0  0  0  0  0  0  0
    2.0870   -0.2130   -1.8630 C   0  0  0  0  0  0  0  0  0  0  0  0
    3.1680   -0.1060   -2.7610 N   0  0  0  0  0  0  0  0  0  0  0  0
    0.9030   -0.3760   -2.3730 O   0  0  0  0  0  0  0  0  0  0  0  0
    0.9460   -0.2870    0.3350 C   0  0  0  0  0  0  0  0  0  0  0  0
    0.9670   -0.2450    1.5900 O   0  0  0  0  0  0  0  0  0  0  0  0
   -0.2660   -0.4570   -0.3000 O   0  0  0  0  0  0  0  0  0  0  0  0
   -1.4400   -0.5790    0.4880 C   0  0  1  0  0  0  0  0  0  0  0  0
   -1.2430   -1.7950    1.3690 C   0  0  0  0  0  0  0  0  0  0  0  0
   -1.6050    0.6730    1.2990 C   0  0  0  0  0  0  0  0  0  0  0  0
   -3.1140    0.7910    1.4690 C   0  0  2  0  0  0  0  0  0  0  0  0
   -3.6040   -0.0490    2.6190 C   0  0  0  0  0  0  0  0  0  0  0  0
   -3.6750    0.3020    0.1340 C   0  0  1  0  0  0  0  0  0  0  0  0
   -3.9180    1.4880   -0.7670 C   0  0  0  0  0  0  0  0  0  0  0  0
   -2.7230    2.1540   -0.9830 O   0  0  0  0  0  0  0  0  0  0  0  0
   -2.6660   -0.6700   -0.3570 C   0  0  1  0  0  0  0  0  0  0  0  0
   -2.3450   -0.5700   -1.8270 C   0  0  0  0  0  0  0  0  0  0  0  0
   -3.4980   -0.6610   -2.5840 O   0  0  0  0  0  0  0  0  0  0  0  0
  1  2  1  0
  2  3  2  3
  3  4  1  0
  4  5  1  0
  4  6  2  3
  6  7  1  0
  6 10  1  0
  7  8  1  0
  7  9  2  0
 10 11  2  0
 10 12  1  0
 12 13  1  0
 13 14  1  1
 13 15  1  0
 13 21  1  0
 15 16  1  0
 16 17  1  1
 16 18  1  0
 18 19  1  6
 18 21  1  0
 19 20  1  0
 21 22  1  6
 22 23  1  0
M  END
