
     RDKit          3D

 23 24  0  0  0  0  0  0  0  0999 V2000
    3.5200    3.0230    0.1750 C   0  0  0  0  0  0  0  0  0  0  0  0
    2.9640    1.7410    0.5720 N   0  0  0  0  0  0  0  0  0  0  0  0
    2.7980    0.6590   -0.3120 C   0  0  0  0  0  0  0  0  0  0  0  0
    3.1300    0.7610   -1.5010 O   0  0  0  0  0  0  0  0  0  0  0  0
    2.2220   -0.5980    0.1990 C   0  0  2  0  0  0  0  0  0  0  0  0
    3.1900   -1.0520    1.3100 C   0  0  0  0  0  0  0  0  0  0  0  0
    2.2710   -1.6130   -0.8380 C   0  0  0  0  0  0  0  0  0  0  0  0
    1.2700   -1.8210   -1.6620 C   0  0  0  0  0  0  0  0  0  0  0  0
    1.3060   -2.7940   -2.6640 O   0  0  0  0  0  0  0  0  0  0  0  0
    0.0770   -0.9790   -1.4980 C   0  0  0  0  0  0  0  0  0  0  0  0
   -0.2870   -0.7530   -0.0570 C   0  0  2  0  0  0  0  0  0  0  0  0
   -0.9070   -2.0350    0.4560 C   0  0  0  0  0  0  0  0  0  0  0  0
    0.0330   -3.0870    0.3380 O   0  0  0  0  0  0  0  0  0  0  0  0
   -1.2990    0.3280   -0.0030 C   0  0  2  0  0  0  0  0  0  0  0  0
   -0.6930    1.4750   -0.5730 O   0  0  0  0  0  0  0  0  0  0  0  0
   -1.6870    0.7380    1.3740 C   0  0  0  0  0  0  0  0  0  0  0  0
   -1.0720    0.4000    2.4140 O   0  0  0  0  0  0  0  0  0  0  0  0
   -2.8220    1.5530    1.4330 O   0  0  0  0  0  0  0  0  0  0  0  0
   -3.4690    2.1030    0.3310 C   0  0  0  0  0  0  0  0  0  0  0  0
   -3.1330    1.5140   -0.9950 C   0  0  0  0  0  0  0  0  0  0  0  0
   -2.5760    0.1040   -0.7450 C   0  0  2  0  0  0  0  0  0  0  0  0
   -3.6090   -0.6380    0.0680 C   0  0  0  0  0  0  0  0  0  0  0  0
    0.8770   -0.3540    0.7990 C   0  0  0  0  0  0  0  0  0  0  0  0
  1  2  1  0
  2  3  1  0
  3  4  2  0
  3  5  1  0
  5  6  1  1
  5  7  1  0
  5 23  1  0
  7  8  2  0
  8  9  1  0
  8 10  1  0
 10 11  1  0
 11 12  1  1
 11 14  1  0
 11 23  1  0
 12 13  1  0
 14 15  1  6
 14 16  1  0
 14 21  1  0
 16 17  2  0
 16 18  1  0
 18 19  1  0
 19 20  1  0
 20 21  1  0
 21 22  1  1
M  END
