
     RDKit          3D

 13 13  0  0  0  0  0  0  0  0999 V2000
   -3.2480    1.3550   -0.1500 O   0  0  0  0  0  0  0  0  0  0  0  0
   -2.4630    0.3830   -0.8100 C   0  0  2  0  0  0  0  0  0  0  0  0
   -2.9200    0.3290   -2.1190 O   0  0  0  0  0  0  0  0  0  0  0  0
   -2.6600   -0.9090   -0.0650 C   0  0  0  0  0  0  0  0  0  0  0  0
   -2.3210   -0.6280    1.3890 C   0  0  0  0  0  0  0  0  0  0  0  0
   -0.8160   -0.4890    1.4630 C   0  0  0  0  0  0  0  0  0  0  0  0
   -0.1960   -0.1240    0.1490 C   0  0  2  0  0  0  0  0  0  0  0  0
    1.0150    0.5260    0.3870 O   0  0  0  0  0  0  0  0  0  0  0  0
    2.0970   -0.1900   -0.1130 C   0  0  0  0  0  0  0  0  0  0  0  0
    3.3420    0.6390    0.2190 C   0  0  0  0  0  0  0  0  0  0  0  0
    4.5650   -0.0740   -0.2930 C   0  0  0  0  0  0  0  0  0  0  0  0
    4.6460   -1.3080    0.3160 F   0  0  0  0  0  0  0  0  0  0  0  0
   -1.0370    0.7960   -0.6850 C   0  0  0  0  0  0  0  0  0  0  0  0
  2  1  1  1
  2  3  1  0
  2  4  1  0
  2 13  1  0
  4  5  1  0
  5  6  1  0
  6  7  1  0
  7  8  1  1
  7 13  1  0
  8  9  1  0
  9 10  1  0
 10 11  1  0
 11 12  1  0
M  END
