
     RDKit          3D

 12 12  0  0  0  0  0  0  0  0999 V2000
    1.6960    2.2800    1.7770 O   0  0  0  0  0  0  0  0  0  0  0  0
    1.3970    1.3140    1.0700 C   0  0  0  0  0  0  0  0  0  0  0  0
    2.2870    0.1020    1.0620 C   0  0  0  0  0  0  0  0  0  0  0  0
    2.1210   -0.6410   -0.2510 C   0  0  0  0  0  0  0  0  0  0  0  0
    0.6960   -1.0820   -0.4630 C   0  0  0  0  0  0  0  0  0  0  0  0
   -0.2910   -0.0260   -0.1760 C   0  0  0  0  0  0  0  0  0  0  0  0
   -1.5810   -0.2820   -0.2770 C   0  0  0  0  0  0  0  0  0  0  0  0
   -2.0710   -1.6310   -0.6830 C   0  0  0  0  0  0  0  0  0  0  0  0
   -2.8730   -2.1810    0.3220 O   0  0  0  0  0  0  0  0  0  0  0  0
    0.1850    1.2910    0.2170 C   0  0  0  0  0  0  0  0  0  0  0  0
   -0.4090    2.4010   -0.1480 C   0  0  0  0  0  0  0  0  0  0  0  0
   -1.5240    2.3760   -0.9360 O   0  0  0  0  0  0  0  0  0  0  0  0
  1  2  2  0
  2  3  1  0
  2 10  1  0
  3  4  1  0
  4  5  1  0
  5  6  1  0
  6  7  2  3
  6 10  1  0
  7  8  1  0
  8  9  1  0
 10 11  2  3
 11 12  1  0
M  END
