
     RDKit          3D

 18 19  0  0  0  0  0  0  0  0999 V2000
   -5.4410    0.3000    1.3190 N   0  0  0  0  0  0  0  0  0  0  0  0
   -4.0620    0.4900    1.0840 C   0  0  0  0  0  0  0  0  0  0  0  0
   -3.3920    1.2450    1.8530 O   0  0  0  0  0  0  0  0  0  0  0  0
   -3.3590   -0.1030    0.0450 O   0  0  0  0  0  0  0  0  0  0  0  0
   -2.0030    0.1000   -0.1630 C   0  0  0  0  0  0  0  0  0  0  0  0
   -1.0160   -0.6870    0.3980 C   0  0  0  0  0  0  0  0  0  0  0  0
    0.3230   -0.4630    0.1750 C   0  0  0  0  0  0  0  0  0  0  0  0
    1.3240   -1.2360    0.7240 C   0  0  0  0  0  0  0  0  0  0  0  0
    2.6520   -0.9790    0.4760 C   0  0  0  0  0  0  0  0  0  0  0  0
    3.0020    0.0790   -0.3420 C   0  0  0  0  0  0  0  0  0  0  0  0
    4.6510    0.4640   -0.7000 S   0  0  2  0  0  0  0  0  0  0  0  0
    5.5130   -0.7580   -0.8210 O   0  0  0  0  0  0  0  0  0  0  0  0
    5.2150    1.3840    0.3330 O   0  0  0  0  0  0  0  0  0  0  0  0
    1.9990    0.8480   -0.8880 C   0  0  0  0  0  0  0  0  0  0  0  0
    0.6610    0.6060   -0.6520 C   0  0  0  0  0  0  0  0  0  0  0  0
   -0.2820    1.3840   -1.2080 N   0  0  0  0  0  0  0  0  0  0  0  0
   -1.5770    1.1450   -0.9750 C   0  0  0  0  0  0  0  0  0  0  0  0
   -2.4530    1.8900   -1.5070 O   0  0  0  0  0  0  0  0  0  0  0  0
  1  2  1  0
  2  3  2  0
  2  4  1  0
  4  5  1  0
  5  6  2  0
  5 17  1  0
  6  7  1  0
  7  8  2  0
  7 15  1  0
  8  9  1  0
  9 10  2  0
 11 10  1  1
 10 14  1  0
 11 12  2  0
 11 13  2  0
 14 15  2  0
 15 16  1  0
 16 17  1  0
 17 18  2  0
M  END
