
     RDKit          3D

 22 22  0  0  0  0  0  0  0  0999 V2000
   -6.1150   -0.7080    0.4780 C   0  0  0  0  0  0  0  0  0  0  0  0
   -4.9510   -0.0890    0.5180 C   0  0  0  0  0  0  0  0  0  0  0  0
   -3.7410   -0.9380    0.5520 C   0  0  0  0  0  0  0  0  0  0  0  0
   -2.5550   -0.4010    0.5890 C   0  0  0  0  0  0  0  0  0  0  0  0
   -1.1460   -1.4220    0.6320 S   0  0  1  0  0  0  0  0  0  0  0  0
   -0.1640   -0.7750    1.5690 O   0  0  0  0  0  0  0  0  0  0  0  0
   -1.5740   -2.7320    1.2720 O   0  0  0  0  0  0  0  0  0  0  0  0
   -0.5160   -1.7990   -0.8980 N   0  0  0  0  0  0  0  0  0  0  0  0
    0.4400   -0.8860   -1.3530 N   0  0  0  0  0  0  0  0  0  0  0  0
    1.7040   -0.7200   -0.7490 C   0  0  0  0  0  0  0  0  0  0  0  0
    1.9590   -1.4510    0.2500 O   0  0  0  0  0  0  0  0  0  0  0  0
    2.7390    0.2580   -1.2160 C   0  0  0  0  0  0  0  0  0  0  0  0
    3.8750    0.2070   -0.3500 O   0  0  0  0  0  0  0  0  0  0  0  0
    4.5900   -0.9730   -0.2580 C   0  0  0  0  0  0  0  0  0  0  0  0
    4.1930   -1.9470   -0.9670 O   0  0  0  0  0  0  0  0  0  0  0  0
    5.7690   -1.1290    0.6210 C   0  0  0  0  0  0  0  0  0  0  0  0
    7.0520    0.0680    0.2500 S   0  0  0  0  0  0  0  0  0  0  0  0
    6.4280    1.7040    0.6790 C   0  0  0  0  0  0  0  0  0  0  0  0
   -2.2550    1.3780    0.6010 S   0  0  0  0  0  0  0  0  0  0  0  0
   -3.7770    2.1120   -0.1160 C   0  0  0  0  0  0  0  0  0  0  0  0
   -4.8970    1.3540    0.5230 C   0  0  0  0  0  0  0  0  0  0  0  0
   -5.8470    2.0390    1.1060 C   0  0  0  0  0  0  0  0  0  0  0  0
  1  2  2  0
  2  3  1  0
  2 21  1  0
  3  4  2  0
  4  5  1  0
  4 19  1  0
  5  6  2  0
  5  7  2  0
  5  8  1  6
  8  9  1  0
  9 10  1  0
 10 11  2  0
 10 12  1  0
 12 13  1  0
 13 14  1  0
 14 15  2  0
 14 16  1  0
 16 17  1  0
 17 18  1  0
 19 20  1  0
 20 21  1  0
 21 22  2  0
M  END
