
     RDKit          3D

 28 31  0  0  0  0  0  0  0  0999 V2000
   -3.9250    1.2180    3.3540 C   0  0  0  0  0  0  0  0  0  0  0  0
   -4.1630    0.8470    1.9780 N   0  0  0  0  0  0  0  0  0  0  0  0
   -5.1780   -0.1380    1.6860 C   0  0  0  0  0  0  0  0  0  0  0  0
   -3.4080    1.4490    0.9600 C   0  0  0  0  0  0  0  0  0  0  0  0
   -3.9240    2.6150    0.4110 C   0  0  0  0  0  0  0  0  0  0  0  0
   -5.0490    3.3730    0.6270 C   0  0  0  0  0  0  0  0  0  0  0  0
   -5.9530    3.1530    1.4560 O   0  0  0  0  0  0  0  0  0  0  0  0
   -5.0050    4.4060   -0.2220 N   0  0  0  0  0  0  0  0  0  0  0  0
   -3.9050    4.3090   -0.9420 O   0  0  0  0  0  0  0  0  0  0  0  0
   -3.2150    3.2430   -0.5980 C   0  0  0  0  0  0  0  0  0  0  0  0
   -2.0560    2.6950   -1.0050 N   0  0  0  0  0  0  0  0  0  0  0  0
   -1.5820    1.5500   -0.4410 C   0  0  0  0  0  0  0  0  0  0  0  0
   -0.4880    0.8030   -0.6430 N   0  0  0  0  0  0  0  0  0  0  0  0
   -0.4370   -0.2650    0.1640 C   0  0  0  0  0  0  0  0  0  0  0  0
    0.5590   -1.3240    0.2810 C   0  0  0  0  0  0  0  0  0  0  0  0
    0.3230   -2.2280    1.1630 O   0  0  0  0  0  0  0  0  0  0  0  0
    1.7360   -1.4480   -0.4680 N   0  0  0  0  0  0  0  0  0  0  0  0
    2.6000   -2.6120   -0.1970 C   0  0  0  0  0  0  0  0  0  0  0  0
    4.0300   -2.2470    0.0020 C   0  0  0  0  0  0  0  0  0  0  0  0
    4.4700   -1.2570   -0.9350 N   0  0  0  0  0  0  0  0  0  0  0  0
    5.8590   -1.2970   -1.3010 C   0  0  0  0  0  0  0  0  0  0  0  0
    6.2980   -1.9460   -2.3620 C   0  0  0  0  0  0  0  0  0  0  0  0
    5.4450   -2.6780   -3.2630 C   0  0  0  0  0  0  0  0  0  0  0  0
    4.1960   -2.7660   -3.1230 O   0  0  0  0  0  0  0  0  0  0  0  0
    3.6380   -0.2550   -1.5100 C   0  0  0  0  0  0  0  0  0  0  0  0
    2.1640   -0.5280   -1.4790 C   0  0  0  0  0  0  0  0  0  0  0  0
   -1.5830   -0.1610    0.9120 N   0  0  0  0  0  0  0  0  0  0  0  0
   -2.2470    0.9170    0.5400 N   0  0  0  0  0  0  0  0  0  0  0  0
  1  2  1  0
  2  3  1  0
  2  4  1  0
  4  5  2  0
  4 28  1  0
  5  6  1  0
  5 10  1  0
  6  7  2  0
  6  8  1  0
  8  9  1  0
  9 10  1  0
 10 11  2  0
 11 12  1  0
 12 13  2  0
 12 28  1  0
 13 14  1  0
 14 15  1  0
 14 27  2  0
 15 16  2  0
 15 17  1  0
 17 18  1  0
 17 26  1  0
 18 19  1  0
 19 20  1  0
 20 21  1  0
 20 25  1  0
 21 22  2  3
 22 23  1  0
 23 24  2  0
 25 26  1  0
 27 28  1  0
M  END
