
     RDKit          3D

 28 31  0  0  0  0  0  0  0  0999 V2000
    6.1080    3.6860    0.3060 C   0  0  0  0  0  0  0  0  0  0  0  0
    5.3200    2.4380    0.1840 C   0  0  0  0  0  0  0  0  0  0  0  0
    5.8440    1.2010    0.2710 N   0  0  0  0  0  0  0  0  0  0  0  0
    4.8900    0.3410    0.1210 N   0  0  0  0  0  0  0  0  0  0  0  0
    3.7450    0.9400   -0.0640 C   0  0  0  0  0  0  0  0  0  0  0  0
    2.3940    0.4680   -0.2790 C   0  0  0  0  0  0  0  0  0  0  0  0
    1.3960    1.3970   -0.4420 N   0  0  0  0  0  0  0  0  0  0  0  0
    0.1130    1.1050   -0.6470 C   0  0  0  0  0  0  0  0  0  0  0  0
   -0.3350   -0.1610   -0.7150 N   0  0  0  0  0  0  0  0  0  0  0  0
   -1.7250   -0.4150   -0.9370 C   0  0  0  0  0  0  0  0  0  0  0  0
   -2.4960   -0.5140    0.2640 N   0  0  0  0  0  0  0  0  0  0  0  0
   -2.4860    0.6490    1.0860 C   0  0  0  0  0  0  0  0  0  0  0  0
   -3.2850    1.8000    0.5180 C   0  0  0  0  0  0  0  0  0  0  0  0
   -4.7370    1.3780    0.4460 C   0  0  0  0  0  0  0  0  0  0  0  0
   -5.0210    0.8070   -0.8250 N   0  0  0  0  0  0  0  0  0  0  0  0
   -4.9060    1.6360   -1.8610 O   0  0  0  0  0  0  0  0  0  0  0  0
   -4.5880   -0.5200   -1.0330 C   0  0  0  0  0  0  0  0  0  0  0  0
   -3.7710   -1.1170    0.0660 C   0  0  0  0  0  0  0  0  0  0  0  0
    0.5830   -1.1300   -0.5650 C   0  0  0  0  0  0  0  0  0  0  0  0
    0.2200   -2.4150   -0.6190 N   0  0  0  0  0  0  0  0  0  0  0  0
    1.1450   -3.3700   -0.4680 C   0  0  0  0  0  0  0  0  0  0  0  0
    0.7930   -4.5950   -0.5200 O   0  0  0  0  0  0  0  0  0  0  0  0
    2.4330   -3.1380   -0.2620 N   0  0  0  0  0  0  0  0  0  0  0  0
    3.3870   -4.2490   -0.1050 C   0  0  0  0  0  0  0  0  0  0  0  0
    2.9110   -1.8770   -0.1890 C   0  0  0  0  0  0  0  0  0  0  0  0
    4.1230   -1.6690    0.0040 O   0  0  0  0  0  0  0  0  0  0  0  0
    2.0210   -0.8430   -0.3350 C   0  0  0  0  0  0  0  0  0  0  0  0
    4.0560    2.2500   -0.0180 O   0  0  0  0  0  0  0  0  0  0  0  0
  1  2  1  0
  2  3  2  0
  2 28  1  0
  3  4  1  0
  4  5  2  0
  5  6  1  0
  5 28  1  0
  6  7  1  0
  6 27  2  0
  7  8  2  0
  8  9  1  0
  9 10  1  0
  9 19  1  0
 10 11  1  0
 11 12  1  0
 11 18  1  0
 12 13  1  0
 13 14  1  0
 14 15  1  0
 15 16  1  0
 15 17  1  0
 17 18  1  0
 19 20  2  0
 19 27  1  0
 20 21  1  0
 21 22  2  0
 21 23  1  0
 23 24  1  0
 23 25  1  0
 25 26  2  0
 25 27  1  0
M  END
