
     RDKit          3D

 24 26  0  0  0  0  0  0  0  0999 V2000
    0.8370   -1.9900   -3.3260 C   0  0  0  0  0  0  0  0  0  0  0  0
    1.7170   -1.7380   -2.1080 C   0  0  2  0  0  0  0  0  0  0  0  0
    1.6680   -2.7380   -1.1770 O   0  0  0  0  0  0  0  0  0  0  0  0
    1.3730   -0.3650   -1.5970 C   0  0  1  0  0  0  0  0  0  0  0  0
   -0.0680   -0.2710   -1.2150 C   0  0  0  0  0  0  0  0  0  0  0  0
   -0.5140   -1.2220   -0.1320 C   0  0  0  0  0  0  0  0  0  0  0  0
   -1.9490   -0.9530    0.1200 C   0  0  0  0  0  0  0  0  0  0  0  0
   -2.9400   -1.7490   -0.4560 C   0  0  0  0  0  0  0  0  0  0  0  0
   -4.2760   -1.5150   -0.2730 C   0  0  0  0  0  0  0  0  0  0  0  0
   -4.6840   -0.4650    0.5010 C   0  0  0  0  0  0  0  0  0  0  0  0
   -3.7300    0.3470    1.0900 C   0  0  0  0  0  0  0  0  0  0  0  0
   -4.1560    1.4060    1.8810 C   0  0  0  0  0  0  0  0  0  0  0  0
   -3.1850    2.1870    2.4580 C   0  0  0  0  0  0  0  0  0  0  0  0
   -1.8470    1.9680    2.2880 C   0  0  0  0  0  0  0  0  0  0  0  0
   -1.4310    0.9170    1.5030 C   0  0  0  0  0  0  0  0  0  0  0  0
   -2.3650    0.1010    0.8990 C   0  0  0  0  0  0  0  0  0  0  0  0
    2.2600    0.1060   -0.5550 N   0  0  0  0  0  0  0  0  0  0  0  0
    3.0090   -0.6210    0.2840 C   0  0  0  0  0  0  0  0  0  0  0  0
    3.7030    0.2010    1.1140 N   0  0  0  0  0  0  0  0  0  0  0  0
    3.3900    1.4680    0.7970 C   0  0  0  0  0  0  0  0  0  0  0  0
    3.9230    2.6800    1.4560 C   0  0  0  0  0  0  0  0  0  0  0  0
    4.8400    2.6260    2.5080 N   0  0  0  0  0  0  0  0  0  0  0  0
    3.5280    3.8080    1.0450 O   0  0  0  0  0  0  0  0  0  0  0  0
    2.4970    1.3920   -0.2370 C   0  0  0  0  0  0  0  0  0  0  0  0
  2  1  1  6
  2  3  1  0
  2  4  1  0
  4  5  1  1
  4 17  1  0
  5  6  1  0
  6  7  1  0
  7  8  2  0
  7 16  1  0
  8  9  1  0
  9 10  2  0
 10 11  1  0
 11 12  2  0
 11 16  1  0
 12 13  1  0
 13 14  2  0
 14 15  1  0
 15 16  2  0
 17 18  1  0
 17 24  1  0
 18 19  2  0
 19 20  1  0
 20 21  1  0
 20 24  2  0
 21 22  1  0
 21 23  2  0
M  END
