
     RDKit          3D

 13 14  0  0  0  0  0  0  0  0999 V2000
    3.0500   -1.7410   -0.4440 N   0  0  0  0  0  0  0  0  0  0  0  0
    2.9210   -0.3190   -0.1190 C   0  0  0  0  0  0  0  0  0  0  0  0
    1.7830    0.1400    0.3430 C   0  0  0  0  0  0  0  0  0  0  0  0
    0.5250   -0.6280    0.6010 C   0  0  0  0  0  0  0  0  0  0  0  0
   -0.5050   -0.0470   -0.2270 N   0  0  0  0  0  0  0  0  0  0  0  0
   -1.7330   -0.7790    0.0030 C   0  0  2  0  0  0  0  0  0  0  0  0
   -2.7920   -0.4140   -1.0200 C   0  0  0  0  0  0  0  0  0  0  0  0
   -3.8590    0.3730   -0.3160 C   0  0  0  0  0  0  0  0  0  0  0  0
   -3.1320    0.8700    0.9140 C   0  0  0  0  0  0  0  0  0  0  0  0
   -2.3670   -0.3980    1.3100 C   0  0  0  0  0  0  0  0  0  0  0  0
    2.0140    1.9050    0.6010 S   0  0  0  0  0  0  0  0  0  0  0  0
    3.5260    2.0190   -0.4540 C   0  0  0  0  0  0  0  0  0  0  0  0
    4.0150    0.6200   -0.2760 C   0  0  0  0  0  0  0  0  0  0  0  0
  1  2  1  0
  2  3  2  0
  2 13  1  0
  3  4  1  0
  3 11  1  0
  4  5  1  0
  6  5  1  6
  6  7  1  0
  6 10  1  0
  7  8  1  0
  8  9  1  0
  9 10  1  0
 11 12  1  0
 12 13  1  0
M  END
