
     RDKit          3D

 28 31  0  0  0  0  0  0  0  0999 V2000
   -0.6980    1.4780   -4.2910 C   0  0  0  0  0  0  0  0  0  0  0  0
   -0.3470    0.8500   -3.0820 O   0  0  0  0  0  0  0  0  0  0  0  0
   -0.7370   -0.4600   -2.7810 C   0  0  0  0  0  0  0  0  0  0  0  0
   -1.4220   -1.0610   -3.6400 O   0  0  0  0  0  0  0  0  0  0  0  0
   -0.3810   -1.1320   -1.5340 C   0  0  2  0  0  0  0  0  0  0  0  0
   -1.5100   -1.6850   -0.7230 C   0  0  0  0  0  0  0  0  0  0  0  0
   -2.3360   -0.6660   -0.2230 N   0  0  0  0  0  0  0  0  0  0  0  0
   -3.1470    0.0820   -1.0880 C   0  0  0  0  0  0  0  0  0  0  0  0
   -4.4430    0.5840   -0.4760 C   0  0  0  0  0  0  0  0  0  0  0  0
   -4.4640    0.5970    0.9430 N   0  0  0  0  0  0  0  0  0  0  0  0
   -5.3540   -0.3570    1.5430 C   0  0  0  0  0  0  0  0  0  0  0  0
   -3.2010    0.7500    1.5790 C   0  0  0  0  0  0  0  0  0  0  0  0
   -2.1540   -0.2260    1.1060 C   0  0  0  0  0  0  0  0  0  0  0  0
    0.3820   -0.2720   -0.6680 O   0  0  0  0  0  0  0  0  0  0  0  0
    1.6980   -0.6030   -0.3430 C   0  0  0  0  0  0  0  0  0  0  0  0
    2.1390   -1.6560   -0.8390 O   0  0  0  0  0  0  0  0  0  0  0  0
    2.5130    0.2350    0.5250 C   0  0  0  0  0  0  0  0  0  0  0  0
    2.1480    1.3880    1.1820 C   0  0  0  0  0  0  0  0  0  0  0  0
    3.2190    1.8480    1.8820 N   0  0  0  0  0  0  0  0  0  0  0  0
    4.2380    1.0330    1.6910 N   0  0  0  0  0  0  0  0  0  0  0  0
    3.8360    0.0320    0.8610 C   0  0  0  0  0  0  0  0  0  0  0  0
    4.7140   -0.9720    0.4830 C   0  0  0  0  0  0  0  0  0  0  0  0
    5.9740   -0.9330    0.9550 N   0  0  0  0  0  0  0  0  0  0  0  0
    6.3670    0.0430    1.7640 N   0  0  0  0  0  0  0  0  0  0  0  0
    7.5360    0.2800    2.3370 N   0  0  0  0  0  0  0  0  0  0  0  0
    7.4550    1.4170    3.0880 C   0  0  0  0  0  0  0  0  0  0  0  0
    6.1900    1.8400    2.9330 N   0  0  0  0  0  0  0  0  0  0  0  0
    5.4970    1.0150    2.1230 C   0  0  0  0  0  0  0  0  0  0  0  0
  1  2  1  0
  2  3  1  0
  3  4  2  0
  3  5  1  0
  5  6  1  1
  5 14  1  0
  6  7  1  0
  7  8  1  0
  7 13  1  0
  8  9  1  0
  9 10  1  0
 10 11  1  0
 10 12  1  0
 12 13  1  0
 14 15  1  0
 15 16  2  0
 15 17  1  0
 17 18  1  0
 17 21  2  0
 18 19  2  0
 19 20  1  0
 20 21  1  0
 20 28  1  0
 21 22  1  0
 22 23  2  0
 23 24  1  0
 24 25  1  0
 24 28  1  0
 25 26  2  0
 26 27  1  0
 27 28  2  0
M  END
