
     RDKit          3D

 11 11  0  0  0  0  0  0  0  0999 V2000
    3.6590    0.0760   -0.3110 O   0  0  0  0  0  0  0  0  0  0  0  0
    2.5730    0.9570   -0.2090 C   0  0  0  0  0  0  0  0  0  0  0  0
    1.4950    0.2540    0.6270 C   0  0  2  0  0  0  0  0  0  0  0  0
    1.0750   -0.9020    0.0680 O   0  0  0  0  0  0  0  0  0  0  0  0
   -0.0070   -0.8400   -0.7640 C   0  0  0  0  0  0  0  0  0  0  0  0
   -1.0920    0.0840   -0.2760 C   0  0  1  0  0  0  0  0  0  0  0  0
   -2.4570   -0.5520   -0.3020 C   0  0  0  0  0  0  0  0  0  0  0  0
   -3.3700    0.3920    0.1670 O   0  0  0  0  0  0  0  0  0  0  0  0
   -0.6840    0.4900    1.1280 C   0  0  1  0  0  0  0  0  0  0  0  0
   -0.3540   -0.6850    1.8300 O   0  0  0  0  0  0  0  0  0  0  0  0
    0.5330    1.1750    0.9510 O   0  0  0  0  0  0  0  0  0  0  0  0
  1  2  1  0
  3  2  1  6
  3  4  1  0
  3 11  1  0
  4  5  1  0
  5  6  1  0
  6  7  1  1
  6  9  1  0
  7  8  1  0
  9 10  1  1
  9 11  1  0
M  END
