
     RDKit          3D

 16 16  0  0  0  0  0  0  0  0999 V2000
    2.0130    2.0340    0.2990 N   0  0  0  0  0  0  0  0  0  0  0  0
    1.7420    0.9360    1.1650 C   0  0  0  0  0  0  0  0  0  0  0  0
    1.0890   -0.2560    0.5180 C   0  0  2  0  0  0  0  0  0  0  0  0
    0.9480   -1.1880    1.5760 O   0  0  0  0  0  0  0  0  0  0  0  0
    2.0860   -0.8220   -0.4680 C   0  0  0  0  0  0  0  0  0  0  0  0
    3.3200   -1.0260    0.1550 O   0  0  0  0  0  0  0  0  0  0  0  0
   -0.2570   -0.0150   -0.0810 C   0  0  2  0  0  0  0  0  0  0  0  0
   -0.8790   -1.2520   -0.6880 C   0  0  2  0  0  0  0  0  0  0  0  0
   -2.1010   -0.8040   -1.1970 O   0  0  0  0  0  0  0  0  0  0  0  0
   -1.1150   -2.3900    0.2210 C   0  0  0  0  0  0  0  0  0  0  0  0
   -1.7680   -3.4320   -0.4910 O   0  0  0  0  0  0  0  0  0  0  0  0
   -0.2360    0.9770   -1.2240 C   0  0  0  0  0  0  0  0  0  0  0  0
   -0.3540    2.2980   -0.8280 O   0  0  0  0  0  0  0  0  0  0  0  0
   -1.6530    2.4480   -0.3410 C   0  0  0  0  0  0  0  0  0  0  0  0
   -2.0670    1.3310    0.5560 C   0  0  0  0  0  0  0  0  0  0  0  0
   -1.0800    0.4610    0.9000 O   0  0  0  0  0  0  0  0  0  0  0  0
  1  2  1  0
  2  3  1  0
  3  4  1  1
  3  5  1  0
  3  7  1  0
  5  6  1  0
  7  8  1  0
  7 12  1  6
  7 16  1  0
  8  9  1  1
  8 10  1  0
 10 11  1  0
 12 13  1  0
 13 14  1  0
 14 15  1  0
 15 16  1  0
M  END
