
     RDKit          3D

 24 26  0  0  0  0  0  0  0  0999 V2000
   -5.6560   -2.4730    0.3340 C   0  0  0  0  0  0  0  0  0  0  0  0
   -5.0270   -1.6560   -0.5920 O   0  0  0  0  0  0  0  0  0  0  0  0
   -3.7610   -1.3360   -0.1090 C   0  0  0  0  0  0  0  0  0  0  0  0
   -3.0640   -0.5110   -0.9910 O   0  0  0  0  0  0  0  0  0  0  0  0
   -1.8370   -0.2440   -0.4480 C   0  0  1  0  0  0  0  0  0  0  0  0
   -0.6850   -0.7760   -1.3100 C   0  0  0  0  0  0  0  0  0  0  0  0
    0.5630   -0.5740   -0.4990 C   0  0  1  0  0  0  0  0  0  0  0  0
    1.7180   -0.8780   -1.1690 O   0  0  0  0  0  0  0  0  0  0  0  0
    2.7370   -1.0410   -0.2030 C   0  0  1  0  0  0  0  0  0  0  0  0
    3.8560   -1.7070   -0.8770 C   0  0  0  0  0  0  0  0  0  0  0  0
    5.1740   -1.6440   -0.7710 C   0  0  0  0  0  0  0  0  0  0  0  0
    5.9040   -0.7880    0.1610 C   0  0  0  0  0  0  0  0  0  0  0  0
    5.4340    0.0720    1.0510 C   0  0  0  0  0  0  0  0  0  0  0  0
    4.0890    0.3290    1.2710 O   0  0  0  0  0  0  0  0  0  0  0  0
    3.0540    0.3230    0.3230 C   0  0  2  0  0  0  0  0  0  0  0  0
    1.8030    0.8340    1.0350 C   0  0  1  0  0  0  0  0  0  0  0  0
    2.0150    2.0610    1.6240 O   0  0  0  0  0  0  0  0  0  0  0  0
    0.6940    0.8620    0.0050 C   0  0  2  0  0  0  0  0  0  0  0  0
   -0.4540    1.3140    0.6080 O   0  0  0  0  0  0  0  0  0  0  0  0
   -1.5590    1.2240   -0.2450 C   0  0  2  0  0  0  0  0  0  0  0  0
   -2.7390    1.9750    0.2860 C   0  0  0  0  0  0  0  0  0  0  0  0
   -2.3470    3.3990    0.4430 C   0  0  0  0  0  0  0  0  0  0  0  0
   -1.1930    3.8110    0.1530 O   0  0  0  0  0  0  0  0  0  0  0  0
   -3.2460    4.3400    0.9210 O   0  0  0  0  0  0  0  0  0  0  0  0
  1  2  1  0
  2  3  1  0
  3  4  1  0
  5  4  1  6
  5  6  1  0
  5 20  1  0
  7  6  1  6
  7  8  1  0
  7 18  1  0
  9  8  1  6
  9 10  1  0
  9 15  1  0
 10 11  2  0
 11 12  1  0
 12 13  2  0
 13 14  1  0
 15 14  1  1
 15 16  1  0
 16 17  1  6
 16 18  1  0
 18 19  1  1
 19 20  1  0
 20 21  1  1
 21 22  1  0
 22 23  2  0
 22 24  1  0
M  END
