
     RDKit          3D

 24 25  0  0  0  0  0  0  0  0999 V2000
    5.8520   -0.2810   -1.0410 O   0  0  0  0  0  0  0  0  0  0  0  0
    6.0720   -1.3360   -0.4180 C   0  0  0  0  0  0  0  0  0  0  0  0
    7.1940   -2.2170   -0.8260 C   0  0  0  0  0  0  0  0  0  0  0  0
    7.8490   -1.6600   -1.9180 O   0  0  0  0  0  0  0  0  0  0  0  0
    5.2460   -1.6440    0.6450 O   0  0  0  0  0  0  0  0  0  0  0  0
    4.1650   -0.8560    1.0860 C   0  0  0  0  0  0  0  0  0  0  0  0
    3.1060   -0.6580    0.0280 C   0  0  0  0  0  0  0  0  0  0  0  0
    2.0260    0.1690    0.5770 C   0  0  0  0  0  0  0  0  0  0  0  0
    2.1150    0.5750    1.7640 O   0  0  0  0  0  0  0  0  0  0  0  0
    0.9030    0.5260   -0.1620 O   0  0  0  0  0  0  0  0  0  0  0  0
   -0.0620    1.3120    0.4480 C   0  0  1  0  0  0  0  0  0  0  0  0
   -0.1100    2.6420   -0.2900 C   0  0  0  0  0  0  0  0  0  0  0  0
   -0.9420    3.5560    0.5880 C   0  0  0  0  0  0  0  0  0  0  0  0
   -2.3750    3.0230    0.4430 C   0  0  0  0  0  0  0  0  0  0  0  0
   -2.3970    1.6610    1.0580 C   0  0  2  0  0  0  0  0  0  0  0  0
   -2.0180    1.8500    2.4140 O   0  0  0  0  0  0  0  0  0  0  0  0
   -1.4280    0.6920    0.4940 C   0  0  1  0  0  0  0  0  0  0  0  0
   -1.8080    0.0620   -0.8010 C   0  0  0  0  0  0  0  0  0  0  0  0
   -3.1480   -0.5780   -0.8440 C   0  0  2  0  0  0  0  0  0  0  0  0
   -3.3040   -1.6980    0.1700 C   0  0  0  0  0  0  0  0  0  0  0  0
   -4.2750   -2.6400   -0.5220 C   0  0  1  0  0  0  0  0  0  0  0  0
   -5.4400   -2.8060    0.2040 O   0  0  0  0  0  0  0  0  0  0  0  0
   -4.5620   -1.8920   -1.8120 C   0  0  0  0  0  0  0  0  0  0  0  0
   -3.3180   -1.2750   -2.0400 O   0  0  0  0  0  0  0  0  0  0  0  0
  1  2  2  0
  2  3  1  0
  2  5  1  0
  3  4  1  0
  5  6  1  0
  6  7  1  0
  7  8  1  0
  8  9  2  0
  8 10  1  0
 11 10  1  6
 11 12  1  0
 11 17  1  0
 12 13  1  0
 13 14  1  0
 14 15  1  0
 15 16  1  1
 15 17  1  0
 17 18  1  6
 19 18  1  6
 19 20  1  0
 19 24  1  0
 20 21  1  0
 21 22  1  1
 21 23  1  0
 23 24  1  0
M  END
