
     RDKit          3D

 16 16  0  0  0  0  0  0  0  0999 V2000
   -0.9400   -1.5300    1.3600 C   0  0  0  0  0  0  0  0  0  0  0  0
   -0.9480   -0.6530    0.1440 C   0  0  1  0  0  0  0  0  0  0  0  0
   -0.6870   -1.4020   -0.9730 O   0  0  0  0  0  0  0  0  0  0  0  0
   -2.4250   -0.1250    0.0550 C   0  0  2  0  0  0  0  0  0  0  0  0
   -3.3100   -1.0710    0.5110 O   0  0  0  0  0  0  0  0  0  0  0  0
   -2.5270    0.1890   -1.2820 O   0  0  0  0  0  0  0  0  0  0  0  0
   -1.8500    1.3730   -1.4910 C   0  0  0  0  0  0  0  0  0  0  0  0
   -0.5950    1.6090   -0.7650 C   0  0  0  0  0  0  0  0  0  0  0  0
   -0.1450    0.5940    0.2520 C   0  0  1  0  0  0  0  0  0  0  0  0
    0.0510    1.1700    1.6070 C   0  0  0  0  0  0  0  0  0  0  0  0
    0.7300    0.2640    2.4440 O   0  0  0  0  0  0  0  0  0  0  0  0
    1.2870    0.2520   -0.2260 C   0  0  1  0  0  0  0  0  0  0  0  0
    2.0450    1.4120   -0.0520 O   0  0  0  0  0  0  0  0  0  0  0  0
    1.9380   -1.0040    0.0460 C   0  0  0  0  0  0  0  0  0  0  0  0
    3.2650   -0.6620   -0.4530 O   0  0  0  0  0  0  0  0  0  0  0  0
    3.4790   -1.4400   -1.5960 N   0  0  0  0  0  0  0  0  0  0  0  0
  2  1  1  1
  2  3  1  0
  2  4  1  0
  2  9  1  0
  4  5  1  6
  4  6  1  0
  6  7  1  0
  7  8  1  0
  8  9  1  0
  9 10  1  1
  9 12  1  0
 10 11  1  0
 12 13  1  1
 12 14  1  0
 14 15  1  0
 15 16  1  0
M  END
