
     RDKit          3D

 27 29  0  0  0  0  0  0  0  0999 V2000
    7.6130    0.8030    0.9030 N   0  0  0  0  0  0  0  0  0  0  0  0
    6.4320    0.0250    0.8100 C   0  0  0  0  0  0  0  0  0  0  0  0
    6.4680   -1.3330    0.7120 N   0  0  0  0  0  0  0  0  0  0  0  0
    5.3130   -2.0600    0.5530 C   0  0  0  0  0  0  0  0  0  0  0  0
    4.1190   -1.4620    0.4790 N   0  0  0  0  0  0  0  0  0  0  0  0
    4.0520   -0.1400    0.5680 C   0  0  0  0  0  0  0  0  0  0  0  0
    5.1770    0.6440    0.7380 C   0  0  0  0  0  0  0  0  0  0  0  0
    4.7770    1.9130    0.7750 N   0  0  0  0  0  0  0  0  0  0  0  0
    3.4510    1.9290    0.6280 C   0  0  0  0  0  0  0  0  0  0  0  0
    2.9840    0.6820    0.4920 N   0  0  0  0  0  0  0  0  0  0  0  0
    1.6560    0.3550    0.1360 C   0  0  2  0  0  0  0  0  0  0  0  0
    0.7840   -0.3380    0.9220 O   0  0  0  0  0  0  0  0  0  0  0  0
   -0.2750   -0.4160    0.0500 C   0  0  2  0  0  0  0  0  0  0  0  0
   -1.5670   -0.8480    0.5800 C   0  0  0  0  0  0  0  0  0  0  0  0
   -2.4840   -0.9440   -0.5080 O   0  0  0  0  0  0  0  0  0  0  0  0
   -3.5980    0.1880   -0.3610 P   0  0  0  0  0  0  0  0  0  0  0  0
   -4.6240    0.4640   -1.6700 O   0  0  0  0  0  0  0  0  0  0  0  0
   -3.5580    1.3550    0.8010 O   0  0  0  0  0  0  0  0  0  0  0  0
   -4.6720   -0.5960    0.2960 O   0  0  0  0  0  0  0  0  0  0  0  0
   -6.1380   -0.0520    0.4070 P   0  0  0  0  0  0  0  0  0  0  0  0
   -6.4700   -0.6630   -1.0920 O   0  0  0  0  0  0  0  0  0  0  0  0
   -5.6180    1.5020    0.5470 O   0  0  0  0  0  0  0  0  0  0  0  0
   -6.3820   -0.9350    1.7590 O   0  0  0  0  0  0  0  0  0  0  0  0
    0.2770   -1.0180   -1.1850 C   0  0  1  0  0  0  0  0  0  0  0  0
   -0.3270   -0.3720   -2.2920 O   0  0  0  0  0  0  0  0  0  0  0  0
    1.7240   -0.5760   -1.1210 C   0  0  1  0  0  0  0  0  0  0  0  0
    2.1260    0.1920   -2.1660 O   0  0  0  0  0  0  0  0  0  0  0  0
  1  2  1  0
  2  3  2  0
  2  7  1  0
  3  4  1  0
  4  5  2  0
  5  6  1  0
  6  7  2  0
  6 10  1  0
  7  8  1  0
  8  9  2  0
  9 10  1  0
 11 10  1  1
 11 12  1  0
 11 26  1  0
 12 13  1  0
 13 14  1  1
 13 24  1  0
 14 15  1  0
 15 16  1  0
 16 17  1  0
 16 18  1  0
 16 19  1  0
 19 20  1  0
 20 21  1  0
 20 22  1  0
 20 23  1  0
 24 25  1  6
 24 26  1  0
 26 27  1  6
M  END
