
     RDKit          3D

 20 21  0  0  0  0  0  0  0  0999 V2000
   -3.4520    3.0820   -1.4310 O   0  0  0  0  0  0  0  0  0  0  0  0
   -3.6350    2.0870   -0.8100 C   0  0  0  0  0  0  0  0  0  0  0  0
   -3.3120    0.6860   -1.2850 C   0  0  0  0  0  0  0  0  0  0  0  0
   -3.1390   -0.0260    0.0280 C   0  0  2  0  0  0  0  0  0  0  0  0
   -4.2120    0.5750    0.8480 C   0  0  0  0  0  0  0  0  0  0  0  0
   -4.1540    1.9360    0.4570 O   0  0  0  0  0  0  0  0  0  0  0  0
   -1.8620    0.1690    0.5970 O   0  0  0  0  0  0  0  0  0  0  0  0
   -1.1160   -0.7840   -0.0380 C   0  0  1  0  0  0  0  0  0  0  0  0
    0.2310   -1.0990    0.4720 C   0  0  0  0  0  0  0  0  0  0  0  0
    0.4210   -1.7700    1.4820 O   0  0  0  0  0  0  0  0  0  0  0  0
    1.3280   -0.5880   -0.2950 N   0  0  0  0  0  0  0  0  0  0  0  0
    2.6720   -1.0360    0.1040 C   0  0  0  0  0  0  0  0  0  0  0  0
    3.7300   -0.3150   -0.7430 C   0  0  0  0  0  0  0  0  0  0  0  0
    3.4730    1.0350   -0.2360 O   0  0  0  0  0  0  0  0  0  0  0  0
    4.9980    1.4480    0.4500 P   0  0  0  0  0  0  0  0  0  0  0  0
    5.8930    0.0830    0.9170 O   0  0  0  0  0  0  0  0  0  0  0  0
    5.2780    2.9590    1.0780 O   0  0  0  0  0  0  0  0  0  0  0  0
   -1.9770   -1.9720    0.1860 N   0  0  0  0  0  0  0  0  0  0  0  0
   -3.2670   -1.5160   -0.0800 C   0  0  0  0  0  0  0  0  0  0  0  0
   -4.2600   -2.1890   -0.3430 O   0  0  0  0  0  0  0  0  0  0  0  0
  1  2  2  0
  2  3  1  0
  2  6  1  0
  4  3  1  6
  4  5  1  0
  4  7  1  0
  4 19  1  0
  5  6  1  0
  7  8  1  0
  8  9  1  1
  8 18  1  0
  9 10  2  0
  9 11  1  0
 11 12  1  0
 12 13  1  0
 13 14  1  0
 14 15  1  0
 15 16  1  0
 15 17  1  0
 18 19  1  0
 19 20  2  0
M  END
