
     RDKit          3D

  9  9  0  0  0  0  0  0  0  0999 V2000
    3.5590   -0.5870    0.0870 C   0  0  0  0  0  0  0  0  0  0  0  0
    2.1710   -0.7910   -0.1080 O   0  0  0  0  0  0  0  0  0  0  0  0
    1.2820    0.2570   -0.2790 C   0  0  0  0  0  0  0  0  0  0  0  0
    1.7300    1.4230   -0.2590 O   0  0  0  0  0  0  0  0  0  0  0  0
   -0.1380   -0.0600   -0.4740 C   0  0  2  0  0  0  0  0  0  0  0  0
   -1.0080    1.1400   -0.6480 C   0  0  0  0  0  0  0  0  0  0  0  0
   -2.3740    0.7630   -0.0860 C   0  0  0  0  0  0  0  0  0  0  0  0
   -2.2240   -0.6690    0.3770 C   0  0  0  0  0  0  0  0  0  0  0  0
   -0.7580   -0.7140    0.7680 C   0  0  0  0  0  0  0  0  0  0  0  0
  1  2  1  0
  2  3  1  0
  3  4  2  0
  5  3  1  1
  5  6  1  0
  5  9  1  0
  6  7  1  0
  7  8  1  0
  8  9  1  0
M  END
