
     RDKit          3D

 17 18  0  0  0  0  0  0  0  0999 V2000
    0.6230   -0.9600   -2.1340 C   0  0  0  0  0  0  0  0  0  0  0  0
    0.2460   -0.9520   -0.6680 C   0  0  1  0  0  0  0  0  0  0  0  0
    0.2350   -2.4030   -0.2200 C   0  0  0  0  0  0  0  0  0  0  0  0
    1.2660   -0.1910    0.0910 C   0  0  0  0  0  0  0  0  0  0  0  0
    1.5410    1.1400   -0.1390 C   0  0  0  0  0  0  0  0  0  0  0  0
    2.4940    1.8310    0.5780 C   0  0  0  0  0  0  0  0  0  0  0  0
    3.2280    1.2220    1.5720 C   0  0  0  0  0  0  0  0  0  0  0  0
    4.1910    1.9230    2.2970 O   0  0  0  0  0  0  0  0  0  0  0  0
    2.9660   -0.1090    1.8150 C   0  0  0  0  0  0  0  0  0  0  0  0
    2.0020   -0.8000    1.0860 C   0  0  0  0  0  0  0  0  0  0  0  0
   -1.1210   -0.4350   -0.4610 C   0  0  0  0  0  0  0  0  0  0  0  0
   -1.7840    0.0620   -1.5620 C   0  0  0  0  0  0  0  0  0  0  0  0
   -3.0820    0.5710   -1.4560 C   0  0  0  0  0  0  0  0  0  0  0  0
   -3.7240    0.5860   -0.2480 C   0  0  0  0  0  0  0  0  0  0  0  0
   -5.0150    1.0980   -0.1760 O   0  0  0  0  0  0  0  0  0  0  0  0
   -3.0670    0.0880    0.8660 C   0  0  0  0  0  0  0  0  0  0  0  0
   -1.7710   -0.4150    0.7320 C   0  0  0  0  0  0  0  0  0  0  0  0
  2  1  1  6
  2  3  1  0
  2  4  1  0
  2 11  1  0
  4  5  2  0
  4 10  1  0
  5  6  1  0
  6  7  2  0
  7  8  1  0
  7  9  1  0
  9 10  2  0
 11 12  2  0
 11 17  1  0
 12 13  1  0
 13 14  2  0
 14 15  1  0
 14 16  1  0
 16 17  2  0
M  END
