
     RDKit          3D

 30 32  0  0  0  0  0  0  0  0999 V2000
    1.5350   -1.6610   -1.4370 C   0  0  0  0  0  0  0  0  0  0  0  0
    1.3750   -0.7030   -0.2810 C   0  0  1  0  0  0  0  0  0  0  0  0
    0.3920    0.2660   -0.5090 O   0  0  0  0  0  0  0  0  0  0  0  0
   -0.9220   -0.1080   -0.7420 C   0  0  0  0  0  0  0  0  0  0  0  0
   -1.1760   -1.3370   -0.7380 O   0  0  0  0  0  0  0  0  0  0  0  0
   -1.9630    0.9420   -0.9850 C   0  0  0  0  0  0  0  0  0  0  0  0
   -3.2610    0.3340   -1.2050 N   0  0  0  0  0  0  0  0  0  0  0  0
   -3.8570   -0.0870   -2.4180 C   0  0  0  0  0  0  0  0  0  0  0  0
   -3.3190    0.0080   -3.5560 O   0  0  0  0  0  0  0  0  0  0  0  0
   -5.1400   -0.6280   -2.1590 N   0  0  0  0  0  0  0  0  0  0  0  0
   -5.3600   -0.5530   -0.8080 N   0  0  0  0  0  0  0  0  0  0  0  0
   -4.2380    0.0290   -0.1730 C   0  0  0  0  0  0  0  0  0  0  0  0
   -4.1470    0.2290    1.0810 N   0  0  0  0  0  0  0  0  0  0  0  0
   -5.0660   -0.0520    2.0970 C   0  0  0  0  0  0  0  0  0  0  0  0
   -4.7780    0.2340    3.3270 O   0  0  0  0  0  0  0  0  0  0  0  0
   -6.2980   -0.6300    1.8750 O   0  0  0  0  0  0  0  0  0  0  0  0
   -6.7610   -1.0450    0.2470 P   0  0  0  0  0  0  0  0  0  0  0  0
   -8.0910   -0.0230   -0.2340 O   0  0  0  0  0  0  0  0  0  0  0  0
    1.1500   -1.4900    0.9470 C   0  0  0  0  0  0  0  0  0  0  0  0
    0.0850   -1.7570    1.5540 O   0  0  0  0  0  0  0  0  0  0  0  0
    2.4300   -1.9380    1.3750 N   0  0  0  0  0  0  0  0  0  0  0  0
    3.4480   -1.0910    0.7660 C   0  0  0  0  0  0  0  0  0  0  0  0
    2.7050   -0.0380    0.0120 C   0  0  1  0  0  0  0  0  0  0  0  0
    3.3320    0.3210   -1.1790 O   0  0  0  0  0  0  0  0  0  0  0  0
    2.4790    1.0440    0.8390 O   0  0  0  0  0  0  0  0  0  0  0  0
    3.9000    1.9010    1.2590 P   0  0  0  0  0  0  0  0  0  0  0  0
    3.8270    3.5760    0.9000 O   0  0  0  0  0  0  0  0  0  0  0  0
    5.6980    1.0150    0.3490 P   0  0  0  0  0  0  0  0  0  0  0  0
    5.7790    1.3350   -1.3500 O   0  0  0  0  0  0  0  0  0  0  0  0
    7.1210    1.6550    1.1080 O   0  0  0  0  0  0  0  0  0  0  0  0
  2  1  1  6
  2  3  1  0
  2 19  1  0
  2 23  1  0
  3  4  1  0
  4  5  2  0
  4  6  1  0
  6  7  1  0
  7  8  1  0
  7 12  1  0
  8  9  2  0
  8 10  1  0
 10 11  1  0
 11 12  1  0
 11 17  1  0
 12 13  2  0
 13 14  1  0
 14 15  2  0
 14 16  1  0
 16 17  1  0
 17 18  1  0
 19 20  2  0
 19 21  1  0
 21 22  1  0
 22 23  1  0
 23 24  1  6
 23 25  1  0
 25 26  1  0
 26 27  1  0
 26 28  1  0
 28 29  1  0
 28 30  1  0
M  END
