
     RDKit          3D

 30 31  0  0  0  0  0  0  0  0999 V2000
    4.9130    0.6890    1.3450 N   0  0  0  0  0  0  0  0  0  0  0  0
    5.3650    0.6260    0.1520 C   0  0  0  0  0  0  0  0  0  0  0  0
    4.6370   -0.1520   -0.7720 N   0  0  0  0  0  0  0  0  0  0  0  0
    3.5800   -0.9330   -0.3850 O   0  0  0  0  0  0  0  0  0  0  0  0
    2.4660   -0.9400   -1.2490 C   0  0  0  0  0  0  0  0  0  0  0  0
    2.5010   -0.2490   -2.3000 O   0  0  0  0  0  0  0  0  0  0  0  0
    1.2640   -1.7270   -0.9670 C   0  0  1  0  0  0  0  0  0  0  0  0
    1.6030   -3.2210   -0.8680 C   0  0  0  0  0  0  0  0  0  0  0  0
    0.3820   -3.8950   -0.9010 O   0  0  0  0  0  0  0  0  0  0  0  0
   -0.4050   -3.4080    0.1440 C   0  0  0  0  0  0  0  0  0  0  0  0
    0.3140   -2.5740    0.9910 O   0  0  0  0  0  0  0  0  0  0  0  0
    0.6060   -1.3530    0.3410 C   0  0  2  0  0  0  0  0  0  0  0  0
   -0.6640   -0.6180    0.1020 C   0  0  0  0  0  0  0  0  0  0  0  0
   -0.9600   -0.0200   -1.0650 N   0  0  0  0  0  0  0  0  0  0  0  0
   -2.1320    0.5220   -0.9320 O   0  0  0  0  0  0  0  0  0  0  0  0
   -2.6230    0.3090    0.2700 C   0  0  0  0  0  0  0  0  0  0  0  0
   -3.9610    0.7990    0.7590 C   0  0  1  0  0  0  0  0  0  0  0  0
   -3.8670    2.3030    0.7990 C   0  0  0  0  0  0  0  0  0  0  0  0
   -5.0390    2.8940    1.2350 O   0  0  0  0  0  0  0  0  0  0  0  0
   -4.9080    4.1820    1.2520 O   0  0  0  0  0  0  0  0  0  0  0  0
   -5.2610    0.1220   -0.2650 P   0  0  0  0  0  0  0  0  0  0  0  0
   -4.8440   -1.0940   -1.3700 O   0  0  0  0  0  0  0  0  0  0  0  0
   -7.2680    0.2090    0.4020 P   0  0  0  0  0  0  0  0  0  0  0  0
   -8.1980   -1.0780   -0.3390 O   0  0  0  0  0  0  0  0  0  0  0  0
   -8.1090    1.6830    0.0880 O   0  0  0  0  0  0  0  0  0  0  0  0
   -1.7040   -0.4090    0.9280 N   0  0  0  0  0  0  0  0  0  0  0  0
    6.5540    1.3300   -0.1730 N   0  0  0  0  0  0  0  0  0  0  0  0
    7.6380    2.0450    1.0670 P   0  0  0  0  0  0  0  0  0  0  0  0
    8.8020    0.8350    1.5260 O   0  0  0  0  0  0  0  0  0  0  0  0
    8.4240    3.4700    0.4760 O   0  0  0  0  0  0  0  0  0  0  0  0
  1  2  2  0
  2  3  1  0
  2 27  1  0
  3  4  1  0
  4  5  1  0
  5  6  2  0
  7  5  1  1
  7  8  1  0
  7 12  1  0
  8  9  1  0
  9 10  1  0
 10 11  1  0
 11 12  1  0
 12 13  1  6
 13 14  2  0
 13 26  1  0
 14 15  1  0
 15 16  1  0
 16 17  1  0
 16 26  2  0
 17 18  1  6
 17 21  1  0
 18 19  1  0
 19 20  1  0
 21 22  1  0
 21 23  1  0
 23 24  1  0
 23 25  1  0
 27 28  1  0
 28 29  1  0
 28 30  1  0
M  END
