
     RDKit          3D

 31 33  0  0  0  0  0  0  0  0999 V2000
   -6.7710   -2.7720    0.1650 N   0  0  0  0  0  0  0  0  0  0  0  0
   -5.7150   -2.0560   -0.4360 C   0  0  0  0  0  0  0  0  0  0  0  0
   -5.1500   -2.5090   -1.5760 N   0  0  0  0  0  0  0  0  0  0  0  0
   -4.1420   -1.8420   -2.1670 C   0  0  0  0  0  0  0  0  0  0  0  0
   -3.6570   -0.7000   -1.6500 N   0  0  0  0  0  0  0  0  0  0  0  0
   -4.1720   -0.1870   -0.5130 C   0  0  0  0  0  0  0  0  0  0  0  0
   -5.2060   -0.8810    0.0840 C   0  0  0  0  0  0  0  0  0  0  0  0
   -5.5460   -0.1930    1.1750 N   0  0  0  0  0  0  0  0  0  0  0  0
   -4.7440    0.8960    1.2510 C   0  0  0  0  0  0  0  0  0  0  0  0
   -3.8920    0.9210    0.2240 N   0  0  0  0  0  0  0  0  0  0  0  0
   -2.8560    1.9050   -0.0910 C   0  0  2  0  0  0  0  0  0  0  0  0
   -1.9140    1.3600   -0.9220 O   0  0  0  0  0  0  0  0  0  0  0  0
   -0.7150    1.2780   -0.2720 C   0  0  2  0  0  0  0  0  0  0  0  0
    0.1320    0.1030   -0.6850 C   0  0  0  0  0  0  0  0  0  0  0  0
    1.3190    0.1710    0.0750 O   0  0  0  0  0  0  0  0  0  0  0  0
    2.2690   -1.1540   -0.3930 P   0  0  1  0  0  0  0  0  0  0  0  0
    1.3380   -2.3600   -0.4440 O   0  0  0  0  0  0  0  0  0  0  0  0
    2.9240   -0.8150   -1.8980 O   0  0  0  0  0  0  0  0  0  0  0  0
    3.5330   -1.4100    0.6980 O   0  0  0  0  0  0  0  0  0  0  0  0
    4.9520   -0.7660    0.0710 P   0  0  2  0  0  0  0  0  0  0  0  0
    4.6350    0.5170   -0.6910 O   0  0  0  0  0  0  0  0  0  0  0  0
    5.6890   -1.8120   -1.0450 O   0  0  0  0  0  0  0  0  0  0  0  0
    6.0200   -0.4350    1.3550 O   0  0  0  0  0  0  0  0  0  0  0  0
    7.5300   -0.0170    0.7700 P   0  0  2  0  0  0  0  0  0  0  0  0
    7.4730    0.9820   -0.3580 O   0  0  0  0  0  0  0  0  0  0  0  0
    8.4130   -1.3820    0.2480 O   0  0  0  0  0  0  0  0  0  0  0  0
    8.4350    0.6970    2.0220 O   0  0  0  0  0  0  0  0  0  0  0  0
   -1.0610    1.2230    1.2090 C   0  0  1  0  0  0  0  0  0  0  0  0
   -0.0140    1.5610    2.0160 O   0  0  0  0  0  0  0  0  0  0  0  0
   -2.1720    2.2830    1.2070 C   0  0  1  0  0  0  0  0  0  0  0  0
   -1.6450    3.5600    1.0390 O   0  0  0  0  0  0  0  0  0  0  0  0
  1  2  1  0
  2  3  2  0
  2  7  1  0
  3  4  1  0
  4  5  2  0
  5  6  1  0
  6  7  2  0
  6 10  1  0
  7  8  1  0
  8  9  2  0
  9 10  1  0
 11 10  1  1
 11 12  1  0
 11 30  1  0
 12 13  1  0
 13 14  1  6
 13 28  1  0
 14 15  1  0
 15 16  1  0
 16 17  2  0
 16 18  1  6
 16 19  1  0
 19 20  1  0
 20 21  2  0
 20 22  1  6
 20 23  1  0
 23 24  1  0
 24 25  2  0
 24 26  1  6
 24 27  1  0
 28 29  1  1
 28 30  1  0
 30 31  1  6
M  END
