
     RDKit          3D

 30 31  0  0  0  0  0  0  0  0999 V2000
   -2.5470   -1.4060    5.4350 O   0  0  0  0  0  0  0  0  0  0  0  0
   -1.9940   -2.3290    4.3090 P   0  0  0  0  0  0  0  0  0  0  0  0
   -1.8900   -1.5960    2.6510 N   0  0  0  0  0  0  0  0  0  0  0  0
   -1.1590   -0.3980    2.4510 C   0  0  0  0  0  0  0  0  0  0  0  0
   -0.6080    0.0990    3.4660 O   0  0  0  0  0  0  0  0  0  0  0  0
   -1.0690    0.2080    1.1020 C   0  0  1  0  0  0  0  0  0  0  0  0
   -2.4660    0.5720    0.6650 C   0  0  0  0  0  0  0  0  0  0  0  0
   -3.3160   -0.5110    0.5430 O   0  0  0  0  0  0  0  0  0  0  0  0
   -4.8630    0.1090    0.0350 P   0  0  0  0  0  0  0  0  0  0  0  0
   -5.6550   -1.0040   -1.0410 O   0  0  0  0  0  0  0  0  0  0  0  0
   -4.6910    1.6190   -0.8110 O   0  0  0  0  0  0  0  0  0  0  0  0
   -0.2370    1.3860    1.2000 N   0  0  0  0  0  0  0  0  0  0  0  0
    1.0130    0.9820    0.5980 C   0  0  0  0  0  0  0  0  0  0  0  0
    2.1800    1.3590    0.8770 O   0  0  0  0  0  0  0  0  0  0  0  0
    0.5990    0.0250   -0.4090 C   0  0  1  0  0  0  0  0  0  0  0  0
    0.2980    0.5660   -1.7370 C   0  0  0  0  0  0  0  0  0  0  0  0
    1.3140    1.3030   -2.3270 O   0  0  0  0  0  0  0  0  0  0  0  0
    1.7190    2.5700   -1.9820 C   0  0  0  0  0  0  0  0  0  0  0  0
    1.1510    3.1940   -1.0720 O   0  0  0  0  0  0  0  0  0  0  0  0
    2.7790    3.2170   -2.6290 O   0  0  0  0  0  0  0  0  0  0  0  0
    3.2330    4.8300   -2.1320 P   0  0  0  0  0  0  0  0  0  0  0  0
    3.3730    6.0120   -3.1350 O   0  0  0  0  0  0  0  0  0  0  0  0
    1.6430   -1.0570   -0.6050 C   0  0  0  0  0  0  0  0  0  0  0  0
    2.2100   -1.2400   -1.7470 N   0  0  0  0  0  0  0  0  0  0  0  0
    3.1890   -2.2700   -1.8910 C   0  0  0  0  0  0  0  0  0  0  0  0
    3.7770   -2.4950   -2.9870 O   0  0  0  0  0  0  0  0  0  0  0  0
    3.5140   -3.0710   -0.7570 N   0  0  0  0  0  0  0  0  0  0  0  0
    3.3030   -2.4790    0.5550 C   0  0  0  0  0  0  0  0  0  0  0  0
    1.9770   -1.8580    0.5040 N   0  0  0  0  0  0  0  0  0  0  0  0
   -0.5180   -0.6440    0.1560 O   0  0  0  0  0  0  0  0  0  0  0  0
  1  2  2  0
  2  3  1  0
  3  4  1  0
  4  5  2  0
  4  6  1  0
  6  7  1  6
  6 12  1  0
  6 30  1  0
  7  8  1  0
  8  9  1  0
  9 10  1  0
  9 11  1  0
 12 13  1  0
 13 14  2  0
 13 15  1  0
 15 16  1  6
 15 23  1  0
 15 30  1  0
 16 17  1  0
 17 18  1  0
 18 19  2  0
 18 20  1  0
 20 21  1  0
 21 22  2  0
 23 24  2  0
 23 29  1  0
 24 25  1  0
 25 26  2  0
 25 27  1  0
 27 28  1  0
 28 29  1  0
M  END
