
     RDKit          3D

 30 31  0  0  0  0  0  0  0  0999 V2000
    9.0550   -1.0250    1.8990 O   0  0  0  0  0  0  0  0  0  0  0  0
    7.6900   -0.3540    2.1880 P   0  0  0  0  0  0  0  0  0  0  0  0
    6.5130   -0.1840    0.8450 N   0  0  0  0  0  0  0  0  0  0  0  0
    5.2870    0.4750    1.1340 C   0  0  0  0  0  0  0  0  0  0  0  0
    5.0540    0.9120    2.2830 O   0  0  0  0  0  0  0  0  0  0  0  0
    4.2420    0.6660    0.0820 C   0  0  1  0  0  0  0  0  0  0  0  0
    3.1490    1.3390    0.6410 O   0  0  0  0  0  0  0  0  0  0  0  0
    1.9580    0.7720    0.9530 N   0  0  0  0  0  0  0  0  0  0  0  0
    1.0390    0.6020    0.1060 C   0  0  0  0  0  0  0  0  0  0  0  0
    1.1400    0.9650   -1.1980 N   0  0  0  0  0  0  0  0  0  0  0  0
    0.1140    0.7540   -2.0560 C   0  0  0  0  0  0  0  0  0  0  0  0
    0.2740    1.1140   -3.2480 O   0  0  0  0  0  0  0  0  0  0  0  0
   -1.0410    0.1840   -1.6760 N   0  0  0  0  0  0  0  0  0  0  0  0
   -1.1610   -0.1840   -0.3830 C   0  0  0  0  0  0  0  0  0  0  0  0
   -0.1460    0.0110    0.5240 C   0  0  0  0  0  0  0  0  0  0  0  0
   -0.6320   -0.4840    1.7190 O   0  0  0  0  0  0  0  0  0  0  0  0
   -1.9720   -0.6250    1.6310 O   0  0  0  0  0  0  0  0  0  0  0  0
   -2.2480   -0.8020    0.3060 N   0  0  0  0  0  0  0  0  0  0  0  0
   -3.3780   -1.4630   -0.2470 C   0  0  0  0  0  0  0  0  0  0  0  0
   -3.4540   -1.5260   -1.5070 O   0  0  0  0  0  0  0  0  0  0  0  0
   -4.4420   -2.0660    0.5580 C   0  0  1  0  0  0  0  0  0  0  0  0
   -5.1580   -1.0870    1.4510 C   0  0  0  0  0  0  0  0  0  0  0  0
   -5.9700    0.2740    0.5450 P   0  0  0  0  0  0  0  0  0  0  0  0
   -5.4530    1.8420    1.0700 O   0  0  0  0  0  0  0  0  0  0  0  0
   -5.8850    0.1110   -1.1720 O   0  0  0  0  0  0  0  0  0  0  0  0
   -5.6120   -3.0320   -0.5140 P   0  0  0  0  0  0  0  0  0  0  0  0
   -5.1840   -3.6620   -1.8450 O   0  0  0  0  0  0  0  0  0  0  0  0
    4.8410    1.4700   -0.9960 C   0  0  0  0  0  0  0  0  0  0  0  0
    5.8320    1.0300   -1.6580 O   0  0  0  0  0  0  0  0  0  0  0  0
    4.3820    2.7150   -1.3460 O   0  0  0  0  0  0  0  0  0  0  0  0
  1  2  2  0
  2  3  1  0
  3  4  1  0
  4  5  2  0
  4  6  1  0
  6  7  1  1
  6 28  1  0
  7  8  1  0
  8  9  2  3
  9 10  1  0
  9 15  1  0
 10 11  1  0
 11 12  2  0
 11 13  1  0
 13 14  1  0
 14 15  2  0
 14 18  1  0
 15 16  1  0
 16 17  1  0
 17 18  1  0
 18 19  1  0
 19 20  2  0
 19 21  1  0
 21 22  1  6
 21 26  1  0
 22 23  1  0
 23 24  1  0
 23 25  1  0
 26 27  2  0
 28 29  2  0
 28 30  1  0
M  END
