
     RDKit          3D

 33 35  0  0  0  0  0  0  0  0999 V2000
    7.7890    2.4820   -0.6320 C   0  0  0  0  0  0  0  0  0  0  0  0
    6.5090    2.1320   -0.4950 C   0  0  0  0  0  0  0  0  0  0  0  0
    5.3550    2.7150   -1.1560 C   0  0  0  0  0  0  0  0  0  0  0  0
    5.4230    3.6890   -2.0000 N   0  0  0  0  0  0  0  0  0  0  0  0
    4.2270    2.0140   -0.6900 N   0  0  0  0  0  0  0  0  0  0  0  0
    4.6920    1.0250    0.2360 C   0  0  0  0  0  0  0  0  0  0  0  0
    5.9910    1.0540    0.3810 C   0  0  0  0  0  0  0  0  0  0  0  0
    6.8590    0.2460    1.2020 C   0  0  0  0  0  0  0  0  0  0  0  0
    6.4840   -0.6710    1.9550 N   0  0  0  0  0  0  0  0  0  0  0  0
    5.2360   -1.2060    2.2600 C   0  0  0  0  0  0  0  0  0  0  0  0
    4.4420   -0.7390    3.3110 C   0  0  0  0  0  0  0  0  0  0  0  0
    3.2210   -1.3090    3.5870 C   0  0  0  0  0  0  0  0  0  0  0  0
    2.7060   -2.3600    2.8600 C   0  0  0  0  0  0  0  0  0  0  0  0
    1.3860   -2.9610    3.1730 C   0  0  0  0  0  0  0  0  0  0  0  0
    0.2700   -2.2860    2.4130 C   0  0  0  0  0  0  0  0  0  0  0  0
    0.4590   -2.3860    0.9410 C   0  0  0  0  0  0  0  0  0  0  0  0
   -0.7000   -1.6910    0.2580 C   0  0  0  0  0  0  0  0  0  0  0  0
   -1.5470   -1.2080    0.9990 O   0  0  0  0  0  0  0  0  0  0  0  0
   -0.7820   -1.6150   -1.1240 N   0  0  0  0  0  0  0  0  0  0  0  0
   -1.7230   -1.0400   -2.0000 C   0  0  0  0  0  0  0  0  0  0  0  0
   -1.9310    0.4100   -1.9070 C   0  0  1  0  0  0  0  0  0  0  0  0
   -2.7100    0.7530   -3.0930 O   0  0  0  0  0  0  0  0  0  0  0  0
   -2.8220    0.9030   -0.7870 C   0  0  0  0  0  0  0  0  0  0  0  0
   -4.1580    0.3650   -0.8100 N   0  0  0  0  0  0  0  0  0  0  0  0
   -5.2490    1.0260   -1.5990 C   0  0  0  0  0  0  0  0  0  0  0  0
   -6.3860    0.8920   -0.6490 C   0  0  1  0  0  0  0  0  0  0  0  0
   -7.7320    1.2220   -1.1930 C   0  0  0  0  0  0  0  0  0  0  0  0
   -7.8910    2.5500   -1.6750 N   0  0  0  0  0  0  0  0  0  0  0  0
   -6.3120   -0.6060   -0.3550 C   0  0  0  0  0  0  0  0  0  0  0  0
   -4.8080   -0.7360   -0.2450 C   0  0  0  0  0  0  0  0  0  0  0  0
   -4.2980   -1.7280    0.2950 O   0  0  0  0  0  0  0  0  0  0  0  0
    3.4780   -2.8310    1.8210 C   0  0  0  0  0  0  0  0  0  0  0  0
    4.7010   -2.2730    1.5320 C   0  0  0  0  0  0  0  0  0  0  0  0
  1  2  2  0
  2  3  1  0
  2  7  1  0
  3  4  2  0
  3  5  1  0
  5  6  1  0
  6  7  2  0
  7  8  1  0
  8  9  2  3
  9 10  1  0
 10 11  2  0
 10 33  1  0
 11 12  1  0
 12 13  2  0
 13 14  1  0
 13 32  1  0
 14 15  1  0
 15 16  1  0
 16 17  1  0
 17 18  2  0
 17 19  1  0
 19 20  1  0
 20 21  1  0
 21 22  1  6
 21 23  1  0
 23 24  1  0
 24 25  1  0
 24 30  1  0
 25 26  1  0
 26 27  1  6
 26 29  1  0
 27 28  1  0
 29 30  1  0
 30 31  2  0
 32 33  2  0
M  CHG  2   4   1  28   1
M  END
