
     RDKit          3D

 33 36  0  0  0  0  0  0  0  0999 V2000
   -5.9800   -0.9610    0.0500 C   0  0  0  0  0  0  0  0  0  0  0  0
   -4.6580   -0.4730    0.5160 C   0  0  0  0  0  0  0  0  0  0  0  0
   -4.3720   -0.7300    1.7780 C   0  0  0  0  0  0  0  0  0  0  0  0
   -5.2130   -1.4370    2.7550 C   0  0  0  0  0  0  0  0  0  0  0  0
   -4.5710   -2.5840    3.1890 F   0  0  0  0  0  0  0  0  0  0  0  0
   -3.6780    0.1720   -0.3750 C   0  0  0  0  0  0  0  0  0  0  0  0
   -3.8790    0.5240   -1.6040 C   0  0  0  0  0  0  0  0  0  0  0  0
   -5.0960    0.3850   -2.3700 C   0  0  0  0  0  0  0  0  0  0  0  0
   -5.1780   -0.3020   -3.5710 C   0  0  0  0  0  0  0  0  0  0  0  0
   -6.4720   -0.2080   -3.9980 C   0  0  0  0  0  0  0  0  0  0  0  0
   -7.1430    0.5310   -3.0480 C   0  0  0  0  0  0  0  0  0  0  0  0
   -6.2800    0.8570   -2.1060 O   0  0  0  0  0  0  0  0  0  0  0  0
   -2.3990    0.4590    0.2370 N   0  0  0  0  0  0  0  0  0  0  0  0
   -1.4500    1.3800   -0.2490 C   0  0  0  0  0  0  0  0  0  0  0  0
   -1.6260    2.0590   -1.2630 O   0  0  0  0  0  0  0  0  0  0  0  0
   -0.1710    1.5710    0.4590 C   0  0  0  0  0  0  0  0  0  0  0  0
    0.0370    0.8740    1.5200 N   0  0  0  0  0  0  0  0  0  0  0  0
    1.2730    1.0200    2.2540 C   0  0  0  0  0  0  0  0  0  0  0  0
    1.4240    1.4970    3.4970 N   0  0  0  0  0  0  0  0  0  0  0  0
    2.7030    1.4760    3.8250 N   0  0  0  0  0  0  0  0  0  0  0  0
    3.4390    0.9840    2.8090 C   0  0  0  0  0  0  0  0  0  0  0  0
    2.5230    0.6920    1.8020 C   0  0  0  0  0  0  0  0  0  0  0  0
    2.9990    0.1240    0.5180 C   0  0  0  0  0  0  0  0  0  0  0  0
    4.3580    0.7770    0.2480 C   0  0  0  0  0  0  0  0  0  0  0  0
    5.2980    0.2370    1.3050 C   0  0  1  0  0  0  0  0  0  0  0  0
    6.9710    0.7310    0.8580 S   0  0  0  0  0  0  0  0  0  0  0  0
    7.3900   -0.1340   -0.6740 C   0  0  0  0  0  0  0  0  0  0  0  0
    6.6320   -0.9870   -1.3730 N   0  0  0  0  0  0  0  0  0  0  0  0
    7.3190   -1.3970   -2.4380 C   0  0  0  0  0  0  0  0  0  0  0  0
    8.5540   -0.7940   -2.4300 C   0  0  0  0  0  0  0  0  0  0  0  0
    8.5560   -0.0280   -1.3310 N   0  0  0  0  0  0  0  0  0  0  0  0
    4.8650    0.7350    2.6060 C   0  0  0  0  0  0  0  0  0  0  0  0
    5.6690    0.9480    3.5280 O   0  0  0  0  0  0  0  0  0  0  0  0
  1  2  1  0
  2  3  2  3
  2  6  1  0
  3  4  1  0
  4  5  1  0
  6  7  2  3
  6 13  1  0
  7  8  1  0
  8  9  2  0
  8 12  1  0
  9 10  1  0
 10 11  2  0
 11 12  1  0
 13 14  1  0
 14 15  2  0
 14 16  1  0
 16 17  2  3
 17 18  1  0
 18 19  1  0
 18 22  2  0
 19 20  1  0
 20 21  2  0
 21 22  1  0
 21 32  1  0
 22 23  1  0
 23 24  1  0
 24 25  1  0
 25 26  1  6
 25 32  1  0
 26 27  1  0
 27 28  2  0
 27 31  1  0
 28 29  1  0
 29 30  2  0
 30 31  1  0
 32 33  2  0
M  END
