
     RDKit          3D

 33 35  0  0  0  0  0  0  0  0999 V2000
    9.0840    1.6470    0.4980 C   0  0  0  0  0  0  0  0  0  0  0  0
    9.1300    0.1830    0.9170 C   0  0  0  0  0  0  0  0  0  0  0  0
    9.3960   -0.6380   -0.3900 C   0  0  0  0  0  0  0  0  0  0  0  0
    8.2840   -0.2120   -1.2760 N   0  0  0  0  0  0  0  0  0  0  0  0
    7.0210   -0.5030   -0.9760 C   0  0  0  0  0  0  0  0  0  0  0  0
    6.4470   -1.1260   -0.1650 O   0  0  0  0  0  0  0  0  0  0  0  0
    6.0990    0.3210   -2.1300 N   0  0  0  0  0  0  0  0  0  0  0  0
    4.4160   -0.0710   -1.4360 C   0  0  0  0  0  0  0  0  0  0  0  0
    4.3170   -1.1570   -1.2180 O   0  0  0  0  0  0  0  0  0  0  0  0
    3.7980    1.2000   -1.3840 N   0  0  0  0  0  0  0  0  0  0  0  0
    2.5050    1.2470   -0.6900 C   0  0  0  0  0  0  0  0  0  0  0  0
    1.5260    0.2510   -1.2380 C   0  0  0  0  0  0  0  0  0  0  0  0
    0.1780    0.4470   -0.6250 C   0  0  1  0  0  0  0  0  0  0  0  0
   -0.8810   -0.4740   -1.3090 C   0  0  0  0  0  0  0  0  0  0  0  0
   -1.9430   -0.5710   -0.3670 N   0  0  0  0  0  0  0  0  0  0  0  0
   -2.8000    0.4420   -0.0720 C   0  0  0  0  0  0  0  0  0  0  0  0
   -3.8660    0.6840   -1.0880 C   0  0  1  0  0  0  0  0  0  0  0  0
   -4.7890   -0.5150   -1.1760 C   0  0  0  0  0  0  0  0  0  0  0  0
   -5.7680   -0.2710   -0.0160 C   0  0  0  0  0  0  0  0  0  0  0  0
   -5.4510    1.1410    0.4890 C   0  0  0  0  0  0  0  0  0  0  0  0
   -4.8230    1.6850   -0.6720 N   0  0  1  0  0  0  0  0  0  0  0  0
   -4.2820    2.9870   -0.5960 C   0  0  0  0  0  0  0  0  0  0  0  0
   -4.4780    3.7050   -1.9190 C   0  0  0  0  0  0  0  0  0  0  0  0
   -5.8700    3.9350   -2.1880 N   0  0  0  0  0  0  0  0  0  0  0  0
   -1.5550   -1.5880    0.5920 C   0  0  2  0  0  0  0  0  0  0  0  0
   -2.5780   -1.7170    1.6120 C   0  0  0  0  0  0  0  0  0  0  0  0
   -2.4090   -2.8740    2.5120 C   0  0  0  0  0  0  0  0  0  0  0  0
   -1.3850   -3.6370    2.6730 C   0  0  0  0  0  0  0  0  0  0  0  0
   -1.7110   -4.7010    3.6890 C   0  0  0  0  0  0  0  0  0  0  0  0
   -3.1580   -4.4790    3.9550 C   0  0  0  0  0  0  0  0  0  0  0  0
   -3.5780   -3.4390    3.3190 C   0  0  0  0  0  0  0  0  0  0  0  0
   -0.1980   -1.1610    1.0510 C   0  0  0  0  0  0  0  0  0  0  0  0
    0.1150    0.1410    0.6930 O   0  0  0  0  0  0  0  0  0  0  0  0
  1  2  1  0
  2  3  1  0
  3  4  1  0
  4  5  1  0
  5  6  2  0
  5  7  1  0
  7  8  1  0
  8  9  2  0
  8 10  1  0
 10 11  1  0
 11 12  1  0
 13 12  1  6
 13 14  1  0
 13 33  1  0
 14 15  1  0
 15 16  1  0
 15 25  1  0
 17 16  1  1
 17 18  1  0
 17 21  1  0
 18 19  1  0
 19 20  1  0
 20 21  1  0
 21 22  1  1
 22 23  1  0
 23 24  1  0
 25 26  1  1
 25 32  1  0
 26 27  1  0
 27 28  2  0
 27 31  1  0
 28 29  1  0
 29 30  1  0
 30 31  2  0
 32 33  1  0
M  CHG  2  21   1  24   1
M  END
