
     RDKit          3D

 33 35  0  0  0  0  0  0  0  0999 V2000
    9.4770    0.6700    1.9420 C   0  0  0  0  0  0  0  0  0  0  0  0
    8.2600    1.3750    2.3070 N   0  0  0  0  0  0  0  0  0  0  0  0
    7.3570    0.5290    3.0760 C   0  0  0  0  0  0  0  0  0  0  0  0
    7.1810   -0.8180    2.4620 C   0  0  0  0  0  0  0  0  0  0  0  0
    6.6420   -0.8500    1.1490 N   0  0  0  0  0  0  0  0  0  0  0  0
    5.3030   -0.5540    0.8270 C   0  0  0  0  0  0  0  0  0  0  0  0
    4.3880   -0.3520    1.8310 C   0  0  0  0  0  0  0  0  0  0  0  0
    3.0940   -0.0900    1.5080 C   0  0  0  0  0  0  0  0  0  0  0  0
    2.6440   -0.0150    0.2030 C   0  0  0  0  0  0  0  0  0  0  0  0
    1.2590    0.2820   -0.0240 N   0  0  0  0  0  0  0  0  0  0  0  0
    0.5580    0.1690   -1.2370 C   0  0  0  0  0  0  0  0  0  0  0  0
    1.1410   -0.2300   -2.2660 O   0  0  0  0  0  0  0  0  0  0  0  0
   -0.8620    0.5090   -1.3500 C   0  0  0  0  0  0  0  0  0  0  0  0
   -1.4580    0.9100   -0.3340 O   0  0  0  0  0  0  0  0  0  0  0  0
   -1.5360    0.3860   -2.5720 N   0  0  0  0  0  0  0  0  0  0  0  0
   -2.9340    0.7050   -2.7420 C   0  0  1  0  0  0  0  0  0  0  0  0
   -3.1820    1.5840   -3.9620 C   0  0  0  0  0  0  0  0  0  0  0  0
   -4.5140    1.1700   -4.5370 C   0  0  0  0  0  0  0  0  0  0  0  0
   -5.0130    0.0860   -3.5230 C   0  0  0  0  0  0  0  0  0  0  0  0
   -3.7270   -0.5660   -3.1670 C   0  0  2  0  0  0  0  0  0  0  0  0
   -3.6450   -1.5820   -2.1200 C   0  0  0  0  0  0  0  0  0  0  0  0
   -4.2060   -1.2040   -0.8630 N   0  0  0  0  0  0  0  0  0  0  0  0
   -5.5460   -0.9950   -0.5350 C   0  0  0  0  0  0  0  0  0  0  0  0
   -6.4310   -1.1630   -1.3950 O   0  0  0  0  0  0  0  0  0  0  0  0
   -5.9590   -0.5810    0.7970 C   0  0  0  0  0  0  0  0  0  0  0  0
   -7.2340   -0.3840    1.0680 C   0  0  0  0  0  0  0  0  0  0  0  0
   -7.7370    0.0450    2.4200 C   0  0  0  0  0  0  0  0  0  0  0  0
   -6.6370    0.6110    3.1910 N   0  0  0  0  0  0  0  0  0  0  0  0
   -5.5250   -0.2920    3.2060 C   0  0  0  0  0  0  0  0  0  0  0  0
   -4.9300   -0.3950    1.8390 C   0  0  0  0  0  0  0  0  0  0  0  0
    3.5470   -0.2150   -0.8060 C   0  0  0  0  0  0  0  0  0  0  0  0
    4.8640   -0.4820   -0.4910 C   0  0  0  0  0  0  0  0  0  0  0  0
    5.8270   -0.6950   -1.6000 C   0  0  0  0  0  0  0  0  0  0  0  0
  1  2  1  0
  2  3  1  0
  3  4  1  0
  4  5  1  0
  5  6  1  0
  6  7  2  0
  6 32  1  0
  7  8  1  0
  8  9  2  0
  9 10  1  0
  9 31  1  0
 10 11  1  0
 11 12  2  0
 11 13  1  0
 13 14  2  0
 13 15  1  0
 16 15  1  6
 16 17  1  0
 16 20  1  0
 17 18  1  0
 18 19  1  0
 19 20  1  0
 20 21  1  1
 21 22  1  0
 22 23  1  0
 23 24  2  0
 23 25  1  0
 25 26  2  0
 25 30  1  0
 26 27  1  0
 27 28  1  0
 28 29  1  0
 29 30  1  0
 31 32  2  0
 32 33  1  0
M  CHG  2   2   1  28   1
M  END
