
     RDKit          3D

 32 35  0  0  0  0  0  0  0  0999 V2000
   -1.6340    4.5850   -0.3830 C   0  0  0  0  0  0  0  0  0  0  0  0
   -2.2910    3.8520    0.6930 N   0  0  0  0  0  0  0  0  0  0  0  0
   -2.9530    2.6080    0.3790 C   0  0  0  0  0  0  0  0  0  0  0  0
   -3.6720    1.8160    1.5950 S   0  0  0  0  0  0  0  0  0  0  0  0
   -2.9440    2.1270   -1.0030 C   0  0  0  0  0  0  0  0  0  0  0  0
   -3.7460    2.6060   -2.0330 C   0  0  0  0  0  0  0  0  0  0  0  0
   -3.3980    1.8520   -3.1480 C   0  0  0  0  0  0  0  0  0  0  0  0
   -2.4660    1.0020   -2.7960 O   0  0  0  0  0  0  0  0  0  0  0  0
   -2.1750    1.1440   -1.5260 C   0  0  0  0  0  0  0  0  0  0  0  0
   -1.1470    0.3260   -0.8040 C   0  0  0  0  0  0  0  0  0  0  0  0
   -0.8910    0.6610    0.3600 O   0  0  0  0  0  0  0  0  0  0  0  0
   -0.5380   -0.7330   -1.4190 N   0  0  0  0  0  0  0  0  0  0  0  0
    0.4770   -1.6230   -0.9150 C   0  0  1  0  0  0  0  0  0  0  0  0
    0.2550   -2.1350    0.4300 C   0  0  0  0  0  0  0  0  0  0  0  0
   -0.4050   -3.2360    0.8060 N   0  0  0  0  0  0  0  0  0  0  0  0
   -0.4460   -3.2560    2.1440 N   0  0  0  0  0  0  0  0  0  0  0  0
    0.1730   -2.1970    2.6770 C   0  0  0  0  0  0  0  0  0  0  0  0
    0.6310   -1.4680    1.6120 C   0  0  0  0  0  0  0  0  0  0  0  0
    1.4790   -0.2610    1.7380 C   0  0  0  0  0  0  0  0  0  0  0  0
    2.4910   -0.1180    1.0220 O   0  0  0  0  0  0  0  0  0  0  0  0
    1.1800    0.7620    2.6590 N   0  0  0  0  0  0  0  0  0  0  0  0
    1.9080    1.9660    2.8580 C   0  0  0  0  0  0  0  0  0  0  0  0
    2.8900    2.4670    2.0520 C   0  0  0  0  0  0  0  0  0  0  0  0
    3.5750    3.6370    2.2880 C   0  0  0  0  0  0  0  0  0  0  0  0
    3.2690    4.3790    3.4060 C   0  0  0  0  0  0  0  0  0  0  0  0
    2.2890    3.9030    4.2330 N   0  0  0  0  0  0  0  0  0  0  0  0
    1.6280    2.7600    3.9950 C   0  0  0  0  0  0  0  0  0  0  0  0
    0.7290   -2.6860   -1.9840 C   0  0  2  0  0  0  0  0  0  0  0  0
   -0.4380   -3.4570   -2.4340 C   0  0  0  0  0  0  0  0  0  0  0  0
    0.0500   -4.8560   -2.6760 C   0  0  0  0  0  0  0  0  0  0  0  0
    1.1210   -5.0560   -1.6740 C   0  0  0  0  0  0  0  0  0  0  0  0
    1.7040   -3.7200   -1.4300 C   0  0  0  0  0  0  0  0  0  0  0  0
  1  2  1  0
  2  3  1  0
  3  4  2  0
  3  5  1  0
  5  6  1  0
  5  9  2  0
  6  7  2  0
  7  8  1  0
  8  9  1  0
  9 10  1  0
 10 11  2  0
 10 12  1  0
 13 12  1  6
 13 14  1  0
 13 28  1  0
 14 15  1  0
 14 18  2  0
 15 16  1  0
 16 17  2  0
 17 18  1  0
 18 19  1  0
 19 20  2  0
 19 21  1  0
 21 22  1  0
 22 23  2  0
 22 27  1  0
 23 24  1  0
 24 25  2  0
 25 26  1  0
 26 27  2  0
 28 29  1  1
 28 32  1  0
 29 30  1  0
 30 31  1  0
 31 32  1  0
M  END
