
     RDKit          3D

 15 15  0  0  0  0  0  0  0  0999 V2000
   -3.0750    0.9810   -2.6200 O   0  0  0  0  0  0  0  0  0  0  0  0
   -2.0520    0.9040   -1.8750 C   0  0  0  0  0  0  0  0  0  0  0  0
   -1.1260    1.8970   -1.5720 O   0  0  0  0  0  0  0  0  0  0  0  0
   -0.1310    1.3680   -0.7460 N   0  0  0  0  0  0  0  0  0  0  0  0
   -0.8230    0.2990   -0.1190 C   0  0  1  0  0  0  0  0  0  0  0  0
    0.1010   -0.7160    0.5010 C   0  0  1  0  0  0  0  0  0  0  0  0
   -0.7110   -1.7420    1.0850 O   0  0  0  0  0  0  0  0  0  0  0  0
    0.9410   -1.3410   -0.3310 O   0  0  0  0  0  0  0  0  0  0  0  0
    2.2430   -1.3740    0.0050 C   0  0  0  0  0  0  0  0  0  0  0  0
    2.9010   -0.0370    0.0570 C   0  0  0  0  0  0  0  0  0  0  0  0
    2.3870    0.8570    0.9580 O   0  0  0  0  0  0  0  0  0  0  0  0
   -1.9870    0.8870    1.2010 P   0  0  0  0  0  0  0  0  0  0  0  0
   -2.4850   -0.5330    2.1060 O   0  0  0  0  0  0  0  0  0  0  0  0
   -3.4070    1.5670    0.4290 O   0  0  0  0  0  0  0  0  0  0  0  0
   -1.6060   -0.2290   -1.1670 O   0  0  0  0  0  0  0  0  0  0  0  0
  1  2  2  0
  2  3  1  0
  2 15  1  0
  3  4  1  0
  4  5  1  0
  5  6  1  0
  5 12  1  1
  5 15  1  0
  6  7  1  6
  6  8  1  0
  8  9  1  0
  9 10  1  0
 10 11  1  0
 12 13  1  0
 12 14  1  0
M  END
