
     RDKit          3D

 16 15  0  0  0  0  0  0  0  0999 V2000
   -3.5790   -2.5430    0.1640 O   0  0  0  0  0  0  0  0  0  0  0  0
   -2.9790   -2.1930   -0.8770 C   0  0  0  0  0  0  0  0  0  0  0  0
   -1.8470   -1.2700   -0.8180 C   0  0  0  0  0  0  0  0  0  0  0  0
   -1.3030   -0.9670   -1.8760 O   0  0  0  0  0  0  0  0  0  0  0  0
   -1.3770   -0.7330    0.4070 N   0  0  0  0  0  0  0  0  0  0  0  0
   -0.3350    0.1580    0.6730 C   0  0  1  0  0  0  0  0  0  0  0  0
   -0.0740   -0.0820    2.1190 O   0  0  0  0  0  0  0  0  0  0  0  0
    1.0360   -0.1750    0.1240 C   0  0  0  0  0  0  0  0  0  0  0  0
    1.0830   -0.2640   -1.2550 O   0  0  0  0  0  0  0  0  0  0  0  0
    2.6420   -0.6410   -1.8540 P   0  0  0  0  0  0  0  0  0  0  0  0
    3.4280   -1.8050   -0.8250 O   0  0  0  0  0  0  0  0  0  0  0  0
    3.6790    0.7240   -1.9900 O   0  0  0  0  0  0  0  0  0  0  0  0
   -0.5080    1.5100    0.6670 O   0  0  0  0  0  0  0  0  0  0  0  0
   -0.8960    2.3590   -0.2950 C   0  0  0  0  0  0  0  0  0  0  0  0
   -1.1670    1.9190   -1.4290 O   0  0  0  0  0  0  0  0  0  0  0  0
   -1.0190    3.7550   -0.0990 O   0  0  0  0  0  0  0  0  0  0  0  0
  1  2  2  0
  2  3  1  0
  3  4  2  0
  3  5  1  0
  5  6  1  0
  6  7  1  1
  6  8  1  0
  6 13  1  0
  8  9  1  0
  9 10  1  0
 10 11  1  0
 10 12  1  0
 13 14  1  0
 14 15  2  0
 14 16  1  0
M  END
