
     RDKit          3D

 15 14  0  0  0  0  0  0  0  0999 V2000
   -2.8200    1.9550   -0.1930 O   0  0  0  0  0  0  0  0  0  0  0  0
   -3.4770    1.0610    0.3660 C   0  0  0  0  0  0  0  0  0  0  0  0
   -4.6760    1.4470    0.9950 O   0  0  0  0  0  0  0  0  0  0  0  0
   -3.0500   -0.2380    0.3670 O   0  0  0  0  0  0  0  0  0  0  0  0
   -1.8230   -0.5500   -0.2920 C   0  0  2  0  0  0  0  0  0  0  0  0
   -2.1470   -1.5100   -1.4460 C   0  0  0  0  0  0  0  0  0  0  0  0
   -3.0190   -0.8750   -2.3010 O   0  0  0  0  0  0  0  0  0  0  0  0
   -0.9920   -1.1940    0.5700 O   0  0  0  0  0  0  0  0  0  0  0  0
    0.1790   -0.6660    0.7330 N   0  0  0  0  0  0  0  0  0  0  0  0
    0.5660    0.4900    0.0420 C   0  0  0  0  0  0  0  0  0  0  0  0
    2.0200    0.8090    0.4920 C   0  0  0  0  0  0  0  0  0  0  0  0
    2.7620   -0.2970    0.1380 O   0  0  0  0  0  0  0  0  0  0  0  0
    4.4220   -0.1660    0.5440 P   0  0  0  0  0  0  0  0  0  0  0  0
    5.2300    0.7920   -0.6320 O   0  0  0  0  0  0  0  0  0  0  0  0
    4.7060    0.3370    2.1580 O   0  0  0  0  0  0  0  0  0  0  0  0
  1  2  2  0
  2  3  1  0
  2  4  1  0
  4  5  1  0
  5  6  1  6
  5  8  1  0
  6  7  1  0
  8  9  1  0
  9 10  1  0
 10 11  1  0
 11 12  1  0
 12 13  1  0
 13 14  1  0
 13 15  1  0
M  END
