
     RDKit          3D

 15 14  0  0  0  0  0  0  0  0999 V2000
    1.2820   -2.1500   -0.0460 C   0  0  0  0  0  0  0  0  0  0  0  0
    0.9900   -0.6720    0.1070 C   0  0  1  0  0  0  0  0  0  0  0  0
    1.4640    0.0540   -0.9710 O   0  0  0  0  0  0  0  0  0  0  0  0
    2.5760    1.2660   -0.4830 P   0  0  0  0  0  0  0  0  0  0  0  0
    2.0130    2.8360   -0.9280 O   0  0  0  0  0  0  0  0  0  0  0  0
    2.8770    1.1470    1.2150 O   0  0  0  0  0  0  0  0  0  0  0  0
   -0.5410   -0.5240    0.2020 C   0  0  2  0  0  0  0  0  0  0  0  0
   -1.0810   -1.0660   -1.0900 C   0  0  0  0  0  0  0  0  0  0  0  0
   -0.4580   -0.3600   -2.1280 O   0  0  0  0  0  0  0  0  0  0  0  0
   -0.7980    0.8800    0.3740 N   0  0  0  0  0  0  0  0  0  0  0  0
   -2.0890    1.4640    0.4830 C   0  0  0  0  0  0  0  0  0  0  0  0
   -3.0990    0.7580    0.4290 O   0  0  0  0  0  0  0  0  0  0  0  0
   -2.2590    2.8330    0.6500 O   0  0  0  0  0  0  0  0  0  0  0  0
   -0.8880   -1.2370    1.3150 O   0  0  0  0  0  0  0  0  0  0  0  0
   -2.1090   -1.3080    1.6590 O   0  0  0  0  0  0  0  0  0  0  0  0
  2  1  1  6
  2  3  1  0
  2  7  1  0
  3  4  1  0
  4  5  1  0
  4  6  1  0
  7  8  1  6
  7 10  1  0
  7 14  1  0
  8  9  1  0
 10 11  1  0
 11 12  2  0
 11 13  1  0
 14 15  1  0
M  END
