
     RDKit          3D

 26 26  0  0  0  0  0  0  0  0999 V2000
    4.3280    2.5920    1.8210 C   0  0  0  0  0  0  0  0  0  0  0  0
    2.8760    2.1320    1.7710 C   0  0  0  0  0  0  0  0  0  0  0  0
    2.6520    1.5670    0.4730 O   0  0  0  0  0  0  0  0  0  0  0  0
    3.3570    0.4670    0.0210 C   0  0  0  0  0  0  0  0  0  0  0  0
    4.2150   -0.0160    0.8200 O   0  0  0  0  0  0  0  0  0  0  0  0
    3.1120   -0.1000   -1.3250 C   0  0  2  0  0  0  0  0  0  0  0  0
    3.4380    0.8160   -2.3280 F   0  0  0  0  0  0  0  0  0  0  0  0
    1.6380   -0.5360   -1.5030 C   0  0  2  0  0  0  0  0  0  0  0  0
    0.7700    0.4950   -1.3510 O   0  0  0  0  0  0  0  0  0  0  0  0
   -0.5040    0.7750   -1.1250 C   0  0  0  0  0  0  0  0  0  0  0  0
   -1.4070    0.8100   -2.0400 O   0  0  0  0  0  0  0  0  0  0  0  0
   -1.0510    1.0910    0.2310 C   0  0  0  0  0  0  0  0  0  0  0  0
   -2.5220    1.2530    0.2390 C   0  0  0  0  0  0  0  0  0  0  0  0
   -3.0930    2.4660   -0.3120 C   0  0  0  0  0  0  0  0  0  0  0  0
   -2.2900    3.3910   -0.8080 C   0  0  0  0  0  0  0  0  0  0  0  0
   -2.8020    4.5840   -1.3540 O   0  0  0  0  0  0  0  0  0  0  0  0
   -3.3500    0.3420    0.7250 C   0  0  0  0  0  0  0  0  0  0  0  0
   -2.8400   -0.9260    1.3030 C   0  0  0  0  0  0  0  0  0  0  0  0
   -2.3610   -1.8820    0.2360 C   0  0  0  0  0  0  0  0  0  0  0  0
   -1.0870   -2.3090    0.5980 O   0  0  0  0  0  0  0  0  0  0  0  0
   -0.5580   -3.2860   -0.2080 C   0  0  1  0  0  0  0  0  0  0  0  0
   -1.6080   -3.9930   -1.0630 C   0  0  0  0  0  0  0  0  0  0  0  0
    0.4630   -2.7090   -1.0840 C   0  0  0  0  0  0  0  0  0  0  0  0
    0.5560   -2.9970   -2.2790 O   0  0  0  0  0  0  0  0  0  0  0  0
    1.4650   -1.7230   -0.5650 C   0  0  2  0  0  0  0  0  0  0  0  0
    1.2630   -1.3680    0.7350 F   0  0  0  0  0  0  0  0  0  0  0  0
  1  2  1  0
  2  3  1  0
  3  4  1  0
  4  5  2  0
  4  6  1  0
  6  7  1  6
  6  8  1  0
  8  9  1  1
  8 25  1  0
  9 10  1  0
 10 11  2  0
 10 12  1  0
 12 13  1  0
 13 14  1  0
 13 17  2  0
 14 15  2  3
 15 16  1  0
 17 18  1  0
 18 19  1  0
 19 20  1  0
 20 21  1  0
 21 22  1  6
 21 23  1  0
 23 24  2  0
 23 25  1  0
 25 26  1  1
M  END
