
     RDKit          3D

 25 26  0  0  0  0  0  0  0  0999 V2000
    6.8900    0.7000    0.0600 N   0  0  0  0  0  0  0  0  0  0  0  0
    6.2580   -0.5340   -0.2530 C   0  0  0  0  0  0  0  0  0  0  0  0
    6.9160   -1.6480   -0.4230 C   0  0  0  0  0  0  0  0  0  0  0  0
    7.3620   -2.7790   -0.1320 O   0  0  0  0  0  0  0  0  0  0  0  0
    4.8260   -0.5000   -0.3800 N   0  0  0  0  0  0  0  0  0  0  0  0
    4.1460   -1.4930    0.0630 N   0  0  0  0  0  0  0  0  0  0  0  0
    2.7280   -1.4270   -0.0780 C   0  0  0  0  0  0  0  0  0  0  0  0
    2.1830   -1.5240   -1.2220 O   0  0  0  0  0  0  0  0  0  0  0  0
    1.8750   -1.2560    1.0030 O   0  0  0  0  0  0  0  0  0  0  0  0
    0.1400   -1.1750    0.8300 P   0  0  0  0  0  0  0  0  0  0  0  0
   -0.4990   -2.4250   -0.1500 O   0  0  0  0  0  0  0  0  0  0  0  0
   -0.3940    0.4950    0.3680 C   0  0  1  0  0  0  0  0  0  0  0  0
    0.9840    1.7800    0.7770 Br  0  0  0  0  0  0  0  0  0  0  0  0
   -0.7210    0.6070   -1.1240 C   0  0  0  0  0  0  0  0  0  0  0  0
   -0.8810    2.1060   -1.3810 C   0  0  0  0  0  0  0  0  0  0  0  0
   -1.8740    2.5870    0.1470 P   0  0  0  0  0  0  0  0  0  0  0  0
   -3.5050    2.9290   -0.2380 O   0  0  0  0  0  0  0  0  0  0  0  0
   -4.2340    1.8580   -0.6830 C   0  0  0  0  0  0  0  0  0  0  0  0
   -4.5050    0.9120    0.3110 O   0  0  0  0  0  0  0  0  0  0  0  0
   -3.1240   -0.0770    0.5000 P   0  0  0  0  0  0  0  0  0  0  0  0
   -3.3890   -1.5540    1.4130 N   0  0  0  0  0  0  0  0  0  0  0  0
   -4.0660   -2.7860    0.2720 P   0  0  0  0  0  0  0  0  0  0  0  0
   -1.7020    0.9270    1.0300 C   0  0  1  0  0  0  0  0  0  0  0  0
   -1.5650    1.0900    2.3840 O   0  0  0  0  0  0  0  0  0  0  0  0
   -2.7220    1.4580    2.8710 O   0  0  0  0  0  0  0  0  0  0  0  0
  1  2  1  0
  2  3  2  0
  2  5  1  0
  3  4  2  0
  5  6  2  3
  6  7  1  0
  7  8  2  0
  7  9  1  0
  9 10  1  0
 10 11  1  0
 10 12  1  0
 12 13  1  1
 12 14  1  0
 12 23  1  0
 14 15  1  0
 15 16  1  0
 16 17  1  0
 16 23  1  0
 17 18  1  0
 18 19  1  0
 19 20  1  0
 20 21  1  0
 20 23  1  0
 21 22  1  0
 23 24  1  1
 24 25  1  0
M  END
