
     RDKit          3D

 27 28  0  0  0  0  0  0  0  0999 V2000
    1.5810    4.9010    1.9050 N   0  0  0  0  0  0  0  0  0  0  0  0
    0.7800    3.8200    2.1970 O   0  0  0  0  0  0  0  0  0  0  0  0
   -0.2670    3.5710    1.3010 C   0  0  0  0  0  0  0  0  0  0  0  0
   -1.6020    4.9080    1.0540 Br  0  0  0  0  0  0  0  0  0  0  0  0
   -0.3520    2.4440    0.6300 C   0  0  0  0  0  0  0  0  0  0  0  0
    0.5630    1.3740    0.7160 N   0  0  0  0  0  0  0  0  0  0  0  0
    1.1320    0.8470   -0.3110 N   0  0  0  0  0  0  0  0  0  0  0  0
    2.0250   -0.1840   -0.3280 C   0  0  0  0  0  0  0  0  0  0  0  0
    1.7030   -1.3910    0.2680 C   0  0  0  0  0  0  0  0  0  0  0  0
    2.9590   -2.5980    0.1610 P   0  0  0  0  0  0  0  0  0  0  0  0
    3.1310   -4.0950    1.0500 O   0  0  0  0  0  0  0  0  0  0  0  0
    4.2780   -1.8620   -0.7050 C   0  0  0  0  0  0  0  0  0  0  0  0
    5.7770   -2.5570   -1.1130 P   0  0  0  0  0  0  0  0  0  0  0  0
    3.6940   -0.2750   -1.0390 P   0  0  0  0  0  0  0  0  0  0  0  0
    4.4090    0.7810   -2.1950 O   0  0  0  0  0  0  0  0  0  0  0  0
    0.4610   -1.5720    0.8890 O   0  0  0  0  0  0  0  0  0  0  0  0
   -0.6960   -0.9960    0.3910 N   0  0  0  0  0  0  0  0  0  0  0  0
   -1.7210   -1.3340    1.1780 O   0  0  0  0  0  0  0  0  0  0  0  0
   -2.8180   -1.7790    0.4050 C   0  0  2  0  0  0  0  0  0  0  0  0
   -2.5170   -2.9620   -0.2690 O   0  0  0  0  0  0  0  0  0  0  0  0
   -3.3090   -0.7060   -0.5370 C   0  0  2  0  0  0  0  0  0  0  0  0
   -4.7210   -0.7640   -0.4790 O   0  0  0  0  0  0  0  0  0  0  0  0
   -2.8420   -1.0250   -2.2960 P   0  0  0  0  0  0  0  0  0  0  0  0
   -3.8390   -1.6260   -3.3210 O   0  0  0  0  0  0  0  0  0  0  0  0
   -2.8930    0.6670   -0.1280 C   0  0  0  0  0  0  0  0  0  0  0  0
   -1.7670    1.1440   -0.8000 O   0  0  0  0  0  0  0  0  0  0  0  0
   -1.4210    2.2990   -0.2250 O   0  0  0  0  0  0  0  0  0  0  0  0
  1  2  1  0
  2  3  1  0
  3  4  1  0
  3  5  2  3
  5  6  1  0
  5 27  1  0
  6  7  2  0
  7  8  1  0
  8  9  2  0
  8 14  1  0
  9 10  1  0
  9 16  1  0
 10 11  1  0
 10 12  1  0
 12 13  2  0
 12 14  1  0
 14 15  1  0
 16 17  1  0
 17 18  1  0
 18 19  1  0
 19 20  1  6
 19 21  1  0
 21 22  1  6
 21 23  1  0
 21 25  1  0
 23 24  2  0
 25 26  1  0
 26 27  1  0
M  END
