
     RDKit          3D

 27 29  0  0  0  0  0  0  0  0999 V2000
    4.6940    0.8970   -0.1930 C   0  0  0  0  0  0  0  0  0  0  0  0
    3.4170    0.9450   -0.7600 O   0  0  0  0  0  0  0  0  0  0  0  0
    3.0410   -0.2830   -0.9710 O   0  0  0  0  0  0  0  0  0  0  0  0
    1.6920   -0.5040   -0.7190 C   0  0  2  0  0  0  0  0  0  0  0  0
    0.8950    0.3850   -1.6200 C   0  0  0  0  0  0  0  0  0  0  0  0
    0.5460    1.6660   -0.8540 C   0  0  0  0  0  0  0  0  0  0  0  0
   -0.1970    1.4740    0.1640 C   0  0  0  0  0  0  0  0  0  0  0  0
    0.2310    0.4160    1.0460 O   0  0  0  0  0  0  0  0  0  0  0  0
    1.3240   -0.2510    0.7120 C   0  0  0  0  0  0  0  0  0  0  0  0
    2.4960   -0.9520    1.6520 P   0  0  0  0  0  0  0  0  0  0  0  0
    2.7040   -2.6840    0.8440 C   0  0  1  0  0  0  0  0  0  0  0  0
    2.4450   -3.9060    2.3040 Br  0  0  0  0  0  0  0  0  0  0  0  0
    1.5440   -2.7160   -0.0210 N   0  0  0  0  0  0  0  0  0  0  0  0
    0.4740   -2.7240    0.7960 O   0  0  0  0  0  0  0  0  0  0  0  0
   -0.9730   -2.4510   -0.0720 P   0  0  0  0  0  0  0  0  0  0  0  0
   -1.9770   -4.2870   -0.6500 P   0  0  0  0  0  0  0  0  0  0  0  0
   -2.0280   -1.3370    0.7510 O   0  0  0  0  0  0  0  0  0  0  0  0
   -1.9090   -0.1230    0.1900 N   0  0  0  0  0  0  0  0  0  0  0  0
   -2.6620   -0.1580   -0.9580 O   0  0  0  0  0  0  0  0  0  0  0  0
   -3.9090   -0.5760   -0.5980 N   0  0  0  0  0  0  0  0  0  0  0  0
   -2.3220    0.9060    0.9800 O   0  0  0  0  0  0  0  0  0  0  0  0
   -1.4300    2.0300    0.7310 C   0  0  1  0  0  0  0  0  0  0  0  0
   -1.1210    2.4900    2.0250 O   0  0  0  0  0  0  0  0  0  0  0  0
   -2.3260    3.3230   -0.1570 P   0  0  0  0  0  0  0  0  0  0  0  0
   -4.0210    3.0880   -0.0100 O   0  0  0  0  0  0  0  0  0  0  0  0
   -1.8680    4.8870    0.4420 O   0  0  0  0  0  0  0  0  0  0  0  0
    1.4250   -1.8340   -0.9590 O   0  0  0  0  0  0  0  0  0  0  0  0
  1  2  1  0
  2  3  1  0
  4  3  1  1
  4  5  1  0
  4  9  1  0
  4 27  1  0
  5  6  1  0
  6  7  2  0
  7  8  1  0
  7 22  1  0
  8  9  1  0
  9 10  2  0
 10 11  1  0
 11 12  1  1
 11 13  1  0
 13 14  1  0
 13 27  1  0
 14 15  1  0
 15 16  1  0
 15 17  1  0
 17 18  1  0
 18 19  1  0
 18 21  1  0
 19 20  1  0
 21 22  1  0
 22 23  1  1
 22 24  1  0
 24 25  1  0
 24 26  1  0
M  END
