
     RDKit          3D

 25 26  0  0  0  0  0  0  0  0999 V2000
   -5.7040   -0.0710   -2.0020 N   0  0  0  0  0  0  0  0  0  0  0  0
   -4.5590    0.7240   -0.8730 P   0  0  0  0  0  0  0  0  0  0  0  0
   -3.2910    1.6330   -1.7440 C   0  0  0  0  0  0  0  0  0  0  0  0
   -1.7130    1.5500   -1.2880 P   0  0  0  0  0  0  0  0  0  0  0  0
   -1.0990    0.5660    0.0940 C   0  0  0  0  0  0  0  0  0  0  0  0
    0.3310    0.4710    0.5310 C   0  0  1  0  0  0  0  0  0  0  0  0
    0.3680   -0.4660    1.7180 C   0  0  0  0  0  0  0  0  0  0  0  0
   -0.7250    0.2060    3.1660 Br  0  0  0  0  0  0  0  0  0  0  0  0
    1.0900   -0.1410   -0.6260 C   0  0  0  0  0  0  0  0  0  0  0  0
    2.1140   -1.0410   -0.2220 N   0  0  0  0  0  0  0  0  0  0  0  0
    3.2620   -0.9690   -0.8840 O   0  0  0  0  0  0  0  0  0  0  0  0
    4.1070   -1.8440   -0.4580 O   0  0  0  0  0  0  0  0  0  0  0  0
    5.2060   -1.4080    0.1040 N   0  0  0  0  0  0  0  0  0  0  0  0
    6.3080   -1.4420   -0.6310 O   0  0  0  0  0  0  0  0  0  0  0  0
    5.1460   -0.4880    1.0320 O   0  0  0  0  0  0  0  0  0  0  0  0
    3.9900   -0.0850    1.4170 O   0  0  0  0  0  0  0  0  0  0  0  0
    3.6630    1.5660    1.1060 P   0  0  0  0  0  0  0  0  0  0  0  0
    4.1920    1.9590   -0.4800 O   0  0  0  0  0  0  0  0  0  0  0  0
    2.0590    2.0710    1.4880 O   0  0  0  0  0  0  0  0  0  0  0  0
    0.8780    1.8120    0.8740 C   0  0  0  0  0  0  0  0  0  0  0  0
    0.1340    2.7900    0.5420 O   0  0  0  0  0  0  0  0  0  0  0  0
   -2.2640   -0.2600    0.8810 P   0  0  0  0  0  0  0  0  0  0  0  0
   -4.0530   -0.2870    0.5190 C   0  0  2  0  0  0  0  0  0  0  0  0
   -4.4380   -1.7290    0.2090 C   0  0  0  0  0  0  0  0  0  0  0  0
   -5.1000   -2.4050    0.9590 O   0  0  0  0  0  0  0  0  0  0  0  0
  1  2  1  0
  2  3  1  0
  2 23  1  0
  3  4  2  0
  4  5  1  0
  5  6  1  0
  5 22  2  0
  6  7  1  1
  6  9  1  0
  6 20  1  0
  7  8  1  0
  9 10  1  0
 10 11  1  0
 11 12  1  0
 12 13  1  0
 13 14  1  0
 13 15  1  0
 15 16  1  0
 16 17  1  0
 17 18  1  0
 17 19  1  0
 19 20  1  0
 20 21  2  0
 22 23  1  0
 23 24  1  6
 24 25  2  0
M  END
