
     RDKit          3D

 20 21  0  0  0  0  0  0  0  0999 V2000
   -0.0870   -0.1480   -1.4330 O   0  0  0  0  0  0  0  0  0  0  0  0
   -1.0660   -0.3020   -0.4020 C   0  0  1  0  0  0  0  0  0  0  0  0
   -0.1260   -0.8090    0.7180 C   0  0  0  0  0  0  0  0  0  0  0  0
    0.9550    0.1690    1.0130 C   0  0  0  0  0  0  0  0  0  0  0  0
    0.9670    1.2330    1.8830 C   0  0  0  0  0  0  0  0  0  0  0  0
    2.1850    1.7890    1.7790 N   0  0  0  0  0  0  0  0  0  0  0  0
    2.9560    1.1400    0.8900 C   0  0  0  0  0  0  0  0  0  0  0  0
    4.2660    1.3540    0.4720 C   0  0  0  0  0  0  0  0  0  0  0  0
    4.8060    0.5100   -0.4600 C   0  0  0  0  0  0  0  0  0  0  0  0
    4.0160   -0.5070   -0.9310 C   0  0  0  0  0  0  0  0  0  0  0  0
    2.7080   -0.7050   -0.5000 C   0  0  0  0  0  0  0  0  0  0  0  0
    2.1890    0.1310    0.4150 N   0  0  0  0  0  0  0  0  0  0  0  0
   -1.8720    1.1800   -0.0870 P   0  0  0  0  0  0  0  0  0  0  0  0
   -3.5740    1.2640   -0.3570 O   0  0  0  0  0  0  0  0  0  0  0  0
   -2.2040    0.9450    1.3960 O   0  0  0  0  0  0  0  0  0  0  0  0
   -1.0600    2.5610    0.2830 O   0  0  0  0  0  0  0  0  0  0  0  0
   -2.1330   -1.6230   -0.7770 P   0  0  0  0  0  0  0  0  0  0  0  0
   -3.4800   -1.0390   -0.3450 O   0  0  0  0  0  0  0  0  0  0  0  0
   -2.6680   -1.8490   -2.3100 O   0  0  0  0  0  0  0  0  0  0  0  0
   -2.4150   -2.8200    0.4150 O   0  0  0  0  0  0  0  0  0  0  0  0
  2  1  1  6
  2  3  1  0
  2 13  1  0
  2 17  1  0
  3  4  1  0
  4  5  2  0
  4 12  1  0
  5  6  1  0
  6  7  2  0
  7  8  1  0
  7 12  1  0
  8  9  2  0
  9 10  1  0
 10 11  2  0
 11 12  1  0
 13 14  1  0
 13 15  1  0
 13 16  1  0
 17 18  1  0
 17 19  1  0
 17 20  1  0
M  END
