
     RDKit          3D

 29 30  0  0  0  0  0  0  0  0999 V2000
   -3.5150   -3.2200    3.4320 C   0  0  0  0  0  0  0  0  0  0  0  0
   -3.5710   -2.7370    2.0870 O   0  0  0  0  0  0  0  0  0  0  0  0
   -2.4160   -2.3420    1.4260 C   0  0  0  0  0  0  0  0  0  0  0  0
   -1.3280   -2.4400    2.0700 O   0  0  0  0  0  0  0  0  0  0  0  0
   -2.3690   -1.8530    0.1320 O   0  0  0  0  0  0  0  0  0  0  0  0
   -1.1740   -1.4750   -0.4500 C   0  0  0  0  0  0  0  0  0  0  0  0
   -0.7340   -0.2390   -0.2920 C   0  0  0  0  0  0  0  0  0  0  0  0
   -1.5120    0.7450    0.4820 C   0  0  0  0  0  0  0  0  0  0  0  0
   -1.6770    2.0530    0.0500 C   0  0  0  0  0  0  0  0  0  0  0  0
   -2.4430    2.7240    0.9760 C   0  0  0  0  0  0  0  0  0  0  0  0
   -2.8370    4.0580    0.9120 O   0  0  0  0  0  0  0  0  0  0  0  0
   -2.4270    4.8390   -0.2180 C   0  0  0  0  0  0  0  0  0  0  0  0
   -2.7130    1.7810    1.9430 C   0  0  0  0  0  0  0  0  0  0  0  0
   -2.1430    0.6470    1.6000 O   0  0  0  0  0  0  0  0  0  0  0  0
    0.6110    0.1080   -0.7490 C   0  0  0  0  0  0  0  0  0  0  0  0
    1.1680    1.1750   -0.1560 C   0  0  0  0  0  0  0  0  0  0  0  0
    2.4410    1.6470   -0.4650 O   0  0  0  0  0  0  0  0  0  0  0  0
    3.4440    1.7360    0.5480 C   0  0  2  0  0  0  0  0  0  0  0  0
    3.0320    2.6420    1.6770 C   0  0  0  0  0  0  0  0  0  0  0  0
    4.9830    2.2580   -0.1330 Cl  0  0  0  0  0  0  0  0  0  0  0  0
    1.2690   -0.6910   -1.7540 C   0  0  1  0  0  0  0  0  0  0  0  0
    3.1120   -0.6160   -1.7700 P   0  0  0  0  0  0  0  0  0  0  0  0
    3.6330   -0.8070   -3.4370 O   0  0  0  0  0  0  0  0  0  0  0  0
    3.8730   -1.8680   -0.8710 O   0  0  0  0  0  0  0  0  0  0  0  0
    0.7400   -2.0480   -1.8520 C   0  0  0  0  0  0  0  0  0  0  0  0
    1.4430   -3.1240   -2.6300 C   0  0  0  0  0  0  0  0  0  0  0  0
   -0.3820   -2.3810   -1.2530 C   0  0  0  0  0  0  0  0  0  0  0  0
   -1.0060   -4.1200   -1.4350 P   0  0  0  0  0  0  0  0  0  0  0  0
   -2.0890   -4.3170   -2.5400 O   0  0  0  0  0  0  0  0  0  0  0  0
  1  2  1  0
  2  3  1  0
  3  4  2  0
  3  5  1  0
  5  6  1  0
  6  7  2  0
  6 27  1  0
  7  8  1  0
  7 15  1  0
  8  9  2  0
  8 14  1  0
  9 10  1  0
 10 11  1  0
 10 13  2  0
 11 12  1  0
 13 14  1  0
 15 16  2  3
 15 21  1  0
 16 17  1  0
 17 18  1  0
 18 19  1  1
 18 20  1  0
 21 22  1  1
 21 25  1  0
 22 23  1  0
 22 24  1  0
 25 26  1  0
 25 27  2  0
 27 28  1  0
 28 29  2  0
M  END
