
     RDKit          3D

 24 26  0  0  0  0  0  0  0  0999 V2000
    0.0260   -3.8610    0.9990 O   0  0  0  0  0  0  0  0  0  0  0  0
   -0.1620   -2.6690    0.4040 C   0  0  0  0  0  0  0  0  0  0  0  0
    0.6790   -2.5320   -0.7070 N   0  0  0  0  0  0  0  0  0  0  0  0
    1.8440   -1.7360   -0.8960 C   0  0  0  0  0  0  0  0  0  0  0  0
    2.6060   -1.8050   -2.0690 C   0  0  0  0  0  0  0  0  0  0  0  0
    3.6850   -1.0500   -2.2460 N   0  0  0  0  0  0  0  0  0  0  0  0
    4.0510   -0.2010   -1.2770 C   0  0  0  0  0  0  0  0  0  0  0  0
    3.3410   -0.0870   -0.1000 C   0  0  0  0  0  0  0  0  0  0  0  0
    2.2670   -0.8710    0.0240 N   0  0  0  0  0  0  0  0  0  0  0  0
    3.7050    0.7960    0.9200 O   0  0  0  0  0  0  0  0  0  0  0  0
    2.7100    1.6100    1.5660 C   0  0  0  0  0  0  0  0  0  0  0  0
    1.9570    2.4700    0.5910 C   0  0  0  0  0  0  0  0  0  0  0  0
    0.5070    2.6410    0.8680 C   0  0  0  0  0  0  0  0  0  0  0  0
   -0.2340    1.3780    0.5290 C   0  0  0  0  0  0  0  0  0  0  0  0
   -0.2370    1.0410   -0.9200 C   0  0  0  0  0  0  0  0  0  0  0  0
   -1.2150    0.1000   -1.3210 O   0  0  0  0  0  0  0  0  0  0  0  0
   -2.3510   -0.3170   -0.6360 C   0  0  0  0  0  0  0  0  0  0  0  0
   -3.6070    0.1600   -1.0490 C   0  0  0  0  0  0  0  0  0  0  0  0
   -4.7970   -0.1700   -0.4400 C   0  0  0  0  0  0  0  0  0  0  0  0
   -4.7500   -1.0210    0.6380 C   0  0  0  0  0  0  0  0  0  0  0  0
   -6.2180   -1.5060    1.4940 Cl  0  0  0  0  0  0  0  0  0  0  0  0
   -3.5400   -1.4900    1.0420 C   0  0  0  0  0  0  0  0  0  0  0  0
   -2.2940   -1.1830    0.4500 C   0  0  0  0  0  0  0  0  0  0  0  0
   -1.1230   -1.8120    0.9710 N   0  0  0  0  0  0  0  0  0  0  0  0
  1  2  2  0
  2  3  1  0
  2 24  1  0
  3  4  1  0
  4  5  2  0
  4  9  1  0
  5  6  1  0
  6  7  2  0
  7  8  1  0
  8  9  2  0
  8 10  1  0
 10 11  1  0
 11 12  1  0
 12 13  1  0
 13 14  1  0
 14 15  1  0
 15 16  1  0
 16 17  1  0
 17 18  2  0
 17 23  1  0
 18 19  1  0
 19 20  2  0
 20 21  1  0
 20 22  1  0
 22 23  2  0
 23 24  1  0
M  END
