
     RDKit          3D

 12 12  0  0  0  0  0  0  0  0999 V2000
    2.2990    0.6840    0.7050 C   0  0  0  0  0  0  0  0  0  0  0  0
    1.2610    0.1180   -0.2190 C   0  0  2  0  0  0  0  0  0  0  0  0
    1.8710   -0.9640   -1.1220 C   0  0  0  0  0  0  0  0  0  0  0  0
    2.4140   -1.9140   -0.2270 O   0  0  0  0  0  0  0  0  0  0  0  0
    0.7150    1.0730   -1.0400 O   0  0  0  0  0  0  0  0  0  0  0  0
   -0.1810    1.9210   -0.4070 C   0  0  0  0  0  0  0  0  0  0  0  0
   -1.3120    1.0410    0.1460 C   0  0  1  0  0  0  0  0  0  0  0  0
   -2.5390    1.4200   -0.3220 O   0  0  0  0  0  0  0  0  0  0  0  0
   -0.9150   -0.3580   -0.1890 C   0  0  2  0  0  0  0  0  0  0  0  0
   -1.9260   -1.3980    0.1760 C   0  0  0  0  0  0  0  0  0  0  0  0
   -2.2540   -1.4260    1.5050 O   0  0  0  0  0  0  0  0  0  0  0  0
    0.2880   -0.5840    0.5210 O   0  0  0  0  0  0  0  0  0  0  0  0
  2  1  1  1
  2  3  1  0
  2  5  1  0
  2 12  1  0
  3  4  1  0
  5  6  1  0
  6  7  1  0
  7  8  1  6
  7  9  1  0
  9 10  1  1
  9 12  1  0
 10 11  1  0
M  END
