
     RDKit          3D

 12 12  0  0  0  0  0  0  0  0999 V2000
    4.1840    0.6330    0.5190 O   0  0  0  0  0  0  0  0  0  0  0  0
    3.1130    0.4570   -0.3870 C   0  0  0  0  0  0  0  0  0  0  0  0
    2.0260   -0.2510    0.3970 C   0  0  0  0  0  0  0  0  0  0  0  0
    0.7980   -0.5190   -0.4270 C   0  0  2  0  0  0  0  0  0  0  0  0
    0.2820    0.6420   -0.8780 O   0  0  0  0  0  0  0  0  0  0  0  0
   -1.0030    0.9390   -0.5830 C   0  0  0  0  0  0  0  0  0  0  0  0
   -1.5460    0.4040    0.6860 C   0  0  1  0  0  0  0  0  0  0  0  0
   -2.9730   -0.1370    0.5300 C   0  0  0  0  0  0  0  0  0  0  0  0
   -3.8030    0.8120   -0.0550 O   0  0  0  0  0  0  0  0  0  0  0  0
   -0.8060   -0.5990    1.2690 O   0  0  0  0  0  0  0  0  0  0  0  0
   -0.1320   -1.3870    0.3690 C   0  0  1  0  0  0  0  0  0  0  0  0
   -0.9290   -2.0970   -0.4930 O   0  0  0  0  0  0  0  0  0  0  0  0
  1  2  1  0
  2  3  1  0
  4  3  1  1
  4  5  1  0
  4 11  1  0
  5  6  1  0
  6  7  1  0
  7  8  1  6
  7 10  1  0
  8  9  1  0
 10 11  1  0
 11 12  1  6
M  END
