
     RDKit          3D

 12 12  0  0  0  0  0  0  0  0999 V2000
   -4.0200   -0.0330   -0.1920 O   0  0  0  0  0  0  0  0  0  0  0  0
   -2.9540    0.4570    0.5390 C   0  0  0  0  0  0  0  0  0  0  0  0
   -1.6660    0.3560   -0.2210 C   0  0  2  0  0  0  0  0  0  0  0  0
   -1.2810   -1.0770   -0.5140 C   0  0  0  0  0  0  0  0  0  0  0  0
   -0.3440   -1.5520    0.4000 O   0  0  0  0  0  0  0  0  0  0  0  0
    0.9580   -1.4240   -0.0370 C   0  0  0  0  0  0  0  0  0  0  0  0
    1.5480   -0.0650    0.2510 C   0  0  1  0  0  0  0  0  0  0  0  0
    1.8510    0.0850    1.5820 O   0  0  0  0  0  0  0  0  0  0  0  0
    2.7480    0.1960   -0.6370 C   0  0  0  0  0  0  0  0  0  0  0  0
    3.2340    1.4890   -0.4730 O   0  0  0  0  0  0  0  0  0  0  0  0
    0.4890    0.9580   -0.1760 C   0  0  0  0  0  0  0  0  0  0  0  0
   -0.6430    0.8780    0.6030 O   0  0  0  0  0  0  0  0  0  0  0  0
  1  2  1  0
  3  2  1  1
  3  4  1  0
  3 12  1  0
  4  5  1  0
  5  6  1  0
  6  7  1  0
  7  8  1  1
  7  9  1  0
  7 11  1  0
  9 10  1  0
 11 12  1  0
M  END
