
     RDKit          3D

 22 23  0  0  0  0  0  0  0  0999 V2000
    5.7830    1.7280    1.2010 C   0  0  0  0  0  0  0  0  0  0  0  0
    4.7500    1.1710    0.3760 O   0  0  0  0  0  0  0  0  0  0  0  0
    4.0090    0.0800    0.7760 C   0  0  0  0  0  0  0  0  0  0  0  0
    4.2660   -0.4240    1.9000 O   0  0  0  0  0  0  0  0  0  0  0  0
    2.9340   -0.5230   -0.0480 C   0  0  1  0  0  0  0  0  0  0  0  0
    3.5310   -1.0360   -1.3480 C   0  0  0  0  0  0  0  0  0  0  0  0
    2.3300   -1.6560    0.6260 N   0  0  0  0  0  0  0  0  0  0  0  0
    1.2190   -2.2870   -0.0010 C   0  0  0  0  0  0  0  0  0  0  0  0
    0.9820   -3.5080    0.2940 O   0  0  0  0  0  0  0  0  0  0  0  0
    0.4060   -1.6240   -0.9050 O   0  0  0  0  0  0  0  0  0  0  0  0
    0.0760   -0.2600   -0.7010 C   0  0  1  0  0  0  0  0  0  0  0  0
   -0.8170   -0.1650    0.5220 C   0  0  1  0  0  0  0  0  0  0  0  0
   -1.1730    1.1370    0.7750 O   0  0  0  0  0  0  0  0  0  0  0  0
   -2.0010   -1.0840    0.2510 C   0  0  0  0  0  0  0  0  0  0  0  0
   -2.6830   -0.7410   -0.8440 O   0  0  0  0  0  0  0  0  0  0  0  0
   -3.3040    0.4280   -0.9340 C   0  0  0  0  0  0  0  0  0  0  0  0
   -4.4590    0.5970   -0.0420 C   0  0  0  0  0  0  0  0  0  0  0  0
   -5.0210   -0.1880    0.8300 C   0  0  0  0  0  0  0  0  0  0  0  0
   -6.1100    0.4710    1.4250 O   0  0  0  0  0  0  0  0  0  0  0  0
   -5.8160    1.7910    1.2920 O   0  0  0  0  0  0  0  0  0  0  0  0
   -5.2890    1.8730    0.0120 C   0  0  0  0  0  0  0  0  0  0  0  0
    1.6290    0.6370   -0.4640 S   0  0  0  0  0  0  0  0  0  0  0  0
  1  2  1  0
  2  3  1  0
  3  4  2  0
  3  5  1  0
  5  6  1  6
  5  7  1  0
  5 22  1  0
  7  8  1  0
  8  9  2  0
  8 10  1  0
 11 10  1  1
 11 12  1  0
 11 22  1  0
 12 13  1  6
 12 14  1  0
 14 15  1  0
 15 16  1  0
 16 17  1  0
 17 18  2  0
 17 21  1  0
 18 19  1  0
 19 20  1  0
 20 21  1  0
M  END
