
     RDKit          3D

 14 14  0  0  0  0  0  0  0  0999 V2000
    0.1620    1.4570   -1.6820 C   0  0  0  0  0  0  0  0  0  0  0  0
    0.1980    0.0190   -1.2240 C   0  0  2  0  0  0  0  0  0  0  0  0
   -1.0270   -0.5200   -0.9790 O   0  0  0  0  0  0  0  0  0  0  0  0
   -1.6370   -0.2150    0.1910 C   0  0  1  0  0  0  0  0  0  0  0  0
   -2.5160    1.0050    0.0790 C   0  0  0  0  0  0  0  0  0  0  0  0
   -2.5740   -1.3830    0.5450 C   0  0  0  0  0  0  0  0  0  0  0  0
   -0.6930   -0.1150    1.3780 C   0  0  2  0  0  0  0  0  0  0  0  0
   -0.2780    1.1920    1.6020 O   0  0  0  0  0  0  0  0  0  0  0  0
    0.5260   -0.9500    0.9960 C   0  0  0  0  0  0  0  0  0  0  0  0
    1.1990   -0.1500   -0.1170 C   0  0  1  0  0  0  0  0  0  0  0  0
    2.4140   -0.8070   -0.5460 N   0  0  0  0  0  0  0  0  0  0  0  0
    3.8260    0.0900   -0.2110 S   0  0  1  0  0  0  0  0  0  0  0  0
    4.9440   -0.2090   -1.1610 O   0  0  0  0  0  0  0  0  0  0  0  0
    3.4870    1.5640   -0.2230 O   0  0  0  0  0  0  0  0  0  0  0  0
  2  1  1  1
  2  3  1  0
  2 10  1  0
  3  4  1  0
  4  5  1  6
  4  6  1  0
  4  7  1  0
  7  8  1  6
  7  9  1  0
  9 10  1  0
 10 11  1  6
 12 11  1  6
 12 13  2  0
 12 14  2  0
M  END
