
     RDKit          3D

 25 27  0  0  0  0  0  0  0  0999 V2000
   -7.5940    0.7170   -1.0050 C   0  0  0  0  0  0  0  0  0  0  0  0
   -6.1520    0.6780   -0.6610 C   0  0  0  0  0  0  0  0  0  0  0  0
   -5.2680    1.6720   -1.0430 C   0  0  0  0  0  0  0  0  0  0  0  0
   -3.9460    1.5720   -0.6900 C   0  0  0  0  0  0  0  0  0  0  0  0
   -3.4350    0.5170    0.0400 C   0  0  0  0  0  0  0  0  0  0  0  0
   -1.9780    0.4590    0.4000 C   0  0  0  0  0  0  0  0  0  0  0  0
   -1.2750   -0.2670   -0.7070 C   0  0  0  0  0  0  0  0  0  0  0  0
    0.0990   -0.3810   -0.4690 O   0  0  0  0  0  0  0  0  0  0  0  0
    0.9050    0.7170   -0.3340 C   0  0  0  0  0  0  0  0  0  0  0  0
    0.4170    1.8710   -0.4250 O   0  0  0  0  0  0  0  0  0  0  0  0
    2.3450    0.6200   -0.0830 C   0  0  0  0  0  0  0  0  0  0  0  0
    2.8980   -0.5580    0.0200 C   0  0  0  0  0  0  0  0  0  0  0  0
    4.3250   -0.8320    0.2700 C   0  0  0  0  0  0  0  0  0  0  0  0
    4.7530   -2.1480    0.3510 C   0  0  0  0  0  0  0  0  0  0  0  0
    6.0900   -2.3790    0.5850 C   0  0  0  0  0  0  0  0  0  0  0  0
    6.9520   -1.3110    0.7300 C   0  0  0  0  0  0  0  0  0  0  0  0
    8.7160   -1.1900    1.0370 S   0  0  0  0  0  0  0  0  0  0  0  0
    8.7710    0.6800    1.0370 C   0  0  0  0  0  0  0  0  0  0  0  0
    9.7820    1.2970    1.2100 O   0  0  0  0  0  0  0  0  0  0  0  0
    7.5020    0.9340    0.8140 N   0  0  0  0  0  0  0  0  0  0  0  0
    6.5960    0.0110    0.6610 C   0  0  0  0  0  0  0  0  0  0  0  0
    5.2070    0.1910    0.4180 C   0  0  0  0  0  0  0  0  0  0  0  0
   -4.3130   -0.4750    0.4230 C   0  0  0  0  0  0  0  0  0  0  0  0
   -5.6570   -0.3850    0.0700 C   0  0  0  0  0  0  0  0  0  0  0  0
   -6.5280   -1.4260    0.4830 N   0  0  0  0  0  0  0  0  0  0  0  0
  1  2  1  0
  2  3  2  0
  2 24  1  0
  3  4  1  0
  4  5  2  0
  5  6  1  0
  5 23  1  0
  6  7  1  0
  7  8  1  0
  8  9  1  0
  9 10  2  0
  9 11  1  0
 11 12  2  3
 12 13  1  0
 13 14  2  0
 13 22  1  0
 14 15  1  0
 15 16  2  0
 16 17  1  0
 16 21  1  0
 17 18  1  0
 18 19  2  0
 18 20  1  0
 20 21  1  0
 21 22  2  0
 23 24  2  0
 24 25  1  0
M  END
