
     RDKit          3D

 25 27  0  0  0  0  0  0  0  0999 V2000
   -4.5790   -1.1430    1.6950 C   0  0  0  0  0  0  0  0  0  0  0  0
   -3.8840   -0.0300    0.9970 C   0  0  0  0  0  0  0  0  0  0  0  0
   -2.6990    0.4720    1.4310 C   0  0  0  0  0  0  0  0  0  0  0  0
   -1.8420   -0.0960    2.8280 S   0  0  1  0  0  0  0  0  0  0  0  0
   -1.0310    0.9750    3.5170 O   0  0  0  0  0  0  0  0  0  0  0  0
   -2.9210   -0.5150    3.8440 O   0  0  0  0  0  0  0  0  0  0  0  0
   -0.8350   -1.4290    2.5550 N   0  0  0  0  0  0  0  0  0  0  0  0
    0.2520   -1.3710    1.6460 C   0  0  0  0  0  0  0  0  0  0  0  0
    1.5180   -1.6620    2.1040 C   0  0  0  0  0  0  0  0  0  0  0  0
    2.5920   -1.5920    1.2540 C   0  0  0  0  0  0  0  0  0  0  0  0
    2.4350   -1.2330   -0.0620 C   0  0  0  0  0  0  0  0  0  0  0  0
    1.1570   -0.9460   -0.5000 C   0  0  0  0  0  0  0  0  0  0  0  0
    0.0750   -1.0130    0.3410 C   0  0  0  0  0  0  0  0  0  0  0  0
    0.6510   -0.5360   -1.8280 C   0  0  0  0  0  0  0  0  0  0  0  0
    1.2450   -0.0720   -2.9160 C   0  0  0  0  0  0  0  0  0  0  0  0
    2.6950    0.2150   -3.2030 C   0  0  0  0  0  0  0  0  0  0  0  0
    3.2530    0.8640   -1.9810 C   0  0  0  0  0  0  0  0  0  0  0  0
    4.2420    0.0570   -1.2160 C   0  0  0  0  0  0  0  0  0  0  0  0
    3.7670   -1.2540   -0.7000 C   0  0  0  0  0  0  0  0  0  0  0  0
   -2.3540    1.5230    0.5000 C   0  0  0  0  0  0  0  0  0  0  0  0
   -1.3010    2.2990    0.5080 C   0  0  0  0  0  0  0  0  0  0  0  0
   -0.2300    2.3240    1.4130 N   0  0  0  0  0  0  0  0  0  0  0  0
   -3.4250    1.6050   -0.5200 C   0  0  0  0  0  0  0  0  0  0  0  0
   -3.4460    2.4920   -1.5750 O   0  0  0  0  0  0  0  0  0  0  0  0
   -4.2950    0.6750   -0.1810 C   0  0  0  0  0  0  0  0  0  0  0  0
  1  2  1  0
  2  3  2  0
  2 25  1  0
  3  4  1  0
  3 20  1  0
  4  5  2  0
  4  6  2  0
  4  7  1  6
  7  8  1  0
  8  9  2  0
  8 13  1  0
  9 10  1  0
 10 11  2  0
 11 12  1  0
 11 19  1  0
 12 13  2  0
 12 14  1  0
 14 15  2  0
 15 16  1  0
 16 17  1  0
 17 18  1  0
 18 19  1  0
 20 21  2  3
 20 23  1  0
 21 22  1  0
 23 24  1  0
 23 25  2  0
M  END
