
     RDKit          3D

 20 21  0  0  0  0  0  0  0  0999 V2000
   -3.8890   -1.4030    1.1640 C   0  0  0  0  0  0  0  0  0  0  0  0
   -2.9540   -0.3090    0.7390 C   0  0  0  0  0  0  0  0  0  0  0  0
   -1.6710   -0.4710    0.9560 C   0  0  0  0  0  0  0  0  0  0  0  0
   -1.2220   -1.7530    1.6200 C   0  0  0  0  0  0  0  0  0  0  0  0
    0.2420   -1.9630    1.3240 C   0  0  0  0  0  0  0  0  0  0  0  0
    0.9610   -0.7060    1.7770 C   0  0  0  0  0  0  0  0  0  0  0  0
    0.7690    0.4020    0.8030 C   0  0  1  0  0  0  0  0  0  0  0  0
    1.5160    0.3490   -0.4730 C   0  0  2  0  0  0  0  0  0  0  0  0
    1.2890   -0.7510   -1.2770 O   0  0  0  0  0  0  0  0  0  0  0  0
    2.9320    0.8250   -0.4570 C   0  0  2  0  0  0  0  0  0  0  0  0
    3.2270    1.2320   -1.7830 O   0  0  0  0  0  0  0  0  0  0  0  0
    3.9390   -0.2310   -0.1310 C   0  0  0  0  0  0  0  0  0  0  0  0
    5.3280    0.4020   -0.1580 C   0  0  0  0  0  0  0  0  0  0  0  0
    5.6290    0.9340   -1.3910 O   0  0  0  0  0  0  0  0  0  0  0  0
   -0.7220    0.5640    0.5680 C   0  0  0  0  0  0  0  0  0  0  0  0
   -1.1570    1.6190    0.0210 N   0  0  0  0  0  0  0  0  0  0  0  0
   -2.5320    1.9420   -0.2810 C   0  0  0  0  0  0  0  0  0  0  0  0
   -3.5130    0.8740    0.1080 C   0  0  1  0  0  0  0  0  0  0  0  0
   -4.2900    0.5240   -1.1680 C   0  0  0  0  0  0  0  0  0  0  0  0
   -3.4670   -0.0920   -2.0870 O   0  0  0  0  0  0  0  0  0  0  0  0
  1  2  1  0
  2  3  2  0
  2 18  1  0
  3  4  1  0
  3 15  1  0
  4  5  1  0
  5  6  1  0
  7  6  1  6
  7  8  1  0
  7 15  1  0
  8  9  1  1
  8 10  1  0
 10 11  1  6
 10 12  1  0
 12 13  1  0
 13 14  1  0
 15 16  2  0
 16 17  1  0
 17 18  1  0
 18 19  1  6
 19 20  1  0
M  CHG  1  16   1
M  END
