
     RDKit          3D

 20 21  0  0  0  0  0  0  0  0999 V2000
   -1.3060    3.3760   -1.5250 O   0  0  0  0  0  0  0  0  0  0  0  0
   -0.1440    3.3070   -0.7500 C   0  0  0  0  0  0  0  0  0  0  0  0
   -0.4500    2.8720    0.6660 C   0  0  0  0  0  0  0  0  0  0  0  0
   -1.0920    1.5200    0.7240 C   0  0  0  0  0  0  0  0  0  0  0  0
   -0.2860    0.4040    0.1500 C   0  0  1  0  0  0  0  0  0  0  0  0
    0.9390    0.3030    0.8610 N   0  0  0  0  0  0  0  0  0  0  0  0
    1.9810   -0.4860    0.3070 C   0  0  1  0  0  0  0  0  0  0  0  0
    2.3760   -0.0700   -1.0950 C   0  0  0  0  0  0  0  0  0  0  0  0
    3.8680   -0.4330   -1.0740 C   0  0  0  0  0  0  0  0  0  0  0  0
    4.2850    0.2850    0.2050 C   0  0  1  0  0  0  0  0  0  0  0  0
    4.0840    1.6620   -0.0020 O   0  0  0  0  0  0  0  0  0  0  0  0
    3.2320   -0.2300    1.1630 C   0  0  0  0  0  0  0  0  0  0  0  0
   -1.1000   -0.8350    0.0420 C   0  0  1  0  0  0  0  0  0  0  0  0
   -0.2810   -1.7830   -0.6300 O   0  0  0  0  0  0  0  0  0  0  0  0
   -1.6660   -1.3850    1.2960 C   0  0  0  0  0  0  0  0  0  0  0  0
   -3.1350   -1.7440    1.2340 C   0  0  0  0  0  0  0  0  0  0  0  0
   -3.2940   -2.9670    0.3980 C   0  0  0  0  0  0  0  0  0  0  0  0
   -2.4980   -2.9280   -0.7200 O   0  0  0  0  0  0  0  0  0  0  0  0
   -2.8130   -1.8280   -1.5000 C   0  0  0  0  0  0  0  0  0  0  0  0
   -2.1940   -0.5530   -0.9980 C   0  0  0  0  0  0  0  0  0  0  0  0
  1  2  1  0
  2  3  1  0
  3  4  1  0
  5  4  1  1
  5  6  1  0
  5 13  1  0
  7  6  1  1
  7  8  1  0
  7 12  1  0
  8  9  1  0
  9 10  1  0
 10 11  1  6
 10 12  1  0
 13 14  1  6
 13 15  1  0
 13 20  1  0
 15 16  1  0
 16 17  1  0
 17 18  1  0
 18 19  1  0
 19 20  1  0
M  CHG  1   6   1
M  END
