
     RDKit          3D

 16 15  0  0  0  0  0  0  0  0999 V2000
   -3.5480    1.7650   -0.3380 N   0  0  0  0  0  0  0  0  0  0  0  0
   -2.1930    1.5070   -0.2410 O   0  0  0  0  0  0  0  0  0  0  0  0
   -1.6690    0.2490   -0.2630 C   0  0  0  0  0  0  0  0  0  0  0  0
   -2.3700   -0.7570   -0.3730 O   0  0  0  0  0  0  0  0  0  0  0  0
   -0.1660    0.0930   -0.1470 C   0  0  1  0  0  0  0  0  0  0  0  0
    0.1580    0.7970    1.1520 C   0  0  0  0  0  0  0  0  0  0  0  0
   -0.5540    0.1070    2.2950 C   0  0  0  0  0  0  0  0  0  0  0  0
   -1.9470    0.1180    2.1380 O   0  0  0  0  0  0  0  0  0  0  0  0
    0.2240   -1.6380   -0.0360 S   0  0  0  0  0  0  0  0  0  0  0  0
    1.9420   -2.0260    0.0200 C   0  0  0  0  0  0  0  0  0  0  0  0
    2.7040   -1.7110    1.2590 C   0  0  0  0  0  0  0  0  0  0  0  0
    4.0610   -2.1330    1.1160 O   0  0  0  0  0  0  0  0  0  0  0  0
    0.4990    0.7760   -1.3220 C   0  0  1  0  0  0  0  0  0  0  0  0
    1.8720    0.6450   -1.2330 O   0  0  0  0  0  0  0  0  0  0  0  0
    0.0390    0.2230   -2.6410 C   0  0  0  0  0  0  0  0  0  0  0  0
   -1.3500    0.3270   -2.7930 O   0  0  0  0  0  0  0  0  0  0  0  0
  1  2  1  0
  2  3  1  0
  3  4  2  0
  3  5  1  0
  5  6  1  1
  5  9  1  0
  5 13  1  0
  6  7  1  0
  7  8  1  0
  9 10  1  0
 10 11  1  0
 11 12  1  0
 13 14  1  1
 13 15  1  0
 15 16  1  0
M  CHG  1   1   1
M  END
