
     RDKit          3D

 17 16  0  0  0  0  0  0  0  0999 V2000
    3.5210   -1.5280   -0.4970 N   0  0  0  0  0  0  0  0  0  0  0  0
    3.0630   -0.6840    0.5580 C   0  0  0  0  0  0  0  0  0  0  0  0
    2.2140    0.4430    0.1610 C   0  0  2  0  0  0  0  0  0  0  0  0
    2.6860    1.0910   -1.0220 O   0  0  0  0  0  0  0  0  0  0  0  0
    2.3050    1.5260    1.2240 C   0  0  0  0  0  0  0  0  0  0  0  0
    3.6020    1.9720    1.3890 O   0  0  0  0  0  0  0  0  0  0  0  0
    0.7680    0.1860   -0.0470 C   0  0  0  0  0  0  0  0  0  0  0  0
    0.4660   -0.7420   -1.0970 N   0  0  0  0  0  0  0  0  0  0  0  0
   -0.9190   -0.2190   -1.9310 S   0  0  2  0  0  0  0  0  0  0  0  0
   -1.0730   -1.1090   -3.1550 O   0  0  0  0  0  0  0  0  0  0  0  0
   -0.5740    1.1580   -2.4930 O   0  0  0  0  0  0  0  0  0  0  0  0
   -2.3880   -0.1050   -1.0030 C   0  0  2  0  0  0  0  0  0  0  0  0
   -2.8350    1.3540   -0.8560 C   0  0  0  0  0  0  0  0  0  0  0  0
   -2.9280    1.7180    0.4760 O   0  0  0  0  0  0  0  0  0  0  0  0
   -2.2500   -0.7020    0.3690 C   0  0  0  0  0  0  0  0  0  0  0  0
   -3.6180   -1.0370    0.9230 C   0  0  0  0  0  0  0  0  0  0  0  0
   -3.4140   -1.7630    2.0970 O   0  0  0  0  0  0  0  0  0  0  0  0
  1  2  1  0
  2  3  1  0
  3  4  1  6
  3  5  1  0
  3  7  1  0
  5  6  1  0
  7  8  1  0
  9  8  1  1
  9 10  2  0
  9 11  2  0
  9 12  1  0
 12 13  1  1
 12 15  1  0
 13 14  1  0
 15 16  1  0
 16 17  1  0
M  CHG  1   1   1
M  END
