
     RDKit          3D

 17 16  0  0  0  0  0  0  0  0999 V2000
   -3.4270   -0.7540   -1.3490 N   0  0  0  0  0  0  0  0  0  0  0  0
   -2.5100   -1.0360   -0.2710 C   0  0  0  0  0  0  0  0  0  0  0  0
   -2.1920    0.2070    0.5360 C   0  0  2  0  0  0  0  0  0  0  0  0
   -1.3120   -0.1860    1.5310 O   0  0  0  0  0  0  0  0  0  0  0  0
   -3.4730    0.6190    1.2350 C   0  0  0  0  0  0  0  0  0  0  0  0
   -3.9800   -0.7600    2.3000 S   0  0  0  0  0  0  0  0  0  0  0  0
   -1.6100    1.2940   -0.2890 C   0  0  0  0  0  0  0  0  0  0  0  0
   -0.4770    0.9600   -0.9660 O   0  0  0  0  0  0  0  0  0  0  0  0
    0.6160    0.5610   -0.2590 C   0  0  0  0  0  0  0  0  0  0  0  0
    1.7330    0.3170   -1.2830 C   0  0  0  0  0  0  0  0  0  0  0  0
    2.9430   -0.1140   -0.6190 N   0  0  0  0  0  0  0  0  0  0  0  0
    3.1400   -1.5070   -0.4230 C   0  0  0  0  0  0  0  0  0  0  0  0
    2.3210   -2.3560   -0.7970 O   0  0  0  0  0  0  0  0  0  0  0  0
    4.3070   -1.9610    0.2200 O   0  0  0  0  0  0  0  0  0  0  0  0
    3.9210    0.8530   -0.1700 C   0  0  1  0  0  0  0  0  0  0  0  0
    4.0770    0.8040    1.2320 O   0  0  0  0  0  0  0  0  0  0  0  0
    5.1450    0.6400   -0.7990 O   0  0  0  0  0  0  0  0  0  0  0  0
  1  2  1  0
  2  3  1  0
  3  4  1  1
  3  5  1  0
  3  7  1  0
  5  6  1  0
  7  8  1  0
  8  9  1  0
  9 10  1  0
 10 11  1  0
 11 12  1  0
 11 15  1  0
 12 13  2  0
 12 14  1  0
 15 16  1  1
 15 17  1  0
M  CHG  1   1   1
M  END
