
     RDKit          3D

 27 28  0  0  0  0  0  0  0  0999 V2000
   -6.6140    1.8550    2.2560 C   0  0  0  0  0  0  0  0  0  0  0  0
   -5.5430    1.4430    1.3120 C   0  0  0  0  0  0  0  0  0  0  0  0
   -5.7780    1.5170    0.0780 O   0  0  0  0  0  0  0  0  0  0  0  0
   -4.3130    0.9860    1.7120 O   0  0  0  0  0  0  0  0  0  0  0  0
   -3.2840    0.5900    0.8840 C   0  0  0  0  0  0  0  0  0  0  0  0
   -2.3670    1.4570    0.3570 C   0  0  0  0  0  0  0  0  0  0  0  0
   -1.3490    0.9730   -0.4780 C   0  0  0  0  0  0  0  0  0  0  0  0
   -1.2100   -0.3500   -0.8070 C   0  0  0  0  0  0  0  0  0  0  0  0
   -0.1800   -0.9780   -1.5540 C   0  0  0  0  0  0  0  0  0  0  0  0
    1.0250   -0.7210   -1.9180 C   0  0  0  0  0  0  0  0  0  0  0  0
    1.8600    0.4090   -1.6680 C   0  0  0  0  0  0  0  0  0  0  0  0
    1.5740    1.4170   -0.9800 O   0  0  0  0  0  0  0  0  0  0  0  0
    3.2030    0.4260   -2.2640 N   0  0  0  0  0  0  0  0  0  0  0  0
    4.0340    1.5760   -1.9970 C   0  0  0  0  0  0  0  0  0  0  0  0
    4.3650    1.8070   -0.5630 C   0  0  0  0  0  0  0  0  0  0  0  0
    5.0980    0.6700    0.0420 C   0  0  0  0  0  0  0  0  0  0  0  0
    6.4930    0.6380   -0.0170 C   0  0  0  0  0  0  0  0  0  0  0  0
    7.1770   -0.4040    0.5400 C   0  0  0  0  0  0  0  0  0  0  0  0
    6.4820   -1.4120    1.1550 C   0  0  0  0  0  0  0  0  0  0  0  0
    5.0940   -1.3860    1.2170 C   0  0  0  0  0  0  0  0  0  0  0  0
    4.4140   -0.3370    0.6560 C   0  0  0  0  0  0  0  0  0  0  0  0
   -2.1820   -1.2230   -0.2430 C   0  0  0  0  0  0  0  0  0  0  0  0
   -3.1790   -0.7450    0.5740 C   0  0  0  0  0  0  0  0  0  0  0  0
   -4.1130   -1.6160    1.1110 O   0  0  0  0  0  0  0  0  0  0  0  0
   -5.2230   -1.9260    0.3500 C   0  0  0  0  0  0  0  0  0  0  0  0
   -6.2800   -2.8460    0.8330 C   0  0  0  0  0  0  0  0  0  0  0  0
   -5.3450   -1.4160   -0.7860 O   0  0  0  0  0  0  0  0  0  0  0  0
  1  2  1  0
  2  3  2  0
  2  4  1  0
  4  5  1  0
  5  6  2  0
  5 23  1  0
  6  7  1  0
  7  8  2  0
  8  9  1  0
  8 22  1  0
  9 10  2  3
 10 11  1  0
 11 12  2  0
 11 13  1  0
 13 14  1  0
 14 15  1  0
 15 16  1  0
 16 17  2  0
 16 21  1  0
 17 18  1  0
 18 19  2  0
 19 20  1  0
 20 21  2  0
 22 23  2  0
 23 24  1  0
 24 25  1  0
 25 26  1  0
 25 27  2  0
M  END
