
     RDKit          3D

 16 15  0  0  0  0  0  0  0  0999 V2000
   -0.4270    0.0810   -3.1140 N   0  0  0  0  0  0  0  0  0  0  0  0
    0.4920   -0.1990   -2.0850 C   0  0  0  0  0  0  0  0  0  0  0  0
    1.8950   -0.9500   -2.5230 S   0  0  0  0  0  0  0  0  0  0  0  0
    0.2410    0.1540   -0.6610 C   0  0  1  0  0  0  0  0  0  0  0  0
   -0.9120   -0.5160   -0.2760 O   0  0  0  0  0  0  0  0  0  0  0  0
   -1.9140    0.3450    0.1500 C   0  0  2  0  0  0  0  0  0  0  0  0
   -2.2090    0.0320    1.5870 C   0  0  0  0  0  0  0  0  0  0  0  0
   -3.2550    0.8930    2.1180 N   0  0  0  0  0  0  0  0  0  0  0  0
   -3.1780    0.2150   -0.6430 C   0  0  0  0  0  0  0  0  0  0  0  0
   -3.7260   -1.0610   -0.5800 O   0  0  0  0  0  0  0  0  0  0  0  0
    1.4250   -0.2460    0.1460 C   0  0  0  0  0  0  0  0  0  0  0  0
    1.3670   -1.0980    1.0690 O   0  0  0  0  0  0  0  0  0  0  0  0
    2.6290    0.3380   -0.1280 O   0  0  0  0  0  0  0  0  0  0  0  0
    3.8360    0.0810    0.5280 C   0  0  0  0  0  0  0  0  0  0  0  0
    4.2750   -1.3550    0.4290 C   0  0  0  0  0  0  0  0  0  0  0  0
    5.4900   -1.4590    1.1280 O   0  0  0  0  0  0  0  0  0  0  0  0
  1  2  1  0
  2  3  2  0
  2  4  1  0
  4  5  1  1
  4 11  1  0
  5  6  1  0
  6  7  1  1
  6  9  1  0
  7  8  1  0
  9 10  1  0
 11 12  2  0
 11 13  1  0
 13 14  1  0
 14 15  1  0
 15 16  1  0
M  CHG  1   8   1
M  END
