
     RDKit          3D

 16 15  0  0  0  0  0  0  0  0999 V2000
    3.8280   -0.8960   -0.5250 C   0  0  0  0  0  0  0  0  0  0  0  0
    3.3340    0.3120   -0.1140 O   0  0  0  0  0  0  0  0  0  0  0  0
    2.0930    0.6240   -0.6020 C   0  0  0  0  0  0  0  0  0  0  0  0
    0.9770   -0.2940   -0.1410 C   0  0  1  0  0  0  0  0  0  0  0  0
    0.9590   -0.1930    1.3600 C   0  0  0  0  0  0  0  0  0  0  0  0
    2.2100   -0.5620    1.8490 O   0  0  0  0  0  0  0  0  0  0  0  0
   -0.2350    0.0900   -0.7710 N   0  0  0  0  0  0  0  0  0  0  0  0
   -1.3670    0.3940    0.0210 C   0  0  1  0  0  0  0  0  0  0  0  0
   -1.5620    1.8580    0.0840 C   0  0  0  0  0  0  0  0  0  0  0  0
   -0.6840    2.7020   -0.6310 N   0  0  0  0  0  0  0  0  0  0  0  0
   -2.4750    2.4070    0.7450 O   0  0  0  0  0  0  0  0  0  0  0  0
   -2.6720   -0.1480   -0.6010 C   0  0  2  0  0  0  0  0  0  0  0  0
   -3.7520    0.2270    0.2320 O   0  0  0  0  0  0  0  0  0  0  0  0
   -2.6540   -1.6240   -0.6860 C   0  0  0  0  0  0  0  0  0  0  0  0
   -3.6680   -2.3150   -1.3240 O   0  0  0  0  0  0  0  0  0  0  0  0
   -1.4380   -2.4680   -0.0250 S   0  0  0  0  0  0  0  0  0  0  0  0
  1  2  1  0
  2  3  1  0
  4  3  1  6
  4  5  1  0
  4  7  1  0
  5  6  1  0
  8  7  1  6
  8  9  1  0
  8 12  1  0
  9 10  1  0
  9 11  2  0
 12 13  1  1
 12 14  1  0
 14 15  1  0
 14 16  2  0
M  CHG  1   7   1
M  END
