
     RDKit          3D

 27 30  0  0  0  0  0  0  0  0999 V2000
    7.5560   -0.4580   -0.3720 C   0  0  0  0  0  0  0  0  0  0  0  0
    6.6790   -0.4220    1.1980 S   0  0  0  0  0  0  0  0  0  0  0  0
    7.0120   -1.6070    2.0620 O   0  0  0  0  0  0  0  0  0  0  0  0
    4.9180   -0.3060    0.9290 C   0  0  0  0  0  0  0  0  0  0  0  0
    4.3330    0.9380    0.8460 C   0  0  0  0  0  0  0  0  0  0  0  0
    2.9660    1.1010    0.6380 C   0  0  0  0  0  0  0  0  0  0  0  0
    2.1800    0.0010    0.5130 C   0  0  0  0  0  0  0  0  0  0  0  0
    0.7300    0.1330    0.2930 C   0  0  0  0  0  0  0  0  0  0  0  0
    0.0060    1.2430    0.1930 N   0  0  0  0  0  0  0  0  0  0  0  0
   -1.2980    0.9680   -0.0070 C   0  0  0  0  0  0  0  0  0  0  0  0
   -2.3840    1.9240   -0.1640 C   0  0  0  0  0  0  0  0  0  0  0  0
   -2.3760    2.8360   -1.2090 C   0  0  0  0  0  0  0  0  0  0  0  0
   -3.4150    3.7410   -1.3490 C   0  0  0  0  0  0  0  0  0  0  0  0
   -4.4300    3.7580   -0.4980 N   0  0  0  0  0  0  0  0  0  0  0  0
   -4.4890    2.8930    0.5370 C   0  0  0  0  0  0  0  0  0  0  0  0
   -3.4610    1.9860    0.6890 C   0  0  0  0  0  0  0  0  0  0  0  0
   -1.3800   -0.4080   -0.0310 C   0  0  0  0  0  0  0  0  0  0  0  0
   -2.6000   -1.1960   -0.2230 C   0  0  0  0  0  0  0  0  0  0  0  0
   -3.2930   -1.0690   -1.4020 C   0  0  0  0  0  0  0  0  0  0  0  0
   -4.4310   -1.7900   -1.6070 C   0  0  0  0  0  0  0  0  0  0  0  0
   -4.9350   -2.6640   -0.6670 C   0  0  0  0  0  0  0  0  0  0  0  0
   -6.0710   -3.3820   -0.8760 F   0  0  0  0  0  0  0  0  0  0  0  0
   -4.2100   -2.7650    0.5070 C   0  0  0  0  0  0  0  0  0  0  0  0
   -3.0590   -2.0520    0.7470 C   0  0  0  0  0  0  0  0  0  0  0  0
   -0.1400   -0.8950    0.1530 N   0  0  0  0  0  0  0  0  0  0  0  0
    2.7490   -1.2380    0.5940 C   0  0  0  0  0  0  0  0  0  0  0  0
    4.1190   -1.4020    0.8030 C   0  0  0  0  0  0  0  0  0  0  0  0
  2  1  1  6
  2  3  2  0
  2  4  1  0
  4  5  2  0
  4 27  1  0
  5  6  1  0
  6  7  2  0
  7  8  1  0
  7 26  1  0
  8  9  2  0
  8 25  1  0
  9 10  1  0
 10 11  1  0
 10 17  2  0
 11 12  2  0
 11 16  1  0
 12 13  1  0
 13 14  2  0
 14 15  1  0
 15 16  2  0
 17 18  1  0
 17 25  1  0
 18 19  2  0
 18 24  1  0
 19 20  1  0
 20 21  2  0
 21 22  1  0
 21 23  1  0
 23 24  2  0
 26 27  2  0
M  END
