
     RDKit          3D

 27 30  0  0  0  0  0  0  0  0999 V2000
   -3.7970   -1.9300    4.3280 C   0  0  0  0  0  0  0  0  0  0  0  0
   -3.3840   -1.4310    3.1290 C   0  0  0  0  0  0  0  0  0  0  0  0
   -1.9690   -1.2620    2.9530 C   0  0  0  0  0  0  0  0  0  0  0  0
   -1.2140   -0.8330    1.9930 C   0  0  0  0  0  0  0  0  0  0  0  0
    0.2020   -0.8160    2.2090 C   0  0  0  0  0  0  0  0  0  0  0  0
    0.8970   -1.1920    3.3620 N   0  0  0  0  0  0  0  0  0  0  0  0
    2.6510   -0.8620    2.8820 S   0  0  0  0  0  0  0  0  0  0  0  0
    2.2770   -0.2950    1.2930 C   0  0  0  0  0  0  0  0  0  0  0  0
    0.9730   -0.3820    1.2350 C   0  0  0  0  0  0  0  0  0  0  0  0
    0.5060    0.0520    0.0380 C   0  0  0  0  0  0  0  0  0  0  0  0
   -0.8310    0.0470   -0.1940 N   0  0  0  0  0  0  0  0  0  0  0  0
   -1.5070    0.4100   -1.2480 N   0  0  0  0  0  0  0  0  0  0  0  0
   -2.8220    0.2480   -1.0730 C   0  0  0  0  0  0  0  0  0  0  0  0
   -3.9490    0.5310   -2.0050 C   0  0  1  0  0  0  0  0  0  0  0  0
   -3.9440    2.0150   -2.3970 C   0  0  0  0  0  0  0  0  0  0  0  0
   -3.7660   -0.2360   -3.3060 C   0  0  0  0  0  0  0  0  0  0  0  0
   -2.9420   -0.2680    0.2260 C   0  0  0  0  0  0  0  0  0  0  0  0
   -1.6870   -0.3910    0.7720 C   0  0  0  0  0  0  0  0  0  0  0  0
    1.6330    0.4350   -0.6860 C   0  0  0  0  0  0  0  0  0  0  0  0
    1.5570    0.8880   -1.8490 O   0  0  0  0  0  0  0  0  0  0  0  0
    2.7880    0.2280    0.0820 C   0  0  0  0  0  0  0  0  0  0  0  0
    4.1430    0.4260   -0.3570 C   0  0  0  0  0  0  0  0  0  0  0  0
    4.3140    1.4140   -1.2730 C   0  0  0  0  0  0  0  0  0  0  0  0
    5.6100    1.7710   -1.8440 C   0  0  0  0  0  0  0  0  0  0  0  0
    5.3170   -0.2950    0.0070 C   0  0  0  0  0  0  0  0  0  0  0  0
    5.3610   -1.3050    0.8270 C   0  0  0  0  0  0  0  0  0  0  0  0
    6.5300    0.0770   -0.5300 F   0  0  0  0  0  0  0  0  0  0  0  0
  1  2  2  0
  2  3  1  0
  3  4  2  3
  4  5  1  0
  4 18  1  0
  5  6  2  0
  5  9  1  0
  6  7  1  0
  7  8  1  0
  8  9  1  0
  8 21  2  0
  9 10  2  0
 10 11  1  0
 10 19  1  0
 11 12  1  0
 11 18  1  0
 12 13  2  0
 13 14  1  0
 13 17  1  0
 14 15  1  6
 14 16  1  0
 17 18  2  0
 19 20  2  0
 19 21  1  0
 21 22  1  0
 22 23  2  3
 22 25  1  0
 23 24  1  0
 25 26  2  0
 25 27  1  0
M  END
