
     RDKit          3D

 27 30  0  0  0  0  0  0  0  0999 V2000
   -6.0840   -0.2180   -0.0880 C   0  0  0  0  0  0  0  0  0  0  0  0
   -4.6710   -0.6450   -0.2480 C   0  0  0  0  0  0  0  0  0  0  0  0
   -3.6490    0.0520    0.3570 C   0  0  0  0  0  0  0  0  0  0  0  0
   -2.3020   -0.3100    0.2360 C   0  0  0  0  0  0  0  0  0  0  0  0
   -1.2830    0.4970    0.8910 C   0  0  0  0  0  0  0  0  0  0  0  0
   -1.5680    1.6770    1.5310 N   0  0  0  0  0  0  0  0  0  0  0  0
   -0.4670    2.2170    2.0490 C   0  0  0  0  0  0  0  0  0  0  0  0
   -0.3330    3.4910    2.8200 C   0  0  0  0  0  0  0  0  0  0  0  0
    0.5630    1.3790    1.7460 C   0  0  0  0  0  0  0  0  0  0  0  0
    1.9940    1.5130    2.1160 C   0  0  0  0  0  0  0  0  0  0  0  0
    0.0550    0.2990    1.0200 C   0  0  0  0  0  0  0  0  0  0  0  0
    0.8270   -0.8380    0.5750 C   0  0  0  0  0  0  0  0  0  0  0  0
    1.8490   -0.8110   -0.2470 C   0  0  0  0  0  0  0  0  0  0  0  0
    2.5390   -2.0580   -0.6030 C   0  0  0  0  0  0  0  0  0  0  0  0
    4.0190   -1.8880   -0.7960 C   0  0  0  0  0  0  0  0  0  0  0  0
    4.5210   -0.4890   -0.5210 C   0  0  0  0  0  0  0  0  0  0  0  0
    3.6440    0.5020   -1.1880 N   0  0  0  0  0  0  0  0  0  0  0  0
    4.0100    1.5120   -2.1560 C   0  0  0  0  0  0  0  0  0  0  0  0
    2.6600    2.6890   -1.8190 S   0  0  0  0  0  0  0  0  0  0  0  0
    3.1470    3.6040   -0.7080 O   0  0  0  0  0  0  0  0  0  0  0  0
    1.5960    1.4980   -1.0990 N   0  0  0  0  0  0  0  0  0  0  0  0
    2.2920    0.4530   -0.8490 C   0  0  0  0  0  0  0  0  0  0  0  0
   -2.0420   -1.4010   -0.5200 C   0  0  0  0  0  0  0  0  0  0  0  0
   -3.0710   -2.1020   -1.1280 C   0  0  0  0  0  0  0  0  0  0  0  0
   -2.7240   -3.2940   -1.9470 C   0  0  0  0  0  0  0  0  0  0  0  0
   -4.3850   -1.7530   -1.0130 C   0  0  0  0  0  0  0  0  0  0  0  0
   -5.3800   -2.4640   -1.6250 F   0  0  0  0  0  0  0  0  0  0  0  0
  1  2  1  0
  2  3  2  0
  2 26  1  0
  3  4  1  0
  4  5  1  0
  4 23  2  0
  5  6  1  0
  5 11  2  0
  6  7  1  0
  7  8  1  0
  7  9  2  0
  9 10  1  0
  9 11  1  0
 11 12  1  0
 12 13  2  3
 13 14  1  0
 13 22  1  0
 14 15  1  0
 15 16  1  0
 16 17  1  0
 17 18  1  0
 17 22  1  0
 19 18  1  1
 19 20  2  0
 19 21  1  0
 21 22  2  0
 23 24  1  0
 24 25  1  0
 24 26  2  0
 26 27  1  0
M  END
