
     RDKit          3D

 27 30  0  0  0  0  0  0  0  0999 V2000
    5.6040    4.6310    2.0330 C   0  0  0  0  0  0  0  0  0  0  0  0
    6.2290    3.6370    1.6040 C   0  0  0  0  0  0  0  0  0  0  0  0
    6.0840    2.3810    0.9690 C   0  0  0  0  0  0  0  0  0  0  0  0
    7.3130    1.7470    0.7420 C   0  0  0  0  0  0  0  0  0  0  0  0
    7.6830    0.5110    0.1580 C   0  0  0  0  0  0  0  0  0  0  0  0
    6.7840   -0.3660   -0.3100 F   0  0  0  0  0  0  0  0  0  0  0  0
    4.9920    1.6920    0.4420 C   0  0  0  0  0  0  0  0  0  0  0  0
    3.6860    1.8780    0.4750 C   0  0  0  0  0  0  0  0  0  0  0  0
    2.7600    0.9770   -0.2000 C   0  0  0  0  0  0  0  0  0  0  0  0
    1.5290    0.9610    0.1910 C   0  0  0  0  0  0  0  0  0  0  0  0
    0.4300    0.1610   -0.3120 C   0  0  0  0  0  0  0  0  0  0  0  0
   -0.8480    0.1420    0.1020 N   0  0  0  0  0  0  0  0  0  0  0  0
   -1.5440   -0.7470   -0.6350 C   0  0  0  0  0  0  0  0  0  0  0  0
   -2.9660   -1.0840   -0.5190 C   0  0  0  0  0  0  0  0  0  0  0  0
   -3.7630   -0.4750    0.4190 C   0  0  0  0  0  0  0  0  0  0  0  0
   -5.0940   -0.7790    0.5410 C   0  0  0  0  0  0  0  0  0  0  0  0
   -5.6700   -1.7320   -0.3070 C   0  0  0  0  0  0  0  0  0  0  0  0
   -4.8570   -2.3330   -1.2410 C   0  0  0  0  0  0  0  0  0  0  0  0
   -3.5070   -2.0290   -1.3700 C   0  0  0  0  0  0  0  0  0  0  0  0
   -5.4230   -3.3600   -2.1730 C   0  0  0  0  0  0  0  0  0  0  0  0
   -6.9170   -3.2520   -2.2500 C   0  0  0  0  0  0  0  0  0  0  0  0
   -7.5030   -3.2760   -0.8360 C   0  0  0  0  0  0  0  0  0  0  0  0
   -7.0480   -2.0630   -0.1990 N   0  0  0  0  0  0  0  0  0  0  0  0
   -0.6570   -1.2640   -1.5010 N   0  0  0  0  0  0  0  0  0  0  0  0
    0.5020   -0.7020   -1.2810 O   0  0  0  0  0  0  0  0  0  0  0  0
    1.3500    2.1540    1.4840 S   0  0  0  0  0  0  0  0  0  0  0  0
    3.0140    2.9290    1.2600 C   0  0  0  0  0  0  0  0  0  0  0  0
  1  2  2  0
  2  3  1  0
  3  4  2  3
  3  7  1  0
  4  5  1  0
  5  6  1  0
  7  8  2  3
  8  9  1  0
  8 27  1  0
  9 10  2  0
 10 11  1  0
 10 26  1  0
 11 12  2  0
 11 25  1  0
 12 13  1  0
 13 14  1  0
 13 24  2  0
 14 15  2  0
 14 19  1  0
 15 16  1  0
 16 17  2  0
 17 18  1  0
 17 23  1  0
 18 19  2  0
 18 20  1  0
 20 21  1  0
 21 22  1  0
 22 23  1  0
 24 25  1  0
 26 27  1  0
M  END
