
     RDKit          3D

 21 22  0  0  0  0  0  0  0  0999 V2000
    6.5200    1.6800    0.4970 C   0  0  0  0  0  0  0  0  0  0  0  0
    6.3620    0.2630   -0.0460 C   0  0  0  0  0  0  0  0  0  0  0  0
    5.0110   -0.2290    0.4090 C   0  0  2  0  0  0  0  0  0  0  0  0
    4.7910   -1.9360   -0.2300 S   0  0  0  0  0  0  0  0  0  0  0  0
    3.0110   -1.9260   -0.5230 C   0  0  0  0  0  0  0  0  0  0  0  0
    2.2880   -3.2510   -0.5660 C   0  0  0  0  0  0  0  0  0  0  0  0
    2.4790   -0.7620   -0.6780 C   0  0  0  0  0  0  0  0  0  0  0  0
    1.0780   -0.3600   -0.9310 C   0  0  0  0  0  0  0  0  0  0  0  0
    0.8230    0.8880   -1.0440 O   0  0  0  0  0  0  0  0  0  0  0  0
   -0.0270   -1.2090   -1.0630 N   0  0  0  0  0  0  0  0  0  0  0  0
   -1.3920   -0.7780   -1.3030 C   0  0  0  0  0  0  0  0  0  0  0  0
   -1.9030    0.0620   -0.1840 C   0  0  2  0  0  0  0  0  0  0  0  0
   -1.9080   -0.5950    1.0420 O   0  0  0  0  0  0  0  0  0  0  0  0
   -1.0810   -0.1010    1.9890 C   0  0  0  0  0  0  0  0  0  0  0  0
   -3.2200    0.7330   -0.5080 C   0  0  1  0  0  0  0  0  0  0  0  0
   -4.3500   -0.1700   -0.8340 C   0  0  0  0  0  0  0  0  0  0  0  0
   -5.5680    0.2580   -0.0440 C   0  0  0  0  0  0  0  0  0  0  0  0
   -5.7330    1.6360   -0.3080 O   0  0  0  0  0  0  0  0  0  0  0  0
   -4.8400    2.3750    0.4670 C   0  0  0  0  0  0  0  0  0  0  0  0
   -3.5390    1.6390    0.6730 C   0  0  0  0  0  0  0  0  0  0  0  0
    3.7080    0.5680   -0.5630 S   0  0  0  0  0  0  0  0  0  0  0  0
  1  2  1  0
  3  2  1  6
  3  4  1  0
  3 21  1  0
  4  5  1  0
  5  6  1  0
  5  7  2  0
  7  8  1  0
  7 21  1  0
  8  9  2  0
  8 10  1  0
 10 11  1  0
 12 11  1  6
 12 13  1  0
 12 15  1  0
 13 14  1  0
 15 16  1  1
 15 20  1  0
 16 17  1  0
 17 18  1  0
 18 19  1  0
 19 20  1  0
M  END
