
     RDKit          3D

 21 22  0  0  0  0  0  0  0  0999 V2000
    2.7430   -1.5360   -1.9890 C   0  0  0  0  0  0  0  0  0  0  0  0
    2.0930   -0.6380   -1.2800 C   0  0  0  0  0  0  0  0  0  0  0  0
    0.6490   -0.7940   -1.1280 C   0  0  0  0  0  0  0  0  0  0  0  0
   -0.1710   -0.0350   -0.4840 C   0  0  0  0  0  0  0  0  0  0  0  0
    0.3800    1.4180    0.3780 S   0  0  0  0  0  0  0  0  0  0  0  0
   -0.4990    1.2310    1.9880 C   0  0  0  0  0  0  0  0  0  0  0  0
   -1.9300    1.0770    1.6660 C   0  0  0  0  0  0  0  0  0  0  0  0
   -2.3420    0.2060    0.5820 C   0  0  0  0  0  0  0  0  0  0  0  0
   -3.7950   -0.1690    0.5670 C   0  0  1  0  0  0  0  0  0  0  0  0
   -4.3180   -0.6090    2.2840 S   0  0  0  0  0  0  0  0  0  0  0  0
   -5.8930    0.2320    2.1870 C   0  0  0  0  0  0  0  0  0  0  0  0
   -5.8330    0.9860    1.1700 N   0  0  0  0  0  0  0  0  0  0  0  0
   -4.6850    1.0120    0.4120 C   0  0  0  0  0  0  0  0  0  0  0  0
   -4.3320    1.9530   -0.3980 O   0  0  0  0  0  0  0  0  0  0  0  0
   -1.5950   -0.3110   -0.3970 C   0  0  0  0  0  0  0  0  0  0  0  0
   -2.2540   -1.1590   -1.4270 C   0  0  0  0  0  0  0  0  0  0  0  0
    2.8200    0.4640   -0.6490 C   0  0  0  0  0  0  0  0  0  0  0  0
    4.2010    0.4830   -0.8350 O   0  0  0  0  0  0  0  0  0  0  0  0
    5.0610   -0.4700   -0.3250 C   0  0  0  0  0  0  0  0  0  0  0  0
    6.5200   -0.3260   -0.6180 C   0  0  0  0  0  0  0  0  0  0  0  0
    4.6320   -1.4250    0.3630 O   0  0  0  0  0  0  0  0  0  0  0  0
  1  2  2  0
  2  3  1  0
  2 17  1  0
  3  4  2  3
  4  5  1  0
  4 15  1  0
  5  6  1  0
  6  7  1  0
  7  8  1  0
  9  8  1  1
  8 15  2  0
  9 10  1  0
  9 13  1  0
 10 11  1  0
 11 12  2  0
 12 13  1  0
 13 14  2  0
 15 16  1  0
 17 18  1  0
 18 19  1  0
 19 20  1  0
 19 21  2  0
M  END
