
     RDKit          3D

 21 22  0  0  0  0  0  0  0  0999 V2000
   -4.7130    0.3750    1.4190 C   0  0  0  0  0  0  0  0  0  0  0  0
   -3.5930   -0.2750    1.6360 C   0  0  0  0  0  0  0  0  0  0  0  0
   -2.3050   -0.1980    0.9890 C   0  0  0  0  0  0  0  0  0  0  0  0
   -2.1400    0.7800   -0.1080 C   0  0  2  0  0  0  0  0  0  0  0  0
   -3.0440    0.5710   -1.2310 C   0  0  0  0  0  0  0  0  0  0  0  0
   -3.7580    1.4780   -1.7230 O   0  0  0  0  0  0  0  0  0  0  0  0
   -3.1210   -0.6940   -1.7900 O   0  0  0  0  0  0  0  0  0  0  0  0
   -3.9730   -0.9770   -2.8830 C   0  0  0  0  0  0  0  0  0  0  0  0
   -0.7050    0.6610   -0.6710 C   0  0  0  0  0  0  0  0  0  0  0  0
    0.0730    1.4860    0.2830 C   0  0  0  0  0  0  0  0  0  0  0  0
    1.8170    1.3530    0.6320 S   0  0  0  0  0  0  0  0  0  0  0  0
    2.5700   -0.0500   -0.1450 C   0  0  2  0  0  0  0  0  0  0  0  0
    2.1440   -1.3500    0.4940 C   0  0  0  0  0  0  0  0  0  0  0  0
    2.7670   -2.4560   -0.3690 C   0  0  0  0  0  0  0  0  0  0  0  0
    4.4650   -1.7470   -0.5250 S   0  0  0  0  0  0  0  0  0  0  0  0
    4.0420   -0.0790   -0.0590 C   0  0  0  0  0  0  0  0  0  0  0  0
    4.8510    0.8820    0.2760 C   0  0  0  0  0  0  0  0  0  0  0  0
    6.3330    0.7600    0.3350 C   0  0  0  0  0  0  0  0  0  0  0  0
   -0.7540    2.3470    0.8420 N   0  0  0  0  0  0  0  0  0  0  0  0
   -2.0640    2.1990    0.3580 C   0  0  0  0  0  0  0  0  0  0  0  0
   -3.0110    3.0040    0.2900 O   0  0  0  0  0  0  0  0  0  0  0  0
  1  2  2  0
  2  3  1  0
  4  3  1  1
  4  5  1  0
  4  9  1  0
  4 20  1  0
  5  6  2  0
  5  7  1  0
  7  8  1  0
  9 10  1  0
 10 11  1  0
 10 19  2  0
 12 11  1  1
 12 13  1  0
 12 16  1  0
 13 14  1  0
 14 15  1  0
 15 16  1  0
 16 17  2  3
 17 18  1  0
 19 20  1  0
 20 21  2  0
M  END
