
     RDKit          3D

 21 22  0  0  0  0  0  0  0  0999 V2000
    3.7470    2.9010   -1.4590 C   0  0  0  0  0  0  0  0  0  0  0  0
    2.9410    1.2890   -1.4280 S   0  0  0  0  0  0  0  0  0  0  0  0
    3.3830    0.3700    0.0880 C   0  0  0  0  0  0  0  0  0  0  0  0
    2.6820   -0.9680    0.0620 C   0  0  2  0  0  0  0  0  0  0  0  0
    3.1250   -1.7430   -1.1610 C   0  0  0  0  0  0  0  0  0  0  0  0
    1.9420   -2.5950   -1.5000 C   0  0  0  0  0  0  0  0  0  0  0  0
    0.7690   -1.6920   -1.1590 C   0  0  0  0  0  0  0  0  0  0  0  0
    1.2050   -0.7920   -0.0520 C   0  0  1  0  0  0  0  0  0  0  0  0
    0.4550   -1.0290    1.2340 C   0  0  1  0  0  0  0  0  0  0  0  0
    0.6400   -2.4110    1.7750 C   0  0  0  0  0  0  0  0  0  0  0  0
    0.9270   -0.0460    2.2830 C   0  0  0  0  0  0  0  0  0  0  0  0
   -0.9800   -0.7930    0.9600 C   0  0  0  0  0  0  0  0  0  0  0  0
   -1.8180   -1.7170    1.1320 O   0  0  0  0  0  0  0  0  0  0  0  0
   -1.4910    0.4470    0.4990 N   0  0  0  0  0  0  0  0  0  0  0  0
   -2.8820    0.6380    0.2440 C   0  0  2  0  0  0  0  0  0  0  0  0
   -3.1820    0.9690   -1.1990 C   0  0  0  0  0  0  0  0  0  0  0  0
   -4.6990    0.9740   -1.2340 C   0  0  0  0  0  0  0  0  0  0  0  0
   -4.9760    2.1040    0.1400 S   0  0  2  0  0  0  0  0  0  0  0  0
   -6.2160    1.7710    0.8730 O   0  0  0  0  0  0  0  0  0  0  0  0
   -4.9240    3.4830   -0.3980 O   0  0  0  0  0  0  0  0  0  0  0  0
   -3.5020    1.7250    1.0850 C   0  0  0  0  0  0  0  0  0  0  0  0
  1  2  1  0
  2  3  1  0
  4  3  1  6
  4  5  1  0
  4  8  1  0
  5  6  1  0
  6  7  1  0
  8  7  1  6
  8  9  1  0
  9 10  1  1
  9 11  1  0
  9 12  1  0
 12 13  2  0
 12 14  1  0
 15 14  1  6
 15 16  1  0
 15 21  1  0
 16 17  1  0
 18 17  1  6
 18 19  2  0
 18 20  2  0
 18 21  1  0
M  END
