
     RDKit          3D

 31 33  0  0  0  0  0  0  0  0999 V2000
   -8.5670   -0.8580    1.8840 N   0  0  0  0  0  0  0  0  0  0  0  0
   -7.7260   -0.4620    0.8130 C   0  0  0  0  0  0  0  0  0  0  0  0
   -8.2280    0.3730   -0.1120 N   0  0  0  0  0  0  0  0  0  0  0  0
   -7.4870    0.7950   -1.1630 C   0  0  0  0  0  0  0  0  0  0  0  0
   -6.2170    0.3710   -1.2880 N   0  0  0  0  0  0  0  0  0  0  0  0
   -5.6320   -0.4730   -0.3990 C   0  0  0  0  0  0  0  0  0  0  0  0
   -6.4230   -0.8780    0.6570 C   0  0  0  0  0  0  0  0  0  0  0  0
   -5.6530   -1.6940    1.3960 N   0  0  0  0  0  0  0  0  0  0  0  0
   -4.4270   -1.7810    0.8050 C   0  0  0  0  0  0  0  0  0  0  0  0
   -4.4120   -1.0200   -0.3150 N   0  0  0  0  0  0  0  0  0  0  0  0
   -3.2940   -0.8340   -1.2420 C   0  0  2  0  0  0  0  0  0  0  0  0
   -2.1580   -1.4020   -0.7410 O   0  0  0  0  0  0  0  0  0  0  0  0
   -1.0870   -0.5340   -1.0440 C   0  0  2  0  0  0  0  0  0  0  0  0
    0.0180   -0.8340   -0.0980 C   0  0  0  0  0  0  0  0  0  0  0  0
    1.1360   -0.0470   -0.2870 O   0  0  0  0  0  0  0  0  0  0  0  0
    2.3760   -0.2490    0.6350 P   0  0  0  0  0  0  0  0  0  0  0  0
    3.1110    0.9450   -0.2110 O   0  0  0  0  0  0  0  0  0  0  0  0
    1.5340    0.1630    2.0150 O   0  0  0  0  0  0  0  0  0  0  0  0
    3.6240   -0.4560    1.4390 O   0  0  0  0  0  0  0  0  0  0  0  0
    5.1690   -0.4170    0.9710 P   0  0  0  0  0  0  0  0  0  0  0  0
    5.5830   -0.3560    2.4620 O   0  0  0  0  0  0  0  0  0  0  0  0
    4.7630   -0.7400   -0.4620 O   0  0  0  0  0  0  0  0  0  0  0  0
    5.9140    1.0740    0.5990 N   0  0  0  0  0  0  0  0  0  0  0  0
    7.5500    1.0290    0.4260 P   0  0  0  0  0  0  0  0  0  0  0  0
    8.5500    2.1090    1.2580 O   0  0  0  0  0  0  0  0  0  0  0  0
    7.7020    1.9130   -0.8170 O   0  0  0  0  0  0  0  0  0  0  0  0
    8.3360   -0.2070   -0.3850 O   0  0  0  0  0  0  0  0  0  0  0  0
   -1.7320    0.8140   -0.7340 C   0  0  1  0  0  0  0  0  0  0  0  0
   -1.0590    1.8600   -1.3130 O   0  0  0  0  0  0  0  0  0  0  0  0
   -3.0630    0.6340   -1.4410 C   0  0  1  0  0  0  0  0  0  0  0  0
   -2.8910    0.9830   -2.7780 O   0  0  0  0  0  0  0  0  0  0  0  0
  1  2  1  0
  2  3  2  0
  2  7  1  0
  3  4  1  0
  4  5  2  0
  5  6  1  0
  6  7  2  0
  6 10  1  0
  7  8  1  0
  8  9  2  0
  9 10  1  0
 11 10  1  1
 11 12  1  0
 11 30  1  0
 12 13  1  0
 13 14  1  1
 13 28  1  0
 14 15  1  0
 15 16  1  0
 16 17  1  0
 16 18  1  0
 16 19  1  0
 19 20  1  0
 20 21  1  0
 20 22  1  0
 20 23  1  0
 23 24  1  0
 24 25  1  0
 24 26  1  0
 24 27  1  0
 28 29  1  6
 28 30  1  0
 30 31  1  6
M  END
