
     RDKit          3D

 31 32  0  0  0  0  0  0  0  0999 V2000
   -5.8260    0.5990    2.2310 O   0  0  0  0  0  0  0  0  0  0  0  0
   -5.2150   -0.2750    2.8860 C   0  0  0  0  0  0  0  0  0  0  0  0
   -5.5940   -0.4730    4.2320 N   0  0  0  0  0  0  0  0  0  0  0  0
   -6.5790    0.2370    4.8280 O   0  0  0  0  0  0  0  0  0  0  0  0
   -4.2140   -0.9860    2.2550 O   0  0  0  0  0  0  0  0  0  0  0  0
   -3.9380   -0.7160    0.9800 O   0  0  0  0  0  0  0  0  0  0  0  0
   -3.5140    0.5840    0.7720 C   0  0  1  0  0  0  0  0  0  0  0  0
   -2.1570    0.7080    0.3500 N   0  0  0  0  0  0  0  0  0  0  0  0
   -1.5600    0.1640   -0.8090 C   0  0  0  0  0  0  0  0  0  0  0  0
   -0.2090    0.3910   -1.0660 C   0  0  0  0  0  0  0  0  0  0  0  0
    0.5330    1.1620   -0.1610 O   0  0  0  0  0  0  0  0  0  0  0  0
    1.8860    1.4430   -0.3300 C   0  0  0  0  0  0  0  0  0  0  0  0
    2.7420    0.2330   -0.3720 C   0  0  0  0  0  0  0  0  0  0  0  0
    2.4180   -1.0920   -0.1830 C   0  0  0  0  0  0  0  0  0  0  0  0
    3.5610   -1.8080   -0.3290 N   0  0  0  0  0  0  0  0  0  0  0  0
    4.5600   -0.9790   -0.5960 C   0  0  0  0  0  0  0  0  0  0  0  0
    5.8810   -1.3450   -0.8080 O   0  0  0  0  0  0  0  0  0  0  0  0
    6.8870   -0.3860   -1.0900 C   0  0  0  0  0  0  0  0  0  0  0  0
    7.0480    0.8300    0.2800 P   0  0  0  0  0  0  0  0  0  0  0  0
    8.5890    0.7550    1.0630 O   0  0  0  0  0  0  0  0  0  0  0  0
    5.7740    0.6840    1.4470 O   0  0  0  0  0  0  0  0  0  0  0  0
    4.0630    0.2470   -0.6210 N   0  0  0  0  0  0  0  0  0  0  0  0
    0.3860   -0.1150   -2.1590 N   0  0  0  0  0  0  0  0  0  0  0  0
   -0.2730   -0.8590   -3.0600 C   0  0  0  0  0  0  0  0  0  0  0  0
    0.2620   -1.3400   -4.0850 O   0  0  0  0  0  0  0  0  0  0  0  0
   -1.5740   -1.0990   -2.8470 N   0  0  0  0  0  0  0  0  0  0  0  0
   -2.2150   -0.6040   -1.7480 C   0  0  0  0  0  0  0  0  0  0  0  0
   -3.5430   -0.8780   -1.5790 O   0  0  0  0  0  0  0  0  0  0  0  0
   -4.5980    1.5830   -0.3260 P   0  0  0  0  0  0  0  0  0  0  0  0
   -3.7460    2.3710   -1.5960 O   0  0  0  0  0  0  0  0  0  0  0  0
   -6.0250    0.7990   -0.8410 O   0  0  0  0  0  0  0  0  0  0  0  0
  1  2  2  0
  2  3  1  0
  2  5  1  0
  3  4  1  0
  5  6  1  0
  6  7  1  0
  7  8  1  6
  7 29  1  0
  8  9  1  0
  9 10  1  0
  9 27  2  0
 10 11  1  0
 10 23  2  0
 11 12  1  0
 12 13  1  0
 13 14  2  0
 13 22  1  0
 14 15  1  0
 15 16  1  0
 16 17  1  0
 16 22  2  0
 17 18  1  0
 18 19  1  0
 19 20  1  0
 19 21  1  0
 23 24  1  0
 24 25  2  0
 24 26  1  0
 26 27  1  0
 27 28  1  0
 29 30  1  0
 29 31  1  0
M  END
