
     RDKit          3D

 31 32  0  0  0  0  0  0  0  0999 V2000
   -4.5030    3.2240   -2.2240 O   0  0  0  0  0  0  0  0  0  0  0  0
   -3.6280    2.5880   -2.8720 C   0  0  0  0  0  0  0  0  0  0  0  0
   -3.5560    2.7980   -4.2460 O   0  0  0  0  0  0  0  0  0  0  0  0
   -2.6920    1.6350   -2.2020 C   0  0  0  0  0  0  0  0  0  0  0  0
   -2.9900    1.6140   -0.7860 N   0  0  0  0  0  0  0  0  0  0  0  0
   -2.2510    0.7920    0.0960 C   0  0  0  0  0  0  0  0  0  0  0  0
   -1.0310    0.4990   -0.2150 N   0  0  0  0  0  0  0  0  0  0  0  0
   -0.2120   -0.3310    0.6190 C   0  0  0  0  0  0  0  0  0  0  0  0
    1.1140   -0.5910    0.2040 N   0  0  0  0  0  0  0  0  0  0  0  0
    1.6090   -0.0270   -1.0270 C   0  0  0  0  0  0  0  0  0  0  0  0
    0.8340    0.6840   -1.6950 O   0  0  0  0  0  0  0  0  0  0  0  0
    2.9000   -0.2640   -1.4560 O   0  0  0  0  0  0  0  0  0  0  0  0
    3.3800    0.2830   -2.6500 C   0  0  1  0  0  0  0  0  0  0  0  0
    4.5810    1.1810   -2.3400 C   0  0  0  0  0  0  0  0  0  0  0  0
    4.1970    2.2070   -1.4800 O   0  0  0  0  0  0  0  0  0  0  0  0
    5.2440    2.9570   -1.2330 O   0  0  0  0  0  0  0  0  0  0  0  0
    5.6930    2.7570   -0.0170 O   0  0  0  0  0  0  0  0  0  0  0  0
    5.6240    1.4650    0.2420 O   0  0  0  0  0  0  0  0  0  0  0  0
    3.8010   -0.8220   -3.5410 C   0  0  0  0  0  0  0  0  0  0  0  0
    4.2780   -0.5710   -4.6970 O   0  0  0  0  0  0  0  0  0  0  0  0
    3.6940   -2.1440   -3.1550 O   0  0  0  0  0  0  0  0  0  0  0  0
   -0.6880   -0.8310    1.7320 C   0  0  0  0  0  0  0  0  0  0  0  0
    0.0810   -1.6470    2.5910 N   0  0  0  0  0  0  0  0  0  0  0  0
   -0.2450   -1.7740    4.0030 C   0  0  0  0  0  0  0  0  0  0  0  0
   -1.6340   -1.3520    4.3350 C   0  0  0  0  0  0  0  0  0  0  0  0
   -2.1350   -0.2440    3.5500 N   0  0  0  0  0  0  0  0  0  0  0  0
   -2.1140   -0.6300    2.1800 C   0  0  2  0  0  0  0  0  0  0  0  0
   -3.0210   -2.2770    2.0830 P   0  0  0  0  0  0  0  0  0  0  0  0
   -3.4470   -2.6080    0.4390 O   0  0  0  0  0  0  0  0  0  0  0  0
   -4.4370   -2.1210    3.0840 O   0  0  0  0  0  0  0  0  0  0  0  0
   -2.7790    0.3080    1.3280 N   0  0  0  0  0  0  0  0  0  0  0  0
  1  2  2  0
  2  3  1  0
  2  4  1  0
  4  5  1  0
  5  6  1  0
  6  7  2  0
  6 31  1  0
  7  8  1  0
  8  9  1  0
  8 22  2  0
  9 10  1  0
 10 11  2  0
 10 12  1  0
 12 13  1  0
 13 14  1  1
 13 19  1  0
 14 15  1  0
 15 16  1  0
 16 17  1  0
 17 18  1  0
 19 20  2  0
 19 21  1  0
 22 23  1  0
 22 27  1  0
 23 24  1  0
 24 25  1  0
 25 26  1  0
 26 27  1  0
 27 28  1  1
 27 31  1  0
 28 29  1  0
 28 30  1  0
M  END
