
     RDKit          3D

 15 16  0  0  0  0  0  0  0  0999 V2000
   -3.5690    1.0900   -0.3760 C   0  0  0  0  0  0  0  0  0  0  0  0
   -2.8520   -0.2280   -0.2220 C   0  0  0  0  0  0  0  0  0  0  0  0
   -3.5260   -1.3360    0.4720 C   0  0  0  0  0  0  0  0  0  0  0  0
   -1.6340   -0.3170   -0.7270 C   0  0  0  0  0  0  0  0  0  0  0  0
   -0.9380    0.7910   -1.4310 C   0  0  0  0  0  0  0  0  0  0  0  0
    0.2730    1.0920   -0.7090 N   0  0  0  0  0  0  0  0  0  0  0  0
    1.3110    0.1480   -0.5130 C   0  0  0  0  0  0  0  0  0  0  0  0
    1.2170   -1.0990   -1.0040 N   0  0  0  0  0  0  0  0  0  0  0  0
    2.1840   -2.0260   -0.8400 C   0  0  0  0  0  0  0  0  0  0  0  0
    3.3060   -1.7370   -0.1650 N   0  0  0  0  0  0  0  0  0  0  0  0
    3.4650   -0.5150    0.3500 C   0  0  0  0  0  0  0  0  0  0  0  0
    4.4750    0.0240    1.0560 N   0  0  0  0  0  0  0  0  0  0  0  0
    4.1080    1.2920    1.3190 C   0  0  0  0  0  0  0  0  0  0  0  0
    2.8910    1.5410    0.7870 N   0  0  0  0  0  0  0  0  0  0  0  0
    2.4640    0.4480    0.1810 C   0  0  0  0  0  0  0  0  0  0  0  0
  1  2  1  0
  2  3  1  0
  2  4  2  3
  4  5  1  0
  5  6  1  0
  6  7  1  0
  7  8  2  0
  7 15  1  0
  8  9  1  0
  9 10  2  0
 10 11  1  0
 11 12  1  0
 11 15  2  0
 12 13  1  0
 13 14  2  0
 14 15  1  0
M  END
