
     RDKit          3D

 15 16  0  0  0  0  0  0  0  0999 V2000
    2.5410    1.4100   -0.5900 C   0  0  0  0  0  0  0  0  0  0  0  0
    1.4610    0.4720   -0.0140 C   0  0  1  0  0  0  0  0  0  0  0  0
    0.3840    0.4200   -1.0040 C   0  0  0  0  0  0  0  0  0  0  0  0
   -0.8200   -0.3460   -0.8270 C   0  0  1  0  0  0  0  0  0  0  0  0
   -0.7890   -1.8160   -0.6400 C   0  0  0  0  0  0  0  0  0  0  0  0
   -2.3060   -2.0370   -0.4280 C   0  0  0  0  0  0  0  0  0  0  0  0
   -2.8090   -0.8480    0.0330 O   0  0  0  0  0  0  0  0  0  0  0  0
   -1.7530    0.0260    0.2970 C   0  0  1  0  0  0  0  0  0  0  0  0
   -1.2810   -0.2850    1.5460 O   0  0  0  0  0  0  0  0  0  0  0  0
   -2.1560    1.4670    0.1540 C   0  0  0  0  0  0  0  0  0  0  0  0
   -2.5900    1.7030   -1.1360 O   0  0  0  0  0  0  0  0  0  0  0  0
    2.1740   -0.8540    0.2360 C   0  0  0  0  0  0  0  0  0  0  0  0
    1.8760   -1.1440    1.5730 O   0  0  0  0  0  0  0  0  0  0  0  0
    1.8980    0.1390    2.1240 C   0  0  0  0  0  0  0  0  0  0  0  0
    1.1550    0.8900    1.2390 O   0  0  0  0  0  0  0  0  0  0  0  0
  2  1  1  6
  2  3  1  0
  2 12  1  0
  2 15  1  0
  4  3  1  1
  4  5  1  0
  4  8  1  0
  5  6  1  0
  6  7  1  0
  7  8  1  0
  8  9  1  1
  8 10  1  0
 10 11  1  0
 12 13  1  0
 13 14  1  0
 14 15  1  0
M  END
