
     RDKit          3D

 16 17  0  0  0  0  0  0  0  0999 V2000
    3.8630   -0.9890   -0.9780 O   0  0  0  0  0  0  0  0  0  0  0  0
    2.9460   -1.8100   -0.3260 C   0  0  0  0  0  0  0  0  0  0  0  0
    2.2970   -1.0600    0.8060 C   0  0  0  0  0  0  0  0  0  0  0  0
    1.6390    0.0340    0.3390 O   0  0  0  0  0  0  0  0  0  0  0  0
    0.5930   -0.1980   -0.5430 C   0  0  2  0  0  0  0  0  0  0  0  0
    0.8560    0.6380   -1.7970 C   0  0  0  0  0  0  0  0  0  0  0  0
    0.7280    2.0070   -1.4790 O   0  0  0  0  0  0  0  0  0  0  0  0
   -0.6300    2.3790   -1.4230 C   0  0  0  0  0  0  0  0  0  0  0  0
   -1.3960    1.1890   -1.0200 C   0  0  2  0  0  0  0  0  0  0  0  0
   -2.6280    1.4900   -0.1530 C   0  0  0  0  0  0  0  0  0  0  0  0
   -2.7560    0.4390    0.7250 O   0  0  0  0  0  0  0  0  0  0  0  0
   -1.7080   -0.4680    0.5070 C   0  0  2  0  0  0  0  0  0  0  0  0
   -1.4380   -1.3230    1.6960 C   0  0  0  0  0  0  0  0  0  0  0  0
   -2.6350   -2.0300    1.9640 O   0  0  0  0  0  0  0  0  0  0  0  0
   -0.6180    0.4390    0.0800 C   0  0  1  0  0  0  0  0  0  0  0  0
   -0.3300    1.3290    1.0810 O   0  0  0  0  0  0  0  0  0  0  0  0
  1  2  1  0
  2  3  1  0
  3  4  1  0
  5  4  1  1
  5  6  1  0
  5 15  1  0
  6  7  1  0
  7  8  1  0
  9  8  1  1
  9 10  1  0
  9 15  1  0
 10 11  1  0
 11 12  1  0
 12 13  1  1
 12 15  1  0
 13 14  1  0
 15 16  1  1
M  END
