
     RDKit          3D

 26 28  0  0  0  0  0  0  0  0999 V2000
    7.7850   -0.2150   -1.0690 C   0  0  0  0  0  0  0  0  0  0  0  0
    7.1020    0.9450   -0.4360 C   0  0  0  0  0  0  0  0  0  0  0  0
    5.7560    0.8120   -0.1610 O   0  0  0  0  0  0  0  0  0  0  0  0
    5.0900    0.6080   -1.3320 C   0  0  0  0  0  0  0  0  0  0  0  0
    3.6150    0.5140   -1.0700 C   0  0  0  0  0  0  0  0  0  0  0  0
    2.7120    1.0830   -1.8720 N   0  0  0  0  0  0  0  0  0  0  0  0
    1.5420    0.7980   -1.3510 N   0  0  0  0  0  0  0  0  0  0  0  0
    1.6520    0.0550   -0.2330 C   0  0  0  0  0  0  0  0  0  0  0  0
    0.6090   -0.5250    0.6400 C   0  0  2  0  0  0  0  0  0  0  0  0
    0.6180    0.2350    1.8880 N   0  0  0  0  0  0  0  0  0  0  0  0
    1.1710   -1.8800    1.0250 C   0  0  0  0  0  0  0  0  0  0  0  0
    0.3140   -2.7570    1.8460 C   0  0  0  0  0  0  0  0  0  0  0  0
   -0.8450   -3.2240    1.1600 O   0  0  0  0  0  0  0  0  0  0  0  0
   -0.6980   -0.7260    0.0190 C   0  0  2  0  0  0  0  0  0  0  0  0
   -0.4250   -1.9120   -1.3720 S   0  0  0  0  0  0  0  0  0  0  0  0
   -1.6390   -1.2220   -2.5310 C   0  0  0  0  0  0  0  0  0  0  0  0
   -2.4410   -0.3540   -1.5460 C   0  0  0  0  0  0  0  0  0  0  0  0
   -1.3580    0.3730   -0.7340 C   0  0  1  0  0  0  0  0  0  0  0  0
   -1.9880    1.4040    0.0210 N   0  0  0  0  0  0  0  0  0  0  0  0
   -3.0540    0.9500    0.8800 C   0  0  0  0  0  0  0  0  0  0  0  0
   -4.2600    1.8010    0.9150 C   0  0  1  0  0  0  0  0  0  0  0  0
   -5.0460    1.9930   -0.2990 C   0  0  0  0  0  0  0  0  0  0  0  0
   -6.1070    0.9070   -0.3170 C   0  0  0  0  0  0  0  0  0  0  0  0
   -5.8100    0.2110    1.0050 C   0  0  0  0  0  0  0  0  0  0  0  0
   -5.1760    1.1740    1.7920 O   0  0  0  0  0  0  0  0  0  0  0  0
    2.9760   -0.1160   -0.0690 N   0  0  0  0  0  0  0  0  0  0  0  0
  1  2  1  0
  2  3  1  0
  3  4  1  0
  4  5  1  0
  5  6  2  0
  5 26  1  0
  6  7  1  0
  7  8  2  0
  8  9  1  0
  8 26  1  0
  9 10  1  1
  9 11  1  0
  9 14  1  0
 11 12  1  0
 12 13  1  0
 14 15  1  6
 14 18  1  0
 15 16  1  0
 16 17  1  0
 17 18  1  0
 18 19  1  1
 19 20  1  0
 21 20  1  6
 21 22  1  0
 21 25  1  0
 22 23  1  0
 23 24  1  0
 24 25  1  0
M  CHG  2  10   1  19   1
M  END
