
     RDKit          3D

 18 19  0  0  0  0  0  0  0  0999 V2000
    5.3430   -1.0260   -0.9320 C   0  0  0  0  0  0  0  0  0  0  0  0
    4.2640   -0.1180   -0.5650 N   0  0  0  0  0  0  0  0  0  0  0  0
    2.9090   -0.6000   -0.5490 C   0  0  0  0  0  0  0  0  0  0  0  0
    2.7340   -1.7990   -0.8570 O   0  0  0  0  0  0  0  0  0  0  0  0
    1.8390    0.2860   -0.1890 N   0  0  0  0  0  0  0  0  0  0  0  0
    0.5100   -0.2780   -0.1980 C   0  0  0  0  0  0  0  0  0  0  0  0
    0.1910   -1.9670   -0.6250 S   0  0  0  0  0  0  0  0  0  0  0  0
   -1.6420   -1.8130   -0.3820 C   0  0  0  0  0  0  0  0  0  0  0  0
   -1.7930   -0.5860   -0.0300 C   0  0  0  0  0  0  0  0  0  0  0  0
   -0.7070    0.2560    0.0810 C   0  0  0  0  0  0  0  0  0  0  0  0
   -0.7510    1.6970    0.4770 C   0  0  0  0  0  0  0  0  0  0  0  0
    0.2780    2.3940    0.5530 O   0  0  0  0  0  0  0  0  0  0  0  0
   -1.9390    2.3510    0.7860 O   0  0  0  0  0  0  0  0  0  0  0  0
   -1.9540    3.7110    1.1570 C   0  0  0  0  0  0  0  0  0  0  0  0
   -3.2850   -0.2560    0.2230 C   0  0  0  0  0  0  0  0  0  0  0  0
   -4.0170   -1.8920    0.4210 S   0  0  0  0  0  0  0  0  0  0  0  0
   -3.9110   -2.3670    1.8650 O   0  0  0  0  0  0  0  0  0  0  0  0
   -2.7460   -2.7500   -0.5200 C   0  0  0  0  0  0  0  0  0  0  0  0
  1  2  1  0
  2  3  1  0
  3  4  2  0
  3  5  1  0
  5  6  1  0
  6  7  1  0
  6 10  2  0
  7  8  1  0
  8  9  2  0
  8 18  1  0
  9 10  1  0
  9 15  1  0
 10 11  1  0
 11 12  2  0
 11 13  1  0
 13 14  1  0
 16 15  1  1
 16 17  2  0
 16 18  1  0
M  END
