
     RDKit          3D

 32 35  0  0  0  0  0  0  0  0999 V2000
    8.4830    0.7560   -0.3790 C   0  0  0  0  0  0  0  0  0  0  0  0
    7.9770   -0.5550   -0.3110 O   0  0  0  0  0  0  0  0  0  0  0  0
    6.6540   -0.8200    0.0280 C   0  0  0  0  0  0  0  0  0  0  0  0
    5.8070    0.2300    0.3070 C   0  0  0  0  0  0  0  0  0  0  0  0
    4.4910   -0.0830    0.6420 C   0  0  0  0  0  0  0  0  0  0  0  0
    4.0410   -1.3680    0.6960 C   0  0  0  0  0  0  0  0  0  0  0  0
    2.7020   -1.6980    1.0050 N   0  0  0  0  0  0  0  0  0  0  0  0
    1.5940   -1.2890    0.2230 C   0  0  0  0  0  0  0  0  0  0  0  0
    1.4030    0.1730   -0.0050 C   0  0  0  0  0  0  0  0  0  0  0  0
    0.2040    0.4500   -0.7950 N   0  0  0  0  0  0  0  0  0  0  0  0
   -1.1170    0.1060   -0.3870 C   0  0  0  0  0  0  0  0  0  0  0  0
   -1.2520   -0.4670    0.7230 O   0  0  0  0  0  0  0  0  0  0  0  0
   -2.3030    0.4190   -1.2640 C   0  0  2  0  0  0  0  0  0  0  0  0
   -2.3510    1.7760   -1.7900 C   0  0  0  0  0  0  0  0  0  0  0  0
   -2.4300    2.9730   -0.9560 C   0  0  2  0  0  0  0  0  0  0  0  0
   -1.2820    3.1140    0.0030 C   0  0  0  0  0  0  0  0  0  0  0  0
   -1.3360    4.3850    0.8110 C   0  0  0  0  0  0  0  0  0  0  0  0
   -2.7090    4.8670    1.1540 C   0  0  0  0  0  0  0  0  0  0  0  0
   -3.6260    3.6620    1.1230 C   0  0  0  0  0  0  0  0  0  0  0  0
   -3.7510    3.3620   -0.3860 C   0  0  0  0  0  0  0  0  0  0  0  0
   -3.4390   -0.1260   -0.6130 N   0  0  0  0  0  0  0  0  0  0  0  0
   -3.5170   -1.5470   -0.3520 C   0  0  0  0  0  0  0  0  0  0  0  0
   -2.5430   -2.4340   -0.6950 N   0  0  0  0  0  0  0  0  0  0  0  0
   -2.9060   -3.6550   -0.3230 C   0  0  0  0  0  0  0  0  0  0  0  0
   -2.3590   -4.9280   -0.3950 C   0  0  0  0  0  0  0  0  0  0  0  0
   -3.0270   -6.0240    0.1090 C   0  0  0  0  0  0  0  0  0  0  0  0
   -4.2650   -5.8540    0.6960 C   0  0  0  0  0  0  0  0  0  0  0  0
   -4.8220   -4.6130    0.7770 C   0  0  0  0  0  0  0  0  0  0  0  0
   -4.1440   -3.5010    0.2660 C   0  0  0  0  0  0  0  0  0  0  0  0
   -4.4490   -2.2290    0.2170 O   0  0  0  0  0  0  0  0  0  0  0  0
    4.9340   -2.4240    0.4050 C   0  0  0  0  0  0  0  0  0  0  0  0
    6.2190   -2.1350    0.0770 C   0  0  0  0  0  0  0  0  0  0  0  0
  1  2  1  0
  2  3  1  0
  3  4  2  0
  3 32  1  0
  4  5  1  0
  5  6  2  0
  6  7  1  0
  6 31  1  0
  7  8  1  0
  8  9  1  0
  9 10  1  0
 10 11  1  0
 11 12  2  0
 11 13  1  0
 13 14  1  1
 13 21  1  0
 15 14  1  1
 15 16  1  0
 15 20  1  0
 16 17  1  0
 17 18  1  0
 18 19  1  0
 19 20  1  0
 21 22  1  0
 22 23  2  0
 22 30  1  0
 23 24  1  0
 24 25  2  0
 24 29  1  0
 25 26  1  0
 26 27  2  0
 27 28  1  0
 28 29  2  0
 29 30  1  0
 31 32  2  0
M  END
