
     RDKit          3D

 32 35  0  0  0  0  0  0  0  0999 V2000
   -9.0060   -0.1030    0.7200 C   0  0  0  0  0  0  0  0  0  0  0  0
   -7.9120   -0.9490    0.0710 C   0  0  1  0  0  0  0  0  0  0  0  0
   -8.5960   -1.8920   -0.9330 C   0  0  0  0  0  0  0  0  0  0  0  0
   -7.0340   -0.1460   -0.6330 O   0  0  0  0  0  0  0  0  0  0  0  0
   -5.6960    0.0140   -0.4280 C   0  0  0  0  0  0  0  0  0  0  0  0
   -5.0160   -0.6420    0.5630 C   0  0  0  0  0  0  0  0  0  0  0  0
   -3.6320   -0.4520    0.7460 C   0  0  0  0  0  0  0  0  0  0  0  0
   -2.9160    0.3810   -0.0420 C   0  0  0  0  0  0  0  0  0  0  0  0
   -1.5180    0.5990    0.0870 N   0  0  0  0  0  0  0  0  0  0  0  0
   -0.6500   -0.2510    0.7650 C   0  0  0  0  0  0  0  0  0  0  0  0
   -1.1130   -1.3130    1.3090 O   0  0  0  0  0  0  0  0  0  0  0  0
    0.7620   -0.0390    0.9150 C   0  0  0  0  0  0  0  0  0  0  0  0
    1.5350    0.8740    0.5210 C   0  0  0  0  0  0  0  0  0  0  0  0
    2.9820    0.8230    0.8360 C   0  0  0  0  0  0  0  0  0  0  0  0
    3.8930    1.4370    0.1030 C   0  0  0  0  0  0  0  0  0  0  0  0
    5.2990    1.2810    0.5630 C   0  0  0  0  0  0  0  0  0  0  0  0
    5.5990    0.4510    1.7530 C   0  0  0  0  0  0  0  0  0  0  0  0
    5.1530   -1.2710    1.6090 S   0  0  0  0  0  0  0  0  0  0  0  0
    6.1910   -2.1050    0.4000 C   0  0  0  0  0  0  0  0  0  0  0  0
    6.0850   -3.4010    0.0290 N   0  0  0  0  0  0  0  0  0  0  0  0
    6.9880   -3.7000   -0.8760 N   0  0  0  0  0  0  0  0  0  0  0  0
    7.6860   -2.5740   -1.0890 C   0  0  0  0  0  0  0  0  0  0  0  0
    8.6520   -2.4690   -1.9050 O   0  0  0  0  0  0  0  0  0  0  0  0
    7.2040   -1.5940   -0.3110 N   0  0  0  0  0  0  0  0  0  0  0  0
    6.2700    1.8930   -0.1000 C   0  0  0  0  0  0  0  0  0  0  0  0
    6.0090    2.6930   -1.2380 N   0  0  0  0  0  0  0  0  0  0  0  0
    4.6970    2.8150   -1.6380 N   0  0  0  0  0  0  0  0  0  0  0  0
    3.6610    2.2540   -1.0560 C   0  0  0  0  0  0  0  0  0  0  0  0
    2.3290    2.5040   -1.6740 C   0  0  0  0  0  0  0  0  0  0  0  0
    1.0550    2.2990   -0.4220 S   0  0  0  0  0  0  0  0  0  0  0  0
   -3.6260    1.0430   -1.0490 C   0  0  0  0  0  0  0  0  0  0  0  0
   -4.9700    0.8830   -1.2560 C   0  0  0  0  0  0  0  0  0  0  0  0
  2  1  1  6
  2  3  1  0
  2  4  1  0
  4  5  1  0
  5  6  2  0
  5 32  1  0
  6  7  1  0
  7  8  2  0
  8  9  1  0
  8 31  1  0
  9 10  1  0
 10 11  2  0
 10 12  1  0
 12 13  2  3
 13 14  1  0
 13 30  1  0
 14 15  2  0
 15 16  1  0
 15 28  1  0
 16 17  1  0
 16 25  2  0
 17 18  1  0
 18 19  1  0
 19 20  2  0
 19 24  1  0
 20 21  1  0
 21 22  1  0
 22 23  2  0
 22 24  1  0
 25 26  1  0
 26 27  1  0
 27 28  2  0
 28 29  1  0
 29 30  1  0
 31 32  2  0
M  END
