
     RDKit          3D

 31 34  0  0  0  0  0  0  0  0999 V2000
   -0.2580    1.8670    0.1540 C   0  0  0  0  0  0  0  0  0  0  0  0
   -0.5490    0.4110    0.2090 C   0  0  1  0  0  0  0  0  0  0  0  0
   -1.8470   -0.0020   -0.4270 C   0  0  0  0  0  0  0  0  0  0  0  0
   -2.4530   -1.0250    0.3870 N   0  0  1  0  0  0  0  0  0  0  0  0
   -3.8320   -1.2770    0.1080 C   0  0  0  0  0  0  0  0  0  0  0  0
   -4.6850   -0.0730   -0.0820 C   0  0  2  0  0  0  0  0  0  0  0  0
   -4.7140    0.8330    1.1290 C   0  0  0  0  0  0  0  0  0  0  0  0
   -5.2630    2.1710    0.6640 C   0  0  0  0  0  0  0  0  0  0  0  0
   -6.4070    1.9080   -0.2710 C   0  0  0  0  0  0  0  0  0  0  0  0
   -7.0700    0.5650   -0.0010 C   0  0  0  0  0  0  0  0  0  0  0  0
   -6.1270   -0.5800   -0.2460 C   0  0  0  0  0  0  0  0  0  0  0  0
   -1.7350   -2.2630    0.1620 C   0  0  0  0  0  0  0  0  0  0  0  0
   -0.4230   -2.3450    0.9060 C   0  0  0  0  0  0  0  0  0  0  0  0
    0.7080   -1.8550   -0.0040 C   0  0  0  0  0  0  0  0  0  0  0  0
    0.4830   -0.4540   -0.3470 N   0  0  0  0  0  0  0  0  0  0  0  0
    1.3550    0.0760   -1.2930 C   0  0  0  0  0  0  0  0  0  0  0  0
    1.1850    1.2850   -1.6790 O   0  0  0  0  0  0  0  0  0  0  0  0
    2.5000   -0.6140   -1.9300 C   0  0  0  0  0  0  0  0  0  0  0  0
    2.7310   -1.8990   -1.4900 O   0  0  0  0  0  0  0  0  0  0  0  0
    3.7580   -2.6680   -1.9700 C   0  0  0  0  0  0  0  0  0  0  0  0
    4.9470   -2.3300   -1.8520 N   0  0  0  0  0  0  0  0  0  0  0  0
    5.4170   -1.1660   -1.2370 C   0  0  0  0  0  0  0  0  0  0  0  0
    6.3010    0.1110   -2.0140 S   0  0  0  0  0  0  0  0  0  0  0  0
    6.5090    1.1470   -0.5240 C   0  0  0  0  0  0  0  0  0  0  0  0
    5.8970    0.4280    0.3880 C   0  0  0  0  0  0  0  0  0  0  0  0
    5.3210   -0.7590    0.0830 C   0  0  0  0  0  0  0  0  0  0  0  0
    4.6030   -1.6700    1.0330 C   0  0  0  0  0  0  0  0  0  0  0  0
    4.4680   -1.3800    2.2450 O   0  0  0  0  0  0  0  0  0  0  0  0
    6.0310    1.2380    1.6870 C   0  0  0  0  0  0  0  0  0  0  0  0
    6.3340    2.6220    1.2310 C   0  0  0  0  0  0  0  0  0  0  0  0
    7.0880    2.4220   -0.0690 C   0  0  0  0  0  0  0  0  0  0  0  0
  2  1  1  6
  2  3  1  0
  2 15  1  0
  3  4  1  0
  4  5  1  6
  4 12  1  0
  6  5  1  1
  6  7  1  0
  6 11  1  0
  7  8  1  0
  8  9  1  0
  9 10  1  0
 10 11  1  0
 12 13  1  0
 13 14  1  0
 14 15  1  0
 15 16  1  0
 16 17  2  0
 16 18  1  0
 18 19  1  0
 19 20  1  0
 20 21  2  3
 21 22  1  0
 22 23  1  0
 22 26  2  0
 23 24  1  0
 24 25  2  0
 24 31  1  0
 25 26  1  0
 25 29  1  0
 26 27  1  0
 27 28  2  0
 29 30  1  0
 30 31  1  0
M  CHG  1   4   1
M  END
