
     RDKit          3D

 32 35  0  0  0  0  0  0  0  0999 V2000
    1.3320   -3.7290   -1.7730 C   0  0  0  0  0  0  0  0  0  0  0  0
    1.8670   -2.5390   -1.0910 C   0  0  0  0  0  0  0  0  0  0  0  0
    3.2560   -2.4000   -1.1980 C   0  0  0  0  0  0  0  0  0  0  0  0
    3.9550   -1.3280   -0.6450 C   0  0  0  0  0  0  0  0  0  0  0  0
    3.2740   -0.3520    0.0390 C   0  0  0  0  0  0  0  0  0  0  0  0
    3.8890    0.8200    0.6290 C   0  0  0  0  0  0  0  0  0  0  0  0
    3.0840    1.5610    1.3430 O   0  0  0  0  0  0  0  0  0  0  0  0
    5.2130    1.2780    0.5490 N   0  0  0  0  0  0  0  0  0  0  0  0
    5.6840    2.5040    1.2580 C   0  0  0  0  0  0  0  0  0  0  0  0
    6.6570    3.0760    0.2800 C   0  0  0  0  0  0  0  0  0  0  0  0
    7.4230    1.8300   -0.1290 C   0  0  0  0  0  0  0  0  0  0  0  0
    6.3200    0.7600   -0.1760 C   0  0  0  0  0  0  0  0  0  0  0  0
    1.9260   -0.5110    0.1300 C   0  0  0  0  0  0  0  0  0  0  0  0
    1.1870   -1.5940   -0.4240 C   0  0  0  0  0  0  0  0  0  0  0  0
   -0.1640   -1.5730   -0.1550 N   0  0  2  0  0  0  0  0  0  0  0  0
   -1.0820   -2.5930   -0.3550 C   0  0  0  0  0  0  0  0  0  0  0  0
   -1.5310   -3.2390    1.0030 C   0  0  0  0  0  0  0  0  0  0  0  0
   -2.0810   -2.1190    1.8250 C   0  0  0  0  0  0  0  0  0  0  0  0
   -2.6910   -1.0210    1.0140 C   0  0  0  0  0  0  0  0  0  0  0  0
   -3.8900   -0.7670    1.3670 N   0  0  0  0  0  0  0  0  0  0  0  0
   -4.7610    0.2140    0.8020 C   0  0  2  0  0  0  0  0  0  0  0  0
   -5.9260   -0.5370    0.1340 C   0  0  0  0  0  0  0  0  0  0  0  0
   -4.1320    1.0620   -0.2400 C   0  0  0  0  0  0  0  0  0  0  0  0
   -4.7390    2.0850   -0.7920 C   0  0  0  0  0  0  0  0  0  0  0  0
   -6.1040    2.4590   -0.4000 C   0  0  0  0  0  0  0  0  0  0  0  0
   -6.1550    4.1380    0.2350 S   0  0  1  0  0  0  0  0  0  0  0  0
   -7.5610    4.4130    0.6720 O   0  0  0  0  0  0  0  0  0  0  0  0
   -5.2670    4.2640    1.4560 O   0  0  0  0  0  0  0  0  0  0  0  0
   -5.6270    5.1640   -0.9590 F   0  0  0  0  0  0  0  0  0  0  0  0
   -2.7720    0.7590   -0.6470 C   0  0  0  0  0  0  0  0  0  0  0  0
   -2.1040   -0.2120   -0.0560 C   0  0  0  0  0  0  0  0  0  0  0  0
   -0.7590   -0.2810   -0.6730 C   0  0  0  0  0  0  0  0  0  0  0  0
  1  2  1  0
  2  3  2  0
  2 14  1  0
  3  4  1  0
  4  5  2  0
  5  6  1  0
  5 13  1  0
  6  7  2  0
  6  8  1  0
  8  9  1  0
  8 12  1  0
  9 10  1  0
 10 11  1  0
 11 12  1  0
 13 14  2  0
 15 14  1  6
 15 16  1  0
 15 32  1  0
 16 17  1  0
 17 18  1  0
 18 19  1  0
 19 20  2  0
 19 31  1  0
 20 21  1  0
 21 22  1  6
 21 23  1  0
 23 24  2  3
 23 30  1  0
 24 25  1  0
 25 26  1  0
 26 27  2  0
 26 28  2  0
 26 29  1  6
 30 31  2  0
 31 32  1  0
M  CHG  1  15   1
M  END
