
     RDKit          3D

 32 34  0  0  0  0  0  0  0  0999 V2000
   -2.4970   -3.9720   -1.0170 C   0  0  0  0  0  0  0  0  0  0  0  0
   -2.2230   -2.5000   -1.2780 C   0  0  0  0  0  0  0  0  0  0  0  0
   -1.4640   -2.0210   -0.0900 N   0  0  0  0  0  0  0  0  0  0  0  0
   -2.2660   -1.5180    0.9730 C   0  0  0  0  0  0  0  0  0  0  0  0
   -2.2870   -0.1050    1.3170 C   0  0  2  0  0  0  0  0  0  0  0  0
   -1.0890    0.3260    2.1900 C   0  0  0  0  0  0  0  0  0  0  0  0
   -3.4640    0.0470    2.3180 C   0  0  0  0  0  0  0  0  0  0  0  0
   -4.7790   -0.1150    1.6380 C   0  0  0  0  0  0  0  0  0  0  0  0
   -4.9310    0.6920    0.3930 C   0  0  0  0  0  0  0  0  0  0  0  0
   -3.6920    0.9220   -0.3850 C   0  0  0  0  0  0  0  0  0  0  0  0
   -2.4750    0.9070    0.3640 N   0  0  2  0  0  0  0  0  0  0  0  0
   -1.3430    1.1960   -0.5060 C   0  0  0  0  0  0  0  0  0  0  0  0
   -1.2760    2.6350   -0.8750 C   0  0  0  0  0  0  0  0  0  0  0  0
   -0.3380    3.4810   -0.5960 C   0  0  0  0  0  0  0  0  0  0  0  0
    0.9030    3.2840    0.1430 C   0  0  0  0  0  0  0  0  0  0  0  0
    1.2560    4.0990    1.1330 C   0  0  0  0  0  0  0  0  0  0  0  0
    2.5090    3.9480    1.9240 C   0  0  0  0  0  0  0  0  0  0  0  0
    3.2750    5.0740    1.7870 F   0  0  0  0  0  0  0  0  0  0  0  0
    1.7870    2.2440   -0.1370 O   0  0  0  0  0  0  0  0  0  0  0  0
    2.1110    1.7450   -1.4190 C   0  0  0  0  0  0  0  0  0  0  0  0
    3.5560    1.5690   -1.6450 C   0  0  0  0  0  0  0  0  0  0  0  0
    4.2100    2.6320   -1.9300 O   0  0  0  0  0  0  0  0  0  0  0  0
    4.2060    0.3170   -1.5590 N   0  0  0  0  0  0  0  0  0  0  0  0
    5.3110   -0.2040   -2.3390 C   0  0  0  0  0  0  0  0  0  0  0  0
    5.0820   -1.6980   -2.4000 C   0  0  0  0  0  0  0  0  0  0  0  0
    3.8300   -1.9340   -1.5430 C   0  0  0  0  0  0  0  0  0  0  0  0
    3.8840   -0.7420   -0.6290 C   0  0  2  0  0  0  0  0  0  0  0  0
    2.4740   -0.4540    0.3800 S   0  0  0  0  0  0  0  0  0  0  0  0
    1.9230   -1.8300    1.3660 C   0  0  0  0  0  0  0  0  0  0  0  0
    0.9200   -2.7060    0.7320 C   0  0  0  0  0  0  0  0  0  0  0  0
   -0.0700   -2.1360   -0.1740 C   0  0  0  0  0  0  0  0  0  0  0  0
    0.4030   -1.6380   -1.2650 O   0  0  0  0  0  0  0  0  0  0  0  0
  1  2  1  0
  2  3  1  0
  3  4  1  0
  3 31  1  0
  4  5  1  0
  5  6  1  1
  5  7  1  0
  5 11  1  0
  7  8  1  0
  8  9  1  0
  9 10  1  0
 11 10  1  6
 11 12  1  0
 12 13  1  0
 13 14  2  0
 14 15  1  0
 15 16  2  3
 15 19  1  0
 16 17  1  0
 17 18  1  0
 19 20  1  0
 20 21  1  0
 21 22  2  0
 21 23  1  0
 23 24  1  0
 23 27  1  0
 24 25  1  0
 25 26  1  0
 27 26  1  6
 27 28  1  0
 28 29  1  0
 29 30  1  0
 30 31  1  0
 31 32  2  0
M  CHG  1  11   1
M  END
