
     RDKit          3D

 31 34  0  0  0  0  0  0  0  0999 V2000
   -5.2150   -3.1320    0.8740 C   0  0  0  0  0  0  0  0  0  0  0  0
   -4.4050   -2.7240    2.0620 C   0  0  0  0  0  0  0  0  0  0  0  0
   -3.4030   -1.6420    1.6310 C   0  0  0  0  0  0  0  0  0  0  0  0
   -2.5440   -2.2490    0.5800 C   0  0  0  0  0  0  0  0  0  0  0  0
   -1.5320   -1.4160    0.0260 N   0  0  1  0  0  0  0  0  0  0  0  0
   -1.8450   -1.1440   -1.3660 C   0  0  0  0  0  0  0  0  0  0  0  0
   -2.6630    0.0800   -1.5380 C   0  0  0  0  0  0  0  0  0  0  0  0
   -1.8750    1.3730   -1.7180 C   0  0  0  0  0  0  0  0  0  0  0  0
   -1.0760    1.7410   -0.5980 N   0  0  0  0  0  0  0  0  0  0  0  0
   -0.8780    3.0580   -0.2520 C   0  0  0  0  0  0  0  0  0  0  0  0
   -0.1950    3.2180    0.8410 O   0  0  0  0  0  0  0  0  0  0  0  0
   -1.3250    4.3010   -0.9320 C   0  0  0  0  0  0  0  0  0  0  0  0
   -1.3140    5.4710   -0.2690 C   0  0  0  0  0  0  0  0  0  0  0  0
   -1.6500    6.6260   -0.9000 C   0  0  0  0  0  0  0  0  0  0  0  0
   -2.0230    6.0510   -2.5920 S   0  0  0  0  0  0  0  0  0  0  0  0
   -1.6750    4.2780   -2.2480 C   0  0  0  0  0  0  0  0  0  0  0  0
   -0.3640    0.7360    0.2410 C   0  0  2  0  0  0  0  0  0  0  0  0
    0.7980    0.2330   -0.4860 C   0  0  0  0  0  0  0  0  0  0  0  0
    0.9720    0.6490   -1.6710 O   0  0  0  0  0  0  0  0  0  0  0  0
    1.7680   -0.6800   -0.0070 N   0  0  0  0  0  0  0  0  0  0  0  0
    1.9180   -1.3530    1.2650 C   0  0  0  0  0  0  0  0  0  0  0  0
    2.1160   -2.7820    0.8570 C   0  0  0  0  0  0  0  0  0  0  0  0
    2.9450   -2.6250   -0.3990 C   0  0  0  0  0  0  0  0  0  0  0  0
    2.9090   -1.1640   -0.7670 C   0  0  2  0  0  0  0  0  0  0  0  0
    4.1700   -0.4490   -0.4350 C   0  0  0  0  0  0  0  0  0  0  0  0
    5.0550   -0.0190   -1.3980 C   0  0  0  0  0  0  0  0  0  0  0  0
    6.0970    0.5940   -0.7400 C   0  0  0  0  0  0  0  0  0  0  0  0
    5.8040    0.5130    0.6040 C   0  0  0  0  0  0  0  0  0  0  0  0
    6.6830    1.0610    1.6760 C   0  0  0  0  0  0  0  0  0  0  0  0
    4.6660   -0.1080    0.7040 O   0  0  0  0  0  0  0  0  0  0  0  0
   -1.3530   -0.1960    0.7730 C   0  0  0  0  0  0  0  0  0  0  0  0
  1  2  1  0
  2  3  1  0
  3  4  1  0
  5  4  1  1
  5  6  1  0
  5 31  1  0
  6  7  1  0
  7  8  1  0
  8  9  1  0
  9 10  1  0
  9 17  1  0
 10 11  2  0
 10 12  1  0
 12 13  1  0
 12 16  2  0
 13 14  2  0
 14 15  1  0
 15 16  1  0
 17 18  1  6
 17 31  1  0
 18 19  2  0
 18 20  1  0
 20 21  1  0
 20 24  1  0
 21 22  1  0
 22 23  1  0
 23 24  1  0
 24 25  1  1
 25 26  2  0
 25 30  1  0
 26 27  1  0
 27 28  2  0
 28 29  1  0
 28 30  1  0
M  CHG  1   5   1
M  END
