
     RDKit          3D

 29 32  0  0  0  0  0  0  0  0999 V2000
   -7.3400   -1.8760   -1.2740 C   0  0  0  0  0  0  0  0  0  0  0  0
   -6.1010   -1.1850   -0.9540 N   0  0  0  0  0  0  0  0  0  0  0  0
   -4.8360   -1.5480   -1.2980 C   0  0  0  0  0  0  0  0  0  0  0  0
   -3.9190   -0.6680   -0.8370 C   0  0  0  0  0  0  0  0  0  0  0  0
   -2.4740   -0.6340   -0.9250 C   0  0  0  0  0  0  0  0  0  0  0  0
   -1.8690   -0.6840   -2.0410 O   0  0  0  0  0  0  0  0  0  0  0  0
   -1.6310   -0.5450    0.2390 N   0  0  0  0  0  0  0  0  0  0  0  0
   -0.2330   -0.4630    0.0870 C   0  0  0  0  0  0  0  0  0  0  0  0
    0.6550   -1.2160    0.7910 C   0  0  0  0  0  0  0  0  0  0  0  0
    2.0370   -1.0230    0.6600 C   0  0  0  0  0  0  0  0  0  0  0  0
    2.5690   -0.0850   -0.1660 C   0  0  0  0  0  0  0  0  0  0  0  0
    3.9490    0.2370   -0.2930 N   0  0  0  0  0  0  0  0  0  0  0  0
    5.0430   -0.5020    0.1800 C   0  0  0  0  0  0  0  0  0  0  0  0
    4.8510   -1.5910    0.7690 O   0  0  0  0  0  0  0  0  0  0  0  0
    6.3980   -0.0150   -0.0030 C   0  0  0  0  0  0  0  0  0  0  0  0
    7.3690   -0.5970   -0.7750 C   0  0  0  0  0  0  0  0  0  0  0  0
    8.6440   -0.0520   -0.8500 C   0  0  0  0  0  0  0  0  0  0  0  0
    8.9720    1.0730   -0.1620 N   0  0  0  0  0  0  0  0  0  0  0  0
    8.0400    1.6840    0.6120 C   0  0  0  0  0  0  0  0  0  0  0  0
    6.7570    1.1440    0.6940 C   0  0  0  0  0  0  0  0  0  0  0  0
    1.6390    0.6850   -0.8960 C   0  0  0  0  0  0  0  0  0  0  0  0
    2.1440    1.6320   -1.7530 F   0  0  0  0  0  0  0  0  0  0  0  0
    0.3060    0.5030   -0.7720 C   0  0  0  0  0  0  0  0  0  0  0  0
   -4.6540    0.3130   -0.1510 C   0  0  0  0  0  0  0  0  0  0  0  0
   -4.2420    1.4620    0.5000 C   0  0  0  0  0  0  0  0  0  0  0  0
   -5.2190    2.2490    1.0560 C   0  0  0  0  0  0  0  0  0  0  0  0
   -6.5530    1.9220    0.9730 C   0  0  0  0  0  0  0  0  0  0  0  0
   -6.8870    0.7820    0.3210 N   0  0  0  0  0  0  0  0  0  0  0  0
   -5.9700   -0.0410   -0.2480 C   0  0  0  0  0  0  0  0  0  0  0  0
  1  2  1  0
  2  3  1  0
  2 29  1  0
  3  4  2  0
  4  5  1  0
  4 24  1  0
  5  6  2  0
  5  7  1  0
  7  8  1  0
  8  9  2  0
  8 23  1  0
  9 10  1  0
 10 11  2  0
 11 12  1  0
 11 21  1  0
 12 13  1  0
 13 14  2  0
 13 15  1  0
 15 16  2  0
 15 20  1  0
 16 17  1  0
 17 18  2  0
 18 19  1  0
 19 20  2  0
 21 22  1  0
 21 23  2  0
 24 25  2  0
 24 29  1  0
 25 26  1  0
 26 27  2  0
 27 28  1  0
 28 29  2  0
M  END
