
     RDKit          3D

 28 31  0  0  0  0  0  0  0  0999 V2000
   -6.0550    3.7990    1.2810 N   0  0  0  0  0  0  0  0  0  0  0  0
   -5.4150    2.8840    1.6520 C   0  0  0  0  0  0  0  0  0  0  0  0
   -4.6150    1.7680    2.0970 C   0  0  0  0  0  0  0  0  0  0  0  0
   -5.1400    0.7730    2.8980 C   0  0  0  0  0  0  0  0  0  0  0  0
   -4.3820   -0.2820    3.3210 C   0  0  0  0  0  0  0  0  0  0  0  0
   -3.0690   -0.4110    2.9770 C   0  0  0  0  0  0  0  0  0  0  0  0
   -2.3070   -1.4430    3.3880 N   0  0  0  0  0  0  0  0  0  0  0  0
   -1.0180   -1.4920    3.0040 C   0  0  0  0  0  0  0  0  0  0  0  0
   -0.0260   -2.3960    3.2620 N   0  0  0  0  0  0  0  0  0  0  0  0
    1.1140   -2.0200    2.6580 C   0  0  0  0  0  0  0  0  0  0  0  0
    0.8940   -0.8500    1.9820 C   0  0  0  0  0  0  0  0  0  0  0  0
    1.8380   -0.0610    1.1470 C   0  0  0  0  0  0  0  0  0  0  0  0
    1.5970   -0.3780   -0.3180 C   0  0  0  0  0  0  0  0  0  0  0  0
    0.6870   -1.1540   -0.5870 O   0  0  0  0  0  0  0  0  0  0  0  0
    2.4260    0.2250   -1.2980 N   0  0  0  0  0  0  0  0  0  0  0  0
    2.3460    0.0190   -2.6840 C   0  0  0  0  0  0  0  0  0  0  0  0
    1.3500   -0.7740   -3.1990 C   0  0  0  0  0  0  0  0  0  0  0  0
    1.2910   -1.0350   -4.5600 C   0  0  0  0  0  0  0  0  0  0  0  0
    2.2220   -0.5040   -5.3980 C   0  0  0  0  0  0  0  0  0  0  0  0
    3.2120    0.2900   -4.8620 C   0  0  0  0  0  0  0  0  0  0  0  0
    3.3120    0.5790   -3.5120 C   0  0  0  0  0  0  0  0  0  0  0  0
    4.3680    1.4630   -3.0480 C   0  0  0  0  0  0  0  0  0  0  0  0
    4.5260    1.9020   -1.9490 O   0  0  0  0  0  0  0  0  0  0  0  0
    5.3240    1.8580   -3.9900 F   0  0  0  0  0  0  0  0  0  0  0  0
   -0.4340   -0.5250    2.2000 C   0  0  0  0  0  0  0  0  0  0  0  0
   -1.2210    0.4880    1.8100 N   0  0  0  0  0  0  0  0  0  0  0  0
   -2.5060    0.5740    2.1690 C   0  0  0  0  0  0  0  0  0  0  0  0
   -3.2900    1.6430    1.7460 C   0  0  0  0  0  0  0  0  0  0  0  0
  1  2  3  0
  2  3  1  0
  3  4  2  0
  3 28  1  0
  4  5  1  0
  5  6  2  0
  6  7  1  0
  6 27  1  0
  7  8  2  0
  8  9  1  0
  8 25  1  0
  9 10  1  0
 10 11  2  0
 11 12  1  0
 11 25  1  0
 12 13  1  0
 13 14  2  0
 13 15  1  0
 15 16  1  0
 16 17  2  0
 16 21  1  0
 17 18  1  0
 18 19  2  0
 19 20  1  0
 20 21  2  0
 21 22  1  0
 22 23  2  0
 22 24  1  0
 25 26  2  0
 26 27  1  0
 27 28  2  0
M  END
