
     RDKit          3D

 30 32  0  0  0  0  0  0  0  0999 V2000
    6.8650    4.1200    0.6790 O   0  0  0  0  0  0  0  0  0  0  0  0
    6.6110    3.2930   -0.2030 N   0  0  0  0  0  0  0  0  0  0  0  0
    7.4050    3.2970   -1.3230 O   0  0  0  0  0  0  0  0  0  0  0  0
    5.5290    2.3650   -0.0570 C   0  0  0  0  0  0  0  0  0  0  0  0
    4.7560    2.3880    1.0680 C   0  0  0  0  0  0  0  0  0  0  0  0
    3.7020    1.4940    1.2210 C   0  0  0  0  0  0  0  0  0  0  0  0
    3.4010    0.5560    0.2450 C   0  0  0  0  0  0  0  0  0  0  0  0
    2.3410   -0.2820    0.4910 O   0  0  0  0  0  0  0  0  0  0  0  0
    1.8420   -1.3020   -0.3160 C   0  0  2  0  0  0  0  0  0  0  0  0
    0.5400   -1.1070   -0.7320 O   0  0  0  0  0  0  0  0  0  0  0  0
   -0.4340   -1.6440    0.0400 C   0  0  2  0  0  0  0  0  0  0  0  0
   -0.6650   -0.8560    1.3380 C   0  0  0  0  0  0  0  0  0  0  0  0
   -1.1560    0.8510    0.8900 S   0  0  0  0  0  0  0  0  0  0  0  0
   -2.7730    0.8430    0.0670 C   0  0  1  0  0  0  0  0  0  0  0  0
   -3.7260    0.4390    0.9770 O   0  0  0  0  0  0  0  0  0  0  0  0
   -4.9920    0.9120    0.7300 C   0  0  0  0  0  0  0  0  0  0  0  0
   -5.2600    1.1490   -0.7380 C   0  0  1  0  0  0  0  0  0  0  0  0
   -6.5360    1.6520   -0.8740 O   0  0  0  0  0  0  0  0  0  0  0  0
   -4.2950    2.1680   -1.3080 C   0  0  2  0  0  0  0  0  0  0  0  0
   -3.9200    1.7110   -2.5680 O   0  0  0  0  0  0  0  0  0  0  0  0
   -3.0780    2.2430   -0.3780 C   0  0  1  0  0  0  0  0  0  0  0  0
   -3.3710    3.1070    0.6530 O   0  0  0  0  0  0  0  0  0  0  0  0
   -0.3450   -3.0880    0.3700 C   0  0  1  0  0  0  0  0  0  0  0  0
   -1.3260   -3.8230   -0.3100 O   0  0  0  0  0  0  0  0  0  0  0  0
    0.9950   -3.6290   -0.0590 C   0  0  2  0  0  0  0  0  0  0  0  0
    1.2580   -4.8370    0.5960 O   0  0  0  0  0  0  0  0  0  0  0  0
    2.0360   -2.6380    0.3760 C   0  0  1  0  0  0  0  0  0  0  0  0
    3.2930   -3.1640    0.1950 O   0  0  0  0  0  0  0  0  0  0  0  0
    4.1930    0.5530   -0.8780 C   0  0  0  0  0  0  0  0  0  0  0  0
    5.2480    1.4430   -1.0400 C   0  0  0  0  0  0  0  0  0  0  0  0
  1  2  2  0
  2  3  1  0
  2  4  1  0
  4  5  2  0
  4 30  1  0
  5  6  1  0
  6  7  2  0
  7  8  1  0
  7 29  1  0
  9  8  1  1
  9 10  1  0
  9 27  1  0
 10 11  1  0
 11 12  1  1
 11 23  1  0
 12 13  1  0
 14 13  1  1
 14 15  1  0
 14 21  1  0
 15 16  1  0
 16 17  1  0
 17 18  1  1
 17 19  1  0
 19 20  1  6
 19 21  1  0
 21 22  1  1
 23 24  1  6
 23 25  1  0
 25 26  1  1
 25 27  1  0
 27 28  1  6
 29 30  2  0
M  CHG  2   2   1   3  -1
M  END
