
     RDKit          3D

 31 33  0  0  0  0  0  0  0  0999 V2000
   -4.2440    4.3480   -0.6380 C   0  0  0  0  0  0  0  0  0  0  0  0
   -3.2990    3.1250   -0.6120 C   0  0  2  0  0  0  0  0  0  0  0  0
   -2.8210    3.0150   -2.0500 C   0  0  0  0  0  0  0  0  0  0  0  0
   -4.1250    1.9580   -0.2320 C   0  0  0  0  0  0  0  0  0  0  0  0
   -5.4770    1.9860   -0.1760 N   0  0  0  0  0  0  0  0  0  0  0  0
   -5.9870    0.8490    0.1600 N   0  0  0  0  0  0  0  0  0  0  0  0
   -7.4140    0.6200    0.2900 C   0  0  0  0  0  0  0  0  0  0  0  0
   -4.9520   -0.0190    0.3480 C   0  0  0  0  0  0  0  0  0  0  0  0
   -3.7810    0.6690    0.1050 C   0  0  0  0  0  0  0  0  0  0  0  0
   -2.5850    0.1180    0.2130 C   0  0  0  0  0  0  0  0  0  0  0  0
   -1.3650    0.7940   -0.0100 N   0  0  0  0  0  0  0  0  0  0  0  0
   -0.1380    0.0530    0.1480 C   0  0  0  0  0  0  0  0  0  0  0  0
   -0.1420   -1.1430    0.4720 O   0  0  0  0  0  0  0  0  0  0  0  0
    1.1500    0.7590   -0.0880 C   0  0  0  0  0  0  0  0  0  0  0  0
    2.2830   -0.0980    0.1050 N   0  0  0  0  0  0  0  0  0  0  0  0
    2.9630   -0.2680    1.3580 C   0  0  0  0  0  0  0  0  0  0  0  0
    2.7330    0.2550    2.4760 O   0  0  0  0  0  0  0  0  0  0  0  0
    4.0190   -1.2000    1.0870 N   0  0  0  0  0  0  0  0  0  0  0  0
    4.3440   -1.0940   -0.3260 C   0  0  2  0  0  0  0  0  0  0  0  0
    4.9150   -2.3670   -0.8420 C   0  0  0  0  0  0  0  0  0  0  0  0
    5.1160    0.1290   -0.6850 C   0  0  0  0  0  0  0  0  0  0  0  0
    6.4120    0.3130    0.0090 C   0  0  0  0  0  0  0  0  0  0  0  0
    7.4420   -0.7540   -0.1830 C   0  0  0  0  0  0  0  0  0  0  0  0
    8.6570   -0.3470    0.5600 N   0  0  0  0  0  0  0  0  0  0  0  0
    2.9290   -0.9110   -0.8630 C   0  0  0  0  0  0  0  0  0  0  0  0
    2.4210   -1.3550   -1.9010 O   0  0  0  0  0  0  0  0  0  0  0  0
   -2.4800   -1.5990    0.6740 S   0  0  0  0  0  0  0  0  0  0  0  0
   -4.1250   -2.2390    0.9150 C   0  0  2  0  0  0  0  0  0  0  0  0
   -4.2310   -2.8740    2.2890 C   0  0  0  0  0  0  0  0  0  0  0  0
   -4.4460   -3.3730   -0.0700 C   0  0  0  0  0  0  0  0  0  0  0  0
   -5.0750   -1.2270    0.6830 N   0  0  0  0  0  0  0  0  0  0  0  0
  2  1  1  6
  2  3  1  0
  2  4  1  0
  4  5  2  0
  4  9  1  0
  5  6  1  0
  6  7  1  0
  6  8  1  0
  8  9  1  0
  8 31  2  0
  9 10  2  0
 10 11  1  0
 10 27  1  0
 11 12  1  0
 12 13  2  0
 12 14  1  0
 14 15  1  0
 15 16  1  0
 15 25  1  0
 16 17  2  0
 16 18  1  0
 18 19  1  0
 19 20  1  6
 19 21  1  0
 19 25  1  0
 21 22  1  0
 22 23  1  0
 23 24  1  0
 25 26  2  0
 27 28  1  0
 28 29  1  1
 28 30  1  0
 28 31  1  0
M  CHG  1  24   1
M  END
