
     RDKit          3D

 31 33  0  0  0  0  0  0  0  0999 V2000
   -7.7010   -1.7950   -0.4610 C   0  0  0  0  0  0  0  0  0  0  0  0
   -7.2420   -0.9040    0.5530 N   0  0  0  0  0  0  0  0  0  0  0  0
   -5.9600   -0.2110    0.2860 C   0  0  0  0  0  0  0  0  0  0  0  0
   -4.8260   -0.8540    0.7840 N   0  0  0  0  0  0  0  0  0  0  0  0
   -3.4680   -0.4870    0.6860 C   0  0  0  0  0  0  0  0  0  0  0  0
   -3.1470    0.5330    0.0800 O   0  0  0  0  0  0  0  0  0  0  0  0
   -2.4360   -1.2820    1.2810 N   0  0  0  0  0  0  0  0  0  0  0  0
   -1.0520   -0.9150    1.1760 C   0  0  0  0  0  0  0  0  0  0  0  0
   -0.5600   -0.8750   -0.2430 C   0  0  0  0  0  0  0  0  0  0  0  0
    0.8780   -0.4970   -0.3150 C   0  0  0  0  0  0  0  0  0  0  0  0
    1.8710   -1.2090   -0.8070 C   0  0  0  0  0  0  0  0  0  0  0  0
    1.8600   -2.5320   -1.4080 C   0  0  0  0  0  0  0  0  0  0  0  0
    2.9500   -3.0470   -1.8270 O   0  0  0  0  0  0  0  0  0  0  0  0
    0.7430   -3.3090   -1.5720 O   0  0  0  0  0  0  0  0  0  0  0  0
    0.7850   -4.6120   -2.1730 C   0  0  0  0  0  0  0  0  0  0  0  0
    3.0540   -0.4250   -0.6530 N   0  0  0  0  0  0  0  0  0  0  0  0
    2.8130    0.7050   -0.0980 C   0  0  0  0  0  0  0  0  0  0  0  0
    3.7470    1.7780    0.2300 C   0  0  0  0  0  0  0  0  0  0  0  0
    5.0160    1.5980   -0.0650 C   0  0  0  0  0  0  0  0  0  0  0  0
    6.0620    2.6150    0.2190 C   0  0  0  0  0  0  0  0  0  0  0  0
    7.1130    2.2050    1.1050 C   0  0  0  0  0  0  0  0  0  0  0  0
    7.3550    2.2090    2.3280 N   0  0  0  0  0  0  0  0  0  0  0  0
    8.3970    1.7740    2.8860 N   0  0  0  0  0  0  0  0  0  0  0  0
    9.3790    1.2540    2.2780 C   0  0  0  0  0  0  0  0  0  0  0  0
   10.6860    0.6650    2.5370 C   0  0  0  0  0  0  0  0  0  0  0  0
    8.7130    1.3970    0.5170 S   0  0  0  0  0  0  0  0  0  0  0  0
    1.4060    0.7360    0.1560 N   0  0  0  0  0  0  0  0  0  0  0  0
   -6.0210    0.9100   -0.4000 C   0  0  0  0  0  0  0  0  0  0  0  0
   -5.2150    1.9790   -0.9500 C   0  0  0  0  0  0  0  0  0  0  0  0
   -6.4400    2.7310   -1.3910 C   0  0  0  0  0  0  0  0  0  0  0  0
   -7.2590    1.5780   -0.9780 C   0  0  0  0  0  0  0  0  0  0  0  0
  1  2  1  0
  2  3  1  0
  3  4  1  0
  3 28  2  3
  4  5  1  0
  5  6  2  0
  5  7  1  0
  7  8  1  0
  8  9  1  0
  9 10  1  0
 10 11  2  0
 10 27  1  0
 11 12  1  0
 11 16  1  0
 12 13  2  0
 12 14  1  0
 14 15  1  0
 16 17  2  0
 17 18  1  0
 17 27  1  0
 18 19  2  3
 19 20  1  0
 20 21  1  0
 21 22  2  0
 21 26  1  0
 22 23  1  0
 23 24  2  0
 24 25  1  0
 24 26  1  0
 28 29  1  0
 28 31  1  0
 29 30  1  0
 30 31  1  0
M  CHG  1  27   1
M  END
