
     RDKit          3D

 31 33  0  0  0  0  0  0  0  0999 V2000
    9.8340   -1.7530   -1.6280 C   0  0  0  0  0  0  0  0  0  0  0  0
    9.7060   -1.3890   -0.1850 C   0  0  0  0  0  0  0  0  0  0  0  0
    8.4080   -0.7420    0.1440 C   0  0  0  0  0  0  0  0  0  0  0  0
    7.0620   -1.4890    1.0160 S   0  0  0  0  0  0  0  0  0  0  0  0
    5.9770    0.0140    0.9570 C   0  0  0  0  0  0  0  0  0  0  0  0
    4.6640    0.0540    1.5440 C   0  0  0  0  0  0  0  0  0  0  0  0
    4.2130   -0.9520    2.1270 O   0  0  0  0  0  0  0  0  0  0  0  0
    3.8460    1.2240    1.4800 N   0  0  0  0  0  0  0  0  0  0  0  0
    2.5830    1.2290    2.0650 N   0  0  0  0  0  0  0  0  0  0  0  0
    1.4240    1.3630    1.2120 C   0  0  0  0  0  0  0  0  0  0  0  0
    1.4280    2.1910    0.2300 N   0  0  0  0  0  0  0  0  0  0  0  0
    0.2900    2.3220   -0.6080 C   0  0  0  0  0  0  0  0  0  0  0  0
    0.2550    3.1200   -1.5770 O   0  0  0  0  0  0  0  0  0  0  0  0
   -0.8730    1.5170   -0.3480 C   0  0  0  0  0  0  0  0  0  0  0  0
   -2.0940    1.3620   -0.8870 C   0  0  0  0  0  0  0  0  0  0  0  0
   -2.6020    2.1120   -2.0700 C   0  0  0  0  0  0  0  0  0  0  0  0
   -2.8200    0.3620   -0.1380 C   0  0  0  0  0  0  0  0  0  0  0  0
   -4.1690   -0.1150   -0.3510 N   0  0  0  0  0  0  0  0  0  0  0  0
   -4.3760   -1.5240   -0.2120 C   0  0  0  0  0  0  0  0  0  0  0  0
   -5.7790   -1.9970   -0.1360 C   0  0  0  0  0  0  0  0  0  0  0  0
   -6.4320   -1.4490    0.9700 O   0  0  0  0  0  0  0  0  0  0  0  0
   -7.6950   -1.9590    1.1570 C   0  0  0  0  0  0  0  0  0  0  0  0
   -8.6670   -1.7030    0.0620 C   0  0  0  0  0  0  0  0  0  0  0  0
   -8.9590   -0.3420   -0.2120 N   0  0  0  0  0  0  0  0  0  0  0  0
   -7.9380    0.6150    0.0490 C   0  0  0  0  0  0  0  0  0  0  0  0
   -2.0490   -0.0730    0.8330 N   0  0  0  0  0  0  0  0  0  0  0  0
   -0.8060    0.5880    0.7940 C   0  0  0  0  0  0  0  0  0  0  0  0
    0.2770    0.5660    1.4710 N   0  0  0  0  0  0  0  0  0  0  0  0
    6.7590    0.8840    0.2910 C   0  0  0  0  0  0  0  0  0  0  0  0
    7.9740    0.5460   -0.1300 C   0  0  0  0  0  0  0  0  0  0  0  0
    8.9080    1.4740   -0.8820 C   0  0  0  0  0  0  0  0  0  0  0  0
  1  2  1  0
  2  3  1  0
  3  4  1  0
  3 30  2  0
  4  5  1  0
  5  6  1  0
  5 29  2  0
  6  7  2  0
  6  8  1  0
  8  9  1  0
  9 10  1  0
 10 11  2  0
 10 28  1  0
 11 12  1  0
 12 13  2  0
 12 14  1  0
 14 15  2  0
 14 27  1  0
 15 16  1  0
 15 17  1  0
 17 18  1  0
 17 26  2  0
 18 19  1  0
 19 20  1  0
 20 21  1  0
 21 22  1  0
 22 23  1  0
 23 24  1  0
 24 25  1  0
 26 27  1  0
 27 28  2  0
 29 30  1  0
 30 31  1  0
M  CHG  1  24   1
M  END
