
     RDKit          3D

  8  8  0  0  0  0  0  0  0  0999 V2000
    2.0110   -0.3850    0.5850 C   0  0  0  0  0  0  0  0  0  0  0  0
    0.6670   -0.1880   -0.0250 C   0  0  2  0  0  0  0  0  0  0  0  0
    0.5960   -0.5460   -1.3650 O   0  0  0  0  0  0  0  0  0  0  0  0
    0.1730    1.2590    0.1050 C   0  0  0  0  0  0  0  0  0  0  0  0
   -1.1400    1.2940   -0.6890 C   0  0  0  0  0  0  0  0  0  0  0  0
   -2.0640    0.4710   -0.0980 O   0  0  0  0  0  0  0  0  0  0  0  0
   -1.6980   -0.8470   -0.0110 C   0  0  0  0  0  0  0  0  0  0  0  0
   -0.3810   -1.0290    0.6980 C   0  0  0  0  0  0  0  0  0  0  0  0
  2  1  1  1
  2  3  1  0
  2  4  1  0
  2  8  1  0
  4  5  1  0
  5  6  1  0
  6  7  1  0
  7  8  1  0
M  END
