
     RDKit          3D

  8  8  0  0  0  0  0  0  0  0999 V2000
   -2.1790   -0.5330   -0.2080 C   0  0  0  0  0  0  0  0  0  0  0  0
   -1.1230    0.5400   -0.4020 C   0  0  1  0  0  0  0  0  0  0  0  0
   -1.3830    1.5970    0.4590 O   0  0  0  0  0  0  0  0  0  0  0  0
    0.2490   -0.0030   -0.1980 C   0  0  0  0  0  0  0  0  0  0  0  0
    1.3650    0.7850   -0.0620 C   0  0  0  0  0  0  0  0  0  0  0  0
    2.4240   -0.0710    0.1060 C   0  0  0  0  0  0  0  0  0  0  0  0
    1.9130   -1.3530    0.0660 C   0  0  0  0  0  0  0  0  0  0  0  0
    0.6200   -1.2550   -0.1160 O   0  0  0  0  0  0  0  0  0  0  0  0
  2  1  1  1
  2  3  1  0
  2  4  1  0
  4  5  2  0
  4  8  1  0
  5  6  1  0
  6  7  2  0
  7  8  1  0
M  END
