
     RDKit          3D

  7  7  0  0  0  0  0  0  0  0999 V2000
   -2.2450   -0.4080   -0.5000 C   0  0  0  0  0  0  0  0  0  0  0  0
   -1.2150    0.7000   -0.5320 C   0  0  0  0  0  0  0  0  0  0  0  0
   -0.0480    0.2710    0.3210 C   0  0  1  0  0  0  0  0  0  0  0  0
    0.5830   -1.0010   -0.1840 C   0  0  0  0  0  0  0  0  0  0  0  0
    2.0680   -0.6590   -0.0880 C   0  0  0  0  0  0  0  0  0  0  0  0
    2.1570    0.4420    0.7550 O   0  0  0  0  0  0  0  0  0  0  0  0
    1.0980    1.2390    0.2840 C   0  0  0  0  0  0  0  0  0  0  0  0
  1  2  1  0
  3  2  1  6
  3  4  1  0
  3  7  1  0
  4  5  1  0
  5  6  1  0
  6  7  1  0
M  END
