
     RDKit          3D

 24 25  0  0  0  0  0  0  0  0999 V2000
   -0.0610    3.8840   -0.5740 C   0  0  0  0  0  0  0  0  0  0  0  0
   -0.1600    2.5080   -0.0170 C   0  0  0  0  0  0  0  0  0  0  0  0
   -1.3560    1.8840    0.2270 C   0  0  0  0  0  0  0  0  0  0  0  0
   -1.4050    0.6310    0.7350 N   0  0  0  0  0  0  0  0  0  0  0  0
   -2.6880    0.0030    0.9590 C   0  0  0  0  0  0  0  0  0  0  0  0
   -3.2750   -0.6990   -0.2160 C   0  0  2  0  0  0  0  0  0  0  0  0
   -4.5560   -1.2590    0.2610 N   0  0  0  0  0  0  0  0  0  0  0  0
   -2.4700   -1.8210   -0.7140 C   0  0  0  0  0  0  0  0  0  0  0  0
   -1.3810   -1.6330   -1.3220 O   0  0  0  0  0  0  0  0  0  0  0  0
   -2.8860   -3.1170   -0.5300 O   0  0  0  0  0  0  0  0  0  0  0  0
   -0.2540    0.0220    0.9920 C   0  0  0  0  0  0  0  0  0  0  0  0
   -0.3120   -1.1370    1.4700 O   0  0  0  0  0  0  0  0  0  0  0  0
    0.9920    0.5430    0.7890 N   0  0  0  0  0  0  0  0  0  0  0  0
    2.1440   -0.2720    1.1080 C   0  0  0  0  0  0  0  0  0  0  0  0
    2.6870   -1.0550   -0.0590 C   0  0  0  0  0  0  0  0  0  0  0  0
    2.1150   -2.2230   -0.4110 C   0  0  0  0  0  0  0  0  0  0  0  0
    2.5490   -2.8530   -1.5420 C   0  0  0  0  0  0  0  0  0  0  0  0
    3.8450   -1.7490   -2.1630 S   0  0  0  0  0  0  0  0  0  0  0  0
    3.6880   -0.5690   -0.8680 C   0  0  0  0  0  0  0  0  0  0  0  0
    4.6010    0.5620   -0.7210 C   0  0  0  0  0  0  0  0  0  0  0  0
    5.3710    0.8020   -1.7160 O   0  0  0  0  0  0  0  0  0  0  0  0
    4.7290    1.3790    0.3540 O   0  0  0  0  0  0  0  0  0  0  0  0
    1.0040    1.7770    0.2880 C   0  0  0  0  0  0  0  0  0  0  0  0
    2.0690    2.3740    0.0550 O   0  0  0  0  0  0  0  0  0  0  0  0
  1  2  1  0
  2  3  2  0
  2 23  1  0
  3  4  1  0
  4  5  1  0
  4 11  1  0
  5  6  1  0
  6  7  1  1
  6  8  1  0
  8  9  2  0
  8 10  1  0
 11 12  2  0
 11 13  1  0
 13 14  1  0
 13 23  1  0
 14 15  1  0
 15 16  1  0
 15 19  2  0
 16 17  2  0
 17 18  1  0
 18 19  1  0
 19 20  1  0
 20 21  2  0
 20 22  1  0
 23 24  2  0
M  CHG  1   7   1
M  END
