
     RDKit          3D

  8  8  0  0  0  0  0  0  0  0999 V2000
    2.5990    0.6920    0.1950 C   0  0  0  0  0  0  0  0  0  0  0  0
    1.2780    0.4940    0.5900 O   0  0  0  0  0  0  0  0  0  0  0  0
    0.5720   -0.2960   -0.3130 C   0  0  2  0  0  0  0  0  0  0  0  0
   -0.4740    0.5960   -0.9590 C   0  0  0  0  0  0  0  0  0  0  0  0
   -1.5180    0.8510    0.1060 C   0  0  0  0  0  0  0  0  0  0  0  0
   -2.1110   -0.4410    0.5100 C   0  0  0  0  0  0  0  0  0  0  0  0
   -1.3590   -1.5400    0.4630 O   0  0  0  0  0  0  0  0  0  0  0  0
   -0.0390   -1.4990    0.2960 C   0  0  0  0  0  0  0  0  0  0  0  0
  1  2  1  0
  3  2  1  1
  3  4  1  0
  3  8  1  0
  4  5  1  0
  5  6  1  0
  6  7  1  0
  7  8  1  0
M  END
