
     RDKit          3D

  8  8  0  0  0  0  0  0  0  0999 V2000
    2.6080   -0.0730    0.3240 C   0  0  0  0  0  0  0  0  0  0  0  0
    1.7540   -0.0360   -0.9080 C   0  0  0  0  0  0  0  0  0  0  0  0
    0.4540   -0.4190   -0.7220 O   0  0  0  0  0  0  0  0  0  0  0  0
   -0.2830    0.3000    0.1570 C   0  0  1  0  0  0  0  0  0  0  0  0
   -1.5130    0.8910   -0.5100 C   0  0  0  0  0  0  0  0  0  0  0  0
   -2.5100   -0.2500   -0.2900 C   0  0  0  0  0  0  0  0  0  0  0  0
   -2.2730   -0.5000    1.0740 O   0  0  0  0  0  0  0  0  0  0  0  0
   -0.9110   -0.6510    1.1590 C   0  0  0  0  0  0  0  0  0  0  0  0
  1  2  1  0
  2  3  1  0
  4  3  1  6
  4  5  1  0
  4  8  1  0
  5  6  1  0
  6  7  1  0
  7  8  1  0
M  END
