
     RDKit          3D

  8  8  0  0  0  0  0  0  0  0999 V2000
    2.7670    1.0020    0.0360 O   0  0  0  0  0  0  0  0  0  0  0  0
    2.0040   -0.1650    0.2070 C   0  0  0  0  0  0  0  0  0  0  0  0
    0.5710    0.0880   -0.2450 C   0  0  1  0  0  0  0  0  0  0  0  0
   -0.2080   -1.1670   -0.0500 C   0  0  0  0  0  0  0  0  0  0  0  0
   -1.6990   -0.9630   -0.0080 C   0  0  0  0  0  0  0  0  0  0  0  0
   -2.0870    0.4520    0.3120 C   0  0  0  0  0  0  0  0  0  0  0  0
   -1.1460    0.9480    1.2210 O   0  0  0  0  0  0  0  0  0  0  0  0
    0.0050    1.2720    0.5160 C   0  0  0  0  0  0  0  0  0  0  0  0
  1  2  1  0
  3  2  1  1
  3  4  1  0
  3  8  1  0
  4  5  1  0
  5  6  1  0
  6  7  1  0
  7  8  1  0
M  END
