
     RDKit          3D

 23 26  0  0  0  0  0  0  0  0999 V2000
   -2.3920   -0.9150   -2.0800 C   0  0  0  0  0  0  0  0  0  0  0  0
   -1.4910   -1.2050   -0.8960 C   0  0  2  0  0  0  0  0  0  0  0  0
   -2.3210   -0.9650    0.3380 N   0  0  0  0  0  0  0  0  0  0  0  0
   -3.4200   -0.1130    0.0990 C   0  0  2  0  0  0  0  0  0  0  0  0
   -3.4670    1.1220    1.0350 C   0  0  0  0  0  0  0  0  0  0  0  0
   -4.8360    1.6510    0.5190 C   0  0  0  0  0  0  0  0  0  0  0  0
   -5.6870    0.4190    0.7370 C   0  0  0  0  0  0  0  0  0  0  0  0
   -4.7960   -0.7290    0.3900 C   0  0  0  0  0  0  0  0  0  0  0  0
   -0.3530   -0.2610   -0.8470 C   0  0  0  0  0  0  0  0  0  0  0  0
   -0.2990    1.1030   -0.8970 C   0  0  0  0  0  0  0  0  0  0  0  0
    0.9650    1.4930   -0.6730 N   0  0  0  0  0  0  0  0  0  0  0  0
    1.7130    0.4200   -0.4810 N   0  0  0  0  0  0  0  0  0  0  0  0
    3.0540    0.2040   -0.3010 C   0  0  0  0  0  0  0  0  0  0  0  0
    3.6150   -1.0420   -0.2280 C   0  0  0  0  0  0  0  0  0  0  0  0
    2.7780   -2.1840   -0.3320 C   0  0  0  0  0  0  0  0  0  0  0  0
    1.4860   -1.8980   -0.4970 N   0  0  0  0  0  0  0  0  0  0  0  0
    0.9710   -0.6620   -0.5720 C   0  0  0  0  0  0  0  0  0  0  0  0
    5.0240   -1.4470   -0.1710 C   0  0  0  0  0  0  0  0  0  0  0  0
    5.2910   -2.5760   -0.5900 O   0  0  0  0  0  0  0  0  0  0  0  0
    6.0760   -0.6310    0.3260 N   0  0  0  0  0  0  0  0  0  0  0  0
    6.0980    0.8130    0.4890 C   0  0  0  0  0  0  0  0  0  0  0  0
    4.7450    1.2730    1.0090 C   0  0  0  0  0  0  0  0  0  0  0  0
    3.7380    1.5060   -0.1130 C   0  0  0  0  0  0  0  0  0  0  0  0
  2  1  1  6
  2  3  1  0
  2  9  1  0
  4  3  1  1
  4  5  1  0
  4  8  1  0
  5  6  1  0
  6  7  1  0
  7  8  1  0
  9 10  1  0
  9 17  2  0
 10 11  2  0
 11 12  1  0
 12 13  1  0
 12 17  1  0
 13 14  2  0
 13 23  1  0
 14 15  1  0
 14 18  1  0
 15 16  2  0
 16 17  1  0
 18 19  2  0
 18 20  1  0
 20 21  1  0
 21 22  1  0
 22 23  1  0
M  CHG  1   3   1
M  END
