
     RDKit          3D

 23 26  0  0  0  0  0  0  0  0999 V2000
   -1.0220   -1.7140    1.2870 O   0  0  0  0  0  0  0  0  0  0  0  0
   -1.0770   -0.9680    0.2880 C   0  0  0  0  0  0  0  0  0  0  0  0
    0.0910   -0.4780   -0.3000 N   0  0  0  0  0  0  0  0  0  0  0  0
    1.4260   -0.7300    0.1020 C   0  0  0  0  0  0  0  0  0  0  0  0
    1.7480   -1.6570    1.0330 C   0  0  0  0  0  0  0  0  0  0  0  0
    3.0750   -1.8550    1.4010 C   0  0  0  0  0  0  0  0  0  0  0  0
    4.0470   -1.0910    0.7990 C   0  0  0  0  0  0  0  0  0  0  0  0
    5.3600   -1.2430    1.1210 N   0  0  0  0  0  0  0  0  0  0  0  0
    6.3190   -0.5140    0.5510 C   0  0  0  0  0  0  0  0  0  0  0  0
    5.9970    0.4280   -0.3950 C   0  0  0  0  0  0  0  0  0  0  0  0
    6.7450    1.2890   -1.1190 N   0  0  0  0  0  0  0  0  0  0  0  0
    5.9450    2.0240   -1.9310 C   0  0  0  0  0  0  0  0  0  0  0  0
    4.6640    1.5750   -1.6730 C   0  0  0  0  0  0  0  0  0  0  0  0
    4.7130    0.6150   -0.7460 N   0  0  0  0  0  0  0  0  0  0  0  0
    3.7460   -0.1380   -0.1540 C   0  0  0  0  0  0  0  0  0  0  0  0
    2.4360    0.0370   -0.4980 C   0  0  0  0  0  0  0  0  0  0  0  0
   -2.4440   -0.6130   -0.2590 C   0  0  2  0  0  0  0  0  0  0  0  0
   -2.5780    0.8560   -0.1720 C   0  0  0  0  0  0  0  0  0  0  0  0
   -3.9050    1.4120   -0.5490 C   0  0  0  0  0  0  0  0  0  0  0  0
   -4.8570    1.5200    0.6380 C   0  0  0  0  0  0  0  0  0  0  0  0
   -4.6570    0.2760    1.5070 C   0  0  0  0  0  0  0  0  0  0  0  0
   -4.7310   -0.8520    0.6180 N   0  0  0  0  0  0  0  0  0  0  0  0
   -3.4360   -1.4310    0.4460 C   0  0  0  0  0  0  0  0  0  0  0  0
  1  2  2  0
  2  3  1  0
 17  2  1  1
  3  4  1  0
  4  5  2  0
  4 16  1  0
  5  6  1  0
  6  7  2  0
  7  8  1  0
  7 15  1  0
  8  9  2  0
  9 10  1  0
 10 11  2  0
 10 14  1  0
 11 12  1  0
 12 13  2  0
 13 14  1  0
 14 15  1  0
 15 16  2  0
 17 18  1  0
 17 23  1  0
 18 19  1  0
 19 20  1  0
 20 21  1  0
 21 22  1  0
 22 23  1  0
M  CHG  1  22   1
M  END
