
     RDKit          3D

 23 25  0  0  0  0  0  0  0  0999 V2000
   -6.1100    1.6200    0.1080 C   0  0  0  0  0  0  0  0  0  0  0  0
   -4.7430    1.5890   -0.5880 C   0  0  0  0  0  0  0  0  0  0  0  0
   -3.7040    1.1710    0.3630 C   0  0  0  0  0  0  0  0  0  0  0  0
   -2.9760    0.0960    0.1540 C   0  0  0  0  0  0  0  0  0  0  0  0
   -3.2560   -0.6510   -1.0670 C   0  0  0  0  0  0  0  0  0  0  0  0
   -2.4140   -1.7800   -1.2300 N   0  0  0  0  0  0  0  0  0  0  0  0
   -1.7650   -2.6010   -0.3090 C   0  0  0  0  0  0  0  0  0  0  0  0
   -1.7460   -3.8320   -0.6180 O   0  0  0  0  0  0  0  0  0  0  0  0
   -1.0790   -2.3330    0.9780 C   0  0  0  0  0  0  0  0  0  0  0  0
   -0.7860   -0.8600    1.1620 C   0  0  1  0  0  0  0  0  0  0  0  0
    0.1650   -0.4290    0.1030 C   0  0  0  0  0  0  0  0  0  0  0  0
   -0.2160   -0.2110   -1.1520 N   0  0  0  0  0  0  0  0  0  0  0  0
    0.6850    0.1740   -2.0520 C   0  0  0  0  0  0  0  0  0  0  0  0
    2.0070    0.3500   -1.7090 C   0  0  0  0  0  0  0  0  0  0  0  0
    2.4350    0.1300   -0.4050 C   0  0  0  0  0  0  0  0  0  0  0  0
    3.7960    0.3040   -0.0150 N   0  0  0  0  0  0  0  0  0  0  0  0
    4.2050    0.0650    1.3200 C   0  0  0  0  0  0  0  0  0  0  0  0
    5.4720    0.2160    1.7330 C   0  0  0  0  0  0  0  0  0  0  0  0
    6.5100    0.6440    0.8030 C   0  0  0  0  0  0  0  0  0  0  0  0
    6.0430    0.8770   -0.5570 C   0  0  0  0  0  0  0  0  0  0  0  0
    4.7730    0.7220   -0.9560 C   0  0  0  0  0  0  0  0  0  0  0  0
    1.4550   -0.2570    0.4400 N   0  0  0  0  0  0  0  0  0  0  0  0
   -2.0260   -0.1620    1.1690 N   0  0  0  0  0  0  0  0  0  0  0  0
  1  2  1  0
  2  3  1  0
  3  4  2  3
  4  5  1  0
  4 23  1  0
  5  6  1  0
  6  7  1  0
  7  8  2  0
  7  9  1  0
  9 10  1  0
 10 11  1  6
 10 23  1  0
 11 12  2  0
 11 22  1  0
 12 13  1  0
 13 14  2  0
 14 15  1  0
 15 16  1  0
 15 22  2  0
 16 17  1  0
 16 21  1  0
 17 18  2  0
 18 19  1  0
 19 20  1  0
 20 21  2  0
M  CHG  1  22   1
M  END
