
     RDKit          3D

  9  9  0  0  0  0  0  0  0  0999 V2000
   -2.1860    1.1700   -0.2090 C   0  0  0  0  0  0  0  0  0  0  0  0
   -0.9690    0.6000    0.5210 C   0  0  1  0  0  0  0  0  0  0  0  0
   -1.0180   -0.9110    0.5230 C   0  0  0  0  0  0  0  0  0  0  0  0
    0.3220   -1.3710    0.8230 N   0  0  0  0  0  0  0  0  0  0  0  0
    1.3600   -0.7770    0.0640 C   0  0  0  0  0  0  0  0  0  0  0  0
    2.5840   -1.1530    0.0800 N   0  0  0  0  0  0  0  0  0  0  0  0
    3.5800   -0.5890   -0.6430 O   0  0  0  0  0  0  0  0  0  0  0  0
    0.9480    0.3570   -0.7920 C   0  0  0  0  0  0  0  0  0  0  0  0
    0.1370    1.1600   -0.0380 O   0  0  0  0  0  0  0  0  0  0  0  0
  2  1  1  6
  2  3  1  0
  2  9  1  0
  3  4  1  0
  4  5  1  0
  5  6  2  3
  5  8  1  0
  6  7  1  0
  8  9  1  0
M  END
