
     RDKit          3D

  9  9  0  0  0  0  0  0  0  0999 V2000
    2.7210   -0.0490   -0.5280 C   0  0  0  0  0  0  0  0  0  0  0  0
    1.4770    0.0070   -0.8560 N   0  0  0  0  0  0  0  0  0  0  0  0
    0.4240    0.0290    0.1150 C   0  0  2  0  0  0  0  0  0  0  0  0
   -0.2210   -1.3130    0.2310 C   0  0  0  0  0  0  0  0  0  0  0  0
   -1.4670   -1.3390   -0.3810 O   0  0  0  0  0  0  0  0  0  0  0  0
   -2.2370   -0.3550    0.2820 C   0  0  0  0  0  0  0  0  0  0  0  0
   -1.7670    0.9310   -0.1700 N   0  0  0  0  0  0  0  0  0  0  0  0
   -0.4970    1.1230   -0.2520 C   0  0  0  0  0  0  0  0  0  0  0  0
    0.0030    2.3400   -0.6800 O   0  0  0  0  0  0  0  0  0  0  0  0
  1  2  2  0
  3  2  1  6
  3  4  1  0
  3  8  1  0
  4  5  1  0
  5  6  1  0
  6  7  1  0
  7  8  2  0
  8  9  1  0
M  END
