
     RDKit          3D

  8  8  0  0  0  0  0  0  0  0999 V2000
    3.4630    0.1870   -1.0940 N   0  0  0  0  0  0  0  0  0  0  0  0
    2.4010    0.2610   -0.6460 C   0  0  0  0  0  0  0  0  0  0  0  0
    1.0810    0.3680   -0.0680 C   0  0  1  0  0  0  0  0  0  0  0  0
    0.0170    0.4040   -1.1500 C   0  0  0  0  0  0  0  0  0  0  0  0
   -1.1840   -0.3090   -0.7560 N   0  0  0  0  0  0  0  0  0  0  0  0
   -1.4840   -0.1810    0.6410 C   0  0  0  0  0  0  0  0  0  0  0  0
   -0.2740   -0.4410    1.5180 C   0  0  0  0  0  0  0  0  0  0  0  0
    0.8080   -0.7760    0.7050 O   0  0  0  0  0  0  0  0  0  0  0  0
  1  2  3  0
  3  2  1  6
  3  4  1  0
  3  8  1  0
  4  5  1  0
  5  6  1  0
  6  7  1  0
  7  8  1  0
M  END
