
     RDKit          3D

 26 27  0  0  0  0  0  0  0  0999 V2000
   -0.4650    3.9790   -3.0190 C   0  0  0  0  0  0  0  0  0  0  0  0
   -0.3550    3.6470   -1.6130 N   0  0  0  0  0  0  0  0  0  0  0  0
   -0.6770    2.3750   -1.0760 C   0  0  0  0  0  0  0  0  0  0  0  0
   -1.0800    1.4870   -1.8690 O   0  0  0  0  0  0  0  0  0  0  0  0
   -0.5540    2.0650    0.3770 C   0  0  2  0  0  0  0  0  0  0  0  0
    0.8840    2.3420    0.7580 C   0  0  0  0  0  0  0  0  0  0  0  0
    1.7960    1.3080    0.2140 C   0  0  0  0  0  0  0  0  0  0  0  0
    3.0150    1.5710   -0.3670 C   0  0  0  0  0  0  0  0  0  0  0  0
    3.7850    0.5040   -0.8430 C   0  0  0  0  0  0  0  0  0  0  0  0
    3.3610   -0.8050   -0.7490 C   0  0  0  0  0  0  0  0  0  0  0  0
    4.1700   -1.8640   -1.2430 N   0  0  0  0  0  0  0  0  0  0  0  0
    5.3270   -2.6510   -0.2550 S   0  0  1  0  0  0  0  0  0  0  0  0
    6.5340   -1.7590   -0.0770 O   0  0  0  0  0  0  0  0  0  0  0  0
    4.4750   -2.8170    1.2050 O   0  0  0  0  0  0  0  0  0  0  0  0
    5.5580   -4.0800   -0.9000 O   0  0  0  0  0  0  0  0  0  0  0  0
    2.1300   -1.0450   -0.1590 C   0  0  0  0  0  0  0  0  0  0  0  0
    1.3700    0.0010    0.3100 C   0  0  0  0  0  0  0  0  0  0  0  0
    0.0740   -0.2800    0.9280 C   0  0  0  0  0  0  0  0  0  0  0  0
   -0.9400    0.7090    0.6700 N   0  0  0  0  0  0  0  0  0  0  0  0
   -2.3010    0.3280    0.7100 C   0  0  0  0  0  0  0  0  0  0  0  0
   -3.2390    1.1690    0.4880 O   0  0  0  0  0  0  0  0  0  0  0  0
   -2.7270   -0.9620    0.9870 O   0  0  0  0  0  0  0  0  0  0  0  0
   -4.1010   -1.3220    1.0220 C   0  0  2  0  0  0  0  0  0  0  0  0
   -4.8740   -0.5510    2.0530 C   0  0  0  0  0  0  0  0  0  0  0  0
   -4.1310   -2.7900    1.4650 C   0  0  0  0  0  0  0  0  0  0  0  0
   -4.7510   -1.2420   -0.3190 C   0  0  0  0  0  0  0  0  0  0  0  0
  1  2  1  0
  2  3  1  0
  3  4  2  0
  5  3  1  6
  5  6  1  0
  5 19  1  0
  6  7  1  0
  7  8  2  0
  7 17  1  0
  8  9  1  0
  9 10  2  0
 10 11  1  0
 10 16  1  0
 11 12  1  0
 12 13  1  1
 12 14  1  0
 12 15  1  0
 16 17  2  0
 17 18  1  0
 18 19  1  0
 19 20  1  0
 20 21  2  0
 20 22  1  0
 22 23  1  0
 23 24  1  1
 23 25  1  0
 23 26  1  0
M  END
