
     RDKit          3D

 17 18  0  0  0  0  0  0  0  0999 V2000
   -2.6910   -0.9340   -1.8880 C   0  0  0  0  0  0  0  0  0  0  0  0
   -2.1010   -0.1220   -0.7520 C   0  0  0  0  0  0  0  0  0  0  0  0
   -2.8440    0.7750   -0.2190 C   0  0  0  0  0  0  0  0  0  0  0  0
   -2.6620    1.7290    0.8690 C   0  0  0  0  0  0  0  0  0  0  0  0
   -2.7230    3.0420    0.4480 F   0  0  0  0  0  0  0  0  0  0  0  0
   -0.7030   -0.3590   -0.4860 C   0  0  0  0  0  0  0  0  0  0  0  0
    0.1490    0.5260    0.1230 C   0  0  0  0  0  0  0  0  0  0  0  0
    1.4500    0.1660    0.3950 C   0  0  0  0  0  0  0  0  0  0  0  0
    2.2910    1.0770    1.0110 C   0  0  0  0  0  0  0  0  0  0  0  0
    3.5810    0.7010    1.2740 C   0  0  0  0  0  0  0  0  0  0  0  0
    4.1000   -0.5360    0.9600 C   0  0  0  0  0  0  0  0  0  0  0  0
    5.3960   -0.8620    1.2430 F   0  0  0  0  0  0  0  0  0  0  0  0
    3.2490   -1.4320    0.3460 C   0  0  0  0  0  0  0  0  0  0  0  0
    1.9350   -1.0750    0.0690 C   0  0  0  0  0  0  0  0  0  0  0  0
    1.1050   -1.9010   -0.5120 O   0  0  0  0  0  0  0  0  0  0  0  0
   -0.1360   -1.6160   -0.7920 C   0  0  0  0  0  0  0  0  0  0  0  0
   -0.8710   -2.4890   -1.3600 O   0  0  0  0  0  0  0  0  0  0  0  0
  1  2  1  0
  2  3  2  3
  2  6  1  0
  3  4  1  0
  4  5  1  0
  6  7  2  0
  6 16  1  0
  7  8  1  0
  8  9  2  0
  8 14  1  0
  9 10  1  0
 10 11  2  0
 11 12  1  0
 11 13  1  0
 13 14  2  0
 14 15  1  0
 15 16  1  0
 16 17  2  0
M  END
