
     RDKit          3D

 17 18  0  0  0  0  0  0  0  0999 V2000
    3.3040   -0.4960   -2.4380 O   0  0  0  0  0  0  0  0  0  0  0  0
    3.5110    0.0840   -1.3450 C   0  0  0  0  0  0  0  0  0  0  0  0
    2.4620    0.3280   -0.3650 C   0  0  0  0  0  0  0  0  0  0  0  0
    1.1480   -0.0830   -0.6040 C   0  0  0  0  0  0  0  0  0  0  0  0
    0.1420    0.1410    0.3150 C   0  0  0  0  0  0  0  0  0  0  0  0
   -1.2350   -0.2940    0.0550 C   0  0  0  0  0  0  0  0  0  0  0  0
   -2.0850   -0.6740    1.0710 C   0  0  0  0  0  0  0  0  0  0  0  0
   -3.3840   -1.0820    0.7940 C   0  0  0  0  0  0  0  0  0  0  0  0
   -3.8790   -1.1260   -0.4930 C   0  0  0  0  0  0  0  0  0  0  0  0
   -5.1540   -1.5270   -0.7600 F   0  0  0  0  0  0  0  0  0  0  0  0
   -3.0260   -0.7460   -1.5060 C   0  0  0  0  0  0  0  0  0  0  0  0
   -3.5030   -0.7860   -2.7760 F   0  0  0  0  0  0  0  0  0  0  0  0
   -1.7300   -0.3380   -1.2320 C   0  0  0  0  0  0  0  0  0  0  0  0
    0.4280    0.7870    1.5060 C   0  0  0  0  0  0  0  0  0  0  0  0
    1.7270    1.1900    1.7380 C   0  0  0  0  0  0  0  0  0  0  0  0
    2.7280    0.9690    0.8250 C   0  0  0  0  0  0  0  0  0  0  0  0
    4.0250    1.3850    1.0820 O   0  0  0  0  0  0  0  0  0  0  0  0
  1  2  2  0
  2  3  1  0
  3  4  2  0
  3 16  1  0
  4  5  1  0
  5  6  1  0
  5 14  2  0
  6  7  2  0
  6 13  1  0
  7  8  1  0
  8  9  2  0
  9 10  1  0
  9 11  1  0
 11 12  1  0
 11 13  2  0
 14 15  1  0
 15 16  2  0
 16 17  1  0
M  END
