
     RDKit          3D

 17 18  0  0  0  0  0  0  0  0999 V2000
   -3.8910   -1.9010    0.7820 C   0  0  0  0  0  0  0  0  0  0  0  0
   -3.4740   -0.6140    0.4760 O   0  0  0  0  0  0  0  0  0  0  0  0
   -2.1890   -0.1750    0.2520 C   0  0  0  0  0  0  0  0  0  0  0  0
   -1.8990    1.1370   -0.0450 C   0  0  0  0  0  0  0  0  0  0  0  0
   -0.6170    1.5860   -0.2710 C   0  0  0  0  0  0  0  0  0  0  0  0
   -0.3020    2.9940   -0.5880 C   0  0  0  0  0  0  0  0  0  0  0  0
   -1.4580    3.7570   -0.6200 O   0  0  0  0  0  0  0  0  0  0  0  0
    0.4250    0.6740   -0.1970 C   0  0  0  0  0  0  0  0  0  0  0  0
    1.7140    1.1200   -0.4260 C   0  0  0  0  0  0  0  0  0  0  0  0
    2.7830    0.2450   -0.3620 C   0  0  0  0  0  0  0  0  0  0  0  0
    4.0640    0.6670   -0.5850 F   0  0  0  0  0  0  0  0  0  0  0  0
    2.5420   -1.1020   -0.0630 C   0  0  0  0  0  0  0  0  0  0  0  0
    3.7210   -1.9920   -0.0110 C   0  0  0  0  0  0  0  0  0  0  0  0
    4.1700   -2.3310   -1.2750 F   0  0  0  0  0  0  0  0  0  0  0  0
    1.2580   -1.5140    0.1580 C   0  0  0  0  0  0  0  0  0  0  0  0
    0.1730   -0.6570    0.0990 C   0  0  0  0  0  0  0  0  0  0  0  0
   -1.1340   -1.0560    0.3190 C   0  0  0  0  0  0  0  0  0  0  0  0
  1  2  1  0
  2  3  1  0
  3  4  2  0
  3 17  1  0
  4  5  1  0
  5  6  1  0
  5  8  2  0
  6  7  1  0
  8  9  1  0
  8 16  1  0
  9 10  2  0
 10 11  1  0
 10 12  1  0
 12 13  1  0
 12 15  2  0
 13 14  1  0
 15 16  1  0
 16 17  2  0
M  END
