
     RDKit          3D

 13 12  0  0  0  0  0  0  0  0999 V2000
   -1.7440    0.9210   -0.5460 C   0  0  0  0  0  0  0  0  0  0  0  0
   -0.9570    0.0190   -0.0270 C   0  0  0  0  0  0  0  0  0  0  0  0
   -1.4700   -0.9330    0.9410 C   0  0  0  0  0  0  0  0  0  0  0  0
   -0.7030   -1.8120    1.4470 O   0  0  0  0  0  0  0  0  0  0  0  0
   -2.8060   -0.8610    1.2950 O   0  0  0  0  0  0  0  0  0  0  0  0
    0.4960   -0.0490   -0.4200 C   0  0  1  0  0  0  0  0  0  0  0  0
    1.2310    0.1120    0.7680 O   0  0  0  0  0  0  0  0  0  0  0  0
    2.0820    1.1880    0.9050 C   0  0  0  0  0  0  0  0  0  0  0  0
    2.1680    1.9950   -0.0550 O   0  0  0  0  0  0  0  0  0  0  0  0
    2.8180    1.3690    2.0670 O   0  0  0  0  0  0  0  0  0  0  0  0
    0.7520   -1.3970   -1.0170 C   0  0  0  0  0  0  0  0  0  0  0  0
    1.4020   -2.2530   -0.3990 O   0  0  0  0  0  0  0  0  0  0  0  0
    0.2410   -1.6410   -2.2690 O   0  0  0  0  0  0  0  0  0  0  0  0
  1  2  2  0
  2  3  1  0
  2  6  1  0
  3  4  2  0
  3  5  1  0
  6  7  1  1
  6 11  1  0
  7  8  1  0
  8  9  2  0
  8 10  1  0
 11 12  2  0
 11 13  1  0
M  CHG  3   5  -1  10  -1  13  -1
M  END
