
     RDKit          3D

 17 18  0  0  0  0  0  0  0  0999 V2000
    4.0170    1.6280    0.4180 C   0  0  0  0  0  0  0  0  0  0  0  0
    2.6310    1.5100    0.4340 O   0  0  0  0  0  0  0  0  0  0  0  0
    2.2740    0.2170    0.0710 C   0  0  0  0  0  0  0  0  0  0  0  0
    0.8300    0.0000    0.0600 C   0  0  0  0  0  0  0  0  0  0  0  0
   -0.0090    1.0430    0.3930 C   0  0  0  0  0  0  0  0  0  0  0  0
   -1.3810    0.8710    0.3920 C   0  0  0  0  0  0  0  0  0  0  0  0
   -2.2030    1.9480    0.7340 C   0  0  0  0  0  0  0  0  0  0  0  0
   -3.5670    1.7290    0.7190 C   0  0  0  0  0  0  0  0  0  0  0  0
   -4.1030    0.5050    0.3840 C   0  0  0  0  0  0  0  0  0  0  0  0
   -3.2600   -0.5250    0.0550 C   0  0  0  0  0  0  0  0  0  0  0  0
   -1.8810   -0.3470    0.0570 C   0  0  0  0  0  0  0  0  0  0  0  0
   -1.0290   -1.3980   -0.2790 C   0  0  0  0  0  0  0  0  0  0  0  0
   -1.5810   -2.6220   -0.6140 O   0  0  0  0  0  0  0  0  0  0  0  0
    0.3380   -1.2510   -0.2850 C   0  0  0  0  0  0  0  0  0  0  0  0
    1.2590   -2.3620   -0.6400 C   0  0  2  0  0  0  0  0  0  0  0  0
    0.9880   -2.9020   -1.8910 F   0  0  0  0  0  0  0  0  0  0  0  0
    1.0900   -3.3870    0.2690 F   0  0  0  0  0  0  0  0  0  0  0  0
  1  2  1  0
  2  3  1  0
  3  4  1  0
  4  5  2  0
  4 14  1  0
  5  6  1  0
  6  7  2  0
  6 11  1  0
  7  8  1  0
  8  9  2  0
  9 10  1  0
 10 11  2  0
 11 12  1  0
 12 13  1  0
 12 14  2  0
 14 15  1  0
 15 16  1  6
 15 17  1  0
M  END
