
     RDKit          3D

 16 17  0  0  0  0  0  0  0  0999 V2000
    4.2600   -0.9330   -0.3070 C   0  0  0  0  0  0  0  0  0  0  0  0
    3.7770    0.3860   -0.2860 O   0  0  0  0  0  0  0  0  0  0  0  0
    2.3960    0.6180   -0.2070 C   0  0  0  0  0  0  0  0  0  0  0  0
    1.5280   -0.4750   -0.1500 C   0  0  0  0  0  0  0  0  0  0  0  0
    0.1660   -0.2760   -0.0720 C   0  0  0  0  0  0  0  0  0  0  0  0
   -0.6860   -1.3680   -0.0160 C   0  0  0  0  0  0  0  0  0  0  0  0
   -0.2790   -2.6720   -0.0320 O   0  0  0  0  0  0  0  0  0  0  0  0
   -2.0620   -1.1370    0.0630 C   0  0  0  0  0  0  0  0  0  0  0  0
   -3.0140   -2.2940    0.1250 C   0  0  0  0  0  0  0  0  0  0  0  0
   -2.5280    0.1490    0.0830 C   0  0  0  0  0  0  0  0  0  0  0  0
   -1.6650    1.2190    0.0270 C   0  0  0  0  0  0  0  0  0  0  0  0
   -2.2150    2.5980    0.0510 C   0  0  0  0  0  0  0  0  0  0  0  0
   -0.3080    1.0230   -0.0510 C   0  0  0  0  0  0  0  0  0  0  0  0
    0.5240    2.1270   -0.1060 C   0  0  0  0  0  0  0  0  0  0  0  0
    1.8790    1.8930   -0.1840 C   0  0  0  0  0  0  0  0  0  0  0  0
    2.7140    2.9610   -0.2390 F   0  0  0  0  0  0  0  0  0  0  0  0
  1  2  1  0
  2  3  1  0
  3  4  2  0
  3 15  1  0
  4  5  1  0
  5  6  2  0
  5 13  1  0
  6  7  1  0
  6  8  1  0
  8  9  1  0
  8 10  2  0
 10 11  1  0
 11 12  1  0
 11 13  2  0
 13 14  1  0
 14 15  2  0
 15 16  1  0
M  END
