
     RDKit          3D

 11 11  0  0  0  0  0  0  0  0999 V2000
    3.5750    0.4170   -0.0360 N   0  0  0  0  0  0  0  0  0  0  0  0
    2.3240    0.8570    0.2970 O   0  0  0  0  0  0  0  0  0  0  0  0
    1.5140   -0.2460    0.6020 C   0  0  0  0  0  0  0  0  0  0  0  0
    0.4340   -0.2830   -0.4480 C   0  0  2  0  0  0  0  0  0  0  0  0
    0.7240    0.5400   -1.5550 O   0  0  0  0  0  0  0  0  0  0  0  0
   -0.8930   -0.0350    0.1070 C   0  0  2  0  0  0  0  0  0  0  0  0
   -0.9540   -0.4620    1.4180 O   0  0  0  0  0  0  0  0  0  0  0  0
   -1.9170   -0.8690   -0.6530 C   0  0  0  0  0  0  0  0  0  0  0  0
   -3.2680   -0.5090   -0.0320 C   0  0  0  0  0  0  0  0  0  0  0  0
   -3.0730    1.3140    0.0590 S   0  0  0  0  0  0  0  0  0  0  0  0
   -1.2640    1.4000   -0.0350 C   0  0  0  0  0  0  0  0  0  0  0  0
  1  2  1  0
  2  3  1  0
  3  4  1  0
  4  5  1  6
  4  6  1  0
  6  7  1  1
  6  8  1  0
  6 11  1  0
  8  9  1  0
  9 10  1  0
 10 11  1  0
M  CHG  1   1   1
M  END
