
     RDKit          3D

 11 11  0  0  0  0  0  0  0  0999 V2000
    1.1450   -0.8870    1.2430 N   0  0  0  0  0  0  0  0  0  0  0  0
    0.5380    0.0400    0.3100 C   0  0  1  0  0  0  0  0  0  0  0  0
    1.5170    0.3190   -0.7720 C   0  0  0  0  0  0  0  0  0  0  0  0
    3.0020    1.0510    0.0210 S   0  0  0  0  0  0  0  0  0  0  0  0
    4.1900    1.4070   -1.1560 O   0  0  0  0  0  0  0  0  0  0  0  0
   -0.7890   -0.4750   -0.1710 C   0  0  2  0  0  0  0  0  0  0  0  0
   -0.5540   -1.7050   -0.8050 O   0  0  0  0  0  0  0  0  0  0  0  0
   -1.4870    0.4340   -1.1160 C   0  0  0  0  0  0  0  0  0  0  0  0
   -2.5100    1.1170   -0.2360 C   0  0  0  0  0  0  0  0  0  0  0  0
   -2.9080    0.0890    0.6060 O   0  0  0  0  0  0  0  0  0  0  0  0
   -1.7670   -0.6220    0.9580 C   0  0  0  0  0  0  0  0  0  0  0  0
  2  1  1  1
  2  3  1  0
  2  6  1  0
  3  4  1  0
  4  5  1  0
  6  7  1  6
  6  8  1  0
  6 11  1  0
  8  9  1  0
  9 10  1  0
 10 11  1  0
M  CHG  1   1   1
M  END
