
     RDKit          3D

 11 11  0  0  0  0  0  0  0  0999 V2000
    3.2940    0.7280    0.0380 C   0  0  0  0  0  0  0  0  0  0  0  0
    2.0210   -0.1030    0.9920 S   0  0  0  0  0  0  0  0  0  0  0  0
    0.3700    0.0970    0.3670 C   0  0  2  0  0  0  0  0  0  0  0  0
   -0.5280   -1.1010    0.6690 C   0  0  1  0  0  0  0  0  0  0  0  0
   -0.6940   -1.3380    2.0690 N   0  0  0  0  0  0  0  0  0  0  0  0
   -1.7980   -0.5920   -0.0040 C   0  0  1  0  0  0  0  0  0  0  0  0
   -2.2900    0.4170    0.8370 O   0  0  0  0  0  0  0  0  0  0  0  0
   -1.2600   -0.0250   -1.3010 C   0  0  1  0  0  0  0  0  0  0  0  0
   -1.8150    1.2410   -1.4930 O   0  0  0  0  0  0  0  0  0  0  0  0
    0.2530    0.0650   -1.1380 C   0  0  1  0  0  0  0  0  0  0  0  0
    0.7920    1.1640   -1.7650 O   0  0  0  0  0  0  0  0  0  0  0  0
  1  2  1  0
  3  2  1  6
  3  4  1  0
  3 10  1  0
  4  5  1  1
  4  6  1  0
  6  7  1  1
  6  8  1  0
  8  9  1  1
  8 10  1  0
 10 11  1  6
M  CHG  1   5   1
M  END
