
     RDKit          3D

 18 19  0  0  0  0  0  0  0  0999 V2000
   -4.6320    2.4760    0.2940 C   0  0  0  0  0  0  0  0  0  0  0  0
   -3.3590    1.6750    0.3230 C   0  0  0  0  0  0  0  0  0  0  0  0
   -3.5170    0.3390    0.2860 C   0  0  0  0  0  0  0  0  0  0  0  0
   -4.9200   -0.1550    0.2150 C   0  0  0  0  0  0  0  0  0  0  0  0
   -5.0220   -1.5630   -0.0810 C   0  0  0  0  0  0  0  0  0  0  0  0
   -3.9940   -2.3700   -0.1760 C   0  0  0  0  0  0  0  0  0  0  0  0
   -2.6710   -1.8600    0.0040 C   0  0  0  0  0  0  0  0  0  0  0  0
   -2.3970   -0.5450    0.2470 C   0  0  0  0  0  0  0  0  0  0  0  0
   -1.0250   -0.1770    0.4630 C   0  0  0  0  0  0  0  0  0  0  0  0
   -0.3990    0.8870    0.7360 C   0  0  0  0  0  0  0  0  0  0  0  0
    1.1120    0.9410    0.9000 C   0  0  0  0  0  0  0  0  0  0  0  0
    1.8050   -0.2840    0.7260 N   0  0  1  0  0  0  0  0  0  0  0  0
    1.9220   -0.7160   -0.6290 C   0  0  0  0  0  0  0  0  0  0  0  0
    3.1910   -0.3910   -1.3320 C   0  0  0  0  0  0  0  0  0  0  0  0
    4.4290   -1.0260   -0.8030 C   0  0  0  0  0  0  0  0  0  0  0  0
    5.1240    0.0540    0.0400 C   0  0  0  0  0  0  0  0  0  0  0  0
    4.0600    0.7350    0.9090 C   0  0  0  0  0  0  0  0  0  0  0  0
    3.0870   -0.2570    1.4430 C   0  0  0  0  0  0  0  0  0  0  0  0
  1  2  1  0
  2  3  2  3
  3  4  1  0
  3  8  1  0
  4  5  1  0
  5  6  2  0
  6  7  1  0
  7  8  2  0
  8  9  1  0
  9 10  2  3
 10 11  1  0
 12 11  1  6
 12 13  1  0
 12 18  1  0
 13 14  1  0
 14 15  1  0
 15 16  1  0
 16 17  1  0
 17 18  1  0
M  CHG  1  12   1
M  END
