
     RDKit          3D

 18 19  0  0  0  0  0  0  0  0999 V2000
    3.1520    1.5080   -1.8330 C   0  0  0  0  0  0  0  0  0  0  0  0
    3.1750    1.0680   -0.6030 C   0  0  0  0  0  0  0  0  0  0  0  0
    4.1250    1.5210    0.4840 C   0  0  0  0  0  0  0  0  0  0  0  0
    4.5120    0.1700    1.0360 C   0  0  0  0  0  0  0  0  0  0  0  0
    3.2190   -0.6560    0.9900 C   0  0  0  0  0  0  0  0  0  0  0  0
    2.3240    0.0500    0.0650 C   0  0  0  0  0  0  0  0  0  0  0  0
    1.0270   -0.0910   -0.1840 C   0  0  0  0  0  0  0  0  0  0  0  0
    0.2800    0.7330   -1.1380 C   0  0  0  0  0  0  0  0  0  0  0  0
   -1.1830    0.5530   -0.7550 C   0  0  0  0  0  0  0  0  0  0  0  0
   -2.2010    1.4930   -1.2070 C   0  0  0  0  0  0  0  0  0  0  0  0
   -1.6670    2.8940   -0.7680 C   0  0  0  0  0  0  0  0  0  0  0  0
   -1.3090   -0.5010    0.0150 C   0  0  0  0  0  0  0  0  0  0  0  0
   -2.4760   -1.1000    0.6180 C   0  0  0  0  0  0  0  0  0  0  0  0
   -3.7890   -0.6450    0.4050 N   0  0  0  0  0  0  0  0  0  0  0  0
   -4.2730   -1.0150   -0.9120 C   0  0  0  0  0  0  0  0  0  0  0  0
    0.0520   -0.9970    0.4130 C   0  0  0  0  0  0  0  0  0  0  0  0
    0.3950   -2.0620    1.0830 C   0  0  0  0  0  0  0  0  0  0  0  0
   -0.4540   -3.0660    1.7410 C   0  0  0  0  0  0  0  0  0  0  0  0
  1  2  2  0
  2  3  1  0
  2  6  1  0
  3  4  1  0
  4  5  1  0
  5  6  1  0
  6  7  2  3
  7  8  1  0
  7 16  1  0
  8  9  1  0
  9 10  1  0
  9 12  2  0
 10 11  1  0
 12 13  1  0
 12 16  1  0
 13 14  1  0
 14 15  1  0
 16 17  2  3
 17 18  1  0
M  CHG  1  14   1
M  END
