
     RDKit          3D

 18 19  0  0  0  0  0  0  0  0999 V2000
    0.9270    0.3020    1.3410 C   0  0  0  0  0  0  0  0  0  0  0  0
    1.3090    0.1530   -0.0660 C   0  0  0  0  0  0  0  0  0  0  0  0
    0.3160    0.3760   -1.1440 C   0  0  0  0  0  0  0  0  0  0  0  0
   -0.8830    0.7150   -1.1060 C   0  0  0  0  0  0  0  0  0  0  0  0
   -1.8170    1.0350   -0.0520 C   0  0  0  0  0  0  0  0  0  0  0  0
   -3.0150    0.0970   -0.0020 C   0  0  2  0  0  0  0  0  0  0  0  0
   -2.5340   -1.3200    0.2280 C   0  0  0  0  0  0  0  0  0  0  0  0
   -3.8740    0.1450   -1.2170 C   0  0  0  0  0  0  0  0  0  0  0  0
   -5.0610    1.0210   -0.8770 C   0  0  0  0  0  0  0  0  0  0  0  0
   -4.8490    1.4920    0.5460 C   0  0  0  0  0  0  0  0  0  0  0  0
   -3.9410    0.4620    1.1330 C   0  0  0  0  0  0  0  0  0  0  0  0
    2.5180   -0.1930   -0.4820 C   0  0  0  0  0  0  0  0  0  0  0  0
    3.6900   -0.4910    0.2570 C   0  0  0  0  0  0  0  0  0  0  0  0
    4.8620   -0.8290   -0.3540 C   0  0  0  0  0  0  0  0  0  0  0  0
    5.0890   -0.9350   -1.8240 C   0  0  0  0  0  0  0  0  0  0  0  0
    5.8740   -1.0700    0.6270 C   0  0  0  0  0  0  0  0  0  0  0  0
    5.4110   -0.9070    1.7940 N   0  0  0  0  0  0  0  0  0  0  0  0
    3.9900   -0.5290    1.6800 C   0  0  0  0  0  0  0  0  0  0  0  0
  1  2  1  0
  2  3  1  0
  2 12  2  3
  3  4  2  3
  4  5  1  0
  5  6  1  0
  6  7  1  1
  6  8  1  0
  6 11  1  0
  8  9  1  0
  9 10  1  0
 10 11  1  0
 12 13  1  0
 13 14  2  0
 13 18  1  0
 14 15  1  0
 14 16  1  0
 16 17  2  0
 17 18  1  0
M  CHG  1  17   1
M  END
