
     RDKit          3D

 38 42  0  0  0  0  0  0  0  0999 V2000
   -8.0590   -2.7650   -0.6290 C   0  0  0  0  0  0  0  0  0  0  0  0
   -7.5020   -1.4290   -0.4960 N   0  0  2  0  0  0  0  0  0  0  0  0
   -8.5070   -0.4310   -0.4600 C   0  0  0  0  0  0  0  0  0  0  0  0
   -8.5610    0.5610   -1.5360 C   0  0  0  0  0  0  0  0  0  0  0  0
   -7.4730    0.6240   -2.5310 C   0  0  0  0  0  0  0  0  0  0  0  0
   -6.1910    0.1370   -1.8710 C   0  0  1  0  0  0  0  0  0  0  0  0
   -5.7610    0.9980   -0.7860 C   0  0  0  0  0  0  0  0  0  0  0  0
   -6.5680    1.8420   -0.3210 O   0  0  0  0  0  0  0  0  0  0  0  0
   -4.4700    0.9170   -0.2360 N   0  0  0  0  0  0  0  0  0  0  0  0
   -4.0140    1.7600    0.8950 C   0  0  0  0  0  0  0  0  0  0  0  0
   -3.3370    0.6600    1.7250 C   0  0  0  0  0  0  0  0  0  0  0  0
   -2.5470    0.0010    0.6890 N   0  0  2  0  0  0  0  0  0  0  0  0
   -1.3390    0.7550    0.5340 C   0  0  0  0  0  0  0  0  0  0  0  0
   -0.1080   -0.0930    0.4750 C   0  0  0  0  0  0  0  0  0  0  0  0
    1.0810    0.6490    0.3220 O   0  0  0  0  0  0  0  0  0  0  0  0
    1.3840    1.4780   -0.7330 C   0  0  0  0  0  0  0  0  0  0  0  0
    0.5600    1.6030   -1.6490 O   0  0  0  0  0  0  0  0  0  0  0  0
    2.6600    2.2420   -0.8400 C   0  0  0  0  0  0  0  0  0  0  0  0
    3.5130    1.9870    0.3050 N   0  0  0  0  0  0  0  0  0  0  0  0
    3.5380    2.6550    1.4430 N   0  0  0  0  0  0  0  0  0  0  0  0
    4.4570    2.1380    2.2780 C   0  0  0  0  0  0  0  0  0  0  0  0
    5.0700    1.0580    1.6330 C   0  0  0  0  0  0  0  0  0  0  0  0
    6.0630    0.1750    2.0020 C   0  0  0  0  0  0  0  0  0  0  0  0
    6.4490   -0.8000    1.1120 C   0  0  0  0  0  0  0  0  0  0  0  0
    7.4620   -1.7110    1.4710 O   0  0  0  0  0  0  0  0  0  0  0  0
    8.7620   -1.3720    1.1730 C   0  0  0  0  0  0  0  0  0  0  0  0
    9.4990   -0.6700    2.0920 C   0  0  0  0  0  0  0  0  0  0  0  0
   10.7980   -0.3170    1.8240 C   0  0  0  0  0  0  0  0  0  0  0  0
   11.3870   -0.6620    0.6210 C   0  0  0  0  0  0  0  0  0  0  0  0
   12.6990   -0.3070    0.3460 O   0  0  0  0  0  0  0  0  0  0  0  0
   10.6530   -1.3680   -0.3090 C   0  0  0  0  0  0  0  0  0  0  0  0
   11.4180   -1.8000   -1.8340 Cl  0  0  0  0  0  0  0  0  0  0  0  0
    9.3450   -1.7160   -0.0210 C   0  0  0  0  0  0  0  0  0  0  0  0
    5.8250   -0.8560   -0.1200 C   0  0  0  0  0  0  0  0  0  0  0  0
    4.8320    0.0220   -0.4990 C   0  0  0  0  0  0  0  0  0  0  0  0
    4.4450    1.0050    0.4040 C   0  0  0  0  0  0  0  0  0  0  0  0
   -3.3140    0.1320   -0.5490 C   0  0  0  0  0  0  0  0  0  0  0  0
   -6.4970   -1.2870   -1.5020 C   0  0  0  0  0  0  0  0  0  0  0  0
  2  1  1  6
  2  3  1  0
  2 38  1  0
  3  4  1  0
  4  5  1  0
  5  6  1  0
  6  7  1  1
  6 38  1  0
  7  8  2  0
  7  9  1  0
  9 10  1  0
  9 37  1  0
 10 11  1  0
 11 12  1  0
 12 13  1  6
 12 37  1  0
 13 14  1  0
 14 15  1  0
 15 16  1  0
 16 17  2  0
 16 18  1  0
 18 19  1  0
 19 20  1  0
 19 36  1  0
 20 21  2  0
 21 22  1  0
 22 23  2  0
 22 36  1  0
 23 24  1  0
 24 25  1  0
 24 34  2  0
 25 26  1  0
 26 27  2  0
 26 33  1  0
 27 28  1  0
 28 29  2  0
 29 30  1  0
 29 31  1  0
 31 32  1  0
 31 33  2  0
 34 35  1  0
 35 36  2  0
M  CHG  2   2   1  12   1
M  END
