
     RDKit          3D

 38 42  0  0  0  0  0  0  0  0999 V2000
   -7.3320    1.6210   -0.8810 C   0  0  0  0  0  0  0  0  0  0  0  0
   -6.1720    1.5740    0.0620 C   0  0  0  0  0  0  0  0  0  0  0  0
   -5.7470    2.7000    0.7070 C   0  0  0  0  0  0  0  0  0  0  0  0
   -4.6810    2.6680    1.5800 C   0  0  0  0  0  0  0  0  0  0  0  0
   -4.0430    1.4410    1.7870 C   0  0  0  0  0  0  0  0  0  0  0  0
   -4.4250    0.2830    1.1680 C   0  0  0  0  0  0  0  0  0  0  0  0
   -3.7820   -1.0230    1.4180 C   0  0  0  0  0  0  0  0  0  0  0  0
   -2.6850   -0.8720    2.2720 O   0  0  0  0  0  0  0  0  0  0  0  0
   -1.5270   -0.1670    1.9960 C   0  0  0  0  0  0  0  0  0  0  0  0
   -1.4170    0.3910    0.8780 O   0  0  0  0  0  0  0  0  0  0  0  0
   -0.4460   -0.0910    3.0310 C   0  0  0  0  0  0  0  0  0  0  0  0
    0.6570    0.6580    2.6360 O   0  0  0  0  0  0  0  0  0  0  0  0
    1.4630    0.3800    1.5500 C   0  0  0  0  0  0  0  0  0  0  0  0
    1.1780   -0.6300    0.8650 O   0  0  0  0  0  0  0  0  0  0  0  0
    2.6220    1.1830    1.1510 C   0  0  0  0  0  0  0  0  0  0  0  0
    3.3340    0.7220    0.0180 N   0  0  1  0  0  0  0  0  0  0  0  0
    3.2590    1.5930   -1.1270 C   0  0  0  0  0  0  0  0  0  0  0  0
    4.7170    0.5720    0.3570 C   0  0  0  0  0  0  0  0  0  0  0  0
    5.2250    0.8500    1.5920 N   0  0  0  0  0  0  0  0  0  0  0  0
    6.5220    0.6220    1.6270 N   0  0  0  0  0  0  0  0  0  0  0  0
    6.8570    0.1900    0.3940 C   0  0  0  0  0  0  0  0  0  0  0  0
    5.7470    0.1590   -0.3880 N   0  0  0  0  0  0  0  0  0  0  0  0
    6.1090   -0.2970   -1.6780 C   0  0  0  0  0  0  0  0  0  0  0  0
    5.3440   -0.4510   -2.6560 O   0  0  0  0  0  0  0  0  0  0  0  0
    7.5640   -0.5550   -1.6450 C   0  0  0  0  0  0  0  0  0  0  0  0
    8.4140   -1.0090   -2.6310 C   0  0  0  0  0  0  0  0  0  0  0  0
    9.7500   -1.1540   -2.2940 C   0  0  0  0  0  0  0  0  0  0  0  0
   10.2030   -0.8570   -1.0320 C   0  0  0  0  0  0  0  0  0  0  0  0
    9.3600   -0.4030   -0.0440 C   0  0  0  0  0  0  0  0  0  0  0  0
    8.0180   -0.2570   -0.3790 C   0  0  0  0  0  0  0  0  0  0  0  0
   -5.5150    0.3920    0.2970 C   0  0  0  0  0  0  0  0  0  0  0  0
   -5.9290   -0.8450   -0.3710 C   0  0  0  0  0  0  0  0  0  0  0  0
   -5.5570   -1.0970   -1.6740 C   0  0  0  0  0  0  0  0  0  0  0  0
   -5.9650   -2.2700   -2.2650 C   0  0  0  0  0  0  0  0  0  0  0  0
   -6.7220   -3.1660   -1.5750 N   0  0  0  0  0  0  0  0  0  0  0  0
   -7.0940   -2.9440   -0.3120 C   0  0  0  0  0  0  0  0  0  0  0  0
   -8.0680   -4.0900    0.5880 Cl  0  0  0  0  0  0  0  0  0  0  0  0
   -6.6930   -1.7700    0.2980 C   0  0  0  0  0  0  0  0  0  0  0  0
  1  2  1  0
  2  3  2  0
  2 31  1  0
  3  4  1  0
  4  5  2  0
  5  6  1  0
  6  7  1  0
  6 31  2  0
  7  8  1  0
  8  9  1  0
  9 10  2  0
  9 11  1  0
 11 12  1  0
 12 13  1  0
 13 14  2  0
 13 15  1  0
 15 16  1  0
 16 17  1  6
 16 18  1  0
 18 19  2  0
 18 22  1  0
 19 20  1  0
 20 21  2  0
 21 22  1  0
 21 30  1  0
 22 23  1  0
 23 24  2  0
 23 25  1  0
 25 26  2  0
 25 30  1  0
 26 27  1  0
 27 28  2  0
 28 29  1  0
 29 30  2  0
 31 32  1  0
 32 33  2  0
 32 38  1  0
 33 34  1  0
 34 35  2  0
 35 36  1  0
 36 37  1  0
 36 38  2  0
M  CHG  2  16   1  35   1
M  END
