
     RDKit          3D

 38 42  0  0  0  0  0  0  0  0999 V2000
   -6.0020    4.6560    1.7330 C   0  0  0  0  0  0  0  0  0  0  0  0
   -6.0090    3.1340    1.7960 C   0  0  0  0  0  0  0  0  0  0  0  0
   -5.1400    2.6110    0.7100 C   0  0  0  0  0  0  0  0  0  0  0  0
   -4.9950    1.2690    0.5770 N   0  0  0  0  0  0  0  0  0  0  0  0
   -4.2200    0.7880   -0.3910 C   0  0  0  0  0  0  0  0  0  0  0  0
   -3.5730    1.6710   -1.2500 C   0  0  0  0  0  0  0  0  0  0  0  0
   -3.7420    3.0420   -1.0880 C   0  0  0  0  0  0  0  0  0  0  0  0
   -3.1560    3.8400   -1.8650 O   0  0  0  0  0  0  0  0  0  0  0  0
   -4.5150    3.4470   -0.1180 O   0  0  0  0  0  0  0  0  0  0  0  0
   -2.7380    1.0800   -2.2950 C   0  0  0  0  0  0  0  0  0  0  0  0
   -2.0630   -0.1990   -1.9560 C   0  0  0  0  0  0  0  0  0  0  0  0
   -2.4960   -0.7770   -0.7280 N   0  0  2  0  0  0  0  0  0  0  0  0
   -2.2000   -2.1670   -0.6000 C   0  0  0  0  0  0  0  0  0  0  0  0
   -0.8510   -2.4600   -0.1160 C   0  0  0  0  0  0  0  0  0  0  0  0
    0.1120   -1.5870    0.2140 N   0  0  0  0  0  0  0  0  0  0  0  0
    1.2170   -2.2340    0.6160 C   0  0  0  0  0  0  0  0  0  0  0  0
    2.5160   -1.6650    1.0710 C   0  0  2  0  0  0  0  0  0  0  0  0
    2.3040   -0.8550    2.3560 C   0  0  0  0  0  0  0  0  0  0  0  0
    3.6750   -0.7690    3.0230 C   0  0  0  0  0  0  0  0  0  0  0  0
    4.7560   -0.7940    1.9370 C   0  0  0  0  0  0  0  0  0  0  0  0
    4.3000   -0.1370    0.7290 N   0  0  0  0  0  0  0  0  0  0  0  0
    4.9600    0.9960    0.2240 C   0  0  0  0  0  0  0  0  0  0  0  0
    5.9650    1.4380    0.8370 O   0  0  0  0  0  0  0  0  0  0  0  0
    4.5310    1.6860   -0.9860 C   0  0  0  0  0  0  0  0  0  0  0  0
    3.5050    1.3520   -1.7340 O   0  0  0  0  0  0  0  0  0  0  0  0
    3.3850    2.1860   -2.7660 C   0  0  0  0  0  0  0  0  0  0  0  0
    4.3890    3.1160   -2.6830 C   0  0  0  0  0  0  0  0  0  0  0  0
    5.1110    2.7990   -1.5600 C   0  0  0  0  0  0  0  0  0  0  0  0
    6.3100    3.4870   -1.0050 C   0  0  0  0  0  0  0  0  0  0  0  0
    3.1240   -0.7180    0.0730 C   0  0  0  0  0  0  0  0  0  0  0  0
    0.9130   -3.5360    0.5260 N   0  0  0  0  0  0  0  0  0  0  0  0
   -0.3370   -3.7500    0.0840 C   0  0  0  0  0  0  0  0  0  0  0  0
   -1.0600   -4.9910   -0.1560 C   0  0  0  0  0  0  0  0  0  0  0  0
   -0.6240   -6.1890    0.0130 C   0  0  0  0  0  0  0  0  0  0  0  0
    0.6480   -6.6160    0.4700 C   0  0  0  0  0  0  0  0  0  0  0  0
    1.6110   -5.8840    0.8030 O   0  0  0  0  0  0  0  0  0  0  0  0
    1.0250   -8.3550    0.6250 Cl  0  0  0  0  0  0  0  0  0  0  0  0
   -3.9600   -0.6480   -0.6570 C   0  0  0  0  0  0  0  0  0  0  0  0
  1  2  1  0
  2  3  1  0
  3  4  2  0
  3  9  1  0
  4  5  1  0
  5  6  2  0
  5 38  1  0
  6  7  1  0
  6 10  1  0
  7  8  2  0
  7  9  1  0
 10 11  1  0
 11 12  1  0
 12 13  1  6
 12 38  1  0
 13 14  1  0
 14 15  1  0
 14 32  2  0
 15 16  1  0
 17 16  1  6
 16 31  2  0
 17 18  1  0
 17 30  1  0
 18 19  1  0
 19 20  1  0
 20 21  1  0
 21 22  1  0
 21 30  1  0
 22 23  2  0
 22 24  1  0
 24 25  1  0
 24 28  2  0
 25 26  1  0
 26 27  2  0
 27 28  1  0
 28 29  1  0
 31 32  1  0
 32 33  1  0
 33 34  2  3
 34 35  1  0
 35 36  2  0
 35 37  1  0
M  CHG  2   4   1  12   1
M  END
