
     RDKit          3D

 38 42  0  0  0  0  0  0  0  0999 V2000
    7.0250   -1.8570   -2.6280 C   0  0  0  0  0  0  0  0  0  0  0  0
    7.3600   -2.1390   -1.3210 O   0  0  0  0  0  0  0  0  0  0  0  0
    6.4180   -1.6290   -0.4250 C   0  0  2  0  0  0  0  0  0  0  0  0
    7.0200   -0.5990    0.4930 C   0  0  0  0  0  0  0  0  0  0  0  0
    5.7560   -2.7350    0.3620 C   0  0  0  0  0  0  0  0  0  0  0  0
    4.8030   -2.2400    1.2690 O   0  0  0  0  0  0  0  0  0  0  0  0
    3.6900   -1.5310    0.9150 C   0  0  0  0  0  0  0  0  0  0  0  0
    3.4720   -1.2820   -0.2950 O   0  0  0  0  0  0  0  0  0  0  0  0
    2.7580   -1.0650    1.9600 C   0  0  0  0  0  0  0  0  0  0  0  0
    1.6400   -0.3200    1.4050 N   0  0  0  0  0  0  0  0  0  0  0  0
    0.5560   -0.9550    1.0420 C   0  0  0  0  0  0  0  0  0  0  0  0
    0.4480   -2.2000    1.1520 O   0  0  0  0  0  0  0  0  0  0  0  0
   -0.5680   -0.2330    0.4960 C   0  0  0  0  0  0  0  0  0  0  0  0
   -1.6820   -1.0880    0.1390 C   0  0  0  0  0  0  0  0  0  0  0  0
   -2.9090   -0.7880   -0.3880 N   0  0  2  0  0  0  0  0  0  0  0  0
   -3.8930   -0.4700    0.6470 C   0  0  0  0  0  0  0  0  0  0  0  0
   -5.0860    0.0760   -0.0760 C   0  0  0  0  0  0  0  0  0  0  0  0
   -5.5660   -0.8310   -1.0980 N   0  0  0  0  0  0  0  0  0  0  0  0
   -6.9240   -1.2080   -0.6640 C   0  0  0  0  0  0  0  0  0  0  0  0
   -6.6500   -2.2180    0.3710 N   0  0  0  0  0  0  0  0  0  0  0  0
   -5.5850   -3.0220   -0.1460 C   0  0  0  0  0  0  0  0  0  0  0  0
   -4.8930   -2.0840   -1.1190 C   0  0  1  0  0  0  0  0  0  0  0  0
   -5.1960   -2.6870   -2.5110 C   0  0  0  0  0  0  0  0  0  0  0  0
   -3.4250   -2.0880   -0.9880 C   0  0  0  0  0  0  0  0  0  0  0  0
   -0.4010    1.1170    0.3970 C   0  0  0  0  0  0  0  0  0  0  0  0
   -1.4380    1.8580   -0.1180 C   0  0  0  0  0  0  0  0  0  0  0  0
   -1.2840    3.2180   -0.2240 C   0  0  0  0  0  0  0  0  0  0  0  0
   -0.1480    3.8690    0.1590 C   0  0  0  0  0  0  0  0  0  0  0  0
   -0.0430    5.2390    0.0320 C   0  0  0  0  0  0  0  0  0  0  0  0
    1.1150    5.8650    0.4270 C   0  0  0  0  0  0  0  0  0  0  0  0
    1.2820    7.5930    0.2800 Cl  0  0  0  0  0  0  0  0  0  0  0  0
    2.1540    5.1240    0.9430 C   0  0  0  0  0  0  0  0  0  0  0  0
    3.4260    5.7410    1.3880 C   0  0  0  0  0  0  0  0  0  0  0  0
    2.0540    3.7360    1.0740 C   0  0  0  0  0  0  0  0  0  0  0  0
    0.9070    3.0940    0.6850 C   0  0  0  0  0  0  0  0  0  0  0  0
    0.7630    1.7460    0.7940 N   0  0  0  0  0  0  0  0  0  0  0  0
    1.7700    1.0270    1.2920 C   0  0  0  0  0  0  0  0  0  0  0  0
    2.8580    1.4740    1.6800 O   0  0  0  0  0  0  0  0  0  0  0  0
  1  2  1  0
  2  3  1  0
  3  4  1  1
  3  5  1  0
  5  6  1  0
  6  7  1  0
  7  8  2  0
  7  9  1  0
  9 10  1  0
 10 11  1  0
 10 37  1  0
 11 12  2  0
 11 13  1  0
 13 14  1  0
 13 25  2  0
 15 14  1  1
 15 16  1  0
 15 24  1  0
 16 17  1  0
 17 18  1  0
 18 19  1  0
 18 22  1  0
 19 20  1  0
 20 21  1  0
 21 22  1  0
 22 23  1  6
 22 24  1  0
 25 26  1  0
 25 36  1  0
 26 27  2  0
 27 28  1  0
 28 29  2  0
 28 35  1  0
 29 30  1  0
 30 31  1  0
 30 32  2  0
 32 33  1  0
 32 34  1  0
 34 35  2  0
 35 36  1  0
 36 37  1  0
 37 38  2  0
M  CHG  2  15   1  20   1
M  END
