
     RDKit          3D

 37 42  0  0  0  0  0  0  0  0999 V2000
    8.5570    0.6160    3.1320 C   0  0  0  0  0  0  0  0  0  0  0  0
    7.7630    1.6680    2.5350 N   0  0  0  0  0  0  0  0  0  0  0  0
    7.1580    1.1570    1.3340 C   0  0  0  0  0  0  0  0  0  0  0  0
    5.7780    1.7850    1.1020 C   0  0  0  0  0  0  0  0  0  0  0  0
    5.2570    1.1870   -0.1550 C   0  0  0  0  0  0  0  0  0  0  0  0
    5.5280    1.8000   -1.3600 C   0  0  0  0  0  0  0  0  0  0  0  0
    5.0340    1.2300   -2.5250 C   0  0  0  0  0  0  0  0  0  0  0  0
    4.2800    0.0620   -2.4930 C   0  0  0  0  0  0  0  0  0  0  0  0
    3.9970   -0.5650   -1.3030 C   0  0  0  0  0  0  0  0  0  0  0  0
    3.2510   -1.7250   -1.2080 O   0  0  0  0  0  0  0  0  0  0  0  0
    1.8980   -1.6540   -0.8610 C   0  0  0  0  0  0  0  0  0  0  0  0
    1.4940   -2.3070    0.3170 C   0  0  0  0  0  0  0  0  0  0  0  0
    0.1740   -2.2650    0.7010 C   0  0  0  0  0  0  0  0  0  0  0  0
   -0.7660   -1.5940   -0.0460 C   0  0  0  0  0  0  0  0  0  0  0  0
   -0.3960   -0.9370   -1.2190 C   0  0  0  0  0  0  0  0  0  0  0  0
    0.9440   -0.9960   -1.5850 C   0  0  0  0  0  0  0  0  0  0  0  0
    1.3130   -0.3430   -2.7560 O   0  0  0  0  0  0  0  0  0  0  0  0
    1.2200   -1.0740   -3.9690 C   0  0  0  0  0  0  0  0  0  0  0  0
    2.0000   -2.2050   -3.9890 O   0  0  0  0  0  0  0  0  0  0  0  0
   -1.3440   -0.2470   -1.9940 O   0  0  0  0  0  0  0  0  0  0  0  0
   -2.7010   -0.2090   -1.5920 C   0  0  0  0  0  0  0  0  0  0  0  0
   -3.7880    0.2930   -2.0070 N   0  0  0  0  0  0  0  0  0  0  0  0
   -4.8810    0.0010   -1.1560 N   0  0  0  0  0  0  0  0  0  0  0  0
   -6.1660    0.6000   -1.5740 C   0  0  0  0  0  0  0  0  0  0  0  0
   -6.3610    1.9240   -0.9080 C   0  0  0  0  0  0  0  0  0  0  0  0
   -6.6580    1.8300    0.5000 N   0  0  1  0  0  0  0  0  0  0  0  0
   -7.5570    0.7500    0.8260 C   0  0  0  0  0  0  0  0  0  0  0  0
   -5.4640    1.8640    1.2810 C   0  0  0  0  0  0  0  0  0  0  0  0
   -5.1710    0.5900    2.0360 C   0  0  0  0  0  0  0  0  0  0  0  0
   -4.5140   -0.3960    1.2530 N   0  0  0  0  0  0  0  0  0  0  0  0
   -3.7120   -1.1720    2.1780 C   0  0  0  0  0  0  0  0  0  0  0  0
   -3.8490   -1.0410    3.3900 O   0  0  0  0  0  0  0  0  0  0  0  0
   -2.6940   -2.1530    1.6260 C   0  0  0  0  0  0  0  0  0  0  0  0
   -2.1310   -1.5740    0.3800 C   0  0  0  0  0  0  0  0  0  0  0  0
   -2.9750   -0.9150   -0.3890 C   0  0  0  0  0  0  0  0  0  0  0  0
   -4.4260   -0.8100   -0.0990 C   0  0  2  0  0  0  0  0  0  0  0  0
    4.5110    0.0370   -0.1440 C   0  0  0  0  0  0  0  0  0  0  0  0
  1  2  1  0
  2  3  1  0
  3  4  1  0
  4  5  1  0
  5  6  2  0
  5 37  1  0
  6  7  1  0
  7  8  2  0
  8  9  1  0
  9 10  1  0
  9 37  2  0
 10 11  1  0
 11 12  2  0
 11 16  1  0
 12 13  1  0
 13 14  2  0
 14 15  1  0
 14 34  1  0
 15 16  2  0
 15 20  1  0
 16 17  1  0
 17 18  1  0
 18 19  1  0
 20 21  1  0
 21 22  2  0
 21 35  1  0
 22 23  1  0
 23 24  1  0
 36 23  1  6
 24 25  1  0
 25 26  1  0
 26 27  1  6
 26 28  1  0
 28 29  1  0
 29 30  1  0
 30 31  1  0
 30 36  1  0
 31 32  2  0
 31 33  1  0
 33 34  1  0
 34 35  2  0
 35 36  1  0
M  CHG  2   2   1  26   1
M  END
