
     RDKit          3D

 38 42  0  0  0  0  0  0  0  0999 V2000
   10.2290    0.3610   -0.8550 C   0  0  0  0  0  0  0  0  0  0  0  0
    8.9130    0.7050   -0.3100 N   0  0  2  0  0  0  0  0  0  0  0  0
    9.0710    1.0310    1.0730 C   0  0  0  0  0  0  0  0  0  0  0  0
    7.7610    1.0000    1.8020 C   0  0  0  0  0  0  0  0  0  0  0  0
    6.6280    1.0060    0.7660 C   0  0  0  0  0  0  0  0  0  0  0  0
    6.6910   -0.3130    0.0670 C   0  0  1  0  0  0  0  0  0  0  0  0
    5.6510   -0.5610   -0.9320 C   0  0  0  0  0  0  0  0  0  0  0  0
    6.0230   -0.5640   -2.1610 O   0  0  0  0  0  0  0  0  0  0  0  0
    4.3000   -0.7920   -0.6980 N   0  0  0  0  0  0  0  0  0  0  0  0
    3.5900   -0.8690    0.5800 C   0  0  0  0  0  0  0  0  0  0  0  0
    2.3640   -0.0310    0.1910 C   0  0  0  0  0  0  0  0  0  0  0  0
    2.0090   -0.5780   -1.0840 N   0  0  2  0  0  0  0  0  0  0  0  0
    1.0990   -1.6920   -1.0210 C   0  0  0  0  0  0  0  0  0  0  0  0
    0.1730   -1.6100    0.1880 C   0  0  0  0  0  0  0  0  0  0  0  0
   -0.5360   -0.4160    0.0680 O   0  0  0  0  0  0  0  0  0  0  0  0
   -1.4630    0.0800    0.9490 C   0  0  0  0  0  0  0  0  0  0  0  0
   -1.7340   -0.5720    1.9860 O   0  0  0  0  0  0  0  0  0  0  0  0
   -2.1240    1.3680    0.6640 C   0  0  0  0  0  0  0  0  0  0  0  0
   -3.4040    1.0840    0.0340 N   0  0  0  0  0  0  0  0  0  0  0  0
   -3.6640    0.9470   -1.2460 N   0  0  0  0  0  0  0  0  0  0  0  0
   -4.9660    0.6870   -1.4440 C   0  0  0  0  0  0  0  0  0  0  0  0
   -5.5430    0.6620   -0.2070 C   0  0  0  0  0  0  0  0  0  0  0  0
   -6.8340    0.4490    0.2390 C   0  0  0  0  0  0  0  0  0  0  0  0
   -7.1310    0.4850    1.5920 C   0  0  0  0  0  0  0  0  0  0  0  0
   -8.4540    0.2630    2.0180 O   0  0  0  0  0  0  0  0  0  0  0  0
   -9.4380    0.0230    1.0990 C   0  0  0  0  0  0  0  0  0  0  0  0
   -9.6920   -1.2560    0.6800 C   0  0  0  0  0  0  0  0  0  0  0  0
  -10.6880   -1.5290   -0.2530 C   0  0  0  0  0  0  0  0  0  0  0  0
  -11.4180   -0.4770   -0.7480 C   0  0  0  0  0  0  0  0  0  0  0  0
  -12.4210   -0.7520   -1.6870 O   0  0  0  0  0  0  0  0  0  0  0  0
  -11.1840    0.8240   -0.3440 C   0  0  0  0  0  0  0  0  0  0  0  0
  -12.1340    2.1390   -0.9960 Cl  0  0  0  0  0  0  0  0  0  0  0  0
  -10.1790    1.0540    0.5910 C   0  0  0  0  0  0  0  0  0  0  0  0
   -6.1480    0.7350    2.5160 C   0  0  0  0  0  0  0  0  0  0  0  0
   -4.8640    0.9470    2.0600 C   0  0  0  0  0  0  0  0  0  0  0  0
   -4.5650    0.9110    0.7140 C   0  0  0  0  0  0  0  0  0  0  0  0
    3.2390   -1.0070   -1.6890 C   0  0  0  0  0  0  0  0  0  0  0  0
    8.0710   -0.4410   -0.5490 C   0  0  0  0  0  0  0  0  0  0  0  0
  2  1  1  1
  2  3  1  0
  2 38  1  0
  3  4  1  0
  4  5  1  0
  5  6  1  0
  6  7  1  6
  6 38  1  0
  7  8  2  0
  7  9  1  0
  9 10  1  0
  9 37  1  0
 10 11  1  0
 11 12  1  0
 12 13  1  1
 12 37  1  0
 13 14  1  0
 14 15  1  0
 15 16  1  0
 16 17  2  0
 16 18  1  0
 18 19  1  0
 19 20  1  0
 19 36  1  0
 20 21  2  0
 21 22  1  0
 22 23  2  0
 22 36  1  0
 23 24  1  0
 24 25  1  0
 24 34  2  0
 25 26  1  0
 26 27  2  0
 26 33  1  0
 27 28  1  0
 28 29  2  0
 29 30  1  0
 29 31  1  0
 31 32  1  0
 31 33  2  0
 34 35  1  0
 35 36  2  0
M  CHG  2   2   1  12   1
M  END
