
     RDKit          3D

 38 42  0  0  0  0  0  0  0  0999 V2000
    8.2600    2.9150   -0.8500 C   0  0  0  0  0  0  0  0  0  0  0  0
    7.0680    2.1800   -0.7290 O   0  0  0  0  0  0  0  0  0  0  0  0
    7.0700    0.8810   -0.2220 C   0  0  0  0  0  0  0  0  0  0  0  0
    8.2480    0.3220    0.1590 C   0  0  0  0  0  0  0  0  0  0  0  0
    8.2840   -0.9580    0.6630 C   0  0  0  0  0  0  0  0  0  0  0  0
    7.1330   -1.6910    0.7900 C   0  0  0  0  0  0  0  0  0  0  0  0
    5.9310   -1.1010    0.3930 C   0  0  0  0  0  0  0  0  0  0  0  0
    5.8630    0.1640   -0.1090 C   0  0  0  0  0  0  0  0  0  0  0  0
    4.7020    0.8430   -0.5340 N   0  0  0  0  0  0  0  0  0  0  0  0
    3.4020    0.2780   -0.4820 C   0  0  0  0  0  0  0  0  0  0  0  0
    3.1930   -0.8570   -0.0580 O   0  0  0  0  0  0  0  0  0  0  0  0
    2.2280    1.0650   -0.9520 C   0  0  0  0  0  0  0  0  0  0  0  0
    1.0090    0.4110   -0.8820 O   0  0  0  0  0  0  0  0  0  0  0  0
    0.4230   -0.1130    0.2380 C   0  0  0  0  0  0  0  0  0  0  0  0
    1.0800   -0.0090    1.3400 O   0  0  0  0  0  0  0  0  0  0  0  0
   -0.8590   -0.7680    0.3360 C   0  0  0  0  0  0  0  0  0  0  0  0
   -0.8180   -2.1740    0.2430 C   0  0  0  0  0  0  0  0  0  0  0  0
    0.4780   -2.8500    0.0450 C   0  0  0  0  0  0  0  0  0  0  0  0
    1.0190   -2.7340   -1.6490 Cl  0  0  0  0  0  0  0  0  0  0  0  0
   -1.9750   -2.8290    0.3220 N   0  0  0  0  0  0  0  0  0  0  0  0
   -3.1390   -2.2070    0.4820 C   0  0  0  0  0  0  0  0  0  0  0  0
   -4.3340   -2.9610    0.5600 N   0  0  0  0  0  0  0  0  0  0  0  0
   -5.6960   -2.4550    0.7410 C   0  0  0  0  0  0  0  0  0  0  0  0
   -6.5740   -3.4540    0.0650 C   0  0  0  0  0  0  0  0  0  0  0  0
   -5.6670   -4.5430   -0.4730 C   0  0  0  0  0  0  0  0  0  0  0  0
   -4.4730   -4.3990    0.4790 C   0  0  0  0  0  0  0  0  0  0  0  0
   -3.1610   -0.8660    0.5680 N   0  0  0  0  0  0  0  0  0  0  0  0
   -2.0170   -0.0970    0.4950 C   0  0  0  0  0  0  0  0  0  0  0  0
   -2.1800    1.3390    0.4680 C   0  0  0  0  0  0  0  0  0  0  0  0
   -1.1970    2.2540    0.7110 C   0  0  0  0  0  0  0  0  0  0  0  0
   -1.4870    3.6180    0.5830 C   0  0  0  0  0  0  0  0  0  0  0  0
   -2.7390    4.0620    0.2190 C   0  0  0  0  0  0  0  0  0  0  0  0
   -3.7550    3.1680   -0.0330 C   0  0  0  0  0  0  0  0  0  0  0  0
   -3.4600    1.8340    0.0940 C   0  0  0  0  0  0  0  0  0  0  0  0
   -4.9860    3.8820   -0.3980 C   0  0  0  0  0  0  0  0  0  0  0  0
   -6.0370    3.3970   -0.8870 O   0  0  0  0  0  0  0  0  0  0  0  0
   -4.7320    5.3070   -0.0650 C   0  0  0  0  0  0  0  0  0  0  0  0
   -3.2890    5.3620    0.0190 N   0  0  0  0  0  0  0  0  0  0  0  0
  1  2  1  0
  2  3  1  0
  3  4  2  0
  3  8  1  0
  4  5  1  0
  5  6  2  0
  6  7  1  0
  7  8  2  0
  8  9  1  0
  9 10  1  0
 10 11  2  0
 10 12  1  0
 12 13  1  0
 13 14  1  0
 14 15  2  0
 14 16  1  0
 16 17  2  0
 16 28  1  0
 17 18  1  0
 17 20  1  0
 18 19  1  0
 20 21  2  0
 21 22  1  0
 21 27  1  0
 22 23  1  0
 22 26  1  0
 23 24  1  0
 24 25  1  0
 25 26  1  0
 27 28  2  0
 28 29  1  0
 29 30  2  0
 29 34  1  0
 30 31  1  0
 31 32  2  0
 32 33  1  0
 32 38  1  0
 33 34  2  0
 33 35  1  0
 35 36  2  0
 35 37  1  0
 37 38  1  0
M  CHG  2  20   1  27   1
M  END
