
     RDKit          3D

 37 42  0  0  0  0  0  0  0  0999 V2000
    8.5570   -0.2290   -0.6070 C   0  0  0  0  0  0  0  0  0  0  0  0
    8.8560   -0.0110    0.7810 N   0  0  0  0  0  0  0  0  0  0  0  0
    7.9100   -0.5560    1.7000 C   0  0  0  0  0  0  0  0  0  0  0  0
    6.8110    0.3960    2.0860 C   0  0  0  0  0  0  0  0  0  0  0  0
    6.0720    0.7760    0.8570 C   0  0  0  0  0  0  0  0  0  0  0  0
    6.3960    1.8720    0.0830 C   0  0  0  0  0  0  0  0  0  0  0  0
    5.6340    2.1330   -1.0530 C   0  0  0  0  0  0  0  0  0  0  0  0
    4.5680    1.3130   -1.4080 C   0  0  0  0  0  0  0  0  0  0  0  0
    4.2570    0.2210   -0.6230 C   0  0  0  0  0  0  0  0  0  0  0  0
    3.1930   -0.5960   -0.9800 O   0  0  0  0  0  0  0  0  0  0  0  0
    1.9070   -0.3480   -0.5150 C   0  0  0  0  0  0  0  0  0  0  0  0
    1.6170    0.7130    0.3170 C   0  0  0  0  0  0  0  0  0  0  0  0
    0.2960    0.8860    0.7350 C   0  0  0  0  0  0  0  0  0  0  0  0
   -0.6880    0.0150    0.3230 C   0  0  0  0  0  0  0  0  0  0  0  0
   -0.4040   -1.0660   -0.5220 C   0  0  0  0  0  0  0  0  0  0  0  0
    0.9080   -1.2100   -0.9170 C   0  0  0  0  0  0  0  0  0  0  0  0
    1.2020   -2.2760   -1.7540 O   0  0  0  0  0  0  0  0  0  0  0  0
    1.1200   -2.0660   -3.1510 C   0  0  0  0  0  0  0  0  0  0  0  0
    1.9870   -1.0670   -3.5920 O   0  0  0  0  0  0  0  0  0  0  0  0
   -1.4220   -1.9410   -0.9300 O   0  0  0  0  0  0  0  0  0  0  0  0
   -2.7520   -1.7640   -0.5050 C   0  0  0  0  0  0  0  0  0  0  0  0
   -3.8890   -2.3260   -0.6690 N   0  0  0  0  0  0  0  0  0  0  0  0
   -4.9160   -1.6470    0.0350 N   0  0  0  0  0  0  0  0  0  0  0  0
   -6.2690   -2.1430   -0.1340 C   0  0  0  0  0  0  0  0  0  0  0  0
   -7.2830   -1.2690    0.5180 C   0  0  0  0  0  0  0  0  0  0  0  0
   -7.7030   -0.1120   -0.1730 N   0  0  1  0  0  0  0  0  0  0  0  0
   -8.3690    0.7870    0.7850 C   0  0  0  0  0  0  0  0  0  0  0  0
   -6.7390    0.6260   -0.9070 C   0  0  0  0  0  0  0  0  0  0  0  0
   -5.8350    1.5080   -0.0500 C   0  0  0  0  0  0  0  0  0  0  0  0
   -4.7800    0.7660    0.5400 N   0  0  0  0  0  0  0  0  0  0  0  0
   -3.8690    1.7830    1.0480 C   0  0  0  0  0  0  0  0  0  0  0  0
   -4.1660    2.9800    1.0360 O   0  0  0  0  0  0  0  0  0  0  0  0
   -2.5200    1.3630    1.6070 C   0  0  0  0  0  0  0  0  0  0  0  0
   -2.0440    0.2200    0.7830 C   0  0  0  0  0  0  0  0  0  0  0  0
   -2.9430   -0.6350    0.3700 C   0  0  0  0  0  0  0  0  0  0  0  0
   -4.3690   -0.5710    0.7710 C   0  0  2  0  0  0  0  0  0  0  0  0
    4.9990   -0.0500    0.5000 C   0  0  0  0  0  0  0  0  0  0  0  0
  1  2  1  0
  2  3  1  0
  3  4  1  0
  4  5  1  0
  5  6  2  0
  5 37  1  0
  6  7  1  0
  7  8  2  0
  8  9  1  0
  9 10  1  0
  9 37  2  0
 10 11  1  0
 11 12  2  0
 11 16  1  0
 12 13  1  0
 13 14  2  0
 14 15  1  0
 14 34  1  0
 15 16  2  0
 15 20  1  0
 16 17  1  0
 17 18  1  0
 18 19  1  0
 20 21  1  0
 21 22  2  0
 21 35  1  0
 22 23  1  0
 23 24  1  0
 36 23  1  6
 24 25  1  0
 25 26  1  0
 26 27  1  1
 26 28  1  0
 28 29  1  0
 29 30  1  0
 30 31  1  0
 30 36  1  0
 31 32  2  0
 31 33  1  0
 33 34  1  0
 34 35  2  0
 35 36  1  0
M  CHG  2   2   1  26   1
M  END
