
     RDKit          3D

 38 42  0  0  0  0  0  0  0  0999 V2000
   -6.3570   -2.8740    0.8110 C   0  0  0  0  0  0  0  0  0  0  0  0
   -5.0340   -2.2160    0.9120 C   0  0  0  0  0  0  0  0  0  0  0  0
   -3.9730   -2.8480    1.5370 C   0  0  0  0  0  0  0  0  0  0  0  0
   -2.7520   -2.2120    1.6210 C   0  0  0  0  0  0  0  0  0  0  0  0
   -2.5310   -0.9320    1.0940 C   0  0  0  0  0  0  0  0  0  0  0  0
   -3.5960   -0.3180    0.4770 C   0  0  0  0  0  0  0  0  0  0  0  0
   -3.4950    1.0160   -0.1290 C   0  0  0  0  0  0  0  0  0  0  0  0
   -2.1520    1.4960    0.0770 O   0  0  0  0  0  0  0  0  0  0  0  0
   -1.7830    2.7310   -0.3920 C   0  0  0  0  0  0  0  0  0  0  0  0
   -2.6940    3.3850   -1.0080 O   0  0  0  0  0  0  0  0  0  0  0  0
   -0.4420    3.2760   -0.2050 C   0  0  0  0  0  0  0  0  0  0  0  0
    0.4890    2.4840    0.4350 O   0  0  0  0  0  0  0  0  0  0  0  0
    0.9370    1.2640    0.0150 C   0  0  0  0  0  0  0  0  0  0  0  0
    0.4730    0.7810   -1.0420 O   0  0  0  0  0  0  0  0  0  0  0  0
    1.9460    0.5400    0.7870 C   0  0  0  0  0  0  0  0  0  0  0  0
    2.9380   -0.1980    0.0760 N   0  0  1  0  0  0  0  0  0  0  0  0
    2.7990    0.0250   -1.3740 C   0  0  0  0  0  0  0  0  0  0  0  0
    4.2120    0.3290    0.4920 C   0  0  0  0  0  0  0  0  0  0  0  0
    4.4210    1.3790    1.3140 N   0  0  0  0  0  0  0  0  0  0  0  0
    5.7120    1.5680    1.4760 N   0  0  0  0  0  0  0  0  0  0  0  0
    6.3750    0.6320    0.7550 C   0  0  0  0  0  0  0  0  0  0  0  0
    5.4190   -0.1350    0.1470 N   0  0  0  0  0  0  0  0  0  0  0  0
    6.0970   -1.1330   -0.6110 C   0  0  0  0  0  0  0  0  0  0  0  0
    5.5730   -2.0560   -1.3260 O   0  0  0  0  0  0  0  0  0  0  0  0
    7.5360   -0.9190   -0.4240 C   0  0  0  0  0  0  0  0  0  0  0  0
    8.6240   -1.6010   -0.9380 C   0  0  0  0  0  0  0  0  0  0  0  0
    9.9030   -1.1920   -0.6060 C   0  0  0  0  0  0  0  0  0  0  0  0
   10.1060   -0.1090    0.2320 C   0  0  0  0  0  0  0  0  0  0  0  0
    9.0000    0.5460    0.7240 C   0  0  0  0  0  0  0  0  0  0  0  0
    7.6980    0.1560    0.4070 C   0  0  0  0  0  0  0  0  0  0  0  0
   -4.8190   -0.9680    0.3990 C   0  0  0  0  0  0  0  0  0  0  0  0
   -5.9080   -0.2710   -0.2710 C   0  0  0  0  0  0  0  0  0  0  0  0
   -6.0720   -0.2540   -1.6220 C   0  0  0  0  0  0  0  0  0  0  0  0
   -7.1360    0.4250   -2.1700 C   0  0  0  0  0  0  0  0  0  0  0  0
   -8.0290    1.0800   -1.3790 N   0  0  0  0  0  0  0  0  0  0  0  0
   -7.9090    1.0920   -0.0370 C   0  0  0  0  0  0  0  0  0  0  0  0
   -9.0850    1.9510    0.9430 Cl  0  0  0  0  0  0  0  0  0  0  0  0
   -6.8420    0.4120    0.5230 C   0  0  0  0  0  0  0  0  0  0  0  0
  1  2  1  0
  2  3  2  0
  2 31  1  0
  3  4  1  0
  4  5  2  0
  5  6  1  0
  6  7  1  0
  6 31  2  0
  7  8  1  0
  8  9  1  0
  9 10  2  0
  9 11  1  0
 11 12  1  0
 12 13  1  0
 13 14  2  0
 13 15  1  0
 15 16  1  0
 16 17  1  6
 16 18  1  0
 18 19  2  0
 18 22  1  0
 19 20  1  0
 20 21  2  0
 21 22  1  0
 21 30  1  0
 22 23  1  0
 23 24  2  0
 23 25  1  0
 25 26  2  0
 25 30  1  0
 26 27  1  0
 27 28  2  0
 28 29  1  0
 29 30  2  0
 31 32  1  0
 32 33  2  0
 32 38  1  0
 33 34  1  0
 34 35  2  0
 35 36  1  0
 36 37  1  0
 36 38  2  0
M  CHG  2  16   1  35   1
M  END
