
     RDKit          3D

 38 42  0  0  0  0  0  0  0  0999 V2000
    8.3210   -3.6010   -1.4520 C   0  0  0  0  0  0  0  0  0  0  0  0
    6.9720   -3.5290   -1.2930 O   0  0  0  0  0  0  0  0  0  0  0  0
    6.5030   -2.5410   -0.4340 C   0  0  2  0  0  0  0  0  0  0  0  0
    5.8130   -2.9920    0.7900 C   0  0  0  0  0  0  0  0  0  0  0  0
    5.9900   -1.3260   -1.1440 C   0  0  0  0  0  0  0  0  0  0  0  0
    5.2490   -0.4610   -0.2450 O   0  0  0  0  0  0  0  0  0  0  0  0
    3.9740   -0.8450    0.1080 C   0  0  0  0  0  0  0  0  0  0  0  0
    3.5850   -1.9420   -0.4710 O   0  0  0  0  0  0  0  0  0  0  0  0
    3.0690   -0.2140    1.0000 C   0  0  0  0  0  0  0  0  0  0  0  0
    1.8530    0.3670    0.4300 N   0  0  0  0  0  0  0  0  0  0  0  0
    0.8960   -0.4570    0.0350 C   0  0  0  0  0  0  0  0  0  0  0  0
    1.0870   -1.7050    0.0100 O   0  0  0  0  0  0  0  0  0  0  0  0
   -0.3730    0.0100   -0.3690 C   0  0  0  0  0  0  0  0  0  0  0  0
   -1.2920   -0.9830   -0.8840 C   0  0  0  0  0  0  0  0  0  0  0  0
   -2.4660   -1.3640   -0.2130 N   0  0  2  0  0  0  0  0  0  0  0  0
   -2.9460   -2.6140   -0.9000 C   0  0  0  0  0  0  0  0  0  0  0  0
   -4.3420   -2.3950   -1.4350 C   0  0  0  0  0  0  0  0  0  0  0  0
   -5.2200   -2.3930   -0.3050 N   0  0  0  0  0  0  0  0  0  0  0  0
   -6.5480   -1.9280   -0.5430 C   0  0  0  0  0  0  0  0  0  0  0  0
   -7.0230   -1.3590    0.7160 N   0  0  0  0  0  0  0  0  0  0  0  0
   -5.8230   -0.6330    1.1210 C   0  0  0  0  0  0  0  0  0  0  0  0
   -4.6710   -1.5520    0.7570 C   0  0  1  0  0  0  0  0  0  0  0  0
   -4.2440   -2.3150    1.9570 C   0  0  0  0  0  0  0  0  0  0  0  0
   -3.5730   -0.6400    0.1640 C   0  0  0  0  0  0  0  0  0  0  0  0
   -0.4920    1.3720   -0.3130 C   0  0  0  0  0  0  0  0  0  0  0  0
   -1.6880    1.9190   -0.7380 C   0  0  0  0  0  0  0  0  0  0  0  0
   -1.9330    3.2690   -0.7580 C   0  0  0  0  0  0  0  0  0  0  0  0
   -0.9260    4.0930   -0.3340 C   0  0  0  0  0  0  0  0  0  0  0  0
   -1.1470    5.4720   -0.3200 C   0  0  0  0  0  0  0  0  0  0  0  0
   -0.1340    6.2820    0.1280 C   0  0  0  0  0  0  0  0  0  0  0  0
   -0.4200    8.0110    0.1560 Cl  0  0  0  0  0  0  0  0  0  0  0  0
    1.0690    5.7940    0.5540 C   0  0  0  0  0  0  0  0  0  0  0  0
    2.1530    6.6560    1.0560 C   0  0  0  0  0  0  0  0  0  0  0  0
    1.2790    4.4090    0.5300 C   0  0  0  0  0  0  0  0  0  0  0  0
    0.3060    3.5540    0.0960 C   0  0  0  0  0  0  0  0  0  0  0  0
    0.5090    2.2050    0.0960 N   0  0  0  0  0  0  0  0  0  0  0  0
    1.7020    1.7040    0.4740 C   0  0  0  0  0  0  0  0  0  0  0  0
    2.6750    2.3770    0.8620 O   0  0  0  0  0  0  0  0  0  0  0  0
  1  2  1  0
  2  3  1  0
  3  4  1  6
  3  5  1  0
  5  6  1  0
  6  7  1  0
  7  8  2  0
  7  9  1  0
  9 10  1  0
 10 11  1  0
 10 37  1  0
 11 12  2  0
 11 13  1  0
 13 14  1  0
 13 25  2  0
 15 14  1  6
 15 16  1  0
 15 24  1  0
 16 17  1  0
 17 18  1  0
 18 19  1  0
 18 22  1  0
 19 20  1  0
 20 21  1  0
 21 22  1  0
 22 23  1  1
 22 24  1  0
 25 26  1  0
 25 36  1  0
 26 27  2  0
 27 28  1  0
 28 29  2  0
 28 35  1  0
 29 30  1  0
 30 31  1  0
 30 32  2  0
 32 33  1  0
 32 34  1  0
 34 35  2  0
 35 36  1  0
 36 37  1  0
 37 38  2  0
M  CHG  2  15   1  20   1
M  END
