
     RDKit          3D

 38 42  0  0  0  0  0  0  0  0999 V2000
    8.4250    2.0440   -1.3440 C   0  0  0  0  0  0  0  0  0  0  0  0
    7.2390    1.3830   -1.5500 O   0  0  0  0  0  0  0  0  0  0  0  0
    7.4090    0.0050   -1.6910 C   0  0  0  0  0  0  0  0  0  0  0  0
    8.0270   -0.6010   -0.4870 C   0  0  0  0  0  0  0  0  0  0  0  0
    9.3950   -0.7070   -0.3810 C   0  0  0  0  0  0  0  0  0  0  0  0
   10.0140   -1.2620    0.7160 C   0  0  0  0  0  0  0  0  0  0  0  0
    9.2230   -1.7250    1.7410 C   0  0  0  0  0  0  0  0  0  0  0  0
    9.8900   -2.4500    3.1870 Cl  0  0  0  0  0  0  0  0  0  0  0  0
    7.8610   -1.6190    1.6340 C   0  0  0  0  0  0  0  0  0  0  0  0
    7.2810   -1.0630    0.5290 N   0  0  0  0  0  0  0  0  0  0  0  0
    5.8720   -0.9450    0.4020 C   0  0  0  0  0  0  0  0  0  0  0  0
    5.2610    0.2710    0.6010 C   0  0  0  0  0  0  0  0  0  0  0  0
    3.8680    0.3750    0.4730 C   0  0  0  0  0  0  0  0  0  0  0  0
    3.1470   -0.7370    0.1510 C   0  0  0  0  0  0  0  0  0  0  0  0
    1.6950   -0.6960    0.0020 C   0  0  0  0  0  0  0  0  0  0  0  0
    1.1150   -1.7800   -0.2970 O   0  0  0  0  0  0  0  0  0  0  0  0
    0.9320    0.4650    0.1730 N   0  0  0  0  0  0  0  0  0  0  0  0
   -0.4610    0.5220    0.0400 C   0  0  0  0  0  0  0  0  0  0  0  0
   -1.0270    1.8040   -0.0350 C   0  0  0  0  0  0  0  0  0  0  0  0
   -2.3770    2.0250   -0.1520 C   0  0  0  0  0  0  0  0  0  0  0  0
   -3.2360    0.9520   -0.1980 C   0  0  0  0  0  0  0  0  0  0  0  0
   -4.5890    1.0530   -0.3130 O   0  0  0  0  0  0  0  0  0  0  0  0
   -5.2740    2.2550   -0.3960 C   0  0  1  0  0  0  0  0  0  0  0  0
   -6.1140    2.3470   -1.6760 C   0  0  0  0  0  0  0  0  0  0  0  0
   -7.0810    3.4510   -1.2940 C   0  0  0  0  0  0  0  0  0  0  0  0
   -7.3730    3.2380    0.0880 N   0  0  0  0  0  0  0  0  0  0  0  0
   -6.4140    2.3280    0.6320 C   0  0  0  0  0  0  0  0  0  0  0  0
   -2.7160   -0.3500   -0.1260 C   0  0  0  0  0  0  0  0  0  0  0  0
   -3.6380   -1.4670   -0.1770 C   0  0  0  0  0  0  0  0  0  0  0  0
   -3.1650   -2.6310   -0.1120 O   0  0  0  0  0  0  0  0  0  0  0  0
   -5.0010   -1.3270   -0.2930 O   0  0  0  0  0  0  0  0  0  0  0  0
   -5.9110   -2.3890   -0.3440 C   0  0  0  0  0  0  0  0  0  0  0  0
   -5.8400   -3.2510    0.9190 C   0  0  2  0  0  0  0  0  0  0  0  0
   -6.7210   -4.4140    1.0490 C   0  0  0  0  0  0  0  0  0  0  0  0
   -6.9870   -3.1880    1.8930 C   0  0  0  0  0  0  0  0  0  0  0  0
   -1.3490   -0.5110   -0.0090 C   0  0  0  0  0  0  0  0  0  0  0  0
    3.7820   -1.8990   -0.0330 N   0  0  0  0  0  0  0  0  0  0  0  0
    5.0970   -1.9950    0.0890 N   0  0  0  0  0  0  0  0  0  0  0  0
  1  2  1  0
  2  3  1  0
  3  4  1  0
  4  5  2  0
  4 10  1  0
  5  6  1  0
  6  7  2  0
  7  8  1  0
  7  9  1  0
  9 10  2  0
 10 11  1  0
 11 12  2  0
 11 38  1  0
 12 13  1  0
 13 14  2  0
 14 15  1  0
 14 37  1  0
 15 16  2  0
 15 17  1  0
 17 18  1  0
 18 19  2  0
 18 36  1  0
 19 20  1  0
 20 21  2  0
 21 22  1  0
 21 28  1  0
 23 22  1  6
 23 24  1  0
 23 27  1  0
 24 25  1  0
 25 26  1  0
 26 27  1  0
 28 29  1  0
 28 36  2  0
 29 30  2  0
 29 31  1  0
 31 32  1  0
 33 32  1  6
 33 34  1  0
 33 35  1  0
 34 35  1  0
 37 38  2  0
M  CHG  2  10   1  26   1
M  END
