
     RDKit          3D

 19 18  0  0  0  0  0  0  0  0999 V2000
    4.0250   -1.7580    1.2730 C   0  0  0  0  0  0  0  0  0  0  0  0
    3.4150   -0.5680    0.4910 C   0  0  0  0  0  0  0  0  0  0  0  0
    3.4260   -0.8420   -0.9560 C   0  0  0  0  0  0  0  0  0  0  0  0
    2.9450    0.1390   -1.9390 C   0  0  0  0  0  0  0  0  0  0  0  0
    1.5590    0.5870   -1.9410 C   0  0  0  0  0  0  0  0  0  0  0  0
    0.9590    1.3150   -0.9080 N   0  0  2  0  0  0  0  0  0  0  0  0
    1.7800    2.0660   -0.0240 C   0  0  0  0  0  0  0  0  0  0  0  0
    0.0380    0.4520   -0.1470 C   0  0  0  0  0  0  0  0  0  0  0  0
   -1.3350    0.6240   -0.6560 C   0  0  0  0  0  0  0  0  0  0  0  0
   -2.2920   -0.2840    0.1490 C   0  0  1  0  0  0  0  0  0  0  0  0
   -1.6820   -1.5420   -0.1480 O   0  0  0  0  0  0  0  0  0  0  0  0
   -2.2790   -0.0420    1.8810 P   0  0  0  0  0  0  0  0  0  0  0  0
   -1.7080    1.3660    1.9310 O   0  0  0  0  0  0  0  0  0  0  0  0
   -3.6740    0.5660    2.6280 O   0  0  0  0  0  0  0  0  0  0  0  0
   -1.0760   -0.6390    2.8310 O   0  0  0  0  0  0  0  0  0  0  0  0
   -3.8330   -0.2020   -0.4840 P   0  0  0  0  0  0  0  0  0  0  0  0
   -3.3720   -0.5450   -2.0300 O   0  0  0  0  0  0  0  0  0  0  0  0
   -3.9420    1.3600    0.0160 O   0  0  0  0  0  0  0  0  0  0  0  0
   -4.3500   -1.4100    0.5140 O   0  0  0  0  0  0  0  0  0  0  0  0
  1  2  1  0
  2  3  1  0
  3  4  1  0
  4  5  1  0
  5  6  1  0
  6  7  1  1
  6  8  1  0
  8  9  1  0
  9 10  1  0
 10 11  1  1
 10 12  1  0
 10 16  1  0
 12 13  1  0
 12 14  1  0
 12 15  1  0
 16 17  1  0
 16 18  1  0
 16 19  1  0
M  CHG  1   6   1
M  END
