
     RDKit          3D

 21 22  0  0  0  0  0  0  0  0999 V2000
   -0.2310   -0.5470    1.1950 O   0  0  0  0  0  0  0  0  0  0  0  0
   -0.1600    0.5070    0.5440 C   0  0  0  0  0  0  0  0  0  0  0  0
   -1.2410    1.0850   -0.1590 N   0  0  0  0  0  0  0  0  0  0  0  0
   -2.5450    0.5460   -0.1900 C   0  0  0  0  0  0  0  0  0  0  0  0
   -2.9190   -0.5970    0.4770 C   0  0  0  0  0  0  0  0  0  0  0  0
   -4.2500   -1.0230    0.3620 C   0  0  0  0  0  0  0  0  0  0  0  0
   -5.1210   -0.3100   -0.3900 C   0  0  0  0  0  0  0  0  0  0  0  0
   -4.7130    0.8290   -1.0440 C   0  0  0  0  0  0  0  0  0  0  0  0
   -3.4490    1.2350   -0.9370 N   0  0  0  0  0  0  0  0  0  0  0  0
   -5.8390    1.3240   -1.7240 O   0  0  0  0  0  0  0  0  0  0  0  0
   -6.9210    0.7400   -1.1900 O   0  0  0  0  0  0  0  0  0  0  0  0
   -6.4810   -0.4470   -0.7100 O   0  0  0  0  0  0  0  0  0  0  0  0
    1.0790    1.1570    0.5150 O   0  0  0  0  0  0  0  0  0  0  0  0
    2.2020    0.6210    1.2000 C   0  0  0  0  0  0  0  0  0  0  0  0
    2.5870   -0.7180    0.6290 C   0  0  2  0  0  0  0  0  0  0  0  0
    3.6600   -1.2420    1.3640 O   0  0  0  0  0  0  0  0  0  0  0  0
    3.0550   -0.4380   -0.7780 C   0  0  0  0  0  0  0  0  0  0  0  0
    2.2470    0.0490   -1.5860 O   0  0  0  0  0  0  0  0  0  0  0  0
    4.3840   -0.7220   -1.1630 N   0  0  0  0  0  0  0  0  0  0  0  0
    4.8800   -0.4880   -2.4190 O   0  0  0  0  0  0  0  0  0  0  0  0
    6.0260    0.1920   -2.3420 O   0  0  0  0  0  0  0  0  0  0  0  0
  1  2  2  0
  2  3  1  0
  2 13  1  0
  3  4  1  0
  4  5  2  0
  4  9  1  0
  5  6  1  0
  6  7  2  0
  7  8  1  0
  7 12  1  0
  8  9  2  0
  8 10  1  0
 10 11  1  0
 11 12  1  0
 13 14  1  0
 14 15  1  0
 15 16  1  1
 15 17  1  0
 17 18  2  0
 17 19  1  0
 19 20  1  0
 20 21  1  0
M  END
