
     RDKit          3D

 21 22  0  0  0  0  0  0  0  0999 V2000
   -1.8640   -3.4320   -1.3120 O   0  0  0  0  0  0  0  0  0  0  0  0
   -1.3330   -2.7390   -2.2390 C   0  0  0  0  0  0  0  0  0  0  0  0
   -0.8830   -3.3670   -3.3840 O   0  0  0  0  0  0  0  0  0  0  0  0
   -1.2470   -1.3810   -2.0180 O   0  0  0  0  0  0  0  0  0  0  0  0
   -1.7160   -0.7580   -0.8350 C   0  0  2  0  0  0  0  0  0  0  0  0
   -2.7070    0.1570   -1.0540 O   0  0  0  0  0  0  0  0  0  0  0  0
   -3.9030   -0.1330   -0.4240 C   0  0  0  0  0  0  0  0  0  0  0  0
   -4.8910    0.9660   -0.7620 C   0  0  0  0  0  0  0  0  0  0  0  0
   -4.4390    2.2090   -0.3340 O   0  0  0  0  0  0  0  0  0  0  0  0
   -5.3340    3.1180   -0.6540 O   0  0  0  0  0  0  0  0  0  0  0  0
   -0.5400   -0.2080   -0.1250 C   0  0  0  0  0  0  0  0  0  0  0  0
    0.6020   -0.9130    0.0370 N   0  0  0  0  0  0  0  0  0  0  0  0
    1.4720   -0.1500    0.7130 C   0  0  0  0  0  0  0  0  0  0  0  0
    2.8530   -0.4750    1.1330 C   0  0  1  0  0  0  0  0  0  0  0  0
    3.8770    0.0470    0.1580 C   0  0  0  0  0  0  0  0  0  0  0  0
    5.1240   -0.0270    0.8200 O   0  0  0  0  0  0  0  0  0  0  0  0
    5.1710    0.9610    1.8020 C   0  0  0  0  0  0  0  0  0  0  0  0
    3.8560    1.0550    2.5540 C   0  0  0  0  0  0  0  0  0  0  0  0
    3.1040   -0.1050    2.4410 O   0  0  0  0  0  0  0  0  0  0  0  0
    0.8590    1.0150    0.9610 N   0  0  0  0  0  0  0  0  0  0  0  0
   -0.3340    0.9340    0.4440 O   0  0  0  0  0  0  0  0  0  0  0  0
  1  2  2  0
  2  3  1  0
  2  4  1  0
  5  4  1  6
  5  6  1  0
  5 11  1  0
  6  7  1  0
  7  8  1  0
  8  9  1  0
  9 10  1  0
 11 12  2  0
 11 21  1  0
 12 13  1  0
 14 13  1  6
 13 20  2  0
 14 15  1  0
 14 19  1  0
 15 16  1  0
 16 17  1  0
 17 18  1  0
 18 19  1  0
 20 21  1  0
M  END
