
     RDKit          3D

 21 22  0  0  0  0  0  0  0  0999 V2000
   -4.6240    1.4110    0.3370 C   0  0  0  0  0  0  0  0  0  0  0  0
   -3.7420    0.6970   -0.4300 O   0  0  0  0  0  0  0  0  0  0  0  0
   -3.2320   -0.6030   -0.1520 C   0  0  0  0  0  0  0  0  0  0  0  0
   -3.7020   -1.1240    0.9160 O   0  0  0  0  0  0  0  0  0  0  0  0
   -2.2480   -1.2130   -1.0450 C   0  0  1  0  0  0  0  0  0  0  0  0
   -1.6270   -0.0840   -1.8550 C   0  0  0  0  0  0  0  0  0  0  0  0
   -1.0550    0.5820   -0.8310 O   0  0  0  0  0  0  0  0  0  0  0  0
   -0.4960   -0.3410    0.0390 C   0  0  2  0  0  0  0  0  0  0  0  0
   -0.8790   -0.4230    1.4040 C   0  0  0  0  0  0  0  0  0  0  0  0
   -0.1080   -1.5010    2.1500 C   0  0  0  0  0  0  0  0  0  0  0  0
   -0.6650   -2.0950    3.2520 O   0  0  0  0  0  0  0  0  0  0  0  0
    1.0060   -1.8360    1.7150 N   0  0  0  0  0  0  0  0  0  0  0  0
    1.5940   -1.3450    0.5660 N   0  0  0  0  0  0  0  0  0  0  0  0
    0.9790   -0.6050   -0.2150 C   0  0  0  0  0  0  0  0  0  0  0  0
    1.6930    0.0120   -1.2960 O   0  0  0  0  0  0  0  0  0  0  0  0
    2.8750    0.6650   -0.8670 C   0  0  0  0  0  0  0  0  0  0  0  0
    4.1010   -0.1760   -0.5700 C   0  0  0  0  0  0  0  0  0  0  0  0
    4.9400    0.8110   -0.0060 O   0  0  0  0  0  0  0  0  0  0  0  0
    5.5470    1.5160   -0.8820 O   0  0  0  0  0  0  0  0  0  0  0  0
    5.3040    2.8280   -0.5130 O   0  0  0  0  0  0  0  0  0  0  0  0
   -1.0910   -1.6600   -0.4390 O   0  0  0  0  0  0  0  0  0  0  0  0
  1  2  1  0
  2  3  1  0
  3  4  2  0
  5  3  1  1
  5  6  1  0
  5 21  1  0
  6  7  1  0
  7  8  1  0
  8  9  1  1
  8 14  1  0
  8 21  1  0
  9 10  1  0
 10 11  1  0
 10 12  2  0
 12 13  1  0
 13 14  2  0
 14 15  1  0
 15 16  1  0
 16 17  1  0
 17 18  1  0
 18 19  1  0
 19 20  1  0
M  END
