
     RDKit          3D

 21 21  0  0  0  0  0  0  0  0999 V2000
   -1.0000   -0.8140   -0.6440 O   0  0  0  0  0  0  0  0  0  0  0  0
   -0.9950   -0.2680    0.4150 C   0  0  0  0  0  0  0  0  0  0  0  0
   -0.0950   -0.1080    1.4430 N   0  0  0  0  0  0  0  0  0  0  0  0
    1.2070   -1.0390    0.7070 C   0  0  0  0  0  0  0  0  0  0  0  0
    0.9630   -1.4390   -0.3390 O   0  0  0  0  0  0  0  0  0  0  0  0
    2.2650   -1.1200    1.5100 O   0  0  0  0  0  0  0  0  0  0  0  0
    3.4480   -1.8470    1.0930 C   0  0  0  0  0  0  0  0  0  0  0  0
    4.1570   -1.2070   -0.0590 C   0  0  1  0  0  0  0  0  0  0  0  0
    3.3540   -1.0230   -1.1450 O   0  0  0  0  0  0  0  0  0  0  0  0
    4.9570   -0.0200    0.3650 C   0  0  0  0  0  0  0  0  0  0  0  0
    4.2820    1.1450    0.6510 O   0  0  0  0  0  0  0  0  0  0  0  0
    3.5770    1.8540   -0.3340 C   0  0  0  0  0  0  0  0  0  0  0  0
    3.5190    1.4780   -1.5100 O   0  0  0  0  0  0  0  0  0  0  0  0
    2.9150    3.0310    0.0110 O   0  0  0  0  0  0  0  0  0  0  0  0
   -2.2780    0.4670    0.8140 N   0  0  0  0  0  0  0  0  0  0  0  0
   -3.2930    0.4180   -0.1350 C   0  0  1  0  0  0  0  0  0  0  0  0
   -4.4860   -0.4360    0.3010 C   0  0  0  0  0  0  0  0  0  0  0  0
   -5.3300   -0.5060   -0.9610 C   0  0  0  0  0  0  0  0  0  0  0  0
   -5.6870    0.7890   -1.2950 O   0  0  0  0  0  0  0  0  0  0  0  0
   -4.6660    1.5800   -1.5660 O   0  0  0  0  0  0  0  0  0  0  0  0
   -3.9000    1.7890   -0.4060 C   0  0  0  0  0  0  0  0  0  0  0  0
  1  2  2  0
  2  3  1  0
  2 15  1  0
  3  4  1  0
  4  5  2  0
  4  6  1  0
  6  7  1  0
  7  8  1  0
  8  9  1  6
  8 10  1  0
 10 11  1  0
 11 12  1  0
 12 13  2  0
 12 14  1  0
 16 15  1  1
 16 17  1  0
 16 21  1  0
 17 18  1  0
 18 19  1  0
 19 20  1  0
 20 21  1  0
M  END
