
     RDKit          3D

 16 16  0  0  0  0  0  0  0  0999 V2000
    0.0200   -0.4420    1.6650 O   0  0  0  0  0  0  0  0  0  0  0  0
   -0.3530    0.1550    0.4210 C   0  0  1  0  0  0  0  0  0  0  0  0
    0.9410    0.7360   -0.1080 C   0  0  0  0  0  0  0  0  0  0  0  0
    2.0010   -0.1700   -0.3200 N   0  0  0  0  0  0  0  0  0  0  0  0
    2.9040   -0.5220    0.6410 C   0  0  0  0  0  0  0  0  0  0  0  0
    3.8170   -1.3970    0.0910 C   0  0  0  0  0  0  0  0  0  0  0  0
    3.4330   -1.5440   -1.1880 N   0  0  0  0  0  0  0  0  0  0  0  0
    2.3350   -0.8060   -1.4450 C   0  0  0  0  0  0  0  0  0  0  0  0
   -0.9100   -1.0940   -0.6270 P   0  0  0  0  0  0  0  0  0  0  0  0
   -0.7970   -1.0360   -2.2490 O   0  0  0  0  0  0  0  0  0  0  0  0
   -1.3160   -2.6240    0.0840 O   0  0  0  0  0  0  0  0  0  0  0  0
   -2.4180   -0.8420   -0.5960 O   0  0  0  0  0  0  0  0  0  0  0  0
   -1.3870    1.5170    0.7860 P   0  0  0  0  0  0  0  0  0  0  0  0
   -1.1040    2.9490   -0.0540 O   0  0  0  0  0  0  0  0  0  0  0  0
   -2.5470    1.2380   -0.1530 O   0  0  0  0  0  0  0  0  0  0  0  0
   -2.3910    1.4360    2.0990 O   0  0  0  0  0  0  0  0  0  0  0  0
  2  1  1  1
  2  3  1  0
  2  9  1  0
  2 13  1  0
  3  4  1  0
  4  5  1  0
  4  8  1  0
  5  6  2  0
  6  7  1  0
  7  8  2  0
  9 10  1  0
  9 11  1  0
  9 12  1  0
 13 14  1  0
 13 15  1  0
 13 16  1  0
M  END
