
     RDKit          3D

 15 14  0  0  0  0  0  0  0  0999 V2000
    1.4510    0.9900    1.3000 C   0  0  0  0  0  0  0  0  0  0  0  0
    0.8500   -0.0800    0.3790 C   0  0  1  0  0  0  0  0  0  0  0  0
    1.3160   -1.3080    0.7720 O   0  0  0  0  0  0  0  0  0  0  0  0
    2.1470   -2.0320   -0.5690 P   0  0  0  0  0  0  0  0  0  0  0  0
    2.0720   -1.0350   -1.9690 O   0  0  0  0  0  0  0  0  0  0  0  0
    3.7720   -2.4670   -0.1500 O   0  0  0  0  0  0  0  0  0  0  0  0
   -0.6510    0.0590    0.5060 C   0  0  2  0  0  0  0  0  0  0  0  0
   -1.3700   -0.9190   -0.4030 C   0  0  0  0  0  0  0  0  0  0  0  0
   -1.0080   -0.7850   -1.7200 O   0  0  0  0  0  0  0  0  0  0  0  0
   -0.9860    1.3920    0.0590 N   0  0  0  0  0  0  0  0  0  0  0  0
   -2.3060    1.9240    0.0430 C   0  0  0  0  0  0  0  0  0  0  0  0
   -3.2370    1.1870    0.4460 O   0  0  0  0  0  0  0  0  0  0  0  0
   -2.5410    3.2330   -0.4120 O   0  0  0  0  0  0  0  0  0  0  0  0
   -1.1050   -0.0870    1.7990 O   0  0  0  0  0  0  0  0  0  0  0  0
   -0.8140   -1.2580    2.3140 O   0  0  0  0  0  0  0  0  0  0  0  0
  2  1  1  1
  2  3  1  0
  2  7  1  0
  3  4  1  0
  4  5  1  0
  4  6  1  0
  7  8  1  6
  7 10  1  0
  7 14  1  0
  8  9  1  0
 10 11  1  0
 11 12  2  0
 11 13  1  0
 14 15  1  0
M  END
