
     RDKit          3D

 16 15  0  0  0  0  0  0  0  0999 V2000
   -3.7640   -1.3700   -1.0550 O   0  0  0  0  0  0  0  0  0  0  0  0
   -3.0230   -2.0310   -0.2900 C   0  0  0  0  0  0  0  0  0  0  0  0
   -1.7900   -1.3950    0.1720 C   0  0  0  0  0  0  0  0  0  0  0  0
   -1.0240   -2.0410    0.9450 O   0  0  0  0  0  0  0  0  0  0  0  0
   -1.4250   -0.0830   -0.2160 N   0  0  0  0  0  0  0  0  0  0  0  0
   -0.2450    0.6150    0.1770 C   0  0  1  0  0  0  0  0  0  0  0  0
   -0.1830    0.6650    1.5780 O   0  0  0  0  0  0  0  0  0  0  0  0
    1.0490   -0.0090   -0.2690 C   0  0  0  0  0  0  0  0  0  0  0  0
    1.2890   -1.2710    0.1880 O   0  0  0  0  0  0  0  0  0  0  0  0
    2.8080   -1.8070   -0.4280 P   0  0  0  0  0  0  0  0  0  0  0  0
    4.0590   -0.6530   -0.1960 O   0  0  0  0  0  0  0  0  0  0  0  0
    3.1770   -3.3430    0.2800 O   0  0  0  0  0  0  0  0  0  0  0  0
   -0.2310    1.9480   -0.3610 O   0  0  0  0  0  0  0  0  0  0  0  0
   -1.2180    2.8620   -0.0610 C   0  0  0  0  0  0  0  0  0  0  0  0
   -2.1380    2.4770    0.7100 O   0  0  0  0  0  0  0  0  0  0  0  0
   -1.2070    4.1670   -0.5850 O   0  0  0  0  0  0  0  0  0  0  0  0
  1  2  2  0
  2  3  1  0
  3  4  2  0
  3  5  1  0
  5  6  1  0
  6  7  1  1
  6  8  1  0
  6 13  1  0
  8  9  1  0
  9 10  1  0
 10 11  1  0
 10 12  1  0
 13 14  1  0
 14 15  2  0
 14 16  1  0
M  END
