
     RDKit          3D

 15 14  0  0  0  0  0  0  0  0999 V2000
   -1.4300    0.8680   -0.9880 C   0  0  0  0  0  0  0  0  0  0  0  0
   -1.7080    0.3410    0.3960 C   0  0  2  0  0  0  0  0  0  0  0  0
   -2.9830    0.9660    0.8280 N   0  0  0  0  0  0  0  0  0  0  0  0
   -0.8080    0.6100    1.3560 O   0  0  0  0  0  0  0  0  0  0  0  0
    0.3800    0.2360    1.3590 O   0  0  0  0  0  0  0  0  0  0  0  0
    1.2110    0.5560    0.3370 C   0  0  0  0  0  0  0  0  0  0  0  0
    2.6060    0.0440    0.5560 C   0  0  0  0  0  0  0  0  0  0  0  0
    2.9500   -0.6030    1.5700 O   0  0  0  0  0  0  0  0  0  0  0  0
    3.5690    0.2940   -0.4050 O   0  0  0  0  0  0  0  0  0  0  0  0
    4.9030   -0.1620   -0.2560 C   0  0  0  0  0  0  0  0  0  0  0  0
    4.9830   -1.5420   -0.1500 O   0  0  0  0  0  0  0  0  0  0  0  0
   -2.0130   -1.0340    0.3310 O   0  0  0  0  0  0  0  0  0  0  0  0
   -3.4170   -1.2790   -0.6660 P   0  0  0  0  0  0  0  0  0  0  0  0
   -4.6480   -0.0990   -0.2950 O   0  0  0  0  0  0  0  0  0  0  0  0
   -4.0460   -2.8690   -0.3910 O   0  0  0  0  0  0  0  0  0  0  0  0
  2  1  1  6
  2  3  1  0
  2  4  1  0
  2 12  1  0
  4  5  1  0
  5  6  1  0
  6  7  1  0
  7  8  2  0
  7  9  1  0
  9 10  1  0
 10 11  1  0
 12 13  1  0
 13 14  1  0
 13 15  1  0
M  END
