
     RDKit          3D

 16 15  0  0  0  0  0  0  0  0999 V2000
   -3.0460   -2.8480   -0.9060 O   0  0  0  0  0  0  0  0  0  0  0  0
   -2.9810   -2.1420   -1.9540 C   0  0  0  0  0  0  0  0  0  0  0  0
   -2.2220   -0.9820   -1.9160 O   0  0  0  0  0  0  0  0  0  0  0  0
   -1.5510   -0.6100   -0.7480 C   0  0  2  0  0  0  0  0  0  0  0  0
   -2.0970    0.5920   -0.2980 O   0  0  0  0  0  0  0  0  0  0  0  0
   -2.8200    0.4270    1.2700 P   0  0  0  0  0  0  0  0  0  0  0  0
   -2.7070    1.9320    2.1330 O   0  0  0  0  0  0  0  0  0  0  0  0
   -4.4980   -0.0510    1.0980 O   0  0  0  0  0  0  0  0  0  0  0  0
   -0.0840   -0.4580   -0.9640 C   0  0  0  0  0  0  0  0  0  0  0  0
    0.4580   -0.6470   -2.0670 O   0  0  0  0  0  0  0  0  0  0  0  0
    0.7110   -0.0920    0.1100 O   0  0  0  0  0  0  0  0  0  0  0  0
    2.0990    0.0630   -0.0470 C   0  0  0  0  0  0  0  0  0  0  0  0
    2.6600   -0.1210   -1.1380 O   0  0  0  0  0  0  0  0  0  0  0  0
    2.9080    0.4410    1.0650 N   0  0  0  0  0  0  0  0  0  0  0  0
    4.3290    0.6020    0.9190 C   0  0  0  0  0  0  0  0  0  0  0  0
    4.6270    1.5950   -0.0300 O   0  0  0  0  0  0  0  0  0  0  0  0
  1  2  2  0
  2  3  1  0
  4  3  1  6
  4  5  1  0
  4  9  1  0
  5  6  1  0
  6  7  1  0
  6  8  1  0
  9 10  2  0
  9 11  1  0
 11 12  1  0
 12 13  2  0
 12 14  1  0
 14 15  1  0
 15 16  1  0
M  END
