
     RDKit          3D

 41 45  0  0  0  0  0  0  0  0999 V2000
    7.6310   -0.3510    2.6140 C   0  0  0  0  0  0  0  0  0  0  0  0
    7.3750   -0.5970    1.3640 C   0  0  0  0  0  0  0  0  0  0  0  0
    8.4660   -1.1450    0.6580 C   0  0  0  0  0  0  0  0  0  0  0  0
    8.3460   -1.4510   -0.6600 C   0  0  0  0  0  0  0  0  0  0  0  0
    7.1430   -1.2160   -1.2950 C   0  0  0  0  0  0  0  0  0  0  0  0
    6.0530   -0.6880   -0.6630 C   0  0  0  0  0  0  0  0  0  0  0  0
    4.8590   -0.3910   -1.3890 N   0  0  0  0  0  0  0  0  0  0  0  0
    4.5170   -0.9260   -2.6530 C   0  0  0  0  0  0  0  0  0  0  0  0
    5.2940   -1.7400   -3.2320 O   0  0  0  0  0  0  0  0  0  0  0  0
    3.2490   -0.5330   -3.3100 C   0  0  0  0  0  0  0  0  0  0  0  0
    2.4010    0.3350   -2.5750 N   0  0  0  0  0  0  0  0  0  0  0  0
    1.7740    0.0460   -1.3570 C   0  0  0  0  0  0  0  0  0  0  0  0
    1.9080   -1.0420   -0.7890 O   0  0  0  0  0  0  0  0  0  0  0  0
    0.8960    1.0870   -0.7040 C   0  0  1  0  0  0  0  0  0  0  0  0
    1.6380    1.4300    0.6370 C   0  0  0  0  0  0  0  0  0  0  0  0
    0.8360    2.2230   -1.3990 O   0  0  0  0  0  0  0  0  0  0  0  0
    0.2840    3.4560   -1.3850 C   0  0  0  0  0  0  0  0  0  0  0  0
   -0.8920    3.8410   -2.0070 C   0  0  0  0  0  0  0  0  0  0  0  0
   -1.4310    5.0980   -1.9750 C   0  0  0  0  0  0  0  0  0  0  0  0
   -0.7400    6.0550   -1.2630 C   0  0  0  0  0  0  0  0  0  0  0  0
    0.4090    5.7320   -0.6410 N   0  0  0  0  0  0  0  0  0  0  0  0
    0.9210    4.5060   -0.6800 C   0  0  0  0  0  0  0  0  0  0  0  0
   -0.2980    0.3540   -0.2450 C   0  0  0  0  0  0  0  0  0  0  0  0
    0.0060   -0.7130    0.4260 O   0  0  0  0  0  0  0  0  0  0  0  0
   -1.6350    0.6260   -0.4180 N   0  0  0  0  0  0  0  0  0  0  0  0
   -2.7640   -0.1330    0.0630 C   0  0  0  0  0  0  0  0  0  0  0  0
   -2.6940   -1.1110    1.0110 C   0  0  0  0  0  0  0  0  0  0  0  0
   -3.7940   -1.8120    1.4140 C   0  0  0  0  0  0  0  0  0  0  0  0
   -5.0170   -1.5290    0.8520 C   0  0  0  0  0  0  0  0  0  0  0  0
   -6.2740   -2.0930    1.0870 C   0  0  0  0  0  0  0  0  0  0  0  0
   -7.1520   -1.4410    0.2560 C   0  0  0  0  0  0  0  0  0  0  0  0
   -6.4450   -0.5280   -0.4420 N   0  0  0  0  0  0  0  0  0  0  0  0
   -5.1480   -0.5490   -0.1110 C   0  0  0  0  0  0  0  0  0  0  0  0
   -4.0230    0.1350   -0.4920 C   0  0  0  0  0  0  0  0  0  0  0  0
   -8.6170   -1.7700    0.2170 C   0  0  0  0  0  0  0  0  0  0  0  0
   -8.9660   -2.6780    1.3730 C   0  0  0  0  0  0  0  0  0  0  0  0
   -7.9370   -3.8130    1.4340 C   0  0  0  0  0  0  0  0  0  0  0  0
   -6.6930   -3.1860    2.0250 C   0  0  0  0  0  0  0  0  0  0  0  0
    6.1680   -0.3660    0.7150 C   0  0  0  0  0  0  0  0  0  0  0  0
    5.1440    0.1120    1.3390 C   0  0  0  0  0  0  0  0  0  0  0  0
    4.8630    0.5330    2.7020 C   0  0  0  0  0  0  0  0  0  0  0  0
  1  2  2  0
  2  3  1  0
  2 39  1  0
  3  4  2  0
  4  5  1  0
  5  6  2  0
  6  7  1  0
  6 39  1  0
  7  8  1  0
  8  9  2  0
  8 10  1  0
 10 11  1  0
 11 12  1  0
 12 13  2  0
 12 14  1  0
 14 15  1  1
 14 16  1  0
 14 23  1  0
 16 17  1  0
 17 18  2  0
 17 22  1  0
 18 19  1  0
 19 20  2  0
 20 21  1  0
 21 22  2  0
 23 24  2  0
 23 25  1  0
 25 26  1  0
 26 27  2  0
 26 34  1  0
 27 28  1  0
 28 29  2  0
 29 30  1  0
 29 33  1  0
 30 31  2  0
 30 38  1  0
 31 32  1  0
 31 35  1  0
 32 33  1  0
 33 34  2  0
 35 36  1  0
 36 37  1  0
 37 38  1  0
 39 40  2  3
 40 41  1  0
M  END
