
     RDKit          3D

 41 45  0  0  0  0  0  0  0  0999 V2000
   -7.8200    2.7720    3.8090 C   0  0  0  0  0  0  0  0  0  0  0  0
   -7.7410    1.5830    2.8990 C   0  0  0  0  0  0  0  0  0  0  0  0
   -6.3960    1.4020    2.2630 C   0  0  0  0  0  0  0  0  0  0  0  0
   -6.4710    0.1670    1.3760 C   0  0  0  0  0  0  0  0  0  0  0  0
   -5.2060   -0.1170    0.6960 C   0  0  0  0  0  0  0  0  0  0  0  0
   -4.9760   -0.1120   -0.5890 C   0  0  0  0  0  0  0  0  0  0  0  0
   -6.1240    0.2220   -1.4700 C   0  0  0  0  0  0  0  0  0  0  0  0
   -7.2530   -0.0840   -1.1440 O   0  0  0  0  0  0  0  0  0  0  0  0
   -5.8210    0.9460   -2.7660 C   0  0  0  0  0  0  0  0  0  0  0  0
   -4.5020    1.6240   -2.4710 C   0  0  0  0  0  0  0  0  0  0  0  0
   -4.3990    2.8450   -2.4880 O   0  0  0  0  0  0  0  0  0  0  0  0
   -3.3380    0.7700   -2.1620 C   0  0  0  0  0  0  0  0  0  0  0  0
   -3.6590   -0.4060   -1.2560 C   0  0  1  0  0  0  0  0  0  0  0  0
   -2.5480   -0.7020   -0.3430 C   0  0  0  0  0  0  0  0  0  0  0  0
   -1.2080   -0.8390   -0.8910 C   0  0  0  0  0  0  0  0  0  0  0  0
   -0.0700   -0.3530   -0.2270 C   0  0  0  0  0  0  0  0  0  0  0  0
   -0.2670    0.6000    0.8880 C   0  0  0  0  0  0  0  0  0  0  0  0
    1.2190   -0.5960   -0.6330 C   0  0  0  0  0  0  0  0  0  0  0  0
    2.4470   -0.1940   -0.0110 C   0  0  0  0  0  0  0  0  0  0  0  0
    2.6480    0.5370    1.2230 C   0  0  0  0  0  0  0  0  0  0  0  0
    3.5660   -0.5520   -0.6240 N   0  0  0  0  0  0  0  0  0  0  0  0
    4.8450   -0.2360   -0.1440 C   0  0  0  0  0  0  0  0  0  0  0  0
    5.5490   -1.0610    0.7260 C   0  0  0  0  0  0  0  0  0  0  0  0
    6.8210   -0.6660    1.1550 C   0  0  0  0  0  0  0  0  0  0  0  0
    7.3940    0.5180    0.7390 C   0  0  0  0  0  0  0  0  0  0  0  0
    8.6870    0.9020    1.1850 N   0  0  0  0  0  0  0  0  0  0  0  0
    9.6940    0.3450    2.0580 C   0  0  0  0  0  0  0  0  0  0  0  0
   10.1930    1.7560    2.3080 C   0  0  0  0  0  0  0  0  0  0  0  0
    9.5580    2.0300    0.9550 C   0  0  0  0  0  0  0  0  0  0  0  0
    6.6920    1.3410   -0.1290 C   0  0  0  0  0  0  0  0  0  0  0  0
    5.4270    0.9450   -0.5540 C   0  0  0  0  0  0  0  0  0  0  0  0
    1.3180   -1.3900   -1.8110 C   0  0  0  0  0  0  0  0  0  0  0  0
    2.4780   -1.6530   -2.2470 O   0  0  0  0  0  0  0  0  0  0  0  0
    0.2400   -1.8430   -2.4370 N   0  0  0  0  0  0  0  0  0  0  0  0
    0.4210   -2.6560   -3.6500 C   0  0  0  0  0  0  0  0  0  0  0  0
    0.5070   -4.1060   -3.1730 C   0  0  0  0  0  0  0  0  0  0  0  0
    1.5740   -4.2860   -2.3050 O   0  0  0  0  0  0  0  0  0  0  0  0
   -1.0130   -1.6030   -2.0280 C   0  0  0  0  0  0  0  0  0  0  0  0
   -2.0400   -2.2010   -2.7940 N   0  0  0  0  0  0  0  0  0  0  0  0
   -2.7830   -0.7060    0.9500 C   0  0  0  0  0  0  0  0  0  0  0  0
   -4.0460   -0.4320    1.5160 N   0  0  0  0  0  0  0  0  0  0  0  0
  1  2  1  0
  2  3  1  0
  3  4  1  0
  4  5  1  0
  5  6  2  0
  5 41  1  0
  6  7  1  0
  6 13  1  0
  7  8  2  0
  7  9  1  0
  9 10  1  0
 10 11  2  0
 10 12  1  0
 13 12  1  1
 13 14  1  0
 14 15  1  0
 14 40  2  0
 15 16  1  0
 15 38  2  0
 16 17  1  0
 16 18  2  0
 18 19  1  0
 18 32  1  0
 19 20  1  0
 19 21  2  3
 21 22  1  0
 22 23  2  0
 22 31  1  0
 23 24  1  0
 24 25  2  0
 25 26  1  0
 25 30  1  0
 26 27  1  0
 26 29  1  0
 27 28  1  0
 28 29  1  0
 30 31  2  0
 32 33  2  0
 32 34  1  0
 34 35  1  0
 34 38  1  0
 35 36  1  0
 36 37  1  0
 38 39  1  0
 40 41  1  0
M  END
