
     RDKit          3D

 41 45  0  0  0  0  0  0  0  0999 V2000
   -6.0150    1.1150   -4.5590 C   0  0  0  0  0  0  0  0  0  0  0  0
   -4.6980    1.0320   -3.7650 C   0  0  0  0  0  0  0  0  0  0  0  0
   -4.9760    0.1620   -2.5850 C   0  0  0  0  0  0  0  0  0  0  0  0
   -4.8700    0.5370   -1.3440 C   0  0  0  0  0  0  0  0  0  0  0  0
   -4.4540    1.8950   -0.9460 C   0  0  0  0  0  0  0  0  0  0  0  0
   -4.1250    1.8570    0.5550 C   0  0  0  0  0  0  0  0  0  0  0  0
   -3.2780    0.6580    0.7180 N   0  0  0  0  0  0  0  0  0  0  0  0
   -1.9310    0.8210    1.0120 C   0  0  0  0  0  0  0  0  0  0  0  0
   -1.5380    2.0300    1.2200 O   0  0  0  0  0  0  0  0  0  0  0  0
   -0.9580   -0.2320    1.1000 C   0  0  0  0  0  0  0  0  0  0  0  0
   -1.1470   -1.4500    0.8240 O   0  0  0  0  0  0  0  0  0  0  0  0
    0.3860    0.0880    1.5430 N   0  0  0  0  0  0  0  0  0  0  0  0
    1.3820   -0.9410    1.6280 C   0  0  2  0  0  0  0  0  0  0  0  0
    1.6010   -1.4150    3.0530 C   0  0  0  0  0  0  0  0  0  0  0  0
    2.6620   -0.5270    0.9760 C   0  0  0  0  0  0  0  0  0  0  0  0
    2.6860    0.6130    0.4870 O   0  0  0  0  0  0  0  0  0  0  0  0
    3.7920   -1.3500    0.9000 N   0  0  0  0  0  0  0  0  0  0  0  0
    5.0410   -1.0370    0.3100 C   0  0  0  0  0  0  0  0  0  0  0  0
    5.9420   -2.0680    0.0270 C   0  0  0  0  0  0  0  0  0  0  0  0
    7.1760   -1.8080   -0.5390 C   0  0  0  0  0  0  0  0  0  0  0  0
    7.5500   -0.5230   -0.8410 C   0  0  0  0  0  0  0  0  0  0  0  0
    6.6850    0.5460   -0.5770 C   0  0  0  0  0  0  0  0  0  0  0  0
    5.4630    0.2260   -0.0100 C   0  0  0  0  0  0  0  0  0  0  0  0
    7.0370    1.8370   -0.8730 C   0  0  0  0  0  0  0  0  0  0  0  0
    6.2590    2.7730   -0.6310 O   0  0  0  0  0  0  0  0  0  0  0  0
    8.2270    2.0780   -1.4230 N   0  0  0  0  0  0  0  0  0  0  0  0
    9.0890    1.0960   -1.6960 C   0  0  0  0  0  0  0  0  0  0  0  0
   10.3160    1.3550   -2.2710 C   0  0  0  0  0  0  0  0  0  0  0  0
   11.2470    0.3890   -2.5820 C   0  0  0  0  0  0  0  0  0  0  0  0
   10.9000   -0.9190   -2.2850 C   0  0  0  0  0  0  0  0  0  0  0  0
    9.6880   -1.2380   -1.7110 C   0  0  0  0  0  0  0  0  0  0  0  0
    8.7870   -0.2370   -1.4170 C   0  0  0  0  0  0  0  0  0  0  0  0
   -3.9440   -0.6020    0.5890 C   0  0  1  0  0  0  0  0  0  0  0  0
   -4.2280   -1.3150    1.8650 C   0  0  0  0  0  0  0  0  0  0  0  0
   -5.0360   -0.6380    2.8220 N   0  0  0  0  0  0  0  0  0  0  0  0
   -6.4200   -0.4290    2.7010 C   0  0  0  0  0  0  0  0  0  0  0  0
   -7.0410    0.7430    2.9060 C   0  0  0  0  0  0  0  0  0  0  0  0
   -8.4920    0.5680    2.6890 C   0  0  0  0  0  0  0  0  0  0  0  0
   -8.6330   -0.8580    2.3400 C   0  0  0  0  0  0  0  0  0  0  0  0
   -7.4470   -1.4360    2.3440 C   0  0  0  0  0  0  0  0  0  0  0  0
   -5.1940   -0.4330   -0.2410 C   0  0  0  0  0  0  0  0  0  0  0  0
  1  2  1  0
  2  3  1  0
  3  4  2  3
  4  5  1  0
  4 41  1  0
  5  6  1  0
  6  7  1  0
  7  8  1  0
  7 33  1  0
  8  9  2  0
  8 10  1  0
 10 11  2  0
 10 12  1  0
 12 13  1  0
 13 14  1  1
 13 15  1  0
 15 16  2  0
 15 17  1  0
 17 18  1  0
 18 19  2  0
 18 23  1  0
 19 20  1  0
 20 21  2  0
 21 22  1  0
 21 32  1  0
 22 23  2  0
 22 24  1  0
 24 25  2  0
 24 26  1  0
 26 27  1  0
 27 28  2  0
 27 32  1  0
 28 29  1  0
 29 30  2  0
 30 31  1  0
 31 32  2  0
 33 34  1  1
 33 41  1  0
 34 35  1  0
 35 36  1  0
 36 37  2  0
 36 40  1  0
 37 38  1  0
 38 39  1  0
 39 40  2  0
M  END
