
     RDKit          3D

 41 45  0  0  0  0  0  0  0  0999 V2000
    4.8930   -0.1920    3.0770 C   0  0  0  0  0  0  0  0  0  0  0  0
    5.1810   -1.4140    2.7380 C   0  0  0  0  0  0  0  0  0  0  0  0
    5.6290   -1.9300    1.4730 C   0  0  0  0  0  0  0  0  0  0  0  0
    5.8890   -1.3050    0.2830 C   0  0  0  0  0  0  0  0  0  0  0  0
    5.7820    0.1190   -0.0660 C   0  0  0  0  0  0  0  0  0  0  0  0
    4.3610    0.5350   -0.2810 C   0  0  0  0  0  0  0  0  0  0  0  0
    3.4370   -0.3050   -0.1530 O   0  0  0  0  0  0  0  0  0  0  0  0
    4.0120    1.8640   -0.6310 N   0  0  0  0  0  0  0  0  0  0  0  0
    2.6720    2.2890   -0.8420 C   0  0  0  0  0  0  0  0  0  0  0  0
    2.1560    2.1890   -2.1170 C   0  0  0  0  0  0  0  0  0  0  0  0
    2.9880    1.6450   -3.2480 C   0  0  0  0  0  0  0  0  0  0  0  0
    0.8880    2.5940   -2.3070 N   0  0  0  0  0  0  0  0  0  0  0  0
    0.1380    3.0840   -1.2900 C   0  0  0  0  0  0  0  0  0  0  0  0
   -1.0490    3.4610   -1.4820 O   0  0  0  0  0  0  0  0  0  0  0  0
    0.6170    3.1920   -0.0400 N   0  0  0  0  0  0  0  0  0  0  0  0
   -0.1890    3.7080    1.0030 C   0  0  0  0  0  0  0  0  0  0  0  0
   -0.0090    5.0030    1.5030 C   0  0  0  0  0  0  0  0  0  0  0  0
   -0.8080    5.4800    2.5210 C   0  0  0  0  0  0  0  0  0  0  0  0
   -1.7860    4.6670    3.0410 C   0  0  0  0  0  0  0  0  0  0  0  0
   -1.9620    3.4000    2.5520 C   0  0  0  0  0  0  0  0  0  0  0  0
   -1.1720    2.9010    1.5310 C   0  0  0  0  0  0  0  0  0  0  0  0
   -1.3470    1.5580    0.9970 C   0  0  0  0  0  0  0  0  0  0  0  0
   -0.3920    0.8540    0.6170 O   0  0  0  0  0  0  0  0  0  0  0  0
   -2.6500    0.9590    0.8770 N   0  0  0  0  0  0  0  0  0  0  0  0
   -2.8550   -0.3680    0.3530 C   0  0  0  0  0  0  0  0  0  0  0  0
   -4.3380   -0.6500    0.3840 C   0  0  1  0  0  0  0  0  0  0  0  0
   -5.1390    0.3300   -0.4460 C   0  0  0  0  0  0  0  0  0  0  0  0
   -6.3780   -0.4960   -0.7790 C   0  0  0  0  0  0  0  0  0  0  0  0
   -5.9050   -1.9100   -0.7640 C   0  0  0  0  0  0  0  0  0  0  0  0
   -6.4750   -3.0490   -1.3080 C   0  0  0  0  0  0  0  0  0  0  0  0
   -7.7680   -3.0000   -2.0530 C   0  0  0  0  0  0  0  0  0  0  0  0
   -5.8750   -4.2790   -1.1860 C   0  0  0  0  0  0  0  0  0  0  0  0
   -4.6940   -4.3880   -0.5170 C   0  0  0  0  0  0  0  0  0  0  0  0
   -4.1260   -3.2390    0.0270 C   0  0  0  0  0  0  0  0  0  0  0  0
   -4.7010   -1.9930   -0.0770 C   0  0  0  0  0  0  0  0  0  0  0  0
    1.8800    2.7980    0.1960 C   0  0  0  0  0  0  0  0  0  0  0  0
    2.3570    2.8870    1.3580 O   0  0  0  0  0  0  0  0  0  0  0  0
    6.3000   -2.2690   -0.6310 C   0  0  0  0  0  0  0  0  0  0  0  0
    6.2980   -3.4690   -0.0330 N   0  0  0  0  0  0  0  0  0  0  0  0
    5.9030   -3.2860    1.2130 C   0  0  0  0  0  0  0  0  0  0  0  0
    5.7780   -4.4100    2.1900 C   0  0  0  0  0  0  0  0  0  0  0  0
  1  2  2  0
  2  3  1  0
  3  4  1  0
  3 40  2  0
  4  5  1  0
  4 38  2  0
  5  6  1  0
  6  7  2  0
  6  8  1  0
  8  9  1  0
  9 10  2  0
  9 36  1  0
 10 11  1  0
 10 12  1  0
 12 13  1  0
 13 14  2  0
 13 15  1  0
 15 16  1  0
 15 36  1  0
 16 17  2  0
 16 21  1  0
 17 18  1  0
 18 19  2  0
 19 20  1  0
 20 21  2  0
 21 22  1  0
 22 23  2  0
 22 24  1  0
 24 25  1  0
 26 25  1  6
 26 27  1  0
 26 35  1  0
 27 28  1  0
 28 29  1  0
 29 30  2  0
 29 35  1  0
 30 31  1  0
 30 32  1  0
 32 33  2  0
 33 34  1  0
 34 35  2  0
 36 37  2  0
 38 39  1  0
 39 40  1  0
 40 41  1  0
M  END
