
     RDKit          3D

 41 45  0  0  0  0  0  0  0  0999 V2000
    4.4310   -4.4570    1.5980 C   0  0  0  0  0  0  0  0  0  0  0  0
    3.0140   -4.0560    1.5270 C   0  0  0  0  0  0  0  0  0  0  0  0
    1.9270   -4.8480    1.8600 C   0  0  0  0  0  0  0  0  0  0  0  0
    0.8080   -4.1000    1.6520 C   0  0  0  0  0  0  0  0  0  0  0  0
    1.2430   -2.8580    1.1920 C   0  0  0  0  0  0  0  0  0  0  0  0
    0.3060   -1.7730    0.8600 C   0  0  0  0  0  0  0  0  0  0  0  0
    0.6780   -0.6150    0.3620 C   0  0  0  0  0  0  0  0  0  0  0  0
    2.0270   -0.2430    0.0640 C   0  0  0  0  0  0  0  0  0  0  0  0
    2.5270    0.9050    0.6290 C   0  0  0  0  0  0  0  0  0  0  0  0
    3.8030    1.3160    0.3130 C   0  0  0  0  0  0  0  0  0  0  0  0
    4.6150    0.6190   -0.5580 C   0  0  0  0  0  0  0  0  0  0  0  0
    5.9460    1.0180   -0.9180 C   0  0  0  0  0  0  0  0  0  0  0  0
    7.0690    1.3770   -1.2260 C   0  0  0  0  0  0  0  0  0  0  0  0
    8.4410    1.8050   -1.5820 C   0  0  1  0  0  0  0  0  0  0  0  0
    8.3680    2.9110   -2.6370 C   0  0  0  0  0  0  0  0  0  0  0  0
    9.0700    2.4350   -0.3410 C   0  0  0  0  0  0  0  0  0  0  0  0
    9.1150    1.4770    0.7260 N   0  0  0  0  0  0  0  0  0  0  0  0
    4.0710   -0.5310   -1.1040 C   0  0  0  0  0  0  0  0  0  0  0  0
    2.8020   -0.9700   -0.8110 C   0  0  0  0  0  0  0  0  0  0  0  0
   -1.0890   -1.9600    1.0660 N   0  0  0  0  0  0  0  0  0  0  0  0
   -1.5840   -1.5640    2.3760 C   0  0  0  0  0  0  0  0  0  0  0  0
   -3.1300   -1.5600    2.2830 C   0  0  0  0  0  0  0  0  0  0  0  0
   -3.5450   -0.3620    1.4380 C   0  0  0  0  0  0  0  0  0  0  0  0
   -3.5970   -0.7220    0.0570 N   0  0  0  0  0  0  0  0  0  0  0  0
   -4.5370   -0.0730   -0.7890 C   0  0  0  0  0  0  0  0  0  0  0  0
   -4.5730   -0.5410   -2.0060 O   0  0  0  0  0  0  0  0  0  0  0  0
   -5.4540    1.0070   -0.5240 C   0  0  0  0  0  0  0  0  0  0  0  0
   -5.4040    1.8830    0.5250 C   0  0  0  0  0  0  0  0  0  0  0  0
   -6.3910    2.8420    0.7300 C   0  0  0  0  0  0  0  0  0  0  0  0
   -7.4670    2.9690   -0.1050 C   0  0  0  0  0  0  0  0  0  0  0  0
   -8.3980    3.9040    0.1260 N   0  0  0  0  0  0  0  0  0  0  0  0
   -9.4300    3.9840   -0.7180 C   0  0  0  0  0  0  0  0  0  0  0  0
  -10.3250    4.8580   -0.5240 O   0  0  0  0  0  0  0  0  0  0  0  0
   -9.5600    3.1740   -1.7690 N   0  0  0  0  0  0  0  0  0  0  0  0
   -8.6410    2.2330   -2.0190 C   0  0  0  0  0  0  0  0  0  0  0  0
   -8.7170    1.4420   -2.9980 O   0  0  0  0  0  0  0  0  0  0  0  0
   -7.5370    2.0990   -1.1710 C   0  0  0  0  0  0  0  0  0  0  0  0
   -6.5750    1.1600   -1.3730 C   0  0  0  0  0  0  0  0  0  0  0  0
   -2.7900   -1.6490   -0.6960 C   0  0  0  0  0  0  0  0  0  0  0  0
   -1.8210   -2.5070   -0.0270 C   0  0  0  0  0  0  0  0  0  0  0  0
    2.5360   -2.8780    1.1350 O   0  0  0  0  0  0  0  0  0  0  0  0
  1  2  1  0
  2  3  2  0
  2 41  1  0
  3  4  1  0
  4  5  2  0
  5  6  1  0
  5 41  1  0
  6  7  2  3
  6 20  1  0
  7  8  1  0
  8  9  2  0
  8 19  1  0
  9 10  1  0
 10 11  2  0
 11 12  1  0
 11 18  1  0
 12 13  3  0
 13 14  1  0
 14 15  1  6
 14 16  1  0
 16 17  1  0
 18 19  2  0
 20 21  1  0
 20 40  1  0
 21 22  1  0
 22 23  1  0
 23 24  1  0
 24 25  1  0
 24 39  1  0
 25 26  2  0
 25 27  1  0
 27 28  2  0
 27 38  1  0
 28 29  1  0
 29 30  2  0
 30 31  1  0
 30 37  1  0
 31 32  1  0
 32 33  2  0
 32 34  1  0
 34 35  1  0
 35 36  2  0
 35 37  1  0
 37 38  2  0
 39 40  1  0
M  END
