
     RDKit          3D

 13 14  0  0  0  0  0  0  0  0999 V2000
   -4.5810    0.5200   -1.1020 O   0  0  0  0  0  0  0  0  0  0  0  0
   -3.3110    0.3170   -0.5810 C   0  0  0  0  0  0  0  0  0  0  0  0
   -2.2210    0.9220   -1.1640 C   0  0  0  0  0  0  0  0  0  0  0  0
   -0.9370    0.7170   -0.6380 C   0  0  0  0  0  0  0  0  0  0  0  0
   -0.7020   -0.0790    0.4580 C   0  0  0  0  0  0  0  0  0  0  0  0
    0.5690   -0.3320    1.0020 N   0  0  0  0  0  0  0  0  0  0  0  0
    1.8190   -0.2150    0.3880 C   0  0  0  0  0  0  0  0  0  0  0  0
    2.1650   -0.1680   -0.9480 C   0  0  0  0  0  0  0  0  0  0  0  0
    3.5510   -0.0200   -1.0590 C   0  0  0  0  0  0  0  0  0  0  0  0
    4.0290    0.0200    0.2000 N   0  0  0  0  0  0  0  0  0  0  0  0
    3.0300   -0.0920    1.0800 C   0  0  0  0  0  0  0  0  0  0  0  0
   -1.8370   -0.6750    1.0210 C   0  0  0  0  0  0  0  0  0  0  0  0
   -3.1020   -0.4840    0.5180 C   0  0  0  0  0  0  0  0  0  0  0  0
  1  2  1  0
  2  3  2  0
  2 13  1  0
  3  4  1  0
  4  5  2  0
  5  6  1  0
  5 12  1  0
  6  7  1  0
  7  8  1  0
  7 11  2  0
  8  9  2  0
  9 10  1  0
 10 11  1  0
 12 13  2  0
M  END
