
     RDKit          3D

 13 14  0  0  0  0  0  0  0  0999 V2000
   -2.3260    1.5270    1.4890 N   0  0  0  0  0  0  0  0  0  0  0  0
   -2.1820    0.5750    0.4580 C   0  0  0  0  0  0  0  0  0  0  0  0
   -3.3010    0.0570   -0.1930 C   0  0  0  0  0  0  0  0  0  0  0  0
   -3.1220   -0.8710   -1.1950 C   0  0  0  0  0  0  0  0  0  0  0  0
   -1.8260   -1.2520   -1.5150 C   0  0  0  0  0  0  0  0  0  0  0  0
   -0.7700   -0.7230   -0.8570 N   0  0  0  0  0  0  0  0  0  0  0  0
   -0.9010    0.1850    0.1270 C   0  0  0  0  0  0  0  0  0  0  0  0
    0.1860    0.7280    0.8030 O   0  0  0  0  0  0  0  0  0  0  0  0
    1.4760    0.3360    0.4700 C   0  0  0  0  0  0  0  0  0  0  0  0
    1.9030   -0.9150    0.3790 C   0  0  0  0  0  0  0  0  0  0  0  0
    3.3330   -0.9030    0.0020 C   0  0  0  0  0  0  0  0  0  0  0  0
    3.6770    0.5370   -0.1130 C   0  0  0  0  0  0  0  0  0  0  0  0
    2.5850    1.2320    0.1630 C   0  0  0  0  0  0  0  0  0  0  0  0
  1  2  1  0
  2  3  2  0
  2  7  1  0
  3  4  1  0
  4  5  2  0
  5  6  1  0
  6  7  2  0
  7  8  1  0
  8  9  1  0
  9 10  2  0
  9 13  1  0
 10 11  1  0
 11 12  1  0
 12 13  2  0
M  END
