
     RDKit          3D

 13 14  0  0  0  0  0  0  0  0999 V2000
   -0.2000    0.9050   -1.3100 O   0  0  0  0  0  0  0  0  0  0  0  0
   -0.6330    0.2580   -0.3230 C   0  0  0  0  0  0  0  0  0  0  0  0
    0.3110   -0.3740    0.5190 N   0  0  0  0  0  0  0  0  0  0  0  0
    1.6940   -0.2490    0.2130 C   0  0  0  0  0  0  0  0  0  0  0  0
    2.5730   -1.2060   -0.0570 C   0  0  0  0  0  0  0  0  0  0  0  0
    3.8940   -0.6380   -0.3160 C   0  0  0  0  0  0  0  0  0  0  0  0
    3.6660    0.8180   -0.1580 C   0  0  0  0  0  0  0  0  0  0  0  0
    2.3980    1.0270    0.1460 C   0  0  0  0  0  0  0  0  0  0  0  0
   -2.0790    0.1800   -0.0800 C   0  0  0  0  0  0  0  0  0  0  0  0
   -3.0540    0.7520   -0.8330 C   0  0  0  0  0  0  0  0  0  0  0  0
   -4.2640    0.4290   -0.2510 C   0  0  0  0  0  0  0  0  0  0  0  0
   -4.0120   -0.3460    0.8620 C   0  0  0  0  0  0  0  0  0  0  0  0
   -2.6760   -0.4740    0.9310 N   0  0  0  0  0  0  0  0  0  0  0  0
  1  2  2  0
  2  3  1  0
  2  9  1  0
  3  4  1  0
  4  5  2  0
  4  8  1  0
  5  6  1  0
  6  7  1  0
  7  8  2  0
  9 10  2  0
  9 13  1  0
 10 11  1  0
 11 12  2  0
 12 13  1  0
M  END
