
     RDKit          3D

 25 28  0  0  0  0  0  0  0  0999 V2000
   -4.4210   -3.1630   -0.2260 C   0  0  0  0  0  0  0  0  0  0  0  0
   -3.4260   -2.0430   -0.3110 C   0  0  0  0  0  0  0  0  0  0  0  0
   -3.8350   -0.8140   -0.0700 C   0  0  0  0  0  0  0  0  0  0  0  0
   -5.2530   -0.6120    0.2700 C   0  0  0  0  0  0  0  0  0  0  0  0
   -5.2720    0.0740    1.9420 Cl  0  0  0  0  0  0  0  0  0  0  0  0
   -2.8600    0.2640   -0.0820 C   0  0  0  0  0  0  0  0  0  0  0  0
   -1.4850   -0.0400   -0.0380 C   0  0  0  0  0  0  0  0  0  0  0  0
   -0.5180    0.9300   -0.0920 C   0  0  0  0  0  0  0  0  0  0  0  0
    0.8720    0.8680   -0.0630 C   0  0  0  0  0  0  0  0  0  0  0  0
    1.3430    2.1620   -0.1480 C   0  0  0  0  0  0  0  0  0  0  0  0
    0.3060    2.9620   -0.2230 O   0  0  0  0  0  0  0  0  0  0  0  0
   -0.8280    2.2580   -0.1920 C   0  0  0  0  0  0  0  0  0  0  0  0
   -2.1470    2.5980   -0.2390 C   0  0  0  0  0  0  0  0  0  0  0  0
   -3.1380    1.6050   -0.1850 C   0  0  0  0  0  0  0  0  0  0  0  0
   -4.5000    2.0360   -0.3010 N   0  0  0  0  0  0  0  0  0  0  0  0
    2.7960    2.0230   -0.1130 C   0  0  0  0  0  0  0  0  0  0  0  0
    3.5970    2.9970   -0.1690 O   0  0  0  0  0  0  0  0  0  0  0  0
    3.1860    0.6610   -0.0090 N   0  0  0  0  0  0  0  0  0  0  0  0
    4.5380    0.1690    0.0510 C   0  0  0  0  0  0  0  0  0  0  0  0
    4.8710   -0.9450    0.7910 C   0  0  0  0  0  0  0  0  0  0  0  0
    6.1950   -1.3970    0.8270 C   0  0  0  0  0  0  0  0  0  0  0  0
    7.1890   -0.7430    0.1300 C   0  0  0  0  0  0  0  0  0  0  0  0
    6.8100    0.3680   -0.5970 C   0  0  0  0  0  0  0  0  0  0  0  0
    5.5340    0.7840   -0.6190 N   0  0  0  0  0  0  0  0  0  0  0  0
    1.9630   -0.1090    0.0250 C   0  0  0  0  0  0  0  0  0  0  0  0
  1  2  1  0
  2  3  2  3
  3  4  1  0
  3  6  1  0
  4  5  1  0
  6  7  2  0
  6 14  1  0
  7  8  1  0
  8  9  1  0
  8 12  2  0
  9 10  2  0
  9 25  1  0
 10 11  1  0
 10 16  1  0
 11 12  1  0
 12 13  1  0
 13 14  2  0
 14 15  1  0
 16 17  2  0
 16 18  1  0
 18 19  1  0
 18 25  1  0
 19 20  2  0
 19 24  1  0
 20 21  1  0
 21 22  2  0
 22 23  1  0
 23 24  2  0
M  END
