
     RDKit          3D

 25 28  0  0  0  0  0  0  0  0999 V2000
    2.0910   -1.0950   -1.1180 O   0  0  0  0  0  0  0  0  0  0  0  0
    2.0640   -0.1680   -0.2950 C   0  0  0  0  0  0  0  0  0  0  0  0
    3.2370    0.4210    0.2350 N   0  0  0  0  0  0  0  0  0  0  0  0
    4.5390    0.0410   -0.0950 C   0  0  0  0  0  0  0  0  0  0  0  0
    4.8800   -0.9470   -0.9710 C   0  0  0  0  0  0  0  0  0  0  0  0
    6.2210   -1.2750   -1.2540 C   0  0  0  0  0  0  0  0  0  0  0  0
    7.2320   -0.5780   -0.6290 C   0  0  0  0  0  0  0  0  0  0  0  0
    6.9270    0.4290    0.2630 C   0  0  0  0  0  0  0  0  0  0  0  0
    5.5980    0.7140    0.5090 C   0  0  0  0  0  0  0  0  0  0  0  0
    5.2360    1.9840    1.6350 Cl  0  0  0  0  0  0  0  0  0  0  0  0
    0.7320    0.3400    0.1490 C   0  0  0  0  0  0  0  0  0  0  0  0
   -0.3800   -0.1890   -0.3280 C   0  0  0  0  0  0  0  0  0  0  0  0
   -1.7140    0.2550    0.0590 C   0  0  0  0  0  0  0  0  0  0  0  0
   -2.8670   -0.3030   -0.4430 C   0  0  0  0  0  0  0  0  0  0  0  0
   -4.1050    0.1540   -0.0440 C   0  0  0  0  0  0  0  0  0  0  0  0
   -5.3070   -0.4650   -0.6010 C   0  0  0  0  0  0  0  0  0  0  0  0
   -5.3520   -1.4950   -1.5160 C   0  0  0  0  0  0  0  0  0  0  0  0
   -6.6770   -1.7960   -1.7910 C   0  0  0  0  0  0  0  0  0  0  0  0
   -7.4010   -0.9530   -1.0460 N   0  0  0  0  0  0  0  0  0  0  0  0
   -6.5930   -0.1660   -0.3430 N   0  0  0  0  0  0  0  0  0  0  0  0
   -4.1800    1.1830    0.8700 C   0  0  0  0  0  0  0  0  0  0  0  0
   -3.0540    1.7710    1.3990 C   0  0  0  0  0  0  0  0  0  0  0  0
   -1.8090    1.2840    0.9720 C   0  0  0  0  0  0  0  0  0  0  0  0
   -0.6340    1.8210    1.4570 O   0  0  0  0  0  0  0  0  0  0  0  0
    0.6600    1.4320    1.1190 C   0  0  0  0  0  0  0  0  0  0  0  0
  1  2  2  0
  2  3  1  0
  2 11  1  0
  3  4  1  0
  4  5  2  0
  4  9  1  0
  5  6  1  0
  6  7  2  0
  7  8  1  0
  8  9  2  0
  9 10  1  0
 11 12  2  0
 11 25  1  0
 12 13  1  0
 13 14  2  0
 13 23  1  0
 14 15  1  0
 15 16  1  0
 15 21  2  0
 16 17  1  0
 16 20  2  0
 17 18  2  0
 18 19  1  0
 19 20  1  0
 21 22  1  0
 22 23  2  0
 23 24  1  0
 24 25  1  0
M  END
