
     RDKit          3D

 23 25  0  0  0  0  0  0  0  0999 V2000
   -2.4440   -1.9490   -0.8830 C   0  0  0  0  0  0  0  0  0  0  0  0
   -3.6350   -1.0630   -0.8990 C   0  0  0  0  0  0  0  0  0  0  0  0
   -3.6180    0.0720   -0.2010 C   0  0  0  0  0  0  0  0  0  0  0  0
   -4.7110    1.0860   -0.0940 C   0  0  0  0  0  0  0  0  0  0  0  0
   -4.3990    1.7330    1.2400 C   0  0  0  0  0  0  0  0  0  0  0  0
   -2.9490    1.5120    1.4420 C   0  0  0  0  0  0  0  0  0  0  0  0
   -1.9850    2.3870    2.6040 Cl  0  0  0  0  0  0  0  0  0  0  0  0
   -2.5080    0.5550    0.6100 C   0  0  0  0  0  0  0  0  0  0  0  0
   -1.1890    0.1250    0.5620 O   0  0  0  0  0  0  0  0  0  0  0  0
   -0.1580    0.9040    0.0810 C   0  0  0  0  0  0  0  0  0  0  0  0
   -0.3420    2.1790   -0.3960 C   0  0  0  0  0  0  0  0  0  0  0  0
    0.7350    2.9370   -0.8760 C   0  0  0  0  0  0  0  0  0  0  0  0
    1.9820    2.3800   -0.8620 C   0  0  0  0  0  0  0  0  0  0  0  0
    2.2030    1.1010   -0.3890 C   0  0  0  0  0  0  0  0  0  0  0  0
    1.1200    0.3800    0.0780 C   0  0  0  0  0  0  0  0  0  0  0  0
    1.3320   -0.8990    0.5520 O   0  0  0  0  0  0  0  0  0  0  0  0
    2.6160   -1.4160    0.5450 C   0  0  0  0  0  0  0  0  0  0  0  0
    3.4330   -1.2360    1.6380 C   0  0  0  0  0  0  0  0  0  0  0  0
    4.6990   -1.7390    1.6430 C   0  0  0  0  0  0  0  0  0  0  0  0
    5.2210   -2.4430    0.5750 C   0  0  0  0  0  0  0  0  0  0  0  0
    6.8540   -3.0710    0.6310 Cl  0  0  0  0  0  0  0  0  0  0  0  0
    4.3870   -2.6110   -0.5040 C   0  0  0  0  0  0  0  0  0  0  0  0
    3.1090   -2.1150   -0.5370 C   0  0  0  0  0  0  0  0  0  0  0  0
  1  2  1  0
  2  3  2  3
  3  4  1  0
  3  8  1  0
  4  5  1  0
  5  6  1  0
  6  7  1  0
  6  8  2  0
  8  9  1  0
  9 10  1  0
 10 11  2  0
 10 15  1  0
 11 12  1  0
 12 13  2  0
 13 14  1  0
 14 15  2  0
 15 16  1  0
 16 17  1  0
 17 18  2  0
 17 23  1  0
 18 19  1  0
 19 20  2  0
 20 21  1  0
 20 22  1  0
 22 23  2  0
M  END
