
     RDKit          3D

 22 24  0  0  0  0  0  0  0  0999 V2000
   -2.6130    3.0300    0.1190 C   0  0  0  0  0  0  0  0  0  0  0  0
   -2.5910    1.5450    0.1160 C   0  0  0  0  0  0  0  0  0  0  0  0
   -3.7330    0.8850   -0.2750 C   0  0  0  0  0  0  0  0  0  0  0  0
   -3.7290   -0.4860   -0.2840 C   0  0  0  0  0  0  0  0  0  0  0  0
   -4.9490   -1.2290   -0.7000 C   0  0  0  0  0  0  0  0  0  0  0  0
   -2.5880   -1.1770    0.0950 C   0  0  0  0  0  0  0  0  0  0  0  0
   -2.6220   -2.6430    0.0790 C   0  0  0  0  0  0  0  0  0  0  0  0
   -1.4370   -0.5290    0.4880 C   0  0  0  0  0  0  0  0  0  0  0  0
   -0.2470   -1.3050    0.8760 C   0  0  2  0  0  0  0  0  0  0  0  0
   -0.1520   -1.2620    2.2680 O   0  0  0  0  0  0  0  0  0  0  0  0
    1.0140   -0.8040    0.2970 C   0  0  0  0  0  0  0  0  0  0  0  0
    1.9810   -0.2300    1.1100 C   0  0  0  0  0  0  0  0  0  0  0  0
    3.1850    0.2550    0.6150 C   0  0  0  0  0  0  0  0  0  0  0  0
    4.2240    0.8270    1.1930 O   0  0  0  0  0  0  0  0  0  0  0  0
    5.1350    1.1190    0.3250 C   0  0  0  0  0  0  0  0  0  0  0  0
    6.4660    1.7750    0.5590 C   0  0  0  0  0  0  0  0  0  0  0  0
    4.6910    0.7230   -0.9190 C   0  0  0  0  0  0  0  0  0  0  0  0
    3.4390    0.1680   -0.7380 C   0  0  0  0  0  0  0  0  0  0  0  0
    2.5090   -0.3920   -1.5620 C   0  0  0  0  0  0  0  0  0  0  0  0
    1.3010   -0.8760   -1.0480 C   0  0  0  0  0  0  0  0  0  0  0  0
    0.1360   -1.5810   -2.1280 Cl  0  0  0  0  0  0  0  0  0  0  0  0
   -1.4450    0.8490    0.4960 C   0  0  0  0  0  0  0  0  0  0  0  0
  1  2  1  0
  2  3  2  0
  2 22  1  0
  3  4  1  0
  4  5  1  0
  4  6  2  0
  6  7  1  0
  6  8  1  0
  8  9  1  0
  8 22  2  0
  9 10  1  1
  9 11  1  0
 11 12  2  0
 11 20  1  0
 12 13  1  0
 13 14  1  0
 13 18  2  0
 14 15  1  0
 15 16  1  0
 15 17  2  0
 17 18  1  0
 18 19  1  0
 19 20  2  0
 20 21  1  0
M  END
