
     RDKit          3D

 23 25  0  0  0  0  0  0  0  0999 V2000
   -3.7540   -1.6920    0.6050 C   0  0  0  0  0  0  0  0  0  0  0  0
   -3.9360   -0.2520    0.3280 C   0  0  0  0  0  0  0  0  0  0  0  0
   -5.2050    0.3400    0.3490 C   0  0  0  0  0  0  0  0  0  0  0  0
   -5.4020    1.6650    0.0900 C   0  0  0  0  0  0  0  0  0  0  0  0
   -4.2950    2.4280   -0.2010 C   0  0  0  0  0  0  0  0  0  0  0  0
   -3.0450    1.8790   -0.2290 C   0  0  0  0  0  0  0  0  0  0  0  0
   -2.8370    0.5180    0.0370 C   0  0  0  0  0  0  0  0  0  0  0  0
   -1.4770   -0.0040   -0.0020 C   0  0  0  0  0  0  0  0  0  0  0  0
   -0.9600   -0.7960    0.9960 C   0  0  0  0  0  0  0  0  0  0  0  0
    0.3230   -1.2980    0.9680 C   0  0  0  0  0  0  0  0  0  0  0  0
    1.1620   -1.0080   -0.1080 C   0  0  0  0  0  0  0  0  0  0  0  0
    2.4430   -1.5240   -0.1130 O   0  0  0  0  0  0  0  0  0  0  0  0
    3.6050   -0.7860   -0.1130 C   0  0  0  0  0  0  0  0  0  0  0  0
    3.6770    0.5790   -0.0800 C   0  0  0  0  0  0  0  0  0  0  0  0
    4.9030    1.2360   -0.0840 C   0  0  0  0  0  0  0  0  0  0  0  0
    6.0980    0.5540   -0.1200 C   0  0  0  0  0  0  0  0  0  0  0  0
    7.6460    1.3690   -0.1260 Cl  0  0  0  0  0  0  0  0  0  0  0  0
    6.0290   -0.8210   -0.1530 C   0  0  0  0  0  0  0  0  0  0  0  0
    4.8210   -1.4820   -0.1500 C   0  0  0  0  0  0  0  0  0  0  0  0
    4.7930   -3.2310   -0.1920 Cl  0  0  0  0  0  0  0  0  0  0  0  0
    0.6620   -0.2160   -1.1170 C   0  0  0  0  0  0  0  0  0  0  0  0
    1.5080    0.0620   -2.1800 O   0  0  0  0  0  0  0  0  0  0  0  0
   -0.6270    0.2760   -1.0680 C   0  0  0  0  0  0  0  0  0  0  0  0
  1  2  1  0
  2  3  2  0
  2  7  1  0
  3  4  1  0
  4  5  2  0
  5  6  1  0
  6  7  2  0
  7  8  1  0
  8  9  2  0
  8 23  1  0
  9 10  1  0
 10 11  2  0
 11 12  1  0
 11 21  1  0
 12 13  1  0
 13 14  2  0
 13 19  1  0
 14 15  1  0
 15 16  2  0
 16 17  1  0
 16 18  1  0
 18 19  2  0
 19 20  1  0
 21 22  1  0
 21 23  2  0
M  END
