
     RDKit          3D

 23 25  0  0  0  0  0  0  0  0999 V2000
   -4.7650   -0.8160   -2.0930 C   0  0  0  0  0  0  0  0  0  0  0  0
   -3.7980   -0.8860   -0.9490 C   0  0  0  0  0  0  0  0  0  0  0  0
   -3.7560   -2.0420   -0.2010 C   0  0  0  0  0  0  0  0  0  0  0  0
   -2.8680   -2.1080    0.8500 C   0  0  0  0  0  0  0  0  0  0  0  0
   -2.8150   -3.5750    1.7990 Cl  0  0  0  0  0  0  0  0  0  0  0  0
   -2.0220   -1.0390    1.1650 C   0  0  0  0  0  0  0  0  0  0  0  0
   -2.0620    0.1170    0.4190 C   0  0  0  0  0  0  0  0  0  0  0  0
   -1.1850    1.2690    0.7180 C   0  0  1  0  0  0  0  0  0  0  0  0
   -1.3810    1.8370    2.0950 C   0  0  0  0  0  0  0  0  0  0  0  0
    0.0030    2.4190    2.3930 C   0  0  0  0  0  0  0  0  0  0  0  0
    0.8330    1.2050    1.9330 C   0  0  0  0  0  0  0  0  0  0  0  0
    0.2650    0.9400    0.5860 C   0  0  0  0  0  0  0  0  0  0  0  0
    0.8040    0.4820   -0.5040 C   0  0  0  0  0  0  0  0  0  0  0  0
    2.2020    0.1460   -0.7140 C   0  0  0  0  0  0  0  0  0  0  0  0
    2.5550   -1.1630   -1.0620 C   0  0  0  0  0  0  0  0  0  0  0  0
    3.8560   -1.5410   -1.3120 C   0  0  0  0  0  0  0  0  0  0  0  0
    4.2040   -2.8380   -1.6570 O   0  0  0  0  0  0  0  0  0  0  0  0
    4.8210   -0.5630   -1.2060 C   0  0  0  0  0  0  0  0  0  0  0  0
    6.1460   -0.9060   -1.4510 O   0  0  0  0  0  0  0  0  0  0  0  0
    4.4930    0.7240   -0.8680 C   0  0  0  0  0  0  0  0  0  0  0  0
    3.1710    1.0990   -0.6160 C   0  0  0  0  0  0  0  0  0  0  0  0
    2.8420    2.7980   -0.2460 Cl  0  0  0  0  0  0  0  0  0  0  0  0
   -2.9590    0.1650   -0.6310 C   0  0  0  0  0  0  0  0  0  0  0  0
  1  2  1  0
  2  3  2  0
  2 23  1  0
  3  4  1  0
  4  5  1  0
  4  6  2  0
  6  7  1  0
  8  7  1  1
  7 23  2  0
  8  9  1  0
  8 12  1  0
  9 10  1  0
 10 11  1  0
 11 12  1  0
 12 13  2  3
 13 14  1  0
 14 15  2  0
 14 21  1  0
 15 16  1  0
 16 17  1  0
 16 18  2  0
 18 19  1  0
 18 20  1  0
 20 21  2  0
 21 22  1  0
M  END
