
     RDKit          3D

 45 49  0  0  0  0  0  0  0  0999 V2000
   -6.7490   -1.2390    4.2270 C   0  0  0  0  0  0  0  0  0  0  0  0
   -7.3870   -0.2960    3.2350 C   0  0  2  0  0  0  0  0  0  0  0  0
   -7.6860   -1.0390    1.9780 C   0  0  0  0  0  0  0  0  0  0  0  0
   -7.8740   -0.2130    0.7730 C   0  0  0  0  0  0  0  0  0  0  0  0
   -8.6590   -0.5310   -0.0720 O   0  0  0  0  0  0  0  0  0  0  0  0
   -7.0660    1.0170    0.6400 C   0  0  2  0  0  0  0  0  0  0  0  0
   -5.7370    0.5990    0.2930 N   0  0  0  0  0  0  0  0  0  0  0  0
   -4.9930    1.0570   -0.8140 C   0  0  0  0  0  0  0  0  0  0  0  0
   -5.4770    1.8920   -1.5730 O   0  0  0  0  0  0  0  0  0  0  0  0
   -3.6070    0.5710   -1.1290 C   0  0  2  0  0  0  0  0  0  0  0  0
   -3.0300    1.2180   -2.1990 O   0  0  0  0  0  0  0  0  0  0  0  0
   -1.6580    1.4330   -2.2790 C   0  0  0  0  0  0  0  0  0  0  0  0
   -1.1510    2.1510   -3.3790 C   0  0  0  0  0  0  0  0  0  0  0  0
    0.2020    2.3610   -3.4610 C   0  0  0  0  0  0  0  0  0  0  0  0
    1.1130    1.9170   -2.5370 C   0  0  0  0  0  0  0  0  0  0  0  0
    0.6290    1.2130   -1.4560 C   0  0  0  0  0  0  0  0  0  0  0  0
    1.4600    0.7150   -0.4630 O   0  0  0  0  0  0  0  0  0  0  0  0
    2.8300    0.8160   -0.4910 C   0  0  0  0  0  0  0  0  0  0  0  0
    3.5070    1.8810    0.0480 C   0  0  0  0  0  0  0  0  0  0  0  0
    4.8970    1.9760    0.0170 C   0  0  0  0  0  0  0  0  0  0  0  0
    5.5920    0.9700   -0.5720 C   0  0  0  0  0  0  0  0  0  0  0  0
    7.0620    1.0000   -0.6320 C   0  0  0  0  0  0  0  0  0  0  0  0
    7.6450    0.1220   -1.3100 O   0  0  0  0  0  0  0  0  0  0  0  0
    7.8600    1.9490    0.0250 N   0  0  0  0  0  0  0  0  0  0  0  0
    9.2770    2.0670    0.0630 C   0  0  0  0  0  0  0  0  0  0  0  0
   10.1010    1.0520    0.7190 C   0  0  1  0  0  0  0  0  0  0  0  0
    9.7450    0.8760    2.2010 C   0  0  0  0  0  0  0  0  0  0  0  0
    8.9700   -0.3990    2.1910 C   0  0  0  0  0  0  0  0  0  0  0  0
    9.3620   -1.1670    1.0220 N   0  0  2  0  0  0  0  0  0  0  0  0
   10.1000   -2.3530    1.4920 C   0  0  0  0  0  0  0  0  0  0  0  0
   10.2070   -0.3250    0.2280 C   0  0  0  0  0  0  0  0  0  0  0  0
    4.9610   -0.1240   -1.1310 C   0  0  0  0  0  0  0  0  0  0  0  0
    3.5870   -0.1990   -1.0890 C   0  0  0  0  0  0  0  0  0  0  0  0
   -0.7520    0.9910   -1.3590 C   0  0  0  0  0  0  0  0  0  0  0  0
   -3.8590   -0.8590   -1.5860 C   0  0  0  0  0  0  0  0  0  0  0  0
   -4.3810   -1.1230   -2.8320 C   0  0  0  0  0  0  0  0  0  0  0  0
   -4.6150   -2.4310   -3.2560 C   0  0  0  0  0  0  0  0  0  0  0  0
   -4.3300   -3.4990   -2.4380 C   0  0  0  0  0  0  0  0  0  0  0  0
   -4.5740   -4.9160   -2.8730 C   0  0  0  0  0  0  0  0  0  0  0  0
   -5.9270   -5.3260   -2.5090 N   0  0  0  0  0  0  0  0  0  0  0  0
   -3.8070   -3.2420   -1.1890 C   0  0  0  0  0  0  0  0  0  0  0  0
   -3.5750   -1.9250   -0.7710 C   0  0  0  0  0  0  0  0  0  0  0  0
   -7.2060    1.7340    1.9470 C   0  0  2  0  0  0  0  0  0  0  0  0
   -6.8460    3.1880    1.9110 C   0  0  0  0  0  0  0  0  0  0  0  0
   -6.5270    0.9460    3.0100 C   0  0  0  0  0  0  0  0  0  0  0  0
  2  1  1  1
  2  3  1  0
  2 45  1  0
  3  4  1  0
  4  5  2  0
  4  6  1  0
  6  7  1  1
  6 43  1  0
  7  8  1  0
  8  9  2  0
  8 10  1  0
 10 11  1  6
 10 35  1  0
 11 12  1  0
 12 13  2  0
 12 34  1  0
 13 14  1  0
 14 15  2  0
 15 16  1  0
 16 17  1  0
 16 34  2  0
 17 18  1  0
 18 19  2  0
 18 33  1  0
 19 20  1  0
 20 21  2  0
 21 22  1  0
 21 32  1  0
 22 23  2  0
 22 24  1  0
 24 25  1  0
 26 25  1  6
 26 27  1  0
 26 31  1  0
 27 28  1  0
 28 29  1  0
 29 30  1  1
 29 31  1  0
 32 33  2  0
 35 36  2  0
 35 42  1  0
 36 37  1  0
 37 38  2  0
 38 39  1  0
 38 41  1  0
 39 40  1  0
 41 42  2  0
 43 44  1  6
 43 45  1  0
M  CHG  2  29   1  40   1
M  END
