
     RDKit          3D

 45 49  0  0  0  0  0  0  0  0999 V2000
   -4.5980   -4.8860   -1.9740 C   0  0  0  0  0  0  0  0  0  0  0  0
   -4.1300   -3.6260   -1.3400 C   0  0  0  0  0  0  0  0  0  0  0  0
   -2.8420   -3.2010   -1.6140 C   0  0  0  0  0  0  0  0  0  0  0  0
   -2.4080   -2.0280   -1.0230 C   0  0  0  0  0  0  0  0  0  0  0  0
   -3.2100   -1.2990   -0.1960 C   0  0  0  0  0  0  0  0  0  0  0  0
   -2.8010   -0.1580    0.3870 O   0  0  0  0  0  0  0  0  0  0  0  0
   -1.6330    0.5290    0.3090 C   0  0  0  0  0  0  0  0  0  0  0  0
   -1.2520    1.1200   -1.0250 C   0  0  0  0  0  0  0  0  0  0  0  0
    0.0300    1.7930   -0.8270 N   0  0  0  0  0  0  0  0  0  0  0  0
    1.2890    1.1900   -1.0150 C   0  0  0  0  0  0  0  0  0  0  0  0
    2.3200    1.8650   -0.7660 O   0  0  0  0  0  0  0  0  0  0  0  0
    1.3740   -0.2040   -1.4980 C   0  0  0  0  0  0  0  0  0  0  0  0
    2.7860   -0.6190   -1.6270 N   0  0  0  0  0  0  0  0  0  0  0  0
    3.4120   -0.7950   -0.3580 C   0  0  2  0  0  0  0  0  0  0  0  0
    4.8670   -0.3370   -0.3290 C   0  0  0  0  0  0  0  0  0  0  0  0
    5.4040   -0.4570    1.0420 C   0  0  0  0  0  0  0  0  0  0  0  0
    6.3840   -1.5150    1.3140 C   0  0  0  0  0  0  0  0  0  0  0  0
    6.5050   -2.6450    0.3570 C   0  0  1  0  0  0  0  0  0  0  0  0
    7.6810   -3.4390    0.7880 C   0  0  0  0  0  0  0  0  0  0  0  0
    8.9540   -2.8710    1.0070 N   0  0  0  0  0  0  0  0  0  0  0  0
    7.5410   -4.6660    0.9650 O   0  0  0  0  0  0  0  0  0  0  0  0
    5.4060   -3.5240    0.2380 N   0  0  1  0  0  0  0  0  0  0  0  0
    4.9120   -4.0870    1.4600 C   0  0  0  0  0  0  0  0  0  0  0  0
    4.3170   -3.0440   -0.5880 C   0  0  0  0  0  0  0  0  0  0  0  0
    3.3370   -2.1980    0.1610 C   0  0  0  0  0  0  0  0  0  0  0  0
   -0.0520    3.1680   -0.3900 C   0  0  0  0  0  0  0  0  0  0  0  0
    0.5160    3.5890    0.7940 C   0  0  0  0  0  0  0  0  0  0  0  0
    0.4300    4.9060    1.2050 C   0  0  0  0  0  0  0  0  0  0  0  0
   -0.2310    5.8310    0.4320 C   0  0  0  0  0  0  0  0  0  0  0  0
   -0.7950    5.4160   -0.7440 C   0  0  0  0  0  0  0  0  0  0  0  0
   -0.7110    4.1060   -1.1560 C   0  0  0  0  0  0  0  0  0  0  0  0
   -1.5110    6.4510   -1.5670 C   0  0  2  0  0  0  0  0  0  0  0  0
   -1.7260    6.0310   -2.8580 O   0  0  0  0  0  0  0  0  0  0  0  0
   -0.6610    7.7080   -1.4870 C   0  0  0  0  0  0  0  0  0  0  0  0
   -0.7440    8.2190   -0.0730 C   0  0  0  0  0  0  0  0  0  0  0  0
   -0.2810    7.2250    0.9400 C   0  0  0  0  0  0  0  0  0  0  0  0
   -4.5400   -1.7560    0.0760 C   0  0  0  0  0  0  0  0  0  0  0  0
   -5.3650   -0.9760    0.9390 C   0  0  0  0  0  0  0  0  0  0  0  0
   -6.5520   -1.0930    1.3980 C   0  0  0  0  0  0  0  0  0  0  0  0
   -7.6430   -2.0220    1.3020 C   0  0  0  0  0  0  0  0  0  0  0  0
   -8.8230   -1.8260    1.9530 C   0  0  0  0  0  0  0  0  0  0  0  0
   -9.7220   -2.9300    1.6620 C   0  0  0  0  0  0  0  0  0  0  0  0
   -8.9660   -3.8000    0.7790 C   0  0  0  0  0  0  0  0  0  0  0  0
   -7.7680   -3.2690    0.5770 C   0  0  0  0  0  0  0  0  0  0  0  0
   -4.8710   -2.8850   -0.5280 N   0  0  0  0  0  0  0  0  0  0  0  0
  1  2  1  0
  2  3  2  0
  2 45  1  0
  3  4  1  0
  4  5  2  0
  5  6  1  0
  5 37  1  0
  6  7  1  0
  7  8  1  0
  8  9  1  0
  9 10  1  0
  9 26  1  0
 10 11  2  0
 10 12  1  0
 12 13  1  0
 14 13  1  6
 14 15  1  0
 14 25  1  0
 15 16  1  0
 16 17  1  0
 17 18  1  0
 18 19  1  1
 18 22  1  0
 19 20  1  0
 19 21  2  0
 22 23  1  1
 22 24  1  0
 24 25  1  0
 26 27  2  0
 26 31  1  0
 27 28  1  0
 28 29  2  0
 29 30  1  0
 29 36  1  0
 30 31  2  0
 30 32  1  0
 32 33  1  6
 32 34  1  0
 34 35  1  0
 35 36  1  0
 37 38  1  0
 37 45  2  0
 38 39  2  3
 39 40  1  0
 40 41  2  0
 40 44  1  0
 41 42  1  0
 42 43  1  0
 43 44  2  0
M  CHG  2  13   1  22   1
M  END
