
     RDKit          3D

 45 49  0  0  0  0  0  0  0  0999 V2000
   -5.8160   -4.5050    1.8590 C   0  0  0  0  0  0  0  0  0  0  0  0
   -6.2600   -4.0710    0.4980 C   0  0  0  0  0  0  0  0  0  0  0  0
   -6.2670   -2.5590    0.3900 C   0  0  0  0  0  0  0  0  0  0  0  0
   -4.9430   -2.0140    0.6240 N   0  0  0  0  0  0  0  0  0  0  0  0
   -4.7400   -0.8900   -0.2380 C   0  0  2  0  0  0  0  0  0  0  0  0
   -3.2980   -0.5130   -0.4600 C   0  0  0  0  0  0  0  0  0  0  0  0
   -2.5660   -0.1480    0.7020 N   0  0  2  0  0  0  0  0  0  0  0  0
   -1.6400    0.9420    0.4100 C   0  0  0  0  0  0  0  0  0  0  0  0
   -0.5090    0.2030   -0.2670 C   0  0  1  0  0  0  0  0  0  0  0  0
    0.7300    0.9920   -0.4630 C   0  0  0  0  0  0  0  0  0  0  0  0
    1.7830    0.7170    0.4820 N   0  0  0  0  0  0  0  0  0  0  0  0
    3.1160    0.8510    0.1040 C   0  0  0  0  0  0  0  0  0  0  0  0
    3.3780    1.1500   -1.1160 O   0  0  0  0  0  0  0  0  0  0  0  0
    4.3020    0.6750    0.9980 C   0  0  2  0  0  0  0  0  0  0  0  0
    4.2740    1.8570    1.9410 C   0  0  0  0  0  0  0  0  0  0  0  0
    4.8990    3.1070    1.3590 C   0  0  0  0  0  0  0  0  0  0  0  0
    6.2760    2.7560    0.8840 C   0  0  0  0  0  0  0  0  0  0  0  0
    6.1140    1.6710   -0.1370 C   0  0  1  0  0  0  0  0  0  0  0  0
    7.5050    1.1880   -0.5390 C   0  0  0  0  0  0  0  0  0  0  0  0
    8.3420    2.0160   -0.9320 O   0  0  0  0  0  0  0  0  0  0  0  0
    7.8270   -0.1800   -0.4640 N   0  0  0  0  0  0  0  0  0  0  0  0
    9.0600   -0.7400   -0.8020 C   0  0  0  0  0  0  0  0  0  0  0  0
   10.1780   -0.0910   -1.2540 C   0  0  0  0  0  0  0  0  0  0  0  0
   11.3800   -0.7430   -1.5670 C   0  0  0  0  0  0  0  0  0  0  0  0
   12.5440    0.0350   -2.0490 C   0  0  0  0  0  0  0  0  0  0  0  0
   11.4520   -2.1120   -1.4170 C   0  0  0  0  0  0  0  0  0  0  0  0
   10.3580   -2.8010   -0.9670 C   0  0  0  0  0  0  0  0  0  0  0  0
    9.2020   -2.1380   -0.6700 C   0  0  0  0  0  0  0  0  0  0  0  0
    8.0380   -2.9280   -0.1880 C   0  0  0  0  0  0  0  0  0  0  0  0
    5.4100    0.5940    0.2330 O   0  0  0  0  0  0  0  0  0  0  0  0
    1.4090    0.2670    1.7940 C   0  0  0  0  0  0  0  0  0  0  0  0
    0.6010   -1.0030    1.6410 C   0  0  0  0  0  0  0  0  0  0  0  0
   -0.3480   -1.0470    0.5190 C   0  0  1  0  0  0  0  0  0  0  0  0
   -1.7240   -1.2380    1.1080 C   0  0  0  0  0  0  0  0  0  0  0  0
   -2.0550   -2.1520    1.8020 O   0  0  0  0  0  0  0  0  0  0  0  0
   -5.6030    0.2680    0.1230 C   0  0  0  0  0  0  0  0  0  0  0  0
   -5.8040    0.5900    1.4480 C   0  0  0  0  0  0  0  0  0  0  0  0
   -6.6050    1.6800    1.7440 C   0  0  0  0  0  0  0  0  0  0  0  0
   -7.1920    2.4300    0.7480 C   0  0  0  0  0  0  0  0  0  0  0  0
   -7.0050    2.1240   -0.5950 C   0  0  0  0  0  0  0  0  0  0  0  0
   -7.6500    2.9470   -1.6500 C   0  0  0  0  0  0  0  0  0  0  0  0
   -8.8710    2.3260   -2.1520 N   0  0  0  0  0  0  0  0  0  0  0  0
   -9.9410    2.3100   -1.2030 C   0  0  0  0  0  0  0  0  0  0  0  0
  -10.1800    0.9070   -0.6470 C   0  0  0  0  0  0  0  0  0  0  0  0
   -6.2010    1.0330   -0.8720 C   0  0  0  0  0  0  0  0  0  0  0  0
  1  2  1  0
  2  3  1  0
  3  4  1  0
  4  5  1  0
  5  6  1  1
  5 36  1  0
  7  6  1  6
  7  8  1  0
  7 34  1  0
  9  8  1  1
  9 10  1  0
  9 33  1  0
 10 11  1  0
 11 12  1  0
 11 31  1  0
 12 13  2  0
 14 12  1  6
 14 15  1  0
 14 30  1  0
 15 16  1  0
 16 17  1  0
 17 18  1  0
 18 19  1  1
 18 30  1  0
 19 20  2  0
 19 21  1  0
 21 22  1  0
 22 23  2  0
 22 28  1  0
 23 24  1  0
 24 25  1  0
 24 26  2  0
 26 27  1  0
 27 28  2  0
 28 29  1  0
 31 32  1  0
 33 32  1  1
 33 34  1  0
 34 35  2  0
 36 37  2  0
 36 45  1  0
 37 38  1  0
 38 39  2  0
 39 40  1  0
 40 41  1  0
 40 45  2  0
 41 42  1  0
 42 43  1  0
 43 44  1  0
M  CHG  3   4   1   7   1  42   1
M  END
