
     RDKit          3D

 45 49  0  0  0  0  0  0  0  0999 V2000
    8.9720    3.6600   -1.3600 C   0  0  0  0  0  0  0  0  0  0  0  0
    8.3420    2.3110   -1.1770 C   0  0  0  0  0  0  0  0  0  0  0  0
    8.1650    1.4260   -2.2150 C   0  0  0  0  0  0  0  0  0  0  0  0
    7.5850    0.1870   -2.0500 C   0  0  0  0  0  0  0  0  0  0  0  0
    7.1690   -0.1740   -0.7900 C   0  0  0  0  0  0  0  0  0  0  0  0
    6.5690   -1.4880   -0.5810 C   0  0  0  0  0  0  0  0  0  0  0  0
    5.4740   -1.6970    0.1280 C   0  0  0  0  0  0  0  0  0  0  0  0
    5.1520   -3.1170    0.1350 C   0  0  0  0  0  0  0  0  0  0  0  0
    4.0660   -3.2660    0.8410 C   0  0  0  0  0  0  0  0  0  0  0  0
    3.5790   -1.9800    1.3550 C   0  0  0  0  0  0  0  0  0  0  0  0
    2.3970   -1.7960    2.1730 C   0  0  0  0  0  0  0  0  0  0  0  0
    1.6930   -2.8150    2.4950 O   0  0  0  0  0  0  0  0  0  0  0  0
    1.9400   -0.5470    2.6620 N   0  0  0  0  0  0  0  0  0  0  0  0
    0.7440   -0.4440    3.4780 C   0  0  0  0  0  0  0  0  0  0  0  0
   -0.5270   -0.8590    2.8370 C   0  0  0  0  0  0  0  0  0  0  0  0
   -0.9130   -0.0220    1.7580 N   0  0  2  0  0  0  0  0  0  0  0  0
   -2.3890   -0.0700    1.6710 C   0  0  0  0  0  0  0  0  0  0  0  0
   -2.9680    0.7750    0.6180 C   0  0  2  0  0  0  0  0  0  0  0  0
   -4.3210    0.2600    0.0950 C   0  0  1  0  0  0  0  0  0  0  0  0
   -4.2840   -1.0840   -0.5090 C   0  0  0  0  0  0  0  0  0  0  0  0
   -4.9110   -2.2000    0.2370 C   0  0  2  0  0  0  0  0  0  0  0  0
   -4.1360   -3.4770   -0.1450 C   0  0  0  0  0  0  0  0  0  0  0  0
   -6.3420   -2.4750   -0.1080 C   0  0  0  0  0  0  0  0  0  0  0  0
   -7.1430   -1.2910   -0.5170 C   0  0  0  0  0  0  0  0  0  0  0  0
   -7.5110   -0.3880    0.6420 C   0  0  0  0  0  0  0  0  0  0  0  0
   -6.6190    0.8450    0.5380 C   0  0  0  0  0  0  0  0  0  0  0  0
   -5.3410    0.4610    1.1150 N   0  0  0  0  0  0  0  0  0  0  0  0
   -2.0780    1.2460   -0.4770 C   0  0  1  0  0  0  0  0  0  0  0  0
   -2.0760    2.7160   -0.5550 N   0  0  0  0  0  0  0  0  0  0  0  0
   -2.2620    3.2390   -1.8570 C   0  0  0  0  0  0  0  0  0  0  0  0
   -3.6850    3.3800   -2.3200 C   0  0  0  0  0  0  0  0  0  0  0  0
   -4.5290    4.2630   -1.4720 C   0  0  0  0  0  0  0  0  0  0  0  0
   -4.0990    5.5620   -1.3670 O   0  0  0  0  0  0  0  0  0  0  0  0
   -0.7130    0.7010   -0.5680 C   0  0  2  0  0  0  0  0  0  0  0  0
   -0.3410    0.1720   -1.9400 C   0  0  0  0  0  0  0  0  0  0  0  0
   -0.3020   -0.2820    0.5160 C   0  0  2  0  0  0  0  0  0  0  0  0
   -0.4520   -1.7140    0.0370 C   0  0  0  0  0  0  0  0  0  0  0  0
    4.4090   -1.0530    0.9350 C   0  0  0  0  0  0  0  0  0  0  0  0
    4.3720    0.3160    1.1570 O   0  0  0  0  0  0  0  0  0  0  0  0
    6.2140   -3.7390   -0.6730 C   0  0  0  0  0  0  0  0  0  0  0  0
    6.2980   -4.9640   -0.9100 O   0  0  0  0  0  0  0  0  0  0  0  0
    7.0700   -2.6960   -1.0980 N   0  0  0  0  0  0  0  0  0  0  0  0
    8.2760   -2.8400   -1.9320 C   0  0  0  0  0  0  0  0  0  0  0  0
    7.3490    0.7140    0.2420 C   0  0  0  0  0  0  0  0  0  0  0  0
    7.9280    1.9600    0.0910 C   0  0  0  0  0  0  0  0  0  0  0  0
  1  2  1  0
  2  3  2  0
  2 45  1  0
  3  4  1  0
  4  5  2  0
  5  6  1  0
  5 44  1  0
  6  7  2  0
  6 42  1  0
  7  8  1  0
  7 38  1  0
  8  9  2  0
  8 40  1  0
  9 10  1  0
 10 11  1  0
 10 38  2  0
 11 12  2  0
 11 13  1  0
 13 14  1  0
 14 15  1  0
 16 15  1  1
 16 17  1  0
 16 36  1  0
 18 17  1  6
 18 19  1  0
 18 28  1  0
 19 20  1  1
 19 27  1  0
 20 21  1  0
 21 22  1  6
 21 23  1  0
 23 24  1  0
 24 25  1  0
 25 26  1  0
 26 27  1  0
 28 29  1  1
 28 34  1  0
 29 30  1  0
 30 31  1  0
 31 32  1  0
 32 33  1  0
 34 35  1  6
 34 36  1  0
 36 37  1  6
 38 39  1  0
 40 41  2  0
 40 42  1  0
 42 43  1  0
 44 45  2  0
M  CHG  3  16   1  27   1  29   1
M  END
