
     RDKit          3D

 45 49  0  0  0  0  0  0  0  0999 V2000
   -8.4570    1.7320    0.1570 C   0  0  0  0  0  0  0  0  0  0  0  0
   -8.1800    0.5400   -0.7460 C   0  0  0  0  0  0  0  0  0  0  0  0
   -6.6880    0.2970   -0.9000 C   0  0  0  0  0  0  0  0  0  0  0  0
   -6.0380    1.4770   -1.4990 N   0  0  2  0  0  0  0  0  0  0  0  0
   -5.4830    1.0550   -2.7450 C   0  0  0  0  0  0  0  0  0  0  0  0
   -4.1040    1.6470   -2.7820 C   0  0  2  0  0  0  0  0  0  0  0  0
   -3.1950    0.9320   -3.7190 C   0  0  0  0  0  0  0  0  0  0  0  0
   -1.8910    1.5550   -3.7130 N   0  0  0  0  0  0  0  0  0  0  0  0
   -1.9860    2.9810   -3.9540 C   0  0  0  0  0  0  0  0  0  0  0  0
   -3.6610    1.6120   -1.3300 C   0  0  2  0  0  0  0  0  0  0  0  0
   -3.3080    0.2790   -0.8930 N   0  0  0  0  0  0  0  0  0  0  0  0
   -2.0590   -0.0610   -0.3090 C   0  0  0  0  0  0  0  0  0  0  0  0
   -1.2320    0.8950   -0.2040 O   0  0  0  0  0  0  0  0  0  0  0  0
   -1.7100   -1.3430    0.1400 N   0  0  0  0  0  0  0  0  0  0  0  0
   -0.4000   -1.5900    0.7120 C   0  0  2  0  0  0  0  0  0  0  0  0
    0.2200   -2.8300    0.0690 C   0  0  0  0  0  0  0  0  0  0  0  0
    1.5590   -3.1020    0.6170 C   0  0  0  0  0  0  0  0  0  0  0  0
    1.6540   -4.1290    1.5670 C   0  0  0  0  0  0  0  0  0  0  0  0
    2.8780   -4.4130    2.1220 C   0  0  0  0  0  0  0  0  0  0  0  0
    3.9930   -3.6850    1.7380 C   0  0  0  0  0  0  0  0  0  0  0  0
    3.8690   -2.6870    0.8070 C   0  0  0  0  0  0  0  0  0  0  0  0
    2.6460   -2.3750    0.2260 C   0  0  0  0  0  0  0  0  0  0  0  0
    2.5280   -1.3110   -0.7660 C   0  0  0  0  0  0  0  0  0  0  0  0
    1.7350   -1.3120   -1.7350 O   0  0  0  0  0  0  0  0  0  0  0  0
    3.3610   -0.1320   -0.6950 N   0  0  0  0  0  0  0  0  0  0  0  0
    3.2740    0.9310   -1.6520 C   0  0  2  0  0  0  0  0  0  0  0  0
    4.5510    0.8010   -2.5110 C   0  0  0  0  0  0  0  0  0  0  0  0
    5.7500    0.8350   -1.6090 C   0  0  0  0  0  0  0  0  0  0  0  0
    5.7610    1.8970   -0.5860 C   0  0  0  0  0  0  0  0  0  0  0  0
    4.5490    2.7320   -0.4130 C   0  0  2  0  0  0  0  0  0  0  0  0
    4.2690    3.0070    1.0810 C   0  0  0  0  0  0  0  0  0  0  0  0
    5.4600    3.7380    1.6920 C   0  0  0  0  0  0  0  0  0  0  0  0
    3.3090    2.3130   -1.1080 C   0  0  2  0  0  0  0  0  0  0  0  0
    2.1020    2.6240   -0.2370 C   0  0  0  0  0  0  0  0  0  0  0  0
    5.1860   -4.0420    2.3530 O   0  0  0  0  0  0  0  0  0  0  0  0
    5.2430   -4.4650    3.7030 C   0  0  0  0  0  0  0  0  0  0  0  0
    4.0750   -5.3360    4.0760 C   0  0  0  0  0  0  0  0  0  0  0  0
    3.0770   -5.4040    3.0650 O   0  0  0  0  0  0  0  0  0  0  0  0
   -0.6210   -1.8450    2.1810 C   0  0  0  0  0  0  0  0  0  0  0  0
    0.2120   -1.2080    3.0650 C   0  0  0  0  0  0  0  0  0  0  0  0
    0.0650   -1.4020    4.4440 C   0  0  0  0  0  0  0  0  0  0  0  0
   -0.9160   -2.2330    4.9220 C   0  0  0  0  0  0  0  0  0  0  0  0
   -1.7430   -2.8620    4.0110 C   0  0  0  0  0  0  0  0  0  0  0  0
   -1.5950   -2.6690    2.6630 C   0  0  0  0  0  0  0  0  0  0  0  0
   -4.9950    1.9410   -0.6510 C   0  0  0  0  0  0  0  0  0  0  0  0
  1  2  1  0
  2  3  1  0
  4  3  1  1
  4  5  1  0
  4 45  1  0
  5  6  1  0
  6  7  1  6
  6 10  1  0
  7  8  1  0
  8  9  1  0
 10 11  1  1
 10 45  1  0
 11 12  1  0
 12 13  2  0
 12 14  1  0
 14 15  1  0
 15 16  1  6
 15 39  1  0
 16 17  1  0
 17 18  2  0
 17 22  1  0
 18 19  1  0
 19 20  2  0
 19 38  1  0
 20 21  1  0
 20 35  1  0
 21 22  2  0
 22 23  1  0
 23 24  2  0
 23 25  1  0
 26 25  1  1
 26 27  1  0
 26 33  1  0
 27 28  1  0
 28 29  1  0
 29 30  1  0
 30 31  1  1
 30 33  1  0
 31 32  1  0
 33 34  1  1
 35 36  1  0
 36 37  1  0
 37 38  1  0
 39 40  2  0
 39 44  1  0
 40 41  1  0
 41 42  2  0
 42 43  1  0
 43 44  2  0
M  CHG  2   4   1   8   1
M  END
