
     RDKit          3D

 45 50  0  0  0  0  0  0  0  0999 V2000
   -5.4110   -4.2530   -1.7600 C   0  0  0  0  0  0  0  0  0  0  0  0
   -4.1540   -4.5180   -0.9940 C   0  0  2  0  0  0  0  0  0  0  0  0
   -4.2250   -5.8020   -0.4560 O   0  0  0  0  0  0  0  0  0  0  0  0
   -4.7130   -5.7090    0.8330 C   0  0  0  0  0  0  0  0  0  0  0  0
   -4.9130   -4.2490    1.1710 C   0  0  1  0  0  0  0  0  0  0  0  0
   -4.6090   -3.9720    2.4870 O   0  0  0  0  0  0  0  0  0  0  0  0
   -3.9550   -3.6020    0.1960 C   0  0  2  0  0  0  0  0  0  0  0  0
   -4.2500   -2.2330   -0.0810 N   0  0  0  0  0  0  0  0  0  0  0  0
   -3.0680   -1.3980    0.1090 C   0  0  2  0  0  0  0  0  0  0  0  0
   -2.9980   -0.9420    1.5070 C   0  0  0  0  0  0  0  0  0  0  0  0
   -2.9150    0.5140    1.6830 C   0  0  0  0  0  0  0  0  0  0  0  0
   -3.3540    1.0170    2.9250 C   0  0  0  0  0  0  0  0  0  0  0  0
   -3.2710    2.3520    3.1360 C   0  0  0  0  0  0  0  0  0  0  0  0
   -2.7580    3.2160    2.1390 C   0  0  0  0  0  0  0  0  0  0  0  0
   -2.3470    2.6810    0.9560 C   0  0  0  0  0  0  0  0  0  0  0  0
   -2.4180    1.3330    0.7120 C   0  0  0  0  0  0  0  0  0  0  0  0
   -1.9560    0.6930   -0.5540 C   0  0  2  0  0  0  0  0  0  0  0  0
   -1.5650    1.5520   -1.6070 N   0  0  0  0  0  0  0  0  0  0  0  0
   -0.1630    1.9730   -1.2990 C   0  0  0  0  0  0  0  0  0  0  0  0
    0.8000    0.9480   -1.8270 C   0  0  0  0  0  0  0  0  0  0  0  0
    2.2260    1.3040   -1.4350 C   0  0  1  0  0  0  0  0  0  0  0  0
    2.6110    2.6590   -1.9770 C   0  0  0  0  0  0  0  0  0  0  0  0
    2.2810    1.4090    0.0570 C   0  0  0  0  0  0  0  0  0  0  0  0
    3.1580    0.3190   -2.0080 N   0  0  0  0  0  0  0  0  0  0  0  0
    2.8230   -1.0460   -2.0500 C   0  0  0  0  0  0  0  0  0  0  0  0
    2.6970   -1.8930   -0.8670 C   0  0  0  0  0  0  0  0  0  0  0  0
    3.6820   -2.1700    0.0060 O   0  0  0  0  0  0  0  0  0  0  0  0
    4.5000   -1.5430    0.8830 C   0  0  0  0  0  0  0  0  0  0  0  0
    4.0900   -0.7540    1.8790 C   0  0  0  0  0  0  0  0  0  0  0  0
    5.2660   -0.2480    2.6200 C   0  0  0  0  0  0  0  0  0  0  0  0
    6.4100   -0.8620    1.9130 C   0  0  0  0  0  0  0  0  0  0  0  0
    5.9790   -1.6030    0.9180 C   0  0  0  0  0  0  0  0  0  0  0  0
    4.4080    0.8320   -2.5240 C   0  0  0  0  0  0  0  0  0  0  0  0
    5.5130    0.9240   -1.8000 C   0  0  0  0  0  0  0  0  0  0  0  0
    6.7030    1.4770   -2.2440 C   0  0  0  0  0  0  0  0  0  0  0  0
    6.7140    1.9510   -3.5130 C   0  0  0  0  0  0  0  0  0  0  0  0
    7.9170    2.5970   -3.9980 C   0  0  0  0  0  0  0  0  0  0  0  0
    8.9020    3.1430   -4.3840 N   0  0  0  0  0  0  0  0  0  0  0  0
    5.5990    1.8950   -4.3560 C   0  0  0  0  0  0  0  0  0  0  0  0
    4.4270    1.3200   -3.8410 C   0  0  0  0  0  0  0  0  0  0  0  0
   -2.9690   -0.3460   -0.9790 C   0  0  0  0  0  0  0  0  0  0  0  0
   -2.7050    4.5410    2.4280 O   0  0  0  0  0  0  0  0  0  0  0  0
   -2.3610    4.9550    3.7540 C   0  0  0  0  0  0  0  0  0  0  0  0
   -3.2610    4.2800    4.7700 C   0  0  0  0  0  0  0  0  0  0  0  0
   -3.6840    2.9850    4.3470 N   0  0  0  0  0  0  0  0  0  0  0  0
  2  1  1  1
  2  3  1  0
  2  7  1  0
  3  4  1  0
  4  5  1  0
  5  6  1  1
  5  7  1  0
  7  8  1  6
  9  8  1  1
  9 10  1  0
  9 41  1  0
 10 11  1  0
 11 12  2  0
 11 16  1  0
 12 13  1  0
 13 14  2  0
 13 45  1  0
 14 15  1  0
 14 42  1  0
 15 16  2  0
 16 17  1  0
 17 18  1  6
 17 41  1  0
 18 19  1  0
 19 20  1  0
 20 21  1  0
 21 22  1  6
 21 23  1  0
 21 24  1  0
 24 25  1  0
 24 33  1  0
 25 26  1  0
 26 27  1  0
 27 28  1  0
 28 29  2  0
 28 32  1  0
 29 30  1  0
 30 31  1  0
 31 32  2  0
 33 34  2  0
 33 40  1  0
 34 35  1  0
 35 36  2  0
 36 37  1  0
 36 39  1  0
 37 38  3  0
 39 40  2  0
 42 43  1  0
 43 44  1  0
 44 45  1  0
M  CHG  2   8   1  18   1
M  END
