
     RDKit          3D

 19 20  0  0  0  0  0  0  0  0999 V2000
    5.7360    0.8320    1.5960 N   0  0  0  0  0  0  0  0  0  0  0  0
    4.8320    0.4690    0.7510 C   0  0  0  0  0  0  0  0  0  0  0  0
    3.9830   -0.6430    0.8760 N   0  0  0  0  0  0  0  0  0  0  0  0
    3.1730   -0.7350   -0.1580 C   0  0  0  0  0  0  0  0  0  0  0  0
    2.1890   -1.8400   -0.2280 C   0  0  0  0  0  0  0  0  0  0  0  0
    0.9470   -1.4340    0.1870 O   0  0  0  0  0  0  0  0  0  0  0  0
    0.1110   -0.4990   -0.3110 C   0  0  0  0  0  0  0  0  0  0  0  0
    0.4360    0.1490   -1.3130 O   0  0  0  0  0  0  0  0  0  0  0  0
   -1.2060   -0.2400    0.3400 C   0  0  2  0  0  0  0  0  0  0  0  0
   -2.0170   -1.5020    0.3410 C   0  0  0  0  0  0  0  0  0  0  0  0
   -3.4310   -0.9600    0.1670 C   0  0  0  0  0  0  0  0  0  0  0  0
   -3.1710    0.3150   -0.5770 C   0  0  1  0  0  0  0  0  0  0  0  0
   -4.1680    1.3370   -0.2020 C   0  0  0  0  0  0  0  0  0  0  0  0
   -3.7800    2.5750    0.3600 N   0  0  0  0  0  0  0  0  0  0  0  0
   -5.3790    1.1010   -0.3850 O   0  0  0  0  0  0  0  0  0  0  0  0
   -1.9000    0.7360   -0.3100 O   0  0  0  0  0  0  0  0  0  0  0  0
    3.4160    0.3080   -1.0560 N   0  0  0  0  0  0  0  0  0  0  0  0
    4.4720    1.1020   -0.5070 C   0  0  0  0  0  0  0  0  0  0  0  0
    4.9690    2.1210   -1.0170 O   0  0  0  0  0  0  0  0  0  0  0  0
  1  2  2  0
  2  3  1  0
  2 18  1  0
  3  4  2  0
  4  5  1  0
  4 17  1  0
  5  6  1  0
  6  7  1  0
  7  8  2  0
  9  7  1  6
  9 10  1  0
  9 16  1  0
 10 11  1  0
 11 12  1  0
 12 13  1  1
 12 16  1  0
 13 14  1  0
 13 15  2  0
 17 18  1  0
 18 19  2  0
M  END
