
     RDKit          3D

 19 20  0  0  0  0  0  0  0  0999 V2000
   -2.1280   -0.8810   -1.1250 C   0  0  0  0  0  0  0  0  0  0  0  0
   -1.6900   -0.3430    0.2260 C   0  0  2  0  0  0  0  0  0  0  0  0
   -0.2170   -0.3540    0.3680 C   0  0  0  0  0  0  0  0  0  0  0  0
    0.3640   -1.0000    1.2680 O   0  0  0  0  0  0  0  0  0  0  0  0
    0.5530    0.3960   -0.5520 N   0  0  0  0  0  0  0  0  0  0  0  0
    1.9910    0.4400   -0.4860 C   0  0  0  0  0  0  0  0  0  0  0  0
    2.6200    1.5760   -0.3140 C   0  0  0  0  0  0  0  0  0  0  0  0
    4.1050    1.6540   -0.2420 C   0  0  0  0  0  0  0  0  0  0  0  0
    4.6990    0.3990   -0.3780 O   0  0  0  0  0  0  0  0  0  0  0  0
    4.0260   -0.7910   -0.5590 C   0  0  0  0  0  0  0  0  0  0  0  0
    4.7320   -1.9810   -0.6820 O   0  0  0  0  0  0  0  0  0  0  0  0
    2.7060   -0.8210   -0.6180 C   0  0  0  0  0  0  0  0  0  0  0  0
   -2.3410   -1.1540    1.2360 N   0  0  0  0  0  0  0  0  0  0  0  0
   -3.7640   -1.0770    1.3030 C   0  0  0  0  0  0  0  0  0  0  0  0
   -4.4580   -2.0320    1.7270 O   0  0  0  0  0  0  0  0  0  0  0  0
   -4.4410    0.1250    0.8760 N   0  0  0  0  0  0  0  0  0  0  0  0
   -3.6500    1.1750    0.4080 N   0  0  0  0  0  0  0  0  0  0  0  0
   -2.2390    1.0440    0.3630 C   0  0  0  0  0  0  0  0  0  0  0  0
   -1.4730    2.0600    0.4360 O   0  0  0  0  0  0  0  0  0  0  0  0
  2  1  1  6
  2  3  1  0
  2 13  1  0
  2 18  1  0
  3  4  2  0
  3  5  1  0
  5  6  1  0
  6  7  2  0
  6 12  1  0
  7  8  1  0
  8  9  1  0
  9 10  1  0
 10 11  1  0
 10 12  2  0
 13 14  1  0
 14 15  2  0
 14 16  1  0
 16 17  1  0
 17 18  1  0
 18 19  2  0
M  END
