
     RDKit          3D

 19 20  0  0  0  0  0  0  0  0999 V2000
   -1.8560   -2.2230   -0.7160 C   0  0  0  0  0  0  0  0  0  0  0  0
   -1.4340   -0.8790   -0.1080 C   0  0  2  0  0  0  0  0  0  0  0  0
   -0.0330   -0.8160   -0.2330 O   0  0  0  0  0  0  0  0  0  0  0  0
    0.7360    0.2550    0.2030 C   0  0  0  0  0  0  0  0  0  0  0  0
    0.1100    1.2070    0.7360 O   0  0  0  0  0  0  0  0  0  0  0  0
    2.1570    0.2750    0.0550 N   0  0  0  0  0  0  0  0  0  0  0  0
    2.8350   -0.7040   -0.4960 N   0  0  0  0  0  0  0  0  0  0  0  0
    4.1860   -0.6740   -0.6320 C   0  0  0  0  0  0  0  0  0  0  0  0
    4.8090   -1.6370   -1.1690 O   0  0  0  0  0  0  0  0  0  0  0  0
    4.8720    0.4230   -0.1740 C   0  0  0  0  0  0  0  0  0  0  0  0
    6.1200    0.5130   -0.2690 O   0  0  0  0  0  0  0  0  0  0  0  0
    4.1950    1.4320    0.3920 N   0  0  0  0  0  0  0  0  0  0  0  0
    2.8430    1.3400    0.4980 C   0  0  0  0  0  0  0  0  0  0  0  0
    2.2470    2.3260    1.0440 O   0  0  0  0  0  0  0  0  0  0  0  0
   -1.8810   -0.8980    1.3310 C   0  0  0  0  0  0  0  0  0  0  0  0
   -2.7880    0.2660    1.5460 C   0  0  0  0  0  0  0  0  0  0  0  0
   -2.8540    1.0490    0.2730 C   0  0  0  0  0  0  0  0  0  0  0  0
   -2.1470    0.2550   -0.7850 C   0  0  1  0  0  0  0  0  0  0  0  0
   -1.2910    1.0610   -1.6170 N   0  0  0  0  0  0  0  0  0  0  0  0
  2  1  1  6
  2  3  1  0
  2 15  1  0
  2 18  1  0
  3  4  1  0
  4  5  2  0
  4  6  1  0
  6  7  1  0
  6 13  1  0
  7  8  1  0
  8  9  2  0
  8 10  1  0
 10 11  2  0
 10 12  1  0
 12 13  1  0
 13 14  2  0
 15 16  1  0
 16 17  1  0
 17 18  1  0
 18 19  1  1
M  END
