
     RDKit          3D

 19 20  0  0  0  0  0  0  0  0999 V2000
   -1.9620    1.7060    0.6640 N   0  0  0  0  0  0  0  0  0  0  0  0
   -2.8360    1.0150    0.0400 C   0  0  0  0  0  0  0  0  0  0  0  0
   -4.1570    1.5660   -0.1230 N   0  0  0  0  0  0  0  0  0  0  0  0
   -5.1120    0.7890   -0.8150 C   0  0  0  0  0  0  0  0  0  0  0  0
   -6.2650    1.2750   -0.9560 O   0  0  0  0  0  0  0  0  0  0  0  0
   -4.8020   -0.5250   -1.3560 C   0  0  0  0  0  0  0  0  0  0  0  0
   -5.7080   -1.1640   -1.9650 O   0  0  0  0  0  0  0  0  0  0  0  0
   -3.5060   -1.0310   -1.1780 N   0  0  0  0  0  0  0  0  0  0  0  0
   -2.4710   -0.2930   -0.4790 C   0  0  0  0  0  0  0  0  0  0  0  0
   -1.3190   -0.8650   -0.3810 C   0  0  0  0  0  0  0  0  0  0  0  0
   -0.1720   -0.3660    0.2380 N   0  0  0  0  0  0  0  0  0  0  0  0
    1.0610   -1.1050    0.2810 C   0  0  0  0  0  0  0  0  0  0  0  0
    1.1210   -2.2290   -0.2480 O   0  0  0  0  0  0  0  0  0  0  0  0
    2.2130   -0.4930    0.9580 C   0  0  2  0  0  0  0  0  0  0  0  0
    2.5420    0.8100    0.2320 C   0  0  0  0  0  0  0  0  0  0  0  0
    3.3640    0.4430   -0.8500 O   0  0  0  0  0  0  0  0  0  0  0  0
    4.6420    0.2390   -0.3080 C   0  0  0  0  0  0  0  0  0  0  0  0
    4.4830   -0.5150    1.0010 C   0  0  0  0  0  0  0  0  0  0  0  0
    3.3400   -1.2880    0.9380 O   0  0  0  0  0  0  0  0  0  0  0  0
  1  2  2  0
  2  3  1  0
  2  9  1  0
  3  4  1  0
  4  5  2  0
  4  6  1  0
  6  7  2  0
  6  8  1  0
  8  9  1  0
  9 10  2  3
 10 11  1  0
 11 12  1  0
 12 13  2  0
 14 12  1  6
 14 15  1  0
 14 19  1  0
 15 16  1  0
 16 17  1  0
 17 18  1  0
 18 19  1  0
M  END
