
     RDKit          3D

 19 20  0  0  0  0  0  0  0  0999 V2000
    2.7770   -2.0030   -1.8990 C   0  0  0  0  0  0  0  0  0  0  0  0
    2.8260   -0.8000   -1.5230 N   0  0  0  0  0  0  0  0  0  0  0  0
    1.6870    0.0140   -1.2900 C   0  0  0  0  0  0  0  0  0  0  0  0
    0.9380   -0.0920   -0.2160 C   0  0  0  0  0  0  0  0  0  0  0  0
    1.3310   -1.1220    0.7690 C   0  0  0  0  0  0  0  0  0  0  0  0
    2.5150   -1.4960    0.8020 O   0  0  0  0  0  0  0  0  0  0  0  0
    0.4640   -1.7420    1.7050 N   0  0  0  0  0  0  0  0  0  0  0  0
   -0.9580   -1.5540    1.7800 C   0  0  0  0  0  0  0  0  0  0  0  0
   -1.4790   -2.1380    2.7600 O   0  0  0  0  0  0  0  0  0  0  0  0
   -1.8710   -0.8150    0.9240 C   0  0  1  0  0  0  0  0  0  0  0  0
   -2.9470   -0.3950    1.7880 O   0  0  0  0  0  0  0  0  0  0  0  0
   -3.4470    0.7940    1.3650 C   0  0  0  0  0  0  0  0  0  0  0  0
   -4.5730    1.2850    1.7220 O   0  0  0  0  0  0  0  0  0  0  0  0
   -2.5020    1.3670    0.4730 N   0  0  0  0  0  0  0  0  0  0  0  0
   -1.4120    0.4740    0.3800 C   0  0  0  0  0  0  0  0  0  0  0  0
   -0.1970    0.8010   -0.1010 C   0  0  0  0  0  0  0  0  0  0  0  0
    0.0420    2.1580   -0.5260 C   0  0  0  0  0  0  0  0  0  0  0  0
    1.3160    2.5970   -1.0240 N   0  0  0  0  0  0  0  0  0  0  0  0
   -0.8270    3.0710   -0.5010 O   0  0  0  0  0  0  0  0  0  0  0  0
  1  2  2  0
  2  3  1  0
  3  4  2  3
  4  5  1  0
  4 16  1  0
  5  6  2  0
  5  7  1  0
  7  8  1  0
  8  9  2  0
  8 10  1  0
 10 11  1  1
 10 15  1  0
 11 12  1  0
 12 13  2  0
 12 14  1  0
 14 15  1  0
 15 16  2  0
 16 17  1  0
 17 18  1  0
 17 19  2  0
M  END
