
     RDKit          3D

 20 21  0  0  0  0  0  0  0  0999 V2000
   -1.3300    1.9670   -1.0080 C   0  0  0  0  0  0  0  0  0  0  0  0
   -1.5100    0.5820   -1.5500 C   0  0  0  0  0  0  0  0  0  0  0  0
   -1.7690   -0.4480   -0.5350 C   0  0  1  0  0  0  0  0  0  0  0  0
   -1.9780   -1.7730   -1.1830 N   0  0  0  0  0  0  0  0  0  0  0  0
   -2.3960   -2.7910   -0.3010 C   0  0  0  0  0  0  0  0  0  0  0  0
   -2.9830   -3.8320   -0.7020 O   0  0  0  0  0  0  0  0  0  0  0  0
   -2.1600   -2.6700    1.1150 N   0  0  0  0  0  0  0  0  0  0  0  0
   -1.5000   -1.5040    1.5790 C   0  0  0  0  0  0  0  0  0  0  0  0
   -1.5310   -1.1160    2.7520 O   0  0  0  0  0  0  0  0  0  0  0  0
   -0.7310   -0.7480    0.4860 C   0  0  1  0  0  0  0  0  0  0  0  0
    0.2340   -1.7260    0.0430 N   0  0  0  0  0  0  0  0  0  0  0  0
    1.5210   -1.1780    0.1270 C   0  0  0  0  0  0  0  0  0  0  0  0
    2.6290   -1.6770   -0.2760 O   0  0  0  0  0  0  0  0  0  0  0  0
    1.4400    0.0890    0.7580 N   0  0  0  0  0  0  0  0  0  0  0  0
    2.5750    0.9570    1.0600 C   0  0  0  0  0  0  0  0  0  0  0  0
    2.9310    1.8670   -0.0470 C   0  0  0  0  0  0  0  0  0  0  0  0
    4.0130    2.7710    0.1420 N   0  0  0  0  0  0  0  0  0  0  0  0
    2.3070    1.8510   -1.1220 O   0  0  0  0  0  0  0  0  0  0  0  0
    0.0540    0.3090    1.0620 C   0  0  0  0  0  0  0  0  0  0  0  0
   -0.2650    1.3330    1.7530 O   0  0  0  0  0  0  0  0  0  0  0  0
  1  2  1  0
  3  2  1  6
  3  4  1  0
  3 10  1  0
  4  5  1  0
  5  6  2  0
  5  7  1  0
  7  8  1  0
  8  9  2  0
  8 10  1  0
 10 11  1  6
 10 19  1  0
 11 12  1  0
 12 13  2  0
 12 14  1  0
 14 15  1  0
 14 19  1  0
 15 16  1  0
 16 17  1  0
 16 18  2  0
 19 20  2  0
M  END
