
     RDKit          3D

 20 21  0  0  0  0  0  0  0  0999 V2000
   -4.4640    1.9210   -0.8920 N   0  0  0  0  0  0  0  0  0  0  0  0
   -4.7550    0.7750   -0.1250 C   0  0  0  0  0  0  0  0  0  0  0  0
   -5.8190    0.5080    0.5540 O   0  0  0  0  0  0  0  0  0  0  0  0
   -5.7560   -0.6480    1.1450 N   0  0  0  0  0  0  0  0  0  0  0  0
   -4.5940   -1.1960    0.8530 C   0  0  0  0  0  0  0  0  0  0  0  0
   -4.1520   -2.3130    1.2280 O   0  0  0  0  0  0  0  0  0  0  0  0
   -3.9180   -0.2990    0.0320 C   0  0  0  0  0  0  0  0  0  0  0  0
   -2.6480   -0.5350   -0.4590 N   0  0  0  0  0  0  0  0  0  0  0  0
   -1.5220   -0.0250    0.4240 C   0  0  0  0  0  0  0  0  0  0  0  0
   -1.9010    0.5330    1.4170 O   0  0  0  0  0  0  0  0  0  0  0  0
   -0.3140   -0.3470   -0.1550 N   0  0  0  0  0  0  0  0  0  0  0  0
    0.6860    0.6020    0.9230 C   0  0  0  0  0  0  0  0  0  0  0  0
    0.0880    1.1530    1.7350 O   0  0  0  0  0  0  0  0  0  0  0  0
    2.0530    0.4710    0.5360 C   0  0  2  0  0  0  0  0  0  0  0  0
    2.8210    1.3390    1.3640 O   0  0  0  0  0  0  0  0  0  0  0  0
    2.4400    0.8310   -0.8660 C   0  0  0  0  0  0  0  0  0  0  0  0
    3.5730   -0.0590   -1.3350 C   0  0  0  0  0  0  0  0  0  0  0  0
    4.5660   -0.3950   -0.2610 C   0  0  0  0  0  0  0  0  0  0  0  0
    4.0010   -0.8890    0.9550 N   0  0  0  0  0  0  0  0  0  0  0  0
    2.5550   -0.9640    0.7940 C   0  0  0  0  0  0  0  0  0  0  0  0
  1  2  1  0
  2  3  1  0
  2  7  2  0
  3  4  1  0
  4  5  1  0
  5  6  2  0
  5  7  1  0
  7  8  1  0
  8  9  1  0
  9 10  2  0
  9 11  1  0
 11 12  1  0
 12 13  2  0
 12 14  1  0
 14 15  1  1
 14 16  1  0
 14 20  1  0
 16 17  1  0
 17 18  1  0
 18 19  1  0
 19 20  1  0
M  END
