
     RDKit          3D

 20 21  0  0  0  0  0  0  0  0999 V2000
   -0.0330    0.5280   -1.2360 O   0  0  0  0  0  0  0  0  0  0  0  0
    0.1000   -0.2070   -0.2280 C   0  0  0  0  0  0  0  0  0  0  0  0
    1.3780   -0.7750    0.0120 N   0  0  0  0  0  0  0  0  0  0  0  0
    2.5130   -0.5240   -0.8730 C   0  0  0  0  0  0  0  0  0  0  0  0
    3.7490   -1.2200   -0.4260 C   0  0  1  0  0  0  0  0  0  0  0  0
    4.8500   -0.8840   -1.4200 C   0  0  0  0  0  0  0  0  0  0  0  0
    4.8780    0.5490   -1.5020 O   0  0  0  0  0  0  0  0  0  0  0  0
    4.9910    1.2110   -0.2870 C   0  0  0  0  0  0  0  0  0  0  0  0
    5.2020    2.4390   -0.1700 O   0  0  0  0  0  0  0  0  0  0  0  0
    4.8540    0.4100    0.8870 N   0  0  0  0  0  0  0  0  0  0  0  0
    4.1350   -0.7900    0.8930 N   0  0  0  0  0  0  0  0  0  0  0  0
   -1.0250   -0.4320    0.6140 N   0  0  0  0  0  0  0  0  0  0  0  0
   -2.3130    0.1330    0.3830 C   0  0  1  0  0  0  0  0  0  0  0  0
   -3.3940   -0.8730    0.1440 C   0  0  0  0  0  0  0  0  0  0  0  0
   -4.7040   -0.1970   -0.0790 C   0  0  1  0  0  0  0  0  0  0  0  0
   -5.6570   -0.5200    0.9070 O   0  0  0  0  0  0  0  0  0  0  0  0
   -4.6040    1.3160   -0.0960 C   0  0  0  0  0  0  0  0  0  0  0  0
   -4.0140    1.7080    1.1900 N   0  0  0  0  0  0  0  0  0  0  0  0
   -2.7390    1.0800    1.4460 C   0  0  0  0  0  0  0  0  0  0  0  0
   -2.0970    1.3390    2.4690 O   0  0  0  0  0  0  0  0  0  0  0  0
  1  2  2  0
  2  3  1  0
  2 12  1  0
  3  4  1  0
  5  4  1  6
  5  6  1  0
  5 11  1  0
  6  7  1  0
  7  8  1  0
  8  9  2  0
  8 10  1  0
 10 11  1  0
 13 12  1  1
 13 14  1  0
 13 19  1  0
 14 15  1  0
 15 16  1  1
 15 17  1  0
 17 18  1  0
 18 19  1  0
 19 20  2  0
M  END
