
     RDKit          3D

 20 21  0  0  0  0  0  0  0  0999 V2000
    7.1210   -0.9730    0.6900 O   0  0  0  0  0  0  0  0  0  0  0  0
    5.9200   -0.6130    0.5180 C   0  0  0  0  0  0  0  0  0  0  0  0
    5.4260    0.7030    0.7370 N   0  0  0  0  0  0  0  0  0  0  0  0
    4.0440    0.7120    0.3090 C   0  0  0  0  0  0  0  0  0  0  0  0
    3.6410   -0.7470    0.5390 C   0  0  1  0  0  0  0  0  0  0  0  0
    2.4660   -1.1190   -0.2710 C   0  0  0  0  0  0  0  0  0  0  0  0
    2.5500   -1.9270   -1.2190 O   0  0  0  0  0  0  0  0  0  0  0  0
    1.2110   -0.5310    0.0510 N   0  0  0  0  0  0  0  0  0  0  0  0
    0.0250   -0.8180   -0.6580 C   0  0  0  0  0  0  0  0  0  0  0  0
    0.0710   -1.6270   -1.6190 O   0  0  0  0  0  0  0  0  0  0  0  0
   -1.2460   -0.2080   -0.3140 C   0  0  0  0  0  0  0  0  0  0  0  0
   -1.2990    0.6110    0.6570 O   0  0  0  0  0  0  0  0  0  0  0  0
   -2.4250   -0.4540   -0.9720 O   0  0  0  0  0  0  0  0  0  0  0  0
   -3.6100    0.1440   -0.6160 C   0  0  0  0  0  0  0  0  0  0  0  0
   -4.4430   -0.3730    0.2590 C   0  0  0  0  0  0  0  0  0  0  0  0
   -5.7220    0.2760    0.6410 C   0  0  0  0  0  0  0  0  0  0  0  0
   -5.9450    1.5180   -0.0470 N   0  0  0  0  0  0  0  0  0  0  0  0
   -5.0430    2.0190   -0.9550 N   0  0  0  0  0  0  0  0  0  0  0  0
   -3.9580    1.4080   -1.2390 C   0  0  0  0  0  0  0  0  0  0  0  0
    4.8340   -1.4340    0.0770 N   0  0  0  0  0  0  0  0  0  0  0  0
  1  2  2  0
  2  3  1  0
  2 20  1  0
  3  4  1  0
  4  5  1  0
  5  6  1  6
  5 20  1  0
  6  7  2  0
  6  8  1  0
  8  9  1  0
  9 10  2  0
  9 11  1  0
 11 12  2  0
 11 13  1  0
 13 14  1  0
 14 15  2  0
 14 19  1  0
 15 16  1  0
 16 17  1  0
 17 18  1  0
 18 19  2  0
M  END
