
     RDKit          3D

 20 21  0  0  0  0  0  0  0  0999 V2000
   -1.2070   -2.3710   -0.1190 C   0  0  0  0  0  0  0  0  0  0  0  0
   -1.7740   -1.0140    0.2360 C   0  0  1  0  0  0  0  0  0  0  0  0
   -2.7570   -1.0310    1.3680 C   0  0  0  0  0  0  0  0  0  0  0  0
   -1.0110    0.2210   -0.0450 C   0  0  1  0  0  0  0  0  0  0  0  0
    0.3940    0.0240   -0.3480 N   0  0  0  0  0  0  0  0  0  0  0  0
    1.4220    0.8290    0.1440 C   0  0  0  0  0  0  0  0  0  0  0  0
    1.0200    1.7790    0.9010 O   0  0  0  0  0  0  0  0  0  0  0  0
    2.8310    0.7210   -0.0920 C   0  0  0  0  0  0  0  0  0  0  0  0
    3.4440   -0.1730   -0.8300 C   0  0  0  0  0  0  0  0  0  0  0  0
    2.7150   -1.1950   -1.5180 N   0  0  0  0  0  0  0  0  0  0  0  0
    4.8470   -0.2020   -1.0060 O   0  0  0  0  0  0  0  0  0  0  0  0
    5.6980    0.6910   -0.4290 N   0  0  0  0  0  0  0  0  0  0  0  0
    5.1030    1.6910    0.3880 C   0  0  0  0  0  0  0  0  0  0  0  0
    5.8240    2.5490    0.9530 O   0  0  0  0  0  0  0  0  0  0  0  0
    3.6970    1.6870    0.5390 N   0  0  0  0  0  0  0  0  0  0  0  0
   -2.0760   -0.1300   -0.9770 C   0  0  2  0  0  0  0  0  0  0  0  0
   -3.3700    0.5910   -0.8750 C   0  0  0  0  0  0  0  0  0  0  0  0
   -3.6310    1.1460    0.2230 O   0  0  0  0  0  0  0  0  0  0  0  0
   -4.2880    0.6900   -1.8840 O   0  0  0  0  0  0  0  0  0  0  0  0
   -5.4740    1.3940   -1.6780 N   0  0  0  0  0  0  0  0  0  0  0  0
  2  1  1  6
  2  3  1  0
  2  4  1  0
  2 16  1  0
  4  5  1  6
  4 16  1  0
  5  6  1  0
  6  7  2  0
  6  8  1  0
  8  9  2  0
  8 15  1  0
  9 10  1  0
  9 11  1  0
 11 12  1  0
 12 13  1  0
 13 14  2  0
 13 15  1  0
 16 17  1  1
 17 18  2  0
 17 19  1  0
 19 20  1  0
M  END
