
     RDKit          3D

 19 20  0  0  0  0  0  0  0  0999 V2000
   -2.4460   -2.5450    0.5240 C   0  0  0  0  0  0  0  0  0  0  0  0
   -1.9570   -1.1600    0.4330 N   0  0  0  0  0  0  0  0  0  0  0  0
   -2.9720   -0.1920    0.6530 C   0  0  0  0  0  0  0  0  0  0  0  0
   -2.6520    1.1460    0.3020 N   0  0  0  0  0  0  0  0  0  0  0  0
   -1.6790    1.7220   -0.5370 C   0  0  0  0  0  0  0  0  0  0  0  0
   -2.0130    3.0490   -1.1490 C   0  0  1  0  0  0  0  0  0  0  0  0
   -2.2790    4.1430   -0.1910 C   0  0  0  0  0  0  0  0  0  0  0  0
   -1.1110    4.0840   -1.0420 O   0  0  0  0  0  0  0  0  0  0  0  0
   -0.5300    1.2250   -0.8330 N   0  0  0  0  0  0  0  0  0  0  0  0
    0.0600   -0.0080   -0.4080 C   0  0  0  0  0  0  0  0  0  0  0  0
    1.4900   -0.1450   -0.5960 C   0  0  0  0  0  0  0  0  0  0  0  0
    2.1360    0.7910   -1.1080 O   0  0  0  0  0  0  0  0  0  0  0  0
    2.1090   -1.3090   -0.2050 O   0  0  0  0  0  0  0  0  0  0  0  0
    3.4810   -1.5070   -0.3580 C   0  0  0  0  0  0  0  0  0  0  0  0
    4.2560   -0.4890    0.3910 C   0  0  0  0  0  0  0  0  0  0  0  0
    5.6740   -0.5230    0.3590 N   0  0  0  0  0  0  0  0  0  0  0  0
    3.6350    0.3850    1.0410 O   0  0  0  0  0  0  0  0  0  0  0  0
   -0.5760   -1.0450    0.1450 C   0  0  0  0  0  0  0  0  0  0  0  0
    0.2340   -2.1570    0.4800 N   0  0  0  0  0  0  0  0  0  0  0  0
  1  2  1  0
  2  3  1  0
  2 18  1  0
  3  4  1  0
  4  5  1  0
  6  5  1  1
  5  9  2  0
  6  7  1  0
  6  8  1  0
  7  8  1  0
  9 10  1  0
 10 11  1  0
 10 18  2  0
 11 12  2  0
 11 13  1  0
 13 14  1  0
 14 15  1  0
 15 16  1  0
 15 17  2  0
 18 19  1  0
M  END
