
     RDKit          3D

 19 20  0  0  0  0  0  0  0  0999 V2000
    0.3670    0.8520   -1.0820 O   0  0  0  0  0  0  0  0  0  0  0  0
    0.1370   -0.2590   -1.3990 C   0  0  0  0  0  0  0  0  0  0  0  0
   -1.0560   -0.9910   -1.7020 C   0  0  0  0  0  0  0  0  0  0  0  0
   -2.0210   -1.2030   -0.5800 C   0  0  2  0  0  0  0  0  0  0  0  0
   -3.2180   -1.9180   -0.9400 N   0  0  0  0  0  0  0  0  0  0  0  0
   -4.2800   -1.3520   -0.2700 N   0  0  0  0  0  0  0  0  0  0  0  0
   -3.8790   -0.2600    0.3590 C   0  0  0  0  0  0  0  0  0  0  0  0
   -4.3580    0.8410    1.2300 C   0  0  0  0  0  0  0  0  0  0  0  0
   -3.1690    1.6820    1.4050 C   0  0  0  0  0  0  0  0  0  0  0  0
   -3.1730    2.8970    2.1370 O   0  0  0  0  0  0  0  0  0  0  0  0
   -2.1200    1.1660    0.8050 C   0  0  0  0  0  0  0  0  0  0  0  0
   -2.4910   -0.0650    0.1440 N   0  0  0  0  0  0  0  0  0  0  0  0
    1.5930   -1.2290   -1.5010 N   0  0  0  0  0  0  0  0  0  0  0  0
    2.4840   -0.2330   -1.1460 C   0  0  0  0  0  0  0  0  0  0  0  0
    2.4820    0.9580   -1.1430 O   0  0  0  0  0  0  0  0  0  0  0  0
    3.7470   -0.8600   -0.6300 N   0  0  0  0  0  0  0  0  0  0  0  0
    4.8130   -0.1060   -0.1500 C   0  0  0  0  0  0  0  0  0  0  0  0
    4.4350    0.7680    1.0370 C   0  0  0  0  0  0  0  0  0  0  0  0
    3.9900   -0.0530    2.0690 O   0  0  0  0  0  0  0  0  0  0  0  0
  1  2  2  0
  2  3  1  0
  2 13  1  0
  4  3  1  6
  4  5  1  0
  4 12  1  0
  5  6  1  0
  6  7  2  0
  7  8  1  0
  7 12  1  0
  8  9  1  0
  9 10  1  0
  9 11  2  0
 11 12  1  0
 13 14  1  0
 14 15  2  0
 14 16  1  0
 16 17  1  0
 17 18  1  0
 18 19  1  0
M  END
