
     RDKit          3D

 19 20  0  0  0  0  0  0  0  0999 V2000
    5.2080    0.6760    1.3280 N   0  0  0  0  0  0  0  0  0  0  0  0
    4.7970   -0.3920    0.5020 C   0  0  0  0  0  0  0  0  0  0  0  0
    5.4160   -1.4740    0.5480 O   0  0  0  0  0  0  0  0  0  0  0  0
    3.6620   -0.2360   -0.3930 C   0  0  2  0  0  0  0  0  0  0  0  0
    2.3670   -0.0890    0.4040 C   0  0  0  0  0  0  0  0  0  0  0  0
    1.3570   -0.3100   -0.7110 C   0  0  2  0  0  0  0  0  0  0  0  0
    0.0990   -0.6560   -0.0890 N   0  0  0  0  0  0  0  0  0  0  0  0
   -1.0930    0.0840   -0.3040 C   0  0  0  0  0  0  0  0  0  0  0  0
   -1.0800    1.0970   -1.0710 O   0  0  0  0  0  0  0  0  0  0  0  0
   -2.2870   -0.3400    0.3570 N   0  0  0  0  0  0  0  0  0  0  0  0
   -3.5010    0.3770    0.1660 C   0  0  0  0  0  0  0  0  0  0  0  0
   -4.5450   -0.2260   -0.3380 C   0  0  0  0  0  0  0  0  0  0  0  0
   -5.8140    0.5180   -0.5380 C   0  0  0  0  0  0  0  0  0  0  0  0
   -5.7100    1.8520   -0.1330 O   0  0  0  0  0  0  0  0  0  0  0  0
   -4.6100    2.4400    0.3850 N   0  0  0  0  0  0  0  0  0  0  0  0
   -3.5200    1.7810    0.5520 C   0  0  0  0  0  0  0  0  0  0  0  0
    1.9670   -1.4650   -1.4180 C   0  0  0  0  0  0  0  0  0  0  0  0
    1.3760   -2.3200   -2.1050 O   0  0  0  0  0  0  0  0  0  0  0  0
    3.3680   -1.4240   -1.1720 N   0  0  0  0  0  0  0  0  0  0  0  0
  1  2  1  0
  2  3  2  0
  4  2  1  1
  4  5  1  0
  4 19  1  0
  5  6  1  0
  6  7  1  1
  6 17  1  0
  7  8  1  0
  8  9  2  0
  8 10  1  0
 10 11  1  0
 11 12  2  0
 11 16  1  0
 12 13  1  0
 13 14  1  0
 14 15  1  0
 15 16  2  0
 17 18  2  0
 17 19  1  0
M  END
