
     RDKit          3D

 19 20  0  0  0  0  0  0  0  0999 V2000
   -5.1110    0.0470   -0.2380 N   0  0  0  0  0  0  0  0  0  0  0  0
   -3.8050   -0.4600   -0.6500 C   0  0  1  0  0  0  0  0  0  0  0  0
   -2.7730    0.5800   -0.4100 C   0  0  0  0  0  0  0  0  0  0  0  0
   -1.7510    0.3440    0.3970 C   0  0  0  0  0  0  0  0  0  0  0  0
   -0.7310    1.4190    0.6130 C   0  0  0  0  0  0  0  0  0  0  0  0
    0.5400    0.8450    0.1590 N   0  0  0  0  0  0  0  0  0  0  0  0
    0.7220    0.4030   -1.1760 C   0  0  0  0  0  0  0  0  0  0  0  0
   -0.2450    0.5180   -1.9680 O   0  0  0  0  0  0  0  0  0  0  0  0
    2.0050   -0.1680   -1.6070 C   0  0  0  0  0  0  0  0  0  0  0  0
    2.9760   -0.2080   -0.5470 N   0  0  0  0  0  0  0  0  0  0  0  0
    3.8720    0.6780   -0.1750 N   0  0  0  0  0  0  0  0  0  0  0  0
    4.5760    0.2150    0.8790 C   0  0  0  0  0  0  0  0  0  0  0  0
    5.5050    0.8210    1.4690 O   0  0  0  0  0  0  0  0  0  0  0  0
    4.0960   -1.0030    1.1680 N   0  0  0  0  0  0  0  0  0  0  0  0
    3.1160   -1.2620    0.2950 C   0  0  0  0  0  0  0  0  0  0  0  0
    2.4400   -2.3300    0.2770 O   0  0  0  0  0  0  0  0  0  0  0  0
   -1.5990   -0.9360    1.0780 C   0  0  0  0  0  0  0  0  0  0  0  0
   -2.4970   -1.8810    0.8870 C   0  0  0  0  0  0  0  0  0  0  0  0
   -3.5590   -1.6470    0.0540 O   0  0  0  0  0  0  0  0  0  0  0  0
  2  1  1  1
  2  3  1  0
  2 19  1  0
  3  4  2  0
  4  5  1  0
  4 17  1  0
  5  6  1  0
  6  7  1  0
  7  8  2  0
  7  9  1  0
  9 10  1  0
 10 11  1  0
 10 15  1  0
 11 12  1  0
 12 13  2  0
 12 14  1  0
 14 15  1  0
 15 16  2  0
 17 18  2  0
 18 19  1  0
M  END
