
     RDKit          3D

 13 13  0  0  0  0  0  0  0  0999 V2000
    4.4840   -1.0800   -0.0020 C   0  0  0  0  0  0  0  0  0  0  0  0
    3.2860   -0.0730   -0.9310 S   0  0  0  0  0  0  0  0  0  0  0  0
    2.4060    1.0070    0.2260 C   0  0  0  0  0  0  0  0  0  0  0  0
    0.9080    0.9670    0.0470 C   0  0  2  0  0  0  0  0  0  0  0  0
    0.2600   -0.3500    0.2510 C   0  0  0  0  0  0  0  0  0  0  0  0
   -1.1350   -0.2340   -0.0570 N   0  0  0  0  0  0  0  0  0  0  0  0
   -1.7260   -1.3790   -0.6370 C   0  0  0  0  0  0  0  0  0  0  0  0
   -1.8870   -2.5390    0.3470 C   0  0  0  0  0  0  0  0  0  0  0  0
   -2.7360   -2.1630    1.4000 O   0  0  0  0  0  0  0  0  0  0  0  0
   -1.6350    1.0390   -0.3890 C   0  0  1  0  0  0  0  0  0  0  0  0
   -2.0070    1.8120    0.8800 C   0  0  0  0  0  0  0  0  0  0  0  0
   -0.7100    1.8570   -1.2470 C   0  0  0  0  0  0  0  0  0  0  0  0
    0.5760    1.3970   -1.2490 O   0  0  0  0  0  0  0  0  0  0  0  0
  1  2  1  0
  2  3  1  0
  4  3  1  6
  4  5  1  0
  4 13  1  0
  5  6  1  0
  6  7  1  0
  6 10  1  0
  7  8  1  0
  8  9  1  0
 10 11  1  1
 10 12  1  0
 12 13  1  0
M  END
