
     RDKit          3D

 12 11  0  0  0  0  0  0  0  0999 V2000
    3.2830    1.3240   -0.7000 N   0  0  0  0  0  0  0  0  0  0  0  0
    2.8780    0.6600    0.5230 C   0  0  0  0  0  0  0  0  0  0  0  0
    1.4350    0.4020    0.5450 C   0  0  0  0  0  0  0  0  0  0  0  0
    0.8970   -0.7940    0.6390 C   0  0  0  0  0  0  0  0  0  0  0  0
    1.7370   -1.8960    0.7240 O   0  0  0  0  0  0  0  0  0  0  0  0
   -0.5570   -1.0330    0.6590 C   0  0  1  0  0  0  0  0  0  0  0  0
   -0.8750   -1.7240    1.9810 C   0  0  0  0  0  0  0  0  0  0  0  0
   -2.2160   -2.0350    1.9910 O   0  0  0  0  0  0  0  0  0  0  0  0
   -1.3070    0.1100    0.5480 O   0  0  0  0  0  0  0  0  0  0  0  0
   -2.1480    0.0370   -0.5830 C   0  0  0  0  0  0  0  0  0  0  0  0
   -2.9720    1.3020   -0.6980 C   0  0  0  0  0  0  0  0  0  0  0  0
   -2.0920    2.3890   -0.8270 O   0  0  0  0  0  0  0  0  0  0  0  0
  1  2  1  0
  2  3  1  0
  3  4  2  3
  4  5  1  0
  4  6  1  0
  6  7  1  1
  6  9  1  0
  7  8  1  0
  9 10  1  0
 10 11  1  0
 11 12  1  0
M  CHG  1   1   1
M  END
