
     RDKit          3D

 14 14  0  0  0  0  0  0  0  0999 V2000
    2.5380   -1.9400   -0.8110 C   0  0  0  0  0  0  0  0  0  0  0  0
    1.7930   -0.6310   -0.7850 C   0  0  2  0  0  0  0  0  0  0  0  0
    2.5030    0.3000    0.1440 C   0  0  0  0  0  0  0  0  0  0  0  0
    2.6120   -0.3050    1.8300 S   0  0  0  0  0  0  0  0  0  0  0  0
    0.3860   -0.8740   -0.4440 C   0  0  0  0  0  0  0  0  0  0  0  0
    0.0560   -2.0910   -0.2340 O   0  0  0  0  0  0  0  0  0  0  0  0
   -0.6080    0.1020   -0.3310 N   0  0  0  0  0  0  0  0  0  0  0  0
   -0.4210    1.5230   -0.5360 C   0  0  0  0  0  0  0  0  0  0  0  0
   -1.8230    2.0360   -0.9080 C   0  0  0  0  0  0  0  0  0  0  0  0
   -2.6770    1.2270    0.0410 C   0  0  0  0  0  0  0  0  0  0  0  0
   -1.9880   -0.1170    0.0030 C   0  0  2  0  0  0  0  0  0  0  0  0
   -2.1800   -0.8770    1.2470 C   0  0  0  0  0  0  0  0  0  0  0  0
   -3.3400   -1.1570    1.6320 O   0  0  0  0  0  0  0  0  0  0  0  0
   -1.0800   -1.2760    1.9810 O   0  0  0  0  0  0  0  0  0  0  0  0
  2  1  1  1
  2  3  1  0
  2  5  1  0
  3  4  1  0
  5  6  2  0
  5  7  1  0
  7  8  1  0
  7 11  1  0
  8  9  1  0
  9 10  1  0
 10 11  1  0
 11 12  1  1
 12 13  2  0
 12 14  1  0
M  END
