
     RDKit          3D

 14 14  0  0  0  0  0  0  0  0999 V2000
   -4.0570    2.0980   -0.0310 C   0  0  0  0  0  0  0  0  0  0  0  0
   -2.9600    1.2810   -0.4150 O   0  0  0  0  0  0  0  0  0  0  0  0
   -2.6320    0.1170    0.2660 C   0  0  0  0  0  0  0  0  0  0  0  0
   -3.3510   -0.1930    1.2500 O   0  0  0  0  0  0  0  0  0  0  0  0
   -1.4790   -0.7210   -0.1570 C   0  0  1  0  0  0  0  0  0  0  0  0
   -0.2280    0.0610   -0.3350 C   0  0  0  0  0  0  0  0  0  0  0  0
    0.9270   -0.5110    0.4080 C   0  0  2  0  0  0  0  0  0  0  0  0
    2.2230    0.1770    0.0550 C   0  0  0  0  0  0  0  0  0  0  0  0
    2.2010    1.9410    0.4260 S   0  0  0  0  0  0  0  0  0  0  0  0
    3.8190    2.6220   -0.0520 C   0  0  0  0  0  0  0  0  0  0  0  0
    1.1200   -1.9810    0.2420 C   0  0  0  0  0  0  0  0  0  0  0  0
    0.1790   -2.6290   -0.7190 C   0  0  0  0  0  0  0  0  0  0  0  0
   -0.9930   -2.9420   -0.0140 O   0  0  0  0  0  0  0  0  0  0  0  0
   -1.3520   -1.8640    0.7070 N   0  0  0  0  0  0  0  0  0  0  0  0
  1  2  1  0
  2  3  1  0
  3  4  2  0
  5  3  1  1
  5  6  1  0
  5 14  1  0
  6  7  1  0
  7  8  1  6
  7 11  1  0
  8  9  1  0
  9 10  1  0
 11 12  1  0
 12 13  1  0
 13 14  1  0
M  END
