
     RDKit          3D

 14 14  0  0  0  0  0  0  0  0999 V2000
    3.0310    1.1110   -0.4760 C   0  0  0  0  0  0  0  0  0  0  0  0
    1.9220    1.6780    0.1380 O   0  0  0  0  0  0  0  0  0  0  0  0
    0.8880    1.9220   -0.7410 C   0  0  0  0  0  0  0  0  0  0  0  0
    0.3450    0.6750   -1.3310 C   0  0  0  0  0  0  0  0  0  0  0  0
   -0.2620   -0.2980   -0.3640 C   0  0  2  0  0  0  0  0  0  0  0  0
    0.7000   -0.7600    0.6670 C   0  0  0  0  0  0  0  0  0  0  0  0
    1.4250   -1.0960    1.4620 N   0  0  0  0  0  0  0  0  0  0  0  0
   -0.6930   -1.5140   -1.1970 C   0  0  0  0  0  0  0  0  0  0  0  0
   -1.3430   -2.5580   -0.4170 C   0  0  0  0  0  0  0  0  0  0  0  0
   -1.1420   -3.7450   -0.6220 O   0  0  0  0  0  0  0  0  0  0  0  0
   -2.4840   -2.0760    0.8970 S   0  0  0  0  0  0  0  0  0  0  0  0
   -1.8870   -0.4810    1.5190 C   0  0  0  0  0  0  0  0  0  0  0  0
   -1.4580    0.3270    0.3100 C   0  0  2  0  0  0  0  0  0  0  0  0
   -2.5000    0.4280   -0.5760 O   0  0  0  0  0  0  0  0  0  0  0  0
  1  2  1  0
  2  3  1  0
  3  4  1  0
  5  4  1  6
  5  6  1  0
  5  8  1  0
  5 13  1  0
  6  7  3  0
  8  9  1  0
  9 10  2  0
  9 11  1  0
 11 12  1  0
 12 13  1  0
 13 14  1  6
M  END
