
     RDKit          3D

 33 35  0  0  0  0  0  0  0  0999 V2000
   -8.0530    0.4070    1.0770 C   0  0  0  0  0  0  0  0  0  0  0  0
   -7.3110    1.2760    0.4400 C   0  0  0  0  0  0  0  0  0  0  0  0
   -5.9320    0.9690    0.1800 C   0  0  0  0  0  0  0  0  0  0  0  0
   -5.2470    1.9590   -0.5170 C   0  0  0  0  0  0  0  0  0  0  0  0
   -5.8600    3.1960   -0.9430 C   0  0  0  0  0  0  0  0  0  0  0  0
   -5.2650   -0.0680    0.4960 O   0  0  0  0  0  0  0  0  0  0  0  0
   -4.5890   -1.0850    0.9540 C   0  0  0  0  0  0  0  0  0  0  0  0
   -4.1490   -1.9900   -0.1820 C   0  0  0  0  0  0  0  0  0  0  0  0
   -4.9970   -2.8100   -0.8510 C   0  0  0  0  0  0  0  0  0  0  0  0
   -4.5530   -3.6690   -1.8370 C   0  0  0  0  0  0  0  0  0  0  0  0
   -3.2030   -3.6660   -2.1210 C   0  0  0  0  0  0  0  0  0  0  0  0
   -2.3580   -2.8140   -1.4210 C   0  0  0  0  0  0  0  0  0  0  0  0
   -2.7530   -1.9670   -0.4590 C   0  0  0  0  0  0  0  0  0  0  0  0
   -1.9870   -0.9850    0.2790 C   0  0  0  0  0  0  0  0  0  0  0  0
   -0.6630   -0.6640    0.0680 N   0  0  0  0  0  0  0  0  0  0  0  0
   -0.2840    0.5160    0.8430 C   0  0  0  0  0  0  0  0  0  0  0  0
    0.6590    0.3000    1.9500 C   0  0  0  0  0  0  0  0  0  0  0  0
    1.8220   -0.6240    1.5500 C   0  0  0  0  0  0  0  0  0  0  0  0
    1.7090   -0.7780    0.0750 C   0  0  1  0  0  0  0  0  0  0  0  0
    2.8480   -1.2340   -0.7120 C   0  0  0  0  0  0  0  0  0  0  0  0
    3.9110   -0.2720   -0.6100 N   0  0  0  0  0  0  0  0  0  0  0  0
    3.7860    1.0120   -1.1350 C   0  0  0  0  0  0  0  0  0  0  0  0
    2.6160    1.2510   -1.7130 O   0  0  0  0  0  0  0  0  0  0  0  0
    4.6660    2.1300   -1.1900 C   0  0  0  0  0  0  0  0  0  0  0  0
    5.8520    2.4370   -0.9080 C   0  0  0  0  0  0  0  0  0  0  0  0
    6.9920    1.7650   -0.3680 C   0  0  0  0  0  0  0  0  0  0  0  0
    7.2890    0.4540   -0.2040 C   0  0  0  0  0  0  0  0  0  0  0  0
    8.5430    0.3580    0.3820 C   0  0  0  0  0  0  0  0  0  0  0  0
    8.9610    1.6480    0.5450 C   0  0  0  0  0  0  0  0  0  0  0  0
   10.2570    2.0580    1.1300 C   0  0  0  0  0  0  0  0  0  0  0  0
   11.0460    1.2130    1.5120 O   0  0  0  0  0  0  0  0  0  0  0  0
    8.0540    2.4630    0.1090 O   0  0  0  0  0  0  0  0  0  0  0  0
    0.3820   -1.5320   -0.2060 C   0  0  0  0  0  0  0  0  0  0  0  0
  1  2  2  0
  2  3  1  0
  3  4  2  3
  3  6  1  0
  4  5  1  0
  6  7  1  0
  7  8  1  0
  8  9  2  0
  8 13  1  0
  9 10  1  0
 10 11  2  0
 11 12  1  0
 12 13  2  0
 13 14  1  0
 14 15  1  0
 15 16  1  0
 15 33  1  0
 16 17  1  0
 17 18  1  0
 18 19  1  0
 19 20  1  1
 19 33  1  0
 20 21  1  0
 21 22  1  0
 22 23  2  0
 22 24  1  0
 24 25  2  3
 25 26  1  0
 26 27  2  0
 26 32  1  0
 27 28  1  0
 28 29  2  0
 29 30  1  0
 29 32  1  0
 30 31  2  0
M  END
