
     RDKit          3D

 32 33  0  0  0  0  0  0  0  0999 V2000
   -7.4810    2.5760    1.0100 C   0  0  0  0  0  0  0  0  0  0  0  0
   -6.9360    1.4760    0.4960 C   0  0  0  0  0  0  0  0  0  0  0  0
   -7.3850    1.1010   -0.7840 N   0  0  0  0  0  0  0  0  0  0  0  0
   -5.9500    0.7550    1.2300 C   0  0  0  0  0  0  0  0  0  0  0  0
   -5.6350    1.3270    2.5170 O   0  0  0  0  0  0  0  0  0  0  0  0
   -5.3150   -0.3210    0.9020 C   0  0  0  0  0  0  0  0  0  0  0  0
   -4.2920   -0.9220    1.8500 C   0  0  0  0  0  0  0  0  0  0  0  0
   -3.1020   -1.3210    0.9540 C   0  0  0  0  0  0  0  0  0  0  0  0
   -3.0780   -0.3850   -0.2020 C   0  0  2  0  0  0  0  0  0  0  0  0
   -4.2090   -0.7820   -1.1600 C   0  0  1  0  0  0  0  0  0  0  0  0
   -3.7880   -1.9720   -1.9680 C   0  0  0  0  0  0  0  0  0  0  0  0
   -2.5850   -1.6340   -2.8030 C   0  0  0  0  0  0  0  0  0  0  0  0
   -1.9300   -0.3270   -2.3610 C   0  0  0  0  0  0  0  0  0  0  0  0
   -1.8380   -0.2730   -0.9190 N   0  0  0  0  0  0  0  0  0  0  0  0
   -0.6020   -0.1270   -0.2800 C   0  0  0  0  0  0  0  0  0  0  0  0
   -0.5330   -0.0450    0.9960 O   0  0  0  0  0  0  0  0  0  0  0  0
    0.6560   -0.0570   -0.9360 N   0  0  0  0  0  0  0  0  0  0  0  0
    1.9050    0.0430   -0.2410 C   0  0  0  0  0  0  0  0  0  0  0  0
    1.8240    0.0870    1.0060 O   0  0  0  0  0  0  0  0  0  0  0  0
    3.1680    0.0860   -0.9610 C   0  0  0  0  0  0  0  0  0  0  0  0
    4.4120    0.1790   -0.0990 C   0  0  0  0  0  0  0  0  0  0  0  0
    4.4870    1.3940    0.7310 C   0  0  0  0  0  0  0  0  0  0  0  0
    5.6900    1.4570    1.6140 C   0  0  0  0  0  0  0  0  0  0  0  0
    6.9230    1.4410    1.1310 O   0  0  0  0  0  0  0  0  0  0  0  0
    7.5320    0.4190    0.5270 C   0  0  2  0  0  0  0  0  0  0  0  0
    8.7030    0.0040    1.2140 O   0  0  0  0  0  0  0  0  0  0  0  0
    8.6600   -1.3140    1.5940 C   0  0  0  0  0  0  0  0  0  0  0  0
    8.0090    0.8660   -0.8180 C   0  0  0  0  0  0  0  0  0  0  0  0
    7.7850    2.1930   -1.2580 N   0  0  0  0  0  0  0  0  0  0  0  0
    8.6070    0.0130   -1.5190 O   0  0  0  0  0  0  0  0  0  0  0  0
   -5.4770   -1.0600   -0.3480 C   0  0  1  0  0  0  0  0  0  0  0  0
   -5.5090   -2.4360    0.0080 O   0  0  0  0  0  0  0  0  0  0  0  0
  1  2  2  0
  2  3  1  0
  2  4  1  0
  4  5  1  0
  4  6  2  3
  6  7  1  0
  6 31  1  0
  7  8  1  0
  9  8  1  1
  9 10  1  0
  9 14  1  0
 10 11  1  1
 10 31  1  0
 11 12  1  0
 12 13  1  0
 13 14  1  0
 14 15  1  0
 15 16  2  0
 15 17  1  0
 17 18  1  0
 18 19  2  0
 18 20  1  0
 20 21  1  0
 21 22  1  0
 22 23  1  0
 23 24  1  0
 25 24  1  1
 25 26  1  0
 25 28  1  0
 26 27  1  0
 28 29  1  0
 28 30  2  0
 31 32  1  1
M  END
