
     RDKit          3D

 32 33  0  0  0  0  0  0  0  0999 V2000
   -5.1770    3.2250   -0.5490 C   0  0  0  0  0  0  0  0  0  0  0  0
   -6.5030    2.9630   -0.5440 O   0  0  0  0  0  0  0  0  0  0  0  0
   -7.0090    2.0520    0.3400 C   0  0  0  0  0  0  0  0  0  0  0  0
   -6.4190    0.6700    0.2660 C   0  0  1  0  0  0  0  0  0  0  0  0
   -6.5540    0.1030   -1.0830 C   0  0  0  0  0  0  0  0  0  0  0  0
   -5.2310    0.4400    1.0850 C   0  0  0  0  0  0  0  0  0  0  0  0
   -4.6210   -0.9320    0.9700 C   0  0  2  0  0  0  0  0  0  0  0  0
   -5.5930   -2.0430    1.3520 C   0  0  0  0  0  0  0  0  0  0  0  0
   -3.5570   -1.0080    2.0850 C   0  0  0  0  0  0  0  0  0  0  0  0
   -2.2980   -0.5860    1.3630 C   0  0  1  0  0  0  0  0  0  0  0  0
   -1.1800   -1.4690    1.9010 C   0  0  0  0  0  0  0  0  0  0  0  0
    0.0570   -1.2320    1.4000 O   0  0  0  0  0  0  0  0  0  0  0  0
    0.5950   -0.0200    1.7390 C   0  0  0  0  0  0  0  0  0  0  0  0
    1.9070    0.3100    1.2180 C   0  0  0  0  0  0  0  0  0  0  0  0
    2.6700    1.1720    1.4120 O   0  0  0  0  0  0  0  0  0  0  0  0
    2.4430   -0.8400    0.0480 N   0  0  0  0  0  0  0  0  0  0  0  0
    3.6940   -0.2930   -0.1740 C   0  0  0  0  0  0  0  0  0  0  0  0
    4.3290    0.6140    0.2560 O   0  0  0  0  0  0  0  0  0  0  0  0
    4.3330   -1.1240   -1.2360 N   0  0  0  0  0  0  0  0  0  0  0  0
    5.5860   -0.9690   -1.7350 C   0  0  0  0  0  0  0  0  0  0  0  0
    5.9700   -1.9460   -2.8040 C   0  0  0  0  0  0  0  0  0  0  0  0
    5.0350   -2.9310   -3.1930 N   0  0  0  0  0  0  0  0  0  0  0  0
    7.0810   -1.8710   -3.3120 O   0  0  0  0  0  0  0  0  0  0  0  0
    6.4990   -0.0810   -1.4080 C   0  0  0  0  0  0  0  0  0  0  0  0
    7.7560   -0.1580   -2.1100 N   0  0  0  0  0  0  0  0  0  0  0  0
    8.7270    0.6620   -1.8670 C   0  0  0  0  0  0  0  0  0  0  0  0
    8.5730    1.6970   -0.8660 C   0  0  0  0  0  0  0  0  0  0  0  0
    9.7160    2.6240   -0.6350 C   0  0  0  0  0  0  0  0  0  0  0  0
    7.4530    1.8040   -0.2060 C   0  0  0  0  0  0  0  0  0  0  0  0
    6.4100    0.9100   -0.4800 O   0  0  0  0  0  0  0  0  0  0  0  0
   -2.6080   -0.9180   -0.0650 C   0  0  0  0  0  0  0  0  0  0  0  0
   -3.9380   -1.1160   -0.1840 O   0  0  0  0  0  0  0  0  0  0  0  0
  1  2  1  0
  2  3  1  0
  3  4  1  0
  4  5  1  6
  4  6  1  0
  6  7  1  0
  7  8  1  1
  7  9  1  0
  7 32  1  0
  9 10  1  0
 10 11  1  1
 10 31  1  0
 11 12  1  0
 12 13  1  0
 13 14  1  0
 14 15  2  0
 14 16  1  0
 16 17  1  0
 17 18  2  0
 17 19  1  0
 19 20  1  0
 20 21  1  0
 20 24  2  3
 21 22  1  0
 21 23  2  0
 24 25  1  0
 24 30  1  0
 25 26  2  0
 26 27  1  0
 27 28  1  0
 27 29  2  0
 29 30  1  0
 31 32  1  0
M  END
