
     RDKit          3D

 32 34  0  0  0  0  0  0  0  0999 V2000
    6.9160    2.2980   -1.4260 C   0  0  0  0  0  0  0  0  0  0  0  0
    6.8710    1.2100   -0.5370 O   0  0  0  0  0  0  0  0  0  0  0  0
    6.3970    0.1320   -1.2360 C   0  0  1  0  0  0  0  0  0  0  0  0
    7.3420   -1.0780   -1.1930 C   0  0  0  0  0  0  0  0  0  0  0  0
    6.4260   -2.2350   -1.5830 C   0  0  0  0  0  0  0  0  0  0  0  0
    4.9980   -1.7030   -1.4660 C   0  0  0  0  0  0  0  0  0  0  0  0
    5.1880   -0.5330   -0.5590 C   0  0  2  0  0  0  0  0  0  0  0  0
    4.0770    0.3500   -0.4310 N   0  0  0  0  0  0  0  0  0  0  0  0
    3.6120    0.6780    0.8940 C   0  0  0  0  0  0  0  0  0  0  0  0
    4.2270    0.1520    1.8730 O   0  0  0  0  0  0  0  0  0  0  0  0
    2.5340    1.5330    1.1610 N   0  0  0  0  0  0  0  0  0  0  0  0
    2.0510    1.8780    2.4840 C   0  0  0  0  0  0  0  0  0  0  0  0
    1.6050    0.6150    3.1690 C   0  0  0  0  0  0  0  0  0  0  0  0
    0.5750   -0.0760    2.5140 O   0  0  0  0  0  0  0  0  0  0  0  0
   -0.6830    0.4710    2.2700 C   0  0  0  0  0  0  0  0  0  0  0  0
   -0.8630    1.6360    2.6590 O   0  0  0  0  0  0  0  0  0  0  0  0
   -1.7140   -0.3250    1.5840 C   0  0  0  0  0  0  0  0  0  0  0  0
   -1.5330   -1.6330    1.1470 C   0  0  0  0  0  0  0  0  0  0  0  0
   -0.2490   -2.4010    1.2890 C   0  0  0  0  0  0  0  0  0  0  0  0
   -2.6810   -2.0290    0.6080 N   0  0  0  0  0  0  0  0  0  0  0  0
   -3.6070   -1.0290    0.6770 C   0  0  0  0  0  0  0  0  0  0  0  0
   -4.9520   -1.1650    0.1850 C   0  0  0  0  0  0  0  0  0  0  0  0
   -5.2830   -2.2820   -0.3750 O   0  0  0  0  0  0  0  0  0  0  0  0
   -6.0220   -0.1630    0.2490 C   0  0  0  0  0  0  0  0  0  0  0  0
   -6.2060    0.4930   -1.1070 C   0  0  2  0  0  0  0  0  0  0  0  0
   -7.2500    1.4980   -1.0590 N   0  0  0  0  0  0  0  0  0  0  0  0
   -7.7890    1.4700   -2.4000 C   0  0  0  0  0  0  0  0  0  0  0  0
   -7.7140    0.1790   -2.8570 O   0  0  0  0  0  0  0  0  0  0  0  0
   -6.8480   -0.5340   -2.0620 C   0  0  2  0  0  0  0  0  0  0  0  0
   -7.6270   -1.4210   -1.2910 O   0  0  0  0  0  0  0  0  0  0  0  0
   -2.9970    0.0540    1.2920 C   0  0  0  0  0  0  0  0  0  0  0  0
   -3.6400    1.3840    1.5440 C   0  0  0  0  0  0  0  0  0  0  0  0
  1  2  1  0
  3  2  1  1
  3  4  1  0
  3  7  1  0
  4  5  1  0
  5  6  1  0
  6  7  1  0
  7  8  1  6
  8  9  1  0
  9 10  2  0
  9 11  1  0
 11 12  1  0
 12 13  1  0
 13 14  1  0
 14 15  1  0
 15 16  2  0
 15 17  1  0
 17 18  2  0
 17 31  1  0
 18 19  1  0
 18 20  1  0
 20 21  1  0
 21 22  1  0
 21 31  2  0
 22 23  2  0
 22 24  1  0
 25 24  1  1
 25 26  1  0
 25 29  1  0
 26 27  1  0
 27 28  1  0
 28 29  1  0
 29 30  1  1
 31 32  1  0
M  END
