
     RDKit          3D

 32 34  0  0  0  0  0  0  0  0999 V2000
   -3.7670   -1.7020   -2.6520 C   0  0  0  0  0  0  0  0  0  0  0  0
   -3.3800   -0.4140   -2.0200 C   0  0  0  0  0  0  0  0  0  0  0  0
   -3.6070   -0.3960   -0.4830 C   0  0  1  0  0  0  0  0  0  0  0  0
   -3.1600    0.9310   -0.0170 C   0  0  2  0  0  0  0  0  0  0  0  0
   -1.7270    1.1250   -0.4150 N   0  0  0  0  0  0  0  0  0  0  0  0
   -0.6940    0.2790    0.0790 C   0  0  0  0  0  0  0  0  0  0  0  0
   -1.0350   -0.6350    0.8610 O   0  0  0  0  0  0  0  0  0  0  0  0
    0.6560    0.4490   -0.2880 N   0  0  0  0  0  0  0  0  0  0  0  0
    1.7460   -0.3240    0.1220 C   0  0  0  0  0  0  0  0  0  0  0  0
    1.5820   -1.5340    0.7420 C   0  0  0  0  0  0  0  0  0  0  0  0
    2.7250   -2.2220    1.1310 C   0  0  0  0  0  0  0  0  0  0  0  0
    3.9950   -1.6990    0.8970 C   0  0  0  0  0  0  0  0  0  0  0  0
    4.1620   -0.4830    0.2740 C   0  0  0  0  0  0  0  0  0  0  0  0
    3.0320    0.1900   -0.1060 C   0  0  0  0  0  0  0  0  0  0  0  0
    5.5300    0.0480    0.0390 C   0  0  1  0  0  0  0  0  0  0  0  0
    6.5430   -0.5230    1.0070 C   0  0  0  0  0  0  0  0  0  0  0  0
    6.4240   -2.0320    1.0910 C   0  0  0  0  0  0  0  0  0  0  0  0
    5.0960   -2.4230    1.3040 O   0  0  0  0  0  0  0  0  0  0  0  0
    5.9570   -0.1340   -1.3250 N   0  0  0  0  0  0  0  0  0  0  0  0
    6.8440    0.9430   -1.6000 C   0  0  0  0  0  0  0  0  0  0  0  0
    7.7200    1.0490   -2.4980 O   0  0  0  0  0  0  0  0  0  0  0  0
    6.6080    2.0010   -0.6490 N   0  0  0  0  0  0  0  0  0  0  0  0
    5.5690    1.5200    0.1840 C   0  0  0  0  0  0  0  0  0  0  0  0
    4.8270    2.2190    0.9040 O   0  0  0  0  0  0  0  0  0  0  0  0
   -3.2850    1.2890    1.4150 C   0  0  1  0  0  0  0  0  0  0  0  0
   -2.7140    2.7320    1.6290 C   0  0  0  0  0  0  0  0  0  0  0  0
   -4.5790    1.2160    2.0750 C   0  0  0  0  0  0  0  0  0  0  0  0
   -5.5820    1.8820    1.7300 O   0  0  0  0  0  0  0  0  0  0  0  0
   -4.7840    0.3630    3.1840 O   0  0  0  0  0  0  0  0  0  0  0  0
   -5.0670   -0.7010   -0.2670 C   0  0  1  0  0  0  0  0  0  0  0  0
   -6.0100    0.2530   -0.9360 C   0  0  0  0  0  0  0  0  0  0  0  0
   -5.3490   -1.9950   -0.7620 O   0  0  0  0  0  0  0  0  0  0  0  0
  1  2  1  0
  3  2  1  6
  3  4  1  0
  3 30  1  0
  4  5  1  1
  4 25  1  0
  5  6  1  0
  6  7  2  0
  6  8  1  0
  8  9  1  0
  9 10  2  0
  9 14  1  0
 10 11  1  0
 11 12  2  0
 12 13  1  0
 12 18  1  0
 13 14  2  0
 13 15  1  0
 15 16  1  1
 15 19  1  0
 15 23  1  0
 16 17  1  0
 17 18  1  0
 19 20  1  0
 20 21  2  0
 20 22  1  0
 22 23  1  0
 23 24  2  0
 25 26  1  6
 25 27  1  0
 27 28  2  0
 27 29  1  0
 30 31  1  6
 30 32  1  0
M  END
