
     RDKit          3D

 33 35  0  0  0  0  0  0  0  0999 V2000
   -1.6960   -2.9150   -1.4340 C   0  0  0  0  0  0  0  0  0  0  0  0
   -2.4750   -1.9940   -1.9630 C   0  0  0  0  0  0  0  0  0  0  0  0
   -2.0590   -0.6430   -2.3700 C   0  0  0  0  0  0  0  0  0  0  0  0
   -2.8080    0.4940   -1.7810 C   0  0  0  0  0  0  0  0  0  0  0  0
   -2.8140    0.6040   -0.3530 N   0  0  0  0  0  0  0  0  0  0  0  0
   -3.5030   -0.2740    0.5510 C   0  0  0  0  0  0  0  0  0  0  0  0
   -4.9560   -0.1710    0.6570 C   0  0  2  0  0  0  0  0  0  0  0  0
   -5.8570   -0.5320   -0.4450 C   0  0  0  0  0  0  0  0  0  0  0  0
   -7.1910   -0.2320    0.3160 C   0  0  0  0  0  0  0  0  0  0  0  0
   -6.7630    1.1460    0.8450 C   0  0  0  0  0  0  0  0  0  0  0  0
   -5.4190    1.0780    1.0770 O   0  0  0  0  0  0  0  0  0  0  0  0
   -2.1550    1.7270    0.2800 C   0  0  0  0  0  0  0  0  0  0  0  0
   -2.6290    3.0140   -0.0060 C   0  0  0  0  0  0  0  0  0  0  0  0
   -2.1090    4.1040    0.6880 C   0  0  0  0  0  0  0  0  0  0  0  0
   -1.1260    3.9380    1.6620 C   0  0  0  0  0  0  0  0  0  0  0  0
   -0.6800    2.6800    1.9200 C   0  0  0  0  0  0  0  0  0  0  0  0
   -1.2050    1.5620    1.2120 C   0  0  0  0  0  0  0  0  0  0  0  0
   -0.5110    0.2720    1.4490 C   0  0  0  0  0  0  0  0  0  0  0  0
    0.8400    0.3780    0.7660 C   0  0  0  0  0  0  0  0  0  0  0  0
    1.1220    1.4410    0.1670 O   0  0  0  0  0  0  0  0  0  0  0  0
    1.7950   -0.6800    0.8010 N   0  0  0  0  0  0  0  0  0  0  0  0
    3.0730   -0.4500    0.1990 C   0  0  0  0  0  0  0  0  0  0  0  0
    3.9320   -1.6320    0.2340 C   0  0  0  0  0  0  0  0  0  0  0  0
    3.4920   -2.8890    0.5760 C   0  0  0  0  0  0  0  0  0  0  0  0
    4.3890   -3.9730    0.4970 C   0  0  0  0  0  0  0  0  0  0  0  0
    5.6920   -3.8050    0.0880 C   0  0  0  0  0  0  0  0  0  0  0  0
    6.1410   -2.5510   -0.2540 C   0  0  0  0  0  0  0  0  0  0  0  0
    5.2550   -1.4790   -0.1760 C   0  0  0  0  0  0  0  0  0  0  0  0
    5.6790   -0.1990   -0.5040 O   0  0  0  0  0  0  0  0  0  0  0  0
    7.0370   -0.0270   -0.9190 C   0  0  0  0  0  0  0  0  0  0  0  0
    7.3840    1.3730   -1.1850 C   0  0  0  0  0  0  0  0  0  0  0  0
    6.4420    2.4670   -0.9560 C   0  0  0  0  0  0  0  0  0  0  0  0
    8.4970    1.6420   -1.6110 O   0  0  0  0  0  0  0  0  0  0  0  0
  1  2  2  0
  2  3  1  0
  3  4  1  0
  4  5  1  0
  5  6  1  0
  5 12  1  0
  7  6  1  6
  7  8  1  0
  7 11  1  0
  8  9  1  0
  9 10  1  0
 10 11  1  0
 12 13  2  0
 12 17  1  0
 13 14  1  0
 14 15  2  0
 15 16  1  0
 16 17  2  0
 17 18  1  0
 18 19  1  0
 19 20  2  0
 19 21  1  0
 21 22  1  0
 22 23  1  0
 23 24  2  0
 23 28  1  0
 24 25  1  0
 25 26  2  0
 26 27  1  0
 27 28  2  0
 28 29  1  0
 29 30  1  0
 30 31  1  0
 31 32  1  0
 31 33  2  0
M  END
