
     RDKit          3D

 32 33  0  0  0  0  0  0  0  0999 V2000
    7.7880    1.0870    1.3580 C   0  0  0  0  0  0  0  0  0  0  0  0
    6.6650    0.0900    1.7330 C   0  0  0  0  0  0  0  0  0  0  0  0
    5.6990   -0.0120    0.6500 C   0  0  0  0  0  0  0  0  0  0  0  0
    4.4260    0.3820    0.7490 C   0  0  0  0  0  0  0  0  0  0  0  0
    3.8690    0.9540    1.9390 C   0  0  0  0  0  0  0  0  0  0  0  0
    2.5450    1.4030    2.1590 N   0  0  0  0  0  0  0  0  0  0  0  0
    4.5960    1.1180    2.9870 O   0  0  0  0  0  0  0  0  0  0  0  0
    3.6260    0.2320   -0.4150 N   0  0  0  0  0  0  0  0  0  0  0  0
    2.2340    0.6000   -0.4730 C   0  0  0  0  0  0  0  0  0  0  0  0
    1.3250   -0.5440   -0.1330 C   0  0  0  0  0  0  0  0  0  0  0  0
   -0.1060   -0.0920   -0.1830 C   0  0  0  0  0  0  0  0  0  0  0  0
   -0.3020    1.1220   -0.4440 O   0  0  0  0  0  0  0  0  0  0  0  0
   -1.1640   -0.9560    0.0430 N   0  0  0  0  0  0  0  0  0  0  0  0
   -0.8710   -2.3730    0.3860 C   0  0  2  0  0  0  0  0  0  0  0  0
   -0.8380   -3.2380   -0.7840 C   0  0  0  0  0  0  0  0  0  0  0  0
   -1.0640   -2.7090   -2.0930 N   0  0  0  0  0  0  0  0  0  0  0  0
   -0.6110   -4.4550   -0.6590 O   0  0  0  0  0  0  0  0  0  0  0  0
   -2.0000   -2.8410    1.3050 C   0  0  0  0  0  0  0  0  0  0  0  0
   -2.4630   -1.7410    2.2050 C   0  0  0  0  0  0  0  0  0  0  0  0
   -2.9980   -0.5450    1.4700 C   0  0  0  0  0  0  0  0  0  0  0  0
   -2.5450   -0.6450    0.0130 C   0  0  1  0  0  0  0  0  0  0  0  0
   -3.0370    0.4050   -0.8430 C   0  0  0  0  0  0  0  0  0  0  0  0
   -2.3810    0.9330   -1.7460 O   0  0  0  0  0  0  0  0  0  0  0  0
   -4.3420    0.8660   -0.6490 O   0  0  0  0  0  0  0  0  0  0  0  0
   -4.8970    1.8930   -1.4470 C   0  0  1  0  0  0  0  0  0  0  0  0
   -6.1240    1.3530   -2.1320 C   0  0  0  0  0  0  0  0  0  0  0  0
   -5.2960    3.0850   -0.6010 C   0  0  0  0  0  0  0  0  0  0  0  0
   -6.3240    2.6160    0.4050 C   0  0  0  0  0  0  0  0  0  0  0  0
    4.1860   -0.3190   -1.6380 C   0  0  0  0  0  0  0  0  0  0  0  0
    3.6930   -0.0450   -2.7620 O   0  0  0  0  0  0  0  0  0  0  0  0
    5.3580   -1.2120   -1.4880 C   0  0  0  0  0  0  0  0  0  0  0  0
    6.2050   -0.5720   -0.5550 O   0  0  0  0  0  0  0  0  0  0  0  0
  1  2  1  0
  2  3  1  0
  3  4  2  0
  3 32  1  0
  4  5  1  0
  4  8  1  0
  5  6  1  0
  5  7  2  0
  8  9  1  0
  8 29  1  0
  9 10  1  0
 10 11  1  0
 11 12  2  0
 11 13  1  0
 13 14  1  0
 13 21  1  0
 14 15  1  6
 14 18  1  0
 15 16  1  0
 15 17  2  0
 18 19  1  0
 19 20  1  0
 20 21  1  0
 21 22  1  1
 22 23  2  0
 22 24  1  0
 24 25  1  0
 25 26  1  1
 25 27  1  0
 27 28  1  0
 29 30  2  0
 29 31  1  0
 31 32  1  0
M  END
