
     RDKit          3D

 30 32  0  0  0  0  0  0  0  0999 V2000
   -1.5480    4.8490   -0.7900 C   0  0  0  0  0  0  0  0  0  0  0  0
   -2.4860    3.7100   -0.9210 C   0  0  0  0  0  0  0  0  0  0  0  0
   -1.8650    2.3370   -0.7830 C   0  0  0  0  0  0  0  0  0  0  0  0
   -1.1740    2.0350    0.4860 C   0  0  1  0  0  0  0  0  0  0  0  0
   -2.1460    2.1120    1.6370 C   0  0  0  0  0  0  0  0  0  0  0  0
   -2.7130    3.3890    1.7970 O   0  0  0  0  0  0  0  0  0  0  0  0
   -0.0060    1.1890    0.5710 C   0  0  2  0  0  0  0  0  0  0  0  0
    0.9590    1.8090   -0.2530 O   0  0  0  0  0  0  0  0  0  0  0  0
    0.0900   -0.2740    0.5420 C   0  0  1  0  0  0  0  0  0  0  0  0
    1.4920   -0.8280    0.6940 C   0  0  2  0  0  0  0  0  0  0  0  0
    1.2780   -2.2580    0.8730 O   0  0  0  0  0  0  0  0  0  0  0  0
    2.1010   -0.5500    2.0520 C   0  0  0  0  0  0  0  0  0  0  0  0
    3.3970   -1.3200    2.0030 C   0  0  0  0  0  0  0  0  0  0  0  0
    3.6420   -1.5710    0.5670 C   0  0  0  0  0  0  0  0  0  0  0  0
    2.5710   -0.7220   -0.2100 C   0  0  1  0  0  0  0  0  0  0  0  0
    2.5880   -1.4860   -1.5160 C   0  0  0  0  0  0  0  0  0  0  0  0
    3.3330    0.5210   -0.4800 C   0  0  0  0  0  0  0  0  0  0  0  0
    3.4730    1.0630   -1.6980 C   0  0  0  0  0  0  0  0  0  0  0  0
    4.2800    2.2790   -1.6320 C   0  0  0  0  0  0  0  0  0  0  0  0
    4.6370    2.4070   -0.2290 C   0  0  0  0  0  0  0  0  0  0  0  0
    4.0860    1.3970    0.4100 C   0  0  0  0  0  0  0  0  0  0  0  0
   -0.7520   -0.9350    1.6170 C   0  0  0  0  0  0  0  0  0  0  0  0
   -1.0980   -2.3490    1.4610 C   0  0  0  0  0  0  0  0  0  0  0  0
   -2.6340   -2.5390    1.4760 C   0  0  0  0  0  0  0  0  0  0  0  0
   -3.1420   -2.9070    0.1310 C   0  0  2  0  0  0  0  0  0  0  0  0
   -3.4760   -4.3820    0.0690 C   0  0  0  0  0  0  0  0  0  0  0  0
   -2.2400   -2.5570   -1.0300 C   0  0  0  0  0  0  0  0  0  0  0  0
   -1.8120   -1.0830   -1.0100 C   0  0  2  0  0  0  0  0  0  0  0  0
   -2.1960   -0.5970   -2.4290 C   0  0  0  0  0  0  0  0  0  0  0  0
   -0.3870   -0.8390   -0.7840 C   0  0  0  0  0  0  0  0  0  0  0  0
  1  2  1  0
  2  3  1  0
  4  3  1  6
  4  5  1  0
  4  7  1  0
  5  6  1  0
  7  8  1  6
  7  9  1  0
  9 10  1  0
  9 22  1  1
  9 30  1  0
 10 11  1  1
 10 12  1  0
 10 15  1  0
 12 13  1  0
 13 14  1  0
 14 15  1  0
 15 16  1  6
 15 17  1  0
 17 18  2  0
 17 21  1  0
 18 19  1  0
 19 20  1  0
 20 21  2  0
 22 23  1  0
 23 24  1  0
 24 25  1  0
 25 26  1  1
 25 27  1  0
 27 28  1  0
 28 29  1  6
 28 30  1  0
M  END
