
     RDKit          3D

 30 32  0  0  0  0  0  0  0  0999 V2000
    1.1440   -4.8550    0.1750 C   0  0  0  0  0  0  0  0  0  0  0  0
    0.1170   -3.8220   -0.0140 C   0  0  0  0  0  0  0  0  0  0  0  0
    0.5360   -2.4930   -0.6170 C   0  0  1  0  0  0  0  0  0  0  0  0
   -0.7750   -1.7180   -0.6850 C   0  0  0  0  0  0  0  0  0  0  0  0
   -0.6730   -0.2590   -0.9560 C   0  0  2  0  0  0  0  0  0  0  0  0
   -1.3230    0.4260    0.1960 C   0  0  0  0  0  0  0  0  0  0  0  0
   -2.7120    0.3070    0.5870 C   0  0  2  0  0  0  0  0  0  0  0  0
   -3.2250   -0.9620    0.8650 O   0  0  0  0  0  0  0  0  0  0  0  0
   -3.7470    1.2560    0.0430 C   0  0  1  0  0  0  0  0  0  0  0  0
   -3.4630    2.7060    0.3330 C   0  0  0  0  0  0  0  0  0  0  0  0
   -4.3040    0.9840   -1.3130 C   0  0  0  0  0  0  0  0  0  0  0  0
   -2.6860    0.8410    2.1100 C   0  0  2  0  0  0  0  0  0  0  0  0
   -1.7760    0.0120    2.9260 C   0  0  0  0  0  0  0  0  0  0  0  0
   -3.9920    0.8470    2.5460 O   0  0  0  0  0  0  0  0  0  0  0  0
   -1.3820   -0.0700   -2.2740 C   0  0  0  0  0  0  0  0  0  0  0  0
   -0.6610   -0.8530   -3.3820 C   0  0  0  0  0  0  0  0  0  0  0  0
    0.6390   -0.1930   -3.5340 C   0  0  0  0  0  0  0  0  0  0  0  0
    1.4460    0.0000   -2.3450 C   0  0  0  0  0  0  0  0  0  0  0  0
    0.7800    0.2830   -1.0110 C   0  0  1  0  0  0  0  0  0  0  0  0
    0.6240    1.7760   -0.9950 C   0  0  0  0  0  0  0  0  0  0  0  0
    1.6330   -0.3080    0.0360 C   0  0  1  0  0  0  0  0  0  0  0  0
    2.0510    0.3390    1.2610 C   0  0  0  0  0  0  0  0  0  0  0  0
    2.9480    1.5230    1.1950 C   0  0  0  0  0  0  0  0  0  0  0  0
    3.5050    2.0360    0.1340 C   0  0  0  0  0  0  0  0  0  0  0  0
    4.3140    3.2060    0.5170 C   0  0  0  0  0  0  0  0  0  0  0  0
    4.1480    3.3030    1.9780 C   0  0  0  0  0  0  0  0  0  0  0  0
    3.3670    2.3360    2.3420 C   0  0  0  0  0  0  0  0  0  0  0  0
    2.9600    2.0780    3.6550 O   0  0  0  0  0  0  0  0  0  0  0  0
    1.4740   -1.8020    0.2670 C   0  0  2  0  0  0  0  0  0  0  0  0
    2.8570   -2.4740    0.2340 C   0  0  0  0  0  0  0  0  0  0  0  0
  1  2  1  0
  3  2  1  1
  3  4  1  0
  3 29  1  0
  4  5  1  0
  5  6  1  1
  5 15  1  0
  5 19  1  0
  6  7  1  0
  7  8  1  1
  7  9  1  0
  7 12  1  0
  9 10  1  6
  9 11  1  0
 12 13  1  1
 12 14  1  0
 15 16  1  0
 16 17  1  0
 17 18  1  0
 18 19  1  0
 19 20  1  1
 19 21  1  0
 21 22  1  1
 21 29  1  0
 22 23  1  0
 23 24  2  0
 23 27  1  0
 24 25  1  0
 25 26  1  0
 26 27  2  0
 27 28  1  0
 29 30  1  6
M  END
