
     RDKit          3D

 30 32  0  0  0  0  0  0  0  0999 V2000
   -3.2330    2.1720    3.6360 C   0  0  0  0  0  0  0  0  0  0  0  0
   -2.3740    2.2070    2.6210 C   0  0  0  0  0  0  0  0  0  0  0  0
   -1.4980    1.0560    2.3800 C   0  0  0  0  0  0  0  0  0  0  0  0
   -1.4990    0.3660    1.2800 O   0  0  0  0  0  0  0  0  0  0  0  0
   -1.2260    0.7720    0.0040 C   0  0  1  0  0  0  0  0  0  0  0  0
   -2.2980    1.7710   -0.3320 C   0  0  0  0  0  0  0  0  0  0  0  0
    0.0480    1.5430    0.1040 C   0  0  0  0  0  0  0  0  0  0  0  0
    0.6490    2.0230   -1.2350 C   0  0  0  0  0  0  0  0  0  0  0  0
    1.7660    2.7420   -1.1910 C   0  0  0  0  0  0  0  0  0  0  0  0
    2.6380    3.4190   -2.2180 C   0  0  0  0  0  0  0  0  0  0  0  0
    3.9240    2.9260   -2.2330 O   0  0  0  0  0  0  0  0  0  0  0  0
    2.3920    2.8340    0.1850 C   0  0  0  0  0  0  0  0  0  0  0  0
    3.0140    1.8880    0.8860 C   0  0  0  0  0  0  0  0  0  0  0  0
    3.2430    0.4620    0.4170 C   0  0  1  0  0  0  0  0  0  0  0  0
    4.7570    0.3750    0.1330 C   0  0  0  0  0  0  0  0  0  0  0  0
    2.8350   -0.4620    1.4670 C   0  0  0  0  0  0  0  0  0  0  0  0
    1.6160   -1.2870    1.3510 C   0  0  0  0  0  0  0  0  0  0  0  0
    1.0360   -1.6490    0.0500 C   0  0  1  0  0  0  0  0  0  0  0  0
    1.3730   -3.1790   -0.0550 C   0  0  0  0  0  0  0  0  0  0  0  0
    0.8050   -3.9560    1.0710 C   0  0  0  0  0  0  0  0  0  0  0  0
   -0.3860   -3.3220    1.6640 C   0  0  0  0  0  0  0  0  0  0  0  0
   -1.2080   -2.4400    0.7700 C   0  0  0  0  0  0  0  0  0  0  0  0
   -0.3820   -1.6280   -0.2320 C   0  0  2  0  0  0  0  0  0  0  0  0
   -0.4710   -2.4810   -1.3670 O   0  0  0  0  0  0  0  0  0  0  0  0
   -1.1460   -0.4520   -0.8200 C   0  0  1  0  0  0  0  0  0  0  0  0
   -2.4800   -1.0750   -1.0920 C   0  0  0  0  0  0  0  0  0  0  0  0
   -3.5580   -0.4020   -1.8070 C   0  0  0  0  0  0  0  0  0  0  0  0
   -4.6700   -1.5200   -1.9230 C   0  0  0  0  0  0  0  0  0  0  0  0
   -0.4800   -0.0350   -2.0900 C   0  0  0  0  0  0  0  0  0  0  0  0
   -0.1950    1.4300   -2.2970 C   0  0  0  0  0  0  0  0  0  0  0  0
  1  2  2  0
  2  3  1  0
  3  4  1  0
  4  5  1  0
  5  6  1  6
  5  7  1  0
  5 25  1  0
  7  8  1  0
  8  9  2  0
  8 30  1  0
  9 10  1  0
  9 12  1  0
 10 11  1  0
 12 13  2  0
 13 14  1  0
 14 15  1  1
 14 16  1  0
 16 17  1  0
 18 17  1  1
 18 19  1  0
 18 23  1  0
 19 20  1  0
 20 21  1  0
 21 22  1  0
 22 23  1  0
 23 24  1  6
 23 25  1  0
 25 26  1  6
 25 29  1  0
 26 27  1  0
 27 28  1  0
 29 30  1  0
M  END
