
     RDKit          3D

 12 11  0  0  0  0  0  0  0  0999 V2000
    3.7930    1.8940    0.4820 O   0  0  0  0  0  0  0  0  0  0  0  0
    3.8030    1.2350   -0.7250 C   0  0  0  0  0  0  0  0  0  0  0  0
    3.0920   -0.0740   -0.7560 C   0  0  0  0  0  0  0  0  0  0  0  0
    1.7610   -0.0560   -0.4600 O   0  0  0  0  0  0  0  0  0  0  0  0
    1.3910    0.4010    0.7690 C   0  0  0  0  0  0  0  0  0  0  0  0
   -0.0250    0.3090    0.8130 O   0  0  0  0  0  0  0  0  0  0  0  0
   -0.4220   -1.0160    0.6340 C   0  0  0  0  0  0  0  0  0  0  0  0
   -1.9320   -1.0700    0.6870 C   0  0  0  0  0  0  0  0  0  0  0  0
   -2.4660   -0.2670   -0.3320 O   0  0  0  0  0  0  0  0  0  0  0  0
   -3.8370   -0.2930   -0.3140 C   0  0  1  0  0  0  0  0  0  0  0  0
   -4.3650    0.9730   -0.1230 O   0  0  0  0  0  0  0  0  0  0  0  0
   -4.2730   -0.7770   -1.5530 O   0  0  0  0  0  0  0  0  0  0  0  0
  1  2  1  0
  2  3  1  0
  3  4  1  0
  4  5  1  0
  5  6  1  0
  6  7  1  0
  7  8  1  0
  8  9  1  0
  9 10  1  0
 10 11  1  6
 10 12  1  0
M  END
