
     RDKit          3D

 19 21  0  0  0  0  0  0  0  0999 V2000
    3.1800   -2.2470    0.3690 N   0  0  0  0  0  0  0  0  0  0  0  0
    3.1140   -0.8040    0.5040 C   0  0  1  0  0  0  0  0  0  0  0  0
    3.2700   -0.1180   -0.8380 C   0  0  0  0  0  0  0  0  0  0  0  0
    1.8380    0.1450   -1.2330 C   0  0  0  0  0  0  0  0  0  0  0  0
    1.2300    0.5280    0.0150 N   0  0  0  0  0  0  0  0  0  0  0  0
    0.3100    1.5840    0.1780 C   0  0  0  0  0  0  0  0  0  0  0  0
    0.7370    2.6670    0.7470 N   0  0  0  0  0  0  0  0  0  0  0  0
    0.0990    3.8640    1.0500 N   0  0  0  0  0  0  0  0  0  0  0  0
   -1.2440    4.2650    0.7230 C   0  0  0  0  0  0  0  0  0  0  0  0
   -2.1810    3.5430    0.1320 C   0  0  0  0  0  0  0  0  0  0  0  0
   -2.1060    2.1650   -0.3410 C   0  0  0  0  0  0  0  0  0  0  0  0
   -1.0470    1.3600   -0.3110 C   0  0  0  0  0  0  0  0  0  0  0  0
   -1.3020    0.1100   -0.8370 O   0  0  0  0  0  0  0  0  0  0  0  0
   -2.3500   -0.7310   -0.3960 C   0  0  1  0  0  0  0  0  0  0  0  0
   -2.3040   -2.0010   -1.2080 C   0  0  0  0  0  0  0  0  0  0  0  0
   -2.1710   -3.0810   -0.1550 C   0  0  0  0  0  0  0  0  0  0  0  0
   -1.5800   -2.4700    0.9470 O   0  0  0  0  0  0  0  0  0  0  0  0
   -2.1530   -1.2220    1.0100 C   0  0  0  0  0  0  0  0  0  0  0  0
    1.7410   -0.3600    1.0240 C   0  0  0  0  0  0  0  0  0  0  0  0
  2  1  1  6
  2  3  1  0
  2 19  1  0
  3  4  1  0
  4  5  1  0
  5  6  1  0
  5 19  1  0
  6  7  2  0
  6 12  1  0
  7  8  1  0
  8  9  1  0
  9 10  2  0
 10 11  1  0
 11 12  2  0
 12 13  1  0
 14 13  1  6
 14 15  1  0
 14 18  1  0
 15 16  1  0
 16 17  1  0
 17 18  1  0
M  CHG  1   1   1
M  END
