
     RDKit          3D

 12 11  0  0  0  0  0  0  0  0999 V2000
   -3.7380    1.7640   -1.4440 O   0  0  0  0  0  0  0  0  0  0  0  0
   -3.4900    0.7930   -0.5010 C   0  0  0  0  0  0  0  0  0  0  0  0
   -2.1380    0.5310   -0.3310 O   0  0  0  0  0  0  0  0  0  0  0  0
   -2.0090   -0.4630    0.6420 C   0  0  0  0  0  0  0  0  0  0  0  0
   -0.5400   -0.7940    0.8730 C   0  0  1  0  0  0  0  0  0  0  0  0
   -0.5300   -1.7910    1.8550 O   0  0  0  0  0  0  0  0  0  0  0  0
    0.1040   -1.1950   -0.2490 O   0  0  0  0  0  0  0  0  0  0  0  0
    1.1860   -0.5050   -0.6800 C   0  0  0  0  0  0  0  0  0  0  0  0
    2.3730   -0.4470    0.2170 C   0  0  2  0  0  0  0  0  0  0  0  0
    2.1720    0.1300    1.4490 O   0  0  0  0  0  0  0  0  0  0  0  0
    3.5300    0.3230   -0.4350 C   0  0  0  0  0  0  0  0  0  0  0  0
    3.2280    1.6650   -0.5830 O   0  0  0  0  0  0  0  0  0  0  0  0
  1  2  1  0
  2  3  1  0
  3  4  1  0
  4  5  1  0
  5  6  1  1
  5  7  1  0
  7  8  1  0
  8  9  1  0
  9 10  1  1
  9 11  1  0
 11 12  1  0
M  END
