
     RDKit          3D

 12 11  0  0  0  0  0  0  0  0999 V2000
    4.4380   -1.2440    1.1680 O   0  0  0  0  0  0  0  0  0  0  0  0
    3.3570   -1.2120    0.2970 C   0  0  0  0  0  0  0  0  0  0  0  0
    3.2460    0.0680   -0.2740 O   0  0  0  0  0  0  0  0  0  0  0  0
    2.1650    0.0970   -1.1430 C   0  0  0  0  0  0  0  0  0  0  0  0
    1.0090   -0.2010   -0.4360 O   0  0  0  0  0  0  0  0  0  0  0  0
   -0.0570   -0.1650   -1.3310 C   0  0  0  0  0  0  0  0  0  0  0  0
   -1.3670   -0.4790   -0.6440 C   0  0  2  0  0  0  0  0  0  0  0  0
   -2.3840   -0.4300   -1.5670 O   0  0  0  0  0  0  0  0  0  0  0  0
   -1.6340    0.4150    0.5360 C   0  0  1  0  0  0  0  0  0  0  0  0
   -1.7670    1.7260    0.1370 O   0  0  0  0  0  0  0  0  0  0  0  0
   -2.8300   -0.1180    1.2690 C   0  0  0  0  0  0  0  0  0  0  0  0
   -3.1210    0.5870    2.4290 O   0  0  0  0  0  0  0  0  0  0  0  0
  1  2  1  0
  2  3  1  0
  3  4  1  0
  4  5  1  0
  5  6  1  0
  6  7  1  0
  7  8  1  6
  7  9  1  0
  9 10  1  6
  9 11  1  0
 11 12  1  0
M  END
