
     RDKit          3D

 12 11  0  0  0  0  0  0  0  0999 V2000
    4.4690    0.8410    0.6360 O   0  0  0  0  0  0  0  0  0  0  0  0
    4.1950   -0.1810   -0.2810 C   0  0  0  0  0  0  0  0  0  0  0  0
    2.9900   -0.8070    0.0730 O   0  0  0  0  0  0  0  0  0  0  0  0
    1.9720    0.1280    0.0500 C   0  0  0  0  0  0  0  0  0  0  0  0
    0.6900   -0.6140    0.4440 C   0  0  1  0  0  0  0  0  0  0  0  0
    0.8250   -1.1640    1.7210 O   0  0  0  0  0  0  0  0  0  0  0  0
   -0.3810    0.2750    0.4770 O   0  0  0  0  0  0  0  0  0  0  0  0
   -1.3510   -0.1450   -0.4350 C   0  0  0  0  0  0  0  0  0  0  0  0
   -2.5420    0.7830   -0.4460 C   0  0  2  0  0  0  0  0  0  0  0  0
   -3.1020    0.7970    0.8510 O   0  0  0  0  0  0  0  0  0  0  0  0
   -3.5410    0.2060   -1.4370 C   0  0  0  0  0  0  0  0  0  0  0  0
   -3.8560   -1.0850   -1.0590 O   0  0  0  0  0  0  0  0  0  0  0  0
  1  2  1  0
  2  3  1  0
  3  4  1  0
  4  5  1  0
  5  6  1  1
  5  7  1  0
  7  8  1  0
  8  9  1  0
  9 10  1  1
  9 11  1  0
 11 12  1  0
M  END
