
     RDKit          3D

 12 11  0  0  0  0  0  0  0  0999 V2000
    4.1950    1.1320    0.9580 O   0  0  0  0  0  0  0  0  0  0  0  0
    4.0150    0.8120   -0.3830 C   0  0  0  0  0  0  0  0  0  0  0  0
    2.7260    0.4150   -0.6570 O   0  0  0  0  0  0  0  0  0  0  0  0
    2.4180   -0.7110    0.1010 C   0  0  0  0  0  0  0  0  0  0  0  0
    1.1330   -1.1490   -0.1380 O   0  0  0  0  0  0  0  0  0  0  0  0
    0.1620   -0.2270    0.1510 C   0  0  0  0  0  0  0  0  0  0  0  0
   -1.1850   -0.8430   -0.1580 C   0  0  2  0  0  0  0  0  0  0  0  0
   -1.1960   -1.1710   -1.5110 O   0  0  0  0  0  0  0  0  0  0  0  0
   -2.2500    0.2010    0.1380 C   0  0  1  0  0  0  0  0  0  0  0  0
   -2.0040    1.3520   -0.6090 O   0  0  0  0  0  0  0  0  0  0  0  0
   -3.6210   -0.3070   -0.3100 C   0  0  0  0  0  0  0  0  0  0  0  0
   -4.5440    0.6890   -0.0450 O   0  0  0  0  0  0  0  0  0  0  0  0
  1  2  1  0
  2  3  1  0
  3  4  1  0
  4  5  1  0
  5  6  1  0
  6  7  1  0
  7  8  1  6
  7  9  1  0
  9 10  1  6
  9 11  1  0
 11 12  1  0
M  END
