
     RDKit          3D

 12 11  0  0  0  0  0  0  0  0999 V2000
    4.5260    0.1560    1.0140 O   0  0  0  0  0  0  0  0  0  0  0  0
    3.6530    0.9320    0.5620 C   0  0  0  0  0  0  0  0  0  0  0  0
    3.9460    2.2920    0.5980 O   0  0  0  0  0  0  0  0  0  0  0  0
    2.4800    0.4240    0.0650 O   0  0  0  0  0  0  0  0  0  0  0  0
    2.2070   -0.9620    0.0400 C   0  0  0  0  0  0  0  0  0  0  0  0
    0.8440   -1.2120   -0.5600 C   0  0  0  0  0  0  0  0  0  0  0  0
   -0.1680   -0.5890    0.1690 O   0  0  0  0  0  0  0  0  0  0  0  0
   -1.3630   -0.8730   -0.4530 C   0  0  0  0  0  0  0  0  0  0  0  0
   -2.5590   -0.2640    0.2240 C   0  0  1  0  0  0  0  0  0  0  0  0
   -2.6500   -0.7370    1.5190 O   0  0  0  0  0  0  0  0  0  0  0  0
   -2.5700    1.2290    0.1980 C   0  0  0  0  0  0  0  0  0  0  0  0
   -2.4760    1.6730   -1.1340 O   0  0  0  0  0  0  0  0  0  0  0  0
  1  2  2  0
  2  3  1  0
  2  4  1  0
  4  5  1  0
  5  6  1  0
  6  7  1  0
  7  8  1  0
  8  9  1  0
  9 10  1  1
  9 11  1  0
 11 12  1  0
M  END
