
     RDKit          3D

 13 12  0  0  0  0  0  0  0  0999 V2000
   -2.2960    0.7100   -1.5510 O   0  0  0  0  0  0  0  0  0  0  0  0
   -1.9150    1.1000   -0.4210 C   0  0  0  0  0  0  0  0  0  0  0  0
   -2.8690    1.5380    0.4670 O   0  0  0  0  0  0  0  0  0  0  0  0
   -0.4810    1.0890   -0.0510 C   0  0  0  0  0  0  0  0  0  0  0  0
   -0.1170   -0.2980    0.4030 C   0  0  2  0  0  0  0  0  0  0  0  0
   -0.9180   -0.6140    1.5060 O   0  0  0  0  0  0  0  0  0  0  0  0
    1.3130   -0.4000    0.8990 C   0  0  0  0  0  0  0  0  0  0  0  0
    2.3300   -0.0530   -0.0890 C   0  0  0  0  0  0  0  0  0  0  0  0
    2.6660   -0.8510   -0.9930 O   0  0  0  0  0  0  0  0  0  0  0  0
    2.9570    1.1820   -0.0550 O   0  0  0  0  0  0  0  0  0  0  0  0
   -0.3970   -1.2560   -0.6830 C   0  0  0  0  0  0  0  0  0  0  0  0
    0.1930   -1.1010   -1.7880 O   0  0  0  0  0  0  0  0  0  0  0  0
   -1.2790   -2.3200   -0.5380 O   0  0  0  0  0  0  0  0  0  0  0  0
  1  2  2  0
  2  3  1  0
  2  4  1  0
  4  5  1  0
  5  6  1  1
  5  7  1  0
  5 11  1  0
  7  8  1  0
  8  9  2  0
  8 10  1  0
 11 12  2  0
 11 13  1  0
M  END
