
     RDKit          3D

 12 11  0  0  0  0  0  0  0  0999 V2000
    3.9420   -0.2920    0.6760 O   0  0  0  0  0  0  0  0  0  0  0  0
    3.0160   -0.6920   -0.3010 C   0  0  0  0  0  0  0  0  0  0  0  0
    2.4790    0.5160   -1.0260 C   0  0  0  0  0  0  0  0  0  0  0  0
    1.8640    1.3550   -0.1400 O   0  0  0  0  0  0  0  0  0  0  0  0
    0.7940    0.7990    0.5270 C   0  0  0  0  0  0  0  0  0  0  0  0
   -0.1630    0.4030   -0.4270 O   0  0  0  0  0  0  0  0  0  0  0  0
   -1.2440   -0.1590    0.2450 C   0  0  2  0  0  0  0  0  0  0  0  0
   -1.4760   -1.5950   -0.2190 C   0  0  0  0  0  0  0  0  0  0  0  0
   -1.7420   -1.6440   -1.5800 O   0  0  0  0  0  0  0  0  0  0  0  0
   -2.4650    0.6820   -0.1010 C   0  0  1  0  0  0  0  0  0  0  0  0
   -3.5860    0.1690    0.5430 O   0  0  0  0  0  0  0  0  0  0  0  0
   -2.2130    1.9910    0.3170 O   0  0  0  0  0  0  0  0  0  0  0  0
  1  2  1  0
  2  3  1  0
  3  4  1  0
  4  5  1  0
  5  6  1  0
  6  7  1  0
  7  8  1  6
  7 10  1  0
  8  9  1  0
 10 11  1  1
 10 12  1  0
M  END
