
     RDKit          3D

 12 11  0  0  0  0  0  0  0  0999 V2000
    3.8450    0.0650   -1.1770 O   0  0  0  0  0  0  0  0  0  0  0  0
    3.8460   -0.4950    0.1110 C   0  0  0  0  0  0  0  0  0  0  0  0
    3.3640    0.3830    1.0500 O   0  0  0  0  0  0  0  0  0  0  0  0
    2.0760    0.8190    0.8530 C   0  0  0  0  0  0  0  0  0  0  0  0
    1.0900   -0.2980    0.8530 C   0  0  0  0  0  0  0  0  0  0  0  0
   -0.2190    0.1110    0.6590 O   0  0  0  0  0  0  0  0  0  0  0  0
   -0.4510    0.7590   -0.5180 C   0  0  0  0  0  0  0  0  0  0  0  0
   -1.8080    1.1010   -0.5560 O   0  0  0  0  0  0  0  0  0  0  0  0
   -2.5720   -0.0560   -0.4790 C   0  0  2  0  0  0  0  0  0  0  0  0
   -3.3500   -0.0970   -1.6470 O   0  0  0  0  0  0  0  0  0  0  0  0
   -3.5040   -0.0020    0.7130 C   0  0  0  0  0  0  0  0  0  0  0  0
   -4.2350   -1.2030    0.7160 O   0  0  0  0  0  0  0  0  0  0  0  0
  1  2  1  0
  2  3  1  0
  3  4  1  0
  4  5  1  0
  5  6  1  0
  6  7  1  0
  7  8  1  0
  8  9  1  0
  9 10  1  6
  9 11  1  0
 11 12  1  0
M  END
