
     RDKit          3D

 45 49  0  0  0  0  0  0  0  0999 V2000
   -8.6850   -2.3400   -0.7480 C   0  0  0  0  0  0  0  0  0  0  0  0
   -7.2010   -2.2550   -0.6510 C   0  0  0  0  0  0  0  0  0  0  0  0
   -6.6110   -1.1260   -1.5140 C   0  0  0  0  0  0  0  0  0  0  0  0
   -5.1740   -1.1050   -1.3640 N   0  0  0  0  0  0  0  0  0  0  0  0
   -4.5660    0.1760   -1.3660 C   0  0  2  0  0  0  0  0  0  0  0  0
   -3.2860    0.2890   -0.6080 C   0  0  0  0  0  0  0  0  0  0  0  0
   -2.1910   -0.5150   -0.9760 N   0  0  2  0  0  0  0  0  0  0  0  0
   -1.0890   -0.1320   -0.0680 C   0  0  0  0  0  0  0  0  0  0  0  0
    0.1850   -0.3120   -0.8090 C   0  0  1  0  0  0  0  0  0  0  0  0
    0.8720   -1.5290   -0.1930 C   0  0  0  0  0  0  0  0  0  0  0  0
    1.9200   -1.9060   -1.0930 N   0  0  0  0  0  0  0  0  0  0  0  0
    3.2600   -1.8280   -0.7490 C   0  0  0  0  0  0  0  0  0  0  0  0
    4.1110   -2.2670   -1.6000 O   0  0  0  0  0  0  0  0  0  0  0  0
    3.7720   -1.2840    0.5100 C   0  0  2  0  0  0  0  0  0  0  0  0
    3.6090    0.2240    0.6440 C   0  0  0  0  0  0  0  0  0  0  0  0
    4.1990    0.8270   -0.5900 C   0  0  0  0  0  0  0  0  0  0  0  0
    5.4850    0.2140   -1.0120 C   0  0  0  0  0  0  0  0  0  0  0  0
    5.9830   -0.9340   -0.2030 C   0  0  1  0  0  0  0  0  0  0  0  0
    7.1920   -0.4350    0.5630 C   0  0  0  0  0  0  0  0  0  0  0  0
    7.1840   -0.6110    1.7950 O   0  0  0  0  0  0  0  0  0  0  0  0
    8.2860    0.1980   -0.0420 N   0  0  0  0  0  0  0  0  0  0  0  0
    9.4470    0.7010    0.5630 C   0  0  0  0  0  0  0  0  0  0  0  0
    9.7030    0.7350    1.8930 C   0  0  0  0  0  0  0  0  0  0  0  0
   10.8620    1.2490    2.4570 C   0  0  0  0  0  0  0  0  0  0  0  0
   11.0660    1.2530    3.9260 C   0  0  0  0  0  0  0  0  0  0  0  0
   11.8210    1.7630    1.6120 C   0  0  0  0  0  0  0  0  0  0  0  0
   11.6030    1.7490    0.2570 C   0  0  0  0  0  0  0  0  0  0  0  0
   10.4450    1.2320   -0.2640 C   0  0  0  0  0  0  0  0  0  0  0  0
   10.2460    1.2350   -1.7490 C   0  0  0  0  0  0  0  0  0  0  0  0
    5.1360   -1.5380    0.6600 O   0  0  0  0  0  0  0  0  0  0  0  0
    1.5440   -2.3690   -2.4280 C   0  0  0  0  0  0  0  0  0  0  0  0
    0.2070   -1.8410   -2.8420 C   0  0  0  0  0  0  0  0  0  0  0  0
   -0.1820   -0.5460   -2.2130 C   0  0  1  0  0  0  0  0  0  0  0  0
   -1.6390   -0.2770   -2.2740 C   0  0  0  0  0  0  0  0  0  0  0  0
   -2.2150    0.0860   -3.2840 O   0  0  0  0  0  0  0  0  0  0  0  0
   -5.4580    1.2390   -0.7600 C   0  0  0  0  0  0  0  0  0  0  0  0
   -5.6900    2.4390   -1.3880 C   0  0  0  0  0  0  0  0  0  0  0  0
   -6.4830    3.4090   -0.8270 C   0  0  0  0  0  0  0  0  0  0  0  0
   -7.0670    3.1940    0.3930 C   0  0  0  0  0  0  0  0  0  0  0  0
   -6.8530    1.9850    1.0620 C   0  0  0  0  0  0  0  0  0  0  0  0
   -7.5070    1.8000    2.3990 C   0  0  0  0  0  0  0  0  0  0  0  0
   -7.4340    0.4680    2.9010 N   0  0  0  0  0  0  0  0  0  0  0  0
   -8.4610   -0.4010    2.3460 C   0  0  0  0  0  0  0  0  0  0  0  0
   -9.7530   -0.2630    3.1590 C   0  0  0  0  0  0  0  0  0  0  0  0
   -6.0550    1.0430    0.4660 C   0  0  0  0  0  0  0  0  0  0  0  0
  1  2  1  0
  2  3  1  0
  3  4  1  0
  4  5  1  0
  5  6  1  1
  5 36  1  0
  7  6  1  1
  7  8  1  0
  7 34  1  0
  9  8  1  1
  9 10  1  0
  9 33  1  0
 10 11  1  0
 11 12  1  0
 11 31  1  0
 12 13  2  0
 14 12  1  6
 14 15  1  0
 14 30  1  0
 15 16  1  0
 16 17  1  0
 17 18  1  0
 18 19  1  1
 18 30  1  0
 19 20  2  0
 19 21  1  0
 21 22  1  0
 22 23  2  0
 22 28  1  0
 23 24  1  0
 24 25  1  0
 24 26  2  0
 26 27  1  0
 27 28  2  0
 28 29  1  0
 31 32  1  0
 33 32  1  1
 33 34  1  0
 34 35  2  0
 36 37  2  0
 36 45  1  0
 37 38  1  0
 38 39  2  0
 39 40  1  0
 40 41  1  0
 40 45  2  0
 41 42  1  0
 42 43  1  0
 43 44  1  0
M  CHG  3   4   1   7   1  42   1
M  END
