
     RDKit          3D

 44 48  0  0  0  0  0  0  0  0999 V2000
    5.8490    3.5630   -2.2750 C   0  0  0  0  0  0  0  0  0  0  0  0
    6.7970    3.2930   -1.1580 C   0  0  0  0  0  0  0  0  0  0  0  0
    7.6660    4.2950   -0.7930 C   0  0  0  0  0  0  0  0  0  0  0  0
    8.5640    4.1130    0.2230 C   0  0  0  0  0  0  0  0  0  0  0  0
    8.5840    2.9210    0.8710 C   0  0  0  0  0  0  0  0  0  0  0  0
    7.6950    1.9090    0.4910 C   0  0  0  0  0  0  0  0  0  0  0  0
    6.7830    2.0430   -0.5160 C   0  0  0  0  0  0  0  0  0  0  0  0
    5.8650    1.0520   -0.9330 N   0  0  0  0  0  0  0  0  0  0  0  0
    5.7220   -0.2460   -0.4160 C   0  0  0  0  0  0  0  0  0  0  0  0
    6.4470   -0.6290    0.5090 O   0  0  0  0  0  0  0  0  0  0  0  0
    4.7090   -1.1920   -0.9530 C   0  0  0  0  0  0  0  0  0  0  0  0
    4.7530   -2.4630   -0.2660 N   0  0  2  0  0  0  0  0  0  0  0  0
    6.0990   -2.9690   -0.3590 C   0  0  0  0  0  0  0  0  0  0  0  0
    6.0660   -4.3550   -0.9520 C   0  0  0  0  0  0  0  0  0  0  0  0
    5.3970   -4.2610   -2.3080 C   0  0  0  0  0  0  0  0  0  0  0  0
    3.9600   -3.8270   -2.1060 C   0  0  0  0  0  0  0  0  0  0  0  0
    3.7500   -3.3790   -0.6510 C   0  0  2  0  0  0  0  0  0  0  0  0
    2.3430   -2.9110   -0.5010 C   0  0  0  0  0  0  0  0  0  0  0  0
    2.0240   -2.5700    0.9380 C   0  0  0  0  0  0  0  0  0  0  0  0
    0.6000   -2.1040    1.1000 C   0  0  0  0  0  0  0  0  0  0  0  0
   -0.4090   -3.0050    1.3570 C   0  0  0  0  0  0  0  0  0  0  0  0
   -1.7120   -2.5890    1.5130 C   0  0  0  0  0  0  0  0  0  0  0  0
   -2.0860   -1.2400    1.4220 C   0  0  0  0  0  0  0  0  0  0  0  0
   -3.4250   -0.8380    1.6830 C   0  0  0  0  0  0  0  0  0  0  0  0
   -4.0980   -1.7530    2.3440 O   0  0  0  0  0  0  0  0  0  0  0  0
   -4.1920    0.3560    1.3600 C   0  0  2  0  0  0  0  0  0  0  0  0
   -5.4160    0.3920    2.2390 C   0  0  2  0  0  0  0  0  0  0  0  0
   -6.6270   -0.3190    2.0540 C   0  0  0  0  0  0  0  0  0  0  0  0
   -6.8200   -1.7740    1.9780 C   0  0  0  0  0  0  0  0  0  0  0  0
   -8.3490   -2.0430    1.7790 C   0  0  0  0  0  0  0  0  0  0  0  0
   -9.0740   -1.5350    2.8290 O   0  0  0  0  0  0  0  0  0  0  0  0
   -5.7450    1.8250    2.5250 N   0  0  0  0  0  0  0  0  0  0  0  0
   -5.5090    2.9860    1.7370 C   0  0  0  0  0  0  0  0  0  0  0  0
   -5.9030    4.0920    2.1730 O   0  0  0  0  0  0  0  0  0  0  0  0
   -4.8170    2.9490    0.4210 C   0  0  2  0  0  0  0  0  0  0  0  0
   -5.0680    4.1560   -0.4360 C   0  0  0  0  0  0  0  0  0  0  0  0
   -4.6530    3.8920   -1.8520 C   0  0  0  0  0  0  0  0  0  0  0  0
   -3.3950    3.1280   -2.0410 C   0  0  0  0  0  0  0  0  0  0  0  0
   -3.5330    1.6320   -2.1910 C   0  0  0  0  0  0  0  0  0  0  0  0
   -3.2520    0.9170   -0.8750 C   0  0  0  0  0  0  0  0  0  0  0  0
   -4.5000    0.6130   -0.0840 C   0  0  2  0  0  0  0  0  0  0  0  0
   -5.3440    1.7740   -0.2640 N   0  0  0  0  0  0  0  0  0  0  0  0
   -1.0670   -0.3730    1.1680 C   0  0  0  0  0  0  0  0  0  0  0  0
    0.2710   -0.7770    1.0040 C   0  0  0  0  0  0  0  0  0  0  0  0
  1  2  1  0
  2  3  2  0
  2  7  1  0
  3  4  1  0
  4  5  2  0
  5  6  1  0
  6  7  2  0
  7  8  1  0
  8  9  1  0
  9 10  2  0
  9 11  1  0
 12 11  1  6
 12 13  1  0
 12 17  1  0
 13 14  1  0
 14 15  1  0
 15 16  1  0
 16 17  1  0
 17 18  1  6
 18 19  1  0
 19 20  1  0
 20 21  2  0
 20 44  1  0
 21 22  1  0
 22 23  2  0
 23 24  1  0
 23 43  1  0
 24 25  2  0
 26 24  1  6
 26 27  1  0
 26 41  1  0
 27 28  1  6
 27 32  1  0
 28 29  1  0
 29 30  1  0
 30 31  1  0
 32 33  1  0
 33 34  2  0
 33 35  1  0
 35 36  1  6
 35 42  1  0
 36 37  1  0
 37 38  1  0
 38 39  1  0
 39 40  1  0
 41 40  1  6
 41 42  1  0
 43 44  2  0
M  CHG  2  12   1  42   1
M  END
