
     RDKit          3D

 10 11  0  0  0  0  0  0  0  0999 V2000
    3.4270    0.0670   -0.2100 N   0  0  0  0  0  0  0  0  0  0  0  0
    2.0050    0.1020   -0.0920 C   0  0  0  0  0  0  0  0  0  0  0  0
    1.2520    1.0810    0.4400 N   0  0  0  0  0  0  0  0  0  0  0  0
   -0.0690    0.7360    0.3650 C   0  0  0  0  0  0  0  0  0  0  0  0
   -1.2330    1.3400    0.7430 C   0  0  0  0  0  0  0  0  0  0  0  0
   -2.4570    0.7480    0.5400 C   0  0  0  0  0  0  0  0  0  0  0  0
   -2.5080   -0.4880   -0.0610 C   0  0  0  0  0  0  0  0  0  0  0  0
   -1.3550   -1.1230   -0.4540 C   0  0  0  0  0  0  0  0  0  0  0  0
   -0.1330   -0.5020   -0.2360 C   0  0  0  0  0  0  0  0  0  0  0  0
    1.1450   -0.8470   -0.4950 N   0  0  0  0  0  0  0  0  0  0  0  0
  1  2  1  0
  2  3  2  0
  2 10  1  0
  3  4  1  0
  4  5  2  0
  4  9  1  0
  5  6  1  0
  6  7  2  0
  7  8  1  0
  8  9  2  0
  9 10  1  0
M  END
