
     RDKit          3D

 45 50  0  0  0  0  0  0  0  0999 V2000
   -4.8070    0.2530    2.4240 C   0  0  0  0  0  0  0  0  0  0  0  0
   -3.8670   -0.2130    1.5020 O   0  0  0  0  0  0  0  0  0  0  0  0
   -4.1740   -0.7780    0.2690 C   0  0  0  0  0  0  0  0  0  0  0  0
   -5.4610   -0.9320   -0.1570 C   0  0  0  0  0  0  0  0  0  0  0  0
   -5.7040   -1.4980   -1.3870 C   0  0  0  0  0  0  0  0  0  0  0  0
   -4.6370   -1.8970   -2.1620 C   0  0  0  0  0  0  0  0  0  0  0  0
   -4.9830   -2.4890   -3.4810 C   0  0  0  0  0  0  0  0  0  0  0  0
   -3.3520   -1.7340   -1.7180 C   0  0  0  0  0  0  0  0  0  0  0  0
   -3.0620   -1.1760   -0.4980 C   0  0  0  0  0  0  0  0  0  0  0  0
   -1.7240   -0.8800   -0.0300 C   0  0  0  0  0  0  0  0  0  0  0  0
   -0.7650   -1.6310    0.2720 C   0  0  0  0  0  0  0  0  0  0  0  0
    0.5220   -1.0540    0.7080 C   0  0  0  0  0  0  0  0  0  0  0  0
    1.4220   -1.8670    1.1730 C   0  0  0  0  0  0  0  0  0  0  0  0
    1.2310   -3.3220    1.2830 C   0  0  0  0  0  0  0  0  0  0  0  0
    0.1290   -3.8980    0.9160 C   0  0  0  0  0  0  0  0  0  0  0  0
   -0.9210   -3.0320    0.3870 N   0  0  0  0  0  0  0  0  0  0  0  0
   -2.0880   -3.7990    0.0270 C   0  0  0  0  0  0  0  0  0  0  0  0
   -3.1500   -3.8420    0.9000 C   0  0  0  0  0  0  0  0  0  0  0  0
   -4.2220   -4.6490    0.6030 C   0  0  0  0  0  0  0  0  0  0  0  0
   -4.2230   -5.4120   -0.5720 C   0  0  0  0  0  0  0  0  0  0  0  0
   -3.1630   -5.3590   -1.4290 C   0  0  0  0  0  0  0  0  0  0  0  0
   -2.0920   -4.5550   -1.1370 C   0  0  0  0  0  0  0  0  0  0  0  0
    2.7730   -1.4330    1.6790 C   0  0  2  0  0  0  0  0  0  0  0  0
    2.6700   -1.4370    3.0270 O   0  0  0  0  0  0  0  0  0  0  0  0
    3.4120   -0.4020    3.5280 C   0  0  0  0  0  0  0  0  0  0  0  0
    4.0560    0.3470    2.3520 C   0  0  0  0  0  0  0  0  0  0  0  0
    3.0430   -0.0630    1.2600 C   0  0  1  0  0  0  0  0  0  0  0  0
    3.7630    0.1180   -0.0580 C   0  0  0  0  0  0  0  0  0  0  0  0
    5.0490   -0.4740   -0.1560 N   0  0  0  0  0  0  0  0  0  0  0  0
    6.1560    0.4930   -0.0510 C   0  0  1  0  0  0  0  0  0  0  0  0
    7.3750   -0.2610    0.4720 C   0  0  0  0  0  0  0  0  0  0  0  0
    6.5350    1.0350   -1.3840 C   0  0  0  0  0  0  0  0  0  0  0  0
    7.7360    1.2130   -1.7870 N   0  0  0  0  0  0  0  0  0  0  0  0
    1.8950    0.8440    1.2610 C   0  0  0  0  0  0  0  0  0  0  0  0
    0.7470    0.3230    0.4770 N   0  0  0  0  0  0  0  0  0  0  0  0
    0.1920    1.2080   -0.4510 C   0  0  0  0  0  0  0  0  0  0  0  0
   -0.3410    2.5230    0.0590 C   0  0  2  0  0  0  0  0  0  0  0  0
   -1.3510    2.5340    1.0290 N   0  0  0  0  0  0  0  0  0  0  0  0
   -0.7160    3.4550   -1.0750 C   0  0  2  0  0  0  0  0  0  0  0  0
    0.3830    3.8350   -1.9940 C   0  0  0  0  0  0  0  0  0  0  0  0
    0.6730    5.3300   -1.9140 C   0  0  0  0  0  0  0  0  0  0  0  0
   -0.4260    6.0950   -2.2810 O   0  0  0  0  0  0  0  0  0  0  0  0
   -1.6270    5.5100   -1.9520 C   0  0  0  0  0  0  0  0  0  0  0  0
   -1.4690    4.6700   -0.6710 C   0  0  1  0  0  0  0  0  0  0  0  0
   -2.7640    4.4350   -0.2230 O   0  0  0  0  0  0  0  0  0  0  0  0
  1  2  1  0
  2  3  1  0
  3  4  2  0
  3  9  1  0
  4  5  1  0
  5  6  2  0
  6  7  1  0
  6  8  1  0
  8  9  2  0
  9 10  1  0
 10 11  2  3
 11 12  1  0
 11 16  1  0
 12 13  2  0
 12 35  1  0
 13 14  1  0
 13 23  1  0
 14 15  2  0
 15 16  1  0
 16 17  1  0
 17 18  2  0
 17 22  1  0
 18 19  1  0
 19 20  2  0
 20 21  1  0
 21 22  2  0
 23 24  1  1
 23 27  1  0
 24 25  1  0
 25 26  1  0
 26 27  1  0
 27 28  1  6
 27 34  1  0
 28 29  1  0
 29 30  1  0
 30 31  1  6
 30 32  1  0
 32 33  2  0
 34 35  1  0
 35 36  1  0
 36 37  1  0
 37 38  1  6
 37 39  1  0
 39 40  1  1
 39 44  1  0
 40 41  1  0
 41 42  1  0
 42 43  1  0
 43 44  1  0
 44 45  1  6
M  CHG  2  29   1  38   1
M  END
