
     RDKit          3D

 24 26  0  0  0  0  0  0  0  0999 V2000
   -2.3180    1.5640   -2.7880 C   0  0  0  0  0  0  0  0  0  0  0  0
   -2.7370    1.7590   -1.3910 C   0  0  0  0  0  0  0  0  0  0  0  0
   -2.5510    0.8740   -0.4290 C   0  0  0  0  0  0  0  0  0  0  0  0
   -3.0050    1.1790    0.8930 C   0  0  0  0  0  0  0  0  0  0  0  0
   -2.9370    0.4930    1.9890 C   0  0  0  0  0  0  0  0  0  0  0  0
   -3.6610    1.2060    3.6360 Br  0  0  0  0  0  0  0  0  0  0  0  0
   -1.9020   -0.3930   -0.7700 C   0  0  2  0  0  0  0  0  0  0  0  0
   -2.7590   -1.5920   -0.5120 C   0  0  0  0  0  0  0  0  0  0  0  0
   -1.8980   -2.5710    0.1910 C   0  0  0  0  0  0  0  0  0  0  0  0
   -0.5720   -1.9010    0.3720 C   0  0  1  0  0  0  0  0  0  0  0  0
    0.5240   -2.8080   -0.1720 C   0  0  0  0  0  0  0  0  0  0  0  0
   -0.5980   -0.6190   -0.2800 N   0  0  2  0  0  0  0  0  0  0  0  0
   -0.0690    0.3910    0.6120 C   0  0  0  0  0  0  0  0  0  0  0  0
    1.3200    0.6610    0.3000 N   0  0  0  0  0  0  0  0  0  0  0  0
    1.7230    1.5710   -0.6080 C   0  0  0  0  0  0  0  0  0  0  0  0
    0.7910    2.1890   -1.2050 O   0  0  0  0  0  0  0  0  0  0  0  0
    2.9770    1.8510   -0.9060 N   0  0  0  0  0  0  0  0  0  0  0  0
    4.0270    1.2030   -0.2830 C   0  0  0  0  0  0  0  0  0  0  0  0
    5.3500    1.4050   -0.5050 C   0  0  0  0  0  0  0  0  0  0  0  0
    6.2380    0.6680    0.2100 C   0  0  0  0  0  0  0  0  0  0  0  0
    5.1350   -0.3680    1.2560 S   0  0  0  0  0  0  0  0  0  0  0  0
    3.6590    0.2890    0.6300 C   0  0  0  0  0  0  0  0  0  0  0  0
    2.3060    0.0090    0.9300 C   0  0  0  0  0  0  0  0  0  0  0  0
    2.1310   -0.8670    1.8050 O   0  0  0  0  0  0  0  0  0  0  0  0
  1  2  1  0
  2  3  2  3
  3  4  1  0
  7  3  1  1
  4  5  2  3
  5  6  1  0
  7  8  1  0
  7 12  1  0
  8  9  1  0
  9 10  1  0
 10 11  1  6
 10 12  1  0
 12 13  1  1
 13 14  1  0
 14 15  1  0
 14 23  1  0
 15 16  2  0
 15 17  1  0
 17 18  1  0
 18 19  1  0
 18 22  2  0
 19 20  2  0
 20 21  1  0
 21 22  1  0
 22 23  1  0
 23 24  2  0
M  CHG  1  12   1
M  END
