
     RDKit          3D

 24 26  0  0  0  0  0  0  0  0999 V2000
    6.0850    1.2330    1.2790 C   0  0  0  0  0  0  0  0  0  0  0  0
    4.8630    0.6900    1.0770 C   0  0  0  0  0  0  0  0  0  0  0  0
    4.7450   -0.4430    0.1800 C   0  0  0  0  0  0  0  0  0  0  0  0
    3.6640   -1.0560   -0.0960 C   0  0  0  0  0  0  0  0  0  0  0  0
    3.5810   -2.4830   -1.2490 S   0  0  0  0  0  0  0  0  0  0  0  0
    1.9900   -1.8790   -1.9430 C   0  0  0  0  0  0  0  0  0  0  0  0
    1.3430   -1.2700   -0.7690 C   0  0  2  0  0  0  0  0  0  0  0  0
    0.3350   -0.2880   -1.1410 N   0  0  0  0  0  0  0  0  0  0  0  0
   -0.9830   -0.7990   -0.9850 C   0  0  0  0  0  0  0  0  0  0  0  0
   -1.9500    0.0890   -1.3550 O   0  0  0  0  0  0  0  0  0  0  0  0
   -3.2090    0.3910   -0.8420 C   0  0  0  0  0  0  0  0  0  0  0  0
   -4.2770    0.0350   -1.6410 C   0  0  0  0  0  0  0  0  0  0  0  0
   -5.6200    0.2460   -1.3000 C   0  0  0  0  0  0  0  0  0  0  0  0
   -5.8740    0.8430   -0.0940 C   0  0  0  0  0  0  0  0  0  0  0  0
   -4.8200    1.1970    0.6960 C   0  0  0  0  0  0  0  0  0  0  0  0
   -3.4570    0.9960    0.3700 C   0  0  0  0  0  0  0  0  0  0  0  0
   -2.5210    1.5130    1.3060 N   0  0  0  0  0  0  0  0  0  0  0  0
   -1.1180    1.5010    1.4270 C   0  0  0  0  0  0  0  0  0  0  0  0
   -0.2620    3.3100    1.1360 Br  0  0  0  0  0  0  0  0  0  0  0  0
   -0.2660    0.6980    1.7110 N   0  0  0  0  0  0  0  0  0  0  0  0
    0.4670   -0.3860    2.0600 C   0  0  0  0  0  0  0  0  0  0  0  0
    0.0740   -1.3440    2.8470 O   0  0  0  0  0  0  0  0  0  0  0  0
    1.8300   -0.5680    1.5570 C   0  0  0  0  0  0  0  0  0  0  0  0
    2.2340   -0.9060    0.3250 C   0  0  0  0  0  0  0  0  0  0  0  0
  1  2  2  0
  2  3  1  0
  3  4  2  3
  4  5  1  0
  4 24  1  0
  5  6  1  0
  7  6  1  6
  7  8  1  0
  7 24  1  0
  8  9  1  0
  9 10  1  0
 10 11  1  0
 11 12  2  0
 11 16  1  0
 12 13  1  0
 13 14  2  0
 14 15  1  0
 15 16  2  0
 16 17  1  0
 17 18  1  0
 18 19  1  0
 18 20  2  0
 20 21  1  0
 21 22  2  0
 21 23  1  0
 23 24  2  0
M  CHG  1   8   1
M  END
