
     RDKit          3D

 22 24  0  0  0  0  0  0  0  0999 V2000
    0.9140   -0.0950    1.4620 O   0  0  0  0  0  0  0  0  0  0  0  0
    1.5100    0.1810    0.3900 C   0  0  0  0  0  0  0  0  0  0  0  0
    0.9110   -0.2150   -0.8350 N   0  0  0  0  0  0  0  0  0  0  0  0
   -0.3550   -0.9210   -0.8530 C   0  0  1  0  0  0  0  0  0  0  0  0
   -1.4200   -0.1300   -0.2330 C   0  0  0  0  0  0  0  0  0  0  0  0
   -1.1310    1.0090    0.2210 O   0  0  0  0  0  0  0  0  0  0  0  0
   -2.7520   -0.6060   -0.1300 N   0  0  0  0  0  0  0  0  0  0  0  0
   -3.7250    0.2230    0.4850 C   0  0  0  0  0  0  0  0  0  0  0  0
   -4.8300    0.6970   -0.0370 C   0  0  0  0  0  0  0  0  0  0  0  0
   -5.5220    1.5050    0.9710 C   0  0  0  0  0  0  0  0  0  0  0  0
   -4.8440    1.5100    2.0680 N   0  0  0  0  0  0  0  0  0  0  0  0
   -3.6660    0.7200    1.8810 C   0  0  0  0  0  0  0  0  0  0  0  0
   -0.6470   -1.3110   -2.2780 C   0  0  0  0  0  0  0  0  0  0  0  0
    0.2480   -2.5220   -2.4460 C   0  0  0  0  0  0  0  0  0  0  0  0
    0.0290   -3.2000   -1.2100 O   0  0  0  0  0  0  0  0  0  0  0  0
   -0.2010   -2.2680   -0.2030 C   0  0  0  0  0  0  0  0  0  0  0  0
   -0.2790   -2.4520    1.0340 O   0  0  0  0  0  0  0  0  0  0  0  0
    2.7920    0.8990    0.4850 C   0  0  1  0  0  0  0  0  0  0  0  0
    3.8610    0.0230    1.1450 C   0  0  0  0  0  0  0  0  0  0  0  0
    5.1080    0.8440    0.7900 C   0  0  0  0  0  0  0  0  0  0  0  0
    4.6580    1.5570   -0.4650 C   0  0  0  0  0  0  0  0  0  0  0  0
    3.3710    1.1580   -0.7350 O   0  0  0  0  0  0  0  0  0  0  0  0
  1  2  2  0
  2  3  1  0
 18  2  1  6
  4  3  1  6
  4  5  1  0
  4 13  1  0
  4 16  1  0
  5  6  2  0
  5  7  1  0
  7  8  1  0
  8  9  2  0
  8 12  1  0
  9 10  1  0
 10 11  2  0
 11 12  1  0
 13 14  1  0
 14 15  1  0
 15 16  1  0
 16 17  2  0
 18 19  1  0
 18 22  1  0
 19 20  1  0
 20 21  1  0
 21 22  1  0
M  CHG  1  11   1
M  END
