
     RDKit          3D

 19 19  0  0  0  0  0  0  0  0999 V2000
   -2.4800   -1.2010    3.7820 O   0  0  0  0  0  0  0  0  0  0  0  0
   -1.9560   -0.8780    2.6410 C   0  0  0  0  0  0  0  0  0  0  0  0
   -0.5750   -0.4820    2.5990 N   0  0  0  0  0  0  0  0  0  0  0  0
   -0.0970    0.5500    1.9410 O   0  0  0  0  0  0  0  0  0  0  0  0
    0.2220    0.8450    0.6550 C   0  0  0  0  0  0  0  0  0  0  0  0
   -0.2550    1.9290    0.1420 O   0  0  0  0  0  0  0  0  0  0  0  0
    1.0550    0.0630   -0.2590 C   0  0  2  0  0  0  0  0  0  0  0  0
    2.2770    0.8880   -0.6730 C   0  0  0  0  0  0  0  0  0  0  0  0
    3.3420   -0.0280   -0.6360 O   0  0  0  0  0  0  0  0  0  0  0  0
    4.1500    0.4920    0.3690 O   0  0  0  0  0  0  0  0  0  0  0  0
    5.0260   -0.4600    0.5700 O   0  0  0  0  0  0  0  0  0  0  0  0
    5.4920   -0.4350    1.8150 O   0  0  0  0  0  0  0  0  0  0  0  0
    0.6210   -0.8160   -1.1690 O   0  0  0  0  0  0  0  0  0  0  0  0
   -0.1540   -0.2380   -2.1550 C   0  0  0  0  0  0  0  0  0  0  0  0
   -1.4060   -1.0280   -2.2210 C   0  0  0  0  0  0  0  0  0  0  0  0
   -1.9140   -1.1730   -0.9170 O   0  0  0  0  0  0  0  0  0  0  0  0
   -2.9230   -0.2110   -0.7840 C   0  0  0  0  0  0  0  0  0  0  0  0
   -3.1350    0.1750    0.6790 C   0  0  0  0  0  0  0  0  0  0  0  0
   -2.8050   -0.9060    1.5480 O   0  0  0  0  0  0  0  0  0  0  0  0
  1  2  2  0
  2  3  1  0
  2 19  1  0
  3  4  1  0
  4  5  1  0
  5  6  2  0
  5  7  1  0
  7  8  1  6
  7 13  1  0
  8  9  1  0
  9 10  1  0
 10 11  1  0
 11 12  1  0
 13 14  1  0
 14 15  1  0
 15 16  1  0
 16 17  1  0
 17 18  1  0
 18 19  1  0
M  END
