
     RDKit          3D

 21 21  0  0  0  0  0  0  0  0999 V2000
   -2.5890    2.6780   -1.3210 C   0  0  0  0  0  0  0  0  0  0  0  0
   -2.4560    1.5410   -0.4100 N   0  0  0  0  0  0  0  0  0  0  0  0
   -3.5380    1.1070    0.4150 C   0  0  0  0  0  0  0  0  0  0  0  0
   -4.6320    1.6810    0.3910 O   0  0  0  0  0  0  0  0  0  0  0  0
   -3.2420    0.0040    1.2230 O   0  0  0  0  0  0  0  0  0  0  0  0
   -1.9810   -0.1500    1.6370 O   0  0  0  0  0  0  0  0  0  0  0  0
   -1.0840   -0.3960    0.5920 C   0  0  1  0  0  0  0  0  0  0  0  0
    0.2310   -0.4090    1.1830 N   0  0  0  0  0  0  0  0  0  0  0  0
    1.4530   -0.5700    0.4800 C   0  0  0  0  0  0  0  0  0  0  0  0
    1.4350   -0.7110   -0.7460 O   0  0  0  0  0  0  0  0  0  0  0  0
    2.7400   -0.5640    1.2220 C   0  0  0  0  0  0  0  0  0  0  0  0
    3.9390   -0.5460    0.2890 C   0  0  0  0  0  0  0  0  0  0  0  0
    3.8760    0.6850   -0.5470 C   0  0  0  0  0  0  0  0  0  0  0  0
    3.4250    0.6310   -1.7070 O   0  0  0  0  0  0  0  0  0  0  0  0
    4.3260    1.8760   -0.0060 O   0  0  0  0  0  0  0  0  0  0  0  0
   -1.5580   -1.6280   -0.0620 C   0  0  1  0  0  0  0  0  0  0  0  0
   -0.9870   -2.0870   -1.3330 C   0  0  0  0  0  0  0  0  0  0  0  0
   -1.5790   -2.7340    0.8270 O   0  0  0  0  0  0  0  0  0  0  0  0
   -2.9400   -1.4240   -0.3080 F   0  0  0  0  0  0  0  0  0  0  0  0
   -1.2420    0.8120   -0.3080 C   0  0  0  0  0  0  0  0  0  0  0  0
   -0.3040    1.2360   -1.0180 O   0  0  0  0  0  0  0  0  0  0  0  0
  1  2  1  0
  2  3  1  0
  2 20  1  0
  3  4  2  0
  3  5  1  0
  5  6  1  0
  6  7  1  0
  7  8  1  1
  7 16  1  0
  7 20  1  0
  8  9  1  0
  9 10  2  0
  9 11  1  0
 11 12  1  0
 12 13  1  0
 13 14  2  0
 13 15  1  0
 16 17  1  6
 16 18  1  0
 16 19  1  0
 20 21  2  0
M  END
