
     RDKit          3D

 21 22  0  0  0  0  0  0  0  0999 V2000
   -4.1390    2.0720    0.4910 O   0  0  0  0  0  0  0  0  0  0  0  0
   -3.1300    1.4800    0.0390 C   0  0  0  0  0  0  0  0  0  0  0  0
   -2.8520    0.1890    0.5520 N   0  0  0  0  0  0  0  0  0  0  0  0
   -2.4010   -0.9220   -0.2800 C   0  0  0  0  0  0  0  0  0  0  0  0
   -1.0850   -1.4880    0.1030 C   0  0  0  0  0  0  0  0  0  0  0  0
   -0.4270   -0.8310    1.1710 O   0  0  0  0  0  0  0  0  0  0  0  0
    0.9480   -0.8590    1.4030 C   0  0  0  0  0  0  0  0  0  0  0  0
    1.4550   -1.4620    2.4310 O   0  0  0  0  0  0  0  0  0  0  0  0
    1.9540   -0.2220    0.5320 C   0  0  0  0  0  0  0  0  0  0  0  0
    3.0710   -1.0650    0.0520 C   0  0  0  0  0  0  0  0  0  0  0  0
    3.2870   -2.3470    0.2860 C   0  0  0  0  0  0  0  0  0  0  0  0
    4.4520   -2.6870   -0.3720 O   0  0  0  0  0  0  0  0  0  0  0  0
    4.9530   -1.6170   -1.0040 O   0  0  0  0  0  0  0  0  0  0  0  0
    4.1050   -0.5950   -0.7590 O   0  0  0  0  0  0  0  0  0  0  0  0
    1.9200    1.0600    0.1840 C   0  0  0  0  0  0  0  0  0  0  0  0
    1.0210    2.0080    0.5270 O   0  0  0  0  0  0  0  0  0  0  0  0
   -0.3140    2.0800    0.3590 C   0  0  0  0  0  0  0  0  0  0  0  0
   -1.1310    2.1310    1.3390 O   0  0  0  0  0  0  0  0  0  0  0  0
   -0.9090    2.1080   -1.0010 C   0  0  1  0  0  0  0  0  0  0  0  0
   -0.4390    1.0980   -1.7860 F   0  0  0  0  0  0  0  0  0  0  0  0
   -2.3650    2.1600   -0.9400 N   0  0  0  0  0  0  0  0  0  0  0  0
  1  2  2  0
  2  3  1  0
  2 21  1  0
  3  4  1  0
  4  5  1  0
  5  6  1  0
  6  7  1  0
  7  8  2  0
  7  9  1  0
  9 10  1  0
  9 15  2  0
 10 11  2  0
 10 14  1  0
 11 12  1  0
 12 13  1  0
 13 14  1  0
 15 16  1  0
 16 17  1  0
 17 18  2  0
 17 19  1  0
 19 20  1  6
 19 21  1  0
M  END
