
     RDKit          3D

 19 19  0  0  0  0  0  0  0  0999 V2000
   -1.5800    0.7280    0.8220 O   0  0  0  0  0  0  0  0  0  0  0  0
   -1.8150    0.0780   -0.2250 C   0  0  0  0  0  0  0  0  0  0  0  0
   -0.7490   -0.1620   -1.1250 N   0  0  0  0  0  0  0  0  0  0  0  0
    0.5840    0.3230   -0.8510 C   0  0  0  0  0  0  0  0  0  0  0  0
    1.1870   -0.2060    0.4050 C   0  0  0  0  0  0  0  0  0  0  0  0
    2.4670    0.3170    0.5840 O   0  0  0  0  0  0  0  0  0  0  0  0
    3.5530    0.1690   -0.2370 C   0  0  0  0  0  0  0  0  0  0  0  0
    3.4410   -0.5030   -1.2750 O   0  0  0  0  0  0  0  0  0  0  0  0
    4.7440    0.7720    0.1150 O   0  0  0  0  0  0  0  0  0  0  0  0
    5.8980    0.6670   -0.6710 C   0  0  0  0  0  0  0  0  0  0  0  0
    6.2940   -0.6440   -0.8200 O   0  0  0  0  0  0  0  0  0  0  0  0
   -3.1080   -0.3660   -0.4400 O   0  0  0  0  0  0  0  0  0  0  0  0
   -4.1000   -0.0880    0.4950 C   0  0  1  0  0  0  0  0  0  0  0  0
   -5.1620    0.6760   -0.0080 O   0  0  0  0  0  0  0  0  0  0  0  0
   -6.2660    0.4290    0.7870 C   0  0  0  0  0  0  0  0  0  0  0  0
   -7.2960    1.1490    0.9580 O   0  0  0  0  0  0  0  0  0  0  0  0
   -6.0370   -0.8190    1.4010 O   0  0  0  0  0  0  0  0  0  0  0  0
   -4.8120   -1.2980    0.9710 C   0  0  0  0  0  0  0  0  0  0  0  0
   -4.3650   -2.4590    0.9650 O   0  0  0  0  0  0  0  0  0  0  0  0
  1  2  2  0
  2  3  1  0
  2 12  1  0
  3  4  1  0
  4  5  1  0
  5  6  1  0
  6  7  1  0
  7  8  2  0
  7  9  1  0
  9 10  1  0
 10 11  1  0
 13 12  1  6
 13 14  1  0
 13 18  1  0
 14 15  1  0
 15 16  2  0
 15 17  1  0
 17 18  1  0
 18 19  2  0
M  END
