
     RDKit          3D

 25 25  0  0  0  0  0  0  0  0999 V2000
    6.6360    1.4350    0.0500 C   0  0  0  0  0  0  0  0  0  0  0  0
    5.6970    0.6610   -0.8480 C   0  0  0  0  0  0  0  0  0  0  0  0
    4.6230    0.0320   -0.0310 C   0  0  0  0  0  0  0  0  0  0  0  0
    3.6850   -0.7050   -0.6650 C   0  0  0  0  0  0  0  0  0  0  0  0
    2.6660   -1.3040    0.0970 C   0  0  0  0  0  0  0  0  0  0  0  0
    1.7390   -2.0380   -0.5520 O   0  0  0  0  0  0  0  0  0  0  0  0
    0.6330   -2.7200   -0.1780 C   0  0  0  0  0  0  0  0  0  0  0  0
   -0.4410   -1.8270    0.3860 C   0  0  0  0  0  0  0  0  0  0  0  0
   -0.7710   -0.9160   -0.6390 O   0  0  0  0  0  0  0  0  0  0  0  0
   -1.9940    0.1870   -0.1590 P   0  0  0  0  0  0  0  0  0  0  0  0
   -1.4230    1.8510   -0.5320 N   0  0  0  0  0  0  0  0  0  0  0  0
   -2.4060    2.7730   -0.0120 C   0  0  0  0  0  0  0  0  0  0  0  0
   -2.0260    4.2150   -0.2710 C   0  0  0  0  0  0  0  0  0  0  0  0
   -3.0180    5.0260    0.2580 O   0  0  0  0  0  0  0  0  0  0  0  0
   -3.5880   -0.0700   -1.0720 C   0  0  1  0  0  0  0  0  0  0  0  0
   -3.4210    0.0900   -2.4430 O   0  0  0  0  0  0  0  0  0  0  0  0
   -4.2130   -1.3680   -0.7670 C   0  0  0  0  0  0  0  0  0  0  0  0
   -4.5090   -2.1420   -1.6970 O   0  0  0  0  0  0  0  0  0  0  0  0
   -4.4880   -1.7610    0.5980 C   0  0  0  0  0  0  0  0  0  0  0  0
   -5.1170   -3.0630    0.9440 C   0  0  0  0  0  0  0  0  0  0  0  0
   -4.2060   -1.0100    1.5910 O   0  0  0  0  0  0  0  0  0  0  0  0
    2.6610   -1.1200    1.4460 C   0  0  0  0  0  0  0  0  0  0  0  0
    3.6670   -0.3440    2.0170 C   0  0  0  0  0  0  0  0  0  0  0  0
    3.6510   -0.1800    3.2820 O   0  0  0  0  0  0  0  0  0  0  0  0
    4.5900    0.1910    1.2740 O   0  0  0  0  0  0  0  0  0  0  0  0
  1  2  1  0
  2  3  1  0
  3  4  2  0
  3 25  1  0
  4  5  1  0
  5  6  1  0
  5 22  2  0
  6  7  1  0
  7  8  1  0
  8  9  1  0
  9 10  1  0
 10 11  1  0
 10 15  1  0
 11 12  1  0
 12 13  1  0
 13 14  1  0
 15 16  1  6
 15 17  1  0
 17 18  2  0
 17 19  1  0
 19 20  1  0
 19 21  2  0
 22 23  1  0
 23 24  2  0
 23 25  1  0
M  END
