
     RDKit          3D

 18 17  0  0  0  0  0  0  0  0999 V2000
   -3.2450    1.0860   -0.7470 O   0  0  0  0  0  0  0  0  0  0  0  0
   -3.0740    0.0110   -0.1470 C   0  0  0  0  0  0  0  0  0  0  0  0
   -4.3110   -0.7780    0.2190 C   0  0  0  0  0  0  0  0  0  0  0  0
   -5.8080   -0.0490   -0.2630 P   0  0  0  0  0  0  0  0  0  0  0  0
   -6.0630    1.5670   -0.0970 O   0  0  0  0  0  0  0  0  0  0  0  0
   -6.9390   -0.9370   -1.1570 O   0  0  0  0  0  0  0  0  0  0  0  0
   -6.6680   -0.3580    0.9660 O   0  0  0  0  0  0  0  0  0  0  0  0
   -1.7830   -0.4630    0.1830 N   0  0  0  0  0  0  0  0  0  0  0  0
   -0.5760    0.2980   -0.1700 C   0  0  0  0  0  0  0  0  0  0  0  0
    0.6640   -0.4230    0.2930 C   0  0  0  0  0  0  0  0  0  0  0  0
    1.8190    0.3520   -0.0700 N   0  0  0  0  0  0  0  0  0  0  0  0
    3.1570   -0.0880    0.2440 C   0  0  0  0  0  0  0  0  0  0  0  0
    3.3290   -1.1660    0.8460 O   0  0  0  0  0  0  0  0  0  0  0  0
    4.2670    0.8150   -0.1920 C   0  0  0  0  0  0  0  0  0  0  0  0
    5.8700    0.2800    0.1890 P   0  0  0  0  0  0  0  0  0  0  0  0
    6.2930   -1.3210    0.0260 O   0  0  0  0  0  0  0  0  0  0  0  0
    6.5790    0.5960   -1.1290 O   0  0  0  0  0  0  0  0  0  0  0  0
    6.9610    1.2940    0.9580 O   0  0  0  0  0  0  0  0  0  0  0  0
  1  2  2  0
  2  3  1  0
  2  8  1  0
  3  4  1  0
  4  5  1  0
  4  6  1  0
  4  7  1  0
  8  9  1  0
  9 10  1  0
 10 11  1  0
 11 12  1  0
 12 13  2  0
 12 14  1  0
 14 15  1  0
 15 16  1  0
 15 17  1  0
 15 18  1  0
M  END
