
     RDKit          3D

 22 22  0  0  0  0  0  0  0  0999 V2000
    7.5850    1.3940    0.0330 C   0  0  0  0  0  0  0  0  0  0  0  0
    6.8460    1.1800    1.1760 O   0  0  0  0  0  0  0  0  0  0  0  0
    5.4890    1.0030    0.9230 C   0  0  0  0  0  0  0  0  0  0  0  0
    5.1820   -0.1600    0.0410 C   0  0  0  0  0  0  0  0  0  0  0  0
    3.8170   -0.2820   -0.1700 O   0  0  0  0  0  0  0  0  0  0  0  0
    3.0650    0.6750   -0.7890 C   0  0  0  0  0  0  0  0  0  0  0  0
    3.5900    1.7260   -1.2060 O   0  0  0  0  0  0  0  0  0  0  0  0
    1.6310    0.4790   -0.9730 C   0  0  0  0  0  0  0  0  0  0  0  0
    1.0510   -0.6280   -0.5400 C   0  0  0  0  0  0  0  0  0  0  0  0
    1.8290   -1.5750    0.0800 O   0  0  0  0  0  0  0  0  0  0  0  0
    1.3730   -2.8690    0.4210 C   0  0  0  0  0  0  0  0  0  0  0  0
   -0.1360   -2.7910    0.5910 C   0  0  0  0  0  0  0  0  0  0  0  0
   -0.6830   -2.2700   -0.7300 C   0  0  0  0  0  0  0  0  0  0  0  0
   -0.4120   -0.7780   -0.7510 C   0  0  1  0  0  0  0  0  0  0  0  0
   -1.1820   -0.0510    0.2230 N   0  0  0  0  0  0  0  0  0  0  0  0
   -2.5850   -0.1980   -0.0070 C   0  0  0  0  0  0  0  0  0  0  0  0
   -3.4220    0.5660    1.0010 C   0  0  0  0  0  0  0  0  0  0  0  0
   -4.8940    0.3780    0.7140 C   0  0  0  0  0  0  0  0  0  0  0  0
   -5.3800    0.9730   -0.9610 P   0  0  0  0  0  0  0  0  0  0  0  0
   -5.1900   -0.2560   -2.1680 O   0  0  0  0  0  0  0  0  0  0  0  0
   -6.9810    1.6340   -0.9760 O   0  0  0  0  0  0  0  0  0  0  0  0
   -7.0290    2.8880   -0.3860 C   0  0  0  0  0  0  0  0  0  0  0  0
  1  2  1  0
  2  3  1  0
  3  4  1  0
  4  5  1  0
  5  6  1  0
  6  7  2  0
  6  8  1  0
  8  9  2  3
  9 10  1  0
  9 14  1  0
 10 11  1  0
 11 12  1  0
 12 13  1  0
 13 14  1  0
 14 15  1  1
 15 16  1  0
 16 17  1  0
 17 18  1  0
 18 19  1  0
 19 20  1  0
 19 21  1  0
 21 22  1  0
M  END
