
     RDKit          3D

 22 22  0  0  0  0  0  0  0  0999 V2000
   -2.0480    0.6910    0.4000 O   0  0  0  0  0  0  0  0  0  0  0  0
   -2.8650   -0.0410   -0.1830 C   0  0  0  0  0  0  0  0  0  0  0  0
   -4.3070    0.4010   -0.1160 C   0  0  0  0  0  0  0  0  0  0  0  0
   -4.6610    1.8340    0.7480 P   0  0  0  0  0  0  0  0  0  0  0  0
   -6.1460    1.5560    1.0680 O   0  0  0  0  0  0  0  0  0  0  0  0
   -5.2420    3.2030   -0.1110 O   0  0  0  0  0  0  0  0  0  0  0  0
   -4.3170    1.9600    2.3420 O   0  0  0  0  0  0  0  0  0  0  0  0
   -2.4540   -1.1920   -0.8500 N   0  0  0  0  0  0  0  0  0  0  0  0
   -1.1260   -1.6830   -0.9680 C   0  0  0  0  0  0  0  0  0  0  0  0
   -0.9670   -2.9470   -1.5580 C   0  0  0  0  0  0  0  0  0  0  0  0
    0.2570   -3.5280   -1.7350 C   0  0  0  0  0  0  0  0  0  0  0  0
    1.3880   -2.8220   -1.3040 C   0  0  0  0  0  0  0  0  0  0  0  0
    1.3030   -1.5890   -0.7220 C   0  0  0  0  0  0  0  0  0  0  0  0
    2.3970   -0.8140   -0.2410 N   0  0  0  0  0  0  0  0  0  0  0  0
    3.6950   -1.2650   -0.0430 C   0  0  0  0  0  0  0  0  0  0  0  0
    3.9950   -2.4790   -0.2910 O   0  0  0  0  0  0  0  0  0  0  0  0
    4.8330   -0.4070    0.4620 C   0  0  0  0  0  0  0  0  0  0  0  0
    4.4340    1.2380    0.7500 P   0  0  0  0  0  0  0  0  0  0  0  0
    5.6520    2.3630    0.5340 O   0  0  0  0  0  0  0  0  0  0  0  0
    3.9660    1.5580   -0.6860 O   0  0  0  0  0  0  0  0  0  0  0  0
    4.7470    1.3690    2.2670 O   0  0  0  0  0  0  0  0  0  0  0  0
    0.0040   -1.0610   -0.5780 C   0  0  0  0  0  0  0  0  0  0  0  0
  1  2  2  0
  2  3  1  0
  2  8  1  0
  3  4  1  0
  4  5  1  0
  4  6  1  0
  4  7  1  0
  8  9  1  0
  9 10  2  0
  9 22  1  0
 10 11  1  0
 11 12  2  0
 12 13  1  0
 13 14  1  0
 13 22  2  0
 14 15  1  0
 15 16  2  0
 15 17  1  0
 17 18  1  0
 18 19  1  0
 18 20  1  0
 18 21  1  0
M  END
