
     RDKit          3D

 23 23  0  0  0  0  0  0  0  0999 V2000
    4.5370    0.1800   -3.5770 C   0  0  0  0  0  0  0  0  0  0  0  0
    3.6850    0.1760   -2.3230 C   0  0  0  0  0  0  0  0  0  0  0  0
    3.1400    1.4460   -2.1960 O   0  0  0  0  0  0  0  0  0  0  0  0
    2.1360    1.6260   -0.8180 P   0  0  0  0  0  0  0  0  0  0  0  0
    0.6260    2.3510   -1.1460 O   0  0  0  0  0  0  0  0  0  0  0  0
    2.0120    0.0930    0.2020 C   0  0  1  0  0  0  0  0  0  0  0  0
    2.8670    0.2610    1.4220 C   0  0  0  0  0  0  0  0  0  0  0  0
    2.4440    1.4350    2.1980 C   0  0  0  0  0  0  0  0  0  0  0  0
    2.1090    1.3830    3.4670 C   0  0  0  0  0  0  0  0  0  0  0  0
    1.7220    2.5150    4.1400 O   0  0  0  0  0  0  0  0  0  0  0  0
    0.6370   -0.3130    0.4900 C   0  0  0  0  0  0  0  0  0  0  0  0
    0.0780   -0.6720    1.6100 C   0  0  0  0  0  0  0  0  0  0  0  0
   -1.3330   -0.9870    1.3680 C   0  0  0  0  0  0  0  0  0  0  0  0
   -2.1830   -1.3770    2.2820 C   0  0  0  0  0  0  0  0  0  0  0  0
   -3.5140   -1.6700    2.0310 O   0  0  0  0  0  0  0  0  0  0  0  0
   -4.0670   -2.9490    2.3620 C   0  0  0  0  0  0  0  0  0  0  0  0
   -1.5990   -0.7880   -0.0370 N   0  0  0  0  0  0  0  0  0  0  0  0
   -2.8590   -0.9810   -0.6840 C   0  0  0  0  0  0  0  0  0  0  0  0
   -3.7740    0.1860   -0.7050 C   0  0  0  0  0  0  0  0  0  0  0  0
   -3.2910    1.2760   -1.3820 O   0  0  0  0  0  0  0  0  0  0  0  0
   -3.1280    1.1160   -2.7360 C   0  0  0  0  0  0  0  0  0  0  0  0
   -0.3790   -0.3710   -0.5870 C   0  0  0  0  0  0  0  0  0  0  0  0
   -0.1460   -0.0810   -1.8070 O   0  0  0  0  0  0  0  0  0  0  0  0
  1  2  1  0
  2  3  1  0
  3  4  1  0
  4  5  1  0
  4  6  1  0
  6  7  1  1
  6 11  1  0
  7  8  1  0
  8  9  2  3
  9 10  1  0
 11 12  2  0
 11 22  1  0
 12 13  1  0
 13 14  2  3
 13 17  1  0
 14 15  1  0
 15 16  1  0
 17 18  1  0
 17 22  1  0
 18 19  1  0
 19 20  1  0
 20 21  1  0
 22 23  2  0
M  END
