
     RDKit          3D

 25 27  0  0  0  0  0  0  0  0999 V2000
   -5.6220   -2.8270    1.4070 C   0  0  0  0  0  0  0  0  0  0  0  0
   -5.0990   -1.5750    0.8820 C   0  0  0  0  0  0  0  0  0  0  0  0
   -3.7380   -1.2630    0.7390 C   0  0  0  0  0  0  0  0  0  0  0  0
   -3.6260   -0.0150    0.1510 C   0  0  0  0  0  0  0  0  0  0  0  0
   -2.5400    0.7410   -0.2850 C   0  0  0  0  0  0  0  0  0  0  0  0
   -1.1750    0.2200    0.1100 C   0  0  2  0  0  0  0  0  0  0  0  0
   -0.6840    1.0220    1.1640 O   0  0  0  0  0  0  0  0  0  0  0  0
   -0.2730    0.3840   -1.1120 C   0  0  0  0  0  0  0  0  0  0  0  0
    1.0890    0.0240   -0.9470 N   0  0  0  0  0  0  0  0  0  0  0  0
    1.9870    0.6970   -0.0900 C   0  0  0  0  0  0  0  0  0  0  0  0
    1.6680    1.6880    0.6090 O   0  0  0  0  0  0  0  0  0  0  0  0
    3.3600    0.1700   -0.0490 C   0  0  0  0  0  0  0  0  0  0  0  0
    3.9520   -0.3860   -1.1640 C   0  0  0  0  0  0  0  0  0  0  0  0
    5.2640   -0.8540   -1.1240 C   0  0  0  0  0  0  0  0  0  0  0  0
    6.0140   -0.7860    0.0200 C   0  0  0  0  0  0  0  0  0  0  0  0
    7.4350   -1.2740    0.0870 C   0  0  0  0  0  0  0  0  0  0  0  0
    8.2710   -0.1510   -0.2880 N   0  0  0  0  0  0  0  0  0  0  0  0
    5.4440   -0.2410    1.1470 C   0  0  0  0  0  0  0  0  0  0  0  0
    4.1240    0.2250    1.0810 C   0  0  0  0  0  0  0  0  0  0  0  0
   -2.7590    1.9300   -0.9230 C   0  0  0  0  0  0  0  0  0  0  0  0
   -4.0520    2.3390   -1.1090 C   0  0  0  0  0  0  0  0  0  0  0  0
   -5.1490    1.6190   -0.6940 C   0  0  0  0  0  0  0  0  0  0  0  0
   -6.5560    2.0570   -0.8630 C   0  0  0  0  0  0  0  0  0  0  0  0
   -4.9080    0.4300   -0.0590 C   0  0  0  0  0  0  0  0  0  0  0  0
   -5.7820   -0.5180    0.3880 N   0  0  0  0  0  0  0  0  0  0  0  0
  1  2  1  0
  2  3  2  0
  2 25  1  0
  3  4  1  0
  4  5  2  0
  4 24  1  0
  5  6  1  0
  5 20  1  0
  6  7  1  1
  6  8  1  0
  8  9  1  0
  9 10  1  0
 10 11  2  0
 10 12  1  0
 12 13  2  0
 12 19  1  0
 13 14  1  0
 14 15  2  0
 15 16  1  0
 15 18  1  0
 16 17  1  0
 18 19  2  0
 20 21  2  0
 21 22  1  0
 22 23  1  0
 22 24  2  0
 24 25  1  0
M  CHG  1  17   1
M  END
