
     RDKit          3D

 21 21  0  0  0  0  0  0  0  0999 V2000
   -4.4720   -3.1060    0.3790 C   0  0  0  0  0  0  0  0  0  0  0  0
   -4.2490   -1.8950   -0.1230 C   0  0  0  0  0  0  0  0  0  0  0  0
   -4.5390   -1.6850   -1.4840 N   0  0  0  0  0  0  0  0  0  0  0  0
   -4.1360   -2.8050   -2.6260 P   0  0  0  0  0  0  0  0  0  0  0  0
   -3.5910   -0.6160    0.9940 P   0  0  0  0  0  0  0  0  0  0  0  0
   -4.5380    0.7930    1.0610 O   0  0  0  0  0  0  0  0  0  0  0  0
   -3.8630    1.9690    0.8670 C   0  0  0  0  0  0  0  0  0  0  0  0
   -4.8910    3.1020    0.9670 C   0  0  0  0  0  0  0  0  0  0  0  0
   -1.9100   -0.3390    0.7850 O   0  0  0  0  0  0  0  0  0  0  0  0
   -1.5170   -0.5720   -0.5310 C   0  0  0  0  0  0  0  0  0  0  0  0
    0.3180   -0.2450   -0.6570 P   0  0  0  0  0  0  0  0  0  0  0  0
    1.3180   -1.3370    0.0190 N   0  0  0  0  0  0  0  0  0  0  0  0
    2.7070   -1.0900   -0.0760 N   0  0  0  0  0  0  0  0  0  0  0  0
    3.7390   -2.0250   -0.1230 N   0  0  0  0  0  0  0  0  0  0  0  0
    4.8810   -1.4720    0.1020 C   0  0  0  0  0  0  0  0  0  0  0  0
    4.5810   -0.0210    0.3210 C   0  0  1  0  0  0  0  0  0  0  0  0
    4.6000    0.3350    1.7820 C   0  0  0  0  0  0  0  0  0  0  0  0
    5.5300    0.7910   -0.4730 C   0  0  0  0  0  0  0  0  0  0  0  0
    5.0570    1.6250   -1.5970 C   0  0  0  0  0  0  0  0  0  0  0  0
    6.7040    0.7640   -0.1920 O   0  0  0  0  0  0  0  0  0  0  0  0
    3.2720    0.1280   -0.1380 O   0  0  0  0  0  0  0  0  0  0  0  0
  1  2  2  0
  2  3  1  0
  2  5  1  0
  3  4  2  0
  5  6  1  0
  5  9  1  0
  6  7  1  0
  7  8  1  0
  9 10  1  0
 10 11  1  0
 11 12  2  3
 12 13  1  0
 13 14  1  0
 13 21  1  0
 14 15  2  0
 15 16  1  0
 16 17  1  1
 16 18  1  0
 16 21  1  0
 18 19  1  0
 18 20  2  0
M  END
