
     RDKit          3D

 21 21  0  0  0  0  0  0  0  0999 V2000
   -3.0780   -3.8310   -0.2560 C   0  0  0  0  0  0  0  0  0  0  0  0
   -2.8910   -2.4110   -0.6150 C   0  0  0  0  0  0  0  0  0  0  0  0
   -1.6740   -1.8350   -0.5030 C   0  0  0  0  0  0  0  0  0  0  0  0
   -0.5870   -2.6960   -0.0070 C   0  0  0  0  0  0  0  0  0  0  0  0
   -1.5710   -0.4270   -0.8900 C   0  0  0  0  0  0  0  0  0  0  0  0
   -1.1160    0.5180    0.0360 N   0  0  0  0  0  0  0  0  0  0  0  0
   -1.4140    1.8410   -0.5420 C   0  0  0  0  0  0  0  0  0  0  0  0
   -0.9400    2.9310    0.3900 C   0  0  1  0  0  0  0  0  0  0  0  0
   -1.2430    4.2700   -0.1800 C   0  0  0  0  0  0  0  0  0  0  0  0
   -1.6560    2.7690    1.6510 N   0  0  0  0  0  0  0  0  0  0  0  0
    0.4240    2.7560    0.5550 O   0  0  0  0  0  0  0  0  0  0  0  0
    0.5750    1.5490    1.2880 C   0  0  0  0  0  0  0  0  0  0  0  0
    0.2070    0.4710    0.4390 N   0  0  0  0  0  0  0  0  0  0  0  0
    1.1990    0.1140   -0.4930 C   0  0  0  0  0  0  0  0  0  0  0  0
    2.6520   -0.6190    0.3270 P   0  0  0  0  0  0  0  0  0  0  0  0
    3.0070   -0.1150    1.9160 O   0  0  0  0  0  0  0  0  0  0  0  0
    4.0330   -1.0830   -0.7070 C   0  0  0  0  0  0  0  0  0  0  0  0
    3.7840   -1.5860   -2.4420 P   0  0  0  0  0  0  0  0  0  0  0  0
    4.1400   -3.0550   -2.8310 O   0  0  0  0  0  0  0  0  0  0  0  0
    5.5840   -1.0810   -0.1090 P   0  0  0  0  0  0  0  0  0  0  0  0
    5.9800   -0.6440    1.5120 O   0  0  0  0  0  0  0  0  0  0  0  0
  1  2  1  0
  2  3  2  3
  3  4  1  0
  3  5  1  0
  5  6  1  0
  6  7  1  0
  6 13  1  0
  7  8  1  0
  8  9  1  6
  8 10  1  0
  8 11  1  0
 11 12  1  0
 12 13  1  0
 13 14  1  0
 14 15  1  0
 15 16  1  0
 15 17  1  0
 17 18  1  0
 17 20  2  3
 18 19  2  0
 20 21  1  0
M  END
