
     RDKit          3D

 18 19  0  0  0  0  0  0  0  0999 V2000
    4.4540    0.0100    1.0020 O   0  0  0  0  0  0  0  0  0  0  0  0
    3.5900   -0.4490    0.0230 C   0  0  2  0  0  0  0  0  0  0  0  0
    3.9160    0.1830   -1.1760 O   0  0  0  0  0  0  0  0  0  0  0  0
    2.1980   -0.1440    0.4300 C   0  0  0  0  0  0  0  0  0  0  0  0
    1.8810    0.5140    1.5270 C   0  0  0  0  0  0  0  0  0  0  0  0
    0.4140    0.6110    1.5730 C   0  0  0  0  0  0  0  0  0  0  0  0
   -0.4520    1.4440    2.8630 Cl  0  0  0  0  0  0  0  0  0  0  0  0
   -0.1400    0.0330    0.5380 C   0  0  0  0  0  0  0  0  0  0  0  0
   -1.5690   -0.0530    0.2840 C   0  0  0  0  0  0  0  0  0  0  0  0
   -2.4500   -0.5260    1.2160 C   0  0  0  0  0  0  0  0  0  0  0  0
   -1.9070   -1.1300    2.7330 Cl  0  0  0  0  0  0  0  0  0  0  0  0
   -3.8190   -0.5670    0.9610 C   0  0  0  0  0  0  0  0  0  0  0  0
   -4.3210   -0.1250   -0.2520 C   0  0  0  0  0  0  0  0  0  0  0  0
   -3.4490    0.3530   -1.1990 C   0  0  0  0  0  0  0  0  0  0  0  0
   -4.0880    0.9110   -2.7380 Cl  0  0  0  0  0  0  0  0  0  0  0  0
   -2.0990    0.3790   -0.9120 C   0  0  0  0  0  0  0  0  0  0  0  0
   -1.0580    1.0100   -2.1650 Cl  0  0  0  0  0  0  0  0  0  0  0  0
    0.9520   -0.5190   -0.3120 C   0  0  0  0  0  0  0  0  0  0  0  0
  2  1  1  1
  2  3  1  0
  2  4  1  0
  4  5  2  0
  4 18  1  0
  5  6  1  0
  6  7  1  0
  6  8  2  0
  8  9  1  0
  8 18  1  0
  9 10  2  0
  9 16  1  0
 10 11  1  0
 10 12  1  0
 12 13  2  0
 13 14  1  0
 14 15  1  0
 14 16  2  0
 16 17  1  0
M  END
