
     RDKit          3D

 20 21  0  0  0  0  0  0  0  0999 V2000
   -5.8040    1.6480   -0.2520 O   0  0  0  0  0  0  0  0  0  0  0  0
   -4.7060    1.0200   -0.0820 C   0  0  0  0  0  0  0  0  0  0  0  0
   -4.6280   -0.3400   -0.2830 C   0  0  0  0  0  0  0  0  0  0  0  0
   -3.4140   -0.9470   -0.0810 C   0  0  0  0  0  0  0  0  0  0  0  0
   -2.3200   -0.2640    0.3010 N   0  0  0  0  0  0  0  0  0  0  0  0
   -1.0910   -0.9700    0.4900 C   0  0  1  0  0  0  0  0  0  0  0  0
   -0.4330   -1.1100   -0.8860 C   0  0  0  0  0  0  0  0  0  0  0  0
    0.9810   -1.4990   -0.4560 C   0  0  2  0  0  0  0  0  0  0  0  0
    1.0890   -2.8740   -0.2870 O   0  0  0  0  0  0  0  0  0  0  0  0
    1.1060   -0.7490    0.8500 C   0  0  1  0  0  0  0  0  0  0  0  0
    2.0010    0.4570    0.5710 C   0  0  0  0  0  0  0  0  0  0  0  0
    3.2690   -0.0060    0.2200 O   0  0  0  0  0  0  0  0  0  0  0  0
    4.3220    1.2520   -0.1050 P   0  0  2  0  0  0  0  0  0  0  0  0
    4.1840    1.7590   -1.5290 O   0  0  0  0  0  0  0  0  0  0  0  0
    5.9090    0.6570    0.0490 O   0  0  0  0  0  0  0  0  0  0  0  0
    4.0480    2.5090    0.9890 O   0  0  0  0  0  0  0  0  0  0  0  0
   -0.1360   -0.2850    1.1940 O   0  0  0  0  0  0  0  0  0  0  0  0
   -2.4240    1.0520    0.4890 C   0  0  0  0  0  0  0  0  0  0  0  0
   -1.4030    1.6880    0.8450 O   0  0  0  0  0  0  0  0  0  0  0  0
   -3.6000    1.7080    0.3040 N   0  0  0  0  0  0  0  0  0  0  0  0
  1  2  2  0
  2  3  1  0
  2 20  1  0
  3  4  2  0
  4  5  1  0
  6  5  1  6
  5 18  1  0
  6  7  1  0
  6 17  1  0
  7  8  1  0
  8  9  1  1
  8 10  1  0
 10 11  1  6
 10 17  1  0
 11 12  1  0
 12 13  1  0
 13 14  2  0
 13 15  1  6
 13 16  1  0
 18 19  2  0
 18 20  1  0
M  END
