
     RDKit          3D

 16 15  0  0  0  0  0  0  0  0999 V2000
   -4.0080    1.6910    0.0070 N   0  0  0  0  0  0  0  0  0  0  0  0
   -2.9810    0.9630   -0.1220 C   0  0  0  0  0  0  0  0  0  0  0  0
   -3.1770   -0.8070   -0.1220 S   0  0  0  0  0  0  0  0  0  0  0  0
   -4.8200   -1.2440    0.0630 O   0  0  0  0  0  0  0  0  0  0  0  0
   -1.6540    1.5240   -0.2680 C   0  0  0  0  0  0  0  0  0  0  0  0
   -1.5130    2.7840   -0.2690 O   0  0  0  0  0  0  0  0  0  0  0  0
   -0.5280    0.6780   -0.4100 N   0  0  0  0  0  0  0  0  0  0  0  0
   -0.3210   -0.3120    0.3910 C   0  0  0  0  0  0  0  0  0  0  0  0
    0.8600   -1.1310    0.1740 C   0  0  0  0  0  0  0  0  0  0  0  0
    1.6930   -0.8750   -0.8040 C   0  0  0  0  0  0  0  0  0  0  0  0
    1.4270    0.2200   -1.6590 N   0  0  0  0  0  0  0  0  0  0  0  0
    1.8540    1.3650   -1.4260 O   0  0  0  0  0  0  0  0  0  0  0  0
    2.8250   -1.6530   -1.0200 O   0  0  0  0  0  0  0  0  0  0  0  0
    3.9660   -1.3380   -0.3320 O   0  0  0  0  0  0  0  0  0  0  0  0
    4.8910   -0.4250   -0.8370 C   0  0  0  0  0  0  0  0  0  0  0  0
    4.6360    0.0980   -1.9470 O   0  0  0  0  0  0  0  0  0  0  0  0
  1  2  2  0
  2  3  1  0
  2  5  1  0
  3  4  1  0
  5  6  2  0
  5  7  1  0
  7  8  2  3
  8  9  1  0
  9 10  2  3
 10 11  1  0
 10 13  1  0
 11 12  2  0
 13 14  1  0
 14 15  1  0
 15 16  2  0
M  END
