
     RDKit          3D

 16 16  0  0  0  0  0  0  0  0999 V2000
    2.5410   -2.3790    0.7870 N   0  0  0  0  0  0  0  0  0  0  0  0
    1.9780   -1.2770    0.4340 C   0  0  0  0  0  0  0  0  0  0  0  0
    2.5800   -0.5790   -0.6060 O   0  0  0  0  0  0  0  0  0  0  0  0
    3.8970   -0.6350   -0.8460 O   0  0  0  0  0  0  0  0  0  0  0  0
    4.4750    0.5300   -0.6870 O   0  0  0  0  0  0  0  0  0  0  0  0
    0.7870   -0.8270    1.1100 C   0  0  0  0  0  0  0  0  0  0  0  0
    0.1390   -1.6910    2.3140 S   0  0  0  0  0  0  0  0  0  0  0  0
    0.1420    0.3630    0.7590 O   0  0  0  0  0  0  0  0  0  0  0  0
   -1.0920    0.2530    0.1370 C   0  0  0  0  0  0  0  0  0  0  0  0
   -1.6820   -0.9630   -0.1370 C   0  0  0  0  0  0  0  0  0  0  0  0
   -2.8820   -1.0000   -0.7430 N   0  0  0  0  0  0  0  0  0  0  0  0
   -3.4870    0.1560   -1.0730 C   0  0  0  0  0  0  0  0  0  0  0  0
   -4.6100    0.1230   -1.6410 O   0  0  0  0  0  0  0  0  0  0  0  0
   -2.9100    1.2800   -0.8040 O   0  0  0  0  0  0  0  0  0  0  0  0
   -1.7410    1.4080   -0.2150 C   0  0  0  0  0  0  0  0  0  0  0  0
   -1.2000    2.7010    0.0330 N   0  0  0  0  0  0  0  0  0  0  0  0
  1  2  2  0
  2  3  1  0
  2  6  1  0
  3  4  1  0
  4  5  1  0
  6  7  2  0
  6  8  1  0
  8  9  1  0
  9 10  1  0
  9 15  2  0
 10 11  2  0
 11 12  1  0
 12 13  2  0
 12 14  1  0
 14 15  1  0
 15 16  1  0
M  END
