
     RDKit          3D

 16 16  0  0  0  0  0  0  0  0999 V2000
    2.9790   -2.1350   -0.2250 C   0  0  0  0  0  0  0  0  0  0  0  0
    2.0630   -1.1390   -0.6470 O   0  0  0  0  0  0  0  0  0  0  0  0
    2.1020    0.1470   -0.1270 C   0  0  0  0  0  0  0  0  0  0  0  0
    2.9760    0.4010    0.7310 O   0  0  0  0  0  0  0  0  0  0  0  0
    1.1030    1.1310   -0.6260 C   0  0  2  0  0  0  0  0  0  0  0  0
    1.2740    2.4270    0.0130 N   0  0  0  0  0  0  0  0  0  0  0  0
    0.2620    3.1570   -0.4680 O   0  0  0  0  0  0  0  0  0  0  0  0
   -0.8340    2.3860   -0.9130 C   0  0  0  0  0  0  0  0  0  0  0  0
   -1.7820    3.0190   -1.4570 O   0  0  0  0  0  0  0  0  0  0  0  0
   -0.4900    0.7710   -0.5480 S   0  0  0  0  0  0  0  0  0  0  0  0
   -0.0660    0.7550    1.3120 O   0  0  0  0  0  0  0  0  0  0  0  0
   -1.8270    0.4870   -0.0270 N   0  0  0  0  0  0  0  0  0  0  0  0
   -2.4160   -0.4950    0.5330 C   0  0  0  0  0  0  0  0  0  0  0  0
   -3.7610   -0.2630    0.8580 N   0  0  0  0  0  0  0  0  0  0  0  0
   -1.7810   -1.7610    0.8250 C   0  0  0  0  0  0  0  0  0  0  0  0
   -2.4320   -2.6740    1.3770 O   0  0  0  0  0  0  0  0  0  0  0  0
  1  2  1  0
  2  3  1  0
  3  4  2  0
  5  3  1  1
  5  6  1  0
  5 10  1  0
  6  7  1  0
  7  8  1  0
  8  9  2  0
  8 10  1  0
 10 11  2  0
 10 12  1  0
 12 13  2  3
 13 14  1  0
 13 15  1  0
 15 16  2  0
M  END
