
     RDKit          3D

 15 15  0  0  0  0  0  0  0  0999 V2000
    4.8750    1.0480    0.4940 C   0  0  0  0  0  0  0  0  0  0  0  0
    3.7820    0.4770   -0.2770 N   0  0  0  0  0  0  0  0  0  0  0  0
    2.7840   -0.0230    0.5470 O   0  0  0  0  0  0  0  0  0  0  0  0
    1.4830   -0.0930    0.0270 C   0  0  0  0  0  0  0  0  0  0  0  0
    1.2920    0.3020   -1.1680 O   0  0  0  0  0  0  0  0  0  0  0  0
    0.3710   -0.5820    0.7610 N   0  0  0  0  0  0  0  0  0  0  0  0
   -0.9380   -0.6190    0.1390 C   0  0  1  0  0  0  0  0  0  0  0  0
   -1.3860    0.6510   -0.2100 O   0  0  0  0  0  0  0  0  0  0  0  0
   -1.6080    1.4570    0.8970 C   0  0  0  0  0  0  0  0  0  0  0  0
   -2.1870    3.0690    0.2930 S   0  0  0  0  0  0  0  0  0  0  0  0
   -3.7080    2.9820   -0.4550 O   0  0  0  0  0  0  0  0  0  0  0  0
   -0.7690   -1.3470   -1.1080 N   0  0  0  0  0  0  0  0  0  0  0  0
   -2.0790   -1.9600   -1.2170 C   0  0  0  0  0  0  0  0  0  0  0  0
   -2.2640   -2.4160    0.2240 C   0  0  0  0  0  0  0  0  0  0  0  0
   -1.8120   -1.3180    0.9330 O   0  0  0  0  0  0  0  0  0  0  0  0
  1  2  1  0
  2  3  1  0
  3  4  1  0
  4  5  2  0
  4  6  1  0
  7  6  1  1
  7  8  1  0
  7 12  1  0
  7 15  1  0
  8  9  1  0
  9 10  1  0
 10 11  1  0
 12 13  1  0
 13 14  1  0
 14 15  1  0
M  END
