
     RDKit          3D

 15 16  0  0  0  0  0  0  0  0999 V2000
   -2.0840   -1.7790    0.2450 C   0  0  0  0  0  0  0  0  0  0  0  0
   -1.1790   -0.4870   -0.0510 S   0  0  0  0  0  0  0  0  0  0  0  0
   -1.9890    0.1000    1.5250 O   0  0  0  0  0  0  0  0  0  0  0  0
    0.1580   -1.1720    0.1640 N   0  0  0  0  0  0  0  0  0  0  0  0
    1.4240   -0.7750   -0.3530 C   0  0  0  0  0  0  0  0  0  0  0  0
    1.7610    0.5210    0.2940 C   0  0  0  0  0  0  0  0  0  0  0  0
    3.0460    0.8240    0.7090 O   0  0  0  0  0  0  0  0  0  0  0  0
    4.1720    0.5300    0.0160 N   0  0  0  0  0  0  0  0  0  0  0  0
    0.7370    1.3510    0.4360 C   0  0  0  0  0  0  0  0  0  0  0  0
   -0.6440    1.0060   -0.0170 C   0  0  0  0  0  0  0  0  0  0  0  0
   -1.2360    2.1210   -0.3840 N   0  0  0  0  0  0  0  0  0  0  0  0
   -2.5530    2.0310   -0.9020 C   0  0  0  0  0  0  0  0  0  0  0  0
   -3.2490    3.0000   -1.2860 O   0  0  0  0  0  0  0  0  0  0  0  0
   -3.0460    0.7050   -0.9550 O   0  0  0  0  0  0  0  0  0  0  0  0
   -2.0340   -0.1640   -1.3210 O   0  0  0  0  0  0  0  0  0  0  0  0
  1  2  1  0
  2  3  2  0
  2  4  1  0
  2 10  1  0
  2 15  1  0
  4  5  1  0
  5  6  1  0
  6  7  1  0
  6  9  2  0
  7  8  1  0
  9 10  1  0
 10 11  2  0
 11 12  1  0
 12 13  2  0
 12 14  1  0
 14 15  1  0
M  END
