
     RDKit          3D

 11 11  0  0  0  0  0  0  0  0999 V2000
   -2.9090    0.4360   -1.3900 O   0  0  0  0  0  0  0  0  0  0  0  0
   -2.7720   -0.2700   -0.2030 C   0  0  0  0  0  0  0  0  0  0  0  0
   -1.3780   -0.1050    0.3510 C   0  0  1  0  0  0  0  0  0  0  0  0
   -1.2060   -0.8000    1.5430 O   0  0  0  0  0  0  0  0  0  0  0  0
   -0.3210   -0.5860   -0.6220 C   0  0  0  0  0  0  0  0  0  0  0  0
    1.0050   -0.3640    0.0570 C   0  0  2  0  0  0  0  0  0  0  0  0
    1.0840   -1.0670    1.2330 O   0  0  0  0  0  0  0  0  0  0  0  0
    1.2710    1.1190    0.2210 C   0  0  0  0  0  0  0  0  0  0  0  0
    2.6500    1.0750    0.4710 O   0  0  0  0  0  0  0  0  0  0  0  0
    3.0920    0.1940   -0.5100 C   0  0  0  0  0  0  0  0  0  0  0  0
    2.0890   -0.7230   -0.7340 O   0  0  0  0  0  0  0  0  0  0  0  0
  1  2  1  0
  2  3  1  0
  3  4  1  1
  3  5  1  0
  5  6  1  0
  6  7  1  1
  6  8  1  0
  6 11  1  0
  8  9  1  0
  9 10  1  0
 10 11  1  0
M  END
