
     RDKit          3D

 20 22  0  0  0  0  0  0  0  0999 V2000
   -1.6500   -3.1770   -1.0060 N   0  0  0  0  0  0  0  0  0  0  0  0
   -1.4210   -2.7530    0.3390 C   0  0  0  0  0  0  0  0  0  0  0  0
   -1.3510   -1.2460    0.4910 C   0  0  2  0  0  0  0  0  0  0  0  0
   -2.5780   -0.5850    0.0710 C   0  0  0  0  0  0  0  0  0  0  0  0
   -3.6410   -1.1960   -0.2600 O   0  0  0  0  0  0  0  0  0  0  0  0
   -2.5970    0.8720    0.0270 C   0  0  0  0  0  0  0  0  0  0  0  0
   -1.4190    1.4360   -0.2990 C   0  0  0  0  0  0  0  0  0  0  0  0
   -1.3530    2.8520   -0.3630 N   0  0  0  0  0  0  0  0  0  0  0  0
   -2.4860    3.6380   -0.0950 N   0  0  0  0  0  0  0  0  0  0  0  0
   -3.7470    3.0440    0.2530 C   0  0  0  0  0  0  0  0  0  0  0  0
   -4.7590    3.7480    0.4920 O   0  0  0  0  0  0  0  0  0  0  0  0
   -3.7690    1.6260    0.3060 N   0  0  0  0  0  0  0  0  0  0  0  0
   -0.2820    0.6100   -0.5810 N   0  0  0  0  0  0  0  0  0  0  0  0
   -0.0600   -0.6800   -0.0530 C   0  0  1  0  0  0  0  0  0  0  0  0
    0.9890   -0.8650    0.9560 C   0  0  0  0  0  0  0  0  0  0  0  0
    2.3570   -0.4600    0.8140 C   0  0  2  0  0  0  0  0  0  0  0  0
    2.7990    0.9220    0.5970 C   0  0  0  0  0  0  0  0  0  0  0  0
    4.3340    0.7220    0.5380 C   0  0  0  0  0  0  0  0  0  0  0  0
    4.5640   -0.0420   -0.7770 C   0  0  0  0  0  0  0  0  0  0  0  0
    3.1820   -1.2540   -0.6410 S   0  0  0  0  0  0  0  0  0  0  0  0
  1  2  1  0
  3  2  1  6
  3  4  1  0
  3 14  1  0
  4  5  2  0
  4  6  1  0
  6  7  2  0
  6 12  1  0
  7  8  1  0
  7 13  1  0
  8  9  1  0
  9 10  1  0
 10 11  2  0
 10 12  1  0
 13 14  1  0
 14 15  1  1
 16 15  1  6
 16 17  1  0
 16 20  1  0
 17 18  1  0
 18 19  1  0
 19 20  1  0
M  CHG  1   1   1
M  END
