
     RDKit          3D

 11 10  0  0  0  0  0  0  0  0999 V2000
   -0.5780    0.2930   -1.6270 C   0  0  0  0  0  0  0  0  0  0  0  0
   -0.5360    0.2160   -0.1310 C   0  0  1  0  0  0  0  0  0  0  0  0
   -1.4320    1.3870    0.3350 C   0  0  0  0  0  0  0  0  0  0  0  0
   -1.4960    1.4520    1.7090 O   0  0  0  0  0  0  0  0  0  0  0  0
   -1.1620   -1.0100    0.4370 C   0  0  0  0  0  0  0  0  0  0  0  0
   -0.6330   -2.2090    0.0580 O   0  0  0  0  0  0  0  0  0  0  0  0
    0.8060    0.5190    0.4520 C   0  0  1  0  0  0  0  0  0  0  0  0
    0.7330    0.4160    1.8490 O   0  0  0  0  0  0  0  0  0  0  0  0
    1.9440   -0.2880   -0.0410 C   0  0  1  0  0  0  0  0  0  0  0  0
    1.9130   -1.6300    0.2380 O   0  0  0  0  0  0  0  0  0  0  0  0
    2.1690   -0.0480   -1.4140 O   0  0  0  0  0  0  0  0  0  0  0  0
  2  1  1  6
  2  3  1  0
  2  5  1  0
  2  7  1  0
  3  4  1  0
  5  6  1  0
  7  8  1  1
  7  9  1  0
  9 10  1  6
  9 11  1  0
M  END
