
     RDKit          3D

 12 12  0  0  0  0  0  0  0  0999 V2000
    3.1680   -0.4450    0.3330 O   0  0  0  0  0  0  0  0  0  0  0  0
    2.4820    0.5290   -0.3920 C   0  0  0  0  0  0  0  0  0  0  0  0
    1.0170    0.3970   -0.1260 C   0  0  1  0  0  0  0  0  0  0  0  0
    0.2450    1.3320   -0.8100 O   0  0  0  0  0  0  0  0  0  0  0  0
   -1.0030    1.3630   -0.1870 C   0  0  1  0  0  0  0  0  0  0  0  0
   -1.8010    2.3860   -0.6760 O   0  0  0  0  0  0  0  0  0  0  0  0
   -1.7270    0.0570   -0.2540 C   0  0  2  0  0  0  0  0  0  0  0  0
   -2.8160    0.1430    0.6390 O   0  0  0  0  0  0  0  0  0  0  0  0
   -0.8370   -1.0520    0.2890 C   0  0  1  0  0  0  0  0  0  0  0  0
   -1.4220   -2.2910    0.1950 O   0  0  0  0  0  0  0  0  0  0  0  0
    0.4610   -0.9540   -0.4970 C   0  0  2  0  0  0  0  0  0  0  0  0
    1.3210   -1.9960   -0.2350 O   0  0  0  0  0  0  0  0  0  0  0  0
  1  2  1  0
  3  2  1  6
  3  4  1  0
  3 11  1  0
  4  5  1  0
  5  6  1  6
  5  7  1  0
  7  8  1  1
  7  9  1  0
  9 10  1  6
  9 11  1  0
 11 12  1  1
M  END
