
     RDKit          3D

 11 11  0  0  0  0  0  0  0  0999 V2000
    1.5610    1.5510    0.5460 O   0  0  0  0  0  0  0  0  0  0  0  0
    1.9170    0.2670    0.1290 C   0  0  1  0  0  0  0  0  0  0  0  0
    3.0310    0.4080   -0.7020 O   0  0  0  0  0  0  0  0  0  0  0  0
    2.2380   -0.5430    1.2120 O   0  0  0  0  0  0  0  0  0  0  0  0
    0.8160   -0.3390   -0.7130 C   0  0  0  0  0  0  0  0  0  0  0  0
   -0.4840   -0.4600    0.0140 C   0  0  1  0  0  0  0  0  0  0  0  0
   -0.2930   -1.2750    1.1260 O   0  0  0  0  0  0  0  0  0  0  0  0
   -1.0470    0.8690    0.4430 C   0  0  0  0  0  0  0  0  0  0  0  0
   -2.5130    0.7070    0.1420 C   0  0  0  0  0  0  0  0  0  0  0  0
   -2.6470   -0.2390   -0.8370 O   0  0  0  0  0  0  0  0  0  0  0  0
   -1.5150   -0.9810   -0.9370 C   0  0  0  0  0  0  0  0  0  0  0  0
  2  1  1  1
  2  3  1  0
  2  4  1  0
  2  5  1  0
  5  6  1  0
  6  7  1  1
  6  8  1  0
  6 11  1  0
  8  9  1  0
  9 10  1  0
 10 11  1  0
M  END
