
     RDKit          3D

 11 10  0  0  0  0  0  0  0  0999 V2000
   -3.4260    1.5100    0.8290 O   0  0  0  0  0  0  0  0  0  0  0  0
   -3.3070    0.4350    0.2170 C   0  0  0  0  0  0  0  0  0  0  0  0
   -4.4190   -0.1160   -0.3890 O   0  0  0  0  0  0  0  0  0  0  0  0
   -1.9730   -0.2070    0.1670 C   0  0  0  0  0  0  0  0  0  0  0  0
   -1.0320    0.5410    0.8490 O   0  0  0  0  0  0  0  0  0  0  0  0
    0.1230   -0.1110    0.7480 O   0  0  0  0  0  0  0  0  0  0  0  0
    0.9170    0.4610   -0.2360 C   0  0  0  0  0  0  0  0  0  0  0  0
    2.4960   -0.4860   -0.3230 P   0  0  0  0  0  0  0  0  0  0  0  0
    2.3160   -2.1410    0.0350 O   0  0  0  0  0  0  0  0  0  0  0  0
    3.7980    0.2830    0.4770 O   0  0  0  0  0  0  0  0  0  0  0  0
    4.3680    1.2030   -0.3040 O   0  0  0  0  0  0  0  0  0  0  0  0
  1  2  2  0
  2  3  1  0
  2  4  1  0
  4  5  1  0
  5  6  1  0
  6  7  1  0
  7  8  1  0
  8  9  1  0
  8 10  1  0
 10 11  1  0
M  END
