
     RDKit          3D

 16 15  0  0  0  0  0  0  0  0999 V2000
    3.8500   -0.9660   -1.4240 O   0  0  0  0  0  0  0  0  0  0  0  0
    3.1180   -0.2050   -0.7210 C   0  0  0  0  0  0  0  0  0  0  0  0
    3.7590    0.7200    0.1080 N   0  0  0  0  0  0  0  0  0  0  0  0
    5.0910    0.8180    0.1030 O   0  0  0  0  0  0  0  0  0  0  0  0
    1.6610   -0.3240   -0.8280 C   0  0  1  0  0  0  0  0  0  0  0  0
    1.3470   -1.5620   -1.3610 O   0  0  0  0  0  0  0  0  0  0  0  0
    0.9500   -0.0430    0.4640 C   0  0  2  0  0  0  0  0  0  0  0  0
    1.4440   -1.0450    1.3430 O   0  0  0  0  0  0  0  0  0  0  0  0
   -0.5000   -0.3290    0.3240 C   0  0  2  0  0  0  0  0  0  0  0  0
   -0.6620   -1.5610   -0.3880 O   0  0  0  0  0  0  0  0  0  0  0  0
   -1.3130    0.7960   -0.3830 C   0  0  0  0  0  0  0  0  0  0  0  0
   -2.5400    0.1500   -0.6270 O   0  0  0  0  0  0  0  0  0  0  0  0
   -3.8670    0.7330    0.1300 P   0  0  2  0  0  0  0  0  0  0  0  0
   -3.9440    0.1070    1.5870 O   0  0  0  0  0  0  0  0  0  0  0  0
   -5.2430   -0.0050   -0.5800 O   0  0  0  0  0  0  0  0  0  0  0  0
   -4.1400    2.3230    0.3690 O   0  0  0  0  0  0  0  0  0  0  0  0
  1  2  2  0
  2  3  1  0
  2  5  1  0
  3  4  1  0
  5  6  1  1
  5  7  1  0
  7  8  1  1
  7  9  1  0
  9 10  1  6
  9 11  1  0
 11 12  1  0
 12 13  1  0
 13 14  2  0
 13 15  1  6
 13 16  1  0
M  END
