
     RDKit          3D

 11 11  0  0  0  0  0  0  0  0999 V2000
    3.8780    0.1110    1.2260 O   0  0  0  0  0  0  0  0  0  0  0  0
    2.5820   -0.0120    1.0640 O   0  0  0  0  0  0  0  0  0  0  0  0
    2.3300   -0.6870   -0.1500 C   0  0  0  0  0  0  0  0  0  0  0  0
    0.9790   -0.8390   -0.3620 O   0  0  0  0  0  0  0  0  0  0  0  0
    0.3610    0.4070   -0.4170 C   0  0  0  0  0  0  0  0  0  0  0  0
   -1.1170    0.1490   -0.6520 C   0  0  1  0  0  0  0  0  0  0  0  0
   -1.6470   -0.6150    0.3930 O   0  0  0  0  0  0  0  0  0  0  0  0
   -3.0320   -0.3400    0.3910 C   0  0  0  0  0  0  0  0  0  0  0  0
   -3.2450    0.9510    0.8910 O   0  0  0  0  0  0  0  0  0  0  0  0
   -2.2200    1.6830    0.5300 O   0  0  0  0  0  0  0  0  0  0  0  0
   -1.7980    1.3760   -0.6950 O   0  0  0  0  0  0  0  0  0  0  0  0
  1  2  1  0
  2  3  1  0
  3  4  1  0
  4  5  1  0
  6  5  1  1
  6  7  1  0
  6 11  1  0
  7  8  1  0
  8  9  1  0
  9 10  1  0
 10 11  1  0
M  END
