
     RDKit          3D

 11 10  0  0  0  0  0  0  0  0999 V2000
   -3.2370    0.9790    0.4170 O   0  0  0  0  0  0  0  0  0  0  0  0
   -2.2080    1.0160   -0.2880 C   0  0  0  0  0  0  0  0  0  0  0  0
   -2.2180    1.7670   -1.4420 O   0  0  0  0  0  0  0  0  0  0  0  0
   -1.0000    0.2380    0.1550 C   0  0  2  0  0  0  0  0  0  0  0  0
   -0.5310   -0.6880   -0.9260 C   0  0  0  0  0  0  0  0  0  0  0  0
    0.6110   -1.3410   -0.5240 O   0  0  0  0  0  0  0  0  0  0  0  0
    1.7010   -0.5810   -0.2340 C   0  0  0  0  0  0  0  0  0  0  0  0
    2.7390   -1.4600    0.1430 O   0  0  0  0  0  0  0  0  0  0  0  0
    3.8110   -0.7590    0.4320 O   0  0  0  0  0  0  0  0  0  0  0  0
   -1.2700   -0.4220    1.3450 O   0  0  0  0  0  0  0  0  0  0  0  0
   -0.5440   -0.0100    2.3490 O   0  0  0  0  0  0  0  0  0  0  0  0
  1  2  2  0
  2  3  1  0
  2  4  1  0
  4  5  1  6
  4 10  1  0
  5  6  1  0
  6  7  1  0
  7  8  1  0
  8  9  1  0
 10 11  1  0
M  END
