
     RDKit          3D

 33 34  0  0  0  0  0  0  0  0999 V2000
    4.0920    5.3540    0.1310 C   0  0  0  0  0  0  0  0  0  0  0  0
    3.4250    4.0310   -0.2120 C   0  0  0  0  0  0  0  0  0  0  0  0
    2.6290    3.5610    0.9510 C   0  0  0  0  0  0  0  0  0  0  0  0
    1.9400    2.3040    0.8030 N   0  0  0  0  0  0  0  0  0  0  0  0
    2.6290    1.0830    0.7000 C   0  0  0  0  0  0  0  0  0  0  0  0
    3.6290    0.9440    1.7510 N   0  0  0  0  0  0  0  0  0  0  0  0
    2.4450    0.0690   -0.0960 C   0  0  0  0  0  0  0  0  0  0  0  0
    1.3530    0.0190   -1.1350 C   0  0  0  0  0  0  0  0  0  0  0  0
    0.5550    1.2090   -1.3270 C   0  0  0  0  0  0  0  0  0  0  0  0
    1.0620    2.2720   -1.8290 O   0  0  0  0  0  0  0  0  0  0  0  0
   -0.8440    1.3220   -0.9920 N   0  0  0  0  0  0  0  0  0  0  0  0
   -1.5590    2.5690   -1.2150 C   0  0  0  0  0  0  0  0  0  0  0  0
   -2.6110    2.2880   -2.2660 C   0  0  0  0  0  0  0  0  0  0  0  0
   -3.3420    1.0040   -1.9760 C   0  0  0  0  0  0  0  0  0  0  0  0
   -3.0700    0.6030   -0.5430 C   0  0  1  0  0  0  0  0  0  0  0  0
   -3.9630   -0.5060   -0.1010 C   0  0  0  0  0  0  0  0  0  0  0  0
   -3.5440   -1.6240    0.2600 O   0  0  0  0  0  0  0  0  0  0  0  0
   -5.3270   -0.2980   -0.0850 O   0  0  0  0  0  0  0  0  0  0  0  0
   -6.2700   -1.2570    0.3080 C   0  0  0  0  0  0  0  0  0  0  0  0
   -7.6530   -0.6470    0.1910 C   0  0  1  0  0  0  0  0  0  0  0  0
   -8.7300   -1.6310    0.6040 C   0  0  0  0  0  0  0  0  0  0  0  0
   -7.7650    0.5860    1.0740 C   0  0  0  0  0  0  0  0  0  0  0  0
   -1.6100    0.2360   -0.4330 C   0  0  0  0  0  0  0  0  0  0  0  0
    3.3660   -1.0450   -0.1500 C   0  0  0  0  0  0  0  0  0  0  0  0
    3.1670   -2.1440   -0.9100 C   0  0  0  0  0  0  0  0  0  0  0  0
    2.0740   -2.2900   -1.6880 O   0  0  0  0  0  0  0  0  0  0  0  0
    4.2170   -3.1760   -0.8360 C   0  0  0  0  0  0  0  0  0  0  0  0
    4.4590   -3.5240    0.6150 C   0  0  1  0  0  0  0  0  0  0  0  0
    3.1950   -3.8800    1.3460 C   0  0  0  0  0  0  0  0  0  0  0  0
    5.4220   -4.6940    0.7070 C   0  0  0  0  0  0  0  0  0  0  0  0
    5.0760   -2.3100    1.2930 C   0  0  0  0  0  0  0  0  0  0  0  0
    4.6910   -1.0970    0.5140 C   0  0  0  0  0  0  0  0  0  0  0  0
    5.4620   -0.1470    0.4140 O   0  0  0  0  0  0  0  0  0  0  0  0
  1  2  1  0
  2  3  1  0
  3  4  1  0
  4  5  1  0
  5  6  1  0
  5  7  2  3
  7  8  1  0
  7 24  1  0
  8  9  1  0
  9 10  2  0
  9 11  1  0
 11 12  1  0
 11 23  1  0
 12 13  1  0
 13 14  1  0
 14 15  1  0
 15 16  1  6
 15 23  1  0
 16 17  2  0
 16 18  1  0
 18 19  1  0
 19 20  1  0
 20 21  1  1
 20 22  1  0
 24 25  2  0
 24 32  1  0
 25 26  1  0
 25 27  1  0
 27 28  1  0
 28 29  1  1
 28 30  1  0
 28 31  1  0
 31 32  1  0
 32 33  2  0
M  END
