
     RDKit          3D

 32 34  0  0  0  0  0  0  0  0999 V2000
    9.0770   -2.6340   -0.7210 O   0  0  0  0  0  0  0  0  0  0  0  0
    8.6090   -1.5550   -1.1120 N   0  0  0  0  0  0  0  0  0  0  0  0
    9.4060   -0.6850   -1.8150 O   0  0  0  0  0  0  0  0  0  0  0  0
    7.2620   -1.2300   -0.8340 C   0  0  0  0  0  0  0  0  0  0  0  0
    6.6860   -0.0440   -1.2430 C   0  0  0  0  0  0  0  0  0  0  0  0
    5.3770    0.2760   -0.9720 C   0  0  0  0  0  0  0  0  0  0  0  0
    4.5630   -0.5790   -0.2700 C   0  0  0  0  0  0  0  0  0  0  0  0
    3.2590   -0.3400    0.0410 O   0  0  0  0  0  0  0  0  0  0  0  0
    2.4730    0.7760   -0.2700 C   0  0  1  0  0  0  0  0  0  0  0  0
    1.5030    0.4480   -1.2200 O   0  0  0  0  0  0  0  0  0  0  0  0
    0.5230   -0.3720   -0.7270 C   0  0  2  0  0  0  0  0  0  0  0  0
   -0.3130   -0.8790   -1.8800 C   0  0  0  0  0  0  0  0  0  0  0  0
   -0.8970    0.1670   -2.5510 O   0  0  0  0  0  0  0  0  0  0  0  0
   -0.2960    0.4330    0.2690 C   0  0  1  0  0  0  0  0  0  0  0  0
   -1.4300   -0.2570    0.6680 O   0  0  0  0  0  0  0  0  0  0  0  0
   -2.6260    0.4120    0.2960 C   0  0  1  0  0  0  0  0  0  0  0  0
   -3.2490   -0.4200   -0.5820 O   0  0  0  0  0  0  0  0  0  0  0  0
   -4.5960   -0.4170   -0.6690 C   0  0  2  0  0  0  0  0  0  0  0  0
   -5.1870   -0.4000   -2.0400 C   0  0  0  0  0  0  0  0  0  0  0  0
   -6.5910   -0.4010   -1.9050 O   0  0  0  0  0  0  0  0  0  0  0  0
   -5.2910    0.6320    0.1710 C   0  0  1  0  0  0  0  0  0  0  0  0
   -6.6540    0.2790    0.1760 O   0  0  0  0  0  0  0  0  0  0  0  0
   -4.7870    0.3950    1.6010 C   0  0  2  0  0  0  0  0  0  0  0  0
   -5.4970    1.2470    2.4350 O   0  0  0  0  0  0  0  0  0  0  0  0
   -3.3280    0.7080    1.5720 C   0  0  1  0  0  0  0  0  0  0  0  0
   -2.7390    0.1260    2.6940 O   0  0  0  0  0  0  0  0  0  0  0  0
    0.6250    0.7280    1.4310 C   0  0  2  0  0  0  0  0  0  0  0  0
   -0.0100    1.5420    2.3660 O   0  0  0  0  0  0  0  0  0  0  0  0
    1.8710    1.4270    0.9480 C   0  0  1  0  0  0  0  0  0  0  0  0
    2.8180    1.3110    1.9800 O   0  0  0  0  0  0  0  0  0  0  0  0
    5.1450   -1.7870    0.1490 C   0  0  0  0  0  0  0  0  0  0  0  0
    6.4480   -2.1000   -0.1240 C   0  0  0  0  0  0  0  0  0  0  0  0
  1  2  2  0
  2  3  1  0
  2  4  1  0
  4  5  2  0
  4 32  1  0
  5  6  1  0
  6  7  2  0
  7  8  1  0
  7 31  1  0
  9  8  1  1
  9 10  1  0
  9 29  1  0
 10 11  1  0
 11 12  1  6
 11 14  1  0
 12 13  1  0
 14 15  1  1
 14 27  1  0
 16 15  1  1
 16 17  1  0
 16 25  1  0
 17 18  1  0
 18 19  1  6
 18 21  1  0
 19 20  1  0
 21 22  1  1
 21 23  1  0
 23 24  1  1
 23 25  1  0
 25 26  1  1
 27 28  1  1
 27 29  1  0
 29 30  1  1
 31 32  2  0
M  CHG  2   2   1   3  -1
M  END
