
     RDKit          3D

 32 36  0  0  0  0  0  0  0  0999 V2000
   -7.5570   -0.9740   -1.7240 C   0  0  0  0  0  0  0  0  0  0  0  0
   -7.0180   -0.9920   -0.3310 C   0  0  0  0  0  0  0  0  0  0  0  0
   -7.6160   -1.7050    0.6830 C   0  0  0  0  0  0  0  0  0  0  0  0
   -7.0920   -1.7010    1.9580 C   0  0  0  0  0  0  0  0  0  0  0  0
   -5.9570   -0.9720    2.2130 C   0  0  0  0  0  0  0  0  0  0  0  0
   -5.3270   -0.2380    1.2080 C   0  0  0  0  0  0  0  0  0  0  0  0
   -4.2180    0.4730    1.4650 N   0  0  0  0  0  0  0  0  0  0  0  0
   -3.5690    1.2060    0.5090 C   0  0  0  0  0  0  0  0  0  0  0  0
   -2.3730    1.9820    0.9310 C   0  0  0  0  0  0  0  0  0  0  0  0
   -1.3200    1.1980    1.4920 N   0  0  0  0  0  0  0  0  0  0  0  0
   -1.3560    0.9000    2.8470 C   0  0  0  0  0  0  0  0  0  0  0  0
   -0.2990    0.1660    3.1800 N   0  0  0  0  0  0  0  0  0  0  0  0
    0.3960   -0.0060    2.0800 N   0  0  0  0  0  0  0  0  0  0  0  0
   -0.2280    0.6270    1.0340 C   0  0  0  0  0  0  0  0  0  0  0  0
    0.3430    0.6630   -0.2950 C   0  0  0  0  0  0  0  0  0  0  0  0
   -0.3530    1.0670   -1.3950 C   0  0  0  0  0  0  0  0  0  0  0  0
    0.3200    1.1250   -2.6110 C   0  0  0  0  0  0  0  0  0  0  0  0
    1.6330    0.7930   -2.7260 C   0  0  0  0  0  0  0  0  0  0  0  0
    2.3960    0.3670   -1.6130 C   0  0  0  0  0  0  0  0  0  0  0  0
    3.7410    0.0380   -1.8290 N   0  0  0  0  0  0  0  0  0  0  0  0
    4.7370   -0.2350   -0.8470 C   0  0  0  0  0  0  0  0  0  0  0  0
    4.3990   -0.3980    0.5190 N   0  0  0  0  0  0  0  0  0  0  0  0
    5.9900   -0.3360   -1.1830 C   0  0  0  0  0  0  0  0  0  0  0  0
    7.0880   -0.6070   -0.3010 C   0  0  0  0  0  0  0  0  0  0  0  0
    8.3770   -0.6980   -0.7100 C   0  0  0  0  0  0  0  0  0  0  0  0
    9.2070   -0.9830    0.4610 C   0  0  0  0  0  0  0  0  0  0  0  0
    8.3020   -1.0490    1.5550 N   0  0  0  0  0  0  0  0  0  0  0  0
    7.0890   -0.8340    1.1200 C   0  0  0  0  0  0  0  0  0  0  0  0
    1.7040    0.3230   -0.4450 C   0  0  0  0  0  0  0  0  0  0  0  0
   -4.1220    1.1740   -0.7380 C   0  0  0  0  0  0  0  0  0  0  0  0
   -5.2720    0.4490   -1.0480 C   0  0  0  0  0  0  0  0  0  0  0  0
   -5.8750   -0.2630   -0.0540 C   0  0  0  0  0  0  0  0  0  0  0  0
  1  2  1  0
  2  3  2  0
  2 32  1  0
  3  4  1  0
  4  5  2  0
  5  6  1  0
  6  7  2  0
  6 32  1  0
  7  8  1  0
  8  9  1  0
  8 30  2  0
  9 10  1  0
 10 11  1  0
 10 14  1  0
 11 12  2  0
 12 13  1  0
 13 14  2  0
 14 15  1  0
 15 16  2  0
 15 29  1  0
 16 17  1  0
 17 18  2  0
 18 19  1  0
 19 20  1  0
 19 29  2  0
 20 21  1  0
 21 22  1  0
 21 23  2  3
 23 24  1  0
 24 25  2  0
 24 28  1  0
 25 26  1  0
 26 27  1  0
 27 28  2  0
 30 31  1  0
 31 32  2  0
M  CHG  1  27   1
M  END
