
     RDKit          3D

 33 34  0  0  0  0  0  0  0  0999 V2000
    8.3980   -0.0350   -2.2220 C   0  0  0  0  0  0  0  0  0  0  0  0
    7.0520    0.6060   -1.9600 C   0  0  0  0  0  0  0  0  0  0  0  0
    6.7410    0.5100   -0.5590 N   0  0  0  0  0  0  0  0  0  0  0  0
    5.5010    1.0210    0.0030 C   0  0  0  0  0  0  0  0  0  0  0  0
    4.7440    1.5590   -0.8160 O   0  0  0  0  0  0  0  0  0  0  0  0
    5.2200    0.8850    1.4280 C   0  0  1  0  0  0  0  0  0  0  0  0
    5.9540    1.9000    2.2480 C   0  0  0  0  0  0  0  0  0  0  0  0
    3.7340    0.9690    1.7320 C   0  0  0  0  0  0  0  0  0  0  0  0
    2.9740   -0.0780    1.0280 C   0  0  1  0  0  0  0  0  0  0  0  0
    3.4050   -1.5180    1.3630 C   0  0  0  0  0  0  0  0  0  0  0  0
    2.3260   -2.2170    0.5580 C   0  0  0  0  0  0  0  0  0  0  0  0
    1.2180   -1.4810    0.6020 C   0  0  0  0  0  0  0  0  0  0  0  0
   -0.0590   -1.7660   -0.0290 C   0  0  0  0  0  0  0  0  0  0  0  0
   -1.0830   -0.9500    0.1440 C   0  0  0  0  0  0  0  0  0  0  0  0
   -2.3740   -1.1830   -0.4690 C   0  0  0  0  0  0  0  0  0  0  0  0
   -2.4510   -2.1980   -1.2880 O   0  0  0  0  0  0  0  0  0  0  0  0
   -3.5710   -0.4550   -0.2930 N   0  0  0  0  0  0  0  0  0  0  0  0
   -3.6630    0.3980    0.8470 C   0  0  0  0  0  0  0  0  0  0  0  0
   -4.2390   -0.3210    2.0630 C   0  0  1  0  0  0  0  0  0  0  0  0
   -5.5220   -0.7810    1.8160 O   0  0  0  0  0  0  0  0  0  0  0  0
   -3.3270   -1.4720    2.4330 C   0  0  0  0  0  0  0  0  0  0  0  0
   -3.8120   -2.1100    3.5810 O   0  0  0  0  0  0  0  0  0  0  0  0
   -4.6190   -0.7100   -1.2380 C   0  0  0  0  0  0  0  0  0  0  0  0
   -5.2260   -1.9730   -1.2100 C   0  0  0  0  0  0  0  0  0  0  0  0
   -6.1990   -2.3360   -2.1390 C   0  0  0  0  0  0  0  0  0  0  0  0
   -6.5720   -1.4400   -3.1000 C   0  0  0  0  0  0  0  0  0  0  0  0
   -5.9890   -0.2220   -3.1290 C   0  0  0  0  0  0  0  0  0  0  0  0
   -4.9960    0.1730   -2.1960 C   0  0  0  0  0  0  0  0  0  0  0  0
   -4.5330    1.5370   -2.3670 C   0  0  0  0  0  0  0  0  0  0  0  0
   -3.7230    1.7930   -3.3340 O   0  0  0  0  0  0  0  0  0  0  0  0
   -4.8810    2.6510   -1.5870 N   0  0  0  0  0  0  0  0  0  0  0  0
   -4.4060    4.0000   -1.7620 C   0  0  0  0  0  0  0  0  0  0  0  0
    1.5100   -0.2260    1.3920 C   0  0  0  0  0  0  0  0  0  0  0  0
  1  2  1  0
  2  3  1  0
  3  4  1  0
  4  5  2  0
  4  6  1  0
  6  7  1  1
  6  8  1  0
  9  8  1  1
  9 10  1  0
  9 33  1  0
 10 11  1  0
 11 12  2  0
 12 13  1  0
 12 33  1  0
 13 14  2  3
 14 15  1  0
 15 16  2  0
 15 17  1  0
 17 18  1  0
 17 23  1  0
 18 19  1  0
 19 20  1  6
 19 21  1  0
 21 22  1  0
 23 24  2  0
 23 28  1  0
 24 25  1  0
 25 26  2  0
 26 27  1  0
 27 28  2  0
 28 29  1  0
 29 30  2  0
 29 31  1  0
 31 32  1  0
M  END
