
     RDKit          3D

 33 34  0  0  0  0  0  0  0  0999 V2000
    0.7770    0.9500   -3.1570 C   0  0  0  0  0  0  0  0  0  0  0  0
    2.0270    1.3240   -2.3540 C   0  0  0  0  0  0  0  0  0  0  0  0
    1.7470    1.1960   -0.9220 C   0  0  0  0  0  0  0  0  0  0  0  0
    2.3780    0.4020   -0.1220 C   0  0  0  0  0  0  0  0  0  0  0  0
    3.4560   -0.5190   -0.3810 C   0  0  0  0  0  0  0  0  0  0  0  0
    3.9600   -0.6880   -1.5310 O   0  0  0  0  0  0  0  0  0  0  0  0
    4.0090   -1.3100    0.7600 C   0  0  1  0  0  0  0  0  0  0  0  0
    5.0530   -2.2980    0.2660 C   0  0  2  0  0  0  0  0  0  0  0  0
    4.5020   -3.2730   -0.7220 C   0  0  0  0  0  0  0  0  0  0  0  0
    5.5640   -3.0580    1.4710 C   0  0  0  0  0  0  0  0  0  0  0  0
    4.7310   -0.3600    1.6840 C   0  0  1  0  0  0  0  0  0  0  0  0
    5.8510    0.3380    0.9490 C   0  0  0  0  0  0  0  0  0  0  0  0
    3.8330    0.4860    2.2790 O   0  0  0  0  0  0  0  0  0  0  0  0
    0.6960    2.0320   -0.4490 O   0  0  0  0  0  0  0  0  0  0  0  0
   -0.5650    1.4670   -0.2170 C   0  0  0  0  0  0  0  0  0  0  0  0
   -0.8360    0.1520   -0.4220 C   0  0  0  0  0  0  0  0  0  0  0  0
   -2.0900   -0.4530   -0.2010 C   0  0  0  0  0  0  0  0  0  0  0  0
   -2.2100   -1.8910   -0.4210 C   0  0  0  0  0  0  0  0  0  0  0  0
   -1.3990   -2.4490   -1.2580 O   0  0  0  0  0  0  0  0  0  0  0  0
   -3.1200   -2.7720    0.1840 N   0  0  0  0  0  0  0  0  0  0  0  0
   -3.1160   -4.2150   -0.1600 C   0  0  2  0  0  0  0  0  0  0  0  0
   -4.5370   -4.7360   -0.4940 C   0  0  0  0  0  0  0  0  0  0  0  0
   -3.7840   -5.1550    0.7450 C   0  0  0  0  0  0  0  0  0  0  0  0
   -3.0870    0.3670    0.2510 C   0  0  0  0  0  0  0  0  0  0  0  0
   -4.4690   -0.1080    0.4800 C   0  0  0  0  0  0  0  0  0  0  0  0
   -2.8400    1.7360    0.4750 C   0  0  0  0  0  0  0  0  0  0  0  0
   -1.6010    2.2870    0.2470 C   0  0  0  0  0  0  0  0  0  0  0  0
   -1.2910    3.7050    0.4890 C   0  0  0  0  0  0  0  0  0  0  0  0
   -2.4370    4.4350    0.9150 N   0  0  0  0  0  0  0  0  0  0  0  0
   -3.5700    4.6510    0.1030 C   0  0  0  0  0  0  0  0  0  0  0  0
   -3.6190    4.2070   -1.0770 O   0  0  0  0  0  0  0  0  0  0  0  0
   -4.7020    5.3730    0.5680 N   0  0  0  0  0  0  0  0  0  0  0  0
   -5.8540    5.5850   -0.2780 C   0  0  0  0  0  0  0  0  0  0  0  0
  1  2  1  0
  2  3  1  0
  3  4  2  3
  3 14  1  0
  4  5  1  0
  5  6  2  0
  7  5  1  6
  7  8  1  0
  7 11  1  0
  8  9  1  6
  8 10  1  0
 11 12  1  6
 11 13  1  0
 14 15  1  0
 15 16  2  0
 15 27  1  0
 16 17  1  0
 17 18  1  0
 17 24  2  0
 18 19  2  0
 18 20  1  0
 21 20  1  1
 21 22  1  0
 21 23  1  0
 22 23  1  0
 24 25  1  0
 24 26  1  0
 26 27  2  0
 27 28  1  0
 28 29  1  0
 29 30  1  0
 30 31  2  0
 30 32  1  0
 32 33  1  0
M  END
