
     RDKit          3D

 32 36  0  0  0  0  0  0  0  0999 V2000
    5.4710    3.4320    1.4760 C   0  0  0  0  0  0  0  0  0  0  0  0
    6.6500    2.5700    1.4420 C   0  0  0  0  0  0  0  0  0  0  0  0
    6.6690    1.3010    1.1280 C   0  0  0  0  0  0  0  0  0  0  0  0
    7.9780    0.5770    1.1490 C   0  0  0  0  0  0  0  0  0  0  0  0
    7.8620   -0.8180    0.7860 C   0  0  0  0  0  0  0  0  0  0  0  0
    6.7610   -1.4430    0.4610 C   0  0  0  0  0  0  0  0  0  0  0  0
    5.5430   -0.7460    0.4460 N   0  0  0  0  0  0  0  0  0  0  0  0
    5.4690    0.5730    0.7620 C   0  0  0  0  0  0  0  0  0  0  0  0
    4.1670    0.9100    0.6430 N   0  0  0  0  0  0  0  0  0  0  0  0
    3.4200   -0.1640    0.2610 C   0  0  0  0  0  0  0  0  0  0  0  0
    2.0610   -0.3200    0.0130 C   0  0  0  0  0  0  0  0  0  0  0  0
    1.5530   -1.5430   -0.3680 C   0  0  0  0  0  0  0  0  0  0  0  0
    0.1250   -1.8120   -0.6540 C   0  0  0  0  0  0  0  0  0  0  0  0
   -0.6540   -0.6100   -0.4890 N   0  0  0  0  0  0  0  0  0  0  0  0
   -2.0520   -0.8040   -0.7610 C   0  0  1  0  0  0  0  0  0  0  0  0
   -2.3670   -1.2130   -2.1500 C   0  0  0  0  0  0  0  0  0  0  0  0
   -2.7080   -1.7430    0.2240 C   0  0  0  0  0  0  0  0  0  0  0  0
   -4.1130   -1.9520   -0.0340 N   0  0  0  0  0  0  0  0  0  0  0  0
   -5.0820   -0.9040   -0.0110 C   0  0  0  0  0  0  0  0  0  0  0  0
   -4.7250    0.3500    0.2620 N   0  0  0  0  0  0  0  0  0  0  0  0
   -5.5980    1.3760    0.2990 C   0  0  0  0  0  0  0  0  0  0  0  0
   -5.1690    2.6530    0.5870 C   0  0  0  0  0  0  0  0  0  0  0  0
   -6.0370    3.7370    0.6340 C   0  0  0  0  0  0  0  0  0  0  0  0
   -7.3680    3.4770    0.3780 C   0  0  0  0  0  0  0  0  0  0  0  0
   -7.8190    2.1990    0.0860 C   0  0  0  0  0  0  0  0  0  0  0  0
   -6.9290    1.1450    0.0470 C   0  0  0  0  0  0  0  0  0  0  0  0
   -7.2930   -0.1180   -0.2280 N   0  0  0  0  0  0  0  0  0  0  0  0
   -6.4140   -1.1360   -0.2630 C   0  0  0  0  0  0  0  0  0  0  0  0
   -6.8310   -2.4700   -0.5590 N   0  0  0  0  0  0  0  0  0  0  0  0
    2.4650   -2.5740   -0.4820 C   0  0  0  0  0  0  0  0  0  0  0  0
    3.8020   -2.4350   -0.2410 C   0  0  0  0  0  0  0  0  0  0  0  0
    4.3040   -1.1940    0.1430 C   0  0  0  0  0  0  0  0  0  0  0  0
  1  2  1  0
  2  3  2  3
  3  4  1  0
  3  8  1  0
  4  5  1  0
  5  6  2  0
  6  7  1  0
  7  8  1  0
  7 32  1  0
  8  9  2  0
  9 10  1  0
 10 11  2  0
 10 32  1  0
 11 12  1  0
 12 13  1  0
 12 30  2  0
 13 14  1  0
 14 15  1  0
 15 16  1  6
 15 17  1  0
 17 18  1  0
 18 19  1  0
 19 20  2  0
 19 28  1  0
 20 21  1  0
 21 22  2  0
 21 26  1  0
 22 23  1  0
 23 24  2  0
 24 25  1  0
 25 26  2  0
 26 27  1  0
 27 28  2  0
 28 29  1  0
 30 31  1  0
 31 32  2  0
M  CHG  1   9   1
M  END
