
     RDKit          3D

 34 36  0  0  0  0  0  0  0  0999 V2000
   -6.8210    1.4120   -1.7980 O   0  0  0  0  0  0  0  0  0  0  0  0
   -6.2200    1.5460   -0.5490 C   0  0  0  0  0  0  0  0  0  0  0  0
   -5.0300    0.5850   -0.5210 C   0  0  1  0  0  0  0  0  0  0  0  0
   -4.4380    0.7280    0.7310 O   0  0  0  0  0  0  0  0  0  0  0  0
   -3.4420   -0.2200    0.9480 C   0  0  2  0  0  0  0  0  0  0  0  0
   -2.4820   -0.2370   -0.0300 O   0  0  0  0  0  0  0  0  0  0  0  0
   -1.1770   -0.0310    0.4590 C   0  0  2  0  0  0  0  0  0  0  0  0
   -0.5790    1.2180   -0.0470 C   0  0  1  0  0  0  0  0  0  0  0  0
   -0.7030    2.3750    0.9440 C   0  0  0  0  0  0  0  0  0  0  0  0
   -1.9780    2.4560    1.4800 O   0  0  0  0  0  0  0  0  0  0  0  0
    0.6910    1.2180   -0.5140 O   0  0  0  0  0  0  0  0  0  0  0  0
    1.4470    0.0780   -0.3190 C   0  0  2  0  0  0  0  0  0  0  0  0
    2.6310    0.2240   -1.0110 O   0  0  0  0  0  0  0  0  0  0  0  0
    3.7600    0.1970   -0.2450 C   0  0  2  0  0  0  0  0  0  0  0  0
    4.6660    1.3870   -0.4460 C   0  0  1  0  0  0  0  0  0  0  0  0
    4.9040    2.1540    0.8300 C   0  0  0  0  0  0  0  0  0  0  0  0
    5.6520    3.2850    0.5070 O   0  0  0  0  0  0  0  0  0  0  0  0
    5.9050    1.0420   -0.9640 O   0  0  0  0  0  0  0  0  0  0  0  0
    6.6100    0.1760   -0.1420 C   0  0  2  0  0  0  0  0  0  0  0  0
    7.7000   -0.3050   -0.9000 O   0  0  0  0  0  0  0  0  0  0  0  0
    5.7930   -1.0440    0.2390 C   0  0  2  0  0  0  0  0  0  0  0  0
    6.5190   -2.2200    0.0890 O   0  0  0  0  0  0  0  0  0  0  0  0
    4.5640   -1.0300   -0.6580 C   0  0  1  0  0  0  0  0  0  0  0  0
    3.8420   -2.1920   -0.5930 O   0  0  0  0  0  0  0  0  0  0  0  0
    0.5950   -1.0590   -0.8350 C   0  0  2  0  0  0  0  0  0  0  0  0
   -0.1480   -0.6340   -1.9520 O   0  0  0  0  0  0  0  0  0  0  0  0
   -0.4080   -1.2900    0.2760 C   0  0  1  0  0  0  0  0  0  0  0  0
    0.3200   -1.6210    1.4400 O   0  0  0  0  0  0  0  0  0  0  0  0
   -4.0890   -1.5980    0.9790 C   0  0  2  0  0  0  0  0  0  0  0  0
   -3.2710   -2.5630    1.5100 O   0  0  0  0  0  0  0  0  0  0  0  0
   -4.6000   -1.8880   -0.3930 C   0  0  1  0  0  0  0  0  0  0  0  0
   -5.3190   -3.0900   -0.3990 O   0  0  0  0  0  0  0  0  0  0  0  0
   -5.5590   -0.7880   -0.7820 C   0  0  2  0  0  0  0  0  0  0  0  0
   -5.8190   -0.9070   -2.1450 O   0  0  0  0  0  0  0  0  0  0  0  0
  1  2  1  0
  3  2  1  1
  3  4  1  0
  3 33  1  0
  4  5  1  0
  5  6  1  6
  5 29  1  0
  7  6  1  6
  7  8  1  0
  7 27  1  0
  8  9  1  1
  8 11  1  0
  9 10  1  0
 11 12  1  0
 12 13  1  6
 12 25  1  0
 14 13  1  6
 14 15  1  0
 14 23  1  0
 15 16  1  1
 15 18  1  0
 16 17  1  0
 18 19  1  0
 19 20  1  6
 19 21  1  0
 21 22  1  6
 21 23  1  0
 23 24  1  1
 25 26  1  6
 25 27  1  0
 27 28  1  1
 29 30  1  6
 29 31  1  0
 31 32  1  1
 31 33  1  0
 33 34  1  6
M  END
