
     RDKit          3D

 34 36  0  0  0  0  0  0  0  0999 V2000
   -7.0370    2.6750    0.1990 C   0  0  0  0  0  0  0  0  0  0  0  0
   -7.2440    1.2540    0.1910 O   0  0  0  0  0  0  0  0  0  0  0  0
   -6.1090    0.4560    0.2420 C   0  0  0  0  0  0  0  0  0  0  0  0
   -4.8350    0.9700    0.2990 C   0  0  0  0  0  0  0  0  0  0  0  0
   -3.6890    0.1930    0.3500 C   0  0  0  0  0  0  0  0  0  0  0  0
   -2.3990    0.8050    0.4080 N   0  0  1  0  0  0  0  0  0  0  0  0
   -2.0690    1.2890   -0.9180 C   0  0  0  0  0  0  0  0  0  0  0  0
   -2.5660    1.9340    1.1780 O   0  0  0  0  0  0  0  0  0  0  0  0
   -1.3930    0.0100    1.0190 C   0  0  0  0  0  0  0  0  0  0  0  0
   -0.4840   -0.6880    0.0930 C   0  0  0  0  0  0  0  0  0  0  0  0
    0.4250   -1.3980    0.6410 O   0  0  0  0  0  0  0  0  0  0  0  0
   -0.5130   -0.6560   -1.2730 O   0  0  0  0  0  0  0  0  0  0  0  0
    0.3940   -1.3430   -2.1070 C   0  0  0  0  0  0  0  0  0  0  0  0
    1.7460   -0.8030   -1.8770 C   0  0  0  0  0  0  0  0  0  0  0  0
    2.7500   -1.3610   -2.4390 O   0  0  0  0  0  0  0  0  0  0  0  0
    2.0160    0.3210   -1.0580 N   0  0  0  0  0  0  0  0  0  0  0  0
    3.3560    0.7610   -0.8980 N   0  0  0  0  0  0  0  0  0  0  0  0
    4.3310   -0.0930   -0.3210 C   0  0  0  0  0  0  0  0  0  0  0  0
    3.9810   -1.2460    0.0440 O   0  0  0  0  0  0  0  0  0  0  0  0
    5.7380    0.3530   -0.1450 C   0  0  0  0  0  0  0  0  0  0  0  0
    6.0870    1.4850   -0.5030 O   0  0  0  0  0  0  0  0  0  0  0  0
    6.6730   -0.5360    0.4390 N   0  0  0  0  0  0  0  0  0  0  0  0
    8.0320   -0.1720    0.6380 C   0  0  0  0  0  0  0  0  0  0  0  0
    8.9740   -0.9890    1.1950 N   0  0  0  0  0  0  0  0  0  0  0  0
   10.1400   -0.3710    1.2480 N   0  0  0  0  0  0  0  0  0  0  0  0
   10.0040    0.8630    0.7310 C   0  0  0  0  0  0  0  0  0  0  0  0
   11.1770    1.9880    0.5870 S   0  0  0  0  0  0  0  0  0  0  0  0
    8.6970    0.9560    0.3640 N   0  0  0  0  0  0  0  0  0  0  0  0
   -3.8540   -1.1740    0.3440 C   0  0  0  0  0  0  0  0  0  0  0  0
   -5.1330   -1.7430    0.2870 C   0  0  0  0  0  0  0  0  0  0  0  0
   -6.2410   -0.9290    0.2370 C   0  0  0  0  0  0  0  0  0  0  0  0
   -7.4090   -1.7050    0.1860 O   0  0  0  0  0  0  0  0  0  0  0  0
   -6.9990   -3.0640   -0.0280 C   0  0  0  0  0  0  0  0  0  0  0  0
   -5.6060   -3.0500    0.2670 O   0  0  0  0  0  0  0  0  0  0  0  0
  1  2  1  0
  2  3  1  0
  3  4  2  0
  3 31  1  0
  4  5  1  0
  5  6  1  0
  5 29  2  0
  6  7  1  6
  6  8  1  0
  6  9  1  0
  9 10  1  0
 10 11  2  0
 10 12  1  0
 12 13  1  0
 13 14  1  0
 14 15  2  0
 14 16  1  0
 16 17  1  0
 17 18  1  0
 18 19  2  0
 18 20  1  0
 20 21  2  0
 20 22  1  0
 22 23  1  0
 23 24  2  0
 23 28  1  0
 24 25  1  0
 25 26  1  0
 26 27  2  0
 26 28  1  0
 29 30  1  0
 30 31  2  0
 30 34  1  0
 31 32  1  0
 32 33  1  0
 33 34  1  0
M  CHG  2   6   1   8  -1
M  END
