
     RDKit          3D

 34 37  0  0  0  0  0  0  0  0999 V2000
    3.6040    2.1420   -1.9670 C   0  0  0  0  0  0  0  0  0  0  0  0
    2.7060    1.2890   -1.3080 O   0  0  0  0  0  0  0  0  0  0  0  0
    1.5260    1.7160   -0.7040 C   0  0  0  0  0  0  0  0  0  0  0  0
    1.1840    3.0420   -0.7310 C   0  0  0  0  0  0  0  0  0  0  0  0
    0.0300    3.4880   -0.1530 C   0  0  0  0  0  0  0  0  0  0  0  0
   -0.8450    2.5920    0.4920 C   0  0  0  0  0  0  0  0  0  0  0  0
   -2.0530    3.0270    1.1490 C   0  0  0  0  0  0  0  0  0  0  0  0
   -2.3330    4.4140    1.2400 N   0  0  0  0  0  0  0  0  0  0  0  0
   -2.8410    2.2140    1.6360 O   0  0  0  0  0  0  0  0  0  0  0  0
   -0.4670    1.2850    0.4930 C   0  0  0  0  0  0  0  0  0  0  0  0
   -1.3120    0.3550    1.1140 O   0  0  0  0  0  0  0  0  0  0  0  0
   -2.2980   -0.2920    0.3660 C   0  0  0  0  0  0  0  0  0  0  0  0
   -3.1020   -1.1380    0.9440 C   0  0  0  0  0  0  0  0  0  0  0  0
   -4.1610   -1.8590    0.2270 C   0  0  1  0  0  0  0  0  0  0  0  0
   -3.9310   -3.3020    0.3030 N   0  0  0  0  0  0  0  0  0  0  0  0
   -4.8880   -3.8570    0.8810 N   0  0  0  0  0  0  0  0  0  0  0  0
   -5.8680   -2.9890    1.2750 O   0  0  0  0  0  0  0  0  0  0  0  0
   -5.4780   -1.7310    0.8970 C   0  0  0  0  0  0  0  0  0  0  0  0
   -6.1060   -0.6560    1.0730 O   0  0  0  0  0  0  0  0  0  0  0  0
   -4.2200   -1.5360   -1.1310 O   0  0  0  0  0  0  0  0  0  0  0  0
   -3.3860   -0.6590   -1.7390 C   0  0  0  0  0  0  0  0  0  0  0  0
   -3.5760   -0.4530   -3.1180 O   0  0  0  0  0  0  0  0  0  0  0  0
   -2.4450   -0.0350   -1.0600 C   0  0  0  0  0  0  0  0  0  0  0  0
    0.7050    0.8010   -0.0850 C   0  0  0  0  0  0  0  0  0  0  0  0
    1.0640   -0.6080    0.0700 C   0  0  0  0  0  0  0  0  0  0  0  0
    0.1480   -1.4600    0.2970 O   0  0  0  0  0  0  0  0  0  0  0  0
    2.3710   -1.1210   -0.0050 N   0  0  0  0  0  0  0  0  0  0  0  0
    2.6750   -2.4920    0.1510 N   0  0  0  0  0  0  0  0  0  0  0  0
    4.0460   -2.9140    0.2620 C   0  0  0  0  0  0  0  0  0  0  0  0
    5.0280   -3.3780   -1.2690 S   0  0  0  0  0  0  0  0  0  0  0  0
    6.5100   -3.7030   -0.1280 C   0  0  0  0  0  0  0  0  0  0  0  0
    6.0940   -3.4710    0.8610 N   0  0  0  0  0  0  0  0  0  0  0  0
    4.8980   -3.0710    1.2140 N   0  0  0  0  0  0  0  0  0  0  0  0
    4.5800   -2.8350    2.5500 O   0  0  0  0  0  0  0  0  0  0  0  0
  1  2  1  0
  2  3  1  0
  3  4  2  0
  3 24  1  0
  4  5  1  0
  5  6  2  0
  6  7  1  0
  6 10  1  0
  7  8  1  0
  7  9  2  0
 10 11  1  0
 10 24  2  0
 11 12  1  0
 12 13  2  0
 12 23  1  0
 13 14  1  0
 14 15  1  0
 14 18  1  0
 14 20  1  6
 15 16  2  0
 16 17  1  0
 17 18  1  0
 18 19  2  0
 20 21  1  0
 21 22  1  0
 21 23  2  0
 24 25  1  0
 25 26  2  0
 25 27  1  0
 27 28  1  0
 28 29  1  0
 29 30  1  0
 29 33  2  0
 30 31  1  0
 31 32  2  0
 32 33  1  0
 33 34  1  0
M  CHG  2  33   1  34  -1
M  END
