
     RDKit          3D

 28 30  0  0  0  0  0  0  0  0999 V2000
   -1.9990   -3.0390    1.5220 C   0  0  0  0  0  0  0  0  0  0  0  0
   -2.7280   -1.8030    1.8930 C   0  0  0  0  0  0  0  0  0  0  0  0
   -2.4650   -0.6030    0.9940 C   0  0  2  0  0  0  0  0  0  0  0  0
   -2.8670   -0.9030   -0.3980 C   0  0  0  0  0  0  0  0  0  0  0  0
   -2.6640    0.3700   -1.1840 C   0  0  1  0  0  0  0  0  0  0  0  0
   -3.1150    0.0320   -2.5930 C   0  0  0  0  0  0  0  0  0  0  0  0
   -3.7560    1.3300   -0.6710 C   0  0  0  0  0  0  0  0  0  0  0  0
   -1.3070    0.9330   -1.1190 C   0  0  0  0  0  0  0  0  0  0  0  0
   -0.3820    0.5280    0.0240 C   0  0  2  0  0  0  0  0  0  0  0  0
    0.0040    1.8500    0.6920 C   0  0  0  0  0  0  0  0  0  0  0  0
   -1.0300    2.7210    1.2420 C   0  0  0  0  0  0  0  0  0  0  0  0
   -1.3370    3.9780    0.8160 C   0  0  0  0  0  0  0  0  0  0  0  0
   -2.4120    4.5720    1.5800 C   0  0  0  0  0  0  0  0  0  0  0  0
   -2.7320    3.5410    2.5740 C   0  0  0  0  0  0  0  0  0  0  0  0
   -1.9320    2.5270    2.3370 C   0  0  0  0  0  0  0  0  0  0  0  0
    0.9130   -0.0110   -0.6690 C   0  0  2  0  0  0  0  0  0  0  0  0
    1.5450    1.0180   -1.5080 C   0  0  0  0  0  0  0  0  0  0  0  0
    0.3530   -1.0940   -1.6090 C   0  0  0  0  0  0  0  0  0  0  0  0
    1.2150   -1.8170   -2.5390 C   0  0  0  0  0  0  0  0  0  0  0  0
    1.8610   -0.7630    0.1900 C   0  0  2  0  0  0  0  0  0  0  0  0
    1.3350   -1.9750    0.6630 O   0  0  0  0  0  0  0  0  0  0  0  0
    2.3740   -0.1760    1.4860 C   0  0  0  0  0  0  0  0  0  0  0  0
    3.4860    0.7700    1.2190 C   0  0  0  0  0  0  0  0  0  0  0  0
    4.1460    0.0860    0.0750 C   0  0  0  0  0  0  0  0  0  0  0  0
    3.1730   -0.9910   -0.4480 C   0  0  1  0  0  0  0  0  0  0  0  0
    3.8540   -2.3090   -0.1080 C   0  0  0  0  0  0  0  0  0  0  0  0
    5.1980   -2.3760   -0.8640 C   0  0  0  0  0  0  0  0  0  0  0  0
   -0.9540   -0.4020    0.9960 C   0  0  0  0  0  0  0  0  0  0  0  0
  1  2  1  0
  3  2  1  1
  3  4  1  0
  3 28  1  0
  4  5  1  0
  5  6  1  6
  5  7  1  0
  5  8  1  0
  8  9  1  0
  9 10  1  1
  9 16  1  0
  9 28  1  0
 10 11  1  0
 11 12  2  0
 11 15  1  0
 12 13  1  0
 13 14  1  0
 14 15  2  0
 16 17  1  6
 16 18  1  0
 16 20  1  0
 18 19  1  0
 20 21  1  1
 20 22  1  0
 20 25  1  0
 22 23  1  0
 23 24  1  0
 24 25  1  0
 25 26  1  1
 26 27  1  0
M  END
