
     RDKit          3D

 12 12  0  0  0  0  0  0  0  0999 V2000
   -2.5510    1.3790   -0.2480 O   0  0  0  0  0  0  0  0  0  0  0  0
   -2.3310    0.1860    0.0410 C   0  0  0  0  0  0  0  0  0  0  0  0
   -3.3870   -0.6540    0.3160 O   0  0  0  0  0  0  0  0  0  0  0  0
   -0.9600   -0.2760    0.0750 C   0  0  0  0  0  0  0  0  0  0  0  0
   -0.6850   -1.5960    0.3910 C   0  0  0  0  0  0  0  0  0  0  0  0
    0.6410   -1.9920    0.4110 C   0  0  0  0  0  0  0  0  0  0  0  0
    1.6320   -1.1250    0.1330 N   0  0  0  0  0  0  0  0  0  0  0  0
    1.4060    0.1610   -0.1790 C   0  0  0  0  0  0  0  0  0  0  0  0
    2.4810    1.0990   -0.4810 C   0  0  0  0  0  0  0  0  0  0  0  0
    3.6730    0.7120   -0.4550 O   0  0  0  0  0  0  0  0  0  0  0  0
    2.2100    2.4160   -0.7970 O   0  0  0  0  0  0  0  0  0  0  0  0
    0.0890    0.5730   -0.2030 C   0  0  0  0  0  0  0  0  0  0  0  0
  1  2  2  0
  2  3  1  0
  2  4  1  0
  4  5  2  0
  4 12  1  0
  5  6  1  0
  6  7  2  0
  7  8  1  0
  8  9  1  0
  8 12  2  0
  9 10  2  0
  9 11  1  0
M  END
