
     RDKit          3D

 11 11  0  0  0  0  0  0  0  0999 V2000
    1.5680    1.9420    0.8460 N   0  0  0  0  0  0  0  0  0  0  0  0
    1.3370    1.0650   -0.3140 C   0  0  0  0  0  0  0  0  0  0  0  0
    0.1090    0.2880   -0.1340 C   0  0  0  0  0  0  0  0  0  0  0  0
    0.1170   -1.0270   -0.1100 C   0  0  0  0  0  0  0  0  0  0  0  0
    1.2200   -1.9170   -0.2400 C   0  0  0  0  0  0  0  0  0  0  0  0
    1.0060   -3.1760   -0.1880 O   0  0  0  0  0  0  0  0  0  0  0  0
    2.5270   -1.5650   -0.4210 O   0  0  0  0  0  0  0  0  0  0  0  0
   -1.2790   -1.6160    0.0890 C   0  0  0  0  0  0  0  0  0  0  0  0
   -2.0600   -1.0200   -0.8880 O   0  0  0  0  0  0  0  0  0  0  0  0
   -2.3390    0.3070   -0.6190 C   0  0  0  0  0  0  0  0  0  0  0  0
   -1.1860    1.0380    0.0250 C   0  0  0  0  0  0  0  0  0  0  0  0
  1  2  1  0
  2  3  1  0
  3  4  2  0
  3 11  1  0
  4  5  1  0
  4  8  1  0
  5  6  2  0
  5  7  1  0
  8  9  1  0
  9 10  1  0
 10 11  1  0
M  END
