
     RDKit          3D

 19 20  0  0  0  0  0  0  0  0999 V2000
    0.9620   -0.0230    1.3860 O   0  0  0  0  0  0  0  0  0  0  0  0
    0.4620    0.2930    0.3820 C   0  0  0  0  0  0  0  0  0  0  0  0
   -0.8860    0.4710   -0.1240 C   0  0  0  0  0  0  0  0  0  0  0  0
   -1.8950    0.3980    0.9990 C   0  0  2  0  0  0  0  0  0  0  0  0
   -1.8750   -0.8280    1.7340 N   0  0  0  0  0  0  0  0  0  0  0  0
   -3.0770   -1.5040    1.5740 N   0  0  0  0  0  0  0  0  0  0  0  0
   -3.8510   -0.8340    0.7550 C   0  0  0  0  0  0  0  0  0  0  0  0
   -5.1960   -0.8660    0.1010 C   0  0  0  0  0  0  0  0  0  0  0  0
   -5.1700    0.3630   -0.7320 C   0  0  0  0  0  0  0  0  0  0  0  0
   -6.2410    0.7390   -1.5630 O   0  0  0  0  0  0  0  0  0  0  0  0
   -4.0310    1.0270   -0.5750 C   0  0  0  0  0  0  0  0  0  0  0  0
   -3.2050    0.3280    0.3260 N   0  0  0  0  0  0  0  0  0  0  0  0
    1.6170    0.6680   -0.8780 N   0  0  0  0  0  0  0  0  0  0  0  0
    2.7710    0.3820   -0.1680 C   0  0  0  0  0  0  0  0  0  0  0  0
    2.9720   -0.0900    0.9180 O   0  0  0  0  0  0  0  0  0  0  0  0
    3.9570    0.7720   -0.9890 N   0  0  0  0  0  0  0  0  0  0  0  0
    5.2630    0.5790   -0.5370 C   0  0  0  0  0  0  0  0  0  0  0  0
    5.6680   -0.8530   -0.3200 C   0  0  0  0  0  0  0  0  0  0  0  0
    4.9400   -1.5450    0.6130 O   0  0  0  0  0  0  0  0  0  0  0  0
  1  2  2  0
  2  3  1  0
  2 13  1  0
  4  3  1  6
  4  5  1  0
  4 12  1  0
  5  6  1  0
  6  7  2  0
  7  8  1  0
  7 12  1  0
  8  9  1  0
  9 10  1  0
  9 11  2  0
 11 12  1  0
 13 14  1  0
 14 15  2  0
 14 16  1  0
 16 17  1  0
 17 18  1  0
 18 19  1  0
M  END
