
     RDKit          3D

 19 21  0  0  0  0  0  0  0  0999 V2000
    5.3770   -0.1300   -0.3600 N   0  0  0  0  0  0  0  0  0  0  0  0
    4.0740   -0.6810   -0.1820 C   0  0  0  0  0  0  0  0  0  0  0  0
    3.8380   -2.0070   -0.2180 N   0  0  0  0  0  0  0  0  0  0  0  0
    2.5830   -2.5000   -0.0450 C   0  0  0  0  0  0  0  0  0  0  0  0
    1.5240   -1.6960    0.1700 N   0  0  0  0  0  0  0  0  0  0  0  0
    1.7110   -0.3860    0.2130 C   0  0  0  0  0  0  0  0  0  0  0  0
    2.9830    0.1340    0.0380 C   0  0  0  0  0  0  0  0  0  0  0  0
    2.8570    1.4510    0.1320 N   0  0  0  0  0  0  0  0  0  0  0  0
    1.5610    1.7590    0.3570 C   0  0  0  0  0  0  0  0  0  0  0  0
    0.8510    0.6150    0.4070 N   0  0  0  0  0  0  0  0  0  0  0  0
   -0.5560    0.6050    0.6320 C   0  0  2  0  0  0  0  0  0  0  0  0
   -1.1440   -0.6320    0.6260 O   0  0  0  0  0  0  0  0  0  0  0  0
   -2.4900   -0.2860    0.7570 C   0  0  2  0  0  0  0  0  0  0  0  0
   -3.4080   -1.4580    0.5500 C   0  0  0  0  0  0  0  0  0  0  0  0
   -3.1920   -1.9490   -0.7400 O   0  0  0  0  0  0  0  0  0  0  0  0
   -2.6680    0.6870   -0.3890 C   0  0  1  0  0  0  0  0  0  0  0  0
   -3.5710    1.6810    0.0080 O   0  0  0  0  0  0  0  0  0  0  0  0
   -1.2750    1.3040   -0.5250 C   0  0  1  0  0  0  0  0  0  0  0  0
   -1.2820    2.6520   -0.2390 O   0  0  0  0  0  0  0  0  0  0  0  0
  1  2  1  0
  2  3  2  0
  2  7  1  0
  3  4  1  0
  4  5  2  0
  5  6  1  0
  6  7  2  0
  6 10  1  0
  7  8  1  0
  8  9  2  0
  9 10  1  0
 11 10  1  6
 11 12  1  0
 11 18  1  0
 12 13  1  0
 13 14  1  6
 13 16  1  0
 14 15  1  0
 16 17  1  1
 16 18  1  0
 18 19  1  1
M  END
