
     RDKit          3D

 19 20  0  0  0  0  0  0  0  0999 V2000
    5.2870    1.4420    0.8070 N   0  0  0  0  0  0  0  0  0  0  0  0
    4.8870    0.1410    0.4310 C   0  0  0  0  0  0  0  0  0  0  0  0
    5.5780   -0.8310    0.8000 O   0  0  0  0  0  0  0  0  0  0  0  0
    3.6910   -0.0410   -0.3690 C   0  0  2  0  0  0  0  0  0  0  0  0
    2.4110    0.3710    0.3570 C   0  0  0  0  0  0  0  0  0  0  0  0
    1.3670   -0.2010   -0.6040 C   0  0  2  0  0  0  0  0  0  0  0  0
    0.1860   -0.6460    0.1070 N   0  0  0  0  0  0  0  0  0  0  0  0
   -1.1270   -0.1550   -0.2560 C   0  0  0  0  0  0  0  0  0  0  0  0
   -1.1400    0.6530   -1.2000 O   0  0  0  0  0  0  0  0  0  0  0  0
   -2.2830   -0.5910    0.4400 N   0  0  0  0  0  0  0  0  0  0  0  0
   -3.5920   -0.1520    0.1360 C   0  0  0  0  0  0  0  0  0  0  0  0
   -3.9580    0.6850   -0.7850 C   0  0  0  0  0  0  0  0  0  0  0  0
   -5.3600    1.0610   -0.9990 C   0  0  0  0  0  0  0  0  0  0  0  0
   -6.2420    0.4360   -0.1260 O   0  0  0  0  0  0  0  0  0  0  0  0
   -5.8920   -0.4440    0.8470 N   0  0  0  0  0  0  0  0  0  0  0  0
   -4.6580   -0.7320    0.9860 C   0  0  0  0  0  0  0  0  0  0  0  0
    2.0550   -1.4080   -1.1470 C   0  0  0  0  0  0  0  0  0  0  0  0
    1.5190   -2.2750   -1.9030 O   0  0  0  0  0  0  0  0  0  0  0  0
    3.4000   -1.4260   -0.6800 N   0  0  0  0  0  0  0  0  0  0  0  0
  1  2  1  0
  2  3  2  0
  4  2  1  1
  4  5  1  0
  4 19  1  0
  5  6  1  0
  6  7  1  1
  6 17  1  0
  7  8  1  0
  8  9  2  0
  8 10  1  0
 10 11  1  0
 11 12  2  0
 11 16  1  0
 12 13  1  0
 13 14  1  0
 14 15  1  0
 15 16  2  0
 17 18  2  0
 17 19  1  0
M  END
