
     RDKit          3D

 19 20  0  0  0  0  0  0  0  0999 V2000
   -1.8260    3.2350    0.0670 C   0  0  0  0  0  0  0  0  0  0  0  0
   -1.7200    1.8020   -0.1460 N   0  0  0  0  0  0  0  0  0  0  0  0
   -2.9720    1.1210   -0.2070 C   0  0  0  0  0  0  0  0  0  0  0  0
   -2.9070   -0.3110   -0.1010 N   0  0  0  0  0  0  0  0  0  0  0  0
   -1.8990   -1.2100    0.3410 C   0  0  0  0  0  0  0  0  0  0  0  0
   -2.3840   -2.5220    0.8310 C   0  0  1  0  0  0  0  0  0  0  0  0
   -3.1400   -3.3240   -0.1690 C   0  0  0  0  0  0  0  0  0  0  0  0
   -1.8620   -3.6920    0.3380 O   0  0  0  0  0  0  0  0  0  0  0  0
   -0.6150   -1.0100    0.3610 N   0  0  0  0  0  0  0  0  0  0  0  0
    0.1270    0.1410   -0.0440 C   0  0  0  0  0  0  0  0  0  0  0  0
    1.5670   -0.0420   -0.2390 C   0  0  0  0  0  0  0  0  0  0  0  0
    2.2320    0.9580   -0.5940 O   0  0  0  0  0  0  0  0  0  0  0  0
    2.1940   -1.2540   -0.0460 O   0  0  0  0  0  0  0  0  0  0  0  0
    3.5830   -1.3930   -0.2420 C   0  0  0  0  0  0  0  0  0  0  0  0
    4.3130   -0.4770    0.6860 C   0  0  0  0  0  0  0  0  0  0  0  0
    5.7290   -0.4110    0.7000 N   0  0  0  0  0  0  0  0  0  0  0  0
    3.6860    0.2650    1.4870 O   0  0  0  0  0  0  0  0  0  0  0  0
   -0.3790    1.3410   -0.2550 C   0  0  0  0  0  0  0  0  0  0  0  0
    0.5930    2.3150   -0.6550 N   0  0  0  0  0  0  0  0  0  0  0  0
  1  2  1  0
  2  3  1  0
  2 18  1  0
  3  4  1  0
  4  5  1  0
  6  5  1  6
  5  9  2  0
  6  7  1  0
  6  8  1  0
  7  8  1  0
  9 10  1  0
 10 11  1  0
 10 18  2  0
 11 12  2  0
 11 13  1  0
 13 14  1  0
 14 15  1  0
 15 16  1  0
 15 17  2  0
 18 19  1  0
M  END
