
     RDKit          3D

 19 20  0  0  0  0  0  0  0  0999 V2000
    3.4290    0.9400    1.4630 C   0  0  0  0  0  0  0  0  0  0  0  0
    3.1490    0.3550    0.1500 C   0  0  0  0  0  0  0  0  0  0  0  0
    1.9780    0.0300   -0.3150 C   0  0  0  0  0  0  0  0  0  0  0  0
    1.8750   -0.5520   -1.6690 C   0  0  0  0  0  0  0  0  0  0  0  0
    3.0730   -0.7490   -2.4200 N   0  0  0  0  0  0  0  0  0  0  0  0
    0.7220   -0.8490   -2.1010 N   0  0  0  0  0  0  0  0  0  0  0  0
   -0.4780   -0.6560   -1.3600 C   0  0  0  0  0  0  0  0  0  0  0  0
   -0.4890   -0.1450   -0.1480 C   0  0  0  0  0  0  0  0  0  0  0  0
    0.7870    0.2120    0.4040 N   0  0  0  0  0  0  0  0  0  0  0  0
    0.7530    0.7050    1.7150 N   0  0  0  0  0  0  0  0  0  0  0  0
    0.6870   -0.2140    2.5960 O   0  0  0  0  0  0  0  0  0  0  0  0
   -1.7380    0.0430    0.5760 C   0  0  2  0  0  0  0  0  0  0  0  0
   -1.7710    1.1960    1.5460 C   0  0  0  0  0  0  0  0  0  0  0  0
   -1.9740   -1.1280    1.3340 O   0  0  0  0  0  0  0  0  0  0  0  0
   -2.8940    0.2260   -0.3640 C   0  0  2  0  0  0  0  0  0  0  0  0
   -4.1080    0.3530    0.3110 O   0  0  0  0  0  0  0  0  0  0  0  0
   -2.9040   -0.8890   -1.3270 C   0  0  0  0  0  0  0  0  0  0  0  0
   -3.9070   -1.5960   -1.4810 O   0  0  0  0  0  0  0  0  0  0  0  0
   -1.6910   -1.0680   -2.0410 N   0  0  0  0  0  0  0  0  0  0  0  0
  1  2  1  0
  2  3  2  3
  3  4  1  0
  3  9  1  0
  4  5  1  0
  4  6  2  0
  6  7  1  0
  7  8  2  0
  7 19  1  0
  8  9  1  0
  8 12  1  0
  9 10  1  0
 10 11  2  0
 12 13  1  1
 12 14  1  0
 12 15  1  0
 15 16  1  1
 15 17  1  0
 17 18  2  0
 17 19  1  0
M  END
