
     RDKit          3D

 19 20  0  0  0  0  0  0  0  0999 V2000
   -4.2930    1.6790   -0.6350 C   0  0  0  0  0  0  0  0  0  0  0  0
   -3.7780    0.3450   -1.1260 C   0  0  2  0  0  0  0  0  0  0  0  0
   -3.1340   -0.4140   -0.1020 N   0  0  0  0  0  0  0  0  0  0  0  0
   -1.7300   -0.4710   -0.4030 C   0  0  1  0  0  0  0  0  0  0  0  0
   -1.1640   -1.7750    0.0980 C   0  0  0  0  0  0  0  0  0  0  0  0
    0.2330   -1.9250   -0.1560 N   0  0  0  0  0  0  0  0  0  0  0  0
    1.2440   -1.0640    0.3250 C   0  0  0  0  0  0  0  0  0  0  0  0
    0.9010   -0.0840    1.0350 O   0  0  0  0  0  0  0  0  0  0  0  0
    2.6810   -1.2450    0.0460 C   0  0  0  0  0  0  0  0  0  0  0  0
    3.5480   -0.2070    0.6640 C   0  0  2  0  0  0  0  0  0  0  0  0
    3.4710   -0.1380    2.0900 N   0  0  0  0  0  0  0  0  0  0  0  0
    3.8620    1.2060    2.4300 C   0  0  0  0  0  0  0  0  0  0  0  0
    4.2620    1.6450    3.5380 O   0  0  0  0  0  0  0  0  0  0  0  0
    3.7290    2.0310    1.2690 N   0  0  0  0  0  0  0  0  0  0  0  0
    3.2550    1.1620    0.2380 C   0  0  0  0  0  0  0  0  0  0  0  0
    2.7010    1.5490   -0.8120 O   0  0  0  0  0  0  0  0  0  0  0  0
   -1.6990   -0.3810   -1.8480 N   0  0  0  0  0  0  0  0  0  0  0  0
   -2.7620    0.4940   -2.1990 C   0  0  0  0  0  0  0  0  0  0  0  0
   -2.8070    1.2330   -3.2190 O   0  0  0  0  0  0  0  0  0  0  0  0
  2  1  1  1
  2  3  1  0
  2 18  1  0
  3  4  1  0
  4  5  1  6
  4 17  1  0
  5  6  1  0
  6  7  1  0
  7  8  2  0
  7  9  1  0
 10  9  1  6
 10 11  1  0
 10 15  1  0
 11 12  1  0
 12 13  2  0
 12 14  1  0
 14 15  1  0
 15 16  2  0
 17 18  1  0
 18 19  2  0
M  END
