
     RDKit          3D

 27 30  0  0  0  0  0  0  0  0999 V2000
   -6.9970   -1.3980    0.2100 C   0  0  0  0  0  0  0  0  0  0  0  0
   -5.5430   -1.4900   -0.1080 C   0  0  0  0  0  0  0  0  0  0  0  0
   -4.6390   -0.5130    0.2490 C   0  0  0  0  0  0  0  0  0  0  0  0
   -3.2840   -0.6560   -0.0780 C   0  0  0  0  0  0  0  0  0  0  0  0
   -2.2030    0.1040    0.1310 N   0  0  0  0  0  0  0  0  0  0  0  0
   -1.1290   -0.5040   -0.3940 C   0  0  0  0  0  0  0  0  0  0  0  0
    0.2990   -0.0570   -0.4060 C   0  0  2  0  0  0  0  0  0  0  0  0
    1.1130   -0.6890    0.6860 C   0  0  0  0  0  0  0  0  0  0  0  0
    2.5030   -0.2220    0.6460 N   0  0  0  0  0  0  0  0  0  0  0  0
    2.9940    0.8530    1.2940 C   0  0  0  0  0  0  0  0  0  0  0  0
    4.3280    1.0020    1.0380 C   0  0  0  0  0  0  0  0  0  0  0  0
    4.6830   -0.0240    0.1940 C   0  0  0  0  0  0  0  0  0  0  0  0
    6.0490   -0.2810   -0.3650 C   0  0  0  0  0  0  0  0  0  0  0  0
    6.0320   -1.4420   -1.2050 N   0  0  0  0  0  0  0  0  0  0  0  0
    3.5420   -0.7510   -0.0230 C   0  0  0  0  0  0  0  0  0  0  0  0
    0.4930    1.3300   -0.6220 N   0  0  0  0  0  0  0  0  0  0  0  0
    0.0860    2.4190    0.1380 C   0  0  0  0  0  0  0  0  0  0  0  0
   -0.4440    2.3230    1.3950 C   0  0  0  0  0  0  0  0  0  0  0  0
   -0.8370    3.4450    2.0810 N   0  0  0  0  0  0  0  0  0  0  0  0
   -0.7230    4.6740    1.5590 C   0  0  0  0  0  0  0  0  0  0  0  0
   -0.2060    4.7850    0.3280 N   0  0  0  0  0  0  0  0  0  0  0  0
    0.1930    3.7200   -0.3810 C   0  0  0  0  0  0  0  0  0  0  0  0
   -1.5590   -1.6760   -0.9450 N   0  0  0  0  0  0  0  0  0  0  0  0
   -2.8770   -1.7830   -0.7580 C   0  0  0  0  0  0  0  0  0  0  0  0
   -3.7760   -2.7860   -1.1320 C   0  0  0  0  0  0  0  0  0  0  0  0
   -5.1050   -2.6080   -0.7900 C   0  0  0  0  0  0  0  0  0  0  0  0
   -6.2490   -3.8540   -1.2480 Cl  0  0  0  0  0  0  0  0  0  0  0  0
  1  2  1  0
  2  3  2  0
  2 26  1  0
  3  4  1  0
  4  5  1  0
  4 24  2  0
  5  6  2  0
  6  7  1  0
  6 23  1  0
  7  8  1  1
  7 16  1  0
  8  9  1  0
  9 10  1  0
  9 15  1  0
 10 11  2  0
 11 12  1  0
 12 13  1  0
 12 15  2  0
 13 14  1  0
 16 17  1  0
 17 18  2  0
 17 22  1  0
 18 19  1  0
 19 20  2  0
 20 21  1  0
 21 22  2  0
 23 24  1  0
 24 25  1  0
 25 26  2  0
 26 27  1  0
M  CHG  1  14   1
M  END
