
     RDKit          3D

 27 30  0  0  0  0  0  0  0  0999 V2000
   -2.4460   -0.2230    3.2680 C   0  0  0  0  0  0  0  0  0  0  0  0
   -3.5690   -0.5020    2.3110 C   0  0  1  0  0  0  0  0  0  0  0  0
   -4.6840    0.5200    2.4230 C   0  0  0  0  0  0  0  0  0  0  0  0
   -4.3640    1.8880    1.9880 C   0  0  0  0  0  0  0  0  0  0  0  0
   -3.1020    2.0220    1.3100 N   0  0  0  0  0  0  0  0  0  0  0  0
   -2.4950    0.9020    0.6440 C   0  0  0  0  0  0  0  0  0  0  0  0
   -1.5090    1.0240   -0.1200 N   0  0  0  0  0  0  0  0  0  0  0  0
   -3.1110   -0.4270    0.8770 C   0  0  1  0  0  0  0  0  0  0  0  0
   -2.2100   -1.5550    0.5810 C   0  0  0  0  0  0  0  0  0  0  0  0
   -2.1360   -2.6850    1.3390 N   0  0  0  0  0  0  0  0  0  0  0  0
   -1.3250   -3.4040    0.7250 C   0  0  0  0  0  0  0  0  0  0  0  0
   -0.6750   -3.1740   -0.3820 C   0  0  0  0  0  0  0  0  0  0  0  0
    0.0130   -2.9670   -1.5350 N   0  0  0  0  0  0  0  0  0  0  0  0
    0.3420   -2.0070   -2.5130 C   0  0  0  0  0  0  0  0  0  0  0  0
    1.4660   -1.1730   -1.9320 C   0  0  0  0  0  0  0  0  0  0  0  0
    2.0020   -1.3240   -0.6470 C   0  0  0  0  0  0  0  0  0  0  0  0
    3.0400   -0.4410   -0.4970 C   0  0  0  0  0  0  0  0  0  0  0  0
    3.1250    0.2250   -1.6760 N   0  0  0  0  0  0  0  0  0  0  0  0
    4.1060    1.2270   -1.9500 C   0  0  0  0  0  0  0  0  0  0  0  0
    4.4230    1.6620   -3.1900 C   0  0  0  0  0  0  0  0  0  0  0  0
    5.4060    2.6210   -3.4790 C   0  0  0  0  0  0  0  0  0  0  0  0
    6.0710    3.1170   -2.3350 C   0  0  0  0  0  0  0  0  0  0  0  0
    5.7660    2.6920   -1.0920 C   0  0  0  0  0  0  0  0  0  0  0  0
    6.6470    3.3850    0.2730 Cl  0  0  0  0  0  0  0  0  0  0  0  0
    4.7900    1.7470   -0.8150 C   0  0  0  0  0  0  0  0  0  0  0  0
    2.1940   -0.2200   -2.4940 N   0  0  0  0  0  0  0  0  0  0  0  0
   -1.4190   -1.7160   -0.4180 N   0  0  0  0  0  0  0  0  0  0  0  0
  2  1  1  1
  2  3  1  0
  2  8  1  0
  3  4  1  0
  4  5  1  0
  5  6  1  0
  6  7  2  0
  6  8  1  0
  8  9  1  1
  9 10  1  0
  9 27  2  0
 10 11  1  0
 11 12  2  0
 12 13  1  0
 12 27  1  0
 13 14  1  0
 14 15  1  0
 15 16  1  0
 15 26  2  0
 16 17  2  0
 17 18  1  0
 18 19  1  0
 18 26  1  0
 19 20  2  0
 19 25  1  0
 20 21  1  0
 21 22  2  0
 22 23  1  0
 23 24  1  0
 23 25  2  0
M  CHG  1  27   1
M  END
