
     RDKit          3D

 22 24  0  0  0  0  0  0  0  0999 V2000
    4.2470    1.2980    0.8480 O   0  0  0  0  0  0  0  0  0  0  0  0
    3.8200    0.2840    0.2410 C   0  0  0  0  0  0  0  0  0  0  0  0
    4.5910   -0.3800   -0.7810 N   0  0  0  0  0  0  0  0  0  0  0  0
    6.2200    0.2490   -1.2100 P   0  0  0  0  0  0  0  0  0  0  0  0
    6.8600    1.1850    0.1080 O   0  0  0  0  0  0  0  0  0  0  0  0
    7.3140   -1.0590   -1.5500 O   0  0  0  0  0  0  0  0  0  0  0  0
    2.4970   -0.3030    0.5250 C   0  0  2  0  0  0  0  0  0  0  0  0
    1.7260   -0.3810   -0.7720 C   0  0  0  0  0  0  0  0  0  0  0  0
    0.4470    0.1100   -0.6680 O   0  0  0  0  0  0  0  0  0  0  0  0
   -0.1900   -0.5240    0.4040 C   0  0  2  0  0  0  0  0  0  0  0  0
   -1.6480   -0.4720    0.3080 C   0  0  0  0  0  0  0  0  0  0  0  0
   -2.4740    0.5470    0.0220 N   0  0  0  0  0  0  0  0  0  0  0  0
   -3.7390    0.0950    0.0540 C   0  0  0  0  0  0  0  0  0  0  0  0
   -4.9980    0.8490   -0.1940 C   0  0  2  0  0  0  0  0  0  0  0  0
   -6.1470    0.3160    0.6250 C   0  0  0  0  0  0  0  0  0  0  0  0
   -6.2240   -0.7550   -0.2990 O   0  0  0  0  0  0  0  0  0  0  0  0
   -5.8200    0.1590   -1.2750 C   0  0  0  0  0  0  0  0  0  0  0  0
   -3.6620   -1.2070    0.3630 N   0  0  0  0  0  0  0  0  0  0  0  0
   -2.4330   -1.5050    0.5050 O   0  0  0  0  0  0  0  0  0  0  0  0
    0.3630    0.1560    1.6220 C   0  0  0  0  0  0  0  0  0  0  0  0
   -0.3270    0.4870    2.6120 O   0  0  0  0  0  0  0  0  0  0  0  0
    1.7650    0.3970    1.5530 N   0  0  0  0  0  0  0  0  0  0  0  0
  1  2  2  0
  2  3  1  0
  7  2  1  6
  3  4  1  0
  4  5  1  0
  4  6  1  0
  7  8  1  0
  7 22  1  0
  8  9  1  0
  9 10  1  0
 10 11  1  6
 10 20  1  0
 11 12  2  0
 11 19  1  0
 12 13  1  0
 14 13  1  1
 13 18  2  0
 14 15  1  0
 14 17  1  0
 15 16  1  0
 16 17  1  0
 18 19  1  0
 20 21  2  0
 20 22  1  0
M  END
