
     RDKit          3D

 22 23  0  0  0  0  0  0  0  0999 V2000
    6.3980    2.4580   -0.5590 N   0  0  0  0  0  0  0  0  0  0  0  0
    6.8990    1.2020   -0.6280 O   0  0  0  0  0  0  0  0  0  0  0  0
    5.5970    0.1130   -0.8540 P   0  0  0  0  0  0  0  0  0  0  0  0
    6.0470   -1.5420   -0.6410 O   0  0  0  0  0  0  0  0  0  0  0  0
    7.2330   -1.7270   -1.2670 N   0  0  0  0  0  0  0  0  0  0  0  0
    4.1880    0.5360    0.0960 O   0  0  0  0  0  0  0  0  0  0  0  0
    2.9350    0.0230   -0.2570 C   0  0  0  0  0  0  0  0  0  0  0  0
    2.7820   -0.7420   -1.2470 O   0  0  0  0  0  0  0  0  0  0  0  0
    1.7680    0.3430    0.4890 N   0  0  0  0  0  0  0  0  0  0  0  0
    0.4970   -0.1840    0.1220 C   0  0  1  0  0  0  0  0  0  0  0  0
   -0.1640   -0.9970    1.1930 C   0  0  0  0  0  0  0  0  0  0  0  0
   -1.5670   -0.3750    1.3400 C   0  0  0  0  0  0  0  0  0  0  0  0
   -1.7590    0.1910    0.0430 N   0  0  0  0  0  0  0  0  0  0  0  0
   -2.8520    0.1570   -0.8380 C   0  0  0  0  0  0  0  0  0  0  0  0
   -2.7620    0.7590   -1.9840 O   0  0  0  0  0  0  0  0  0  0  0  0
   -4.1560   -0.5100   -0.6120 C   0  0  2  0  0  0  0  0  0  0  0  0
   -5.2360    0.5610   -0.5480 C   0  0  0  0  0  0  0  0  0  0  0  0
   -5.9780    0.3580    0.7420 C   0  0  0  0  0  0  0  0  0  0  0  0
   -5.5590   -1.0090    1.1420 C   0  0  0  0  0  0  0  0  0  0  0  0
   -6.2150   -1.8720    1.8070 O   0  0  0  0  0  0  0  0  0  0  0  0
   -4.2670   -1.1490    0.6260 O   0  0  0  0  0  0  0  0  0  0  0  0
   -0.5110    0.8840   -0.2430 C   0  0  0  0  0  0  0  0  0  0  0  0
  1  2  1  0
  2  3  1  0
  3  4  1  0
  3  6  1  0
  4  5  1  0
  6  7  1  0
  7  8  2  0
  7  9  1  0
 10  9  1  1
 10 11  1  0
 10 22  1  0
 11 12  1  0
 12 13  1  0
 13 14  1  0
 13 22  1  0
 14 15  2  0
 16 14  1  1
 16 17  1  0
 16 21  1  0
 17 18  1  0
 18 19  1  0
 19 20  2  0
 19 21  1  0
M  END
