
     RDKit          3D

 10  9  0  0  0  0  0  0  0  0999 V2000
   -0.8460   -1.6110   -0.4140 C   0  0  0  0  0  0  0  0  0  0  0  0
   -0.8280   -0.4110    0.1050 C   0  0  0  0  0  0  0  0  0  0  0  0
    0.0610   -0.1040    1.0950 O   0  0  0  0  0  0  0  0  0  0  0  0
    1.7250    0.1450    0.8970 P   0  0  1  0  0  0  0  0  0  0  0  0
    2.3750   -0.0430    2.2680 O   0  0  0  0  0  0  0  0  0  0  0  0
    2.4470   -0.9290   -0.1560 O   0  0  0  0  0  0  0  0  0  0  0  0
    2.0550    1.7440    0.4210 O   0  0  0  0  0  0  0  0  0  0  0  0
   -1.7560    0.5840   -0.3770 C   0  0  0  0  0  0  0  0  0  0  0  0
   -1.7350    1.7360    0.1260 O   0  0  0  0  0  0  0  0  0  0  0  0
   -2.6870    0.3450   -1.3790 O   0  0  0  0  0  0  0  0  0  0  0  0
  1  2  2  0
  2  3  1  0
  2  8  1  0
  3  4  1  0
  4  5  2  0
  4  6  1  6
  4  7  1  0
  8  9  2  0
  8 10  1  0
M  END
