
     RDKit          3D

 23 25  0  0  0  0  0  0  0  0999 V2000
   -6.5990    2.3180    1.0970 O   0  0  0  0  0  0  0  0  0  0  0  0
   -5.9360    1.4120    0.4950 C   0  0  0  0  0  0  0  0  0  0  0  0
   -5.1500    1.5460   -0.6920 N   0  0  0  0  0  0  0  0  0  0  0  0
   -4.1920    0.4700   -0.6670 C   0  0  1  0  0  0  0  0  0  0  0  0
   -2.7980    0.9850   -0.5770 C   0  0  0  0  0  0  0  0  0  0  0  0
   -2.6570    2.2310   -0.4960 O   0  0  0  0  0  0  0  0  0  0  0  0
   -1.6760    0.1510   -0.5790 N   0  0  0  0  0  0  0  0  0  0  0  0
   -1.6590   -1.2690   -0.6810 C   0  0  0  0  0  0  0  0  0  0  0  0
   -0.4020   -1.6460   -0.6380 C   0  0  0  0  0  0  0  0  0  0  0  0
    0.4600   -0.5060   -0.5080 N   0  0  0  0  0  0  0  0  0  0  0  0
    1.8200   -0.0470   -0.4000 C   0  0  2  0  0  0  0  0  0  0  0  0
    2.3700   -0.6110    0.8930 C   0  0  0  0  0  0  0  0  0  0  0  0
    3.6700   -0.2640    1.1550 O   0  0  0  0  0  0  0  0  0  0  0  0
    4.5730   -0.6700    0.2040 C   0  0  0  0  0  0  0  0  0  0  0  0
    6.2870   -0.1640    0.6470 P   0  0  0  0  0  0  0  0  0  0  0  0
    7.0570    0.6510   -0.6530 O   0  0  0  0  0  0  0  0  0  0  0  0
    6.3810    0.6940    2.1270 O   0  0  0  0  0  0  0  0  0  0  0  0
    1.7860    1.3320   -0.3000 O   0  0  0  0  0  0  0  0  0  0  0  0
    0.4860    1.7710   -0.3410 C   0  0  0  0  0  0  0  0  0  0  0  0
    0.0170    2.9420   -0.2830 O   0  0  0  0  0  0  0  0  0  0  0  0
   -0.3410    0.6270   -0.4710 N   0  0  0  0  0  0  0  0  0  0  0  0
   -4.5760   -0.3730    0.4930 C   0  0  0  0  0  0  0  0  0  0  0  0
   -5.8480    0.0800    0.8870 O   0  0  0  0  0  0  0  0  0  0  0  0
  1  2  2  0
  2  3  1  0
  2 23  1  0
  3  4  1  0
  4  5  1  1
  4 22  1  0
  5  6  2  0
  5  7  1  0
  7  8  1  0
  7 21  1  0
  8  9  2  0
  9 10  1  0
 10 11  1  0
 10 21  1  0
 11 12  1  1
 11 18  1  0
 12 13  1  0
 13 14  1  0
 14 15  1  0
 15 16  1  0
 15 17  1  0
 18 19  1  0
 19 20  2  0
 19 21  1  0
 22 23  1  0
M  END
