
     RDKit          3D

 23 22  0  0  0  0  0  0  0  0999 V2000
    4.6320   -0.3510   -1.6100 N   0  0  0  0  0  0  0  0  0  0  0  0
    4.2650    0.8690   -0.9200 C   0  0  1  0  0  0  0  0  0  0  0  0
    3.0260    0.5970   -0.1090 C   0  0  0  0  0  0  0  0  0  0  0  0
    1.8870    0.1600   -1.0060 C   0  0  0  0  0  0  0  0  0  0  0  0
    0.6850   -0.0960   -0.1500 C   0  0  0  0  0  0  0  0  0  0  0  0
    0.6860    0.0440    1.0860 O   0  0  0  0  0  0  0  0  0  0  0  0
   -0.5030   -0.5180   -0.7900 N   0  0  0  0  0  0  0  0  0  0  0  0
   -1.7140   -0.8190   -0.1210 C   0  0  1  0  0  0  0  0  0  0  0  0
   -1.6160   -1.4020    1.2650 C   0  0  0  0  0  0  0  0  0  0  0  0
   -0.7990   -2.9770    1.3110 S   0  0  2  0  0  0  0  0  0  0  0  0
    0.5640   -2.8770    0.7380 O   0  0  0  0  0  0  0  0  0  0  0  0
   -1.5410   -3.9820    0.4450 O   0  0  0  0  0  0  0  0  0  0  0  0
   -0.7010   -3.5590    2.8870 O   0  0  0  0  0  0  0  0  0  0  0  0
   -2.7970    0.1570   -0.3140 C   0  0  0  0  0  0  0  0  0  0  0  0
   -2.6200    1.2140   -1.0290 O   0  0  0  0  0  0  0  0  0  0  0  0
   -4.0940    0.0490    0.2380 N   0  0  0  0  0  0  0  0  0  0  0  0
   -5.1100    1.0770   -0.0110 C   0  0  0  0  0  0  0  0  0  0  0  0
   -4.6780    2.3950    0.4770 C   0  0  0  0  0  0  0  0  0  0  0  0
   -3.5770    2.6260    1.0390 O   0  0  0  0  0  0  0  0  0  0  0  0
   -5.5370    3.4710    0.3130 O   0  0  0  0  0  0  0  0  0  0  0  0
    5.3550    1.3010   -0.0160 C   0  0  0  0  0  0  0  0  0  0  0  0
    5.2090    2.3470    0.6670 O   0  0  0  0  0  0  0  0  0  0  0  0
    6.5380    0.6000    0.1110 O   0  0  0  0  0  0  0  0  0  0  0  0
  2  1  1  1
  2  3  1  0
  2 21  1  0
  3  4  1  0
  4  5  1  0
  5  6  2  0
  5  7  1  0
  7  8  1  0
  8  9  1  1
  8 14  1  0
  9 10  1  0
 10 11  2  0
 10 12  2  0
 10 13  1  1
 14 15  2  0
 14 16  1  0
 16 17  1  0
 17 18  1  0
 18 19  2  0
 18 20  1  0
 21 22  2  0
 21 23  1  0
M  END
