
     RDKit          3D

 23 22  0  0  0  0  0  0  0  0999 V2000
    6.3500   -1.3800    1.7150 C   0  0  0  0  0  0  0  0  0  0  0  0
    6.0100   -0.7000    0.5380 O   0  0  0  0  0  0  0  0  0  0  0  0
    4.9020    0.1590    0.5090 C   0  0  0  0  0  0  0  0  0  0  0  0
    4.2600    0.2720    1.5730 O   0  0  0  0  0  0  0  0  0  0  0  0
    4.5730    0.8610   -0.7520 C   0  0  0  0  0  0  0  0  0  0  0  0
    3.3920    1.6780   -0.5060 N   0  0  0  0  0  0  0  0  0  0  0  0
    2.1670    1.0490   -0.0890 C   0  0  0  0  0  0  0  0  0  0  0  0
    2.1600   -0.1880    0.0490 O   0  0  0  0  0  0  0  0  0  0  0  0
    1.0430    1.7800    0.1510 O   0  0  0  0  0  0  0  0  0  0  0  0
   -0.2120    1.3350    0.5210 C   0  0  0  0  0  0  0  0  0  0  0  0
   -1.0190    0.6840   -0.5570 C   0  0  2  0  0  0  0  0  0  0  0  0
   -2.1990    0.2080    0.1330 O   0  0  0  0  0  0  0  0  0  0  0  0
   -3.4200    0.7690   -0.1480 C   0  0  0  0  0  0  0  0  0  0  0  0
   -3.4930    1.6860   -0.9980 O   0  0  0  0  0  0  0  0  0  0  0  0
   -4.6560    0.3070    0.5410 C   0  0  2  0  0  0  0  0  0  0  0  0
   -4.3070   -0.7230    1.4430 O   0  0  0  0  0  0  0  0  0  0  0  0
   -4.6110   -0.4100    2.6760 O   0  0  0  0  0  0  0  0  0  0  0  0
   -5.6170   -0.2700   -0.4090 C   0  0  0  0  0  0  0  0  0  0  0  0
   -5.2750   -1.3950   -1.1960 N   0  0  0  0  0  0  0  0  0  0  0  0
   -7.0960    0.3800   -0.5710 S   0  0  0  0  0  0  0  0  0  0  0  0
   -0.4280   -0.3630   -1.3520 C   0  0  0  0  0  0  0  0  0  0  0  0
   -0.7640   -1.7490   -1.2360 N   0  0  0  0  0  0  0  0  0  0  0  0
    0.4600   -0.1060   -2.2350 O   0  0  0  0  0  0  0  0  0  0  0  0
  1  2  1  0
  2  3  1  0
  3  4  2  0
  3  5  1  0
  5  6  1  0
  6  7  1  0
  7  8  2  0
  7  9  1  0
  9 10  1  0
 11 10  1  1
 11 12  1  0
 11 21  1  0
 12 13  1  0
 13 14  2  0
 13 15  1  0
 15 16  1  1
 15 18  1  0
 16 17  1  0
 18 19  1  0
 18 20  2  0
 21 22  1  0
 21 23  2  0
M  END
