
     RDKit          3D

 28 30  0  0  0  0  0  0  0  0999 V2000
   -2.6590   -2.4160   -0.7530 C   0  0  0  0  0  0  0  0  0  0  0  0
   -2.2260   -1.5680   -1.8680 C   0  0  0  0  0  0  0  0  0  0  0  0
   -1.8390   -0.1560   -1.6570 C   0  0  2  0  0  0  0  0  0  0  0  0
   -1.4110    0.3970   -3.0460 C   0  0  0  0  0  0  0  0  0  0  0  0
   -0.6560   -0.0330   -0.8050 N   0  0  0  0  0  0  0  0  0  0  0  0
    0.6110   -0.5700   -1.1330 C   0  0  0  0  0  0  0  0  0  0  0  0
    0.7510   -1.2000   -2.2340 O   0  0  0  0  0  0  0  0  0  0  0  0
    1.7810   -0.4470   -0.2830 C   0  0  0  0  0  0  0  0  0  0  0  0
    1.6930    0.0560    0.9890 C   0  0  0  0  0  0  0  0  0  0  0  0
    2.8250    0.1770    1.8060 C   0  0  0  0  0  0  0  0  0  0  0  0
    2.7360    0.7210    3.1840 C   0  0  0  0  0  0  0  0  0  0  0  0
    4.0430   -0.2300    1.2900 C   0  0  0  0  0  0  0  0  0  0  0  0
    4.1650   -0.7450    0.0020 C   0  0  0  0  0  0  0  0  0  0  0  0
    3.0100   -0.8360   -0.7470 C   0  0  0  0  0  0  0  0  0  0  0  0
    5.3490   -1.2370   -0.7540 C   0  0  0  0  0  0  0  0  0  0  0  0
    6.5950   -0.4610   -0.3840 C   0  0  0  0  0  0  0  0  0  0  0  0
    7.1750   -1.0000    0.9110 C   0  0  0  0  0  0  0  0  0  0  0  0
    6.5240   -0.2910    2.0390 C   0  0  0  0  0  0  0  0  0  0  0  0
    7.2470    0.1650    2.9520 O   0  0  0  0  0  0  0  0  0  0  0  0
    5.1320   -0.0630    2.2080 N   0  0  0  0  0  0  0  0  0  0  0  0
   -2.9140    0.7900   -1.1970 C   0  0  1  0  0  0  0  0  0  0  0  0
   -3.9740    0.7460   -2.1400 N   0  0  0  0  0  0  0  0  0  0  0  0
   -5.1900    0.1050   -1.8150 C   0  0  0  0  0  0  0  0  0  0  0  0
   -3.0550    1.0260    0.1950 C   0  0  2  0  0  0  0  0  0  0  0  0
   -3.3310    0.0680    1.2540 C   0  0  0  0  0  0  0  0  0  0  0  0
   -3.2620    1.0330    2.4800 C   0  0  0  0  0  0  0  0  0  0  0  0
   -4.1580    2.1430    1.9970 C   0  0  0  0  0  0  0  0  0  0  0  0
   -4.2020    2.0580    0.4960 C   0  0  0  0  0  0  0  0  0  0  0  0
  1  2  1  0
  2  3  1  0
  3  4  1  6
  3  5  1  0
  3 21  1  0
  5  6  1  0
  6  7  2  0
  6  8  1  0
  8  9  2  0
  8 14  1  0
  9 10  1  0
 10 11  1  0
 10 12  2  0
 12 13  1  0
 12 20  1  0
 13 14  2  0
 13 15  1  0
 15 16  1  0
 16 17  1  0
 17 18  1  0
 18 19  2  0
 18 20  1  0
 21 22  1  1
 21 24  1  0
 22 23  1  0
 24 25  1  1
 24 28  1  0
 25 26  1  0
 26 27  1  0
 27 28  1  0
M  CHG  1  22   1
M  END
