
     RDKit          3D

 28 30  0  0  0  0  0  0  0  0999 V2000
   -2.8850   -3.5070   -1.2920 C   0  0  0  0  0  0  0  0  0  0  0  0
   -2.0970   -2.3100   -1.0190 N   0  0  0  0  0  0  0  0  0  0  0  0
   -2.8860   -1.3240   -0.3040 C   0  0  1  0  0  0  0  0  0  0  0  0
   -3.3330   -1.8080    1.0360 C   0  0  0  0  0  0  0  0  0  0  0  0
   -4.4650   -0.9350    1.5350 C   0  0  0  0  0  0  0  0  0  0  0  0
   -4.5080    0.3830    0.8060 C   0  0  0  0  0  0  0  0  0  0  0  0
   -3.1330    0.9430    0.5490 C   0  0  0  0  0  0  0  0  0  0  0  0
   -2.2200    0.0050   -0.1750 C   0  0  1  0  0  0  0  0  0  0  0  0
   -0.8930   -0.0950    0.5110 N   0  0  0  0  0  0  0  0  0  0  0  0
    0.1150    0.0430   -0.4420 C   0  0  2  0  0  0  0  0  0  0  0  0
    1.4360   -0.4910   -0.4170 C   0  0  0  0  0  0  0  0  0  0  0  0
    1.8870   -0.4920   -1.7170 O   0  0  0  0  0  0  0  0  0  0  0  0
    2.4390   -1.0140    0.4300 C   0  0  0  0  0  0  0  0  0  0  0  0
    3.5760   -1.4930   -0.1210 C   0  0  0  0  0  0  0  0  0  0  0  0
    4.6500   -2.0430    0.6260 N   0  0  0  0  0  0  0  0  0  0  0  0
    5.8200   -2.5810   -0.0560 C   0  0  0  0  0  0  0  0  0  0  0  0
    4.6130   -2.0830    2.0410 C   0  0  0  0  0  0  0  0  0  0  0  0
    3.3940   -1.5590    2.6330 C   0  0  0  0  0  0  0  0  0  0  0  0
    2.4020   -1.0700    1.8690 C   0  0  0  0  0  0  0  0  0  0  0  0
    1.2690   -0.5090    2.6400 C   0  0  0  0  0  0  0  0  0  0  0  0
    0.2310    1.4810   -0.8390 C   0  0  0  0  0  0  0  0  0  0  0  0
    0.4050    1.7820   -2.1590 C   0  0  0  0  0  0  0  0  0  0  0  0
    0.5150    3.1120   -2.5930 C   0  0  0  0  0  0  0  0  0  0  0  0
    0.4370    4.0770   -1.6060 C   0  0  0  0  0  0  0  0  0  0  0  0
    0.5360    5.4290   -1.9330 O   0  0  0  0  0  0  0  0  0  0  0  0
    0.7140    5.8050   -3.2620 C   0  0  0  0  0  0  0  0  0  0  0  0
    0.2640    3.7990   -0.2740 C   0  0  0  0  0  0  0  0  0  0  0  0
    0.1610    2.4500    0.0910 C   0  0  0  0  0  0  0  0  0  0  0  0
  1  2  1  0
  3  2  1  1
  3  4  1  0
  3  8  1  0
  4  5  1  0
  5  6  1  0
  6  7  1  0
  7  8  1  0
  8  9  1  1
 10  9  1  1
 10 11  1  0
 10 21  1  0
 11 12  2  0
 11 13  1  0
 13 14  2  0
 13 19  1  0
 14 15  1  0
 15 16  1  0
 15 17  1  0
 17 18  1  0
 18 19  2  0
 19 20  1  0
 21 22  2  0
 21 28  1  0
 22 23  1  0
 23 24  2  0
 24 25  1  0
 24 27  1  0
 25 26  1  0
 27 28  2  0
M  CHG  1   9   1
M  END
