
     RDKit          3D

 28 30  0  0  0  0  0  0  0  0999 V2000
   -0.7140    1.2250    3.1640 C   0  0  0  0  0  0  0  0  0  0  0  0
    0.3450    0.7430    2.3260 O   0  0  0  0  0  0  0  0  0  0  0  0
    0.0010    0.2050    1.0770 C   0  0  0  0  0  0  0  0  0  0  0  0
   -1.3150    0.1420    0.6660 C   0  0  0  0  0  0  0  0  0  0  0  0
   -1.7070   -0.3810   -0.5610 C   0  0  0  0  0  0  0  0  0  0  0  0
   -3.0840   -0.4500   -0.9820 C   0  0  0  0  0  0  0  0  0  0  0  0
   -3.2730   -0.9850   -2.1420 O   0  0  0  0  0  0  0  0  0  0  0  0
   -4.2950   -0.0140   -0.3090 C   0  0  2  0  0  0  0  0  0  0  0  0
   -4.4140    1.4550    0.0010 C   0  0  0  0  0  0  0  0  0  0  0  0
   -5.8850    1.6780    0.2750 C   0  0  0  0  0  0  0  0  0  0  0  0
   -6.6210    0.7090    0.7880 C   0  0  0  0  0  0  0  0  0  0  0  0
   -6.1250   -0.6530    1.1430 C   0  0  1  0  0  0  0  0  0  0  0  0
   -6.7170   -1.7360    0.2770 C   0  0  0  0  0  0  0  0  0  0  0  0
   -4.5960   -0.7480    0.9880 C   0  0  0  0  0  0  0  0  0  0  0  0
   -0.7150   -0.8690   -1.4260 C   0  0  0  0  0  0  0  0  0  0  0  0
   -1.0830   -1.4060   -2.6800 N   0  0  0  0  0  0  0  0  0  0  0  0
    0.5910   -0.7980   -1.0000 C   0  0  0  0  0  0  0  0  0  0  0  0
    0.9620   -0.2770    0.2180 C   0  0  0  0  0  0  0  0  0  0  0  0
    2.3690   -0.2010    0.6750 C   0  0  0  0  0  0  0  0  0  0  0  0
    3.3370   -0.7070   -0.2340 N   0  0  0  0  0  0  0  0  0  0  0  0
    3.6960    0.1560   -1.3040 C   0  0  0  0  0  0  0  0  0  0  0  0
    4.8440    1.0950   -1.0210 C   0  0  0  0  0  0  0  0  0  0  0  0
    6.0970    0.4040   -0.6820 C   0  0  0  0  0  0  0  0  0  0  0  0
    6.9970    0.0230   -1.6490 C   0  0  0  0  0  0  0  0  0  0  0  0
    8.1860   -0.6280   -1.3150 C   0  0  0  0  0  0  0  0  0  0  0  0
    8.4470   -0.8850    0.0070 C   0  0  0  0  0  0  0  0  0  0  0  0
    7.5710   -0.5140    0.9550 N   0  0  0  0  0  0  0  0  0  0  0  0
    6.4060    0.1240    0.6260 C   0  0  0  0  0  0  0  0  0  0  0  0
  1  2  1  0
  2  3  1  0
  3  4  2  0
  3 18  1  0
  4  5  1  0
  5  6  1  0
  5 15  2  0
  6  7  2  0
  8  6  1  1
  8  9  1  0
  8 14  1  0
  9 10  1  0
 10 11  2  0
 11 12  1  0
 12 13  1  6
 12 14  1  0
 15 16  1  0
 15 17  1  0
 17 18  2  0
 18 19  1  0
 19 20  1  0
 20 21  1  0
 21 22  1  0
 22 23  1  0
 23 24  2  0
 23 28  1  0
 24 25  1  0
 25 26  2  0
 26 27  1  0
 27 28  2  0
M  CHG  1  20   1
M  END
