
     RDKit          3D

 28 30  0  0  0  0  0  0  0  0999 V2000
   -6.3690    0.6440   -1.5530 C   0  0  0  0  0  0  0  0  0  0  0  0
   -5.4720   -0.3650   -2.0910 N   0  0  0  0  0  0  0  0  0  0  0  0
   -4.0770    0.1020   -2.1220 C   0  0  1  0  0  0  0  0  0  0  0  0
   -4.0540    1.6000   -1.9880 C   0  0  0  0  0  0  0  0  0  0  0  0
   -3.2720   -0.6310   -1.0720 C   0  0  1  0  0  0  0  0  0  0  0  0
   -1.8450   -0.1630   -1.1720 C   0  0  0  0  0  0  0  0  0  0  0  0
   -1.5170    0.5350   -2.1470 O   0  0  0  0  0  0  0  0  0  0  0  0
   -0.8990   -0.4980   -0.1970 N   0  0  0  0  0  0  0  0  0  0  0  0
    0.4430   -0.1280   -0.1780 C   0  0  0  0  0  0  0  0  0  0  0  0
    1.0600    0.6320   -1.1210 C   0  0  0  0  0  0  0  0  0  0  0  0
    2.4110    0.9860   -1.0740 C   0  0  0  0  0  0  0  0  0  0  0  0
    3.1610    0.5490   -0.0220 C   0  0  0  0  0  0  0  0  0  0  0  0
    4.5870    0.9210    0.0400 C   0  0  0  0  0  0  0  0  0  0  0  0
    5.3090    0.2130    1.0440 N   0  0  0  0  0  0  0  0  0  0  0  0
    5.3520   -1.2000    0.8980 C   0  0  0  0  0  0  0  0  0  0  0  0
    6.6640   -1.5950    0.3140 C   0  0  0  0  0  0  0  0  0  0  0  0
    7.6360   -0.7560    0.0600 C   0  0  0  0  0  0  0  0  0  0  0  0
    7.5330    0.7170    0.3330 C   0  0  0  0  0  0  0  0  0  0  0  0
    6.5280    0.8350    1.4730 C   0  0  0  0  0  0  0  0  0  0  0  0
    2.6040   -0.2150    0.9550 C   0  0  0  0  0  0  0  0  0  0  0  0
    1.2700   -0.5480    0.8800 C   0  0  0  0  0  0  0  0  0  0  0  0
    0.6770   -1.3210    1.8570 O   0  0  0  0  0  0  0  0  0  0  0  0
   -3.7500   -0.2510    0.3030 C   0  0  0  0  0  0  0  0  0  0  0  0
   -4.5220   -1.1290    1.0300 C   0  0  0  0  0  0  0  0  0  0  0  0
   -4.9730   -0.8220    2.3030 C   0  0  0  0  0  0  0  0  0  0  0  0
   -4.6630    0.3730    2.8790 C   0  0  0  0  0  0  0  0  0  0  0  0
   -3.8910    1.2710    2.1740 C   0  0  0  0  0  0  0  0  0  0  0  0
   -3.4400    0.9500    0.8890 C   0  0  0  0  0  0  0  0  0  0  0  0
  1  2  1  0
  2  3  1  0
  3  4  1  1
  3  5  1  0
  5  6  1  1
  5 23  1  0
  6  7  2  0
  6  8  1  0
  8  9  1  0
  9 10  2  0
  9 21  1  0
 10 11  1  0
 11 12  2  0
 12 13  1  0
 12 20  1  0
 13 14  1  0
 14 15  1  0
 14 19  1  0
 15 16  1  0
 16 17  2  0
 17 18  1  0
 18 19  1  0
 20 21  2  0
 21 22  1  0
 23 24  2  0
 23 28  1  0
 24 25  1  0
 25 26  2  0
 26 27  1  0
 27 28  2  0
M  CHG  1   2   1
M  END
