
     RDKit          3D

 33 36  0  0  0  0  0  0  0  0999 V2000
   -8.0960    0.4610    0.2720 C   0  0  0  0  0  0  0  0  0  0  0  0
   -7.0400   -0.2160   -0.5700 C   0  0  1  0  0  0  0  0  0  0  0  0
   -5.6810    0.3620   -0.2330 C   0  0  0  0  0  0  0  0  0  0  0  0
   -4.6540   -0.7390   -0.0250 C   0  0  2  0  0  0  0  0  0  0  0  0
   -4.7940   -1.4750    1.2490 C   0  0  0  0  0  0  0  0  0  0  0  0
   -3.3090   -0.1170   -0.2950 C   0  0  0  0  0  0  0  0  0  0  0  0
   -2.9230    1.0220    0.5400 C   0  0  1  0  0  0  0  0  0  0  0  0
   -2.8550    0.6540    2.0020 C   0  0  0  0  0  0  0  0  0  0  0  0
   -1.7230    1.7820    0.1930 C   0  0  2  0  0  0  0  0  0  0  0  0
   -1.7450    2.5510   -1.4520 S   0  0  0  0  0  0  0  0  0  0  0  0
    0.0580    2.9240   -1.4420 C   0  0  0  0  0  0  0  0  0  0  0  0
    0.5520    2.2370   -0.1930 C   0  0  2  0  0  0  0  0  0  0  0  0
    1.8000    1.4960   -0.5650 C   0  0  1  0  0  0  0  0  0  0  0  0
    2.4680    1.0120    0.7070 C   0  0  0  0  0  0  0  0  0  0  0  0
    3.6750    0.3010    0.3740 O   0  0  0  0  0  0  0  0  0  0  0  0
    4.3870   -0.1990    1.4770 C   0  0  0  0  0  0  0  0  0  0  0  0
    3.9620   -0.0160    2.6440 O   0  0  0  0  0  0  0  0  0  0  0  0
    5.6520   -0.9540    1.2930 C   0  0  1  0  0  0  0  0  0  0  0  0
    5.4740   -2.1890    0.4790 C   0  0  0  0  0  0  0  0  0  0  0  0
    6.4940   -2.4010   -0.5730 C   0  0  0  0  0  0  0  0  0  0  0  0
    7.6310   -1.7420   -0.6570 C   0  0  0  0  0  0  0  0  0  0  0  0
    7.9450   -0.7080    0.3550 C   0  0  1  0  0  0  0  0  0  0  0  0
    8.8790    0.3210   -0.1690 C   0  0  0  0  0  0  0  0  0  0  0  0
    9.3280    0.2860   -1.3400 O   0  0  0  0  0  0  0  0  0  0  0  0
    9.2660    1.3530    0.6640 O   0  0  0  0  0  0  0  0  0  0  0  0
    6.6320    0.0070    0.6460 C   0  0  0  0  0  0  0  0  0  0  0  0
    1.2980    0.3050   -1.3090 C   0  0  1  0  0  0  0  0  0  0  0  0
    2.1130   -0.7810   -0.9750 O   0  0  0  0  0  0  0  0  0  0  0  0
   -0.1380    0.1140   -0.8520 C   0  0  0  0  0  0  0  0  0  0  0  0
   -0.4070    1.1370    0.1850 C   0  0  2  0  0  0  0  0  0  0  0  0
   -4.8500   -1.7490   -1.1820 C   0  0  0  0  0  0  0  0  0  0  0  0
   -6.2520   -2.3170   -1.1280 C   0  0  0  0  0  0  0  0  0  0  0  0
   -7.0890   -1.5810   -0.2920 O   0  0  0  0  0  0  0  0  0  0  0  0
  2  1  1  1
  2  3  1  0
  2 33  1  0
  3  4  1  0
  4  5  1  1
  4  6  1  0
  4 31  1  0
  6  7  1  0
  7  8  1  1
  7  9  1  0
  9 10  1  6
  9 30  1  0
 10 11  1  0
 12 11  1  6
 12 13  1  0
 12 30  1  0
 13 14  1  1
 13 27  1  0
 14 15  1  0
 15 16  1  0
 16 17  2  0
 18 16  1  6
 18 19  1  0
 18 26  1  0
 19 20  1  0
 20 21  2  0
 21 22  1  0
 22 23  1  6
 22 26  1  0
 23 24  2  0
 23 25  1  0
 27 28  1  1
 27 29  1  0
 30 29  1  6
 31 32  1  0
 32 33  1  0
M  END
