
     RDKit          3D

 33 35  0  0  0  0  0  0  0  0999 V2000
    0.2720    0.9530    1.7520 C   0  0  0  0  0  0  0  0  0  0  0  0
    0.2320    0.5750    0.3670 O   0  0  0  0  0  0  0  0  0  0  0  0
    0.6300   -0.7260    0.1000 C   0  0  0  0  0  0  0  0  0  0  0  0
   -0.2910   -1.7420    0.1950 C   0  0  0  0  0  0  0  0  0  0  0  0
   -1.6340   -1.4070    0.5610 C   0  0  0  0  0  0  0  0  0  0  0  0
   -2.7530   -1.9770    0.7740 C   0  0  0  0  0  0  0  0  0  0  0  0
   -3.0960   -3.4000    0.7030 C   0  0  0  0  0  0  0  0  0  0  0  0
   -3.8900   -1.0950    1.1590 N   0  0  0  0  0  0  0  0  0  0  0  0
   -4.3260   -0.3160    0.0500 C   0  0  2  0  0  0  0  0  0  0  0  0
   -3.4630   -0.5820   -1.1180 C   0  0  0  0  0  0  0  0  0  0  0  0
   -2.9640    0.3380   -1.9330 C   0  0  0  0  0  0  0  0  0  0  0  0
   -3.2440    1.7630   -1.7280 C   0  0  0  0  0  0  0  0  0  0  0  0
   -4.4980    1.9590   -0.9040 C   0  0  1  0  0  0  0  0  0  0  0  0
   -5.7410    1.6470   -1.6850 C   0  0  0  0  0  0  0  0  0  0  0  0
   -4.4150    1.1630    0.3660 C   0  0  0  0  0  0  0  0  0  0  0  0
    0.1690   -3.0890   -0.0870 C   0  0  0  0  0  0  0  0  0  0  0  0
   -0.5720   -4.0910   -0.0330 O   0  0  0  0  0  0  0  0  0  0  0  0
    1.5300   -3.4000   -0.4580 N   0  0  0  0  0  0  0  0  0  0  0  0
    1.9120   -4.7580   -0.7220 C   0  0  0  0  0  0  0  0  0  0  0  0
    2.4730   -2.3480   -0.5570 C   0  0  0  0  0  0  0  0  0  0  0  0
    3.6670   -2.5610   -0.8690 O   0  0  0  0  0  0  0  0  0  0  0  0
    1.9990   -1.0000   -0.2730 C   0  0  0  0  0  0  0  0  0  0  0  0
    2.8560   -0.0140   -0.3850 C   0  0  0  0  0  0  0  0  0  0  0  0
    2.5590    1.3560   -0.1600 N   0  0  0  0  0  0  0  0  0  0  0  0
    3.3560    2.0850    0.7500 C   0  0  0  0  0  0  0  0  0  0  0  0
    4.1050    1.4630    1.6280 C   0  0  0  0  0  0  0  0  0  0  0  0
    4.9760    2.1350    2.6240 C   0  0  0  0  0  0  0  0  0  0  0  0
    5.3700    3.5280    2.1940 C   0  0  0  0  0  0  0  0  0  0  0  0
    4.1940    4.2340    1.6820 N   0  0  0  0  0  0  0  0  0  0  0  0
    3.3840    3.5610    0.7570 C   0  0  0  0  0  0  0  0  0  0  0  0
    2.6850    4.1880   -0.0640 O   0  0  0  0  0  0  0  0  0  0  0  0
    4.5760   -0.2910   -0.8730 S   0  0  0  0  0  0  0  0  0  0  0  0
    4.7190   -0.8770   -2.5760 C   0  0  0  0  0  0  0  0  0  0  0  0
  1  2  1  0
  2  3  1  0
  3  4  2  0
  3 22  1  0
  4  5  1  0
  4 16  1  0
  5  6  2  3
  6  7  1  0
  6  8  1  0
  9  8  1  1
  9 10  1  0
  9 15  1  0
 10 11  2  0
 11 12  1  0
 12 13  1  0
 13 14  1  6
 13 15  1  0
 16 17  2  0
 16 18  1  0
 18 19  1  0
 18 20  1  0
 20 21  2  0
 20 22  1  0
 22 23  2  3
 23 24  1  0
 23 32  1  0
 24 25  1  0
 25 26  2  0
 25 30  1  0
 26 27  1  0
 27 28  1  0
 28 29  1  0
 29 30  1  0
 30 31  2  0
 32 33  1  0
M  CHG  1   8   1
M  END
