
     RDKit          3D

 33 36  0  0  0  0  0  0  0  0999 V2000
   -7.4320    0.6480   -1.9240 C   0  0  0  0  0  0  0  0  0  0  0  0
   -7.4710    1.1800   -0.5080 C   0  0  0  0  0  0  0  0  0  0  0  0
   -6.6920    0.2790    0.3740 C   0  0  0  0  0  0  0  0  0  0  0  0
   -7.2060   -0.6100    1.2340 N   0  0  0  0  0  0  0  0  0  0  0  0
   -6.2160   -1.2450    1.8590 N   0  0  0  0  0  0  0  0  0  0  0  0
   -5.0450   -0.7660    1.4020 C   0  0  0  0  0  0  0  0  0  0  0  0
   -3.7130   -1.2090    1.8430 C   0  0  0  0  0  0  0  0  0  0  0  0
   -5.3200    0.1930    0.4680 C   0  0  0  0  0  0  0  0  0  0  0  0
   -4.3790    0.9850   -0.2950 C   0  0  0  0  0  0  0  0  0  0  0  0
   -4.7390    1.8510   -1.1390 O   0  0  0  0  0  0  0  0  0  0  0  0
   -3.0030    0.8310   -0.1350 O   0  0  0  0  0  0  0  0  0  0  0  0
   -2.0880    1.6210   -0.8950 C   0  0  2  0  0  0  0  0  0  0  0  0
   -1.2200    0.6610   -1.6660 C   0  0  0  0  0  0  0  0  0  0  0  0
    0.2370    1.0460   -1.6370 C   0  0  0  0  0  0  0  0  0  0  0  0
    0.7190    1.0550   -0.1910 C   0  0  0  0  0  0  0  0  0  0  0  0
   -0.1230    1.8020    0.6130 C   0  0  0  0  0  0  0  0  0  0  0  0
    0.6020    1.6810    2.2020 S   0  0  0  0  0  0  0  0  0  0  0  0
    1.9770    0.6530    1.7260 C   0  0  0  0  0  0  0  0  0  0  0  0
    3.0140    0.1190    2.4350 C   0  0  0  0  0  0  0  0  0  0  0  0
    3.0780    0.3550    3.6600 O   0  0  0  0  0  0  0  0  0  0  0  0
    3.9720   -0.6720    1.7820 C   0  0  0  0  0  0  0  0  0  0  0  0
    4.9600   -1.2960    2.6520 C   0  0  0  0  0  0  0  0  0  0  0  0
    3.7930   -0.8540    0.4250 C   0  0  0  0  0  0  0  0  0  0  0  0
    4.8170   -1.6250   -0.2780 C   0  0  2  0  0  0  0  0  0  0  0  0
    5.0390   -2.8860    0.2000 O   0  0  0  0  0  0  0  0  0  0  0  0
    6.0860   -0.8530   -0.4660 C   0  0  0  0  0  0  0  0  0  0  0  0
    6.8830   -0.3190    0.6230 C   0  0  0  0  0  0  0  0  0  0  0  0
    4.3550   -1.7840   -1.7770 C   0  0  0  0  0  0  0  0  0  0  0  0
    4.3220   -0.5020   -2.4470 C   0  0  0  0  0  0  0  0  0  0  0  0
    4.3160    0.5430   -2.9980 N   0  0  0  0  0  0  0  0  0  0  0  0
    2.7630   -0.3120   -0.2010 N   0  0  0  0  0  0  0  0  0  0  0  0
    1.7860    0.4760    0.3950 C   0  0  0  0  0  0  0  0  0  0  0  0
   -1.3220    2.4740    0.0620 C   0  0  0  0  0  0  0  0  0  0  0  0
  1  2  1  0
  2  3  1  0
  3  4  1  0
  3  8  2  0
  4  5  1  0
  5  6  2  0
  6  7  1  0
  6  8  1  0
  8  9  1  0
  9 10  2  0
  9 11  1  0
 12 11  1  1
 12 13  1  0
 12 33  1  0
 13 14  1  0
 14 15  1  0
 15 16  2  0
 15 32  1  0
 16 17  1  0
 16 33  1  0
 17 18  1  0
 18 19  1  0
 18 32  2  0
 19 20  2  0
 19 21  1  0
 21 22  1  0
 21 23  2  0
 23 24  1  0
 23 31  1  0
 24 25  1  1
 24 26  1  0
 24 28  1  0
 26 27  1  0
 28 29  1  0
 29 30  3  0
 31 32  1  0
M  END
