
     RDKit          3D

 16 15  0  0  0  0  0  0  0  0999 V2000
    5.7820    0.0350   -0.0810 C   0  0  0  0  0  0  0  0  0  0  0  0
    4.5160   -0.5360    0.5190 C   0  0  0  0  0  0  0  0  0  0  0  0
    3.3140    0.0860   -0.0940 C   0  0  0  0  0  0  0  0  0  0  0  0
    3.4870    0.9560   -0.9790 O   0  0  0  0  0  0  0  0  0  0  0  0
    2.0280   -0.2390    0.2560 O   0  0  0  0  0  0  0  0  0  0  0  0
    0.9470    0.4040   -0.3800 C   0  0  0  0  0  0  0  0  0  0  0  0
   -0.2800   -0.0380    0.0880 O   0  0  0  0  0  0  0  0  0  0  0  0
   -1.2880    0.5390   -0.4820 O   0  0  0  0  0  0  0  0  0  0  0  0
   -2.5140    0.1000   -0.0660 C   0  0  1  0  0  0  0  0  0  0  0  0
   -2.7290   -1.3830   -0.3160 C   0  0  0  0  0  0  0  0  0  0  0  0
   -2.7300    0.3100    1.4350 C   0  0  0  0  0  0  0  0  0  0  0  0
   -4.0030   -0.1750    1.7240 O   0  0  0  0  0  0  0  0  0  0  0  0
   -3.5650    0.9050   -0.7490 C   0  0  0  0  0  0  0  0  0  0  0  0
   -3.3190    1.7890   -1.5330 O   0  0  0  0  0  0  0  0  0  0  0  0
   -5.3580    0.5740   -0.4160 P   0  0  0  0  0  0  0  0  0  0  0  0
   -6.4000    1.6940   -0.3470 O   0  0  0  0  0  0  0  0  0  0  0  0
  1  2  1  0
  2  3  1  0
  3  4  2  0
  3  5  1  0
  5  6  1  0
  6  7  1  0
  7  8  1  0
  8  9  1  0
  9 10  1  1
  9 11  1  0
  9 13  1  0
 11 12  1  0
 13 14  2  0
 13 15  1  0
 15 16  2  0
M  END
