
     RDKit          3D

 39 43  0  0  0  0  0  0  0  0999 V2000
    0.8850    4.4630    2.4980 O   0  0  0  0  0  0  0  0  0  0  0  0
    1.7870    3.7800    1.8920 C   0  0  0  0  0  0  0  0  0  0  0  0
    1.3550    2.6740    1.1480 N   0  0  0  0  0  0  0  0  0  0  0  0
    0.0140    2.2040    1.0060 C   0  0  0  0  0  0  0  0  0  0  0  0
   -1.0110    2.4680    1.8760 C   0  0  0  0  0  0  0  0  0  0  0  0
   -2.3090    2.0120    1.6840 C   0  0  0  0  0  0  0  0  0  0  0  0
   -2.6000    1.2520    0.5660 C   0  0  0  0  0  0  0  0  0  0  0  0
   -3.9010    0.7680    0.3220 N   0  0  0  0  0  0  0  0  0  0  0  0
   -4.3580   -0.4700    0.5710 C   0  0  0  0  0  0  0  0  0  0  0  0
   -3.4250   -1.7620    1.2900 S   0  0  0  0  0  0  0  0  0  0  0  0
   -2.4930   -2.7740    0.1790 C   0  0  0  0  0  0  0  0  0  0  0  0
   -3.2320   -3.7080   -0.6840 C   0  0  0  0  0  0  0  0  0  0  0  0
   -4.2250   -3.2070   -1.6140 C   0  0  0  0  0  0  0  0  0  0  0  0
   -5.5720   -3.2380   -1.2530 C   0  0  0  0  0  0  0  0  0  0  0  0
   -6.5680   -2.7870   -2.0690 C   0  0  0  0  0  0  0  0  0  0  0  0
   -6.2430   -2.2810   -3.2960 C   0  0  0  0  0  0  0  0  0  0  0  0
   -4.9030   -2.2300   -3.7000 C   0  0  0  0  0  0  0  0  0  0  0  0
   -3.9130   -2.6870   -2.8690 C   0  0  0  0  0  0  0  0  0  0  0  0
   -5.6380   -0.4780    0.1950 N   0  0  0  0  0  0  0  0  0  0  0  0
   -5.9610    0.7010   -0.2660 O   0  0  0  0  0  0  0  0  0  0  0  0
   -4.9250    1.4750   -0.1990 C   0  0  0  0  0  0  0  0  0  0  0  0
   -4.8830    2.6820   -0.5600 O   0  0  0  0  0  0  0  0  0  0  0  0
   -1.5910    0.9680   -0.3290 C   0  0  0  0  0  0  0  0  0  0  0  0
   -1.8640    0.2440   -1.4270 F   0  0  0  0  0  0  0  0  0  0  0  0
   -0.3050    1.4310   -0.1210 C   0  0  0  0  0  0  0  0  0  0  0  0
    3.4330    4.3500    2.1050 S   0  0  0  0  0  0  0  0  0  0  0  0
    4.7090    3.1820    1.6700 C   0  0  0  0  0  0  0  0  0  0  0  0
    4.7420    1.8940    1.5700 C   0  0  0  0  0  0  0  0  0  0  0  0
    5.9610    1.2590    1.1830 C   0  0  0  0  0  0  0  0  0  0  0  0
    6.2230    0.1640    0.5220 C   0  0  0  0  0  0  0  0  0  0  0  0
    5.2850   -0.7600   -0.0340 C   0  0  0  0  0  0  0  0  0  0  0  0
    5.6220   -1.8990   -0.7010 C   0  0  0  0  0  0  0  0  0  0  0  0
    4.3890   -2.5580   -1.1000 C   0  0  0  0  0  0  0  0  0  0  0  0
    3.4850   -1.9840   -0.3050 C   0  0  0  0  0  0  0  0  0  0  0  0
    3.8370   -0.7100   -0.0740 C   0  0  0  0  0  0  0  0  0  0  0  0
    7.1350    2.1140    1.6870 C   0  0  0  0  0  0  0  0  0  0  0  0
    6.3890    3.7180    1.3930 S   0  0  1  0  0  0  0  0  0  0  0  0
    6.6060    4.0730   -0.0280 O   0  0  0  0  0  0  0  0  0  0  0  0
    6.8140    4.7310    2.3790 O   0  0  0  0  0  0  0  0  0  0  0  0
  1  2  2  0
  2  3  1  0
  2 26  1  0
  3  4  1  0
  4  5  2  0
  4 25  1  0
  5  6  1  0
  6  7  2  0
  7  8  1  0
  7 23  1  0
  8  9  1  0
  8 21  1  0
  9 10  1  0
  9 19  2  0
 10 11  1  0
 11 12  1  0
 12 13  1  0
 13 14  2  0
 13 18  1  0
 14 15  1  0
 15 16  2  0
 16 17  1  0
 17 18  2  0
 19 20  1  0
 20 21  1  0
 21 22  2  0
 23 24  1  0
 23 25  2  0
 26 27  1  0
 27 28  2  0
 27 37  1  0
 28 29  1  0
 29 30  2  3
 29 36  1  0
 30 31  1  0
 31 32  2  0
 31 35  1  0
 32 33  1  0
 33 34  2  0
 34 35  2  0
 37 36  1  1
 37 38  2  0
 37 39  2  0
M  END
