
     RDKit          3D

 39 41  0  0  0  0  0  0  0  0999 V2000
   10.7460   -3.7320   -0.7570 C   0  0  0  0  0  0  0  0  0  0  0  0
    9.5540   -2.8430   -0.7740 C   0  0  0  0  0  0  0  0  0  0  0  0
    9.5430   -1.7540    0.0870 C   0  0  0  0  0  0  0  0  0  0  0  0
    8.4470   -0.9110    0.1180 C   0  0  0  0  0  0  0  0  0  0  0  0
    7.3820   -1.1380   -0.6850 C   0  0  0  0  0  0  0  0  0  0  0  0
    6.1700   -0.3340   -0.6940 N   0  0  0  0  0  0  0  0  0  0  0  0
    6.1110    0.9920   -1.2180 C   0  0  0  0  0  0  0  0  0  0  0  0
    6.3740    2.0250   -0.1800 C   0  0  0  0  0  0  0  0  0  0  0  0
    6.2870    3.4160   -0.7760 C   0  0  0  0  0  0  0  0  0  0  0  0
    6.4500    4.5780    0.0120 N   0  0  0  0  0  0  0  0  0  0  0  0
    6.0640    3.5300   -1.9960 O   0  0  0  0  0  0  0  0  0  0  0  0
    5.0160   -0.9690   -0.1690 C   0  0  0  0  0  0  0  0  0  0  0  0
    5.0850   -2.1490    0.2110 O   0  0  0  0  0  0  0  0  0  0  0  0
    3.7080   -0.2340   -0.0620 C   0  0  0  0  0  0  0  0  0  0  0  0
    2.6760   -1.2940    0.3120 C   0  0  0  0  0  0  0  0  0  0  0  0
    1.4400   -0.8380    0.4490 O   0  0  0  0  0  0  0  0  0  0  0  0
    0.7710    0.0150    1.2310 C   0  0  0  0  0  0  0  0  0  0  0  0
    1.3290    0.7370    2.2550 C   0  0  0  0  0  0  0  0  0  0  0  0
    0.5100    1.5880    2.9970 C   0  0  0  0  0  0  0  0  0  0  0  0
   -0.8260    1.7180    2.7340 C   0  0  0  0  0  0  0  0  0  0  0  0
   -1.7130    2.6210    3.5170 C   0  0  0  0  0  0  0  0  0  0  0  0
   -1.4280    0.9920    1.6930 C   0  0  0  0  0  0  0  0  0  0  0  0
   -2.8220    1.0920    1.5060 N   0  0  0  0  0  0  0  0  0  0  0  0
   -3.5310    0.5850    0.4100 C   0  0  0  0  0  0  0  0  0  0  0  0
   -2.9240    0.0510   -0.5460 O   0  0  0  0  0  0  0  0  0  0  0  0
   -4.9800    0.6520    0.3380 N   0  0  0  0  0  0  0  0  0  0  0  0
   -5.5850    0.1010   -0.8610 C   0  0  1  0  0  0  0  0  0  0  0  0
   -5.5530   -1.4140   -0.7750 C   0  0  0  0  0  0  0  0  0  0  0  0
   -6.6880   -2.0410   -0.0620 C   0  0  1  0  0  0  0  0  0  0  0  0
   -6.2730   -2.8950    1.0880 C   0  0  0  0  0  0  0  0  0  0  0  0
   -7.7700   -1.0230    0.2800 C   0  0  0  0  0  0  0  0  0  0  0  0
   -8.0120   -0.2810   -1.0270 C   0  0  1  0  0  0  0  0  0  0  0  0
   -9.3820    0.2950   -1.1290 C   0  0  0  0  0  0  0  0  0  0  0  0
   -6.8910    0.6930   -1.2070 C   0  0  2  0  0  0  0  0  0  0  0  0
   -6.9270    1.1520   -2.6730 C   0  0  0  0  0  0  0  0  0  0  0  0
   -7.1620    1.9830   -0.4190 C   0  0  0  0  0  0  0  0  0  0  0  0
   -0.6240    0.1800    0.9870 C   0  0  0  0  0  0  0  0  0  0  0  0
    7.4010   -2.2340   -1.5480 C   0  0  0  0  0  0  0  0  0  0  0  0
    8.4840   -3.0770   -1.5870 C   0  0  0  0  0  0  0  0  0  0  0  0
  1  2  1  0
  2  3  2  0
  2 39  1  0
  3  4  1  0
  4  5  2  0
  5  6  1  0
  5 38  1  0
  6  7  1  0
  6 12  1  0
  7  8  1  0
  8  9  1  0
  9 10  1  0
  9 11  2  0
 12 13  2  0
 12 14  1  0
 14 15  1  0
 15 16  1  0
 16 17  1  0
 17 18  2  0
 17 37  1  0
 18 19  1  0
 19 20  2  0
 20 21  1  0
 20 22  1  0
 22 23  1  0
 22 37  2  0
 23 24  1  0
 24 25  2  0
 24 26  1  0
 27 26  1  1
 27 28  1  0
 27 34  1  0
 28 29  1  0
 29 30  1  1
 29 31  1  0
 31 32  1  0
 32 33  1  1
 32 34  1  0
 34 35  1  6
 34 36  1  0
 38 39  2  0
M  END
