
     RDKit          3D

 39 43  0  0  0  0  0  0  0  0999 V2000
    2.0390   -4.8040   -0.1970 C   0  0  0  0  0  0  0  0  0  0  0  0
    1.2770   -3.6170   -0.4310 O   0  0  0  0  0  0  0  0  0  0  0  0
    1.7850   -2.3960   -0.0030 C   0  0  0  0  0  0  0  0  0  0  0  0
    2.8800   -2.3980    0.5640 O   0  0  0  0  0  0  0  0  0  0  0  0
    1.0090   -1.1170   -0.2340 C   0  0  0  0  0  0  0  0  0  0  0  0
    1.5580    0.0620    0.1260 C   0  0  0  0  0  0  0  0  0  0  0  0
    2.8390    0.6350    0.3350 N   0  0  0  0  0  0  0  0  0  0  0  0
    4.0330    0.2070   -0.2050 C   0  0  0  0  0  0  0  0  0  0  0  0
    4.1440   -0.7460   -1.0080 O   0  0  0  0  0  0  0  0  0  0  0  0
    5.2940    0.9000    0.1680 C   0  0  0  0  0  0  0  0  0  0  0  0
    5.5250    1.9550    0.9850 C   0  0  0  0  0  0  0  0  0  0  0  0
    6.8110    2.3950    1.1490 C   0  0  0  0  0  0  0  0  0  0  0  0
    7.7490    1.7950    0.5250 C   0  0  0  0  0  0  0  0  0  0  0  0
    6.9000    0.4700   -0.4190 S   0  0  0  0  0  0  0  0  0  0  0  0
    9.1490    2.1680    0.6190 C   0  0  0  0  0  0  0  0  0  0  0  0
    9.1140    3.2200    2.0990 S   0  0  0  0  0  0  0  0  0  0  0  0
    7.3250    3.5700    2.0100 C   0  0  0  0  0  0  0  0  0  0  0  0
    0.1580    1.1800   -0.0120 S   0  0  0  0  0  0  0  0  0  0  0  0
   -1.0420   -0.0260   -0.5540 C   0  0  0  0  0  0  0  0  0  0  0  0
   -2.4330    0.1860   -0.8660 C   0  0  0  0  0  0  0  0  0  0  0  0
   -3.0480   -0.8840   -1.2510 O   0  0  0  0  0  0  0  0  0  0  0  0
   -3.1130    1.3850   -0.7860 N   0  0  0  0  0  0  0  0  0  0  0  0
   -4.5180    1.3680   -1.1640 C   0  0  0  0  0  0  0  0  0  0  0  0
   -5.4790    1.0060   -0.1400 C   0  0  0  0  0  0  0  0  0  0  0  0
   -6.7170    1.1010   -0.5620 O   0  0  0  0  0  0  0  0  0  0  0  0
   -5.3520    0.5830    1.1720 N   0  0  0  0  0  0  0  0  0  0  0  0
   -4.1500    0.3270    1.9080 C   0  0  0  0  0  0  0  0  0  0  0  0
   -6.6080    0.3570    1.9420 C   0  0  0  0  0  0  0  0  0  0  0  0
   -2.5570    2.6430   -0.3830 C   0  0  2  0  0  0  0  0  0  0  0  0
   -3.5140    3.5310    0.4000 C   0  0  0  0  0  0  0  0  0  0  0  0
   -3.0570    3.9130   -0.9980 C   0  0  0  0  0  0  0  0  0  0  0  0
   -0.2990   -1.1490   -0.5790 C   0  0  0  0  0  0  0  0  0  0  0  0
   -0.9560   -2.4320   -1.0080 C   0  0  0  0  0  0  0  0  0  0  0  0
   -0.8080   -2.9030   -2.2750 C   0  0  0  0  0  0  0  0  0  0  0  0
   -1.4210   -4.0790   -2.6400 C   0  0  0  0  0  0  0  0  0  0  0  0
   -2.1690   -4.7390   -1.6980 C   0  0  0  0  0  0  0  0  0  0  0  0
   -2.7940   -5.9040   -2.0130 F   0  0  0  0  0  0  0  0  0  0  0  0
   -2.3210   -4.2660   -0.4200 C   0  0  0  0  0  0  0  0  0  0  0  0
   -1.6990   -3.0770   -0.0540 C   0  0  0  0  0  0  0  0  0  0  0  0
  1  2  1  0
  2  3  1  0
  3  4  2  0
  3  5  1  0
  5  6  2  0
  5 32  1  0
  6  7  1  0
  6 18  1  0
  7  8  1  0
  8  9  2  0
  8 10  1  0
 10 11  2  0
 10 14  1  0
 11 12  1  0
 12 13  2  0
 12 17  1  0
 13 14  1  0
 13 15  1  0
 15 16  1  0
 16 17  1  0
 18 19  1  0
 19 20  1  0
 19 32  2  0
 20 21  2  0
 20 22  1  0
 22 23  1  0
 29 22  1  6
 23 24  1  0
 24 25  2  0
 24 26  1  0
 26 27  1  0
 26 28  1  0
 29 30  1  0
 29 31  1  0
 30 31  1  0
 32 33  1  0
 33 34  2  0
 33 39  1  0
 34 35  1  0
 35 36  2  0
 36 37  1  0
 36 38  1  0
 38 39  2  0
M  END
