
     RDKit          3D

 39 41  0  0  0  0  0  0  0  0999 V2000
   -5.9550   -3.9260   -1.2680 C   0  0  0  0  0  0  0  0  0  0  0  0
   -5.3310   -2.7770   -1.8870 N   0  0  0  0  0  0  0  0  0  0  0  0
   -4.1830   -2.1720   -1.3040 C   0  0  0  0  0  0  0  0  0  0  0  0
   -3.7420   -2.6640   -0.2540 O   0  0  0  0  0  0  0  0  0  0  0  0
   -3.6080   -1.0130   -1.9850 C   0  0  0  0  0  0  0  0  0  0  0  0
   -2.3340   -0.4590   -1.3980 C   0  0  2  0  0  0  0  0  0  0  0  0
   -1.2530   -1.4520   -1.4350 C   0  0  0  0  0  0  0  0  0  0  0  0
    0.0860   -1.0200   -0.9110 C   0  0  1  0  0  0  0  0  0  0  0  0
    1.1690   -2.0140   -0.9920 C   0  0  0  0  0  0  0  0  0  0  0  0
    1.7110   -2.5680   -2.1940 C   0  0  0  0  0  0  0  0  0  0  0  0
    2.7790   -3.6830   -1.8270 C   0  0  0  0  0  0  0  0  0  0  0  0
    1.6040   -2.4370   -3.4620 C   0  0  0  0  0  0  0  0  0  0  0  0
    0.8980   -1.6700   -4.4130 C   0  0  0  0  0  0  0  0  0  0  0  0
    0.0860   -0.7730   -4.2300 O   0  0  0  0  0  0  0  0  0  0  0  0
    0.4630    0.4030   -1.1480 C   0  0  0  0  0  0  0  0  0  0  0  0
    1.8270    0.7090   -0.5770 C   0  0  0  0  0  0  0  0  0  0  0  0
    2.9760    0.8220   -1.2730 N   0  0  0  0  0  0  0  0  0  0  0  0
    4.0180    1.0940   -0.4660 C   0  0  0  0  0  0  0  0  0  0  0  0
    5.3780    1.2940   -0.7340 C   0  0  0  0  0  0  0  0  0  0  0  0
    6.2480    1.5640    0.3010 C   0  0  0  0  0  0  0  0  0  0  0  0
    7.6810    1.7790    0.0590 C   0  0  0  0  0  0  0  0  0  0  0  0
    8.1750    1.7290   -1.0940 O   0  0  0  0  0  0  0  0  0  0  0  0
    8.5150    2.0450    1.1210 O   0  0  0  0  0  0  0  0  0  0  0  0
    9.9150    2.2690    0.9960 C   0  0  0  0  0  0  0  0  0  0  0  0
    5.7150    1.6230    1.5710 C   0  0  0  0  0  0  0  0  0  0  0  0
    4.3830    1.4300    1.8500 C   0  0  0  0  0  0  0  0  0  0  0  0
    3.5060    1.1580    0.8130 C   0  0  0  0  0  0  0  0  0  0  0  0
    2.1360    0.9180    0.7500 C   0  0  0  0  0  0  0  0  0  0  0  0
    1.2020    0.9020    1.9240 C   0  0  0  0  0  0  0  0  0  0  0  0
   -2.7380   -0.0730    0.0180 C   0  0  0  0  0  0  0  0  0  0  0  0
   -2.2520   -0.6180    1.0060 O   0  0  0  0  0  0  0  0  0  0  0  0
   -3.7110    0.9470    0.1870 N   0  0  0  0  0  0  0  0  0  0  0  0
   -4.2150    1.4360    1.4070 C   0  0  0  0  0  0  0  0  0  0  0  0
   -5.2660    2.3500    1.3300 C   0  0  0  0  0  0  0  0  0  0  0  0
   -5.8600    2.9130    2.4390 C   0  0  0  0  0  0  0  0  0  0  0  0
   -5.4260    2.5830    3.7020 C   0  0  0  0  0  0  0  0  0  0  0  0
   -6.0260    3.1520    4.9380 C   0  0  0  0  0  0  0  0  0  0  0  0
   -4.3900    1.6820    3.7880 C   0  0  0  0  0  0  0  0  0  0  0  0
   -3.7870    1.1110    2.6560 C   0  0  0  0  0  0  0  0  0  0  0  0
  1  2  1  0
  2  3  1  0
  3  4  2  0
  3  5  1  0
  6  5  1  1
  6  7  1  0
  6 30  1  0
  8  7  1  6
  8  9  1  0
  8 15  1  0
  9 10  1  0
 10 11  1  0
 10 12  2  3
 12 13  1  0
 13 14  2  0
 15 16  1  0
 16 17  1  0
 16 28  2  0
 17 18  1  0
 18 19  2  0
 18 27  1  0
 19 20  1  0
 20 21  1  0
 20 25  2  0
 21 22  2  0
 21 23  1  0
 23 24  1  0
 25 26  1  0
 26 27  2  0
 27 28  1  0
 28 29  1  0
 30 31  2  0
 30 32  1  0
 32 33  1  0
 33 34  2  0
 33 39  1  0
 34 35  1  0
 35 36  2  0
 36 37  1  0
 36 38  1  0
 38 39  2  0
M  END
