
     RDKit          3D

 39 43  0  0  0  0  0  0  0  0999 V2000
   -8.1350   -0.0120    1.2780 C   0  0  0  0  0  0  0  0  0  0  0  0
   -6.9380    0.2930    0.8250 C   0  0  0  0  0  0  0  0  0  0  0  0
   -5.9780    0.7280    1.8770 C   0  0  0  0  0  0  0  0  0  0  0  0
   -4.5790    0.7810    1.4730 C   0  0  0  0  0  0  0  0  0  0  0  0
   -3.6630    0.9370    2.5080 C   0  0  0  0  0  0  0  0  0  0  0  0
   -2.3100    1.0520    2.2900 C   0  0  0  0  0  0  0  0  0  0  0  0
   -1.8440    1.0130    1.0120 C   0  0  0  0  0  0  0  0  0  0  0  0
   -0.4440    1.0260    0.7640 N   0  0  0  0  0  0  0  0  0  0  0  0
    0.5050    1.4810    1.7010 C   0  0  0  0  0  0  0  0  0  0  0  0
    0.1800    1.9370    2.8420 O   0  0  0  0  0  0  0  0  0  0  0  0
    1.9810    1.4450    1.3800 C   0  0  0  0  0  0  0  0  0  0  0  0
    2.3030    0.8320    0.1910 O   0  0  0  0  0  0  0  0  0  0  0  0
    2.0590   -0.5070   -0.0550 C   0  0  0  0  0  0  0  0  0  0  0  0
    1.5200   -1.2670    0.8050 O   0  0  0  0  0  0  0  0  0  0  0  0
    2.4230   -1.1140   -1.3620 C   0  0  0  0  0  0  0  0  0  0  0  0
    3.8040   -2.2320   -1.1330 S   0  0  0  0  0  0  0  0  0  0  0  0
    5.2720   -1.4150   -0.6750 C   0  0  0  0  0  0  0  0  0  0  0  0
    6.4900   -1.7630   -0.4140 N   0  0  0  0  0  0  0  0  0  0  0  0
    7.4440   -0.9780   -0.0900 C   0  0  0  0  0  0  0  0  0  0  0  0
    8.8430   -1.4100    0.1850 C   0  0  0  0  0  0  0  0  0  0  0  0
    9.9700   -0.6590    0.4560 C   0  0  0  0  0  0  0  0  0  0  0  0
   11.1130   -1.2940    0.6500 C   0  0  0  0  0  0  0  0  0  0  0  0
   11.2200   -2.6710    0.5930 C   0  0  0  0  0  0  0  0  0  0  0  0
    9.4410   -3.0890    0.2100 S   0  0  0  0  0  0  0  0  0  0  0  0
    7.1800    0.3930   -0.0000 C   0  0  0  0  0  0  0  0  0  0  0  0
    5.4140    0.4110   -0.4340 S   0  0  0  0  0  0  0  0  0  0  0  0
   -2.7550    0.8590   -0.0260 C   0  0  0  0  0  0  0  0  0  0  0  0
   -2.0540    0.9110   -1.2370 C   0  0  0  0  0  0  0  0  0  0  0  0
   -2.4670    0.2670   -2.4090 C   0  0  0  0  0  0  0  0  0  0  0  0
   -1.5220   -0.1650   -3.1020 O   0  0  0  0  0  0  0  0  0  0  0  0
   -3.7390    0.0760   -2.8460 N   0  0  0  0  0  0  0  0  0  0  0  0
   -3.8520   -0.6270   -4.0890 C   0  0  0  0  0  0  0  0  0  0  0  0
   -4.8500    0.4970   -2.2190 C   0  0  0  0  0  0  0  0  0  0  0  0
   -5.7610    0.9490   -2.9510 O   0  0  0  0  0  0  0  0  0  0  0  0
   -5.0720    0.4800   -0.8440 C   0  0  0  0  0  0  0  0  0  0  0  0
   -4.1390    0.7370    0.1670 C   0  0  0  0  0  0  0  0  0  0  0  0
   -6.4830    0.2480   -0.5460 C   0  0  0  0  0  0  0  0  0  0  0  0
   -7.3500   -0.0280   -1.4860 C   0  0  0  0  0  0  0  0  0  0  0  0
   -8.6720   -0.2700   -1.2490 F   0  0  0  0  0  0  0  0  0  0  0  0
  1  2  2  0
  2  3  1  0
  2 37  1  0
  3  4  1  0
  4  5  2  0
  4 36  1  0
  5  6  1  0
  6  7  2  0
  7  8  1  0
  7 27  1  0
  8  9  1  0
  9 10  2  0
  9 11  1  0
 11 12  1  0
 12 13  1  0
 13 14  2  0
 13 15  1  0
 15 16  1  0
 16 17  1  0
 17 18  2  0
 17 26  1  0
 18 19  1  0
 19 20  1  0
 19 25  2  0
 20 21  2  0
 20 24  1  0
 21 22  1  0
 22 23  2  0
 23 24  1  0
 25 26  1  0
 27 28  2  0
 27 36  1  0
 28 29  1  0
 29 30  2  0
 29 31  1  0
 31 32  1  0
 31 33  1  0
 33 34  2  0
 33 35  1  0
 35 36  2  0
 35 37  1  0
 37 38  2  3
 38 39  1  0
M  END
