
     RDKit          3D

 40 42  0  0  0  0  0  0  0  0999 V2000
  -10.1520   -2.0740    0.3270 C   0  0  0  0  0  0  0  0  0  0  0  0
   -9.0100   -1.1250    0.6130 C   0  0  0  0  0  0  0  0  0  0  0  0
   -7.8010   -1.4760   -0.2110 C   0  0  0  0  0  0  0  0  0  0  0  0
   -6.6660   -0.5330    0.0730 C   0  0  1  0  0  0  0  0  0  0  0  0
   -6.2580   -0.5390    1.3860 O   0  0  0  0  0  0  0  0  0  0  0  0
   -5.4610   -0.9580   -0.7600 C   0  0  0  0  0  0  0  0  0  0  0  0
   -4.3250   -0.0010   -0.5870 C   0  0  1  0  0  0  0  0  0  0  0  0
   -3.0900   -0.4190   -1.3360 C   0  0  0  0  0  0  0  0  0  0  0  0
   -2.5020   -1.7250   -0.9550 C   0  0  0  0  0  0  0  0  0  0  0  0
   -2.0630   -1.8430    0.4120 N   0  0  0  0  0  0  0  0  0  0  0  0
   -2.9500   -2.3920    1.4010 C   0  0  0  0  0  0  0  0  0  0  0  0
   -0.7540   -1.4470    0.7860 C   0  0  0  0  0  0  0  0  0  0  0  0
   -0.3990   -1.5660    1.9790 O   0  0  0  0  0  0  0  0  0  0  0  0
    0.1730   -0.9280   -0.0920 O   0  0  0  0  0  0  0  0  0  0  0  0
    1.4550   -0.5260    0.2150 C   0  0  0  0  0  0  0  0  0  0  0  0
    1.7960    0.7430    0.6330 C   0  0  0  0  0  0  0  0  0  0  0  0
    3.0850    1.0960    0.9260 C   0  0  0  0  0  0  0  0  0  0  0  0
    4.1160    0.1460    0.8060 C   0  0  0  0  0  0  0  0  0  0  0  0
    3.8100   -1.1190    0.3950 C   0  0  0  0  0  0  0  0  0  0  0  0
    5.0640   -2.3740    0.2140 S   0  0  0  0  0  0  0  0  0  0  0  0
    5.7410   -2.3720   -1.4540 C   0  0  0  0  0  0  0  0  0  0  0  0
    6.5790   -1.2400   -1.8130 C   0  0  0  0  0  0  0  0  0  0  0  0
    6.5410   -0.9270   -3.0780 O   0  0  0  0  0  0  0  0  0  0  0  0
    7.4100   -0.4610   -0.9820 N   0  0  0  0  0  0  0  0  0  0  0  0
    8.1570    0.7060   -1.4870 C   0  0  0  0  0  0  0  0  0  0  0  0
    8.9960    1.1760   -0.3310 C   0  0  1  0  0  0  0  0  0  0  0  0
    9.2570    2.6460   -0.3480 C   0  0  0  0  0  0  0  0  0  0  0  0
    8.1260    0.7610    0.8410 C   0  0  2  0  0  0  0  0  0  0  0  0
    8.9000    0.7230    2.1080 C   0  0  0  0  0  0  0  0  0  0  0  0
   10.0810   -0.1610    2.2980 C   0  0  0  0  0  0  0  0  0  0  0  0
    8.5530    1.4440    3.0210 O   0  0  0  0  0  0  0  0  0  0  0  0
    7.7290   -0.6550    0.4010 C   0  0  0  0  0  0  0  0  0  0  0  0
    2.4770   -1.4410    0.1040 C   0  0  0  0  0  0  0  0  0  0  0  0
   -4.6720    1.3130   -0.8310 O   0  0  0  0  0  0  0  0  0  0  0  0
   -5.8290    1.7220   -0.2010 C   0  0  1  0  0  0  0  0  0  0  0  0
   -6.1540    3.1620   -0.4500 C   0  0  0  0  0  0  0  0  0  0  0  0
   -5.0760    4.0690    0.0510 C   0  0  0  0  0  0  0  0  0  0  0  0
   -4.5370    5.0130   -0.8610 N   0  0  0  0  0  0  0  0  0  0  0  0
   -4.6550    4.0010    1.2330 O   0  0  0  0  0  0  0  0  0  0  0  0
   -7.0200    0.8700   -0.4280 C   0  0  0  0  0  0  0  0  0  0  0  0
  1  2  1  0
  2  3  1  0
  3  4  1  0
  4  5  1  1
  4  6  1  0
  4 40  1  0
  6  7  1  0
  7  8  1  6
  7 34  1  0
  8  9  1  0
  9 10  1  0
 10 11  1  0
 10 12  1  0
 12 13  2  0
 12 14  1  0
 14 15  1  0
 15 16  2  0
 15 33  1  0
 16 17  1  0
 17 18  2  0
 18 19  1  0
 19 20  1  0
 19 33  2  0
 20 21  1  0
 21 22  1  0
 22 23  2  0
 22 24  1  0
 24 25  1  0
 24 32  1  0
 25 26  1  0
 26 27  1  6
 26 28  1  0
 28 29  1  1
 28 32  1  0
 29 30  1  0
 29 31  2  0
 34 35  1  0
 35 36  1  6
 35 40  1  0
 36 37  1  0
 37 38  1  0
 37 39  2  0
M  END
