
     RDKit          3D

 40 42  0  0  0  0  0  0  0  0999 V2000
   -3.2390    7.2910   -2.1530 C   0  0  0  0  0  0  0  0  0  0  0  0
   -3.5010    6.3830   -1.0030 C   0  0  0  0  0  0  0  0  0  0  0  0
   -2.7060    5.2640   -0.8030 C   0  0  0  0  0  0  0  0  0  0  0  0
   -2.9230    4.4130    0.2470 C   0  0  0  0  0  0  0  0  0  0  0  0
   -2.1230    3.2710    0.4360 N   0  0  0  0  0  0  0  0  0  0  0  0
   -1.3070    2.5970   -0.4920 C   0  0  0  0  0  0  0  0  0  0  0  0
   -1.2820    3.0490   -1.6930 O   0  0  0  0  0  0  0  0  0  0  0  0
   -0.5290    1.4590   -0.1470 N   0  0  0  0  0  0  0  0  0  0  0  0
    0.2770    0.8190   -1.1520 C   0  0  1  0  0  0  0  0  0  0  0  0
    1.7090    1.0550   -0.7930 C   0  0  0  0  0  0  0  0  0  0  0  0
    2.9600    0.4070   -1.8520 S   0  0  0  0  0  0  0  0  0  0  0  0
    3.2760   -1.3300   -1.8410 C   0  0  0  0  0  0  0  0  0  0  0  0
    3.9240   -1.8240   -0.5550 C   0  0  0  0  0  0  0  0  0  0  0  0
    5.2470   -1.1580   -0.3530 C   0  0  0  0  0  0  0  0  0  0  0  0
    5.6150   -0.2990   -1.1930 O   0  0  0  0  0  0  0  0  0  0  0  0
    6.0710   -1.4520    0.7080 O   0  0  0  0  0  0  0  0  0  0  0  0
    7.3310   -0.8300    0.9130 C   0  0  1  0  0  0  0  0  0  0  0  0
    7.3890   -0.3070    2.3150 C   0  0  0  0  0  0  0  0  0  0  0  0
    7.8270   -1.4960    3.1350 C   0  0  0  0  0  0  0  0  0  0  0  0
    8.8560   -2.1710    2.2460 C   0  0  0  0  0  0  0  0  0  0  0  0
    8.4440   -1.8730    0.8300 C   0  0  0  0  0  0  0  0  0  0  0  0
   -0.1430   -0.5750   -1.4590 C   0  0  1  0  0  0  0  0  0  0  0  0
   -0.0120   -1.5320   -0.3320 C   0  0  0  0  0  0  0  0  0  0  0  0
   -0.8600   -2.7070   -0.4050 N   0  0  0  0  0  0  0  0  0  0  0  0
   -0.9190   -3.2740    0.9550 C   0  0  0  0  0  0  0  0  0  0  0  0
   -1.7370   -4.4870    0.9900 C   0  0  0  0  0  0  0  0  0  0  0  0
   -1.9380   -5.0770    2.0730 O   0  0  0  0  0  0  0  0  0  0  0  0
   -2.3100   -5.0180   -0.1600 O   0  0  0  0  0  0  0  0  0  0  0  0
   -3.0950   -6.2000   -0.0570 C   0  0  1  0  0  0  0  0  0  0  0  0
   -4.4790   -5.8960   -0.5470 C   0  0  0  0  0  0  0  0  0  0  0  0
   -2.5230   -7.3100   -0.9170 C   0  0  0  0  0  0  0  0  0  0  0  0
   -3.3250   -8.4250   -0.7800 O   0  0  0  0  0  0  0  0  0  0  0  0
   -2.2290   -2.3540   -0.7290 C   0  0  0  0  0  0  0  0  0  0  0  0
   -2.3500   -0.8700   -1.0070 C   0  0  0  0  0  0  0  0  0  0  0  0
   -1.4640   -0.5590   -1.9850 O   0  0  0  0  0  0  0  0  0  0  0  0
   -3.9720    4.7130    1.1090 C   0  0  0  0  0  0  0  0  0  0  0  0
   -4.7610    5.8200    0.9150 C   0  0  0  0  0  0  0  0  0  0  0  0
   -5.8930    6.1400    1.8400 C   0  0  0  0  0  0  0  0  0  0  0  0
   -4.5370    6.6720   -0.1440 C   0  0  0  0  0  0  0  0  0  0  0  0
   -5.3440    7.8890   -0.4160 C   0  0  0  0  0  0  0  0  0  0  0  0
  1  2  1  0
  2  3  2  0
  2 39  1  0
  3  4  1  0
  4  5  1  0
  4 36  2  0
  5  6  1  0
  6  7  2  0
  6  8  1  0
  8  9  1  0
  9 10  1  1
  9 22  1  0
 10 11  1  0
 11 12  1  0
 12 13  1  0
 13 14  1  0
 14 15  2  0
 14 16  1  0
 17 16  1  1
 17 18  1  0
 17 21  1  0
 18 19  1  0
 19 20  1  0
 20 21  1  0
 22 23  1  1
 22 35  1  0
 23 24  1  0
 24 25  1  0
 24 33  1  0
 25 26  1  0
 26 27  2  0
 26 28  1  0
 28 29  1  0
 29 30  1  6
 29 31  1  0
 31 32  1  0
 33 34  1  0
 34 35  1  0
 36 37  1  0
 37 38  1  0
 37 39  2  0
 39 40  1  0
M  END
