
     RDKit          3D

 40 43  0  0  0  0  0  0  0  0999 V2000
    3.4260    6.9400    0.4180 C   0  0  0  0  0  0  0  0  0  0  0  0
    2.4390    5.8610   -0.0150 C   0  0  0  0  0  0  0  0  0  0  0  0
    3.1550    4.6320    0.0340 O   0  0  0  0  0  0  0  0  0  0  0  0
    2.6190    3.4150   -0.2850 C   0  0  0  0  0  0  0  0  0  0  0  0
    1.4140    3.3800   -0.6440 O   0  0  0  0  0  0  0  0  0  0  0  0
    3.3720    2.1610   -0.2280 C   0  0  0  0  0  0  0  0  0  0  0  0
    4.6890    1.9710    0.1350 C   0  0  0  0  0  0  0  0  0  0  0  0
    5.6210    3.0650    0.5540 C   0  0  0  0  0  0  0  0  0  0  0  0
    4.9790    0.6610    0.0480 N   0  0  0  0  0  0  0  0  0  0  0  0
    3.9030   -0.0280   -0.3600 C   0  0  0  0  0  0  0  0  0  0  0  0
    3.7570   -1.4600   -0.5920 C   0  0  0  0  0  0  0  0  0  0  0  0
    2.6740   -1.9690   -0.9780 O   0  0  0  0  0  0  0  0  0  0  0  0
    4.8390   -2.3610   -0.3910 N   0  0  0  0  0  0  0  0  0  0  0  0
    4.6770   -3.8030   -0.6290 C   0  0  0  0  0  0  0  0  0  0  0  0
    5.9270   -4.5160   -0.3540 C   0  0  0  0  0  0  0  0  0  0  0  0
    7.0260   -4.8220   -1.1210 C   0  0  0  0  0  0  0  0  0  0  0  0
    8.0390   -5.4990   -0.6010 C   0  0  0  0  0  0  0  0  0  0  0  0
    8.0280   -5.9060    0.6780 C   0  0  0  0  0  0  0  0  0  0  0  0
    6.3730   -5.2510    1.2290 S   0  0  0  0  0  0  0  0  0  0  0  0
    2.9000    0.9010   -0.5330 C   0  0  0  0  0  0  0  0  0  0  0  0
    1.5180    0.6180   -0.9770 C   0  0  0  0  0  0  0  0  0  0  0  0
    1.2750    0.6420   -2.1970 O   0  0  0  0  0  0  0  0  0  0  0  0
    0.5090    0.3320   -0.1030 O   0  0  0  0  0  0  0  0  0  0  0  0
   -0.8240    0.0550   -0.4800 C   0  0  0  0  0  0  0  0  0  0  0  0
   -1.6560   -0.2110    0.7190 C   0  0  0  0  0  0  0  0  0  0  0  0
   -1.0770   -0.1560    1.8370 O   0  0  0  0  0  0  0  0  0  0  0  0
   -3.0350   -0.5140    0.6370 N   0  0  0  0  0  0  0  0  0  0  0  0
   -3.7660   -0.7470    1.8950 C   0  0  0  0  0  0  0  0  0  0  0  0
   -5.0870    0.0150    1.8560 C   0  0  1  0  0  0  0  0  0  0  0  0
   -4.8820    1.4900    2.0220 C   0  0  0  0  0  0  0  0  0  0  0  0
   -5.0910    2.2980    0.7850 C   0  0  2  0  0  0  0  0  0  0  0  0
   -6.5280    2.7990    0.6930 C   0  0  0  0  0  0  0  0  0  0  0  0
   -4.6700    1.6440   -0.4870 C   0  0  0  0  0  0  0  0  0  0  0  0
   -5.0430    0.1810   -0.5770 C   0  0  2  0  0  0  0  0  0  0  0  0
   -5.8490   -0.2780    0.5890 C   0  0  0  0  0  0  0  0  0  0  0  0
   -3.7170   -0.5860   -0.6260 C   0  0  2  0  0  0  0  0  0  0  0  0
   -4.0280   -1.9720   -1.0710 C   0  0  0  0  0  0  0  0  0  0  0  0
   -2.8270   -2.8600   -1.2590 C   0  0  0  0  0  0  0  0  0  0  0  0
   -3.2530   -4.2570   -1.7060 C   0  0  0  0  0  0  0  0  0  0  0  0
   -4.0800   -4.8640   -0.7790 O   0  0  0  0  0  0  0  0  0  0  0  0
  1  2  1  0
  2  3  1  0
  3  4  1  0
  4  5  2  0
  4  6  1  0
  6  7  2  0
  6 20  1  0
  7  8  1  0
  7  9  1  0
  9 10  1  0
 10 11  1  0
 10 20  2  0
 11 12  2  0
 11 13  1  0
 13 14  1  0
 14 15  1  0
 15 16  2  0
 15 19  1  0
 16 17  1  0
 17 18  2  0
 18 19  1  0
 20 21  1  0
 21 22  2  0
 21 23  1  0
 23 24  1  0
 24 25  1  0
 25 26  2  0
 25 27  1  0
 27 28  1  0
 27 36  1  0
 29 28  1  6
 29 30  1  0
 29 35  1  0
 30 31  1  0
 31 32  1  6
 31 33  1  0
 34 33  1  1
 34 35  1  0
 34 36  1  0
 36 37  1  1
 37 38  1  0
 38 39  1  0
 39 40  1  0
M  END
