
     RDKit          3D

 40 42  0  0  0  0  0  0  0  0999 V2000
    1.3200    3.1960   -1.1890 C   0  0  0  0  0  0  0  0  0  0  0  0
    0.0440    2.3420   -1.3970 C   0  0  0  0  0  0  0  0  0  0  0  0
    0.2870    0.9650   -0.8590 C   0  0  1  0  0  0  0  0  0  0  0  0
   -0.7970   -0.0170   -0.9370 C   0  0  0  0  0  0  0  0  0  0  0  0
   -1.3960   -0.4780   -2.1760 C   0  0  0  0  0  0  0  0  0  0  0  0
   -2.0540    0.4490   -3.1130 C   0  0  0  0  0  0  0  0  0  0  0  0
   -3.1760    1.2070   -2.5370 C   0  0  0  0  0  0  0  0  0  0  0  0
   -3.8390    2.0660   -3.1650 O   0  0  0  0  0  0  0  0  0  0  0  0
   -3.5360    0.9710   -1.2220 O   0  0  0  0  0  0  0  0  0  0  0  0
   -4.5850    1.6270   -0.5540 C   0  0  2  0  0  0  0  0  0  0  0  0
   -4.1640    2.3710    0.6680 C   0  0  0  0  0  0  0  0  0  0  0  0
   -5.6280    0.5500   -0.2420 C   0  0  0  0  0  0  0  0  0  0  0  0
   -6.8000    1.1720    0.4830 C   0  0  0  0  0  0  0  0  0  0  0  0
   -7.8570    0.1430    0.8080 C   0  0  2  0  0  0  0  0  0  0  0  0
   -7.2530   -0.9110    1.6800 C   0  0  0  0  0  0  0  0  0  0  0  0
   -8.3490   -1.8090    2.2590 C   0  0  0  0  0  0  0  0  0  0  0  0
   -9.5920   -1.6330    1.4390 C   0  0  0  0  0  0  0  0  0  0  0  0
   -9.2760   -1.6800   -0.0330 C   0  0  2  0  0  0  0  0  0  0  0  0
   -8.3950   -3.2090   -0.4010 S   0  0  0  0  0  0  0  0  0  0  0  0
   -8.4740   -0.4710   -0.4180 C   0  0  0  0  0  0  0  0  0  0  0  0
    1.6080    0.4710   -1.2370 N   0  0  0  0  0  0  0  0  0  0  0  0
    2.0550    0.1230   -2.5410 C   0  0  0  0  0  0  0  0  0  0  0  0
    1.4530    0.1620   -3.6370 O   0  0  0  0  0  0  0  0  0  0  0  0
    3.4380   -0.3290   -2.4320 C   0  0  0  0  0  0  0  0  0  0  0  0
    3.8600   -0.2820   -1.1770 C   0  0  0  0  0  0  0  0  0  0  0  0
    5.1560   -0.6490   -0.7050 N   0  0  0  0  0  0  0  0  0  0  0  0
    5.9970    0.2870   -0.0450 C   0  0  0  0  0  0  0  0  0  0  0  0
    5.6510    1.4610    0.1550 O   0  0  0  0  0  0  0  0  0  0  0  0
    7.3030   -0.1680    0.4050 C   0  0  0  0  0  0  0  0  0  0  0  0
    8.2360    0.6070    1.0570 C   0  0  0  0  0  0  0  0  0  0  0  0
    9.3310   -0.1830    1.3110 C   0  0  0  0  0  0  0  0  0  0  0  0
    9.0300   -1.4280    0.8020 C   0  0  0  0  0  0  0  0  0  0  0  0
    9.9630   -2.5890    0.8720 C   0  0  0  0  0  0  0  0  0  0  0  0
   11.2640   -2.1930    1.3650 N   0  0  0  0  0  0  0  0  0  0  0  0
   12.0640   -1.2410    0.6880 C   0  0  0  0  0  0  0  0  0  0  0  0
   13.4030   -0.8070    1.1630 C   0  0  0  0  0  0  0  0  0  0  0  0
   11.6060   -0.7370   -0.3760 O   0  0  0  0  0  0  0  0  0  0  0  0
    7.8380   -1.3660    0.2850 O   0  0  0  0  0  0  0  0  0  0  0  0
    2.7310    0.2170   -0.4040 C   0  0  0  0  0  0  0  0  0  0  0  0
    2.7630    0.3940    0.8370 O   0  0  0  0  0  0  0  0  0  0  0  0
  1  2  1  0
  3  2  1  6
  3  4  1  0
  3 21  1  0
  4  5  1  0
  5  6  1  0
  6  7  1  0
  7  8  2  0
  7  9  1  0
  9 10  1  0
 10 11  1  1
 10 12  1  0
 12 13  1  0
 14 13  1  6
 14 15  1  0
 14 20  1  0
 15 16  1  0
 16 17  1  0
 17 18  1  0
 18 19  1  1
 18 20  1  0
 21 22  1  0
 21 39  1  0
 22 23  2  0
 22 24  1  0
 24 25  2  0
 25 26  1  0
 25 39  1  0
 26 27  1  0
 27 28  2  0
 27 29  1  0
 29 30  2  0
 29 38  1  0
 30 31  1  0
 31 32  2  0
 32 33  1  0
 32 38  1  0
 33 34  1  0
 34 35  1  0
 35 36  1  0
 35 37  2  0
 39 40  2  0
M  END
