
     RDKit          3D

 30 33  0  0  0  0  0  0  0  0999 V2000
    8.1900    1.2170    1.6060 C   0  0  0  0  0  0  0  0  0  0  0  0
    8.4290   -0.1500    1.0550 C   0  0  0  0  0  0  0  0  0  0  0  0
    7.4000   -0.5460    0.0160 C   0  0  1  0  0  0  0  0  0  0  0  0
    6.0330   -0.5520    0.5510 C   0  0  0  0  0  0  0  0  0  0  0  0
    5.3010    0.2570   -0.1960 C   0  0  0  0  0  0  0  0  0  0  0  0
    3.8630    0.5570   -0.0220 C   0  0  0  0  0  0  0  0  0  0  0  0
    3.2330    0.0090    0.9180 O   0  0  0  0  0  0  0  0  0  0  0  0
    3.2480    1.4550   -0.9270 N   0  0  0  0  0  0  0  0  0  0  0  0
    1.9010    1.7400   -0.7700 N   0  0  0  0  0  0  0  0  0  0  0  0
    0.9860    0.8560   -0.7600 C   0  0  0  0  0  0  0  0  0  0  0  0
    1.2300   -0.9060   -0.9410 S   0  0  0  0  0  0  0  0  0  0  0  0
   -0.5100   -1.3480   -0.8100 C   0  0  0  0  0  0  0  0  0  0  0  0
   -1.0850   -0.0960   -0.6410 C   0  0  0  0  0  0  0  0  0  0  0  0
   -2.5480   -0.0510   -0.4910 N   0  0  0  0  0  0  0  0  0  0  0  0
   -3.2220   -0.6300   -1.3960 C   0  0  0  0  0  0  0  0  0  0  0  0
   -4.6380   -0.6270   -1.3130 N   0  0  0  0  0  0  0  0  0  0  0  0
   -5.2330   -0.9620   -0.0690 C   0  0  0  0  0  0  0  0  0  0  0  0
   -4.7190   -1.3880    1.1120 C   0  0  0  0  0  0  0  0  0  0  0  0
   -5.7120   -1.5880    1.9910 N   0  0  0  0  0  0  0  0  0  0  0  0
   -6.8930   -1.3100    1.4430 C   0  0  0  0  0  0  0  0  0  0  0  0
   -8.1440   -1.3520    1.9000 N   0  0  0  0  0  0  0  0  0  0  0  0
   -9.1600   -1.0030    1.0840 C   0  0  0  0  0  0  0  0  0  0  0  0
  -10.7960   -1.0810    1.7540 Cl  0  0  0  0  0  0  0  0  0  0  0  0
   -8.9480   -0.6010   -0.2170 C   0  0  0  0  0  0  0  0  0  0  0  0
   -7.6530   -0.5570   -0.6900 C   0  0  0  0  0  0  0  0  0  0  0  0
   -6.6200   -0.9180    0.1550 C   0  0  0  0  0  0  0  0  0  0  0  0
   -0.3380    0.9620   -0.6200 N   0  0  0  0  0  0  0  0  0  0  0  0
   -0.8780    2.3600   -0.4430 C   0  0  0  0  0  0  0  0  0  0  0  0
    6.1730    0.8030   -1.2270 C   0  0  0  0  0  0  0  0  0  0  0  0
    7.3630    0.3390   -1.0960 N   0  0  0  0  0  0  0  0  0  0  0  0
  1  2  1  0
  3  2  1  1
  3  4  1  0
  3 30  1  0
  4  5  2  0
  5  6  1  0
  5 29  1  0
  6  7  2  0
  6  8  1  0
  8  9  1  0
  9 10  2  3
 10 11  1  0
 10 27  1  0
 11 12  1  0
 12 13  2  0
 13 14  1  0
 13 27  1  0
 14 15  2  3
 15 16  1  0
 16 17  1  0
 17 18  2  0
 17 26  1  0
 18 19  1  0
 19 20  1  0
 20 21  2  0
 20 26  1  0
 21 22  1  0
 22 23  1  0
 22 24  2  0
 24 25  1  0
 25 26  2  0
 27 28  1  0
 29 30  2  0
M  CHG  1  14   1
M  END
