
     RDKit          3D

 30 33  0  0  0  0  0  0  0  0999 V2000
    1.7860   -1.7230   -1.0170 O   0  0  0  0  0  0  0  0  0  0  0  0
    2.5800   -0.7470   -0.7080 C   0  0  0  0  0  0  0  0  0  0  0  0
    4.0230   -1.0390   -0.6610 C   0  0  0  0  0  0  0  0  0  0  0  0
    4.9030   -0.1270   -0.3620 C   0  0  0  0  0  0  0  0  0  0  0  0
    6.3640   -0.1750   -0.2520 C   0  0  0  0  0  0  0  0  0  0  0  0
    6.9810   -1.7960   -0.6040 S   0  0  0  0  0  0  0  0  0  0  0  0
    7.8920   -2.3370    0.4840 O   0  0  0  0  0  0  0  0  0  0  0  0
    5.6440   -2.8420   -0.9740 C   0  0  0  0  0  0  0  0  0  0  0  0
    5.9260   -4.1730   -1.2810 O   0  0  0  0  0  0  0  0  0  0  0  0
    4.4130   -2.4340   -0.9750 C   0  0  0  0  0  0  0  0  0  0  0  0
    3.1720   -3.6240   -1.3730 Cl  0  0  0  0  0  0  0  0  0  0  0  0
    1.8910    0.5050   -0.4550 C   0  0  1  0  0  0  0  0  0  0  0  0
    0.6980    0.2820    0.5180 C   0  0  0  0  0  0  0  0  0  0  0  0
    0.0110    1.5450    0.5760 N   0  0  0  0  0  0  0  0  0  0  0  0
   -1.3100    1.7990    0.1640 C   0  0  0  0  0  0  0  0  0  0  0  0
   -2.0950    0.8070   -0.3680 C   0  0  0  0  0  0  0  0  0  0  0  0
   -3.4000    1.0650   -0.7730 C   0  0  0  0  0  0  0  0  0  0  0  0
   -4.2220   -0.0360   -1.3440 C   0  0  0  0  0  0  0  0  0  0  0  0
   -4.9710   -0.6260   -0.2370 N   0  0  0  0  0  0  0  0  0  0  0  0
   -6.2760   -0.1070    0.1600 C   0  0  0  0  0  0  0  0  0  0  0  0
   -7.0810   -1.6180    0.7660 S   0  0  0  0  0  0  0  0  0  0  0  0
   -5.6080   -2.6750    0.8810 C   0  0  0  0  0  0  0  0  0  0  0  0
   -4.5400   -1.6970    0.5460 C   0  0  0  0  0  0  0  0  0  0  0  0
   -3.3450   -1.8860    0.9760 O   0  0  0  0  0  0  0  0  0  0  0  0
   -3.9140    2.3220   -0.6420 C   0  0  0  0  0  0  0  0  0  0  0  0
   -3.1150    3.3090   -0.1070 C   0  0  0  0  0  0  0  0  0  0  0  0
   -1.8660    3.0220    0.2700 N   0  0  0  0  0  0  0  0  0  0  0  0
    0.7920    2.6650    1.1250 C   0  0  0  0  0  0  0  0  0  0  0  0
    2.2410    2.2140    1.0710 C   0  0  0  0  0  0  0  0  0  0  0  0
    2.5740    1.6170   -0.1200 O   0  0  0  0  0  0  0  0  0  0  0  0
  1  2  2  0
  2  3  1  0
 12  2  1  1
  3  4  2  0
  3 10  1  0
  4  5  1  0
  6  5  1  1
  6  7  2  0
  6  8  1  0
  8  9  1  0
  8 10  2  0
 10 11  1  0
 12 13  1  0
 12 30  1  0
 13 14  1  0
 14 15  1  0
 14 28  1  0
 15 16  2  0
 15 27  1  0
 16 17  1  0
 17 18  1  0
 17 25  2  0
 18 19  1  0
 19 20  1  0
 19 23  1  0
 20 21  1  0
 21 22  1  0
 22 23  1  0
 23 24  2  0
 25 26  1  0
 26 27  2  0
 28 29  1  0
 29 30  1  0
M  END
