
     RDKit          3D

 30 33  0  0  0  0  0  0  0  0999 V2000
   -5.4530   -0.0980    2.6690 C   0  0  0  0  0  0  0  0  0  0  0  0
   -4.2270    0.2400    1.8530 C   0  0  0  0  0  0  0  0  0  0  0  0
   -3.8490   -0.6430    0.9370 C   0  0  0  0  0  0  0  0  0  0  0  0
   -2.6310   -0.2900    0.1770 C   0  0  0  0  0  0  0  0  0  0  0  0
   -1.8930   -1.2870   -0.2970 C   0  0  0  0  0  0  0  0  0  0  0  0
   -2.2280   -2.6540   -0.1120 N   0  0  0  0  0  0  0  0  0  0  0  0
   -0.6350   -0.9530   -0.9690 C   0  0  0  0  0  0  0  0  0  0  0  0
    0.1480   -1.8520   -1.4530 N   0  0  0  0  0  0  0  0  0  0  0  0
    1.3540   -1.5860   -2.1000 N   0  0  0  0  0  0  0  0  0  0  0  0
    2.2040   -2.6420   -2.6310 C   0  0  0  0  0  0  0  0  0  0  0  0
    1.7730   -0.2100   -2.2460 C   0  0  0  0  0  0  0  0  0  0  0  0
    2.9550    0.0490   -2.8930 N   0  0  0  0  0  0  0  0  0  0  0  0
    3.9930    0.7020   -2.6950 C   0  0  0  0  0  0  0  0  0  0  0  0
    5.0580    0.7220   -3.6700 N   0  0  0  0  0  0  0  0  0  0  0  0
    4.1670    1.4430   -1.4920 N   0  0  0  0  0  0  0  0  0  0  0  0
    3.6850    0.9230   -0.2460 C   0  0  0  0  0  0  0  0  0  0  0  0
    3.4940   -0.3220   -0.1550 N   0  0  0  0  0  0  0  0  0  0  0  0
    3.0240   -1.0450    0.9750 C   0  0  1  0  0  0  0  0  0  0  0  0
    4.3160   -2.2600    1.4070 S   0  0  0  0  0  0  0  0  0  0  0  0
    2.7670   -0.1900    2.0490 O   0  0  0  0  0  0  0  0  0  0  0  0
    2.9610    1.1700    1.9950 C   0  0  0  0  0  0  0  0  0  0  0  0
    3.4070    1.7670    0.9030 C   0  0  0  0  0  0  0  0  0  0  0  0
    3.6660    3.4780    0.7950 Cl  0  0  0  0  0  0  0  0  0  0  0  0
    0.9890    0.7070   -1.7600 N   0  0  0  0  0  0  0  0  0  0  0  0
   -0.2470    0.4430   -1.0980 C   0  0  0  0  0  0  0  0  0  0  0  0
   -1.0210    1.3910   -0.6320 C   0  0  0  0  0  0  0  0  0  0  0  0
   -2.2950    1.1250    0.0170 C   0  0  2  0  0  0  0  0  0  0  0  0
   -2.7310    1.9990    1.0890 C   0  0  0  0  0  0  0  0  0  0  0  0
   -3.6450    1.5820    1.9400 C   0  0  0  0  0  0  0  0  0  0  0  0
   -4.1500    2.4450    3.0490 C   0  0  0  0  0  0  0  0  0  0  0  0
  1  2  1  0
  2  3  2  0
  2 29  1  0
  3  4  1  0
  4  5  2  0
  4 27  1  0
  5  6  1  0
  5  7  1  0
  7  8  2  0
  7 25  1  0
  8  9  1  0
  9 10  1  0
  9 11  1  0
 11 12  1  0
 11 24  2  0
 12 13  2  3
 13 14  1  0
 13 15  1  0
 15 16  1  0
 16 17  2  0
 16 22  1  0
 17 18  1  0
 18 19  1  1
 18 20  1  0
 20 21  1  0
 21 22  2  0
 22 23  1  0
 24 25  1  0
 25 26  2  0
 27 26  1  1
 27 28  1  0
 28 29  2  0
 29 30  1  0
M  CHG  1   6   1
M  END
