
     RDKit          3D

 18 17  0  0  0  0  0  0  0  0999 V2000
   -4.0620   -0.3210    0.6840 C   0  0  0  0  0  0  0  0  0  0  0  0
   -2.6050   -0.2130    0.3540 C   0  0  0  0  0  0  0  0  0  0  0  0
   -1.7890   -1.2010    0.4920 N   0  0  0  0  0  0  0  0  0  0  0  0
   -2.3340   -2.4490    0.9900 C   0  0  0  0  0  0  0  0  0  0  0  0
   -2.0220   -2.6850    2.3130 O   0  0  0  0  0  0  0  0  0  0  0  0
   -2.0570    1.0040   -0.1360 N   0  0  0  0  0  0  0  0  0  0  0  0
   -0.6580    1.2350    0.0200 C   0  0  1  0  0  0  0  0  0  0  0  0
   -0.3140    1.2220    1.3930 O   0  0  0  0  0  0  0  0  0  0  0  0
    0.1210    0.2110   -0.5500 O   0  0  0  0  0  0  0  0  0  0  0  0
    1.4410    0.5790   -0.3000 C   0  0  0  0  0  0  0  0  0  0  0  0
    2.4280   -0.4210   -0.8480 C   0  0  0  0  0  0  0  0  0  0  0  0
    3.7040    0.0500   -0.5400 O   0  0  0  0  0  0  0  0  0  0  0  0
    4.8410   -1.1010   -1.1710 P   0  0  0  0  0  0  0  0  0  0  0  0
    6.2730   -1.0580   -0.2020 O   0  0  0  0  0  0  0  0  0  0  0  0
    4.0950   -2.6500   -1.1660 O   0  0  0  0  0  0  0  0  0  0  0  0
   -0.0850    2.8300   -0.6760 P   0  0  0  0  0  0  0  0  0  0  0  0
   -0.1740    4.1370    0.4300 O   0  0  0  0  0  0  0  0  0  0  0  0
   -0.6910    3.1810   -2.2300 O   0  0  0  0  0  0  0  0  0  0  0  0
  1  2  1  0
  2  3  2  3
  2  6  1  0
  3  4  1  0
  4  5  1  0
  6  7  1  0
  7  8  1  1
  7  9  1  0
  7 16  1  0
  9 10  1  0
 10 11  1  0
 11 12  1  0
 12 13  1  0
 13 14  1  0
 13 15  1  0
 16 17  1  0
 16 18  1  0
M  END
