
     RDKit          3D

  8  7  0  0  0  0  0  0  0  0999 V2000
   -1.8720   -1.3160    0.4740 N   0  0  0  0  0  0  0  0  0  0  0  0
   -1.5150    0.0760    0.2620 C   0  0  2  0  0  0  0  0  0  0  0  0
   -2.5140    0.6590   -0.4840 O   0  0  0  0  0  0  0  0  0  0  0  0
   -0.1620    0.1850   -0.4130 C   0  0  0  0  0  0  0  0  0  0  0  0
    0.8250   -0.4060    0.3760 O   0  0  0  0  0  0  0  0  0  0  0  0
    2.3270   -0.2250   -0.4870 P   0  0  0  0  0  0  0  0  0  0  0  0
    2.6320    1.4510   -0.7970 O   0  0  0  0  0  0  0  0  0  0  0  0
    3.6280   -0.8530    0.4660 O   0  0  0  0  0  0  0  0  0  0  0  0
  2  1  1  6
  2  3  1  0
  2  4  1  0
  4  5  1  0
  5  6  1  0
  6  7  1  0
  6  8  1  0
M  END
