
     RDKit          3D

 17 16  0  0  0  0  0  0  0  0999 V2000
    0.7730   -1.1140    0.3800 O   0  0  0  0  0  0  0  0  0  0  0  0
    0.4270   -0.2490   -0.4410 C   0  0  0  0  0  0  0  0  0  0  0  0
    1.4820    0.3690   -1.1740 O   0  0  0  0  0  0  0  0  0  0  0  0
    2.8190    0.0480   -0.9850 C   0  0  0  0  0  0  0  0  0  0  0  0
    3.3040    0.3280    0.3620 N   0  0  0  0  0  0  0  0  0  0  0  0
    5.0130   -0.1250    0.5580 P   0  0  0  0  0  0  0  0  0  0  0  0
    6.0940    1.2040    0.5560 O   0  0  0  0  0  0  0  0  0  0  0  0
    5.4530   -1.2650   -0.6780 O   0  0  0  0  0  0  0  0  0  0  0  0
   -0.9690    0.1500   -0.6890 C   0  0  2  0  0  0  0  0  0  0  0  0
   -1.2220    1.4370    0.0750 C   0  0  0  0  0  0  0  0  0  0  0  0
   -2.9160    2.0920   -0.1250 P   0  0  0  0  0  0  0  0  0  0  0  0
   -2.9570    3.1520   -1.5170 O   0  0  0  0  0  0  0  0  0  0  0  0
   -3.2680    3.1200    1.2570 O   0  0  0  0  0  0  0  0  0  0  0  0
   -1.9310   -0.8560   -0.4210 N   0  0  0  0  0  0  0  0  0  0  0  0
   -2.0520   -1.3170    0.9290 C   0  0  0  0  0  0  0  0  0  0  0  0
   -3.1830   -2.3650    0.9400 C   0  0  0  0  0  0  0  0  0  0  0  0
   -2.8720   -3.4180    0.1000 O   0  0  0  0  0  0  0  0  0  0  0  0
  1  2  2  0
  2  3  1  0
  2  9  1  0
  3  4  1  0
  4  5  1  0
  5  6  1  0
  6  7  1  0
  6  8  1  0
  9 10  1  1
  9 14  1  0
 10 11  1  0
 11 12  1  0
 11 13  1  0
 14 15  1  0
 15 16  1  0
 16 17  1  0
M  END
