
     RDKit          3D

  8  7  0  0  0  0  0  0  0  0999 V2000
    2.5620    0.5120    0.2230 C   0  0  0  0  0  0  0  0  0  0  0  0
    1.5220   -0.4920    0.2850 N   0  0  0  0  0  0  0  0  0  0  0  0
    0.1940   -0.2730   -0.1190 C   0  0  0  0  0  0  0  0  0  0  0  0
   -0.1270    0.8490   -0.5600 O   0  0  0  0  0  0  0  0  0  0  0  0
   -0.8010   -1.2360   -0.0600 O   0  0  0  0  0  0  0  0  0  0  0  0
   -2.4540   -0.9280   -0.5740 P   0  0  0  0  0  0  0  0  0  0  0  0
   -3.3500   -0.3260    0.8090 O   0  0  0  0  0  0  0  0  0  0  0  0
   -2.4430    0.3460   -1.7510 O   0  0  0  0  0  0  0  0  0  0  0  0
  1  2  1  0
  2  3  1  0
  3  4  2  0
  3  5  1  0
  5  6  1  0
  6  7  1  0
  6  8  1  0
M  END
