
     RDKit          3D

 17 16  0  0  0  0  0  0  0  0999 V2000
    1.3360    0.4610   -1.1270 O   0  0  0  0  0  0  0  0  0  0  0  0
    1.3550   -0.4590   -0.2890 C   0  0  0  0  0  0  0  0  0  0  0  0
    2.5240   -1.1350    0.0700 N   0  0  0  0  0  0  0  0  0  0  0  0
    3.8320   -0.8630   -0.4480 C   0  0  0  0  0  0  0  0  0  0  0  0
    4.3630    0.4960   -0.1620 C   0  0  0  0  0  0  0  0  0  0  0  0
    3.5900    1.4970   -0.6770 O   0  0  0  0  0  0  0  0  0  0  0  0
    0.0900   -0.7930    0.2970 N   0  0  0  0  0  0  0  0  0  0  0  0
   -1.1320   -0.1360   -0.0350 C   0  0  2  0  0  0  0  0  0  0  0  0
   -1.4670   -0.2820   -1.4980 C   0  0  0  0  0  0  0  0  0  0  0  0
   -1.5890   -1.6410   -1.7790 O   0  0  0  0  0  0  0  0  0  0  0  0
   -1.1100    1.3440    0.3700 C   0  0  0  0  0  0  0  0  0  0  0  0
   -2.7580    2.0430   -0.1270 P   0  0  0  0  0  0  0  0  0  0  0  0
   -3.1430    3.4740    0.7570 O   0  0  0  0  0  0  0  0  0  0  0  0
   -4.0130    0.8710   -0.0810 O   0  0  0  0  0  0  0  0  0  0  0  0
   -2.5210   -0.9000    0.9300 P   0  0  0  0  0  0  0  0  0  0  0  0
   -3.2190   -2.2420    0.1120 O   0  0  0  0  0  0  0  0  0  0  0  0
   -2.0810   -1.2530    2.5510 O   0  0  0  0  0  0  0  0  0  0  0  0
  1  2  2  0
  2  3  1  0
  2  7  1  0
  3  4  1  0
  4  5  1  0
  5  6  1  0
  7  8  1  0
  8  9  1  6
  8 11  1  0
  8 15  1  0
  9 10  1  0
 11 12  1  0
 12 13  1  0
 12 14  1  0
 15 16  1  0
 15 17  1  0
M  END
