
     RDKit          3D

  9  8  0  0  0  0  0  0  0  0999 V2000
    2.6350   -0.1950    0.4760 C   0  0  0  0  0  0  0  0  0  0  0  0
    1.2040   -0.6450    0.1400 C   0  0  0  0  0  0  0  0  0  0  0  0
    0.4780    0.5310   -0.3590 C   0  0  1  0  0  0  0  0  0  0  0  0
    1.1760    0.9780   -1.5110 O   0  0  0  0  0  0  0  0  0  0  0  0
   -0.8590    0.4390   -0.6860 N   0  0  0  0  0  0  0  0  0  0  0  0
   -1.8610    0.1270    0.2220 C   0  0  1  0  0  0  0  0  0  0  0  0
   -1.6230   -1.1290    0.7770 O   0  0  0  0  0  0  0  0  0  0  0  0
   -2.1460    1.0870    1.1800 O   0  0  0  0  0  0  0  0  0  0  0  0
   -3.0690   -0.0120   -0.5090 O   0  0  0  0  0  0  0  0  0  0  0  0
  1  2  1  0
  2  3  1  0
  3  4  1  6
  3  5  1  0
  5  6  1  0
  6  7  1  1
  6  8  1  0
  6  9  1  0
M  END
