
     RDKit          3D

 10  9  0  0  0  0  0  0  0  0999 V2000
   -1.1890    1.2440   -1.3310 N   0  0  0  0  0  0  0  0  0  0  0  0
   -0.9420    0.4430   -0.1220 C   0  0  2  0  0  0  0  0  0  0  0  0
   -1.1750    1.2410    0.9630 O   0  0  0  0  0  0  0  0  0  0  0  0
    0.5100    0.0480   -0.1660 C   0  0  0  0  0  0  0  0  0  0  0  0
    0.8900   -0.7200    0.9230 O   0  0  0  0  0  0  0  0  0  0  0  0
    2.2610   -1.0070    0.7410 C   0  0  0  0  0  0  0  0  0  0  0  0
    2.9160    0.2120    0.6990 O   0  0  0  0  0  0  0  0  0  0  0  0
   -1.8650   -0.6850   -0.1510 C   0  0  0  0  0  0  0  0  0  0  0  0
   -1.8680   -1.5750   -1.0460 O   0  0  0  0  0  0  0  0  0  0  0  0
   -2.8050   -0.7970    0.8650 O   0  0  0  0  0  0  0  0  0  0  0  0
  2  1  1  6
  2  3  1  0
  2  4  1  0
  2  8  1  0
  4  5  1  0
  5  6  1  0
  6  7  1  0
  8  9  2  0
  8 10  1  0
M  END
