
     RDKit          3D

  9  8  0  0  0  0  0  0  0  0999 V2000
    3.6020    0.0730   -0.2070 N   0  0  0  0  0  0  0  0  0  0  0  0
    2.5020   -0.6980   -0.0870 O   0  0  0  0  0  0  0  0  0  0  0  0
    1.3910    0.1510   -0.1100 C   0  0  0  0  0  0  0  0  0  0  0  0
    0.1030   -0.6640    0.0230 C   0  0  1  0  0  0  0  0  0  0  0  0
    0.1570   -1.3310    1.2090 O   0  0  0  0  0  0  0  0  0  0  0  0
   -1.0360    0.3190   -0.0900 C   0  0  2  0  0  0  0  0  0  0  0  0
   -0.9910    1.3070    0.8690 O   0  0  0  0  0  0  0  0  0  0  0  0
   -2.3820   -0.3790    0.0160 C   0  0  0  0  0  0  0  0  0  0  0  0
   -3.3790    0.5690   -0.2020 O   0  0  0  0  0  0  0  0  0  0  0  0
  1  2  1  0
  2  3  1  0
  3  4  1  0
  4  5  1  1
  4  6  1  0
  6  7  1  1
  6  8  1  0
  8  9  1  0
M  END
