
     RDKit          3D

 10  9  0  0  0  0  0  0  0  0999 V2000
    2.0930   -1.2520   -1.5520 O   0  0  0  0  0  0  0  0  0  0  0  0
    1.5280   -0.6850   -0.5560 C   0  0  0  0  0  0  0  0  0  0  0  0
    2.3140    0.2080    0.2290 N   0  0  0  0  0  0  0  0  0  0  0  0
    3.6270    0.4250   -0.1050 O   0  0  0  0  0  0  0  0  0  0  0  0
    0.1070   -0.9320   -0.2100 C   0  0  2  0  0  0  0  0  0  0  0  0
   -0.3870   -1.8600   -1.1520 O   0  0  0  0  0  0  0  0  0  0  0  0
   -0.6760    0.3660   -0.3670 C   0  0  2  0  0  0  0  0  0  0  0  0
   -0.2670    1.3370    0.5110 O   0  0  0  0  0  0  0  0  0  0  0  0
   -2.1430    0.0580   -0.3070 C   0  0  0  0  0  0  0  0  0  0  0  0
   -2.8580    1.2180   -0.6040 O   0  0  0  0  0  0  0  0  0  0  0  0
  1  2  2  0
  2  3  1  0
  2  5  1  0
  3  4  1  0
  5  6  1  6
  5  7  1  0
  7  8  1  1
  7  9  1  0
  9 10  1  0
M  END
