
     RDKit          3D

  9  8  0  0  0  0  0  0  0  0999 V2000
    2.2400    0.2750    1.2490 N   0  0  0  0  0  0  0  0  0  0  0  0
    1.2990   -0.2170    0.2440 C   0  0  2  0  0  0  0  0  0  0  0  0
    1.9780   -0.2120   -0.9670 O   0  0  0  0  0  0  0  0  0  0  0  0
    0.1380    0.7370    0.2550 C   0  0  0  0  0  0  0  0  0  0  0  0
   -0.9360    0.3720   -0.7350 C   0  0  2  0  0  0  0  0  0  0  0  0
   -0.5010    0.3480   -2.0340 O   0  0  0  0  0  0  0  0  0  0  0  0
   -1.9080    1.3980   -0.6370 O   0  0  0  0  0  0  0  0  0  0  0  0
   -1.6510   -0.9050   -0.3580 C   0  0  0  0  0  0  0  0  0  0  0  0
   -2.0700   -0.8190    0.9730 O   0  0  0  0  0  0  0  0  0  0  0  0
  2  1  1  1
  2  3  1  0
  2  4  1  0
  4  5  1  0
  5  6  1  6
  5  7  1  0
  5  8  1  0
  8  9  1  0
M  END
