
     RDKit          3D

 20 21  0  0  0  0  0  0  0  0999 V2000
    7.8830    0.6890   -0.0610 O   0  0  0  0  0  0  0  0  0  0  0  0
    7.5500   -0.5650    0.7870 P   0  0  0  0  0  0  0  0  0  0  0  0
    5.9300   -1.2380    0.6870 O   0  0  0  0  0  0  0  0  0  0  0  0
    4.8070   -0.4580    0.4310 C   0  0  0  0  0  0  0  0  0  0  0  0
    5.0230    0.7820    0.2740 O   0  0  0  0  0  0  0  0  0  0  0  0
    3.5310   -1.0010    0.3540 O   0  0  0  0  0  0  0  0  0  0  0  0
    2.4670   -0.1340    0.0930 C   0  0  0  0  0  0  0  0  0  0  0  0
    1.1620   -0.8270    0.0350 C   0  0  0  0  0  0  0  0  0  0  0  0
    1.1110   -2.0650    0.2130 O   0  0  0  0  0  0  0  0  0  0  0  0
   -0.0690   -0.2070   -0.2100 N   0  0  0  0  0  0  0  0  0  0  0  0
   -1.3070   -0.8330   -0.2700 C   0  0  2  0  0  0  0  0  0  0  0  0
   -2.1390   -0.6890   -1.5570 C   0  0  0  0  0  0  0  0  0  0  0  0
   -2.9810    0.2940   -0.9810 N   0  0  0  0  0  0  0  0  0  0  0  0
   -3.5790   -0.5430    0.1020 C   0  0  0  0  0  0  0  0  0  0  0  0
   -2.2080   -0.3230    0.8810 C   0  0  2  0  0  0  0  0  0  0  0  0
   -2.1780    1.1190    1.1420 C   0  0  0  0  0  0  0  0  0  0  0  0
   -1.4970    1.5110    2.1600 O   0  0  0  0  0  0  0  0  0  0  0  0
   -2.7980    2.1850    0.4300 N   0  0  0  0  0  0  0  0  0  0  0  0
   -3.2800    1.6350   -0.8910 C   0  0  0  0  0  0  0  0  0  0  0  0
   -3.8410    2.3010   -1.7390 O   0  0  0  0  0  0  0  0  0  0  0  0
  1  2  2  0
  2  3  1  0
  3  4  1  0
  4  5  2  0
  4  6  1  0
  6  7  1  0
  7  8  1  0
  8  9  2  0
  8 10  1  0
 11 10  1  6
 11 12  1  0
 11 15  1  0
 12 13  1  0
 13 14  1  0
 13 19  1  0
 14 15  1  0
 15 16  1  6
 16 17  2  0
 16 18  1  0
 18 19  1  0
 19 20  2  0
M  END
