
     RDKit          3D

 20 20  0  0  0  0  0  0  0  0999 V2000
    4.1910   -0.6420   -0.3610 C   0  0  0  0  0  0  0  0  0  0  0  0
    3.0510   -0.0700    0.4880 C   0  0  1  0  0  0  0  0  0  0  0  0
    2.6500    1.2780   -0.1270 C   0  0  0  0  0  0  0  0  0  0  0  0
    4.0410    2.4650   -0.2990 P   0  0  0  0  0  0  0  0  0  0  0  0
    5.5280    2.1250   -0.2620 O   0  0  0  0  0  0  0  0  0  0  0  0
    1.8390   -0.9500    0.1410 C   0  0  0  0  0  0  0  0  0  0  0  0
    2.0600   -2.0560   -0.4730 O   0  0  0  0  0  0  0  0  0  0  0  0
    0.5490   -0.5270    0.4720 N   0  0  0  0  0  0  0  0  0  0  0  0
   -0.5760   -1.1130   -0.1660 C   0  0  0  0  0  0  0  0  0  0  0  0
   -0.4220   -2.0560   -1.0130 O   0  0  0  0  0  0  0  0  0  0  0  0
   -1.9270   -0.5840    0.1520 C   0  0  1  0  0  0  0  0  0  0  0  0
   -2.0200    0.7180   -0.3690 N   0  0  0  0  0  0  0  0  0  0  0  0
   -3.2070    1.4650   -0.4890 C   0  0  0  0  0  0  0  0  0  0  0  0
   -4.3170    0.9340   -0.1220 O   0  0  0  0  0  0  0  0  0  0  0  0
   -3.2170    2.7830   -0.9940 O   0  0  0  0  0  0  0  0  0  0  0  0
   -3.0430   -1.4990   -0.2930 C   0  0  0  0  0  0  0  0  0  0  0  0
   -4.0260   -1.4400    0.7130 O   0  0  0  0  0  0  0  0  0  0  0  0
   -3.4520   -0.7680    1.8230 C   0  0  0  0  0  0  0  0  0  0  0  0
   -4.0560   -0.3350    2.8350 O   0  0  0  0  0  0  0  0  0  0  0  0
   -2.0550   -0.6690    1.6160 N   0  0  0  0  0  0  0  0  0  0  0  0
  2  1  1  6
  2  3  1  0
  2  6  1  0
  3  4  1  0
  4  5  2  0
  6  7  2  0
  6  8  1  0
  8  9  1  0
  9 10  2  0
  9 11  1  0
 11 12  1  6
 11 16  1  0
 11 20  1  0
 12 13  1  0
 13 14  2  0
 13 15  1  0
 16 17  1  0
 17 18  1  0
 18 19  2  0
 18 20  1  0
M  END
