
     RDKit          3D

 23 23  0  0  0  0  0  0  0  0999 V2000
   -4.3360   -0.7880   -0.2920 C   0  0  0  0  0  0  0  0  0  0  0  0
   -3.0770   -1.3220   -0.3870 O   0  0  0  0  0  0  0  0  0  0  0  0
   -2.2260   -0.9560    0.6500 C   0  0  1  0  0  0  0  0  0  0  0  0
   -1.5990   -2.1130    1.3540 C   0  0  0  0  0  0  0  0  0  0  0  0
   -2.5720   -3.0570    1.9920 C   0  0  0  0  0  0  0  0  0  0  0  0
   -3.6160   -2.2480    3.2690 P   0  0  0  0  0  0  0  0  0  0  0  0
   -4.0610   -3.0350    4.5270 O   0  0  0  0  0  0  0  0  0  0  0  0
   -1.1890   -0.2220    0.0240 O   0  0  0  0  0  0  0  0  0  0  0  0
   -1.0840    1.3590    0.6530 P   0  0  0  0  0  0  0  0  0  0  0  0
   -2.2030    2.4810   -0.0360 O   0  0  0  0  0  0  0  0  0  0  0  0
   -1.6270    3.7250   -0.2680 C   0  0  0  0  0  0  0  0  0  0  0  0
   -0.5570    4.0870    0.7390 C   0  0  0  0  0  0  0  0  0  0  0  0
    0.7060    3.3580    0.5500 C   0  0  0  0  0  0  0  0  0  0  0  0
    0.6090    2.0070    0.4880 C   0  0  0  0  0  0  0  0  0  0  0  0
    1.8030    1.1640    0.3120 C   0  0  0  0  0  0  0  0  0  0  0  0
    1.7710    0.3720   -0.9710 C   0  0  0  0  0  0  0  0  0  0  0  0
    2.9830   -0.4840   -1.1500 C   0  0  2  0  0  0  0  0  0  0  0  0
    3.1420   -1.4910   -0.0320 C   0  0  0  0  0  0  0  0  0  0  0  0
    4.1920    0.4600   -1.0400 C   0  0  0  0  0  0  0  0  0  0  0  0
    3.0350   -1.0380   -2.4200 O   0  0  0  0  0  0  0  0  0  0  0  0
    2.0510   -1.8800   -2.8810 C   0  0  0  0  0  0  0  0  0  0  0  0
    1.0930   -2.1580   -2.1480 O   0  0  0  0  0  0  0  0  0  0  0  0
    2.0650   -2.4530   -4.1500 O   0  0  0  0  0  0  0  0  0  0  0  0
  1  2  1  0
  2  3  1  0
  3  4  1  6
  3  8  1  0
  4  5  1  0
  5  6  1  0
  6  7  2  0
  8  9  1  0
  9 10  1  0
  9 14  1  0
 10 11  1  0
 11 12  1  0
 12 13  1  0
 13 14  2  0
 14 15  1  0
 15 16  1  0
 16 17  1  0
 17 18  1  1
 17 19  1  0
 17 20  1  0
 20 21  1  0
 21 22  2  0
 21 23  1  0
M  END
