
     RDKit          3D

 20 21  0  0  0  0  0  0  0  0999 V2000
    0.7880   -3.6140    0.2710 O   0  0  0  0  0  0  0  0  0  0  0  0
   -0.0070   -2.6410    0.3880 C   0  0  0  0  0  0  0  0  0  0  0  0
   -1.3010   -2.7810    0.7890 O   0  0  0  0  0  0  0  0  0  0  0  0
   -2.3310   -1.8900    0.5080 C   0  0  0  0  0  0  0  0  0  0  0  0
   -1.9760   -0.5040    0.1330 C   0  0  2  0  0  0  0  0  0  0  0  0
   -2.6670    0.3840    1.0150 O   0  0  0  0  0  0  0  0  0  0  0  0
   -3.8440    0.7910    0.3870 C   0  0  0  0  0  0  0  0  0  0  0  0
   -3.4270    1.9210   -0.5790 C   0  0  0  0  0  0  0  0  0  0  0  0
   -2.5870    1.2350   -1.5330 N   0  0  0  0  0  0  0  0  0  0  0  0
   -2.3070   -0.1180   -1.2690 C   0  0  0  0  0  0  0  0  0  0  0  0
   -2.3330   -0.9850   -2.1700 O   0  0  0  0  0  0  0  0  0  0  0  0
   -0.5210   -0.2480    0.2520 C   0  0  0  0  0  0  0  0  0  0  0  0
   -0.1110    0.9630    0.4990 O   0  0  0  0  0  0  0  0  0  0  0  0
    0.4060   -1.2860    0.0990 N   0  0  0  0  0  0  0  0  0  0  0  0
    1.7560   -0.9790   -0.2990 C   0  0  0  0  0  0  0  0  0  0  0  0
    2.5240   -0.5040    0.9400 C   0  0  0  0  0  0  0  0  0  0  0  0
    3.8770   -0.2530    0.4250 N   0  0  0  0  0  0  0  0  0  0  0  0
    4.0510    1.4940    0.1530 P   0  0  0  0  0  0  0  0  0  0  0  0
    4.9050    2.3670    1.3360 O   0  0  0  0  0  0  0  0  0  0  0  0
    4.6820    1.7190   -1.4670 O   0  0  0  0  0  0  0  0  0  0  0  0
  1  2  2  0
  2  3  1  0
  2 14  1  0
  3  4  1  0
  5  4  1  1
  5  6  1  0
  5 10  1  0
  5 12  1  0
  6  7  1  0
  7  8  1  0
  8  9  1  0
  9 10  1  0
 10 11  2  0
 12 13  2  0
 12 14  1  0
 14 15  1  0
 15 16  1  0
 16 17  1  0
 17 18  1  0
 18 19  1  0
 18 20  1  0
M  END
