
     RDKit          3D

 24 24  0  0  0  0  0  0  0  0999 V2000
   -5.5300    2.8740   -0.7850 C   0  0  0  0  0  0  0  0  0  0  0  0
   -5.0640    2.1000    0.4760 C   0  0  0  0  0  0  0  0  0  0  0  0
   -5.1350    0.7720    0.1000 O   0  0  0  0  0  0  0  0  0  0  0  0
   -3.9360    0.1860   -0.8800 P   0  0  0  0  0  0  0  0  0  0  0  0
   -4.2670   -1.5450   -1.4250 C   0  0  0  0  0  0  0  0  0  0  0  0
   -4.5930   -2.3570   -0.3770 O   0  0  0  0  0  0  0  0  0  0  0  0
   -5.6540   -2.2640    0.5140 C   0  0  0  0  0  0  0  0  0  0  0  0
   -6.4420   -1.2470    0.3730 O   0  0  0  0  0  0  0  0  0  0  0  0
   -5.8320   -3.1900    1.5010 O   0  0  0  0  0  0  0  0  0  0  0  0
   -2.3490    0.6440   -0.8050 O   0  0  0  0  0  0  0  0  0  0  0  0
   -1.8150    0.5300    0.4350 C   0  0  0  0  0  0  0  0  0  0  0  0
   -0.3550    0.8420    0.5900 C   0  0  1  0  0  0  0  0  0  0  0  0
   -0.1090    2.2810    0.2660 C   0  0  0  0  0  0  0  0  0  0  0  0
   -0.0670    0.6620    2.0690 C   0  0  0  0  0  0  0  0  0  0  0  0
    0.4400    0.0920   -0.2130 O   0  0  0  0  0  0  0  0  0  0  0  0
    1.5790   -0.9430    0.4250 P   0  0  0  0  0  0  0  0  0  0  0  0
    1.4000   -2.7050   -0.0170 C   0  0  0  0  0  0  0  0  0  0  0  0
    3.1850   -0.3520    0.9440 C   0  0  0  0  0  0  0  0  0  0  0  0
    4.3470   -0.5260    0.0070 C   0  0  1  0  0  0  0  0  0  0  0  0
    4.5340   -2.0020   -0.4070 C   0  0  0  0  0  0  0  0  0  0  0  0
    4.5490    0.4540   -1.0440 C   0  0  0  0  0  0  0  0  0  0  0  0
    5.9590    1.0100   -0.7690 C   0  0  0  0  0  0  0  0  0  0  0  0
    6.5340   -0.1360    0.0650 C   0  0  0  0  0  0  0  0  0  0  0  0
    5.4950   -0.3730    0.9020 O   0  0  0  0  0  0  0  0  0  0  0  0
  1  2  1  0
  2  3  1  0
  3  4  1  0
  4  5  1  0
  4 10  1  0
  5  6  1  0
  6  7  1  0
  7  8  2  0
  7  9  1  0
 10 11  1  0
 11 12  1  0
 12 13  1  6
 12 14  1  0
 12 15  1  0
 15 16  1  0
 16 17  1  0
 16 18  1  0
 18 19  1  0
 19 20  1  6
 19 21  1  0
 19 24  1  0
 21 22  1  0
 22 23  1  0
 23 24  1  0
M  END
