
     RDKit          3D

 25 25  0  0  0  0  0  0  0  0999 V2000
   -5.4810   -2.5560   -0.1990 C   0  0  0  0  0  0  0  0  0  0  0  0
   -4.2440   -2.2110   -0.7200 O   0  0  0  0  0  0  0  0  0  0  0  0
   -3.7860   -0.9860   -0.2440 C   0  0  1  0  0  0  0  0  0  0  0  0
   -2.5170   -1.1730    0.5600 C   0  0  0  0  0  0  0  0  0  0  0  0
   -1.6760   -0.0690    0.4800 O   0  0  0  0  0  0  0  0  0  0  0  0
   -0.3570   -0.4580    0.1960 C   0  0  2  0  0  0  0  0  0  0  0  0
   -0.0420   -1.5490    1.1010 N   0  0  0  0  0  0  0  0  0  0  0  0
    0.5630    0.7250    0.4440 C   0  0  1  0  0  0  0  0  0  0  0  0
    0.5480    1.0090    1.9290 C   0  0  0  0  0  0  0  0  0  0  0  0
    1.2300    2.1480    2.2720 O   0  0  0  0  0  0  0  0  0  0  0  0
    1.8200    0.5580   -0.0640 O   0  0  0  0  0  0  0  0  0  0  0  0
    2.5430   -0.4960    0.4040 C   0  0  0  0  0  0  0  0  0  0  0  0
    3.9060   -0.4640   -0.3120 C   0  0  2  0  0  0  0  0  0  0  0  0
    3.6080   -0.5800   -1.6760 O   0  0  0  0  0  0  0  0  0  0  0  0
    4.7740   -1.5890    0.1430 C   0  0  0  0  0  0  0  0  0  0  0  0
    5.9580   -1.6100   -0.5700 O   0  0  0  0  0  0  0  0  0  0  0  0
    6.7110   -0.4580   -0.4290 C   0  0  0  0  0  0  0  0  0  0  0  0
    7.0600   -0.2330    0.9140 O   0  0  0  0  0  0  0  0  0  0  0  0
   -0.0650    1.9220   -0.2470 C   0  0  0  0  0  0  0  0  0  0  0  0
   -1.3210    1.6760   -0.7480 O   0  0  0  0  0  0  0  0  0  0  0  0
   -1.9670    2.9290   -0.8530 C   0  0  0  0  0  0  0  0  0  0  0  0
   -3.4320    2.6810   -0.5630 C   0  0  0  0  0  0  0  0  0  0  0  0
   -3.9980    2.1170   -1.6960 O   0  0  0  0  0  0  0  0  0  0  0  0
   -4.5000    0.8400   -1.4650 C   0  0  0  0  0  0  0  0  0  0  0  0
   -3.4970   -0.0970   -1.2710 O   0  0  0  0  0  0  0  0  0  0  0  0
  1  2  1  0
  3  2  1  6
  3  4  1  0
  3 25  1  0
  4  5  1  0
  5  6  1  0
  6  7  1  1
  6  8  1  0
  8  9  1  1
  8 11  1  0
  8 19  1  0
  9 10  1  0
 11 12  1  0
 12 13  1  0
 13 14  1  6
 13 15  1  0
 15 16  1  0
 16 17  1  0
 17 18  1  0
 19 20  1  0
 20 21  1  0
 21 22  1  0
 22 23  1  0
 23 24  1  0
 24 25  1  0
M  END
