
     RDKit          3D

 22 25  0  0  0  0  0  0  0  0999 V2000
    8.0130   -1.9850    0.8370 Cl  0  0  0  0  0  0  0  0  0  0  0  0
    6.5860   -0.9690    0.6150 C   0  0  0  0  0  0  0  0  0  0  0  0
    6.6010    0.3310    1.0820 C   0  0  0  0  0  0  0  0  0  0  0  0
    5.5120    1.1380    0.9240 C   0  0  0  0  0  0  0  0  0  0  0  0
    4.4110    0.6680    0.3090 N   0  0  0  0  0  0  0  0  0  0  0  0
    3.1940    1.1870   -0.0040 C   0  0  0  0  0  0  0  0  0  0  0  0
    2.4680    0.2140   -0.6450 C   0  0  0  0  0  0  0  0  0  0  0  0
    1.1000    0.3600   -1.1500 C   0  0  0  0  0  0  0  0  0  0  0  0
    0.1060   -0.0100   -0.1400 N   0  0  0  0  0  0  0  0  0  0  0  0
    0.3090   -1.3470    0.2240 C   0  0  0  0  0  0  0  0  0  0  0  0
   -0.8630   -2.0520    0.8370 C   0  0  0  0  0  0  0  0  0  0  0  0
   -2.0270   -1.9010   -0.0860 C   0  0  0  0  0  0  0  0  0  0  0  0
   -2.3340   -0.4100   -0.2050 C   0  0  1  0  0  0  0  0  0  0  0  0
   -3.3820   -0.2940   -1.2820 C   0  0  0  0  0  0  0  0  0  0  0  0
   -4.3410    0.8070   -1.1130 C   0  0  0  0  0  0  0  0  0  0  0  0
   -3.9520    1.9030   -0.1940 C   0  0  0  0  0  0  0  0  0  0  0  0
   -3.3690    1.4490    1.1060 C   0  0  0  0  0  0  0  0  0  0  0  0
   -2.9830   -0.0050    1.1000 C   0  0  0  0  0  0  0  0  0  0  0  0
   -1.1610    0.4070   -0.5700 C   0  0  0  0  0  0  0  0  0  0  0  0
    3.2510   -0.8650   -0.7080 N   0  0  0  0  0  0  0  0  0  0  0  0
    4.4370   -0.6050   -0.1320 C   0  0  0  0  0  0  0  0  0  0  0  0
    5.4940   -1.4150    0.0120 N   0  0  0  0  0  0  0  0  0  0  0  0
  1  2  1  0
  2  3  1  0
  2 22  2  0
  3  4  2  0
  4  5  1  0
  5  6  1  0
  5 21  1  0
  6  7  2  0
  7  8  1  0
  7 20  1  0
  8  9  1  0
  9 10  1  0
  9 19  1  0
 10 11  1  0
 11 12  1  0
 13 12  1  1
 13 14  1  0
 13 18  1  0
 13 19  1  0
 14 15  1  0
 15 16  1  0
 16 17  1  0
 17 18  1  0
 20 21  2  0
 21 22  1  0
M  END
