
     RDKit          3D

 15 15  0  0  0  0  0  0  0  0999 V2000
   -2.5970    0.1130    1.7110 C   0  0  0  0  0  0  0  0  0  0  0  0
   -1.7640   -0.2770    0.7710 C   0  0  0  0  0  0  0  0  0  0  0  0
   -1.7600   -1.6150    0.3350 O   0  0  0  0  0  0  0  0  0  0  0  0
   -1.5030   -1.9960   -0.9980 C   0  0  0  0  0  0  0  0  0  0  0  0
   -0.5110   -1.1080   -1.6950 C   0  0  0  0  0  0  0  0  0  0  0  0
    0.0120   -0.0740   -0.8870 N   0  0  0  0  0  0  0  0  0  0  0  0
    1.3430    0.3690   -0.9900 C   0  0  0  0  0  0  0  0  0  0  0  0
    1.7000    1.4060   -1.9470 C   0  0  0  0  0  0  0  0  0  0  0  0
    2.3000   -0.2000   -0.2330 C   0  0  0  0  0  0  0  0  0  0  0  0
    2.3170   -1.2060    0.6940 C   0  0  0  0  0  0  0  0  0  0  0  0
    1.2700   -2.0760    1.2410 C   0  0  0  0  0  0  0  0  0  0  0  0
    3.4980   -1.4720    1.2240 O   0  0  0  0  0  0  0  0  0  0  0  0
   -0.8140    0.6110    0.1320 C   0  0  0  0  0  0  0  0  0  0  0  0
   -0.5670    1.8070    0.3860 C   0  0  0  0  0  0  0  0  0  0  0  0
   -1.0740    2.7750    1.3910 C   0  0  0  0  0  0  0  0  0  0  0  0
  1  2  2  0
  2  3  1  0
  2 13  1  0
  3  4  1  0
  4  5  1  0
  5  6  1  0
  6  7  1  0
  6 13  1  0
  7  8  1  0
  7  9  2  3
  9 10  1  0
 10 11  1  0
 10 12  2  0
 13 14  2  3
 14 15  1  0
M  END
