
     RDKit          3D

 22 24  0  0  0  0  0  0  0  0999 V2000
   -4.3340   -0.2510   -0.7690 C   0  0  0  0  0  0  0  0  0  0  0  0
   -3.3570   -0.8170    0.2490 C   0  0  1  0  0  0  0  0  0  0  0  0
   -4.1160   -1.5170    1.3590 C   0  0  0  0  0  0  0  0  0  0  0  0
   -2.5730   -1.7700   -0.3770 O   0  0  0  0  0  0  0  0  0  0  0  0
   -1.5700   -1.0080   -0.9440 C   0  0  2  0  0  0  0  0  0  0  0  0
   -0.2280   -1.7320   -0.9240 C   0  0  0  0  0  0  0  0  0  0  0  0
    0.6910   -0.8320   -1.4510 O   0  0  0  0  0  0  0  0  0  0  0  0
    0.9440    0.1970   -0.5420 C   0  0  1  0  0  0  0  0  0  0  0  0
    2.3030   -0.0970    0.0500 C   0  0  0  0  0  0  0  0  0  0  0  0
    2.2370   -1.4970    0.4730 N   0  0  0  0  0  0  0  0  0  0  0  0
    3.7150   -2.2840    0.0660 S   0  0  2  0  0  0  0  0  0  0  0  0
    4.9970   -1.6330    0.9660 N   0  0  0  0  0  0  0  0  0  0  0  0
    3.9150   -2.0340   -1.4290 O   0  0  0  0  0  0  0  0  0  0  0  0
    3.5560   -3.7540    0.3000 O   0  0  0  0  0  0  0  0  0  0  0  0
    0.8660    1.4580   -1.1310 O   0  0  0  0  0  0  0  0  0  0  0  0
    0.7180    2.3220   -0.0530 C   0  0  2  0  0  0  0  0  0  0  0  0
   -0.2470    3.4460   -0.3070 C   0  0  0  0  0  0  0  0  0  0  0  0
    2.0810    2.9180    0.2120 C   0  0  0  0  0  0  0  0  0  0  0  0
    0.2200    1.5890    1.0080 O   0  0  0  0  0  0  0  0  0  0  0  0
   -0.0950    0.3200    0.5270 C   0  0  1  0  0  0  0  0  0  0  0  0
   -1.4370    0.2530   -0.1370 C   0  0  2  0  0  0  0  0  0  0  0  0
   -2.4970    0.1610    0.7440 O   0  0  0  0  0  0  0  0  0  0  0  0
  2  1  1  6
  2  3  1  0
  2  4  1  0
  2 22  1  0
  4  5  1  0
  5  6  1  1
  5 21  1  0
  6  7  1  0
  7  8  1  0
  8  9  1  1
  8 15  1  0
  8 20  1  0
  9 10  1  0
 10 11  1  0
 11 12  1  1
 11 13  2  0
 11 14  2  0
 15 16  1  0
 16 17  1  6
 16 18  1  0
 16 19  1  0
 20 19  1  6
 20 21  1  0
 21 22  1  1
M  END
