
     RDKit          3D

 22 25  0  0  0  0  0  0  0  0999 V2000
    6.3200    0.8220   -0.9640 C   0  0  0  0  0  0  0  0  0  0  0  0
    4.9960    0.4150   -0.4260 C   0  0  0  0  0  0  0  0  0  0  0  0
    4.2650   -0.6050   -0.9870 C   0  0  0  0  0  0  0  0  0  0  0  0
    3.0390   -0.9820   -0.4890 C   0  0  0  0  0  0  0  0  0  0  0  0
    2.5500   -0.3000    0.6060 C   0  0  0  0  0  0  0  0  0  0  0  0
    1.2940   -0.6400    1.1660 N   0  0  0  0  0  0  0  0  0  0  0  0
    0.1690   -0.2920    0.6080 C   0  0  0  0  0  0  0  0  0  0  0  0
    0.1130    0.4300   -0.5650 C   0  0  0  0  0  0  0  0  0  0  0  0
   -1.0930    0.7980   -1.1570 C   0  0  0  0  0  0  0  0  0  0  0  0
   -1.1630    1.7090   -2.6350 Cl  0  0  0  0  0  0  0  0  0  0  0  0
   -2.2750    0.4320   -0.5540 C   0  0  0  0  0  0  0  0  0  0  0  0
   -3.4900    0.7270   -1.0260 N   0  0  0  0  0  0  0  0  0  0  0  0
   -4.5870    0.3040   -0.3310 C   0  0  0  0  0  0  0  0  0  0  0  0
   -5.9070    0.6480   -0.8820 C   0  0  0  0  0  0  0  0  0  0  0  0
   -4.4670   -0.4200    0.8440 C   0  0  0  0  0  0  0  0  0  0  0  0
   -3.2490   -0.7130    1.3120 N   0  0  0  0  0  0  0  0  0  0  0  0
   -2.7490   -1.3760    2.3870 C   0  0  0  0  0  0  0  0  0  0  0  0
   -1.3680   -1.3610    2.3540 C   0  0  0  0  0  0  0  0  0  0  0  0
   -1.0180   -0.6550    1.2050 C   0  0  0  0  0  0  0  0  0  0  0  0
   -2.1930   -0.2940    0.6260 C   0  0  0  0  0  0  0  0  0  0  0  0
    3.2800    0.7110    1.1580 C   0  0  0  0  0  0  0  0  0  0  0  0
    4.4640    1.0420    0.6420 N   0  0  0  0  0  0  0  0  0  0  0  0
  1  2  1  0
  2  3  2  0
  2 22  1  0
  3  4  1  0
  4  5  2  0
  5  6  1  0
  5 21  1  0
  6  7  2  3
  7  8  1  0
  7 19  1  0
  8  9  2  0
  9 10  1  0
  9 11  1  0
 11 12  2  0
 11 20  1  0
 12 13  1  0
 13 14  1  0
 13 15  2  0
 15 16  1  0
 16 17  1  0
 16 20  1  0
 17 18  2  0
 18 19  1  0
 19 20  2  0
 21 22  2  0
M  END
