
     RDKit          3D

 15 15  0  0  0  0  0  0  0  0999 V2000
    0.0780    2.9950   -0.3120 C   0  0  0  0  0  0  0  0  0  0  0  0
   -0.9120    2.3210    0.1370 C   0  0  0  0  0  0  0  0  0  0  0  0
   -1.3090    0.9600    0.1990 C   0  0  0  0  0  0  0  0  0  0  0  0
   -2.4960    0.7470    0.8280 C   0  0  0  0  0  0  0  0  0  0  0  0
   -3.2400   -0.4760    1.0990 C   0  0  0  0  0  0  0  0  0  0  0  0
   -2.7710   -1.7170    0.9910 C   0  0  0  0  0  0  0  0  0  0  0  0
   -1.4420   -2.1430    0.5870 C   0  0  0  0  0  0  0  0  0  0  0  0
   -0.4490   -1.4490    0.0050 C   0  0  0  0  0  0  0  0  0  0  0  0
    0.7850   -2.1670   -0.2850 C   0  0  0  0  0  0  0  0  0  0  0  0
   -0.5280   -0.0560   -0.3730 N   0  0  0  0  0  0  0  0  0  0  0  0
    0.2660    0.3100   -1.4920 C   0  0  0  0  0  0  0  0  0  0  0  0
    1.7000    0.3000   -1.1070 C   0  0  0  0  0  0  0  0  0  0  0  0
    2.6070    0.3150   -1.9940 O   0  0  0  0  0  0  0  0  0  0  0  0
    2.0700    0.2800    0.2190 O   0  0  0  0  0  0  0  0  0  0  0  0
    3.4500    0.2750    0.5410 C   0  0  0  0  0  0  0  0  0  0  0  0
  1  2  2  0
  2  3  1  0
  3  4  2  0
  3 10  1  0
  4  5  1  0
  5  6  2  0
  6  7  1  0
  7  8  2  0
  8  9  1  0
  8 10  1  0
 10 11  1  0
 11 12  1  0
 12 13  2  0
 12 14  1  0
 14 15  1  0
M  END
