
     RDKit          3D

 10 10  0  0  0  0  0  0  0  0999 V2000
    2.7450    1.4040    0.2860 O   0  0  0  0  0  0  0  0  0  0  0  0
    1.4990    1.0690    0.6430 O   0  0  0  0  0  0  0  0  0  0  0  0
    1.3000   -0.2800    0.3160 C   0  0  0  0  0  0  0  0  0  0  0  0
    0.1200   -0.2650   -0.6460 C   0  0  1  0  0  0  0  0  0  0  0  0
    0.1530   -1.4790   -1.3420 O   0  0  0  0  0  0  0  0  0  0  0  0
   -1.2210   -0.0110   -0.1950 C   0  0  0  0  0  0  0  0  0  0  0  0
   -1.8590    0.9320    0.4150 C   0  0  0  0  0  0  0  0  0  0  0  0
   -3.2080    0.6400    0.5980 O   0  0  0  0  0  0  0  0  0  0  0  0
   -3.4490   -0.4010   -0.1800 O   0  0  0  0  0  0  0  0  0  0  0  0
   -2.2690   -1.0180   -0.3850 O   0  0  0  0  0  0  0  0  0  0  0  0
  1  2  1  0
  2  3  1  0
  3  4  1  0
  4  5  1  1
  4  6  1  0
  6  7  2  0
  6 10  1  0
  7  8  1  0
  8  9  1  0
  9 10  1  0
M  END
