
     RDKit          3D

 10 10  0  0  0  0  0  0  0  0999 V2000
    3.1450    0.4680    0.0330 O   0  0  0  0  0  0  0  0  0  0  0  0
    2.1520    0.0880   -0.7240 O   0  0  0  0  0  0  0  0  0  0  0  0
    1.6220   -1.0510   -0.3670 O   0  0  0  0  0  0  0  0  0  0  0  0
    0.4690   -0.8800    0.3790 C   0  0  0  0  0  0  0  0  0  0  0  0
   -0.5500   -0.1750   -0.4600 C   0  0  2  0  0  0  0  0  0  0  0  0
   -0.7400   -0.8040   -1.6740 O   0  0  0  0  0  0  0  0  0  0  0  0
   -0.2620    1.3120   -0.6110 C   0  0  0  0  0  0  0  0  0  0  0  0
   -1.4270    1.9010   -0.0930 O   0  0  0  0  0  0  0  0  0  0  0  0
   -1.7510    1.1070    0.9200 O   0  0  0  0  0  0  0  0  0  0  0  0
   -1.9040   -0.1120    0.2380 C   0  0  0  0  0  0  0  0  0  0  0  0
  1  2  1  0
  2  3  1  0
  3  4  1  0
  4  5  1  0
  5  6  1  6
  5  7  1  0
  5 10  1  0
  7  8  1  0
  8  9  1  0
  9 10  1  0
M  END
