
     RDKit          3D

 10  9  0  0  0  0  0  0  0  0999 V2000
   -3.4610    1.7760    0.7870 O   0  0  0  0  0  0  0  0  0  0  0  0
   -2.7090    0.7040    1.1550 O   0  0  0  0  0  0  0  0  0  0  0  0
   -2.7720   -0.1400   -0.0030 C   0  0  0  0  0  0  0  0  0  0  0  0
   -1.3200   -0.2700   -0.4210 C   0  0  0  0  0  0  0  0  0  0  0  0
   -0.3280   -0.9350    0.4520 C   0  0  0  0  0  0  0  0  0  0  0  0
    0.6680    0.0740    0.7880 O   0  0  0  0  0  0  0  0  0  0  0  0
    1.5260    0.0050   -0.1480 O   0  0  0  0  0  0  0  0  0  0  0  0
    2.7100   -0.5560   -0.1890 C   0  0  0  0  0  0  0  0  0  0  0  0
    3.8460    0.1530    0.1540 O   0  0  0  0  0  0  0  0  0  0  0  0
    3.8290    1.2730   -0.5860 O   0  0  0  0  0  0  0  0  0  0  0  0
  1  2  1  0
  2  3  1  0
  3  4  1  0
  4  5  1  0
  5  6  1  0
  6  7  1  0
  7  8  1  0
  8  9  1  0
  9 10  1  0
M  END
