
     RDKit          3D

 10  9  0  0  0  0  0  0  0  0999 V2000
   -0.8810    1.0200    0.4990 C   0  0  0  0  0  0  0  0  0  0  0  0
   -0.2240   -0.2820    0.1350 C   0  0  2  0  0  0  0  0  0  0  0  0
    0.1620   -0.0150   -1.3150 O   0  0  0  0  0  0  0  0  0  0  0  0
   -1.2740   -1.4000   -0.0160 C   0  0  0  0  0  0  0  0  0  0  0  0
   -2.4370   -0.7110    0.3330 O   0  0  0  0  0  0  0  0  0  0  0  0
   -3.2160   -0.6370   -0.7200 O   0  0  0  0  0  0  0  0  0  0  0  0
    0.8740   -0.5650    0.8050 O   0  0  0  0  0  0  0  0  0  0  0  0
    2.2920    0.0950    0.2410 P   0  0  0  0  0  0  0  0  0  0  0  0
    2.3880    1.6220   -0.3740 O   0  0  0  0  0  0  0  0  0  0  0  0
    3.5530   -0.9930   -0.0680 O   0  0  0  0  0  0  0  0  0  0  0  0
  2  1  1  1
  2  3  1  0
  2  4  1  0
  2  7  1  0
  4  5  1  0
  5  6  1  0
  7  8  1  0
  8  9  1  0
  8 10  1  0
M  END
