
     RDKit          3D

 16 15  0  0  0  0  0  0  0  0999 V2000
    3.4320    1.8470   -0.0570 N   0  0  0  0  0  0  0  0  0  0  0  0
    2.0220    1.7610    0.0280 C   0  0  0  0  0  0  0  0  0  0  0  0
    1.3460    2.8150    0.0070 O   0  0  0  0  0  0  0  0  0  0  0  0
    1.3390    0.4630    0.1390 C   0  0  2  0  0  0  0  0  0  0  0  0
    1.7630   -0.5050   -0.9490 C   0  0  0  0  0  0  0  0  0  0  0  0
    3.2230   -0.7300   -0.8410 C   0  0  0  0  0  0  0  0  0  0  0  0
    3.9960   -0.1840   -1.6630 O   0  0  0  0  0  0  0  0  0  0  0  0
    3.7890   -1.5310    0.1520 O   0  0  0  0  0  0  0  0  0  0  0  0
   -0.0980    0.6030    0.2020 N   0  0  0  0  0  0  0  0  0  0  0  0
   -0.9640   -0.1320    1.0290 C   0  0  0  0  0  0  0  0  0  0  0  0
   -0.3910   -1.0040    1.7760 O   0  0  0  0  0  0  0  0  0  0  0  0
   -2.4610    0.0540    1.0710 C   0  0  0  0  0  0  0  0  0  0  0  0
   -3.2560   -0.6370   -0.2000 P   0  0  0  0  0  0  0  0  0  0  0  0
   -4.7580   -0.1730    0.3510 O   0  0  0  0  0  0  0  0  0  0  0  0
   -2.4500    0.3400   -1.2710 O   0  0  0  0  0  0  0  0  0  0  0  0
   -2.6930   -2.1440    0.0560 O   0  0  0  0  0  0  0  0  0  0  0  0
  1  2  1  0
  2  3  2  0
  2  4  1  0
  4  5  1  6
  4  9  1  0
  5  6  1  0
  6  7  2  0
  6  8  1  0
  9 10  1  0
 10 11  2  0
 10 12  1  0
 12 13  1  0
 13 14  1  0
 13 15  1  0
 13 16  1  0
M  END
