
     RDKit          3D

 10  9  0  0  0  0  0  0  0  0999 V2000
   -1.8150   -2.3080    0.0850 O   0  0  0  0  0  0  0  0  0  0  0  0
   -0.7630   -1.8530    0.5020 C   0  0  0  0  0  0  0  0  0  0  0  0
   -0.2890   -0.5810   -0.1130 C   0  0  2  0  0  0  0  0  0  0  0  0
    0.9200   -0.1330    0.4230 O   0  0  0  0  0  0  0  0  0  0  0  0
    2.0730    0.0240   -0.3080 C   0  0  0  0  0  0  0  0  0  0  0  0
    2.0740   -0.2390   -1.5290 O   0  0  0  0  0  0  0  0  0  0  0  0
    3.2800    0.4760    0.2500 O   0  0  0  0  0  0  0  0  0  0  0  0
   -1.6380    0.6710    0.1000 P   0  0  0  0  0  0  0  0  0  0  0  0
   -1.3410    1.7410    1.4220 O   0  0  0  0  0  0  0  0  0  0  0  0
   -2.0170    1.4910   -1.3570 O   0  0  0  0  0  0  0  0  0  0  0  0
  1  2  2  0
  2  3  1  0
  3  4  1  1
  3  8  1  0
  4  5  1  0
  5  6  2  0
  5  7  1  0
  8  9  1  0
  8 10  1  0
M  END
