
     RDKit          3D

 10 10  0  0  0  0  0  0  0  0999 V2000
   -1.3020   -0.7960   -1.1760 C   0  0  0  0  0  0  0  0  0  0  0  0
   -0.3910   -0.2450   -0.0920 C   0  0  1  0  0  0  0  0  0  0  0  0
    0.9430   -0.5110   -0.3530 O   0  0  0  0  0  0  0  0  0  0  0  0
    2.0380   -0.1920    0.3890 C   0  0  0  0  0  0  0  0  0  0  0  0
    1.8630    0.4260    1.4680 O   0  0  0  0  0  0  0  0  0  0  0  0
    3.3200   -0.5360   -0.0290 O   0  0  0  0  0  0  0  0  0  0  0  0
   -0.6920    1.2450    0.1250 C   0  0  0  0  0  0  0  0  0  0  0  0
   -1.8200    1.1500    0.8950 O   0  0  0  0  0  0  0  0  0  0  0  0
   -1.9100   -0.0260    1.4070 O   0  0  0  0  0  0  0  0  0  0  0  0
   -0.8580   -0.7210    1.1300 O   0  0  0  0  0  0  0  0  0  0  0  0
  2  1  1  6
  2  3  1  0
  2  7  1  0
  2 10  1  0
  3  4  1  0
  4  5  2  0
  4  6  1  0
  7  8  1  0
  8  9  1  0
  9 10  1  0
M  END
