
     RDKit          3D

 20 23  0  0  0  0  0  0  0  0999 V2000
    0.3460    3.6180    0.5560 C   0  0  0  0  0  0  0  0  0  0  0  0
    0.8340    2.2280    0.2940 C   0  0  0  0  0  0  0  0  0  0  0  0
   -0.0310    1.2450    0.1230 C   0  0  0  0  0  0  0  0  0  0  0  0
   -1.4840    1.5070    0.1900 C   0  0  0  0  0  0  0  0  0  0  0  0
   -2.2650    0.2850   -0.0250 C   0  0  0  0  0  0  0  0  0  0  0  0
   -3.6610    0.3800    0.0100 C   0  0  0  0  0  0  0  0  0  0  0  0
   -4.4440   -0.7400   -0.1860 C   0  0  0  0  0  0  0  0  0  0  0  0
   -5.9450   -0.6600   -0.1520 C   0  0  0  0  0  0  0  0  0  0  0  0
   -3.8930   -1.9750   -0.4210 C   0  0  0  0  0  0  0  0  0  0  0  0
   -2.5200   -2.0820   -0.4580 C   0  0  0  0  0  0  0  0  0  0  0  0
   -1.7460   -0.9500   -0.2590 C   0  0  0  0  0  0  0  0  0  0  0  0
   -0.3060   -1.1130   -0.3070 C   0  0  0  0  0  0  0  0  0  0  0  0
    0.5010   -0.0890   -0.1290 C   0  0  0  0  0  0  0  0  0  0  0  0
    1.9720   -0.2920   -0.1850 C   0  0  0  0  0  0  0  0  0  0  0  0
    2.8040    0.7090   -0.0110 C   0  0  0  0  0  0  0  0  0  0  0  0
    4.2030    0.2370   -0.1160 C   0  0  0  0  0  0  0  0  0  0  0  0
    4.0550   -1.1600   -0.6520 C   0  0  1  0  0  0  0  0  0  0  0  0
    4.8870   -2.1450    0.1470 C   0  0  0  0  0  0  0  0  0  0  0  0
    2.6660   -1.4970   -0.4160 N   0  0  0  0  0  0  0  0  0  0  0  0
    2.2340    2.0040    0.2340 N   0  0  0  0  0  0  0  0  0  0  0  0
  1  2  1  0
  2  3  2  0
  2 20  1  0
  3  4  1  0
  3 13  1  0
  4  5  1  0
  5  6  2  0
  5 11  1  0
  6  7  1  0
  7  8  1  0
  7  9  2  0
  9 10  1  0
 10 11  2  0
 11 12  1  0
 12 13  2  0
 13 14  1  0
 14 15  2  0
 14 19  1  0
 15 16  1  0
 15 20  1  0
 16 17  1  0
 17 18  1  1
 17 19  1  0
M  END
