
     RDKit          3D

 21 24  0  0  0  0  0  0  0  0999 V2000
    4.1520   -0.8460    1.9290 C   0  0  0  0  0  0  0  0  0  0  0  0
    4.5620    0.3010    1.0350 C   0  0  0  0  0  0  0  0  0  0  0  0
    3.8810    0.1200   -0.2990 C   0  0  2  0  0  0  0  0  0  0  0  0
    4.2340    1.2260   -1.2680 C   0  0  0  0  0  0  0  0  0  0  0  0
    3.1370    0.9880   -2.3180 C   0  0  0  0  0  0  0  0  0  0  0  0
    1.9710    0.8010   -1.3910 C   0  0  0  0  0  0  0  0  0  0  0  0
    0.6570    0.9540   -1.3110 N   0  0  0  0  0  0  0  0  0  0  0  0
    0.2060    0.5640   -0.1060 C   0  0  0  0  0  0  0  0  0  0  0  0
   -1.1590    0.5970    0.3140 N   0  0  0  0  0  0  0  0  0  0  0  0
   -2.0520   -0.1270   -0.2400 C   0  0  0  0  0  0  0  0  0  0  0  0
   -1.7680   -0.9870   -1.2770 C   0  0  0  0  0  0  0  0  0  0  0  0
   -2.7750   -1.7650   -1.8600 C   0  0  0  0  0  0  0  0  0  0  0  0
   -4.0350   -1.6740   -1.4040 N   0  0  0  0  0  0  0  0  0  0  0  0
   -4.3500   -0.8380   -0.3870 C   0  0  0  0  0  0  0  0  0  0  0  0
   -5.6540   -0.7830    0.0410 C   0  0  0  0  0  0  0  0  0  0  0  0
   -5.9830    0.0690    1.0810 C   0  0  0  0  0  0  0  0  0  0  0  0
   -5.0070    0.8390    1.6630 C   0  0  0  0  0  0  0  0  0  0  0  0
   -3.7060    0.7790    1.2320 C   0  0  0  0  0  0  0  0  0  0  0  0
   -3.3500   -0.0570    0.2020 C   0  0  0  0  0  0  0  0  0  0  0  0
    1.2860    0.1470    0.6000 C   0  0  0  0  0  0  0  0  0  0  0  0
    2.4030    0.2880   -0.1920 C   0  0  0  0  0  0  0  0  0  0  0  0
  1  2  1  0
  3  2  1  1
  3  4  1  0
  3 21  1  0
  4  5  1  0
  5  6  1  0
  6  7  1  0
  6 21  2  0
  7  8  1  0
  8  9  1  0
  8 20  2  0
  9 10  2  3
 10 11  1  0
 10 19  1  0
 11 12  2  0
 12 13  1  0
 13 14  1  0
 14 15  2  0
 14 19  1  0
 15 16  1  0
 16 17  2  0
 17 18  1  0
 18 19  2  0
 20 21  1  0
M  END
