
     RDKit          3D

 21 24  0  0  0  0  0  0  0  0999 V2000
   -4.0200   -1.4840   -0.8520 C   0  0  0  0  0  0  0  0  0  0  0  0
   -3.7340   -0.1950   -0.2250 C   0  0  0  0  0  0  0  0  0  0  0  0
   -4.6740    0.8230   -0.3980 C   0  0  0  0  0  0  0  0  0  0  0  0
   -4.4600    2.0590    0.1580 C   0  0  0  0  0  0  0  0  0  0  0  0
   -3.3090    2.2680    0.8810 C   0  0  0  0  0  0  0  0  0  0  0  0
   -2.3760    1.2370    1.0450 C   0  0  0  0  0  0  0  0  0  0  0  0
   -2.5880    0.0010    0.4900 C   0  0  0  0  0  0  0  0  0  0  0  0
   -1.6450   -1.0790    0.6660 C   0  0  0  0  0  0  0  0  0  0  0  0
   -0.3380   -0.9780    0.5030 C   0  0  0  0  0  0  0  0  0  0  0  0
    0.4630    0.1730    0.1250 C   0  0  0  0  0  0  0  0  0  0  0  0
    1.7550   -0.1800    0.0520 C   0  0  0  0  0  0  0  0  0  0  0  0
    1.9120   -1.5130    0.3610 C   0  0  0  0  0  0  0  0  0  0  0  0
    3.1560   -2.1310    0.3450 C   0  0  0  0  0  0  0  0  0  0  0  0
    4.2720   -1.4170    0.0180 C   0  0  0  0  0  0  0  0  0  0  0  0
    4.1260   -0.0860   -0.2910 C   0  0  0  0  0  0  0  0  0  0  0  0
    2.8920    0.5600   -0.2840 C   0  0  0  0  0  0  0  0  0  0  0  0
    3.0800    1.7940   -0.6130 N   0  0  0  0  0  0  0  0  0  0  0  0
    4.4260    2.0870   -0.8680 C   0  0  0  0  0  0  0  0  0  0  0  0
    5.0330    3.1570   -1.2150 N   0  0  0  0  0  0  0  0  0  0  0  0
    5.1360    0.8520   -0.6590 N   0  0  0  0  0  0  0  0  0  0  0  0
    0.6050   -2.1050    0.6910 C   0  0  0  0  0  0  0  0  0  0  0  0
  1  2  1  0
  2  3  2  0
  2  7  1  0
  3  4  1  0
  4  5  2  0
  5  6  1  0
  6  7  2  0
  7  8  1  0
  8  9  2  3
  9 10  1  0
  9 21  1  0
 10 11  2  0
 11 12  1  0
 11 16  1  0
 12 13  2  0
 12 21  1  0
 13 14  1  0
 14 15  2  0
 15 16  1  0
 15 20  1  0
 16 17  2  0
 17 18  1  0
 18 19  2  0
 18 20  1  0
M  END
