
     RDKit          3D

 20 23  0  0  0  0  0  0  0  0999 V2000
   -1.5390    2.2330    1.4300 C   0  0  0  0  0  0  0  0  0  0  0  0
   -2.3530    1.1990    0.6930 C   0  0  0  0  0  0  0  0  0  0  0  0
   -3.6410    1.3450    0.3290 N   0  0  0  0  0  0  0  0  0  0  0  0
   -4.0540    0.2640   -0.2910 N   0  0  0  0  0  0  0  0  0  0  0  0
   -3.0250   -0.6110   -0.3390 C   0  0  0  0  0  0  0  0  0  0  0  0
   -1.9400   -0.0410    0.2770 C   0  0  0  0  0  0  0  0  0  0  0  0
   -0.6490   -0.7720    0.3790 C   0  0  2  0  0  0  0  0  0  0  0  0
    0.4620    0.0080   -0.2060 C   0  0  0  0  0  0  0  0  0  0  0  0
    0.2360    0.7820   -1.3220 C   0  0  0  0  0  0  0  0  0  0  0  0
    1.2660    1.5440   -1.8880 C   0  0  0  0  0  0  0  0  0  0  0  0
    2.5230    1.5290   -1.3320 C   0  0  0  0  0  0  0  0  0  0  0  0
    2.7560    0.7590   -0.2180 C   0  0  0  0  0  0  0  0  0  0  0  0
    4.0250    0.7620    0.3120 C   0  0  0  0  0  0  0  0  0  0  0  0
    4.3270    0.0170    1.4170 C   0  0  0  0  0  0  0  0  0  0  0  0
    3.3160   -0.7390    1.9800 C   0  0  0  0  0  0  0  0  0  0  0  0
    2.0380   -0.7360    1.4380 C   0  0  0  0  0  0  0  0  0  0  0  0
    1.7100    0.0030    0.3310 C   0  0  0  0  0  0  0  0  0  0  0  0
   -0.6960   -2.0540   -0.2370 N   0  0  0  0  0  0  0  0  0  0  0  0
   -1.5430   -2.1810   -1.3820 C   0  0  0  0  0  0  0  0  0  0  0  0
   -2.9700   -1.9740   -0.9220 C   0  0  0  0  0  0  0  0  0  0  0  0
  1  2  1  0
  2  3  2  0
  2  6  1  0
  3  4  1  0
  4  5  1  0
  5  6  2  0
  5 20  1  0
  6  7  1  0
  7  8  1  6
  7 18  1  0
  8  9  2  0
  8 17  1  0
  9 10  1  0
 10 11  2  0
 11 12  1  0
 12 13  2  0
 12 17  1  0
 13 14  1  0
 14 15  2  0
 15 16  1  0
 16 17  2  0
 18 19  1  0
 19 20  1  0
M  END
