
     RDKit          3D

 19 20  0  0  0  0  0  0  0  0999 V2000
   -3.3370   -1.8670   -1.6130 C   0  0  0  0  0  0  0  0  0  0  0  0
   -2.7090   -0.9010   -0.6820 C   0  0  0  0  0  0  0  0  0  0  0  0
   -1.3150   -0.8280   -0.5750 C   0  0  0  0  0  0  0  0  0  0  0  0
   -0.7170    0.0610    0.2830 C   0  0  0  0  0  0  0  0  0  0  0  0
    0.6530    0.1240    0.3790 O   0  0  0  0  0  0  0  0  0  0  0  0
    1.4480   -0.7180   -0.3960 C   0  0  0  0  0  0  0  0  0  0  0  0
    2.9200   -0.5120   -0.1620 C   0  0  2  0  0  0  0  0  0  0  0  0
    3.6170   -1.3990   -0.9820 O   0  0  0  0  0  0  0  0  0  0  0  0
    3.3050   -0.7000    1.2850 C   0  0  0  0  0  0  0  0  0  0  0  0
    4.4710    0.1800    1.6760 C   0  0  0  0  0  0  0  0  0  0  0  0
    5.3820    0.3680    0.6780 O   0  0  0  0  0  0  0  0  0  0  0  0
    4.8860    0.8500   -0.5020 C   0  0  0  0  0  0  0  0  0  0  0  0
    3.3710    0.8860   -0.5570 C   0  0  0  0  0  0  0  0  0  0  0  0
   -1.5070    0.8840    1.0410 C   0  0  0  0  0  0  0  0  0  0  0  0
   -2.8940    0.8410    0.9630 C   0  0  0  0  0  0  0  0  0  0  0  0
   -3.7790    1.7070    1.7590 C   0  0  0  0  0  0  0  0  0  0  0  0
   -2.9910    2.5280    2.5570 O   0  0  0  0  0  0  0  0  0  0  0  0
   -3.4940   -0.0670    0.0870 C   0  0  0  0  0  0  0  0  0  0  0  0
   -4.9640   -0.1720   -0.0520 C   0  0  0  0  0  0  0  0  0  0  0  0
  1  2  1  0
  2  3  2  0
  2 18  1  0
  3  4  1  0
  4  5  1  0
  4 14  2  0
  5  6  1  0
  6  7  1  0
  7  8  1  6
  7  9  1  0
  7 13  1  0
  9 10  1  0
 10 11  1  0
 11 12  1  0
 12 13  1  0
 14 15  1  0
 15 16  1  0
 15 18  2  0
 16 17  1  0
 18 19  1  0
M  END
