
     RDKit          3D

 19 21  0  0  0  0  0  0  0  0999 V2000
    5.1210   -2.7080    0.4550 O   0  0  0  0  0  0  0  0  0  0  0  0
    4.0580   -2.0500   -0.1840 C   0  0  0  0  0  0  0  0  0  0  0  0
    4.2060   -0.5540   -0.0890 C   0  0  0  0  0  0  0  0  0  0  0  0
    3.2140    0.1720   -0.6810 O   0  0  0  0  0  0  0  0  0  0  0  0
    1.8810    0.3100   -0.4710 C   0  0  0  0  0  0  0  0  0  0  0  0
    1.2130   -0.3300    0.5370 C   0  0  0  0  0  0  0  0  0  0  0  0
   -0.1680   -0.1380    0.6870 C   0  0  0  0  0  0  0  0  0  0  0  0
   -0.8250    0.6870   -0.1830 C   0  0  0  0  0  0  0  0  0  0  0  0
   -0.1540    1.3430   -1.2100 C   0  0  0  0  0  0  0  0  0  0  0  0
    1.2040    1.1590   -1.3600 C   0  0  0  0  0  0  0  0  0  0  0  0
    1.8920    1.8110   -2.3870 O   0  0  0  0  0  0  0  0  0  0  0  0
   -2.2990    0.8390   -0.1380 C   0  0  0  0  0  0  0  0  0  0  0  0
   -2.9260    1.7140   -0.9020 C   0  0  0  0  0  0  0  0  0  0  0  0
   -4.4050    1.8370   -0.8300 C   0  0  0  0  0  0  0  0  0  0  0  0
   -4.9710    1.1470    0.2410 O   0  0  0  0  0  0  0  0  0  0  0  0
   -4.3300    0.2370    1.0230 C   0  0  0  0  0  0  0  0  0  0  0  0
   -2.9960    0.0510    0.8690 C   0  0  0  0  0  0  0  0  0  0  0  0
   -2.3060   -0.9780    1.6350 C   0  0  0  0  0  0  0  0  0  0  0  0
   -0.8620   -0.7540    1.8230 C   0  0  0  0  0  0  0  0  0  0  0  0
  1  2  1  0
  2  3  1  0
  3  4  1  0
  4  5  1  0
  5  6  2  0
  5 10  1  0
  6  7  1  0
  7  8  2  0
  7 19  1  0
  8  9  1  0
  8 12  1  0
  9 10  2  0
 10 11  1  0
 12 13  2  0
 12 17  1  0
 13 14  1  0
 14 15  1  0
 15 16  1  0
 16 17  2  0
 17 18  1  0
 18 19  1  0
M  END
