
     RDKit          3D

 18 19  0  0  0  0  0  0  0  0999 V2000
    1.0970   -1.9400   -1.3470 O   0  0  0  0  0  0  0  0  0  0  0  0
    1.1260   -0.8550   -0.6940 C   0  0  0  0  0  0  0  0  0  0  0  0
   -0.1120   -0.3150   -0.3790 O   0  0  0  0  0  0  0  0  0  0  0  0
   -1.3230   -0.9680   -0.7810 C   0  0  0  0  0  0  0  0  0  0  0  0
   -2.5130   -0.2380   -0.3510 C   0  0  0  0  0  0  0  0  0  0  0  0
   -2.4820    0.9470    0.3610 C   0  0  0  0  0  0  0  0  0  0  0  0
   -3.6400    1.6070    0.7490 C   0  0  0  0  0  0  0  0  0  0  0  0
   -3.5930    2.7990    1.4660 O   0  0  0  0  0  0  0  0  0  0  0  0
   -4.8300    1.0230    0.3890 C   0  0  0  0  0  0  0  0  0  0  0  0
   -4.9060   -0.1520   -0.3170 C   0  0  0  0  0  0  0  0  0  0  0  0
   -6.1500   -0.7090   -0.6620 O   0  0  0  0  0  0  0  0  0  0  0  0
   -3.7410   -0.7720   -0.6820 C   0  0  0  0  0  0  0  0  0  0  0  0
    2.4070   -0.2330   -0.3100 C   0  0  2  0  0  0  0  0  0  0  0  0
    3.5400   -1.0880   -0.8150 C   0  0  0  0  0  0  0  0  0  0  0  0
    4.8060   -0.3900   -0.3860 C   0  0  0  0  0  0  0  0  0  0  0  0
    4.8310    0.4820    0.6080 C   0  0  0  0  0  0  0  0  0  0  0  0
    3.6770    0.8900    1.4160 C   0  0  0  0  0  0  0  0  0  0  0  0
    2.5690   -0.1350    1.2010 C   0  0  0  0  0  0  0  0  0  0  0  0
  1  2  2  0
  2  3  1  0
 13  2  1  1
  3  4  1  0
  4  5  1  0
  5  6  2  0
  5 12  1  0
  6  7  1  0
  7  8  1  0
  7  9  2  0
  9 10  1  0
 10 11  1  0
 10 12  2  0
 13 14  1  0
 13 18  1  0
 14 15  1  0
 15 16  2  0
 16 17  1  0
 17 18  1  0
M  END
