
     RDKit          3D

 19 20  0  0  0  0  0  0  0  0999 V2000
   -1.9990   -0.9060    1.6430 C   0  0  0  0  0  0  0  0  0  0  0  0
   -2.2350   -0.9880    0.1550 C   0  0  0  0  0  0  0  0  0  0  0  0
   -1.9330    0.3350   -0.4780 C   0  0  0  0  0  0  0  0  0  0  0  0
   -2.8320    1.3710   -0.3480 C   0  0  0  0  0  0  0  0  0  0  0  0
   -4.0030    1.1360    0.3780 O   0  0  0  0  0  0  0  0  0  0  0  0
   -2.6100    2.6160   -0.9070 C   0  0  0  0  0  0  0  0  0  0  0  0
   -1.4280    2.7890   -1.6170 C   0  0  0  0  0  0  0  0  0  0  0  0
   -0.4930    1.7950   -1.7820 C   0  0  0  0  0  0  0  0  0  0  0  0
    0.6860    1.9850   -2.4960 O   0  0  0  0  0  0  0  0  0  0  0  0
   -0.7740    0.5590   -1.1930 C   0  0  0  0  0  0  0  0  0  0  0  0
    0.1040   -0.4700   -1.3160 O   0  0  0  0  0  0  0  0  0  0  0  0
    1.1500   -0.8290   -0.5330 C   0  0  0  0  0  0  0  0  0  0  0  0
    1.4880   -0.1210    0.6040 C   0  0  0  0  0  0  0  0  0  0  0  0
    2.5590   -0.4950    1.3980 C   0  0  0  0  0  0  0  0  0  0  0  0
    2.8810    0.3070    2.6090 C   0  0  0  0  0  0  0  0  0  0  0  0
    3.2970   -1.6000    1.0390 C   0  0  0  0  0  0  0  0  0  0  0  0
    2.9620   -2.3140   -0.1010 C   0  0  0  0  0  0  0  0  0  0  0  0
    1.8940   -1.9450   -0.8980 C   0  0  0  0  0  0  0  0  0  0  0  0
    1.5580   -2.6550   -2.0340 O   0  0  0  0  0  0  0  0  0  0  0  0
  1  2  1  0
  2  3  1  0
  3  4  2  0
  3 10  1  0
  4  5  1  0
  4  6  1  0
  6  7  2  0
  7  8  1  0
  8  9  1  0
  8 10  2  0
 10 11  1  0
 11 12  1  0
 12 13  2  0
 12 18  1  0
 13 14  1  0
 14 15  1  0
 14 16  2  0
 16 17  1  0
 17 18  2  0
 18 19  1  0
M  END
