
     RDKit          3D

 19 19  0  0  0  0  0  0  0  0999 V2000
   -3.8460    0.9020   -2.8350 C   0  0  0  0  0  0  0  0  0  0  0  0
   -2.8830    0.0730   -2.6340 C   0  0  0  0  0  0  0  0  0  0  0  0
   -2.6350   -0.9410   -3.5890 O   0  0  0  0  0  0  0  0  0  0  0  0
   -2.0060    0.0950   -1.4660 C   0  0  0  0  0  0  0  0  0  0  0  0
   -2.4500    0.4670   -0.2200 C   0  0  0  0  0  0  0  0  0  0  0  0
   -3.8840    0.7970    0.0800 C   0  0  0  0  0  0  0  0  0  0  0  0
   -1.5960    0.5270    0.8780 C   0  0  0  0  0  0  0  0  0  0  0  0
   -2.0770    0.9080    2.1250 O   0  0  0  0  0  0  0  0  0  0  0  0
   -1.3080    0.9990    3.2780 C   0  0  0  0  0  0  0  0  0  0  0  0
   -0.2740    0.1960    0.6680 C   0  0  0  0  0  0  0  0  0  0  0  0
    0.1930   -0.1840   -0.5870 C   0  0  0  0  0  0  0  0  0  0  0  0
    1.5950   -0.5270   -0.7670 C   0  0  0  0  0  0  0  0  0  0  0  0
    2.4700   -0.4980    0.2150 C   0  0  0  0  0  0  0  0  0  0  0  0
    3.8570   -0.8670   -0.0950 C   0  0  0  0  0  0  0  0  0  0  0  0
    4.7370   -0.8440    0.8640 C   0  0  0  0  0  0  0  0  0  0  0  0
    4.3780   -0.4620    2.2310 C   0  0  0  0  0  0  0  0  0  0  0  0
    6.0510   -1.1940    0.5650 O   0  0  0  0  0  0  0  0  0  0  0  0
   -0.6540   -0.2420   -1.6690 C   0  0  0  0  0  0  0  0  0  0  0  0
   -0.2670   -0.6090   -2.9430 O   0  0  0  0  0  0  0  0  0  0  0  0
  1  2  2  0
  2  3  1  0
  2  4  1  0
  4  5  2  0
  4 18  1  0
  5  6  1  0
  5  7  1  0
  7  8  1  0
  7 10  2  0
  8  9  1  0
 10 11  1  0
 11 12  1  0
 11 18  2  0
 12 13  2  3
 13 14  1  0
 14 15  2  3
 15 16  1  0
 15 17  1  0
 18 19  1  0
M  END
