
     RDKit          3D

 12 12  0  0  0  0  0  0  0  0999 V2000
   -3.6810   -0.2910   -0.7500 C   0  0  0  0  0  0  0  0  0  0  0  0
   -2.7940    0.6710   -0.2170 O   0  0  0  0  0  0  0  0  0  0  0  0
   -1.7090    0.3590    0.5630 C   0  0  0  0  0  0  0  0  0  0  0  0
   -1.4480   -0.8210    0.8460 O   0  0  0  0  0  0  0  0  0  0  0  0
   -0.8560    1.4500    1.0610 C   0  0  0  0  0  0  0  0  0  0  0  0
    0.5190    0.8410    2.0680 S   0  0  0  0  0  0  0  0  0  0  0  0
    1.6290   -0.1030    1.0430 C   0  0  0  0  0  0  0  0  0  0  0  0
    2.7060   -0.6690    1.4600 N   0  0  0  0  0  0  0  0  0  0  0  0
    3.3340   -1.3290    0.3720 N   0  0  0  0  0  0  0  0  0  0  0  0
    2.6810   -0.9650   -0.8270 N   0  0  0  0  0  0  0  0  0  0  0  0
    3.4050    0.0770   -1.3560 O   0  0  0  0  0  0  0  0  0  0  0  0
    1.4930   -0.3600   -0.3430 N   0  0  0  0  0  0  0  0  0  0  0  0
  1  2  1  0
  2  3  1  0
  3  4  2  0
  3  5  1  0
  5  6  1  0
  6  7  1  0
  7  8  2  0
  7 12  1  0
  8  9  1  0
  9 10  1  0
 10 11  1  0
 10 12  1  0
M  END
