
     RDKit          3D

 13 13  0  0  0  0  0  0  0  0999 V2000
    4.4140    0.1300    0.2770 C   0  0  0  0  0  0  0  0  0  0  0  0
    3.0250   -0.3590    0.0800 C   0  0  0  0  0  0  0  0  0  0  0  0
    2.8320   -1.6010   -0.1490 O   0  0  0  0  0  0  0  0  0  0  0  0
    1.9710    0.5620    0.1520 N   0  0  0  0  0  0  0  0  0  0  0  0
    0.6670    0.0570   -0.0410 C   0  0  0  0  0  0  0  0  0  0  0  0
    0.0930   -1.0750   -0.2820 N   0  0  0  0  0  0  0  0  0  0  0  0
   -1.1810   -1.1480   -0.3990 N   0  0  0  0  0  0  0  0  0  0  0  0
   -1.9900   -0.3250   -0.3240 C   0  0  0  0  0  0  0  0  0  0  0  0
   -3.6570    0.1510   -0.3710 S   0  0  2  0  0  0  0  0  0  0  0  0
   -4.2920    0.0590    1.2260 N   0  0  0  0  0  0  0  0  0  0  0  0
   -4.4600   -0.7590   -1.2750 O   0  0  0  0  0  0  0  0  0  0  0  0
   -3.8780    1.5430   -0.8740 O   0  0  0  0  0  0  0  0  0  0  0  0
   -0.8400    1.1410    0.0220 S   0  0  0  0  0  0  0  0  0  0  0  0
  1  2  1  0
  2  3  2  0
  2  4  1  0
  4  5  1  0
  5  6  2  0
  5 13  1  0
  6  7  1  0
  7  8  2  0
  8  9  1  0
  8 13  1  0
  9 10  1  1
  9 11  2  0
  9 12  2  0
M  END
