
     RDKit          3D

 12 12  0  0  0  0  0  0  0  0999 V2000
   -2.5710   -2.3460    0.2370 O   0  0  0  0  0  0  0  0  0  0  0  0
   -2.1770   -1.1710    0.0480 C   0  0  0  0  0  0  0  0  0  0  0  0
   -0.8800   -0.8420    0.2390 N   0  0  0  0  0  0  0  0  0  0  0  0
   -0.4530    0.4090    0.0390 C   0  0  0  0  0  0  0  0  0  0  0  0
    1.2540    0.9040    0.2770 S   0  0  0  0  0  0  0  0  0  0  0  0
    2.2780   -0.4700    0.8030 C   0  0  0  0  0  0  0  0  0  0  0  0
    3.9790    0.1570    1.0090 S   0  0  0  0  0  0  0  0  0  0  0  0
    4.5930    0.6220   -0.5270 O   0  0  0  0  0  0  0  0  0  0  0  0
   -1.3360    1.3430   -0.3560 N   0  0  0  0  0  0  0  0  0  0  0  0
   -2.6320    1.0170   -0.5480 C   0  0  0  0  0  0  0  0  0  0  0  0
   -3.4130    1.9470   -0.9220 O   0  0  0  0  0  0  0  0  0  0  0  0
   -3.0820   -0.2360   -0.3520 N   0  0  0  0  0  0  0  0  0  0  0  0
  1  2  2  0
  2  3  1  0
  2 12  1  0
  3  4  2  0
  4  5  1  0
  4  9  1  0
  5  6  1  0
  6  7  1  0
  7  8  1  0
  9 10  1  0
 10 11  2  0
 10 12  1  0
M  END
