
     RDKit          3D

 13 13  0  0  0  0  0  0  0  0999 V2000
   -3.7710    0.9150    1.2210 C   0  0  0  0  0  0  0  0  0  0  0  0
   -3.0690   -0.4990    0.4230 S   0  0  1  0  0  0  0  0  0  0  0  0
   -2.4500   -1.4260    1.4490 O   0  0  0  0  0  0  0  0  0  0  0  0
   -4.1380   -1.2880   -0.2960 O   0  0  0  0  0  0  0  0  0  0  0  0
   -1.9120    0.0460   -0.7310 N   0  0  0  0  0  0  0  0  0  0  0  0
   -0.5720   -0.2960   -0.4420 C   0  0  0  0  0  0  0  0  0  0  0  0
   -0.2610   -0.9250    0.5700 O   0  0  0  0  0  0  0  0  0  0  0  0
    0.4460    0.0620   -1.3030 N   0  0  0  0  0  0  0  0  0  0  0  0
    1.7710   -0.2560   -0.9230 C   0  0  0  0  0  0  0  0  0  0  0  0
    2.6800   -0.3760   -1.7030 N   0  0  0  0  0  0  0  0  0  0  0  0
    3.9130   -0.6970   -1.2900 N   0  0  0  0  0  0  0  0  0  0  0  0
    4.3380    0.2180   -0.2060 C   0  0  0  0  0  0  0  0  0  0  0  0
    2.7230   -0.0170    0.6700 S   0  0  0  0  0  0  0  0  0  0  0  0
  2  1  1  1
  2  3  2  0
  2  4  2  0
  2  5  1  0
  5  6  1  0
  6  7  2  0
  6  8  1  0
  8  9  1  0
  9 10  2  0
  9 13  1  0
 10 11  1  0
 11 12  1  0
 12 13  1  0
M  END
