
     RDKit          3D

 12 12  0  0  0  0  0  0  0  0999 V2000
    3.6400   -0.7170   -0.5610 C   0  0  0  0  0  0  0  0  0  0  0  0
    2.7210    0.4590   -0.2020 C   0  0  0  0  0  0  0  0  0  0  0  0
    1.4040   -0.0630   -0.2070 O   0  0  0  0  0  0  0  0  0  0  0  0
    0.3600    0.7760    0.0840 C   0  0  0  0  0  0  0  0  0  0  0  0
    0.6040    1.9740    0.3450 O   0  0  0  0  0  0  0  0  0  0  0  0
   -1.0430    0.3350    0.1050 C   0  0  0  0  0  0  0  0  0  0  0  0
   -1.3030   -0.9290   -0.1690 C   0  0  0  0  0  0  0  0  0  0  0  0
   -2.6690   -1.4330   -0.1660 C   0  0  0  0  0  0  0  0  0  0  0  0
   -3.5770   -0.4330    0.1510 O   0  0  0  0  0  0  0  0  0  0  0  0
   -3.3450    0.8830    0.4400 C   0  0  0  0  0  0  0  0  0  0  0  0
   -2.0910    1.2960    0.4260 C   0  0  0  0  0  0  0  0  0  0  0  0
   -1.6760    2.9600    0.7810 Cl  0  0  0  0  0  0  0  0  0  0  0  0
  1  2  1  0
  2  3  1  0
  3  4  1  0
  4  5  2  0
  4  6  1  0
  6  7  2  0
  6 11  1  0
  7  8  1  0
  8  9  1  0
  9 10  1  0
 10 11  2  0
 11 12  1  0
M  END
