
     RDKit          3D

 12 12  0  0  0  0  0  0  0  0999 V2000
    3.8930   -0.2550    0.0940 O   0  0  0  0  0  0  0  0  0  0  0  0
    2.7130    0.1360    0.0950 C   0  0  0  0  0  0  0  0  0  0  0  0
    2.2790    1.0340    1.0960 O   0  0  0  0  0  0  0  0  0  0  0  0
    1.7910   -0.3500   -0.9590 C   0  0  0  0  0  0  0  0  0  0  0  0
    0.3730   -0.2800   -0.5010 C   0  0  0  0  0  0  0  0  0  0  0  0
   -0.2680   -1.3880   -0.0130 C   0  0  0  0  0  0  0  0  0  0  0  0
   -1.5820   -1.3130    0.4200 C   0  0  0  0  0  0  0  0  0  0  0  0
   -2.2890   -0.1180    0.3740 C   0  0  0  0  0  0  0  0  0  0  0  0
   -3.6140   -0.0500    0.8100 O   0  0  0  0  0  0  0  0  0  0  0  0
   -1.6290    0.9840   -0.1180 C   0  0  0  0  0  0  0  0  0  0  0  0
   -2.5220    2.4980   -0.1880 Cl  0  0  0  0  0  0  0  0  0  0  0  0
   -0.3270    0.9160   -0.5490 C   0  0  0  0  0  0  0  0  0  0  0  0
  1  2  2  0
  2  3  1  0
  2  4  1  0
  4  5  1  0
  5  6  2  0
  5 12  1  0
  6  7  1  0
  7  8  2  0
  8  9  1  0
  8 10  1  0
 10 11  1  0
 10 12  2  0
M  END
