
     RDKit          3D

 11 10  0  0  0  0  0  0  0  0999 V2000
   -1.4950   -0.3860   -0.4940 C   0  0  0  0  0  0  0  0  0  0  0  0
   -0.1730   -0.2560    0.1360 C   0  0  0  0  0  0  0  0  0  0  0  0
    0.0980   -0.8680    1.2410 C   0  0  0  0  0  0  0  0  0  0  0  0
   -0.7550   -1.7480    2.0540 C   0  0  0  0  0  0  0  0  0  0  0  0
   -0.9450   -1.2250    3.3460 O   0  0  0  0  0  0  0  0  0  0  0  0
    0.8840    0.5550   -0.5000 C   0  0  0  0  0  0  0  0  0  0  0  0
    2.2580    0.5050    0.2700 C   0  0  0  0  0  0  0  0  0  0  0  0
    0.9310    1.2430   -1.5090 C   0  0  0  0  0  0  0  0  0  0  0  0
    0.0990    1.6650   -2.6020 C   0  0  0  0  0  0  0  0  0  0  0  0
    0.6130    2.4710   -3.4840 O   0  0  0  0  0  0  0  0  0  0  0  0
   -1.2190    1.3120   -2.8500 O   0  0  0  0  0  0  0  0  0  0  0  0
  1  2  1  0
  2  3  2  3
  2  6  1  0
  3  4  1  0
  4  5  1  0
  6  7  1  0
  6  8  2  3
  8  9  1  0
  9 10  2  0
  9 11  1  0
M  END
