
     RDKit          3D

 12 12  0  0  0  0  0  0  0  0999 V2000
   -2.9530    1.8690    0.3190 O   0  0  0  0  0  0  0  0  0  0  0  0
   -2.2250    0.6880    0.1620 C   0  0  0  0  0  0  0  0  0  0  0  0
   -2.9630   -0.4770    0.0920 C   0  0  0  0  0  0  0  0  0  0  0  0
   -2.2590   -1.6560   -0.0630 C   0  0  0  0  0  0  0  0  0  0  0  0
   -0.8760   -1.6310   -0.1410 C   0  0  0  0  0  0  0  0  0  0  0  0
   -0.2560   -2.8730   -0.2980 O   0  0  0  0  0  0  0  0  0  0  0  0
   -0.1660   -0.4540   -0.0680 C   0  0  0  0  0  0  0  0  0  0  0  0
    1.2150   -0.5080   -0.1540 O   0  0  0  0  0  0  0  0  0  0  0  0
    1.9160    0.7170   -0.0750 C   0  0  0  0  0  0  0  0  0  0  0  0
    3.4120    0.5180   -0.1820 C   0  0  0  0  0  0  0  0  0  0  0  0
    4.1690    2.1350   -0.0690 Cl  0  0  0  0  0  0  0  0  0  0  0  0
   -0.8560    0.7290    0.0870 C   0  0  0  0  0  0  0  0  0  0  0  0
  1  2  1  0
  2  3  2  0
  2 12  1  0
  3  4  1  0
  4  5  2  0
  5  6  1  0
  5  7  1  0
  7  8  1  0
  7 12  2  0
  8  9  1  0
  9 10  1  0
 10 11  1  0
M  END
