
     RDKit          3D

 12 12  0  0  0  0  0  0  0  0999 V2000
    3.6460    0.0040    0.0890 C   0  0  0  0  0  0  0  0  0  0  0  0
    2.2360    0.4970   -0.0050 C   0  0  0  0  0  0  0  0  0  0  0  0
    1.3020   -0.5670    0.1970 O   0  0  0  0  0  0  0  0  0  0  0  0
   -0.0670   -0.3440    0.1550 C   0  0  0  0  0  0  0  0  0  0  0  0
   -0.5920    0.9130   -0.0830 C   0  0  0  0  0  0  0  0  0  0  0  0
   -1.9500    1.1490   -0.1280 C   0  0  0  0  0  0  0  0  0  0  0  0
   -2.4560    2.4330   -0.3710 O   0  0  0  0  0  0  0  0  0  0  0  0
   -2.7880    0.0760    0.0760 C   0  0  0  0  0  0  0  0  0  0  0  0
   -4.5140    0.3410    0.0260 Cl  0  0  0  0  0  0  0  0  0  0  0  0
   -2.2640   -1.1850    0.3150 C   0  0  0  0  0  0  0  0  0  0  0  0
   -0.9050   -1.4200    0.3600 C   0  0  0  0  0  0  0  0  0  0  0  0
   -0.4060   -2.6990    0.6020 O   0  0  0  0  0  0  0  0  0  0  0  0
  1  2  1  0
  2  3  1  0
  3  4  1  0
  4  5  2  0
  4 11  1  0
  5  6  1  0
  6  7  1  0
  6  8  2  0
  8  9  1  0
  8 10  1  0
 10 11  2  0
 11 12  1  0
M  END
