
     RDKit          3D

 12 12  0  0  0  0  0  0  0  0999 V2000
    3.5560   -1.1140    0.4510 O   0  0  0  0  0  0  0  0  0  0  0  0
    2.9650    0.1420    0.6360 C   0  0  0  0  0  0  0  0  0  0  0  0
    1.8830    0.2890   -0.3860 C   0  0  0  0  0  0  0  0  0  0  0  0
    1.9110    1.2600   -1.2720 C   0  0  0  0  0  0  0  0  0  0  0  0
    3.2510    2.3740   -1.2180 Cl  0  0  0  0  0  0  0  0  0  0  0  0
    0.8120   -0.6030   -0.4270 O   0  0  0  0  0  0  0  0  0  0  0  0
   -0.3000   -0.4080    0.3910 C   0  0  2  0  0  0  0  0  0  0  0  0
   -1.3010   -1.5140    0.1440 C   0  0  0  0  0  0  0  0  0  0  0  0
   -2.3240   -0.9940   -0.8370 C   0  0  0  0  0  0  0  0  0  0  0  0
   -3.1610   -0.1480   -0.1270 O   0  0  0  0  0  0  0  0  0  0  0  0
   -2.4510    0.7750    0.6220 C   0  0  0  0  0  0  0  0  0  0  0  0
   -1.0070    0.8970    0.1530 C   0  0  0  0  0  0  0  0  0  0  0  0
  1  2  1  0
  2  3  1  0
  3  4  2  3
  3  6  1  0
  4  5  1  0
  7  6  1  6
  7  8  1  0
  7 12  1  0
  8  9  1  0
  9 10  1  0
 10 11  1  0
 11 12  1  0
M  END
