
     RDKit          3D

 11 11  0  0  0  0  0  0  0  0999 V2000
   -0.1570   -1.8990   -1.6930 O   0  0  0  0  0  0  0  0  0  0  0  0
   -1.0270   -1.2360   -1.0970 C   0  0  0  0  0  0  0  0  0  0  0  0
   -2.4020   -1.2930   -1.3860 O   0  0  0  0  0  0  0  0  0  0  0  0
   -3.0740   -0.0370   -1.1770 C   0  0  0  0  0  0  0  0  0  0  0  0
   -2.8890    0.2700    0.2870 C   0  0  0  0  0  0  0  0  0  0  0  0
   -1.4550    0.3670    0.6270 C   0  0  0  0  0  0  0  0  0  0  0  0
   -0.5710   -0.3500   -0.0320 C   0  0  0  0  0  0  0  0  0  0  0  0
    0.8560   -0.2240    0.3420 C   0  0  0  0  0  0  0  0  0  0  0  0
    1.7180    0.2550   -0.7950 C   0  0  0  0  0  0  0  0  0  0  0  0
    3.1480    0.3310   -0.2490 C   0  0  0  0  0  0  0  0  0  0  0  0
    3.9770    0.7720   -1.2800 O   0  0  0  0  0  0  0  0  0  0  0  0
  1  2  2  0
  2  3  1  0
  2  7  1  0
  3  4  1  0
  4  5  1  0
  5  6  1  0
  6  7  2  0
  7  8  1  0
  8  9  1  0
  9 10  1  0
 10 11  1  0
M  END
