
     RDKit          3D

 22 23  0  0  0  0  0  0  0  0999 V2000
    5.7820    0.5490    1.3520 O   0  0  0  0  0  0  0  0  0  0  0  0
    5.7910    0.5970   -0.0560 C   0  0  0  0  0  0  0  0  0  0  0  0
    4.3840    0.5660   -0.6130 C   0  0  0  0  0  0  0  0  0  0  0  0
    3.6650   -0.6970   -0.1970 C   0  0  1  0  0  0  0  0  0  0  0  0
    4.4290   -1.7660   -0.7190 O   0  0  0  0  0  0  0  0  0  0  0  0
    3.5960   -0.8380    1.1680 O   0  0  0  0  0  0  0  0  0  0  0  0
    2.3010   -0.8140   -0.7890 C   0  0  2  0  0  0  0  0  0  0  0  0
    2.3090   -0.7370   -2.1790 O   0  0  0  0  0  0  0  0  0  0  0  0
    1.3150    0.1680   -0.1950 C   0  0  0  0  0  0  0  0  0  0  0  0
    0.0590   -0.1670   -0.7000 O   0  0  0  0  0  0  0  0  0  0  0  0
   -0.9450    0.6790   -0.2170 C   0  0  1  0  0  0  0  0  0  0  0  0
   -1.4660    1.3690   -1.2570 O   0  0  0  0  0  0  0  0  0  0  0  0
   -2.7580    1.7520   -1.2010 C   0  0  2  0  0  0  0  0  0  0  0  0
   -2.8060    3.1530   -1.4030 O   0  0  0  0  0  0  0  0  0  0  0  0
   -3.4340    1.4930   -0.0420 O   0  0  0  0  0  0  0  0  0  0  0  0
   -3.3340    0.1750    0.3330 C   0  0  2  0  0  0  0  0  0  0  0  0
   -4.0240   -0.7770   -0.6240 C   0  0  0  0  0  0  0  0  0  0  0  0
   -5.4670   -0.4850   -0.2430 C   0  0  0  0  0  0  0  0  0  0  0  0
   -5.4920   -0.2090    1.0960 O   0  0  0  0  0  0  0  0  0  0  0  0
   -4.2110   -0.0280    1.5510 C   0  0  0  0  0  0  0  0  0  0  0  0
   -1.9030   -0.1630    0.5670 C   0  0  1  0  0  0  0  0  0  0  0  0
   -1.7330   -1.5350    0.2990 O   0  0  0  0  0  0  0  0  0  0  0  0
  1  2  1  0
  2  3  1  0
  3  4  1  0
  4  5  1  6
  4  6  1  0
  4  7  1  0
  7  8  1  6
  7  9  1  0
  9 10  1  0
 11 10  1  6
 11 12  1  0
 11 21  1  0
 12 13  1  0
 13 14  1  1
 13 15  1  0
 15 16  1  0
 16 17  1  6
 16 20  1  0
 16 21  1  0
 17 18  1  0
 18 19  1  0
 19 20  1  0
 21 22  1  6
M  END
