
     RDKit          3D

 20 20  0  0  0  0  0  0  0  0999 V2000
    5.8550   -1.8240    0.0390 C   0  0  0  0  0  0  0  0  0  0  0  0
    5.2220   -1.1340   -1.1400 C   0  0  0  0  0  0  0  0  0  0  0  0
    3.7570   -1.2390   -1.0220 C   0  0  0  0  0  0  0  0  0  0  0  0
    3.0150   -0.1240   -0.9490 C   0  0  0  0  0  0  0  0  0  0  0  0
    1.5990   -0.2460   -0.8360 C   0  0  0  0  0  0  0  0  0  0  0  0
    0.7510    0.7450   -0.7560 C   0  0  0  0  0  0  0  0  0  0  0  0
    1.0630    2.1490   -0.7660 C   0  0  0  0  0  0  0  0  0  0  0  0
    2.6170    2.9520   -0.8980 Cl  0  0  0  0  0  0  0  0  0  0  0  0
   -0.0630    2.8240   -0.6530 C   0  0  0  0  0  0  0  0  0  0  0  0
   -0.2020    4.2790   -0.6300 C   0  0  0  0  0  0  0  0  0  0  0  0
   -1.2280    4.8490   -1.9830 Cl  0  0  0  0  0  0  0  0  0  0  0  0
   -1.2150    1.8980   -0.4660 C   0  0  0  0  0  0  0  0  0  0  0  0
   -0.6990    0.5760   -0.6350 N   0  0  0  0  0  0  0  0  0  0  0  0
   -1.3930   -0.6540   -0.7110 C   0  0  0  0  0  0  0  0  0  0  0  0
   -2.0680   -1.2560    0.4310 C   0  0  1  0  0  0  0  0  0  0  0  0
   -1.0100   -1.5850    1.8260 Cl  0  0  0  0  0  0  0  0  0  0  0  0
   -3.3720   -0.7690    0.9160 C   0  0  1  0  0  0  0  0  0  0  0  0
   -4.4670   -0.8300   -0.1390 C   0  0  0  0  0  0  0  0  0  0  0  0
   -3.7960   -1.8010    2.0140 C   0  0  0  0  0  0  0  0  0  0  0  0
   -3.3550    0.4370    1.5500 O   0  0  0  0  0  0  0  0  0  0  0  0
  1  2  1  0
  2  3  1  0
  3  4  2  3
  4  5  1  0
  5  6  2  3
  6  7  1  0
  6 13  1  0
  7  8  1  0
  7  9  2  0
  9 10  1  0
  9 12  1  0
 10 11  1  0
 12 13  1  0
 13 14  1  0
 14 15  1  0
 15 16  1  1
 15 17  1  0
 17 18  1  6
 17 19  1  0
 17 20  1  0
M  END
