
     RDKit          3D

 20 21  0  0  0  0  0  0  0  0999 V2000
   -1.0900    1.3160   -0.4680 O   0  0  0  0  0  0  0  0  0  0  0  0
   -1.0850    0.1350   -0.0330 C   0  0  0  0  0  0  0  0  0  0  0  0
   -2.3240   -0.5230    0.1930 N   0  0  0  0  0  0  0  0  0  0  0  0
   -3.5460    0.1490   -0.0720 C   0  0  2  0  0  0  0  0  0  0  0  0
   -4.4410    0.2940    1.1470 C   0  0  0  0  0  0  0  0  0  0  0  0
   -5.6620    0.9260    0.4660 C   0  0  0  0  0  0  0  0  0  0  0  0
   -5.8000    0.0930   -0.7650 C   0  0  0  0  0  0  0  0  0  0  0  0
   -4.4520   -0.5410   -1.0370 C   0  0  0  0  0  0  0  0  0  0  0  0
    0.2170   -0.5530    0.2390 C   0  0  0  0  0  0  0  0  0  0  0  0
    0.1170   -2.1560    0.8440 Cl  0  0  0  0  0  0  0  0  0  0  0  0
    1.3140    0.0990    0.0140 C   0  0  0  0  0  0  0  0  0  0  0  0
    2.6950   -0.1550    0.1260 C   0  0  0  0  0  0  0  0  0  0  0  0
    3.5170    0.8970   -0.2400 C   0  0  0  0  0  0  0  0  0  0  0  0
    4.9650    0.6590   -0.1300 C   0  0  0  0  0  0  0  0  0  0  0  0
    5.7890    1.0480   -1.0860 C   0  0  0  0  0  0  0  0  0  0  0  0
    5.2370    1.8620   -2.5310 Cl  0  0  0  0  0  0  0  0  0  0  0  0
    5.5220   -0.0310    1.0880 C   0  0  0  0  0  0  0  0  0  0  0  0
    4.3560   -0.7990    1.7270 C   0  0  0  0  0  0  0  0  0  0  0  0
    3.5090   -1.3010    0.5360 C   0  0  1  0  0  0  0  0  0  0  0  0
    2.7520   -2.8160    0.8760 Cl  0  0  0  0  0  0  0  0  0  0  0  0
  1  2  2  0
  2  3  1  0
  2  9  1  0
  4  3  1  1
  4  5  1  0
  4  8  1  0
  5  6  1  0
  6  7  1  0
  7  8  1  0
  9 10  1  0
  9 11  2  3
 11 12  1  0
 12 13  2  0
 12 19  1  0
 13 14  1  0
 14 15  2  3
 14 17  1  0
 15 16  1  0
 17 18  1  0
 18 19  1  0
 19 20  1  1
M  END
