
     RDKit          3D

  7  6  0  0  0  0  0  0  0  0999 V2000
   -2.0150    0.5940    0.0360 C   0  0  0  0  0  0  0  0  0  0  0  0
   -1.4710   -0.7840   -0.2220 C   0  0  0  0  0  0  0  0  0  0  0  0
   -0.1700   -1.0050   -0.2410 C   0  0  0  0  0  0  0  0  0  0  0  0
    0.2680   -2.2940   -0.4830 O   0  0  0  0  0  0  0  0  0  0  0  0
    0.7920    0.0180   -0.0240 N   0  0  0  0  0  0  0  0  0  0  0  0
    0.8780    1.1070   -0.9730 C   0  0  0  0  0  0  0  0  0  0  0  0
    1.7060    0.0430    1.0980 C   0  0  0  0  0  0  0  0  0  0  0  0
  1  2  1  0
  2  3  2  3
  3  4  1  0
  3  5  1  0
  5  6  1  0
  5  7  1  0
M  END
