
     RDKit          3D

  7  6  0  0  0  0  0  0  0  0999 V2000
   -2.9300   -0.3710   -0.1570 C   0  0  0  0  0  0  0  0  0  0  0  0
   -1.6920    0.5130   -0.2480 C   0  0  0  0  0  0  0  0  0  0  0  0
   -0.5370   -0.3080    0.2800 C   0  0  0  0  0  0  0  0  0  0  0  0
    0.6860    0.5030    0.2140 C   0  0  0  0  0  0  0  0  0  0  0  0
    0.6550    1.6310   -0.2110 O   0  0  0  0  0  0  0  0  0  0  0  0
    1.9330   -0.0710    0.6670 N   0  0  0  0  0  0  0  0  0  0  0  0
    2.8420    0.0120   -0.4610 C   0  0  0  0  0  0  0  0  0  0  0  0
  1  2  1  0
  2  3  1  0
  3  4  1  0
  4  5  2  0
  4  6  1  0
  6  7  1  0
M  CHG  1   6   1
M  END
