
     RDKit          3D

 23 24  0  0  0  0  0  0  0  0999 V2000
    5.4410    0.0170    1.8850 O   0  0  0  0  0  0  0  0  0  0  0  0
    5.5890   -0.1530    0.6550 C   0  0  0  0  0  0  0  0  0  0  0  0
    6.8620   -0.3230    0.1490 O   0  0  0  0  0  0  0  0  0  0  0  0
    4.4000   -0.1680   -0.2140 C   0  0  0  0  0  0  0  0  0  0  0  0
    3.2280    0.0250    0.5380 O   0  0  0  0  0  0  0  0  0  0  0  0
    1.9710    0.0560   -0.0250 C   0  0  0  0  0  0  0  0  0  0  0  0
    1.9140   -0.1020   -1.2830 O   0  0  0  0  0  0  0  0  0  0  0  0
    0.7150    0.2610    0.7700 C   0  0  2  0  0  0  0  0  0  0  0  0
    1.1440    0.4000    2.1140 O   0  0  0  0  0  0  0  0  0  0  0  0
   -0.1720   -0.9440    0.7470 C   0  0  0  0  0  0  0  0  0  0  0  0
   -1.5750   -0.5790    0.3400 C   0  0  1  0  0  0  0  0  0  0  0  0
   -2.4470   -1.5960    0.2590 O   0  0  0  0  0  0  0  0  0  0  0  0
   -2.2030   -2.6160   -0.6070 C   0  0  2  0  0  0  0  0  0  0  0  0
   -3.3360   -2.8160   -1.4020 O   0  0  0  0  0  0  0  0  0  0  0  0
   -2.0630   -3.7920    0.1570 O   0  0  0  0  0  0  0  0  0  0  0  0
   -2.1000    0.3960    1.3780 C   0  0  0  0  0  0  0  0  0  0  0  0
   -2.8250    1.5030    0.6470 C   0  0  0  0  0  0  0  0  0  0  0  0
   -1.8830    2.4000   -0.1260 C   0  0  1  0  0  0  0  0  0  0  0  0
   -1.4320    3.3860    0.7200 O   0  0  0  0  0  0  0  0  0  0  0  0
   -0.7380    1.4890   -0.6010 C   0  0  2  0  0  0  0  0  0  0  0  0
   -0.2210    2.1190   -1.7480 O   0  0  0  0  0  0  0  0  0  0  0  0
   -1.3880    0.1870   -0.9790 C   0  0  0  0  0  0  0  0  0  0  0  0
    0.1680    1.4330    0.4020 O   0  0  0  0  0  0  0  0  0  0  0  0
  1  2  2  0
  2  3  1  0
  2  4  1  0
  4  5  1  0
  5  6  1  0
  6  7  2  0
  6  8  1  0
  8  9  1  1
  8 10  1  0
  8 23  1  0
 10 11  1  0
 11 12  1  6
 11 16  1  0
 11 22  1  0
 12 13  1  0
 13 14  1  6
 13 15  1  0
 16 17  1  0
 17 18  1  0
 18 19  1  1
 18 20  1  0
 20 21  1  6
 20 22  1  0
 20 23  1  0
M  END
