
     RDKit          3D

 22 23  0  0  0  0  0  0  0  0999 V2000
   -4.5080    1.3810   -0.2330 C   0  0  0  0  0  0  0  0  0  0  0  0
   -3.5890    0.8290    0.8440 C   0  0  2  0  0  0  0  0  0  0  0  0
   -2.3070    1.3190    0.7340 O   0  0  0  0  0  0  0  0  0  0  0  0
   -1.6080    0.7940   -0.3260 C   0  0  2  0  0  0  0  0  0  0  0  0
   -2.0950    1.2160   -1.5600 O   0  0  0  0  0  0  0  0  0  0  0  0
   -1.4670   -0.7120   -0.2480 C   0  0  1  0  0  0  0  0  0  0  0  0
   -0.9970   -1.1280   -1.4840 O   0  0  0  0  0  0  0  0  0  0  0  0
   -0.5530   -1.0970    0.8600 C   0  0  0  0  0  0  0  0  0  0  0  0
    0.7320   -0.6050    0.8390 O   0  0  0  0  0  0  0  0  0  0  0  0
    1.7380   -0.7820   -0.0640 C   0  0  0  0  0  0  0  0  0  0  0  0
    1.4990   -1.5120   -1.0560 O   0  0  0  0  0  0  0  0  0  0  0  0
    3.0590   -0.1790    0.0580 C   0  0  0  0  0  0  0  0  0  0  0  0
    4.0340   -0.3470   -0.8120 C   0  0  0  0  0  0  0  0  0  0  0  0
    4.0200   -1.1040   -1.9870 O   0  0  0  0  0  0  0  0  0  0  0  0
    5.2120    0.4210   -0.3440 C   0  0  1  0  0  0  0  0  0  0  0  0
    5.9170    0.9970   -1.3900 O   0  0  0  0  0  0  0  0  0  0  0  0
    4.5720    1.4490    0.5640 C   0  0  2  0  0  0  0  0  0  0  0  0
    5.4220    1.8960    1.5580 O   0  0  0  0  0  0  0  0  0  0  0  0
    3.4950    0.6620    1.1000 O   0  0  0  0  0  0  0  0  0  0  0  0
   -2.8060   -1.3870   -0.0450 C   0  0  0  0  0  0  0  0  0  0  0  0
   -3.6840   -0.6560    0.9230 C   0  0  2  0  0  0  0  0  0  0  0  0
   -5.0120   -1.0140    0.6540 O   0  0  0  0  0  0  0  0  0  0  0  0
  2  1  1  6
  2  3  1  0
  2 21  1  0
  3  4  1  0
  4  5  1  6
  4  6  1  0
  6  7  1  6
  6  8  1  0
  6 20  1  0
  8  9  1  0
  9 10  1  0
 10 11  2  0
 10 12  1  0
 12 13  2  0
 12 19  1  0
 13 14  1  0
 13 15  1  0
 15 16  1  6
 15 17  1  0
 17 18  1  1
 17 19  1  0
 20 21  1  0
 21 22  1  6
M  END
