
     RDKit          3D

  9  8  0  0  0  0  0  0  0  0999 V2000
   -1.4440   -1.5150    0.0370 O   0  0  0  0  0  0  0  0  0  0  0  0
   -1.1010    0.0960   -0.2310 P   0  0  0  0  0  0  0  0  0  0  0  0
   -2.0450    0.9620   -1.3010 O   0  0  0  0  0  0  0  0  0  0  0  0
   -1.9700    0.4860    0.9670 O   0  0  0  0  0  0  0  0  0  0  0  0
    0.2410    0.8100    0.4370 N   0  0  0  0  0  0  0  0  0  0  0  0
    1.7380    0.0090    0.3630 P   0  0  0  0  0  0  0  0  0  0  0  0
    1.7260   -1.6030   -0.0740 O   0  0  0  0  0  0  0  0  0  0  0  0
    1.9560    0.3450   -1.1180 O   0  0  0  0  0  0  0  0  0  0  0  0
    1.6390   -0.4310    1.8240 O   0  0  0  0  0  0  0  0  0  0  0  0
  1  2  1  0
  2  3  1  0
  2  4  1  0
  2  5  1  0
  5  6  1  0
  6  7  1  0
  6  8  1  0
  6  9  1  0
M  END
