
     RDKit          3D

 21 23  0  0  0  0  0  0  0  0999 V2000
    2.0690    1.1230    0.3130 N   0  0  0  0  0  0  0  0  0  0  0  0
    1.9010    0.1480   -0.4450 C   0  0  0  0  0  0  0  0  0  0  0  0
    0.7470   -0.6960   -0.6570 C   0  0  0  0  0  0  0  0  0  0  0  0
   -0.5020   -0.6640   -0.2310 C   0  0  0  0  0  0  0  0  0  0  0  0
   -1.5030   -1.6600   -0.5850 N   0  0  0  0  0  0  0  0  0  0  0  0
   -2.7370   -1.2820    0.0290 C   0  0  0  0  0  0  0  0  0  0  0  0
   -3.8780   -1.5140   -0.3740 O   0  0  0  0  0  0  0  0  0  0  0  0
   -2.2410   -0.5460    1.2630 C   0  0  2  0  0  0  0  0  0  0  0  0
   -3.3130    0.2150    1.9170 C   0  0  0  0  0  0  0  0  0  0  0  0
   -3.5400    1.5280    1.4050 N   0  0  0  0  0  0  0  0  0  0  0  0
   -2.5230    2.2680    0.7890 C   0  0  0  0  0  0  0  0  0  0  0  0
   -2.7090    3.3940    0.2640 O   0  0  0  0  0  0  0  0  0  0  0  0
   -1.1530    1.6790    0.7590 C   0  0  0  0  0  0  0  0  0  0  0  0
   -1.2220    0.2570    0.5750 N   0  0  0  0  0  0  0  0  0  0  0  0
    1.2320   -1.7050   -1.6260 C   0  0  0  0  0  0  0  0  0  0  0  0
    0.5310   -2.7780   -2.1880 O   0  0  0  0  0  0  0  0  0  0  0  0
    2.4950   -1.4760   -1.9360 C   0  0  0  0  0  0  0  0  0  0  0  0
    3.0010   -0.3590   -1.2640 N   0  0  0  0  0  0  0  0  0  0  0  0
    4.6660    0.3420   -1.3640 P   0  0  0  0  0  0  0  0  0  0  0  0
    5.7530   -0.5310   -0.3260 O   0  0  0  0  0  0  0  0  0  0  0  0
    4.6310    1.9820   -0.8300 O   0  0  0  0  0  0  0  0  0  0  0  0
  1  2  2  0
  2  3  1  0
  2 18  1  0
  3  4  2  3
  3 15  1  0
  4  5  1  0
  4 14  1  0
  5  6  1  0
  6  7  2  0
  6  8  1  0
  8  9  1  6
  8 14  1  0
  9 10  1  0
 10 11  1  0
 11 12  2  0
 11 13  1  0
 13 14  1  0
 15 16  1  0
 15 17  2  0
 17 18  1  0
 18 19  1  0
 19 20  1  0
 19 21  1  0
M  END
