
     RDKit          3D

 21 23  0  0  0  0  0  0  0  0999 V2000
    3.9830    1.4450   -2.4540 O   0  0  0  0  0  0  0  0  0  0  0  0
    3.2950    1.3210   -1.4260 C   0  0  0  0  0  0  0  0  0  0  0  0
    2.1600    0.3480   -1.4690 C   0  0  0  0  0  0  0  0  0  0  0  0
    1.6720    0.0710   -0.1280 N   0  0  0  0  0  0  0  0  0  0  0  0
    0.7990   -1.0490    0.0910 C   0  0  0  0  0  0  0  0  0  0  0  0
    1.1850   -2.2400   -0.1920 N   0  0  0  0  0  0  0  0  0  0  0  0
    0.1820   -3.1940    0.0970 C   0  0  0  0  0  0  0  0  0  0  0  0
   -0.8760   -2.5720    0.5800 C   0  0  0  0  0  0  0  0  0  0  0  0
   -0.5390   -1.1360    0.6060 C   0  0  1  0  0  0  0  0  0  0  0  0
   -0.7940   -0.4970    1.9010 C   0  0  0  0  0  0  0  0  0  0  0  0
   -0.0190   -0.1150    2.8020 O   0  0  0  0  0  0  0  0  0  0  0  0
   -2.2040   -0.3650    1.9810 N   0  0  0  0  0  0  0  0  0  0  0  0
   -2.7950   -0.5880    0.6550 C   0  0  0  0  0  0  0  0  0  0  0  0
   -1.5920   -0.4470   -0.2550 C   0  0  2  0  0  0  0  0  0  0  0  0
   -1.7580   -1.0580   -1.4750 O   0  0  0  0  0  0  0  0  0  0  0  0
   -1.2340    1.3690   -0.4100 P   0  0  0  0  0  0  0  0  0  0  0  0
   -1.1500    1.8750   -2.0620 O   0  0  0  0  0  0  0  0  0  0  0  0
   -2.4260    2.3300    0.4080 O   0  0  0  0  0  0  0  0  0  0  0  0
    2.0280    0.8580    0.9370 N   0  0  0  0  0  0  0  0  0  0  0  0
    2.9060    1.7940    0.9200 C   0  0  0  0  0  0  0  0  0  0  0  0
    3.5980    2.0800   -0.2810 N   0  0  0  0  0  0  0  0  0  0  0  0
  1  2  2  0
  2  3  1  0
  2 21  1  0
  3  4  1  0
  4  5  1  0
  4 19  1  0
  5  6  2  0
  5  9  1  0
  6  7  1  0
  7  8  2  0
  9  8  1  1
  9 10  1  0
  9 14  1  0
 10 11  2  0
 10 12  1  0
 12 13  1  0
 13 14  1  0
 14 15  1  6
 14 16  1  0
 16 17  1  0
 16 18  1  0
 19 20  2  0
 20 21  1  0
M  END
