
     RDKit          3D

 21 23  0  0  0  0  0  0  0  0999 V2000
   -5.5730    0.7570   -0.9640 C   0  0  0  0  0  0  0  0  0  0  0  0
   -4.9110   -0.1580    0.0750 C   0  0  1  0  0  0  0  0  0  0  0  0
   -5.8460   -0.8070    0.8420 O   0  0  0  0  0  0  0  0  0  0  0  0
   -3.9750   -1.0440   -0.5820 N   0  0  0  0  0  0  0  0  0  0  0  0
   -2.7220   -0.9430    0.1490 C   0  0  0  0  0  0  0  0  0  0  0  0
   -2.7710    0.4490    0.6630 C   0  0  0  0  0  0  0  0  0  0  0  0
   -1.7490    1.2130    0.8460 N   0  0  0  0  0  0  0  0  0  0  0  0
   -0.4400    0.8080    0.5730 N   0  0  0  0  0  0  0  0  0  0  0  0
    0.5560    1.6260    0.1470 C   0  0  0  0  0  0  0  0  0  0  0  0
    1.7030    0.8790   -0.0160 C   0  0  0  0  0  0  0  0  0  0  0  0
    1.3690   -0.4100    0.3230 C   0  0  0  0  0  0  0  0  0  0  0  0
    0.0770   -0.4090    0.6700 N   0  0  0  0  0  0  0  0  0  0  0  0
    2.2450   -1.5350    0.3060 N   0  0  0  0  0  0  0  0  0  0  0  0
    3.6060   -1.6260   -0.1860 C   0  0  2  0  0  0  0  0  0  0  0  0
    4.7330   -1.2700    1.2580 P   0  0  0  0  0  0  0  0  0  0  0  0
    3.8490   -0.5620    2.5730 O   0  0  0  0  0  0  0  0  0  0  0  0
    6.0140   -0.2240    0.7130 O   0  0  0  0  0  0  0  0  0  0  0  0
    3.7780   -0.5250   -1.2140 C   0  0  0  0  0  0  0  0  0  0  0  0
    4.0240    0.6480   -0.5180 O   0  0  0  0  0  0  0  0  0  0  0  0
    2.9590    1.5110   -0.4760 C   0  0  0  0  0  0  0  0  0  0  0  0
   -4.1120    0.7120    0.8880 O   0  0  0  0  0  0  0  0  0  0  0  0
  2  1  1  6
  2  3  1  0
  2  4  1  0
  2 21  1  0
  4  5  1  0
  5  6  1  0
  6  7  2  3
  6 21  1  0
  7  8  1  0
  8  9  1  0
  8 12  1  0
  9 10  2  0
 10 11  1  0
 10 20  1  0
 11 12  2  0
 11 13  1  0
 13 14  1  0
 14 15  1  1
 14 18  1  0
 15 16  1  0
 15 17  1  0
 18 19  1  0
 19 20  1  0
M  END
