
     RDKit          3D

 22 25  0  0  0  0  0  0  0  0999 V2000
   -1.8760    0.8090    3.1060 O   0  0  0  0  0  0  0  0  0  0  0  0
   -1.3430    0.6910    1.9690 C   0  0  0  0  0  0  0  0  0  0  0  0
   -0.4190    1.5700    1.3490 N   0  0  0  0  0  0  0  0  0  0  0  0
    0.3650    0.6930    0.5020 C   0  0  1  0  0  0  0  0  0  0  0  0
    1.3320   -0.0330    1.4500 C   0  0  0  0  0  0  0  0  0  0  0  0
    2.1550   -0.9250    0.7220 O   0  0  0  0  0  0  0  0  0  0  0  0
    2.9930   -0.3750   -0.2990 C   0  0  0  0  0  0  0  0  0  0  0  0
    3.4630    0.8180   -0.2890 C   0  0  0  0  0  0  0  0  0  0  0  0
    4.2590    1.2270   -1.3350 O   0  0  0  0  0  0  0  0  0  0  0  0
    4.6780   -0.2720   -2.1810 P   0  0  0  0  0  0  0  0  0  0  0  0
    6.1490   -0.8680   -1.4790 O   0  0  0  0  0  0  0  0  0  0  0  0
    3.3290   -1.2010   -1.4020 N   0  0  0  0  0  0  0  0  0  0  0  0
   -0.5220   -0.2460    0.0480 O   0  0  0  0  0  0  0  0  0  0  0  0
   -1.5330   -0.3930    0.9720 C   0  0  2  0  0  0  0  0  0  0  0  0
   -2.8400   -0.1490    0.3080 C   0  0  0  0  0  0  0  0  0  0  0  0
   -3.8830    0.6100    0.7930 C   0  0  0  0  0  0  0  0  0  0  0  0
   -4.8890    0.6100   -0.0560 O   0  0  0  0  0  0  0  0  0  0  0  0
   -4.5150   -0.1320   -1.0720 C   0  0  0  0  0  0  0  0  0  0  0  0
   -4.9420   -0.6040   -2.2790 N   0  0  0  0  0  0  0  0  0  0  0  0
   -4.0020   -1.3430   -2.8140 N   0  0  0  0  0  0  0  0  0  0  0  0
   -2.9750   -1.3490   -1.9600 C   0  0  0  0  0  0  0  0  0  0  0  0
   -3.2690   -0.6100   -0.8810 N   0  0  0  0  0  0  0  0  0  0  0  0
  1  2  2  0
  2  3  1  0
  2 14  1  0
  3  4  1  0
  4  5  1  1
  4 13  1  0
  5  6  1  0
  6  7  1  0
  7  8  2  0
  7 12  1  0
  8  9  1  0
  9 10  1  0
 10 11  1  0
 10 12  1  0
 13 14  1  0
 14 15  1  6
 15 16  2  0
 15 22  1  0
 16 17  1  0
 17 18  1  0
 18 19  2  0
 18 22  1  0
 19 20  1  0
 20 21  2  0
 21 22  1  0
M  END
