
     RDKit          3D

 13 12  0  0  0  0  0  0  0  0999 V2000
    2.8550   -0.8450    0.1920 C   0  0  0  0  0  0  0  0  0  0  0  0
    1.5500   -1.1910   -0.1710 O   0  0  0  0  0  0  0  0  0  0  0  0
    0.6090   -0.3620   -0.7180 C   0  0  0  0  0  0  0  0  0  0  0  0
    0.9030    0.2510   -1.8380 C   0  0  0  0  0  0  0  0  0  0  0  0
    2.1350    0.0840   -2.4790 O   0  0  0  0  0  0  0  0  0  0  0  0
   -0.6640   -0.1740   -0.0810 C   0  0  0  0  0  0  0  0  0  0  0  0
   -1.5120    0.7110   -0.7800 O   0  0  0  0  0  0  0  0  0  0  0  0
   -1.7060    2.0390   -0.3780 C   0  0  0  0  0  0  0  0  0  0  0  0
   -2.5940    2.6220   -1.2810 O   0  0  0  0  0  0  0  0  0  0  0  0
   -1.1120   -0.6970    1.0180 C   0  0  0  0  0  0  0  0  0  0  0  0
   -2.4100   -0.3370    1.4180 O   0  0  0  0  0  0  0  0  0  0  0  0
   -0.4230   -1.6330    1.9090 C   0  0  0  0  0  0  0  0  0  0  0  0
   -1.5270   -3.2480    1.9470 Br  0  0  0  0  0  0  0  0  0  0  0  0
  1  2  1  0
  2  3  1  0
  3  4  2  3
  3  6  1  0
  4  5  1  0
  6  7  1  0
  6 10  2  3
  7  8  1  0
  8  9  1  0
 10 11  1  0
 10 12  1  0
 12 13  1  0
M  END
