
     RDKit          3D

 39 40  0  0  0  0  0  0  0  0999 V2000
   -4.6300    5.8300   -0.8880 C   0  0  0  0  0  0  0  0  0  0  0  0
   -5.3100    4.6330   -1.1610 C   0  0  0  0  0  0  0  0  0  0  0  0
   -5.0880    3.6400   -0.1800 C   0  0  0  0  0  0  0  0  0  0  0  0
   -5.5690    2.3850   -0.1190 C   0  0  0  0  0  0  0  0  0  0  0  0
   -5.1660    1.5440    1.0200 C   0  0  0  0  0  0  0  0  0  0  0  0
   -4.4040    0.2600    0.6660 C   0  0  0  0  0  0  0  0  0  0  0  0
   -3.2760    0.4750   -0.2210 C   0  0  2  0  0  0  0  0  0  0  0  0
   -3.6970    0.9180   -1.6130 C   0  0  0  0  0  0  0  0  0  0  0  0
   -2.0300   -0.2630   -0.2170 N   0  0  0  0  0  0  0  0  0  0  0  0
   -0.8780    0.4830   -0.0450 C   0  0  0  0  0  0  0  0  0  0  0  0
   -1.4460    1.7890   -0.2020 O   0  0  0  0  0  0  0  0  0  0  0  0
    0.4650    0.7780    0.1710 C   0  0  0  0  0  0  0  0  0  0  0  0
    0.8020    2.1120   -0.0640 C   0  0  0  0  0  0  0  0  0  0  0  0
    2.0900    2.7200    0.0610 C   0  0  0  0  0  0  0  0  0  0  0  0
    2.2830    3.9480   -0.1800 O   0  0  0  0  0  0  0  0  0  0  0  0
    3.1810    1.8650    0.4800 C   0  0  0  0  0  0  0  0  0  0  0  0
    4.3830    2.3490    0.6580 C   0  0  0  0  0  0  0  0  0  0  0  0
    5.5070    1.5380    1.0660 C   0  0  0  0  0  0  0  0  0  0  0  0
    6.1690    1.8290    2.2520 C   0  0  0  0  0  0  0  0  0  0  0  0
    7.2670    1.1270    2.6920 C   0  0  0  0  0  0  0  0  0  0  0  0
    7.9670    1.4350    3.9730 C   0  0  0  0  0  0  0  0  0  0  0  0
    7.7220    0.0870    1.9070 C   0  0  0  0  0  0  0  0  0  0  0  0
    7.0970   -0.2240    0.7390 C   0  0  0  0  0  0  0  0  0  0  0  0
    5.9840    0.4880    0.2940 C   0  0  0  0  0  0  0  0  0  0  0  0
    5.3920    0.1490   -0.9450 N   0  0  0  0  0  0  0  0  0  0  0  0
    2.8120    0.4990    0.7250 C   0  0  0  0  0  0  0  0  0  0  0  0
    1.5580   -0.0560    0.6000 C   0  0  0  0  0  0  0  0  0  0  0  0
    1.5410   -1.4090    1.0310 C   0  0  0  0  0  0  0  0  0  0  0  0
    0.9120   -2.4640    1.2670 C   0  0  0  0  0  0  0  0  0  0  0  0
    1.6990   -3.6760    1.7790 C   0  0  0  0  0  0  0  0  0  0  0  0
    3.0900   -3.5190    1.9380 N   0  0  0  0  0  0  0  0  0  0  0  0
    1.1020   -4.7360    2.0310 O   0  0  0  0  0  0  0  0  0  0  0  0
   -1.9170   -1.6610   -0.5050 C   0  0  1  0  0  0  0  0  0  0  0  0
   -2.7270   -2.4740    0.4980 C   0  0  0  0  0  0  0  0  0  0  0  0
   -2.3880   -2.2410    1.8290 O   0  0  0  0  0  0  0  0  0  0  0  0
   -2.4040   -2.1700   -1.8430 C   0  0  2  0  0  0  0  0  0  0  0  0
   -3.8510   -2.0900   -2.1410 C   0  0  0  0  0  0  0  0  0  0  0  0
   -1.8950   -3.5700   -2.0320 C   0  0  0  0  0  0  0  0  0  0  0  0
   -2.3660   -4.0920   -3.4050 C   0  0  0  0  0  0  0  0  0  0  0  0
  1  2  2  0
  2  3  1  0
  3  4  2  3
  4  5  1  0
  5  6  1  0
  6  7  1  0
  7  8  1  6
  7  9  1  0
  9 10  1  0
  9 33  1  0
 10 11  2  0
 10 12  1  0
 12 13  2  0
 12 27  1  0
 13 14  1  0
 14 15  2  0
 14 16  1  0
 16 17  2  3
 16 26  1  0
 17 18  1  0
 18 19  2  0
 18 24  1  0
 19 20  1  0
 20 21  1  0
 20 22  2  0
 22 23  1  0
 23 24  2  0
 24 25  1  0
 26 27  2  0
 27 28  1  0
 28 29  2  3
 29 30  1  0
 30 31  1  0
 30 32  2  0
 33 34  1  1
 33 36  1  0
 34 35  1  0
 36 37  1  1
 36 38  1  0
 38 39  1  0
M  END
