
     RDKit          3D

 39 41  0  0  0  0  0  0  0  0999 V2000
   -2.1500   -2.6650    0.3150 C   0  0  0  0  0  0  0  0  0  0  0  0
   -2.9860   -1.7590   -0.4840 C   0  0  0  0  0  0  0  0  0  0  0  0
   -2.8010   -0.2850   -0.3850 C   0  0  1  0  0  0  0  0  0  0  0  0
   -3.8050    0.3760   -1.3000 C   0  0  0  0  0  0  0  0  0  0  0  0
   -2.6160    0.3500    0.9170 C   0  0  1  0  0  0  0  0  0  0  0  0
   -3.6720    0.0520    1.9410 C   0  0  0  0  0  0  0  0  0  0  0  0
   -4.9990    0.5110    1.6060 N   0  0  0  0  0  0  0  0  0  0  0  0
   -6.0970    0.3100    2.4870 C   0  0  0  0  0  0  0  0  0  0  0  0
   -5.8010   -0.3010    3.5730 O   0  0  0  0  0  0  0  0  0  0  0  0
   -7.4880    0.7270    2.2750 C   0  0  0  0  0  0  0  0  0  0  0  0
   -7.7840    1.3690    1.0420 N   0  0  0  0  0  0  0  0  0  0  0  0
   -7.6600    0.7660   -0.2450 C   0  0  0  0  0  0  0  0  0  0  0  0
   -7.2690   -0.4200   -0.3090 O   0  0  0  0  0  0  0  0  0  0  0  0
   -7.9760    1.4910   -1.4910 C   0  0  0  0  0  0  0  0  0  0  0  0
   -7.7610    0.5710   -2.6660 C   0  0  0  0  0  0  0  0  0  0  0  0
   -8.5990   -0.5340   -2.5310 O   0  0  0  0  0  0  0  0  0  0  0  0
   -1.3150    0.5340    1.5210 C   0  0  0  0  0  0  0  0  0  0  0  0
   -0.1700   -0.1360    1.2410 C   0  0  0  0  0  0  0  0  0  0  0  0
    1.0220    0.0660    1.9150 C   0  0  0  0  0  0  0  0  0  0  0  0
    2.1420   -0.7550    1.5160 C   0  0  0  0  0  0  0  0  0  0  0  0
    2.0970   -2.1400    1.6480 C   0  0  0  0  0  0  0  0  0  0  0  0
    3.1730   -2.9300    1.3090 C   0  0  0  0  0  0  0  0  0  0  0  0
    3.1340   -4.4290    1.4480 C   0  0  0  0  0  0  0  0  0  0  0  0
    4.3160   -2.3390    0.8290 C   0  0  0  0  0  0  0  0  0  0  0  0
    4.4000   -0.9450    0.6800 C   0  0  0  0  0  0  0  0  0  0  0  0
    3.3000   -0.2000    1.0320 C   0  0  0  0  0  0  0  0  0  0  0  0
    3.3580    1.2310    0.8240 N   0  0  0  0  0  0  0  0  0  0  0  0
    4.1530    1.7440   -0.2840 C   0  0  0  0  0  0  0  0  0  0  0  0
    5.3940    0.9650   -0.4700 C   0  0  0  0  0  0  0  0  0  0  0  0
    6.3470    1.4610   -1.2850 C   0  0  0  0  0  0  0  0  0  0  0  0
    7.6330    0.8450   -1.5930 C   0  0  0  0  0  0  0  0  0  0  0  0
    7.7950    0.5060   -3.0590 C   0  0  2  0  0  0  0  0  0  0  0  0
    9.1600   -0.1210   -3.2350 C   0  0  0  0  0  0  0  0  0  0  0  0
    7.7380    1.7440   -3.9200 C   0  0  0  0  0  0  0  0  0  0  0  0
    5.6300   -0.3110    0.1870 C   0  0  0  0  0  0  0  0  0  0  0  0
    1.0740    0.9930    2.9300 C   0  0  0  0  0  0  0  0  0  0  0  0
   -0.0590    1.6980    3.2460 C   0  0  0  0  0  0  0  0  0  0  0  0
   -1.2520    1.4840    2.5560 C   0  0  0  0  0  0  0  0  0  0  0  0
   -2.2980    2.2730    2.9660 O   0  0  0  0  0  0  0  0  0  0  0  0
  1  2  1  0
  2  3  1  0
  3  4  1  1
  3  5  1  0
  5  6  1  1
  5 17  1  0
  6  7  1  0
  7  8  1  0
  8  9  2  0
  8 10  1  0
 10 11  1  0
 11 12  1  0
 12 13  2  0
 12 14  1  0
 14 15  1  0
 15 16  1  0
 17 18  2  0
 17 38  1  0
 18 19  1  0
 19 20  1  0
 19 36  2  0
 20 21  2  0
 20 26  1  0
 21 22  1  0
 22 23  1  0
 22 24  2  0
 24 25  1  0
 25 26  2  0
 25 35  1  0
 26 27  1  0
 27 28  1  0
 28 29  1  0
 29 30  2  3
 29 35  1  0
 30 31  1  0
 31 32  1  0
 32 33  1  1
 32 34  1  0
 36 37  1  0
 37 38  2  0
 38 39  1  0
M  END
