
     RDKit          3D

 39 41  0  0  0  0  0  0  0  0999 V2000
   -9.6450    0.0910    3.4080 C   0  0  0  0  0  0  0  0  0  0  0  0
   -8.8940    1.2620    2.8790 C   0  0  0  0  0  0  0  0  0  0  0  0
   -7.5810    0.9830    2.2170 C   0  0  0  0  0  0  0  0  0  0  0  0
   -7.6080    0.1610    0.9860 C   0  0  1  0  0  0  0  0  0  0  0  0
   -8.4380    0.8870    0.0640 O   0  0  0  0  0  0  0  0  0  0  0  0
   -6.2960    0.0480    0.2600 C   0  0  0  0  0  0  0  0  0  0  0  0
   -5.1720   -0.5640    1.0520 C   0  0  0  0  0  0  0  0  0  0  0  0
   -4.0180   -0.6360    0.0930 C   0  0  0  0  0  0  0  0  0  0  0  0
   -3.0620    0.3320    0.0040 C   0  0  0  0  0  0  0  0  0  0  0  0
   -2.0180    0.2920   -0.9210 C   0  0  0  0  0  0  0  0  0  0  0  0
   -1.9290   -0.7600   -1.7890 C   0  0  0  0  0  0  0  0  0  0  0  0
   -0.9350   -0.8660   -2.7910 N   0  0  0  0  0  0  0  0  0  0  0  0
   -1.4960   -0.9760   -4.1830 C   0  0  0  0  0  0  0  0  0  0  0  0
   -1.5660    0.3830   -4.7250 C   0  0  0  0  0  0  0  0  0  0  0  0
   -1.1190    1.5660   -4.0300 N   0  0  0  0  0  0  0  0  0  0  0  0
   -2.0370    0.6250   -5.8910 O   0  0  0  0  0  0  0  0  0  0  0  0
    0.4210   -0.9110   -2.6400 C   0  0  0  0  0  0  0  0  0  0  0  0
    1.1510   -0.9640   -3.7300 O   0  0  0  0  0  0  0  0  0  0  0  0
    1.1760   -0.9070   -1.3450 C   0  0  1  0  0  0  0  0  0  0  0  0
    2.5880   -1.3270   -1.4870 C   0  0  0  0  0  0  0  0  0  0  0  0
    2.3430    0.1240   -1.4680 C   0  0  0  0  0  0  0  0  0  0  0  0
    2.5510    1.4210   -1.4530 C   0  0  0  0  0  0  0  0  0  0  0  0
    3.8080    2.1450   -1.6160 C   0  0  0  0  0  0  0  0  0  0  0  0
    5.0740    1.4790   -1.7540 C   0  0  0  0  0  0  0  0  0  0  0  0
    5.8850    0.9560   -0.6700 C   0  0  0  0  0  0  0  0  0  0  0  0
    7.1110    1.6020   -0.4510 C   0  0  0  0  0  0  0  0  0  0  0  0
    8.0270    1.2220    0.4900 C   0  0  0  0  0  0  0  0  0  0  0  0
    7.7630    0.1290    1.3020 C   0  0  0  0  0  0  0  0  0  0  0  0
    8.8210   -0.2990    2.2620 C   0  0  1  0  0  0  0  0  0  0  0  0
    8.7950   -1.8350    2.3230 C   0  0  0  0  0  0  0  0  0  0  0  0
   10.1640    0.1180    1.6580 C   0  0  0  0  0  0  0  0  0  0  0  0
    8.6820    0.3440    3.5880 C   0  0  0  0  0  0  0  0  0  0  0  0
    6.5800   -0.5200    1.1250 C   0  0  0  0  0  0  0  0  0  0  0  0
    5.6600   -0.1130    0.1560 C   0  0  0  0  0  0  0  0  0  0  0  0
   -2.9100   -1.7720   -1.7070 C   0  0  0  0  0  0  0  0  0  0  0  0
   -3.9290   -1.7160   -0.7910 C   0  0  0  0  0  0  0  0  0  0  0  0
   -8.2500   -1.1720    1.1260 C   0  0  0  0  0  0  0  0  0  0  0  0
   -9.4320   -1.4940    0.4310 N   0  0  0  0  0  0  0  0  0  0  0  0
   -7.6950   -1.9960    1.8840 O   0  0  0  0  0  0  0  0  0  0  0  0
  1  2  1  0
  2  3  1  0
  3  4  1  0
  4  5  1  6
  4  6  1  0
  4 37  1  0
  6  7  1  0
  7  8  1  0
  8  9  2  0
  8 36  1  0
  9 10  1  0
 10 11  2  0
 11 12  1  0
 11 35  1  0
 12 13  1  0
 12 17  1  0
 13 14  1  0
 14 15  1  0
 14 16  2  0
 17 18  2  0
 19 17  1  6
 19 20  1  0
 19 21  1  0
 20 21  1  0
 21 22  2  3
 22 23  1  0
 23 24  1  0
 24 25  1  0
 25 26  2  0
 25 34  1  0
 26 27  1  0
 27 28  2  0
 28 29  1  0
 28 33  1  0
 29 30  1  1
 29 31  1  0
 29 32  1  0
 33 34  2  0
 35 36  2  0
 37 38  1  0
 37 39  2  0
M  END
