
     RDKit          3D

 31 31  0  0  0  0  0  0  0  0999 V2000
    7.2790    3.3200   -0.1400 C   0  0  0  0  0  0  0  0  0  0  0  0
    6.4080    2.2010   -0.5640 C   0  0  0  0  0  0  0  0  0  0  0  0
    6.4410    1.2160   -1.1180 O   0  0  0  0  0  0  0  0  0  0  0  0
    4.7850    2.6450    0.0670 N   0  0  0  0  0  0  0  0  0  0  0  0
    4.2110    1.3180   -0.2500 C   0  0  0  0  0  0  0  0  0  0  0  0
    4.7590    0.2880   -0.4200 O   0  0  0  0  0  0  0  0  0  0  0  0
    2.8040    1.6950   -0.3050 N   0  0  0  0  0  0  0  0  0  0  0  0
    2.2050    0.0140   -0.3210 C   0  0  0  0  0  0  0  0  0  0  0  0
    2.9860   -0.7360   -0.1030 O   0  0  0  0  0  0  0  0  0  0  0  0
    0.7760    0.1940   -0.6410 C   0  0  1  0  0  0  0  0  0  0  0  0
    0.2720    1.0520    0.3780 F   0  0  0  0  0  0  0  0  0  0  0  0
    0.5930    0.8820   -1.8210 F   0  0  0  0  0  0  0  0  0  0  0  0
    0.0500   -1.1120   -0.6040 C   0  0  1  0  0  0  0  0  0  0  0  0
    0.6800   -2.1980   -1.4180 C   0  0  0  0  0  0  0  0  0  0  0  0
    0.7780   -1.7690   -2.8240 C   0  0  0  0  0  0  0  0  0  0  0  0
   -0.2220   -2.0640   -3.7780 N   0  0  0  0  0  0  0  0  0  0  0  0
    1.7820   -1.0980   -3.2510 O   0  0  0  0  0  0  0  0  0  0  0  0
   -0.7770   -1.4590    0.5560 C   0  0  1  0  0  0  0  0  0  0  0  0
   -2.0160   -0.5790    0.7840 C   0  0  0  0  0  0  0  0  0  0  0  0
   -2.9370   -0.6400   -0.2900 N   0  0  0  0  0  0  0  0  0  0  0  0
   -4.1670    0.0330    0.0180 C   0  0  0  0  0  0  0  0  0  0  0  0
   -4.0900    1.5290    0.1360 C   0  0  2  0  0  0  0  0  0  0  0  0
   -3.2860    1.9880    1.1530 O   0  0  0  0  0  0  0  0  0  0  0  0
   -5.8110    2.2300    0.2400 P   0  0  0  0  0  0  0  0  0  0  0  0
   -5.8840    3.2180    1.6750 O   0  0  0  0  0  0  0  0  0  0  0  0
   -6.0350    3.2990   -1.1110 O   0  0  0  0  0  0  0  0  0  0  0  0
   -1.2020   -2.8800    0.6760 C   0  0  0  0  0  0  0  0  0  0  0  0
   -0.1760   -3.6840    1.2220 O   0  0  0  0  0  0  0  0  0  0  0  0
   -0.1860   -3.4140    2.6000 C   0  0  0  0  0  0  0  0  0  0  0  0
   -0.3990   -1.9150    2.8150 C   0  0  0  0  0  0  0  0  0  0  0  0
    0.0060   -1.1890    1.7280 O   0  0  0  0  0  0  0  0  0  0  0  0
  1  2  1  0
  2  3  2  0
  2  4  1  0
  4  5  1  0
  5  6  2  0
  5  7  1  0
  7  8  1  0
  8  9  2  0
  8 10  1  0
 10 11  1  1
 10 12  1  0
 10 13  1  0
 13 14  1  1
 13 18  1  0
 14 15  1  0
 15 16  1  0
 15 17  2  0
 18 19  1  1
 18 27  1  0
 18 31  1  0
 19 20  1  0
 20 21  1  0
 21 22  1  0
 22 23  1  1
 22 24  1  0
 24 25  1  0
 24 26  1  0
 27 28  1  0
 28 29  1  0
 29 30  1  0
 30 31  1  0
M  END
