
     RDKit          3D

 31 32  0  0  0  0  0  0  0  0999 V2000
   -6.5110    4.9250    1.9460 N   0  0  0  0  0  0  0  0  0  0  0  0
   -5.4720    4.1600    1.3510 C   0  0  0  0  0  0  0  0  0  0  0  0
   -4.3840    4.7380    1.0960 O   0  0  0  0  0  0  0  0  0  0  0  0
   -5.6820    2.7520    1.0710 N   0  0  0  0  0  0  0  0  0  0  0  0
   -4.5670    1.9770    0.7260 C   0  0  0  0  0  0  0  0  0  0  0  0
   -3.4990    2.6360    0.4810 O   0  0  0  0  0  0  0  0  0  0  0  0
   -4.5370    0.4590    0.6640 C   0  0  0  0  0  0  0  0  0  0  0  0
   -3.1210    0.1470    0.5840 N   0  0  0  0  0  0  0  0  0  0  0  0
   -2.2150    0.2840   -0.4850 C   0  0  0  0  0  0  0  0  0  0  0  0
   -2.6270    0.6160   -1.5990 O   0  0  0  0  0  0  0  0  0  0  0  0
   -0.8160    0.0140   -0.1560 C   0  0  0  0  0  0  0  0  0  0  0  0
   -0.1440   -1.2410   -0.3720 C   0  0  1  0  0  0  0  0  0  0  0  0
    1.3050   -1.0370    0.1930 C   0  0  0  0  0  0  0  0  0  0  0  0
    2.0160    0.0690   -0.3320 C   0  0  0  0  0  0  0  0  0  0  0  0
    1.4310    1.1980   -0.5390 O   0  0  0  0  0  0  0  0  0  0  0  0
    3.3770    0.0540   -0.6880 N   0  0  0  0  0  0  0  0  0  0  0  0
    3.9150    1.3220   -1.2260 C   0  0  0  0  0  0  0  0  0  0  0  0
    5.3840    1.2270   -1.4800 C   0  0  0  0  0  0  0  0  0  0  0  0
    5.8720    0.8640   -0.1260 O   0  0  0  0  0  0  0  0  0  0  0  0
    6.9850    2.1700    0.1470 P   0  0  0  0  0  0  0  0  0  0  0  0
    8.0920    2.1270    1.3350 O   0  0  0  0  0  0  0  0  0  0  0  0
    6.2250    3.6330   -0.2880 O   0  0  0  0  0  0  0  0  0  0  0  0
   -0.6740   -2.2570    0.7550 C   0  0  0  0  0  0  0  0  0  0  0  0
    0.1440   -3.4520    0.4010 C   0  0  1  0  0  0  0  0  0  0  0  0
   -0.5490   -4.6520    0.6510 O   0  0  0  0  0  0  0  0  0  0  0  0
   -1.4550   -4.7720   -0.3810 C   0  0  0  0  0  0  0  0  0  0  0  0
   -0.6220   -4.3980   -1.6020 C   0  0  1  0  0  0  0  0  0  0  0  0
    0.0610   -5.5210   -2.0060 F   0  0  0  0  0  0  0  0  0  0  0  0
   -1.4700   -3.9230   -2.5660 F   0  0  0  0  0  0  0  0  0  0  0  0
    0.3030   -3.3040   -1.0710 C   0  0  1  0  0  0  0  0  0  0  0  0
   -0.1430   -2.0240   -1.4350 O   0  0  0  0  0  0  0  0  0  0  0  0
  1  2  1  0
  2  3  2  0
  2  4  1  0
  4  5  1  0
  5  6  2  0
  5  7  1  0
  7  8  1  0
  8  9  1  0
  9 10  2  0
  9 11  1  0
 12 11  1  6
 12 13  1  0
 12 23  1  0
 12 31  1  0
 13 14  1  0
 14 15  2  0
 14 16  1  0
 16 17  1  0
 17 18  1  0
 18 19  1  0
 19 20  1  0
 20 21  1  0
 20 22  1  0
 24 23  1  6
 24 25  1  0
 24 30  1  0
 25 26  1  0
 26 27  1  0
 27 28  1  6
 27 29  1  0
 27 30  1  0
 30 31  1  6
M  END
