
     RDKit          3D

 32 32  0  0  0  0  0  0  0  0999 V2000
   -1.1570    3.2110    3.2370 N   0  0  0  0  0  0  0  0  0  0  0  0
   -0.5580    2.3470    2.3310 N   0  0  0  0  0  0  0  0  0  0  0  0
    0.5340    1.7650    2.5430 C   0  0  0  0  0  0  0  0  0  0  0  0
    1.2450    0.8600    1.6930 C   0  0  0  0  0  0  0  0  0  0  0  0
    0.8550    0.4800    0.5130 C   0  0  0  0  0  0  0  0  0  0  0  0
   -0.3680    0.9270   -0.1120 N   0  0  0  0  0  0  0  0  0  0  0  0
   -0.8330    0.5420   -1.3780 C   0  0  0  0  0  0  0  0  0  0  0  0
   -2.0610    0.9960   -2.0650 C   0  0  0  0  0  0  0  0  0  0  0  0
   -3.2690    0.7490   -1.5300 O   0  0  0  0  0  0  0  0  0  0  0  0
   -3.9070    1.1750   -0.4380 C   0  0  0  0  0  0  0  0  0  0  0  0
   -3.3960    1.9900    0.3440 O   0  0  0  0  0  0  0  0  0  0  0  0
   -5.2900    0.6200   -0.1880 C   0  0  2  0  0  0  0  0  0  0  0  0
   -6.0850    0.8690   -1.4370 C   0  0  0  0  0  0  0  0  0  0  0  0
   -7.3540    0.2960   -1.3570 O   0  0  0  0  0  0  0  0  0  0  0  0
   -5.8720    1.1410    0.9990 N   0  0  0  0  0  0  0  0  0  0  0  0
   -6.2290    0.3830    2.1320 C   0  0  0  0  0  0  0  0  0  0  0  0
   -6.0240   -0.8470    2.1060 O   0  0  0  0  0  0  0  0  0  0  0  0
   -6.7930    0.9480    3.2570 O   0  0  0  0  0  0  0  0  0  0  0  0
   -0.0310   -0.3250   -2.0350 C   0  0  0  0  0  0  0  0  0  0  0  0
   -0.4360   -0.7340   -3.2730 F   0  0  0  0  0  0  0  0  0  0  0  0
    1.1990   -0.8090   -1.4710 C   0  0  0  0  0  0  0  0  0  0  0  0
    1.6510   -0.4470   -0.2620 C   0  0  0  0  0  0  0  0  0  0  0  0
    2.9290   -1.0270    0.1870 C   0  0  0  0  0  0  0  0  0  0  0  0
    3.4440   -0.7690    1.2720 O   0  0  0  0  0  0  0  0  0  0  0  0
    3.6070   -1.9100   -0.6310 O   0  0  0  0  0  0  0  0  0  0  0  0
    4.8140   -2.5360   -0.3720 C   0  0  0  0  0  0  0  0  0  0  0  0
    5.9680   -1.6050   -0.2760 C   0  0  1  0  0  0  0  0  0  0  0  0
    5.8350   -0.7320    0.7720 F   0  0  0  0  0  0  0  0  0  0  0  0
    7.1770   -2.2800   -0.0440 O   0  0  0  0  0  0  0  0  0  0  0  0
    8.3370   -1.9270   -1.2810 P   0  0  0  0  0  0  0  0  0  0  0  0
    9.8930   -1.7390   -0.5850 O   0  0  0  0  0  0  0  0  0  0  0  0
    8.3260   -3.1350   -2.5250 O   0  0  0  0  0  0  0  0  0  0  0  0
  1  2  1  0
  2  3  2  3
  3  4  1  0
  4  5  2  3
  5  6  1  0
  5 22  1  0
  6  7  1  0
  7  8  1  0
  7 19  2  0
  8  9  1  0
  9 10  1  0
 10 11  2  0
 10 12  1  0
 12 13  1  6
 12 15  1  0
 13 14  1  0
 15 16  1  0
 16 17  2  0
 16 18  1  0
 19 20  1  0
 19 21  1  0
 21 22  2  0
 22 23  1  0
 23 24  2  0
 23 25  1  0
 25 26  1  0
 26 27  1  0
 27 28  1  1
 27 29  1  0
 29 30  1  0
 30 31  1  0
 30 32  1  0
M  END
