
     RDKit          3D

 39 41  0  0  0  0  0  0  0  0999 V2000
    2.7300    2.9620   -2.0660 C   0  0  0  0  0  0  0  0  0  0  0  0
    1.8310    2.3430   -1.0360 C   0  0  1  0  0  0  0  0  0  0  0  0
    1.6050    3.3090    0.1120 C   0  0  0  0  0  0  0  0  0  0  0  0
    2.8830    3.6100    0.7040 N   0  0  0  0  0  0  0  0  0  0  0  0
    3.6510    2.6280    1.3920 C   0  0  0  0  0  0  0  0  0  0  0  0
    4.9800    2.9050    1.6620 C   0  0  0  0  0  0  0  0  0  0  0  0
    5.7420    1.9880    2.3360 C   0  0  0  0  0  0  0  0  0  0  0  0
    5.2560    0.7630    2.7780 C   0  0  0  0  0  0  0  0  0  0  0  0
    6.0520   -0.1450    3.4570 O   0  0  0  0  0  0  0  0  0  0  0  0
    6.1360   -0.0990    4.8550 C   0  0  2  0  0  0  0  0  0  0  0  0
    6.6280    1.1340    5.2470 F   0  0  0  0  0  0  0  0  0  0  0  0
    6.9760   -1.0980    5.3100 F   0  0  0  0  0  0  0  0  0  0  0  0
    4.9060   -0.2660    5.4450 F   0  0  0  0  0  0  0  0  0  0  0  0
    3.9240    0.5250    2.4890 C   0  0  0  0  0  0  0  0  0  0  0  0
    3.1360    1.4270    1.8150 C   0  0  0  0  0  0  0  0  0  0  0  0
    0.5760    1.9460   -1.6540 N   0  0  0  0  0  0  0  0  0  0  0  0
    0.1290    0.6070   -1.6620 C   0  0  0  0  0  0  0  0  0  0  0  0
    0.8700   -0.2410   -1.1010 O   0  0  0  0  0  0  0  0  0  0  0  0
   -1.1440    0.1540   -2.2850 C   0  0  2  0  0  0  0  0  0  0  0  0
   -2.2700    1.0870   -2.0630 C   0  0  0  0  0  0  0  0  0  0  0  0
   -2.7240    1.4610   -0.4270 S   0  0  1  0  0  0  0  0  0  0  0  0
   -1.6770    2.2570    0.3090 O   0  0  0  0  0  0  0  0  0  0  0  0
   -3.9510    2.3710   -0.5060 O   0  0  0  0  0  0  0  0  0  0  0  0
   -3.2250    0.0830    0.5610 C   0  0  0  0  0  0  0  0  0  0  0  0
   -3.6210    0.5210    1.9320 C   0  0  0  0  0  0  0  0  0  0  0  0
   -4.9050    0.8800    2.2350 C   0  0  0  0  0  0  0  0  0  0  0  0
   -5.2810    1.2830    3.5130 C   0  0  0  0  0  0  0  0  0  0  0  0
   -4.3090    1.3190    4.5160 C   0  0  0  0  0  0  0  0  0  0  0  0
   -3.0150    0.9610    4.2280 C   0  0  0  0  0  0  0  0  0  0  0  0
   -2.6830    0.5630    2.9290 C   0  0  0  0  0  0  0  0  0  0  0  0
   -1.4020   -1.2450   -2.1430 N   0  0  0  0  0  0  0  0  0  0  0  0
   -1.2170   -2.1610   -3.2370 C   0  0  0  0  0  0  0  0  0  0  0  0
   -0.8210   -1.6870   -4.3140 O   0  0  0  0  0  0  0  0  0  0  0  0
   -1.4670   -3.5510   -3.1280 N   0  0  0  0  0  0  0  0  0  0  0  0
   -1.9450   -4.2140   -1.9340 C   0  0  0  0  0  0  0  0  0  0  0  0
   -2.8820   -5.3670   -2.2190 C   0  0  0  0  0  0  0  0  0  0  0  0
   -2.4900   -6.1470   -3.2910 O   0  0  0  0  0  0  0  0  0  0  0  0
   -1.2190   -5.8270   -3.7540 C   0  0  0  0  0  0  0  0  0  0  0  0
   -1.2260   -4.3860   -4.2880 C   0  0  0  0  0  0  0  0  0  0  0  0
  2  1  1  6
  2  3  1  0
  2 16  1  0
  3  4  1  0
  4  5  1  0
  5  6  2  0
  5 15  1  0
  6  7  1  0
  7  8  2  0
  8  9  1  0
  8 14  1  0
  9 10  1  0
 10 11  1  6
 10 12  1  0
 10 13  1  0
 14 15  2  0
 16 17  1  0
 17 18  2  0
 17 19  1  0
 19 20  1  1
 19 31  1  0
 21 20  1  6
 21 22  2  0
 21 23  2  0
 21 24  1  0
 24 25  1  0
 25 26  2  0
 25 30  1  0
 26 27  1  0
 27 28  2  0
 28 29  1  0
 29 30  2  0
 31 32  1  0
 32 33  2  0
 32 34  1  0
 34 35  1  0
 34 39  1  0
 35 36  1  0
 36 37  1  0
 37 38  1  0
 38 39  1  0
M  END
